AV-unprocessed.smi:2032|AV-procd|sdf|8236|dock1
  -GOLD-   2272010503D 1   1.00000     0.00000
 Structure written by MMmdl.
 42 43  0  0  0  0  0  0  0  0  1 V2000
  150.7816  141.9666  156.1358 C   0  0  0  0  0  0  0  0  0  0  0  0
  150.4685  140.4912  155.8652 C   0  0  1  0  0  0  0  0  0  0  0  0
  148.9682  140.2561  155.6171 C   0  0  0  0  0  0  0  0  0  0  0  0
  148.6663  138.8636  155.2804 N   0  0  0  0  0  0  0  0  0  0  0  0
  147.2194  138.6279  155.0795 C   0  0  1  0  0  0  0  0  0  0  0  0
  146.3205  139.5221  155.9633 C   0  0  0  0  0  0  0  0  0  0  0  0
  146.7560  138.7709  153.6055 C   0  0  0  0  0  0  0  0  0  0  0  0
  146.8679  137.5171  152.8623 N   0  0  0  0  0  0  0  0  0  0  0  0
  145.8568  136.6863  152.5720 C   0  0  0  0  0  0  0  0  0  0  0  0
  144.6942  136.8766  152.9309 O   0  0  0  0  0  0  0  0  0  0  0  0
  146.2842  135.6409  151.8426 N   0  0  0  0  0  0  0  0  0  0  0  0
  145.5217  134.5612  151.3248 C   0  0  0  0  0  0  0  0  0  0  0  0
  144.1852  134.5009  151.3494 N   0  0  0  0  0  0  0  0  0  0  0  0
  143.7027  133.3245  150.7702 C   0  0  0  0  0  0  0  0  0  0  0  0
  144.6928  132.4949  150.3058 C   0  0  0  0  0  0  0  0  0  0  0  0
  146.2804  133.1618  150.5795 S   0  0  0  0  0  0  0  0  0  0  0  0
  149.4649  138.4959  154.1079 C   0  0  0  0  0  0  0  0  0  0  0  0
  150.9751  138.7449  154.2942 C   0  0  2  0  0  0  0  0  0  0  0  0
  151.6503  137.7236  155.2256 C   0  0  0  0  0  0  0  0  0  0  0  0
  151.2096  140.0864  154.7183 O   0  0  0  0  0  0  0  0  0  0  0  0
  150.2403  142.3291  157.0100 H   0  0  0  0  0  0  0  0  0  0  0  0
  150.5032  142.5911  155.2864 H   0  0  0  0  0  0  0  0  0  0  0  0
  151.8462  142.1109  156.3210 H   0  0  0  0  0  0  0  0  0  0  0  0
  150.7892  139.9095  156.7299 H   0  0  0  0  0  0  0  0  0  0  0  0
  148.4404  140.5544  156.5213 H   0  0  0  0  0  0  0  0  0  0  0  0
  148.6201  140.9127  154.8181 H   0  0  0  0  0  0  0  0  0  0  0  0
  147.0044  137.5979  155.3682 H   0  0  0  0  0  0  0  0  0  0  0  0
  145.2689  139.4118  155.6971 H   0  0  0  0  0  0  0  0  0  0  0  0
  146.5770  140.5768  155.8587 H   0  0  0  0  0  0  0  0  0  0  0  0
  146.3937  139.2615  157.0186 H   0  0  0  0  0  0  0  0  0  0  0  0
  145.7192  139.1015  153.5567 H   0  0  0  0  0  0  0  0  0  0  0  0
  147.3151  139.5663  153.1097 H   0  0  0  0  0  0  0  0  0  0  0  0
  147.7871  137.2809  152.5184 H   0  0  0  0  0  0  0  0  0  0  0  0
  147.2694  135.6191  151.6245 H   0  0  0  0  0  0  0  0  0  0  0  0
  142.6362  133.1585  150.7307 H   0  0  0  0  0  0  0  0  0  0  0  0
  144.5844  131.5358  149.8216 H   0  0  0  0  0  0  0  0  0  0  0  0
  149.3301  137.4436  153.8623 H   0  0  0  0  0  0  0  0  0  0  0  0
  149.1175  139.0630  153.2430 H   0  0  0  0  0  0  0  0  0  0  0  0
  151.4522  138.6470  153.3187 H   0  0  0  0  0  0  0  0  0  0  0  0
  151.5633  136.7147  154.8215 H   0  0  0  0  0  0  0  0  0  0  0  0
  151.2026  137.7147  156.2192 H   0  0  0  0  0  0  0  0  0  0  0  0
  152.7120  137.9432  155.3386 H   0  0  0  0  0  0  0  0  0  0  0  0
  1  2  1  0  0  0  0
  1 21  1  0  0  0  0
  1 22  1  0  0  0  0
  1 23  1  0  0  0  0
  2 20  1  0  0  0  0
  2  3  1  0  0  0  0
  2 24  1  0  0  0  0
  3  4  1  0  0  0  0
  3 25  1  0  0  0  0
  3 26  1  0  0  0  0
  4  5  1  0  0  0  0
  4 17  1  0  0  0  0
  5  6  1  0  0  0  0
  5  7  1  0  0  0  0
  5 27  1  0  0  0  0
  6 28  1  0  0  0  0
  6 29  1  0  0  0  0
  6 30  1  0  0  0  0
  7  8  1  0  0  0  0
  7 31  1  0  0  0  0
  7 32  1  0  0  0  0
  8  9  1  0  0  0  0
  8 33  1  0  0  0  0
  9 10  2  0  0  0  0
  9 11  1  0  0  0  0
 11 12  1  0  0  0  0
 11 34  1  0  0  0  0
 12 16  1  0  0  0  0
 12 13  2  0  0  0  0
 13 14  1  0  0  0  0
 14 15  2  0  0  0  0
 14 35  1  0  0  0  0
 15 16  1  0  0  0  0
 15 36  1  0  0  0  0
 17 18  1  0  0  0  0
 17 37  1  0  0  0  0
 17 38  1  0  0  0  0
 18 19  1  0  0  0  0
 18 20  1  0  0  0  0
 18 39  1  0  0  0  0
 19 40  1  0  0  0  0
 19 41  1  0  0  0  0
 19 42  1  0  0  0  0
M  END
> <s_m_source_file>
AV-unprocessed.smi

> <i_m_source_file_index>
2032

> <i_lp_mmshare_version>
43012

> <i_f3d_flags>
0

> <s_epik_input>
W0NIM11bQ0BASF0xW0NIMl1OKFtDSDJdW0NASF0oTzEpW0NIM10pW0NASF0oW0NIM10pW0NIMl1bTkhdQyg9TylbTkhdYzJuW2NIXVtjSF1zMg==

> <s_epik_cmdline>
J2VwaWtfcHl0aG9uJywgJy1waCcsICc3LjAnLCAnLXRuJywgJzgnLCAnLW1hJywgJzIwMCcsICctbWV0YWxfYmluZGluZycsICctaW1hZScsICc8aW5maWxlLm1hZT4nLCAnLW9tYWUnLCAnPG91dGZpbGUubWFlPic=

> <r_lp_tautomer_probability>
0.999

> <r_epik_Ionization_Penalty>
0.219202

> <r_epik_Ionization_Penalty_Charging>
0

> <r_epik_Ionization_Penalty_Neutral>
0.219202

> <r_epik_State_Penalty>
0.209349

> <r_epik_Charging_Adjusted_Penalty>
0.209349

> <i_epik_Tot_Q>
0

> <i_epik_Tot_abs_Q>
0

> <r_epik_Metal_State_Penalty>
0.247737

> <b_epik_Metal_Only>
0

> <s_lp_Force_Field>
OPLS_2005

> <r_lp_Energy>
32.3781

> <b_lp_Chiralities_Consistent>
1

> <s_lp_Variant>
AV-unprocessed.smi:2032-6

> <Gold.Version>
5.8.1

> <Gold.Id.Protein>
6NUR|6NUR_protein|mol2

> <Gold.PLP.Fitness>
39.3144

> <Gold.PLP.PLP>
-29.7872

> <Gold.PLP.part.hbond>
-2.9609

> <Gold.PLP.part.metal>
0.0000

> <Gold.PLP.part.buried>
-4.7916

> <Gold.PLP.part.nonpolar>
-22.3894

> <Gold.PLP.part.repulsive>
0.5622

> <Gold.PLP.ligand.clash>
0.0000

> <Gold.PLP.ligand.torsion>
1.2624

> <Gold.PLP.Chemscore.Hbond>
3.0000

> <Gold.PLP.Chemscore.CHOScore>
1.0000

> <Gold.PLP.Chemscore.Metal>
0.0000

> <Gold.Chemscore.Hbonds>
donor molecule, donor type, donor heavy atom, donor atom, acceptor molecule, acceptor atom, score
      L1  H     8    33       P1  7948  1.00
      L1  H    11    34       P1  7948  1.00
      P1  H  7989  7998       L1    20  0.94
      L1  C    14    35       P1 10186  0.97

> <Gold.PLP.Chemscore.Internal.Correction>
0.0521

> <Gold.Rescore>
     Score         DG    S(hbond)    S(metal)    S(lipo)     H(rot)  DE(clash)    DE(int)     intcor
     16.48     -19.02       2.81        0.00      69.94       1.57       0.17       2.36       ----

> <Gold.Chemscore.Fitness>
16.4844

> <Gold.Chemscore.DG>
-19.0171

> <Gold.Chemscore.ZeroCoef>
-5.4800

> <Gold.Chemscore.Hbond>
2.8103

> <Gold.Chemscore.Metal>
0.0000

> <Gold.Chemscore.Lipo>
69.9373

> <Gold.Chemscore.Internal_Hbond>
0.0000

> <Gold.Chemscore.DEClash>
0.1687

> <Gold.Chemscore.DEInternal>
2.3641

> <Gold.Chemscore.Rot>
1.5750

> <Gold.Chemscore.Internal.Correction>
   9.000000E+99

> <Gold.Chemscore.Hbonds>
donor molecule, donor type, donor heavy atom, donor atom, acceptor molecule, acceptor atom, score
      L1  H     8    33       P1  7948  0.98
      L1  H    11    34       P1  7948  0.96
      P1  H  7989  7998       L1    20  0.54

> <Gold.Chemscore.Hbond.Weighted>
-9.3863

> <Gold.Chemscore.Metal.Weighted>
-0.0000

> <Gold.Chemscore.Lipo.Weighted>
-8.1827

> <Gold.Chemscore.Internal_Hbond.Weighted>
0.0000

> <Gold.Chemscore.DEClash.Weighted>
0.1687

> <Gold.Chemscore.DEInternal.Weighted>
2.3641

> <Gold.Chemscore.Rot.Weighted>
4.0319

> <Gold.Chemscore.Internal.Correction.Weighted>
   9.000000E+99

> <Gold.Protein.RotatedTorsions>
[ 6907 6896 6895 6894 ] final  -95.59 input  -60.11 | X-H torsion
[ 7974 7965 7964 7962 ] final -100.00 input  175.53 | X-H torsion
[ 8008 7997 7996 7995 ] final  -64.36 input   59.86 | X-H torsion
[ 10167 10162 10161 10158 ] final  148.93 input  -65.29 | X-H torsion
[ 10718 10713 10712 10709 ] final -129.52 input   66.30 | X-H torsion
[ 10763 10752 10751 10750 ] final    6.37 input  -60.55 | X-H torsion
[ 11005 11000 10999 10996 ] final   13.21 input  -57.11 | X-H torsion

> <Gold.Protein.ActiveResidues>
 VAL166  LYS551  ARG553  GLY616  TRP617  ASP618  TYR619  PRO620  LYS621  CYS622 
 ASP623  PHE694  ASN695  SER759  ASP760  ASP761  ALA762  ILE779  LEU786  VAL792 
 PHE793  MET794  SER795  GLU796  ALA797  LYS798  CYS799  TRP800  GLU811  SER814 

> <Gold.Protein.RotatedAtoms>
  150.6967  134.1634  159.4184 H   0  0  0  0  0  0  0  0  0  0  0  0  # atno 6907 bound_to 6896
  151.9614  135.0119  160.0557 H   0  0  0  0  0  0  0  0  0  0  0  0  # atno 6908 bound_to 6896
  152.1923  133.4747  159.5051 H   0  0  0  0  0  0  0  0  0  0  0  0  # atno 6909 bound_to 6896
  145.3002  140.9375  143.2828 H   0  0  0  0  0  0  0  0  0  0  0  0  # atno 7974 bound_to 7965
  154.4607  140.0955  156.6885 H   0  0  0  0  0  0  0  0  0  0  0  0  # atno 8008 bound_to 7997
  155.5002  140.3473  155.4351 H   0  0  0  0  0  0  0  0  0  0  0  0  # atno 8009 bound_to 7997
  156.0865  140.1386  156.9635 H   0  0  0  0  0  0  0  0  0  0  0  0  # atno 8010 bound_to 7997
  139.4868  144.5641  151.7177 H   0  0  0  0  0  0  0  0  0  0  0  0  # atno 10167 bound_to 10162
  156.2055  130.6884  151.0589 H   0  0  0  0  0  0  0  0  0  0  0  0  # atno 10718 bound_to 10713
  153.2485  135.6911  153.7705 H   0  0  0  0  0  0  0  0  0  0  0  0  # atno 10763 bound_to 10752
  153.6808  135.3329  155.3178 H   0  0  0  0  0  0  0  0  0  0  0  0  # atno 10764 bound_to 10752
  154.8385  135.4522  154.1433 H   0  0  0  0  0  0  0  0  0  0  0  0  # atno 10765 bound_to 10752
  140.4833  134.0913  155.7755 H   0  0  0  0  0  0  0  0  0  0  0  0  # atno 11005 bound_to 11000
  144.9100  139.4541  143.6591 LP  0  0  0  0  0  0  0  0  0  0  0  0  # atno 17320 bound_to 7965
  146.3155  139.7903  142.8987 LP  0  0  0  0  0  0  0  0  0  0  0  0  # atno 17321 bound_to 7965
  140.5216  144.0870  150.6024 LP  0  0  0  0  0  0  0  0  0  0  0  0  # atno 17342 bound_to 10162
  140.3829  143.2793  152.0149 LP  0  0  0  0  0  0  0  0  0  0  0  0  # atno 17343 bound_to 10162
  157.7009  131.0776  150.6821 LP  0  0  0  0  0  0  0  0  0  0  0  0  # atno 17370 bound_to 10713
  156.6880  130.4586  149.5608 LP  0  0  0  0  0  0  0  0  0  0  0  0  # atno 17371 bound_to 10713
  141.1520  133.8951  157.2073 LP  0  0  0  0  0  0  0  0  0  0  0  0  # atno 17394 bound_to 11000
  139.9813  135.0097  156.9756 LP  0  0  0  0  0  0  0  0  0  0  0  0  # atno 17395 bound_to 11000

$$$$
