AV-unprocessed.smi:3123|AV-procd|sdf|11900|dock9
  -GOLD-   2272017283D 1   1.00000     0.00000
 Structure written by MMmdl.
 30 31  0  0  0  0  0  0  0  0  2 V2000
  142.4150  132.7953  148.0340 N   0  3  0  0  0  0  0  0  0  0  0  0
  143.8439  132.4434  148.0271 C   0  0  0  0  0  0  0  0  0  0  0  0
  144.4792  132.7605  149.3648 C   0  0  0  0  0  0  0  0  0  0  0  0
  145.5129  131.9517  149.8783 C   0  0  0  0  0  0  0  0  0  0  0  0
  146.0662  132.2862  151.1296 C   0  0  0  0  0  0  0  0  0  0  0  0
  145.6540  133.3424  151.8622 N   0  0  0  0  0  0  0  0  0  0  0  0
  144.6611  134.1203  151.3679 C   0  0  0  0  0  0  0  0  0  0  0  0
  144.2347  135.2201  152.1253 N   0  0  0  0  0  0  0  0  0  0  0  0
  144.6719  136.5017  151.5855 C   0  0  0  0  0  0  0  0  0  0  0  0
  144.2707  137.6395  152.5407 C   0  0  0  0  0  0  0  0  0  0  0  0
  142.8648  137.5988  152.7696 O   0  0  0  0  0  0  0  0  0  0  0  0
  142.4542  136.3705  153.3640 C   0  0  0  0  0  0  0  0  0  0  0  0
  142.8088  135.2010  152.4293 C   0  0  0  0  0  0  0  0  0  0  0  0
  144.0435  133.8650  150.1251 C   0  0  0  0  0  0  0  0  0  0  0  0
  141.8828  132.0438  148.4487 H   0  0  0  0  0  0  0  0  0  0  0  0
  142.1031  132.9480  147.0857 H   0  0  0  0  0  0  0  0  0  0  0  0
  143.9547  131.3817  147.8045 H   0  0  0  0  0  0  0  0  0  0  0  0
  144.3485  132.9945  147.2328 H   0  0  0  0  0  0  0  0  0  0  0  0
  145.8774  131.0954  149.3301 H   0  0  0  0  0  0  0  0  0  0  0  0
  146.8601  131.6893  151.5536 H   0  0  0  0  0  0  0  0  0  0  0  0
  145.7536  136.4943  151.4451 H   0  0  0  0  0  0  0  0  0  0  0  0
  144.2194  136.6643  150.6062 H   0  0  0  0  0  0  0  0  0  0  0  0
  144.8064  137.5596  153.4879 H   0  0  0  0  0  0  0  0  0  0  0  0
  144.5327  138.6046  152.1068 H   0  0  0  0  0  0  0  0  0  0  0  0
  142.9302  136.2486  154.3383 H   0  0  0  0  0  0  0  0  0  0  0  0
  141.3783  136.4010  153.5367 H   0  0  0  0  0  0  0  0  0  0  0  0
  142.2318  135.2786  151.5065 H   0  0  0  0  0  0  0  0  0  0  0  0
  142.5433  134.2526  152.8981 H   0  0  0  0  0  0  0  0  0  0  0  0
  143.2532  134.5075  149.7634 H   0  0  0  0  0  0  0  0  0  0  0  0
  142.2812  133.6404  148.5707 H   0  0  0  0  0  0  0  0  0  0  0  0
  1  2  1  0  0  0  0
  1 15  1  0  0  0  0
  1 16  1  0  0  0  0
  1 30  1  0  0  0  0
  2  3  1  0  0  0  0
  2 17  1  0  0  0  0
  2 18  1  0  0  0  0
  3 14  1  0  0  0  0
  3  4  2  0  0  0  0
  4  5  1  0  0  0  0
  4 19  1  0  0  0  0
  5  6  2  0  0  0  0
  5 20  1  0  0  0  0
  6  7  1  0  0  0  0
  7  8  1  0  0  0  0
  7 14  2  0  0  0  0
  8 13  1  0  0  0  0
  8  9  1  0  0  0  0
  9 10  1  0  0  0  0
  9 21  1  0  0  0  0
  9 22  1  0  0  0  0
 10 11  1  0  0  0  0
 10 23  1  0  0  0  0
 10 24  1  0  0  0  0
 11 12  1  0  0  0  0
 12 13  1  0  0  0  0
 12 25  1  0  0  0  0
 12 26  1  0  0  0  0
 13 27  1  0  0  0  0
 13 28  1  0  0  0  0
 14 29  1  0  0  0  0
M  CHG  1   1   1
M  END
> <s_m_source_file>
AV-unprocessed.smi

> <i_m_source_file_index>
3123

> <i_lp_mmshare_version>
43012

> <i_f3d_flags>
0

> <s_epik_input>
W05IMl1bQ0gyXWMxW2NIXVtjSF1uYyhbY0hdMSlOMltDSDJdW0NIMl1PW0NIMl1bQ0gyXTI=

> <s_epik_cmdline>
J2VwaWtfcHl0aG9uJywgJy1waCcsICc3LjAnLCAnLXRuJywgJzgnLCAnLW1hJywgJzIwMCcsICctbWV0YWxfYmluZGluZycsICctaW1hZScsICc8aW5maWxlLm1hZT4nLCAnLW9tYWUnLCAnPG91dGZpbGUubWFlPic=

> <r_lp_tautomer_probability>
1

> <r_epik_Ionization_Penalty>
0.0770075

> <r_epik_Ionization_Penalty_Charging>
0.0770037

> <r_epik_Ionization_Penalty_Neutral>
3.77435e-06

> <r_epik_State_Penalty>
0.00932976

> <r_epik_Charging_Adjusted_Penalty>
0.0863335

> <i_epik_Tot_Q>
1

> <i_epik_Tot_abs_Q>
1

> <r_epik_Metal_State_Penalty>
0.00963217

> <b_epik_Metal_Only>
0

> <s_lp_Force_Field>
OPLS_2005

> <r_lp_Energy>
15.1833

> <b_lp_Chiralities_Consistent>
1

> <s_lp_Variant>
AV-unprocessed.smi:3123-1

> <Gold.Version>
5.8.1

> <Gold.Id.Protein>
6NUR|6NUR_protein|mol2

> <Gold.PLP.Fitness>
42.4755

> <Gold.PLP.PLP>
-28.4353

> <Gold.PLP.part.hbond>
-3.0000

> <Gold.PLP.part.metal>
0.0000

> <Gold.PLP.part.buried>
-2.5263

> <Gold.PLP.part.nonpolar>
-23.2153

> <Gold.PLP.part.repulsive>
0.5980

> <Gold.PLP.ligand.clash>
0.0000

> <Gold.PLP.ligand.torsion>
0.5310

> <Gold.PLP.Chemscore.Hbond>
4.0000

> <Gold.PLP.Chemscore.CHOScore>
1.0000

> <Gold.PLP.Chemscore.Metal>
0.0000

> <Gold.Chemscore.Hbonds>
donor molecule, donor type, donor heavy atom, donor atom, acceptor molecule, acceptor atom, score
      L1  H     1    15       P1 10952  0.41
      L1  H     1    16       P1 10195  1.00
      L1  H     1    30       P1 10186  1.54
      L1  C     5    20       P1 10747  0.73

> <Gold.PLP.Chemscore.Internal.Correction>
0.1022

> <Gold.Rescore>
     Score         DG    S(hbond)    S(metal)    S(lipo)     H(rot)  DE(clash)    DE(int)     intcor
     19.31     -20.40       2.98        0.00      71.36       1.32       0.65       0.44       ----

> <Gold.Chemscore.Fitness>
19.3084

> <Gold.Chemscore.DG>
-20.3978

> <Gold.Chemscore.ZeroCoef>
-5.4800

> <Gold.Chemscore.Hbond>
2.9753

> <Gold.Chemscore.Metal>
0.0000

> <Gold.Chemscore.Lipo>
71.3561

> <Gold.Chemscore.Internal_Hbond>
0.0000

> <Gold.Chemscore.DEClash>
0.6483

> <Gold.Chemscore.DEInternal>
0.4411

> <Gold.Chemscore.Rot>
1.3158

> <Gold.Chemscore.Internal.Correction>
   9.000000E+99

> <Gold.Chemscore.Hbonds>
donor molecule, donor type, donor heavy atom, donor atom, acceptor molecule, acceptor atom, score
      L1  H     1    15       P1 10952  0.39
      L1  H     1    16       P1 10195  0.97
      L1  H     1    30       P1 10186  0.76

> <Gold.Chemscore.Hbond.Weighted>
-9.9376

> <Gold.Chemscore.Metal.Weighted>
-0.0000

> <Gold.Chemscore.Lipo.Weighted>
-8.3487

> <Gold.Chemscore.Internal_Hbond.Weighted>
0.0000

> <Gold.Chemscore.DEClash.Weighted>
0.6483

> <Gold.Chemscore.DEInternal.Weighted>
0.4411

> <Gold.Chemscore.Rot.Weighted>
3.3684

> <Gold.Chemscore.Internal.Correction.Weighted>
   9.000000E+99

> <Gold.Protein.RotatedTorsions>
[ 6907 6896 6895 6894 ] final   75.38 input  -60.11 | X-H torsion
[ 7974 7965 7964 7962 ] final   90.78 input  175.53 | X-H torsion
[ 8008 7997 7996 7995 ] final  144.77 input   59.86 | X-H torsion
[ 10167 10162 10161 10158 ] final -144.02 input  -65.29 | X-H torsion
[ 10718 10713 10712 10709 ] final -118.17 input   66.30 | X-H torsion
[ 10763 10752 10751 10750 ] final -169.16 input  -60.55 | X-H torsion
[ 11005 11000 10999 10996 ] final  -35.80 input  -57.11 | X-H torsion

> <Gold.Protein.ActiveResidues>
 VAL166  LYS551  ARG553  GLY616  TRP617  ASP618  TYR619  PRO620  LYS621  CYS622 
 ASP623  PHE694  ASN695  SER759  ASP760  ASP761  ALA762  ILE779  LEU786  VAL792 
 PHE793  MET794  SER795  GLU796  ALA797  LYS798  CYS799  TRP800  GLU811  SER814 

> <Gold.Protein.RotatedAtoms>
  152.5023  134.4129  159.9454 H   0  0  0  0  0  0  0  0  0  0  0  0  # atno 6907 bound_to 6896
  151.4098  133.3725  159.2750 H   0  0  0  0  0  0  0  0  0  0  0  0  # atno 6908 bound_to 6896
  150.9300  134.8737  159.7604 H   0  0  0  0  0  0  0  0  0  0  0  0  # atno 6909 bound_to 6896
  145.5145  139.2277  143.2706 H   0  0  0  0  0  0  0  0  0  0  0  0  # atno 7974 bound_to 7965
  156.2900  140.2227  156.5107 H   0  0  0  0  0  0  0  0  0  0  0  0  # atno 8008 bound_to 7997
  154.7611  140.0473  157.0996 H   0  0  0  0  0  0  0  0  0  0  0  0  # atno 8009 bound_to 7997
  154.9990  140.3099  155.4878 H   0  0  0  0  0  0  0  0  0  0  0  0  # atno 8010 bound_to 7997
  139.7938  143.7928  152.2652 H   0  0  0  0  0  0  0  0  0  0  0  0  # atno 10167 bound_to 10162
  156.1086  130.6231  150.9256 H   0  0  0  0  0  0  0  0  0  0  0  0  # atno 10718 bound_to 10713
  154.6552  135.2917  154.9937 H   0  0  0  0  0  0  0  0  0  0  0  0  # atno 10763 bound_to 10752
  154.1016  135.6576  153.4873 H   0  0  0  0  0  0  0  0  0  0  0  0  # atno 10764 bound_to 10752
  153.0398  135.5244  154.7478 H   0  0  0  0  0  0  0  0  0  0  0  0  # atno 10765 bound_to 10752
  140.9825  133.7049  156.1708 H   0  0  0  0  0  0  0  0  0  0  0  0  # atno 11005 bound_to 11000
  146.2146  140.5953  142.9044 LP  0  0  0  0  0  0  0  0  0  0  0  0  # atno 17320 bound_to 7965
  144.7709  140.5636  143.6670 LP  0  0  0  0  0  0  0  0  0  0  0  0  # atno 17321 bound_to 7965
  139.8028  144.7367  150.9802 LP  0  0  0  0  0  0  0  0  0  0  0  0  # atno 17342 bound_to 10162
  140.7820  143.4328  151.0668 LP  0  0  0  0  0  0  0  0  0  0  0  0  # atno 17343 bound_to 10162
  157.6266  131.0925  150.8523 LP  0  0  0  0  0  0  0  0  0  0  0  0  # atno 17370 bound_to 10713
  156.8637  130.5122  149.5302 LP  0  0  0  0  0  0  0  0  0  0  0  0  # atno 17371 bound_to 10713
  140.7165  134.4405  157.5578 LP  0  0  0  0  0  0  0  0  0  0  0  0  # atno 17394 bound_to 11000
  139.8956  134.8679  156.2124 LP  0  0  0  0  0  0  0  0  0  0  0  0  # atno 17395 bound_to 11000

$$$$
