AV-unprocessed.smi:546|AV-procd|sdf|2886|dock3
  -GOLD-   2262023383D 1   1.00000     0.00000
 Structure written by MMmdl.
 51 53  0  0  0  0  0  0  0  0  2 V2000
  144.6297  145.3556  153.1591 C   0  0  0  0  0  0  0  0  0  0  0  0
  145.6350  144.2286  152.9110 C   0  0  0  0  0  0  0  0  0  0  0  0
  145.6770  143.3834  154.0482 O   0  0  0  0  0  0  0  0  0  0  0  0
  146.5244  142.2604  153.8614 C   0  0  0  0  0  0  0  0  0  0  0  0
  146.3729  141.2931  155.0436 C   0  0  0  0  0  0  0  0  0  0  0  0
  147.4790  141.4146  155.9925 N   0  0  0  0  0  0  0  0  0  0  0  0
  147.5227  142.0873  157.1768 C   0  0  0  0  0  0  0  0  0  0  0  0
  146.4198  142.7600  157.7083 N   0  0  0  0  0  0  0  0  0  0  0  0
  146.0276  142.6684  159.1136 C   0  0  0  0  0  0  0  0  0  0  0  0
  145.7572  144.0583  159.7207 C   0  0  2  0  0  0  0  0  0  0  0  0
  145.4015  143.9635  161.2099 C   0  0  0  0  0  0  0  0  0  0  0  0
  144.6618  144.7797  158.9184 C   0  0  0  0  0  0  0  0  0  0  0  0
  145.0199  144.8001  157.4230 C   0  0  2  0  0  0  0  0  0  0  0  0
  143.9080  145.4439  156.5846 C   0  0  0  0  0  0  0  0  0  0  0  0
  145.3300  143.3675  156.9437 C   0  0  0  0  0  0  0  0  0  0  0  0
  148.7169  142.0817  157.7730 N   0  0  0  0  0  0  0  0  0  0  0  0
  149.4924  141.3168  156.9170 C   0  0  0  0  0  0  0  0  0  0  0  0
  148.7738  140.9057  155.8388 C   0  0  0  0  0  0  0  0  0  0  0  0
  149.3390  140.0956  154.7360 C   0  0  0  0  0  0  0  0  0  0  0  0
  148.6479  139.7547  153.7780 O   0  0  0  0  0  0  0  0  0  0  0  0
  150.6643  139.8065  154.9328 N   0  5  0  0  0  0  0  0  0  0  0  0
  151.4287  140.2017  156.0094 C   0  0  0  0  0  0  0  0  0  0  0  0
  152.6201  139.9034  156.1051 O   0  0  0  0  0  0  0  0  0  0  0  0
  150.8626  140.9492  157.0084 N   0  0  0  0  0  0  0  0  0  0  0  0
  151.6500  141.3849  158.1652 C   0  0  0  0  0  0  0  0  0  0  0  0
  144.5977  146.0422  152.3130 H   0  0  0  0  0  0  0  0  0  0  0  0
  144.8962  145.9295  154.0471 H   0  0  0  0  0  0  0  0  0  0  0  0
  143.6247  144.9585  153.3030 H   0  0  0  0  0  0  0  0  0  0  0  0
  145.3430  143.6592  152.0272 H   0  0  0  0  0  0  0  0  0  0  0  0
  146.6240  144.6489  152.7217 H   0  0  0  0  0  0  0  0  0  0  0  0
  146.2640  141.7518  152.9322 H   0  0  0  0  0  0  0  0  0  0  0  0
  147.5625  142.5843  153.7739 H   0  0  0  0  0  0  0  0  0  0  0  0
  145.4231  141.4745  155.5334 H   0  0  0  0  0  0  0  0  0  0  0  0
  146.3147  140.2637  154.6935 H   0  0  0  0  0  0  0  0  0  0  0  0
  145.1452  142.0333  159.2017 H   0  0  0  0  0  0  0  0  0  0  0  0
  146.8215  142.1759  159.6767 H   0  0  0  0  0  0  0  0  0  0  0  0
  146.6734  144.6424  159.6376 H   0  0  0  0  0  0  0  0  0  0  0  0
  144.4974  143.3738  161.3652 H   0  0  0  0  0  0  0  0  0  0  0  0
  145.2334  144.9526  161.6368 H   0  0  0  0  0  0  0  0  0  0  0  0
  146.2073  143.4940  161.7749 H   0  0  0  0  0  0  0  0  0  0  0  0
  143.7066  144.2724  159.0618 H   0  0  0  0  0  0  0  0  0  0  0  0
  144.5344  145.7979  159.2877 H   0  0  0  0  0  0  0  0  0  0  0  0
  145.9179  145.4076  157.3018 H   0  0  0  0  0  0  0  0  0  0  0  0
  142.9759  144.8838  156.6646 H   0  0  0  0  0  0  0  0  0  0  0  0
  144.1852  145.4815  155.5307 H   0  0  0  0  0  0  0  0  0  0  0  0
  143.7126  146.4658  156.9109 H   0  0  0  0  0  0  0  0  0  0  0  0
  145.5660  143.3558  155.8800 H   0  0  0  0  0  0  0  0  0  0  0  0
  144.4419  142.7428  157.0498 H   0  0  0  0  0  0  0  0  0  0  0  0
  152.4315  142.0779  157.8516 H   0  0  0  0  0  0  0  0  0  0  0  0
  152.1247  140.5325  158.6528 H   0  0  0  0  0  0  0  0  0  0  0  0
  151.0461  141.8899  158.9186 H   0  0  0  0  0  0  0  0  0  0  0  0
  1  2  1  0  0  0  0
  1 26  1  0  0  0  0
  1 27  1  0  0  0  0
  1 28  1  0  0  0  0
  2  3  1  0  0  0  0
  2 29  1  0  0  0  0
  2 30  1  0  0  0  0
  3  4  1  0  0  0  0
  4  5  1  0  0  0  0
  4 31  1  0  0  0  0
  4 32  1  0  0  0  0
  5  6  1  0  0  0  0
  5 33  1  0  0  0  0
  5 34  1  0  0  0  0
  6 18  1  0  0  0  0
  6  7  1  0  0  0  0
  7  8  1  0  0  0  0
  7 16  2  0  0  0  0
  8 15  1  0  0  0  0
  8  9  1  0  0  0  0
  9 10  1  0  0  0  0
  9 35  1  0  0  0  0
  9 36  1  0  0  0  0
 10 11  1  0  0  0  0
 10 12  1  0  0  0  0
 10 37  1  0  0  0  0
 11 38  1  0  0  0  0
 11 39  1  0  0  0  0
 11 40  1  0  0  0  0
 12 13  1  0  0  0  0
 12 41  1  0  0  0  0
 12 42  1  0  0  0  0
 13 14  1  0  0  0  0
 13 15  1  0  0  0  0
 13 43  1  0  0  0  0
 14 44  1  0  0  0  0
 14 45  1  0  0  0  0
 14 46  1  0  0  0  0
 15 47  1  0  0  0  0
 15 48  1  0  0  0  0
 16 17  1  0  0  0  0
 17 24  1  0  0  0  0
 17 18  2  0  0  0  0
 18 19  1  0  0  0  0
 19 20  2  0  0  0  0
 19 21  1  0  0  0  0
 21 22  1  0  0  0  0
 22 23  2  0  0  0  0
 22 24  1  0  0  0  0
 24 25  1  0  0  0  0
 25 49  1  0  0  0  0
 25 50  1  0  0  0  0
 25 51  1  0  0  0  0
M  CHG  1  21  -1
M  END
> <s_m_source_file>
AV-unprocessed.smi

> <i_m_source_file_index>
546

> <i_lp_mmshare_version>
43012

> <i_f3d_flags>
0

> <s_epik_input>
W0NIM11uMWMoPU8pW25IXWMoPU8pYyhjMTIpbihbQ0gyXVtDSDJdT1tDSDJdW0NIM10pYyhuMilOM1tDSDJdW0NAQEhdKFtDSDNdKVtDSDJdW0NAQEhdKFtDSDNdKVtDSDJdMw==

> <s_epik_cmdline>
J2VwaWtfcHl0aG9uJywgJy1waCcsICc3LjAnLCAnLXRuJywgJzgnLCAnLW1hJywgJzIwMCcsICctbWV0YWxfYmluZGluZycsICctaW1hZScsICc8aW5maWxlLm1hZT4nLCAnLW9tYWUnLCAnPG91dGZpbGUubWFlPic=

> <r_lp_tautomer_probability>
1

> <r_epik_Ionization_Penalty>
5.12825

> <r_epik_Ionization_Penalty_Charging>
0.0743105

> <r_epik_Ionization_Penalty_Neutral>
5.05394

> <r_epik_State_Penalty>
5.04406

> <r_epik_Charging_Adjusted_Penalty>
5.11837

> <i_epik_Tot_Q>
-1

> <i_epik_Tot_abs_Q>
1

> <r_epik_Metal_State_Penalty>
1.15122

> <b_epik_Metal_Only>
1

> <s_lp_Force_Field>
OPLS_2005

> <r_lp_Energy>
39.602

> <b_lp_Chiralities_Consistent>
1

> <s_lp_Variant>
AV-unprocessed.smi:546-4

> <Gold.Version>
5.8.1

> <Gold.Id.Protein>
6NUR|6NUR_protein|mol2

> <Gold.PLP.Fitness>
38.9637

> <Gold.PLP.PLP>
-35.2004

> <Gold.PLP.part.hbond>
-1.9986

> <Gold.PLP.part.metal>
0.0000

> <Gold.PLP.part.buried>
-5.2964

> <Gold.PLP.part.nonpolar>
-29.3901

> <Gold.PLP.part.repulsive>
2.5268

> <Gold.PLP.ligand.clash>
0.0000

> <Gold.PLP.ligand.torsion>
1.1404

> <Gold.PLP.Chemscore.Hbond>
1.9000

> <Gold.PLP.Chemscore.CHOScore>
0.0000

> <Gold.PLP.Chemscore.Metal>
0.0000

> <Gold.Chemscore.Hbonds>
donor molecule, donor type, donor heavy atom, donor atom, acceptor molecule, acceptor atom, score
      P1  H  7989  7998       L1    21  0.89
      P1  H  7997  8009       L1    23  1.00

> <Gold.PLP.Chemscore.Internal.Correction>
0.3441

> <Gold.Rescore>
     Score         DG    S(hbond)    S(metal)    S(lipo)     H(rot)  DE(clash)    DE(int)     intcor
      8.45     -11.93       1.01        0.00      59.55       1.52       0.20       3.29       ----

> <Gold.Chemscore.Fitness>
8.4461

> <Gold.Chemscore.DG>
-11.9292

> <Gold.Chemscore.ZeroCoef>
-5.4800

> <Gold.Chemscore.Hbond>
1.0103

> <Gold.Chemscore.Metal>
0.0000

> <Gold.Chemscore.Lipo>
59.5498

> <Gold.Chemscore.Internal_Hbond>
0.0000

> <Gold.Chemscore.DEClash>
0.1952

> <Gold.Chemscore.DEInternal>
3.2878

> <Gold.Chemscore.Rot>
1.5206

> <Gold.Chemscore.Internal.Correction>
   9.000000E+99

> <Gold.Chemscore.Hbonds>
donor molecule, donor type, donor heavy atom, donor atom, acceptor molecule, acceptor atom, score
      P1  H  7989  7998       L1    21  0.07
      P1  H  7997  8009       L1    23  0.95

> <Gold.Chemscore.Hbond.Weighted>
-3.3745

> <Gold.Chemscore.Metal.Weighted>
-0.0000

> <Gold.Chemscore.Lipo.Weighted>
-6.9673

> <Gold.Chemscore.Internal_Hbond.Weighted>
0.0000

> <Gold.Chemscore.DEClash.Weighted>
0.1952

> <Gold.Chemscore.DEInternal.Weighted>
3.2878

> <Gold.Chemscore.Rot.Weighted>
3.8926

> <Gold.Chemscore.Internal.Correction.Weighted>
   9.000000E+99

> <Gold.Protein.RotatedTorsions>
[ 6907 6896 6895 6894 ] final   69.53 input  -60.11 | X-H torsion
[ 7974 7965 7964 7962 ] final  179.67 input  175.53 | X-H torsion
[ 8008 7997 7996 7995 ] final -141.82 input   59.86 | X-H torsion
[ 10167 10162 10161 10158 ] final  -37.30 input  -65.29 | X-H torsion
[ 10718 10713 10712 10709 ] final   -4.79 input   66.30 | X-H torsion
[ 10763 10752 10751 10750 ] final   73.61 input  -60.55 | X-H torsion
[ 11005 11000 10999 10996 ] final -100.09 input  -57.11 | X-H torsion

> <Gold.Protein.ActiveResidues>
 VAL166  LYS551  ARG553  GLY616  TRP617  ASP618  TYR619  PRO620  LYS621  CYS622 
 ASP623  PHE694  ASN695  SER759  ASP760  ASP761  ALA762  ILE779  LEU786  VAL792 
 PHE793  MET794  SER795  GLU796  ALA797  LYS798  CYS799  TRP800  GLU811  SER814 

> <Gold.Protein.RotatedAtoms>
  152.4692  134.5003  159.9722 H   0  0  0  0  0  0  0  0  0  0  0  0  # atno 6907 bound_to 6896
  151.5033  133.3494  159.2880 H   0  0  0  0  0  0  0  0  0  0  0  0  # atno 6908 bound_to 6896
  150.8692  134.8090  159.7203 H   0  0  0  0  0  0  0  0  0  0  0  0  # atno 6909 bound_to 6896
  144.7143  140.0583  143.6433 H   0  0  0  0  0  0  0  0  0  0  0  0  # atno 7974 bound_to 7965
  155.4841  140.0562  157.2963 H   0  0  0  0  0  0  0  0  0  0  0  0  # atno 8008 bound_to 7997
  154.4649  140.2013  156.0098 H   0  0  0  0  0  0  0  0  0  0  0  0  # atno 8009 bound_to 7997
  156.0956  140.3227  155.7877 H   0  0  0  0  0  0  0  0  0  0  0  0  # atno 8010 bound_to 7997
  140.7121  143.3351  151.2481 H   0  0  0  0  0  0  0  0  0  0  0  0  # atno 10167 bound_to 10162
  156.7561  130.5255  149.5794 H   0  0  0  0  0  0  0  0  0  0  0  0  # atno 10718 bound_to 10713
  153.0533  135.5056  154.7920 H   0  0  0  0  0  0  0  0  0  0  0  0  # atno 10763 bound_to 10752
  154.6765  135.2961  154.9674 H   0  0  0  0  0  0  0  0  0  0  0  0  # atno 10764 bound_to 10752
  154.0474  135.6708  153.4849 H   0  0  0  0  0  0  0  0  0  0  0  0  # atno 10765 bound_to 10752
  141.1284  133.8371  157.1056 H   0  0  0  0  0  0  0  0  0  0  0  0  # atno 11005 bound_to 11000
  145.9885  139.2996  143.0999 LP  0  0  0  0  0  0  0  0  0  0  0  0  # atno 17320 bound_to 7965
  145.8930  140.9292  143.0542 LP  0  0  0  0  0  0  0  0  0  0  0  0  # atno 17321 bound_to 7965
  139.6844  143.9799  152.2826 LP  0  0  0  0  0  0  0  0  0  0  0  0  # atno 17342 bound_to 10162
  139.9440  144.6663  150.8238 LP  0  0  0  0  0  0  0  0  0  0  0  0  # atno 17343 bound_to 10162
  156.1369  130.6217  151.0413 LP  0  0  0  0  0  0  0  0  0  0  0  0  # atno 17370 bound_to 10713
  157.6755  131.0851  150.7505 LP  0  0  0  0  0  0  0  0  0  0  0  0  # atno 17371 bound_to 10713
  140.0306  134.9903  157.0773 LP  0  0  0  0  0  0  0  0  0  0  0  0  # atno 17394 bound_to 11000
  140.4291  134.1799  155.7167 LP  0  0  0  0  0  0  0  0  0  0  0  0  # atno 17395 bound_to 11000

$$$$
