AV-unprocessed.smi:162|AV-procd|sdf|1377|dock2
  -GOLD-   2262019103D 1   1.00000     0.00000
 Structure written by MMmdl.
 54 57  0  0  0  0  0  0  0  0  1 V2000
  156.5524  139.6927  159.3550 C   0  0  0  0  0  0  0  0  0  0  0  0
  155.7759  139.5798  158.1756 O   0  0  0  0  0  0  0  0  0  0  0  0
  154.6568  138.7259  158.3435 C   0  0  0  0  0  0  0  0  0  0  0  0
  153.4451  139.5661  158.7772 C   0  0  1  0  0  0  0  0  0  0  0  0
  153.7208  140.4988  159.9548 C   0  0  0  0  0  0  0  0  0  0  0  0
  152.5617  141.4892  159.8457 C   0  0  1  0  0  0  0  0  0  0  0  0
  152.8371  142.7506  160.4371 O   0  0  0  0  0  0  0  0  0  0  0  0
  152.7588  142.7410  161.8530 C   0  0  0  0  0  0  0  0  0  0  0  0
  152.3687  141.6309  158.3309 C   0  0  0  0  0  0  0  0  0  0  0  0
  152.9624  140.4457  157.7171 N   0  0  0  0  0  0  0  0  0  0  0  0
  152.2002  139.8373  156.7826 C   0  0  0  0  0  0  0  0  0  0  0  0
  152.6105  139.9322  155.4944 N   0  0  0  0  0  0  0  0  0  0  0  0
  151.9091  139.3359  154.5254 C   0  0  0  0  0  0  0  0  0  0  0  0
  150.7948  138.6079  154.6274 N   0  0  0  0  0  0  0  0  0  0  0  0
  150.3824  138.5103  155.9240 C   0  0  0  0  0  0  0  0  0  0  0  0
  151.0186  139.0918  157.0558 C   0  0  0  0  0  0  0  0  0  0  0  0
  150.3133  138.7776  158.2114 N   0  0  0  0  0  0  0  0  0  0  0  0
  149.3176  138.0486  157.7863 C   0  0  0  0  0  0  0  0  0  0  0  0
  149.2874  137.8302  156.4273 N   0  0  0  0  0  0  0  0  0  0  0  0
  148.3051  137.0498  155.6908 C   0  0  0  0  0  0  0  0  0  0  0  0
  148.8233  135.6633  155.2349 C   0  0  0  0  0  0  0  0  0  0  0  0
  149.0381  134.8822  156.3980 O   0  0  0  0  0  0  0  0  0  0  0  0
  147.7694  134.9544  154.3606 C   0  0  0  0  0  0  0  0  0  0  0  0
  148.3058  133.6480  153.7490 C   0  0  0  0  0  0  0  0  0  0  0  0
  149.4967  133.9069  153.0154 O   0  0  0  0  0  0  0  0  0  0  0  0
  150.5509  134.3998  153.8334 C   0  0  0  0  0  0  0  0  0  0  0  0
  150.1528  135.7510  154.4533 C   0  0  0  0  0  0  0  0  0  0  0  0
  152.6412  138.8859  159.0638 H   0  0  0  0  0  0  0  0  0  0  0  0
  151.6580  141.0500  160.2730 H   0  0  0  0  0  0  0  0  0  0  0  0
  157.3974  140.3572  159.1753 H   0  0  0  0  0  0  0  0  0  0  0  0
  156.9459  138.7230  159.6623 H   0  0  0  0  0  0  0  0  0  0  0  0
  155.9655  140.1084  160.1751 H   0  0  0  0  0  0  0  0  0  0  0  0
  154.4391  138.1952  157.4148 H   0  0  0  0  0  0  0  0  0  0  0  0
  154.8864  137.9764  159.1027 H   0  0  0  0  0  0  0  0  0  0  0  0
  153.7495  139.9757  160.9109 H   0  0  0  0  0  0  0  0  0  0  0  0
  154.6721  141.0153  159.8171 H   0  0  0  0  0  0  0  0  0  0  0  0
  152.9490  143.7443  162.2339 H   0  0  0  0  0  0  0  0  0  0  0  0
  153.5002  142.0724  162.2916 H   0  0  0  0  0  0  0  0  0  0  0  0
  151.7678  142.4364  162.1919 H   0  0  0  0  0  0  0  0  0  0  0  0
  151.3193  141.7810  158.0735 H   0  0  0  0  0  0  0  0  0  0  0  0
  152.9181  142.4974  157.9619 H   0  0  0  0  0  0  0  0  0  0  0  0
  152.2983  139.4573  153.5253 H   0  0  0  0  0  0  0  0  0  0  0  0
  148.5768  137.6389  158.4577 H   0  0  0  0  0  0  0  0  0  0  0  0
  147.4179  136.9383  156.3159 H   0  0  0  0  0  0  0  0  0  0  0  0
  147.9922  137.6335  154.8242 H   0  0  0  0  0  0  0  0  0  0  0  0
  148.2183  134.8032  156.8614 H   0  0  0  0  0  0  0  0  0  0  0  0
  146.8645  134.7546  154.9362 H   0  0  0  0  0  0  0  0  0  0  0  0
  147.4721  135.6171  153.5466 H   0  0  0  0  0  0  0  0  0  0  0  0
  148.4948  132.8998  154.5202 H   0  0  0  0  0  0  0  0  0  0  0  0
  147.5641  133.2225  153.0730 H   0  0  0  0  0  0  0  0  0  0  0  0
  150.7986  133.6702  154.6060 H   0  0  0  0  0  0  0  0  0  0  0  0
  151.4429  134.5218  153.2189 H   0  0  0  0  0  0  0  0  0  0  0  0
  150.0493  136.4825  153.6508 H   0  0  0  0  0  0  0  0  0  0  0  0
  150.9594  136.1107  155.0936 H   0  0  0  0  0  0  0  0  0  0  0  0
  1  2  1  0  0  0  0
  1 30  1  0  0  0  0
  1 31  1  0  0  0  0
  1 32  1  0  0  0  0
  2  3  1  0  0  0  0
  3  4  1  0  0  0  0
  3 33  1  0  0  0  0
  3 34  1  0  0  0  0
  4 28  1  0  0  0  0
  4 10  1  0  0  0  0
  4  5  1  0  0  0  0
  5  6  1  0  0  0  0
  5 35  1  0  0  0  0
  5 36  1  0  0  0  0
  6 29  1  0  0  0  0
  6  7  1  0  0  0  0
  6  9  1  0  0  0  0
  7  8  1  0  0  0  0
  8 37  1  0  0  0  0
  8 38  1  0  0  0  0
  8 39  1  0  0  0  0
  9 10  1  0  0  0  0
  9 40  1  0  0  0  0
  9 41  1  0  0  0  0
 10 11  1  0  0  0  0
 11 16  1  0  0  0  0
 11 12  2  0  0  0  0
 12 13  1  0  0  0  0
 13 14  2  0  0  0  0
 13 42  1  0  0  0  0
 14 15  1  0  0  0  0
 15 19  1  0  0  0  0
 15 16  2  0  0  0  0
 16 17  1  0  0  0  0
 17 18  2  0  0  0  0
 18 19  1  0  0  0  0
 18 43  1  0  0  0  0
 19 20  1  0  0  0  0
 20 21  1  0  0  0  0
 20 44  1  0  0  0  0
 20 45  1  0  0  0  0
 21 27  1  0  0  0  0
 21 22  1  0  0  0  0
 21 23  1  0  0  0  0
 22 46  1  0  0  0  0
 23 24  1  0  0  0  0
 23 47  1  0  0  0  0
 23 48  1  0  0  0  0
 24 25  1  0  0  0  0
 24 49  1  0  0  0  0
 24 50  1  0  0  0  0
 25 26  1  0  0  0  0
 26 27  1  0  0  0  0
 26 51  1  0  0  0  0
 26 52  1  0  0  0  0
 27 53  1  0  0  0  0
 27 54  1  0  0  0  0
M  END
> <s_m_source_file>
AV-unprocessed.smi

> <i_m_source_file_index>
162

> <i_lp_mmshare_version>
43012

> <i_f3d_flags>
0

> <s_epik_input>
W0NIM11PW0NIMl1bQ0BASF0xW0NIMl1bQ0BASF0oT1tDSDNdKVtDSDJdTjFjKG5bY0hdbjIpYyhjMjMpbltjSF1uM1tDSDJdQzQoW09IXSlbQ0gyXVtDSDJdT1tDSDJdW0NIMl00

> <s_epik_cmdline>
J2VwaWtfcHl0aG9uJywgJy1waCcsICc3LjAnLCAnLXRuJywgJzgnLCAnLW1hJywgJzIwMCcsICctbWV0YWxfYmluZGluZycsICctaW1hZScsICc8aW5maWxlLm1hZT4nLCAnLW9tYWUnLCAnPG91dGZpbGUubWFlPic=

> <r_lp_tautomer_probability>
1

> <r_epik_Ionization_Penalty>
0.00660334

> <r_epik_Ionization_Penalty_Charging>
0

> <r_epik_Ionization_Penalty_Neutral>
0.00660334

> <r_epik_State_Penalty>
0.00469459

> <r_epik_Charging_Adjusted_Penalty>
0.00469459

> <i_epik_Tot_Q>
0

> <i_epik_Tot_abs_Q>
0

> <r_epik_Metal_State_Penalty>
-0

> <b_epik_Metal_Only>
0

> <s_lp_Force_Field>
OPLS_2005

> <r_lp_Energy>
41.7702

> <b_lp_Chiralities_Consistent>
1

> <s_lp_Variant>
AV-unprocessed.smi:162-2

> <Gold.Version>
5.8.1

> <Gold.Id.Protein>
6NUR|6NUR_protein|mol2

> <Gold.PLP.Fitness>
41.3071

> <Gold.PLP.PLP>
-33.5482

> <Gold.PLP.part.hbond>
-5.0000

> <Gold.PLP.part.metal>
0.0000

> <Gold.PLP.part.buried>
-6.8767

> <Gold.PLP.part.nonpolar>
-21.8260

> <Gold.PLP.part.repulsive>
0.1098

> <Gold.PLP.ligand.clash>
0.0000

> <Gold.PLP.ligand.torsion>
0.7056

> <Gold.PLP.Chemscore.Hbond>
3.0000

> <Gold.PLP.Chemscore.CHOScore>
0.0000

> <Gold.PLP.Chemscore.Metal>
0.0000

> <Gold.Chemscore.Hbonds>
donor molecule, donor type, donor heavy atom, donor atom, acceptor molecule, acceptor atom, score
      P1  H  7997  8009       L1    12  0.35

> <Gold.PLP.Chemscore.Internal.Correction>
0.1702

> <Gold.Rescore>
     Score         DG    S(hbond)    S(metal)    S(lipo)     H(rot)  DE(clash)    DE(int)     intcor
     12.21     -13.08       1.60        0.00      82.11       2.86       0.02       0.86       ----

> <Gold.Chemscore.Fitness>
12.2099

> <Gold.Chemscore.DG>
-13.0825

> <Gold.Chemscore.ZeroCoef>
-5.4800

> <Gold.Chemscore.Hbond>
1.5951

> <Gold.Chemscore.Metal>
0.0000

> <Gold.Chemscore.Lipo>
82.1122

> <Gold.Chemscore.Internal_Hbond>
0.0000

> <Gold.Chemscore.DEClash>
0.0175

> <Gold.Chemscore.DEInternal>
0.8550

> <Gold.Chemscore.Rot>
2.8642

> <Gold.Chemscore.Internal.Correction>
   9.000000E+99

> <Gold.Chemscore.Hbonds>
donor molecule, donor type, donor heavy atom, donor atom, acceptor molecule, acceptor atom, score
      P1  H  7997  8009       L1    12  0.01

> <Gold.Chemscore.Hbond.Weighted>
-5.3277

> <Gold.Chemscore.Metal.Weighted>
-0.0000

> <Gold.Chemscore.Lipo.Weighted>
-9.6071

> <Gold.Chemscore.Internal_Hbond.Weighted>
0.0000

> <Gold.Chemscore.DEClash.Weighted>
0.0175

> <Gold.Chemscore.DEInternal.Weighted>
0.8550

> <Gold.Chemscore.Rot.Weighted>
7.3324

> <Gold.Chemscore.Internal.Correction.Weighted>
   9.000000E+99

> <Gold.Protein.RotatedTorsions>
[ 6907 6896 6895 6894 ] final   13.82 input  -60.11 | X-H torsion
[ 7974 7965 7964 7962 ] final  -38.69 input  175.53 | X-H torsion
[ 8008 7997 7996 7995 ] final -153.53 input   59.86 | X-H torsion
[ 10167 10162 10161 10158 ] final   87.79 input  -65.29 | X-H torsion
[ 10718 10713 10712 10709 ] final  166.58 input   66.30 | X-H torsion
[ 10763 10752 10751 10750 ] final  113.92 input  -60.55 | X-H torsion
[ 11005 11000 10999 10996 ] final  -44.08 input  -57.11 | X-H torsion

> <Gold.Protein.ActiveResidues>
 VAL166  LYS551  ARG553  GLY616  TRP617  ASP618  TYR619  PRO620  LYS621  CYS622 
 ASP623  PHE694  ASN695  SER759  ASP760  ASP761  ALA762  ILE779  LEU786  VAL792 
 PHE793  MET794  SER795  GLU796  ALA797  LYS798  CYS799  TRP800  GLU811  SER814 

> <Gold.Protein.RotatedAtoms>
  151.7924  135.0732  160.0388 H   0  0  0  0  0  0  0  0  0  0  0  0  # atno 6907 bound_to 6896
  152.3147  133.5785  159.5712 H   0  0  0  0  0  0  0  0  0  0  0  0  # atno 6908 bound_to 6896
  150.7338  134.0016  159.3682 H   0  0  0  0  0  0  0  0  0  0  0  0  # atno 6909 bound_to 6896
  146.0464  140.6541  142.9063 H   0  0  0  0  0  0  0  0  0  0  0  0  # atno 7974 bound_to 7965
  155.6723  140.0735  157.2515 H   0  0  0  0  0  0  0  0  0  0  0  0  # atno 8008 bound_to 7997
  154.4121  140.1697  156.1944 H   0  0  0  0  0  0  0  0  0  0  0  0  # atno 8009 bound_to 7997
  155.9606  140.3370  155.6490 H   0  0  0  0  0  0  0  0  0  0  0  0  # atno 8010 bound_to 7997
  139.8738  144.6478  150.8919 H   0  0  0  0  0  0  0  0  0  0  0  0  # atno 10167 bound_to 10162
  157.0638  131.0347  151.2637 H   0  0  0  0  0  0  0  0  0  0  0  0  # atno 10718 bound_to 10713
  153.4996  135.3641  155.2533 H   0  0  0  0  0  0  0  0  0  0  0  0  # atno 10763 bound_to 10752
  154.8748  135.3996  154.3494 H   0  0  0  0  0  0  0  0  0  0  0  0  # atno 10764 bound_to 10752
  153.4128  135.7078  153.6414 H   0  0  0  0  0  0  0  0  0  0  0  0  # atno 10765 bound_to 10752
  141.0426  133.6774  156.2822 H   0  0  0  0  0  0  0  0  0  0  0  0  # atno 11005 bound_to 11000
  144.7100  140.4001  143.7088 LP  0  0  0  0  0  0  0  0  0  0  0  0  # atno 17320 bound_to 7965
  145.6799  139.1616  143.2706 LP  0  0  0  0  0  0  0  0  0  0  0  0  # atno 17321 bound_to 7965
  140.7756  143.3641  151.1771 LP  0  0  0  0  0  0  0  0  0  0  0  0  # atno 17342 bound_to 10162
  139.7259  143.9149  152.3002 LP  0  0  0  0  0  0  0  0  0  0  0  0  # atno 17343 bound_to 10162
  157.4933  130.7835  149.7530 LP  0  0  0  0  0  0  0  0  0  0  0  0  # atno 17370 bound_to 10713
  155.9970  130.3902  150.2755 LP  0  0  0  0  0  0  0  0  0  0  0  0  # atno 17371 bound_to 10713
  140.6205  134.5366  157.5547 LP  0  0  0  0  0  0  0  0  0  0  0  0  # atno 17394 bound_to 11000
  139.9287  134.8005  156.0992 LP  0  0  0  0  0  0  0  0  0  0  0  0  # atno 17395 bound_to 11000

$$$$
