AV-unprocessed.smi:3116|AV-procd|sdf|11863|dock3
  -GOLD-   2272017243D 1   1.00000     0.00000
 Structure written by MMmdl.
 34 34  0  0  0  0  0  0  0  0  2 V2000
  149.1869  141.2846  154.3595 C   0  0  0  0  0  0  0  0  0  0  0  0
  147.9615  141.2308  155.2843 C   0  0  1  0  0  0  0  0  0  0  0  0
  148.0737  142.2824  156.3234 N   0  3  0  0  0  0  0  0  0  0  0  0
  149.0424  142.0157  157.4138 C   0  0  2  0  0  0  0  0  0  0  0  0
  148.7166  142.9413  158.6005 C   0  0  0  0  0  0  0  0  0  0  0  0
  150.5003  142.1801  156.9032 C   0  0  2  0  0  0  0  0  0  0  0  0
  151.1939  140.8369  156.6057 C   0  0  0  0  0  0  0  0  0  0  0  0
  151.3144  142.9659  157.8220 N   0  0  0  0  0  0  0  0  0  0  0  0
  151.3350  144.3355  157.9887 C   0  0  0  0  0  0  0  0  0  0  0  0
  152.2514  144.6151  158.9615 C   0  0  0  0  0  0  0  0  0  0  0  0
  152.7503  143.3360  159.3341 C   0  0  0  0  0  0  0  0  0  0  0  0
  152.1893  142.3517  158.6506 N   0  0  0  0  0  0  0  0  0  0  0  0
  146.6746  141.3828  154.4606 C   0  0  0  0  0  0  0  0  0  0  0  0
  145.8300  140.3483  154.4550 N   0  0  0  0  0  0  0  0  0  0  0  0
  146.4501  142.4133  153.8281 O   0  0  0  0  0  0  0  0  0  0  0  0
  149.1492  140.4992  153.6036 H   0  0  0  0  0  0  0  0  0  0  0  0
  150.1092  141.1468  154.9249 H   0  0  0  0  0  0  0  0  0  0  0  0
  149.2567  142.2421  153.8410 H   0  0  0  0  0  0  0  0  0  0  0  0
  147.9526  140.2562  155.7745 H   0  0  0  0  0  0  0  0  0  0  0  0
  148.3436  143.1474  155.8782 H   0  0  0  0  0  0  0  0  0  0  0  0
  148.9113  140.9915  157.7678 H   0  0  0  0  0  0  0  0  0  0  0  0
  149.3317  142.7171  159.4721 H   0  0  0  0  0  0  0  0  0  0  0  0
  147.6769  142.8297  158.9099 H   0  0  0  0  0  0  0  0  0  0  0  0
  148.8753  143.9889  158.3418 H   0  0  0  0  0  0  0  0  0  0  0  0
  150.4637  142.7403  155.9673 H   0  0  0  0  0  0  0  0  0  0  0  0
  150.6931  140.2973  155.8020 H   0  0  0  0  0  0  0  0  0  0  0  0
  151.2085  140.1899  157.4834 H   0  0  0  0  0  0  0  0  0  0  0  0
  152.2265  140.9919  156.2911 H   0  0  0  0  0  0  0  0  0  0  0  0
  150.7017  144.9914  157.4092 H   0  0  0  0  0  0  0  0  0  0  0  0
  152.5247  145.5857  159.3478 H   0  0  0  0  0  0  0  0  0  0  0  0
  153.4979  143.0952  160.0755 H   0  0  0  0  0  0  0  0  0  0  0  0
  144.9677  140.3978  153.9317 H   0  0  0  0  0  0  0  0  0  0  0  0
  146.0562  139.5155  154.9800 H   0  0  0  0  0  0  0  0  0  0  0  0
  147.1571  142.4055  156.7300 H   0  0  0  0  0  0  0  0  0  0  0  0
  1  2  1  0  0  0  0
  1 16  1  0  0  0  0
  1 17  1  0  0  0  0
  1 18  1  0  0  0  0
  2  3  1  0  0  0  0
  2 13  1  0  0  0  0
  2 19  1  0  0  0  0
  3  4  1  0  0  0  0
  3 20  1  0  0  0  0
  3 34  1  0  0  0  0
  4  5  1  0  0  0  0
  4  6  1  0  0  0  0
  4 21  1  0  0  0  0
  5 22  1  0  0  0  0
  5 23  1  0  0  0  0
  5 24  1  0  0  0  0
  6  7  1  0  0  0  0
  6  8  1  0  0  0  0
  6 25  1  0  0  0  0
  7 26  1  0  0  0  0
  7 27  1  0  0  0  0
  7 28  1  0  0  0  0
  8 12  1  0  0  0  0
  8  9  1  0  0  0  0
  9 10  2  0  0  0  0
  9 29  1  0  0  0  0
 10 11  1  0  0  0  0
 10 30  1  0  0  0  0
 11 12  2  0  0  0  0
 11 31  1  0  0  0  0
 13 14  1  0  0  0  0
 13 15  2  0  0  0  0
 14 32  1  0  0  0  0
 14 33  1  0  0  0  0
M  CHG  1   3   1
M  END
> <s_m_source_file>
AV-unprocessed.smi

> <i_m_source_file_index>
3116

> <i_lp_mmshare_version>
43012

> <i_f3d_flags>
0

> <s_epik_input>
W05IMl1DKD1PKVtDQEhdKFtDSDNdKVtOSF1bQ0BIXShbQ0gzXSlbQ0BIXShbQ0gzXSluMVtjSF1bY0hdW2NIXW4x

> <s_epik_cmdline>
J2VwaWtfcHl0aG9uJywgJy1waCcsICc3LjAnLCAnLXRuJywgJzgnLCAnLW1hJywgJzIwMCcsICctbWV0YWxfYmluZGluZycsICctaW1hZScsICc8aW5maWxlLm1hZT4nLCAnLW9tYWUnLCAnPG91dGZpbGUubWFlPic=

> <r_lp_tautomer_probability>
1

> <r_epik_Ionization_Penalty>
0.15658

> <r_epik_Ionization_Penalty_Charging>
0.156568

> <r_epik_Ionization_Penalty_Neutral>
1.19778e-05

> <r_epik_State_Penalty>
0.145866

> <r_epik_Charging_Adjusted_Penalty>
0.302434

> <i_epik_Tot_Q>
1

> <i_epik_Tot_abs_Q>
1

> <r_epik_Metal_State_Penalty>
0.146064

> <b_epik_Metal_Only>
0

> <s_lp_Force_Field>
OPLS_2005

> <r_lp_Energy>
10.4239

> <b_lp_Chiralities_Consistent>
1

> <s_lp_Variant>
AV-unprocessed.smi:3116-2

> <Gold.Version>
5.8.1

> <Gold.Id.Protein>
6NUR|6NUR_protein|mol2

> <Gold.PLP.Fitness>
39.6052

> <Gold.PLP.PLP>
-31.7206

> <Gold.PLP.part.hbond>
-2.0000

> <Gold.PLP.part.metal>
0.0000

> <Gold.PLP.part.buried>
-2.3648

> <Gold.PLP.part.nonpolar>
-27.4134

> <Gold.PLP.part.repulsive>
0.2182

> <Gold.PLP.ligand.clash>
0.0156

> <Gold.PLP.ligand.torsion>
2.1223

> <Gold.PLP.Chemscore.Hbond>
3.0000

> <Gold.PLP.Chemscore.CHOScore>
1.0000

> <Gold.PLP.Chemscore.Metal>
0.0000

> <Gold.Chemscore.Hbonds>
donor molecule, donor type, donor heavy atom, donor atom, acceptor molecule, acceptor atom, score
      L1  H     3    20       P1  8028  2.00
      L1  H    14    32       P1 10175  1.00
      L1  C     9    29       P1  8028  1.00

> <Gold.PLP.Chemscore.Internal.Correction>
0.1448

> <Gold.Rescore>
     Score         DG    S(hbond)    S(metal)    S(lipo)     H(rot)  DE(clash)    DE(int)     intcor
     11.99     -14.02       1.92        0.00      71.69       2.45       0.00       2.02       ----

> <Gold.Chemscore.Fitness>
11.9924

> <Gold.Chemscore.DG>
-14.0178

> <Gold.Chemscore.ZeroCoef>
-5.4800

> <Gold.Chemscore.Hbond>
1.9200

> <Gold.Chemscore.Metal>
0.0000

> <Gold.Chemscore.Lipo>
71.6931

> <Gold.Chemscore.Internal_Hbond>
0.0000

> <Gold.Chemscore.DEClash>
0.0004

> <Gold.Chemscore.DEInternal>
2.0249

> <Gold.Chemscore.Rot>
2.4465

> <Gold.Chemscore.Internal.Correction>
   9.000000E+99

> <Gold.Chemscore.Hbonds>
donor molecule, donor type, donor heavy atom, donor atom, acceptor molecule, acceptor atom, score
      L1  H     3    20       P1  8028  0.90
      L1  H    14    32       P1 10175  0.99

> <Gold.Chemscore.Hbond.Weighted>
-6.4128

> <Gold.Chemscore.Metal.Weighted>
-0.0000

> <Gold.Chemscore.Lipo.Weighted>
-8.3881

> <Gold.Chemscore.Internal_Hbond.Weighted>
0.0000

> <Gold.Chemscore.DEClash.Weighted>
0.0004

> <Gold.Chemscore.DEInternal.Weighted>
2.0249

> <Gold.Chemscore.Rot.Weighted>
6.2631

> <Gold.Chemscore.Internal.Correction.Weighted>
   9.000000E+99

> <Gold.Protein.RotatedTorsions>
[ 6907 6896 6895 6894 ] final  178.28 input  -60.11 | X-H torsion
[ 7974 7965 7964 7962 ] final   -8.83 input  175.53 | X-H torsion
[ 8008 7997 7996 7995 ] final -110.65 input   59.86 | X-H torsion
[ 10167 10162 10161 10158 ] final -144.48 input  -65.29 | X-H torsion
[ 10718 10713 10712 10709 ] final -175.05 input   66.30 | X-H torsion
[ 10763 10752 10751 10750 ] final  -97.00 input  -60.55 | X-H torsion
[ 11005 11000 10999 10996 ] final -142.10 input  -57.11 | X-H torsion

> <Gold.Protein.ActiveResidues>
 VAL166  LYS551  ARG553  GLY616  TRP617  ASP618  TYR619  PRO620  LYS621  CYS622 
 ASP623  PHE694  ASN695  SER759  ASP760  ASP761  ALA762  ILE779  LEU786  VAL792 
 PHE793  MET794  SER795  GLU796  ALA797  LYS798  CYS799  TRP800  GLU811  SER814 

> <Gold.Protein.RotatedAtoms>
  151.6903  133.3311  159.3240 H   0  0  0  0  0  0  0  0  0  0  0  0  # atno 6907 bound_to 6896
  150.7782  134.6704  159.6398 H   0  0  0  0  0  0  0  0  0  0  0  0  # atno 6908 bound_to 6896
  152.3831  134.6563  160.0187 H   0  0  0  0  0  0  0  0  0  0  0  0  # atno 6909 bound_to 6896
  146.2269  140.2526  142.8348 H   0  0  0  0  0  0  0  0  0  0  0  0  # atno 7974 bound_to 7965
  154.9778  140.0396  157.2264 H   0  0  0  0  0  0  0  0  0  0  0  0  # atno 8008 bound_to 7997
  154.7742  140.2807  155.6091 H   0  0  0  0  0  0  0  0  0  0  0  0  # atno 8009 bound_to 7997
  156.2926  140.2604  156.2552 H   0  0  0  0  0  0  0  0  0  0  0  0  # atno 8010 bound_to 7997
  139.7895  143.7987  152.2648 H   0  0  0  0  0  0  0  0  0  0  0  0  # atno 10167 bound_to 10162
  156.7941  130.9528  151.3120 H   0  0  0  0  0  0  0  0  0  0  0  0  # atno 10718 bound_to 10713
  154.7289  135.5063  153.8931 H   0  0  0  0  0  0  0  0  0  0  0  0  # atno 10763 bound_to 10752
  153.0931  135.6665  153.9824 H   0  0  0  0  0  0  0  0  0  0  0  0  # atno 10764 bound_to 10752
  153.9630  135.3046  155.3411 H   0  0  0  0  0  0  0  0  0  0  0  0  # atno 10765 bound_to 10752
  140.8258  134.2576  157.4879 H   0  0  0  0  0  0  0  0  0  0  0  0  # atno 11005 bound_to 11000
  144.9400  140.8068  143.5636 LP  0  0  0  0  0  0  0  0  0  0  0  0  # atno 17320 bound_to 7965
  145.2476  139.2045  143.4959 LP  0  0  0  0  0  0  0  0  0  0  0  0  # atno 17321 bound_to 7965
  139.8073  144.7350  150.9744 LP  0  0  0  0  0  0  0  0  0  0  0  0  # atno 17342 bound_to 10162
  140.7820  143.4285  151.0731 LP  0  0  0  0  0  0  0  0  0  0  0  0  # atno 17343 bound_to 10162
  157.6586  130.8946  149.9781 LP  0  0  0  0  0  0  0  0  0  0  0  0  # atno 17370 bound_to 10713
  156.1141  130.3648  149.9999 LP  0  0  0  0  0  0  0  0  0  0  0  0  # atno 17371 bound_to 10713
  139.8706  134.9560  156.4223 LP  0  0  0  0  0  0  0  0  0  0  0  0  # atno 17394 bound_to 11000
  140.9050  133.7752  155.9725 LP  0  0  0  0  0  0  0  0  0  0  0  0  # atno 17395 bound_to 11000

$$$$
