AV-unprocessed.smi:578|AV-procd|sdf|2986|dock4
  -GOLD-   2262023493D 1   1.00000     0.00000
 Structure written by MMmdl.
 32 33  0  0  0  0  0  0  0  0  2 V2000
  152.4436  145.0095  158.5440 C   0  0  0  0  0  0  0  0  0  0  0  0
  151.3814  144.1008  159.1877 C   0  0  1  0  0  0  0  0  0  0  0  0
  151.0960  142.8197  158.3782 C   0  0  0  0  0  0  0  0  0  0  0  0
  152.1862  141.8643  158.5228 N   0  0  0  0  0  0  0  0  0  0  0  0
  152.0348  140.7291  157.7146 C   0  0  0  0  0  0  0  0  0  0  0  0
  151.5945  140.8800  156.3857 C   0  0  0  0  0  0  0  0  0  0  0  0
  151.4505  139.7269  155.5915 C   0  0  0  0  0  0  0  0  0  0  0  0
  151.7111  138.4814  156.0389 N   0  0  0  0  0  0  0  0  0  0  0  0
  152.1331  138.3253  157.3172 C   0  0  0  0  0  0  0  0  0  0  0  0
  152.4152  136.9253  157.7936 C   0  0  0  0  0  0  0  0  0  0  0  0
  152.5806  136.0205  156.9444 O   0  0  0  0  0  0  0  0  0  0  0  0
  152.4770  136.7042  159.0243 O   0  5  0  0  0  0  0  0  0  0  0  0
  152.3077  139.4268  158.1889 C   0  0  0  0  0  0  0  0  0  0  0  0
  152.4672  141.5534  159.9169 C   0  0  0  0  0  0  0  0  0  0  0  0
  152.7878  142.8461  160.6884 C   0  0  2  0  0  0  0  0  0  0  0  0
  152.9895  142.5850  162.1844 C   0  0  0  0  0  0  0  0  0  0  0  0
  151.7071  143.7682  160.5405 O   0  0  0  0  0  0  0  0  0  0  0  0
  152.1149  145.3496  157.5619 H   0  0  0  0  0  0  0  0  0  0  0  0
  153.3969  144.4996  158.4069 H   0  0  0  0  0  0  0  0  0  0  0  0
  152.6212  145.8941  159.1559 H   0  0  0  0  0  0  0  0  0  0  0  0
  150.4575  144.6781  159.2309 H   0  0  0  0  0  0  0  0  0  0  0  0
  150.1712  142.3642  158.7357 H   0  0  0  0  0  0  0  0  0  0  0  0
  150.9449  143.0610  157.3251 H   0  0  0  0  0  0  0  0  0  0  0  0
  151.3731  141.8566  155.9808 H   0  0  0  0  0  0  0  0  0  0  0  0
  151.1167  139.8075  154.5677 H   0  0  0  0  0  0  0  0  0  0  0  0
  152.6437  139.2778  159.2049 H   0  0  0  0  0  0  0  0  0  0  0  0
  151.6061  141.0563  160.3659 H   0  0  0  0  0  0  0  0  0  0  0  0
  153.3078  140.8609  159.9767 H   0  0  0  0  0  0  0  0  0  0  0  0
  153.7037  143.2885  160.2963 H   0  0  0  0  0  0  0  0  0  0  0  0
  153.8115  141.8889  162.3532 H   0  0  0  0  0  0  0  0  0  0  0  0
  152.0921  142.1606  162.6353 H   0  0  0  0  0  0  0  0  0  0  0  0
  153.2233  143.5096  162.7127 H   0  0  0  0  0  0  0  0  0  0  0  0
  1  2  1  0  0  0  0
  1 18  1  0  0  0  0
  1 19  1  0  0  0  0
  1 20  1  0  0  0  0
  2 17  1  0  0  0  0
  2  3  1  0  0  0  0
  2 21  1  0  0  0  0
  3  4  1  0  0  0  0
  3 22  1  0  0  0  0
  3 23  1  0  0  0  0
  4  5  1  0  0  0  0
  4 14  1  0  0  0  0
  5 13  1  0  0  0  0
  5  6  2  0  0  0  0
  6  7  1  0  0  0  0
  6 24  1  0  0  0  0
  7  8  2  0  0  0  0
  7 25  1  0  0  0  0
  8  9  1  0  0  0  0
  9 10  1  0  0  0  0
  9 13  2  0  0  0  0
 10 11  2  0  0  0  0
 10 12  1  0  0  0  0
 13 26  1  0  0  0  0
 14 15  1  0  0  0  0
 14 27  1  0  0  0  0
 14 28  1  0  0  0  0
 15 16  1  0  0  0  0
 15 17  1  0  0  0  0
 15 29  1  0  0  0  0
 16 30  1  0  0  0  0
 16 31  1  0  0  0  0
 16 32  1  0  0  0  0
M  CHG  1  12  -1
M  END
> <s_m_source_file>
AV-unprocessed.smi

> <i_m_source_file_index>
578

> <i_lp_mmshare_version>
43012

> <i_f3d_flags>
0

> <s_epik_input>
W0NIM11bQ0BASF0xW0NIMl1OKFtDSDJdW0NASF0oTzEpW0NIM10pYzJbY0hdW2NIXW5jKFtjSF0yKUMoPU8pW09IXQ==

> <s_epik_cmdline>
J2VwaWtfcHl0aG9uJywgJy1waCcsICc3LjAnLCAnLXRuJywgJzgnLCAnLW1hJywgJzIwMCcsICctbWV0YWxfYmluZGluZycsICctaW1hZScsICc8aW5maWxlLm1hZT4nLCAnLW9tYWUnLCAnPG91dGZpbGUubWFlPic=

> <r_epik_Ionization_Penalty>
2.00764

> <r_epik_Ionization_Penalty_Charging>
0.000210348

> <r_epik_Ionization_Penalty_Neutral>
2.00743

> <r_epik_State_Penalty>
2.13668

> <r_epik_Charging_Adjusted_Penalty>
2.13689

> <i_epik_Tot_Q>
-1

> <i_epik_Tot_abs_Q>
1

> <r_epik_Metal_State_Penalty>
0.0208571

> <b_epik_Metal_Only>
0

> <s_lp_Force_Field>
OPLS_2005

> <r_lp_Energy>
23.987

> <b_lp_Chiralities_Consistent>
1

> <s_lp_Variant>
AV-unprocessed.smi:578-6

> <Gold.Version>
5.8.1

> <Gold.Id.Protein>
6NUR|6NUR_protein|mol2

> <Gold.PLP.Fitness>
45.5611

> <Gold.PLP.PLP>
-35.0525

> <Gold.PLP.part.hbond>
-2.0000

> <Gold.PLP.part.metal>
0.0000

> <Gold.PLP.part.buried>
-5.7212

> <Gold.PLP.part.nonpolar>
-27.1206

> <Gold.PLP.part.repulsive>
0.0920

> <Gold.PLP.ligand.clash>
0.1862

> <Gold.PLP.ligand.torsion>
0.4350

> <Gold.PLP.Chemscore.Hbond>
3.8240

> <Gold.PLP.Chemscore.CHOScore>
0.0000

> <Gold.PLP.Chemscore.Metal>
0.0000

> <Gold.Chemscore.Hbonds>
donor molecule, donor type, donor heavy atom, donor atom, acceptor molecule, acceptor atom, score
      P1  H  6896  6907       L1    12  1.79
      P1  H 10752 10763       L1    11  2.00

> <Gold.PLP.Chemscore.Internal.Correction>
0.0928

> <Gold.Rescore>
     Score         DG    S(hbond)    S(metal)    S(lipo)     H(rot)  DE(clash)    DE(int)     intcor
     20.23     -20.73       1.89        0.00      98.10       1.00       0.02       0.48       ----

> <Gold.Chemscore.Fitness>
20.2256

> <Gold.Chemscore.DG>
-20.7265

> <Gold.Chemscore.ZeroCoef>
-5.4800

> <Gold.Chemscore.Hbond>
1.8948

> <Gold.Chemscore.Metal>
0.0000

> <Gold.Chemscore.Lipo>
98.1023

> <Gold.Chemscore.Internal_Hbond>
0.0000

> <Gold.Chemscore.DEClash>
0.0191

> <Gold.Chemscore.DEInternal>
0.4818

> <Gold.Chemscore.Rot>
1.0000

> <Gold.Chemscore.Internal.Correction>
   9.000000E+99

> <Gold.Chemscore.Hbonds>
donor molecule, donor type, donor heavy atom, donor atom, acceptor molecule, acceptor atom, score
      P1  H  6896  6907       L1    12  0.87
      P1  H 10752 10763       L1    11  0.96

> <Gold.Chemscore.Hbond.Weighted>
-6.3285

> <Gold.Chemscore.Metal.Weighted>
-0.0000

> <Gold.Chemscore.Lipo.Weighted>
-11.4780

> <Gold.Chemscore.Internal_Hbond.Weighted>
0.0000

> <Gold.Chemscore.DEClash.Weighted>
0.0191

> <Gold.Chemscore.DEInternal.Weighted>
0.4818

> <Gold.Chemscore.Rot.Weighted>
2.5600

> <Gold.Chemscore.Internal.Correction.Weighted>
   9.000000E+99

> <Gold.Protein.RotatedTorsions>
[ 6907 6896 6895 6894 ] final   14.65 input  -60.11 | X-H torsion
[ 7974 7965 7964 7962 ] final  176.47 input  175.53 | X-H torsion
[ 8008 7997 7996 7995 ] final   38.75 input   59.86 | X-H torsion
[ 10167 10162 10161 10158 ] final   67.36 input  -65.29 | X-H torsion
[ 10718 10713 10712 10709 ] final  -23.45 input   66.30 | X-H torsion
[ 10763 10752 10751 10750 ] final  122.39 input  -60.55 | X-H torsion
[ 11005 11000 10999 10996 ] final   22.86 input  -57.11 | X-H torsion

> <Gold.Protein.ActiveResidues>
 VAL166  LYS551  ARG553  GLY616  TRP617  ASP618  TYR619  PRO620  LYS621  CYS622 
 ASP623  PHE694  ASN695  SER759  ASP760  ASP761  ALA762  ILE779  LEU786  VAL792 
 PHE793  MET794  SER795  GLU796  ALA797  LYS798  CYS799  TRP800  GLU811  SER814 

> <Gold.Protein.RotatedAtoms>
  151.8056  135.0696  160.0405 H   0  0  0  0  0  0  0  0  0  0  0  0  # atno 6907 bound_to 6896
  152.3057  133.5697  159.5656 H   0  0  0  0  0  0  0  0  0  0  0  0  # atno 6908 bound_to 6896
  150.7295  134.0142  159.3721 H   0  0  0  0  0  0  0  0  0  0  0  0  # atno 6909 bound_to 6896
  144.7184  140.0101  143.6440 H   0  0  0  0  0  0  0  0  0  0  0  0  # atno 7974 bound_to 7965
  155.2254  140.3334  155.4310 H   0  0  0  0  0  0  0  0  0  0  0  0  # atno 8008 bound_to 7997
  156.2316  140.1853  156.7273 H   0  0  0  0  0  0  0  0  0  0  0  0  # atno 8009 bound_to 7997
  154.5988  140.0626  156.9326 H   0  0  0  0  0  0  0  0  0  0  0  0  # atno 8010 bound_to 7997
  140.0904  144.4993  150.7103 H   0  0  0  0  0  0  0  0  0  0  0  0  # atno 10167 bound_to 10162
  156.4909  130.4566  149.6756 H   0  0  0  0  0  0  0  0  0  0  0  0  # atno 10718 bound_to 10713
  153.6291  135.3399  155.3036 H   0  0  0  0  0  0  0  0  0  0  0  0  # atno 10763 bound_to 10752
  154.8584  135.4291  154.2125 H   0  0  0  0  0  0  0  0  0  0  0  0  # atno 10764 bound_to 10752
  153.3016  135.7025  153.7271 H   0  0  0  0  0  0  0  0  0  0  0  0  # atno 10765 bound_to 10752
  140.3760  134.1972  155.7665 H   0  0  0  0  0  0  0  0  0  0  0  0  # atno 11005 bound_to 11000
  146.0265  139.3297  143.0781 LP  0  0  0  0  0  0  0  0  0  0  0  0  # atno 17320 bound_to 7965
  145.8505  140.9531  143.0752 LP  0  0  0  0  0  0  0  0  0  0  0  0  # atno 17321 bound_to 7965
  140.7032  143.2449  151.4804 LP  0  0  0  0  0  0  0  0  0  0  0  0  # atno 17342 bound_to 10162
  139.5728  144.1888  152.1861 LP  0  0  0  0  0  0  0  0  0  0  0  0  # atno 17343 bound_to 10162
  156.3427  130.7390  151.2338 LP  0  0  0  0  0  0  0  0  0  0  0  0  # atno 17370 bound_to 10713
  157.7474  131.0399  150.4572 LP  0  0  0  0  0  0  0  0  0  0  0  0  # atno 17371 bound_to 10713
  141.1939  133.8140  157.0779 LP  0  0  0  0  0  0  0  0  0  0  0  0  # atno 17394 bound_to 11000
  140.0515  134.9803  157.1145 LP  0  0  0  0  0  0  0  0  0  0  0  0  # atno 17395 bound_to 11000

$$$$
