AV-unprocessed.smi:1660|AV-procd|sdf|6652|dock5
  -GOLD-   22720 7363D 1   1.00000     0.00000
 Structure written by MMmdl.
 42 43  0  0  0  0  0  0  0  0  1 V2000
  151.7750  141.4830  158.1340 C   0  0  0  0  0  0  0  0  0  0  0  0
  151.3075  141.4761  156.7895 O   0  0  0  0  0  0  0  0  0  0  0  0
  150.8912  140.2778  156.2466 C   0  0  0  0  0  0  0  0  0  0  0  0
  150.6521  139.1926  157.1127 C   0  0  0  0  0  0  0  0  0  0  0  0
  150.2279  137.9658  156.5676 C   0  0  0  0  0  0  0  0  0  0  0  0
  150.0468  137.8652  155.1673 C   0  0  0  0  0  0  0  0  0  0  0  0
  149.6394  136.6815  154.4935 N   0  0  0  0  0  0  0  0  0  0  0  0
  149.4278  135.4562  155.0046 C   0  0  0  0  0  0  0  0  0  0  0  0
  149.5301  135.1512  156.1926 O   0  0  0  0  0  0  0  0  0  0  0  0
  149.0650  134.5876  154.0513 N   0  0  0  0  0  0  0  0  0  0  0  0
  148.7584  133.1847  154.2976 C   0  0  0  0  0  0  0  0  0  0  0  0
  147.7884  132.6429  153.2316 C   0  0  0  0  0  0  0  0  0  0  0  0
  146.6013  133.5790  152.9410 C   0  0  0  0  0  0  0  0  0  0  0  0
  146.3651  134.5035  153.7204 O   0  0  0  0  0  0  0  0  0  0  0  0
  145.8516  133.3628  151.8337 N   0  0  0  0  0  0  0  0  0  0  0  0
  146.0580  132.2238  150.9350 C   0  0  0  0  0  0  0  0  0  0  0  0
  144.8248  131.3071  151.0291 C   0  0  0  0  0  0  0  0  0  0  0  0
  143.6515  132.0445  150.6924 O   0  0  0  0  0  0  0  0  0  0  0  0
  143.4434  133.1821  151.5267 C   0  0  0  0  0  0  0  0  0  0  0  0
  144.6608  134.1195  151.4349 C   0  0  0  0  0  0  0  0  0  0  0  0
  150.3258  139.0064  154.3871 C   0  0  0  0  0  0  0  0  0  0  0  0
  150.7329  140.1853  154.9030 N   0  0  0  0  0  0  0  0  0  0  0  0
  152.0620  142.4974  158.4101 H   0  0  0  0  0  0  0  0  0  0  0  0
  152.6527  140.8463  158.2544 H   0  0  0  0  0  0  0  0  0  0  0  0
  150.9985  141.1588  158.8283 H   0  0  0  0  0  0  0  0  0  0  0  0
  150.7961  139.2977  158.1780 H   0  0  0  0  0  0  0  0  0  0  0  0
  150.0653  137.1311  157.2310 H   0  0  0  0  0  0  0  0  0  0  0  0
  149.4371  136.7926  153.5105 H   0  0  0  0  0  0  0  0  0  0  0  0
  148.9979  134.9152  153.0989 H   0  0  0  0  0  0  0  0  0  0  0  0
  149.6885  132.6132  154.2920 H   0  0  0  0  0  0  0  0  0  0  0  0
  148.3206  133.0839  155.2926 H   0  0  0  0  0  0  0  0  0  0  0  0
  148.3385  132.4786  152.3040 H   0  0  0  0  0  0  0  0  0  0  0  0
  147.4000  131.6768  153.5563 H   0  0  0  0  0  0  0  0  0  0  0  0
  146.1826  132.5844  149.9130 H   0  0  0  0  0  0  0  0  0  0  0  0
  146.9595  131.6549  151.1664 H   0  0  0  0  0  0  0  0  0  0  0  0
  144.9247  130.4675  150.3412 H   0  0  0  0  0  0  0  0  0  0  0  0
  144.7274  130.8893  152.0327 H   0  0  0  0  0  0  0  0  0  0  0  0
  142.5419  133.6999  151.1990 H   0  0  0  0  0  0  0  0  0  0  0  0
  143.2740  132.8641  152.5568 H   0  0  0  0  0  0  0  0  0  0  0  0
  144.4840  135.0130  152.0311 H   0  0  0  0  0  0  0  0  0  0  0  0
  144.7849  134.4693  150.4090 H   0  0  0  0  0  0  0  0  0  0  0  0
  150.2153  138.9762  153.3130 H   0  0  0  0  0  0  0  0  0  0  0  0
  1  2  1  0  0  0  0
  1 23  1  0  0  0  0
  1 24  1  0  0  0  0
  1 25  1  0  0  0  0
  2  3  1  0  0  0  0
  3 22  1  0  0  0  0
  3  4  2  0  0  0  0
  4  5  1  0  0  0  0
  4 26  1  0  0  0  0
  5  6  2  0  0  0  0
  5 27  1  0  0  0  0
  6  7  1  0  0  0  0
  6 21  1  0  0  0  0
  7  8  1  0  0  0  0
  7 28  1  0  0  0  0
  8  9  2  0  0  0  0
  8 10  1  0  0  0  0
 10 11  1  0  0  0  0
 10 29  1  0  0  0  0
 11 12  1  0  0  0  0
 11 30  1  0  0  0  0
 11 31  1  0  0  0  0
 12 13  1  0  0  0  0
 12 32  1  0  0  0  0
 12 33  1  0  0  0  0
 13 14  2  0  0  0  0
 13 15  1  0  0  0  0
 15 20  1  0  0  0  0
 15 16  1  0  0  0  0
 16 17  1  0  0  0  0
 16 34  1  0  0  0  0
 16 35  1  0  0  0  0
 17 18  1  0  0  0  0
 17 36  1  0  0  0  0
 17 37  1  0  0  0  0
 18 19  1  0  0  0  0
 19 20  1  0  0  0  0
 19 38  1  0  0  0  0
 19 39  1  0  0  0  0
 20 40  1  0  0  0  0
 20 41  1  0  0  0  0
 21 22  2  0  0  0  0
 21 42  1  0  0  0  0
M  END
> <s_m_source_file>
AV-unprocessed.smi

> <i_m_source_file_index>
1660

> <i_lp_mmshare_version>
43012

> <i_f3d_flags>
0

> <s_epik_input>
W0NIM11PYzFbY0hdW2NIXWMoW2NIXW4xKVtOSF1DKD1PKVtOSF1bQ0gyXVtDSDJdQyg9TylOMltDSDJdW0NIMl1PW0NIMl1bQ0gyXTI=

> <s_epik_cmdline>
J2VwaWtfcHl0aG9uJywgJy1waCcsICc3LjAnLCAnLXRuJywgJzgnLCAnLW1hJywgJzIwMCcsICctbWV0YWxfYmluZGluZycsICctaW1hZScsICc8aW5maWxlLm1hZT4nLCAnLW9tYWUnLCAnPG91dGZpbGUubWFlPic=

> <r_lp_tautomer_probability>
1

> <r_epik_Ionization_Penalty>
8.54597e-05

> <r_epik_Ionization_Penalty_Charging>
0

> <r_epik_Ionization_Penalty_Neutral>
8.54597e-05

> <r_epik_State_Penalty>
-0

> <r_epik_Charging_Adjusted_Penalty>
0

> <i_epik_Tot_Q>
0

> <i_epik_Tot_abs_Q>
0

> <r_epik_Metal_State_Penalty>
-0

> <b_epik_Metal_Only>
0

> <s_lp_Force_Field>
OPLS_2005

> <r_lp_Energy>
25.5639

> <b_lp_Chiralities_Consistent>
1

> <s_lp_Variant>
AV-unprocessed.smi:1660-1

> <Gold.Version>
5.8.1

> <Gold.Id.Protein>
6NUR|6NUR_protein|mol2

> <Gold.PLP.Fitness>
43.7382

> <Gold.PLP.PLP>
-33.5732

> <Gold.PLP.part.hbond>
-3.0000

> <Gold.PLP.part.metal>
0.0000

> <Gold.PLP.part.buried>
-5.4034

> <Gold.PLP.part.nonpolar>
-25.6163

> <Gold.PLP.part.repulsive>
0.4408

> <Gold.PLP.ligand.clash>
0.0834

> <Gold.PLP.ligand.torsion>
0.5968

> <Gold.PLP.Chemscore.Hbond>
2.8000

> <Gold.PLP.Chemscore.CHOScore>
1.0000

> <Gold.PLP.Chemscore.Metal>
0.0000

> <Gold.Chemscore.Hbonds>
donor molecule, donor type, donor heavy atom, donor atom, acceptor molecule, acceptor atom, score
      L1  H     7    28       P1  7948  1.00
      L1  H    10    29       P1  7948  0.80
      P1  H  7989  7998       L1    22  1.00
      L1  C    21    42       P1  7957  1.00

> <Gold.PLP.Chemscore.Internal.Correction>
0.0421

> <Gold.Rescore>
     Score         DG    S(hbond)    S(metal)    S(lipo)     H(rot)  DE(clash)    DE(int)     intcor
     12.13     -15.48       2.18        0.00      64.31       1.88       0.03       3.32       ----

> <Gold.Chemscore.Fitness>
12.1283

> <Gold.Chemscore.DG>
-15.4772

> <Gold.Chemscore.ZeroCoef>
-5.4800

> <Gold.Chemscore.Hbond>
2.1836

> <Gold.Chemscore.Metal>
0.0000

> <Gold.Chemscore.Lipo>
64.3063

> <Gold.Chemscore.Internal_Hbond>
0.0000

> <Gold.Chemscore.DEClash>
0.0281

> <Gold.Chemscore.DEInternal>
3.3208

> <Gold.Chemscore.Rot>
1.8828

> <Gold.Chemscore.Internal.Correction>
   9.000000E+99

> <Gold.Chemscore.Hbonds>
donor molecule, donor type, donor heavy atom, donor atom, acceptor molecule, acceptor atom, score
      L1  H     7    28       P1  7948  0.86
      L1  H    10    29       P1  7948  0.11
      P1  H  7989  7998       L1    22  0.30

> <Gold.Chemscore.Hbond.Weighted>
-7.2933

> <Gold.Chemscore.Metal.Weighted>
-0.0000

> <Gold.Chemscore.Lipo.Weighted>
-7.5238

> <Gold.Chemscore.Internal_Hbond.Weighted>
0.0000

> <Gold.Chemscore.DEClash.Weighted>
0.0281

> <Gold.Chemscore.DEInternal.Weighted>
3.3208

> <Gold.Chemscore.Rot.Weighted>
4.8200

> <Gold.Chemscore.Internal.Correction.Weighted>
   9.000000E+99

> <Gold.Protein.RotatedTorsions>
[ 6907 6896 6895 6894 ] final -102.36 input  -60.11 | X-H torsion
[ 7974 7965 7964 7962 ] final   82.72 input  175.53 | X-H torsion
[ 8008 7997 7996 7995 ] final  150.22 input   59.86 | X-H torsion
[ 10167 10162 10161 10158 ] final  -99.14 input  -65.29 | X-H torsion
[ 10718 10713 10712 10709 ] final    4.34 input   66.30 | X-H torsion
[ 10763 10752 10751 10750 ] final -154.51 input  -60.55 | X-H torsion
[ 11005 11000 10999 10996 ] final -162.05 input  -57.11 | X-H torsion

> <Gold.Protein.ActiveResidues>
 VAL166  LYS551  ARG553  GLY616  TRP617  ASP618  TYR619  PRO620  LYS621  CYS622 
 ASP623  PHE694  ASN695  SER759  ASP760  ASP761  ALA762  ILE779  LEU786  VAL792 
 PHE793  MET794  SER795  GLU796  ALA797  LYS798  CYS799  TRP800  GLU811  SER814 

> <Gold.Protein.RotatedAtoms>
  150.7193  134.0593  159.3825 H   0  0  0  0  0  0  0  0  0  0  0  0  # atno 6907 bound_to 6896
  151.8573  135.0534  160.0475 H   0  0  0  0  0  0  0  0  0  0  0  0  # atno 6908 bound_to 6896
  152.2744  133.5377  159.5496 H   0  0  0  0  0  0  0  0  0  0  0  0  # atno 6909 bound_to 6896
  145.6214  139.2386  143.2136 H   0  0  0  0  0  0  0  0  0  0  0  0  # atno 7974 bound_to 7965
  156.2724  140.2080  156.5983 H   0  0  0  0  0  0  0  0  0  0  0  0  # atno 8008 bound_to 7997
  154.6927  140.0528  157.0403 H   0  0  0  0  0  0  0  0  0  0  0  0  # atno 8009 bound_to 7997
  155.0844  140.3190  155.4595 H   0  0  0  0  0  0  0  0  0  0  0  0  # atno 8010 bound_to 7997
  140.2656  143.3378  152.0584 H   0  0  0  0  0  0  0  0  0  0  0  0  # atno 10167 bound_to 10162
  156.8912  130.5688  149.5650 H   0  0  0  0  0  0  0  0  0  0  0  0  # atno 10718 bound_to 10713
  154.7853  135.3188  154.7899 H   0  0  0  0  0  0  0  0  0  0  0  0  # atno 10763 bound_to 10752
  153.8600  135.6854  153.4788 H   0  0  0  0  0  0  0  0  0  0  0  0  # atno 10764 bound_to 10752
  153.1503  135.4702  154.9566 H   0  0  0  0  0  0  0  0  0  0  0  0  # atno 10765 bound_to 10752
  140.6136  134.4823  157.5217 H   0  0  0  0  0  0  0  0  0  0  0  0  # atno 11005 bound_to 11000
  146.1428  140.7034  142.9359 LP  0  0  0  0  0  0  0  0  0  0  0  0  # atno 17320 bound_to 7965
  144.7229  140.4433  143.6994 LP  0  0  0  0  0  0  0  0  0  0  0  0  # atno 17321 bound_to 7965
  139.5004  144.6690  151.6287 LP  0  0  0  0  0  0  0  0  0  0  0  0  # atno 17342 bound_to 10162
  140.5931  143.9744  150.6337 LP  0  0  0  0  0  0  0  0  0  0  0  0  # atno 17343 bound_to 10162
  156.0628  130.5677  150.9228 LP  0  0  0  0  0  0  0  0  0  0  0  0  # atno 17370 bound_to 10713
  157.6082  131.0938  150.8841 LP  0  0  0  0  0  0  0  0  0  0  0  0  # atno 17371 bound_to 10713
  139.9182  134.8203  156.1297 LP  0  0  0  0  0  0  0  0  0  0  0  0  # atno 17394 bound_to 11000
  141.0791  133.6762  156.2298 LP  0  0  0  0  0  0  0  0  0  0  0  0  # atno 17395 bound_to 11000

$$$$
