AV-unprocessed.smi:1937|AV-procd|sdf|7833|dock6
  -GOLD-   22720 9583D 1   1.00000     0.00000
 Structure written by MMmdl.
 40 41  0  0  0  0  0  0  0  0  1 V2000
  149.0565  135.5896  156.6724 O   0  0  0  0  0  0  0  0  0  0  0  0
  148.7089  135.9597  155.5512 C   0  0  0  0  0  0  0  0  0  0  0  0
  148.1641  135.1408  154.6404 N   0  0  0  0  0  0  0  0  0  0  0  0
  147.9259  133.7160  154.8355 C   0  0  0  0  0  0  0  0  0  0  0  0
  148.1206  132.9274  153.5267 C   0  0  0  0  0  0  0  0  0  0  0  0
  146.8319  132.6307  152.8888 N   0  0  0  0  0  0  0  0  0  0  0  0
  146.0235  133.7913  152.4789 C   0  0  0  0  0  0  0  0  0  0  0  0
  145.9259  133.9740  150.9461 C   0  0  0  0  0  0  0  0  0  0  0  0
  146.0098  132.6902  150.0974 C   0  0  0  0  0  0  0  0  0  0  0  0
  145.0294  131.5716  150.5078 C   0  0  0  0  0  0  0  0  0  0  0  0
  145.0665  131.1307  151.9906 C   0  0  0  0  0  0  0  0  0  0  0  0
  146.4192  131.3551  152.6858 C   0  0  0  0  0  0  0  0  0  0  0  0
  147.0786  130.3735  153.0293 O   0  0  0  0  0  0  0  0  0  0  0  0
  148.8047  137.2145  155.0790 N   0  0  0  0  0  0  0  0  0  0  0  0
  149.3380  138.3676  155.7166 C   0  0  0  0  0  0  0  0  0  0  0  0
  149.9152  138.3737  157.0099 C   0  0  0  0  0  0  0  0  0  0  0  0
  150.4220  139.5837  157.5221 C   0  0  0  0  0  0  0  0  0  0  0  0
  150.3408  140.7400  156.7222 C   0  0  0  0  0  0  0  0  0  0  0  0
  149.8064  140.7460  155.4830 N   0  0  0  0  0  0  0  0  0  0  0  0
  149.3223  139.5825  154.9986 C   0  0  0  0  0  0  0  0  0  0  0  0
  147.9002  135.5283  153.7462 H   0  0  0  0  0  0  0  0  0  0  0  0
  148.5845  133.3309  155.6160 H   0  0  0  0  0  0  0  0  0  0  0  0
  146.9070  133.5934  155.2036 H   0  0  0  0  0  0  0  0  0  0  0  0
  148.7556  133.4928  152.8424 H   0  0  0  0  0  0  0  0  0  0  0  0
  148.6704  132.0069  153.7239 H   0  0  0  0  0  0  0  0  0  0  0  0
  145.0237  133.6966  152.9030 H   0  0  0  0  0  0  0  0  0  0  0  0
  146.4062  134.7155  152.9125 H   0  0  0  0  0  0  0  0  0  0  0  0
  145.0033  134.5067  150.7137 H   0  0  0  0  0  0  0  0  0  0  0  0
  146.7328  134.6339  150.6251 H   0  0  0  0  0  0  0  0  0  0  0  0
  145.8314  132.9482  149.0531 H   0  0  0  0  0  0  0  0  0  0  0  0
  147.0309  132.3066  150.1218 H   0  0  0  0  0  0  0  0  0  0  0  0
  144.0134  131.8852  150.2657 H   0  0  0  0  0  0  0  0  0  0  0  0
  145.2232  130.7020  149.8791 H   0  0  0  0  0  0  0  0  0  0  0  0
  144.2894  131.6460  152.5547 H   0  0  0  0  0  0  0  0  0  0  0  0
  144.8022  130.0743  152.0556 H   0  0  0  0  0  0  0  0  0  0  0  0
  148.4067  137.3739  154.1650 H   0  0  0  0  0  0  0  0  0  0  0  0
  149.9928  137.4818  157.6116 H   0  0  0  0  0  0  0  0  0  0  0  0
  150.8667  139.6228  158.5056 H   0  0  0  0  0  0  0  0  0  0  0  0
  150.7202  141.6838  157.0854 H   0  0  0  0  0  0  0  0  0  0  0  0
  148.9045  139.6251  154.0033 H   0  0  0  0  0  0  0  0  0  0  0  0
  1  2  2  0  0  0  0
  2  3  1  0  0  0  0
  2 14  1  0  0  0  0
  3  4  1  0  0  0  0
  3 21  1  0  0  0  0
  4  5  1  0  0  0  0
  4 22  1  0  0  0  0
  4 23  1  0  0  0  0
  5  6  1  0  0  0  0
  5 24  1  0  0  0  0
  5 25  1  0  0  0  0
  6 12  1  0  0  0  0
  6  7  1  0  0  0  0
  7  8  1  0  0  0  0
  7 26  1  0  0  0  0
  7 27  1  0  0  0  0
  8  9  1  0  0  0  0
  8 28  1  0  0  0  0
  8 29  1  0  0  0  0
  9 10  1  0  0  0  0
  9 30  1  0  0  0  0
  9 31  1  0  0  0  0
 10 11  1  0  0  0  0
 10 32  1  0  0  0  0
 10 33  1  0  0  0  0
 11 12  1  0  0  0  0
 11 34  1  0  0  0  0
 11 35  1  0  0  0  0
 12 13  2  0  0  0  0
 14 15  1  0  0  0  0
 14 36  1  0  0  0  0
 15 20  1  0  0  0  0
 15 16  2  0  0  0  0
 16 17  1  0  0  0  0
 16 37  1  0  0  0  0
 17 18  2  0  0  0  0
 17 38  1  0  0  0  0
 18 19  1  0  0  0  0
 18 39  1  0  0  0  0
 19 20  2  0  0  0  0
 20 40  1  0  0  0  0
M  END
> <s_m_source_file>
AV-unprocessed.smi

> <i_m_source_file_index>
1937

> <i_lp_mmshare_version>
43012

> <i_f3d_flags>
0

> <s_epik_input>
W2NIXTFuW2NIXVtjSF1bY0hdYzFbTkhdQyg9TylbTkhdW0NIMl1bQ0gyXU4yW0NIMl1bQ0gyXVtDSDJdW0NIMl1bQ0gyXUMyPU8=

> <s_epik_cmdline>
J2VwaWtfcHl0aG9uJywgJy1waCcsICc3LjAnLCAnLXRuJywgJzgnLCAnLW1hJywgJzIwMCcsICctbWV0YWxfYmluZGluZycsICctaW1hZScsICc8aW5maWxlLm1hZT4nLCAnLW9tYWUnLCAnPG91dGZpbGUubWFlPic=

> <r_epik_Ionization_Penalty>
0.00465308

> <r_epik_Ionization_Penalty_Charging>
0

> <r_epik_Ionization_Penalty_Neutral>
0.00465308

> <r_epik_State_Penalty>
0.00334133

> <r_epik_Charging_Adjusted_Penalty>
0.00334133

> <i_epik_Tot_Q>
0

> <i_epik_Tot_abs_Q>
0

> <r_epik_Metal_State_Penalty>
-0

> <b_epik_Metal_Only>
0

> <s_lp_Force_Field>
OPLS_2005

> <r_lp_Energy>
23.2929

> <b_lp_Chiralities_Consistent>
1

> <s_lp_Variant>
AV-unprocessed.smi:1937-1

> <Gold.Version>
5.8.1

> <Gold.Id.Protein>
6NUR|6NUR_protein|mol2

> <Gold.PLP.Fitness>
46.2649

> <Gold.PLP.PLP>
-35.4828

> <Gold.PLP.part.hbond>
-2.9216

> <Gold.PLP.part.metal>
0.0000

> <Gold.PLP.part.buried>
-4.9474

> <Gold.PLP.part.nonpolar>
-28.4223

> <Gold.PLP.part.repulsive>
0.2578

> <Gold.PLP.ligand.clash>
0.0000

> <Gold.PLP.ligand.torsion>
0.4606

> <Gold.PLP.Chemscore.Hbond>
2.8960

> <Gold.PLP.Chemscore.CHOScore>
1.0000

> <Gold.PLP.Chemscore.Metal>
0.0000

> <Gold.Chemscore.Hbonds>
donor molecule, donor type, donor heavy atom, donor atom, acceptor molecule, acceptor atom, score
      L1  H     3    21       P1  7948  0.31

> <Gold.PLP.Chemscore.Internal.Correction>
0.0154

> <Gold.Rescore>
     Score         DG    S(hbond)    S(metal)    S(lipo)     H(rot)  DE(clash)    DE(int)     intcor
     16.99     -18.72       2.37        0.00      78.74       1.52       0.04       1.70       ----

> <Gold.Chemscore.Fitness>
16.9932

> <Gold.Chemscore.DG>
-18.7234

> <Gold.Chemscore.ZeroCoef>
-5.4800

> <Gold.Chemscore.Hbond>
2.3716

> <Gold.Chemscore.Metal>
0.0000

> <Gold.Chemscore.Lipo>
78.7376

> <Gold.Chemscore.Internal_Hbond>
0.0000

> <Gold.Chemscore.DEClash>
0.0351

> <Gold.Chemscore.DEInternal>
1.6951

> <Gold.Chemscore.Rot>
1.5195

> <Gold.Chemscore.Internal.Correction>
   9.000000E+99

> <Gold.Chemscore.Hbonds>
donor molecule, donor type, donor heavy atom, donor atom, acceptor molecule, acceptor atom, score
      L1  H     3    21       P1  7948  0.32

> <Gold.Chemscore.Hbond.Weighted>
-7.9212

> <Gold.Chemscore.Metal.Weighted>
-0.0000

> <Gold.Chemscore.Lipo.Weighted>
-9.2123

> <Gold.Chemscore.Internal_Hbond.Weighted>
0.0000

> <Gold.Chemscore.DEClash.Weighted>
0.0351

> <Gold.Chemscore.DEInternal.Weighted>
1.6951

> <Gold.Chemscore.Rot.Weighted>
3.8900

> <Gold.Chemscore.Internal.Correction.Weighted>
   9.000000E+99

> <Gold.Protein.RotatedTorsions>
[ 6907 6896 6895 6894 ] final   71.23 input  -60.11 | X-H torsion
[ 7974 7965 7964 7962 ] final   91.34 input  175.53 | X-H torsion
[ 8008 7997 7996 7995 ] final  -63.27 input   59.86 | X-H torsion
[ 10167 10162 10161 10158 ] final -169.76 input  -65.29 | X-H torsion
[ 10718 10713 10712 10709 ] final   21.26 input   66.30 | X-H torsion
[ 10763 10752 10751 10750 ] final   41.99 input  -60.55 | X-H torsion
[ 11005 11000 10999 10996 ] final -164.60 input  -57.11 | X-H torsion

> <Gold.Protein.ActiveResidues>
 VAL166  LYS551  ARG553  GLY616  TRP617  ASP618  TYR619  PRO620  LYS621  CYS622 
 ASP623  PHE694  ASN695  SER759  ASP760  ASP761  ALA762  ILE779  LEU786  VAL792 
 PHE793  MET794  SER795  GLU796  ALA797  LYS798  CYS799  TRP800  GLU811  SER814 

> <Gold.Protein.RotatedAtoms>
  152.4797  134.4751  159.9647 H   0  0  0  0  0  0  0  0  0  0  0  0  # atno 6907 bound_to 6896
  151.4759  133.3552  159.2838 H   0  0  0  0  0  0  0  0  0  0  0  0  # atno 6908 bound_to 6896
  150.8861  134.8285  159.7321 H   0  0  0  0  0  0  0  0  0  0  0  0  # atno 6909 bound_to 6896
  145.5070  139.2276  143.2746 H   0  0  0  0  0  0  0  0  0  0  0  0  # atno 7974 bound_to 7965
  154.4545  140.0978  156.6717 H   0  0  0  0  0  0  0  0  0  0  0  0  # atno 8008 bound_to 7997
  155.5181  140.3478  155.4383 H   0  0  0  0  0  0  0  0  0  0  0  0  # atno 8009 bound_to 7997
  156.0750  140.1359  156.9772 H   0  0  0  0  0  0  0  0  0  0  0  0  # atno 8010 bound_to 7997
  139.5903  144.1228  152.1626 H   0  0  0  0  0  0  0  0  0  0  0  0  # atno 10167 bound_to 10162
  157.1360  130.6612  149.5966 H   0  0  0  0  0  0  0  0  0  0  0  0  # atno 10718 bound_to 10713
  152.9894  135.6145  154.2877 H   0  0  0  0  0  0  0  0  0  0  0  0  # atno 10763 bound_to 10752
  154.2604  135.2782  155.2782 H   0  0  0  0  0  0  0  0  0  0  0  0  # atno 10764 bound_to 10752
  154.5211  135.5814  153.6738 H   0  0  0  0  0  0  0  0  0  0  0  0  # atno 10765 bound_to 10752
  140.5851  134.5102  157.5184 H   0  0  0  0  0  0  0  0  0  0  0  0  # atno 11005 bound_to 11000
  146.2191  140.5874  142.9025 LP  0  0  0  0  0  0  0  0  0  0  0  0  # atno 17320 bound_to 7965
  144.7748  140.5717  143.6645 LP  0  0  0  0  0  0  0  0  0  0  0  0  # atno 17321 bound_to 7965
  140.0801  144.5708  150.7128 LP  0  0  0  0  0  0  0  0  0  0  0  0  # atno 17342 bound_to 10162
  140.7167  143.2551  151.4411 LP  0  0  0  0  0  0  0  0  0  0  0  0  # atno 17343 bound_to 10162
  155.9798  130.4794  150.6736 LP  0  0  0  0  0  0  0  0  0  0  0  0  # atno 17370 bound_to 10713
  157.4349  131.0854  151.1001 LP  0  0  0  0  0  0  0  0  0  0  0  0  # atno 17371 bound_to 10713
  139.9299  134.7983  156.0959 LP  0  0  0  0  0  0  0  0  0  0  0  0  # atno 17394 bound_to 11000
  141.0971  133.6691  156.2670 LP  0  0  0  0  0  0  0  0  0  0  0  0  # atno 17395 bound_to 11000

$$$$
