AV-unprocessed.smi:2510|AV-procd|sdf|9878|dock2
  -GOLD-   2272013513D 1   1.00000     0.00000
 Structure written by MMmdl.
 48 49  0  0  0  0  0  0  0  0  1 V2000
  148.3626  141.8355  158.0086 C   0  0  0  0  0  0  0  0  0  0  0  0
  149.4597  141.3921  157.0279 C   0  0  0  0  0  0  0  0  0  0  0  0
  150.8319  141.0640  157.6756 C   0  0  0  0  0  0  0  0  0  0  0  0
  151.3482  142.3338  158.3962 C   0  0  0  0  0  0  0  0  0  0  0  0
  152.5323  142.1102  159.3520 C   0  0  0  0  0  0  0  0  0  0  0  0
  150.9541  139.7655  158.5328 C   0  0  1  0  0  0  0  0  0  0  0  0
  149.9848  138.7302  158.1807 N   0  0  0  0  0  0  0  0  0  0  0  0
  149.9846  137.4727  158.6461 C   0  0  0  0  0  0  0  0  0  0  0  0
  150.8843  137.0060  159.3435 O   0  0  0  0  0  0  0  0  0  0  0  0
  148.7598  136.6259  158.2948 C   0  0  0  0  0  0  0  0  0  0  0  0
  148.1143  136.0987  159.5386 C   0  0  0  0  0  0  0  0  0  0  0  0
  148.3957  136.3117  160.8596 C   0  0  0  0  0  0  0  0  0  0  0  0
  147.4725  135.4787  161.5558 C   0  0  0  0  0  0  0  0  0  0  0  0
  147.3406  135.2798  163.0365 C   0  0  0  0  0  0  0  0  0  0  0  0
  146.6675  134.8201  160.7355 N   0  0  0  0  0  0  0  0  0  0  0  0
  147.0665  135.2066  159.5095 N   0  0  0  0  0  0  0  0  0  0  0  0
  152.3249  139.4961  157.8869 C   0  0  1  0  0  0  0  0  0  0  0  0
  152.8121  138.0724  157.6232 C   0  0  0  0  0  0  0  0  0  0  0  0
  151.8808  140.4133  156.7323 C   0  0  1  0  0  0  0  0  0  0  0  0
  151.2617  139.6925  155.6712 O   0  0  0  0  0  0  0  0  0  0  0  0
  152.1853  139.0100  154.8420 C   0  0  0  0  0  0  0  0  0  0  0  0
  146.6310  134.8462  158.6723 H   0  0  0  0  0  0  0  0  0  0  0  0
  147.4796  142.1700  157.4641 H   0  0  0  0  0  0  0  0  0  0  0  0
  148.6971  142.6648  158.6318 H   0  0  0  0  0  0  0  0  0  0  0  0
  148.0457  141.0240  158.6628 H   0  0  0  0  0  0  0  0  0  0  0  0
  149.0991  140.5545  156.4318 H   0  0  0  0  0  0  0  0  0  0  0  0
  149.5647  142.2041  156.3099 H   0  0  0  0  0  0  0  0  0  0  0  0
  151.6690  143.0709  157.6603 H   0  0  0  0  0  0  0  0  0  0  0  0
  150.5413  142.8304  158.9339 H   0  0  0  0  0  0  0  0  0  0  0  0
  152.9142  143.0648  159.7141 H   0  0  0  0  0  0  0  0  0  0  0  0
  153.3559  141.5929  158.8602 H   0  0  0  0  0  0  0  0  0  0  0  0
  152.2446  141.5297  160.2279 H   0  0  0  0  0  0  0  0  0  0  0  0
  151.0321  139.9417  159.6065 H   0  0  0  0  0  0  0  0  0  0  0  0
  149.2003  139.0228  157.6159 H   0  0  0  0  0  0  0  0  0  0  0  0
  148.0521  137.2370  157.7339 H   0  0  0  0  0  0  0  0  0  0  0  0
  149.0542  135.8032  157.6420 H   0  0  0  0  0  0  0  0  0  0  0  0
  149.1666  136.9479  161.2685 H   0  0  0  0  0  0  0  0  0  0  0  0
  148.0513  135.9009  163.5820 H   0  0  0  0  0  0  0  0  0  0  0  0
  147.5311  134.2417  163.3101 H   0  0  0  0  0  0  0  0  0  0  0  0
  146.3395  135.5386  163.3813 H   0  0  0  0  0  0  0  0  0  0  0  0
  153.0805  140.0242  158.4705 H   0  0  0  0  0  0  0  0  0  0  0  0
  152.1339  137.5200  156.9727 H   0  0  0  0  0  0  0  0  0  0  0  0
  152.9032  137.5114  158.5533 H   0  0  0  0  0  0  0  0  0  0  0  0
  153.7922  138.0756  157.1461 H   0  0  0  0  0  0  0  0  0  0  0  0
  152.6438  141.1170  156.3938 H   0  0  0  0  0  0  0  0  0  0  0  0
  151.6443  138.4520  154.0779 H   0  0  0  0  0  0  0  0  0  0  0  0
  152.7915  138.3048  155.4106 H   0  0  0  0  0  0  0  0  0  0  0  0
  152.8491  139.7130  154.3377 H   0  0  0  0  0  0  0  0  0  0  0  0
  1  2  1  0  0  0  0
  1 23  1  0  0  0  0
  1 24  1  0  0  0  0
  1 25  1  0  0  0  0
  2  3  1  0  0  0  0
  2 26  1  0  0  0  0
  2 27  1  0  0  0  0
  3 19  1  0  0  0  0
  3  4  1  0  0  0  0
  3  6  1  0  0  0  0
  4  5  1  0  0  0  0
  4 28  1  0  0  0  0
  4 29  1  0  0  0  0
  5 30  1  0  0  0  0
  5 31  1  0  0  0  0
  5 32  1  0  0  0  0
  6  7  1  0  0  0  0
  6 17  1  0  0  0  0
  6 33  1  0  0  0  0
  7  8  1  0  0  0  0
  7 34  1  0  0  0  0
  8  9  2  0  0  0  0
  8 10  1  0  0  0  0
 10 35  1  0  0  0  0
 10 36  1  0  0  0  0
 10 11  1  0  0  0  0
 11 16  1  0  0  0  0
 11 12  2  0  0  0  0
 12 13  1  0  0  0  0
 12 37  1  0  0  0  0
 13 14  1  0  0  0  0
 13 15  2  0  0  0  0
 14 38  1  0  0  0  0
 14 39  1  0  0  0  0
 14 40  1  0  0  0  0
 15 16  1  0  0  0  0
 16 22  1  0  0  0  0
 17 18  1  0  0  0  0
 17 19  1  0  0  0  0
 17 41  1  0  0  0  0
 18 42  1  0  0  0  0
 18 43  1  0  0  0  0
 18 44  1  0  0  0  0
 19 20  1  0  0  0  0
 19 45  1  0  0  0  0
 20 21  1  0  0  0  0
 21 46  1  0  0  0  0
 21 47  1  0  0  0  0
 21 48  1  0  0  0  0
M  END
> <s_m_source_file>
AV-unprocessed.smi

> <i_m_source_file_index>
2510

> <i_lp_mmshare_version>
43012

> <i_f3d_flags>
0

> <s_epik_input>
W0NIM11PW0NAQEhdMVtDQEhdKFtDSDNdKVtDQEBIXShDMShbQ0gyXVtDSDNdKVtDSDJdW0NIM10pW05IXUMoPU8pW0NIMl1jMltjSF1jKFtDSDNdKVtuSF1uMg==

> <s_epik_cmdline>
J2VwaWtfcHl0aG9uJywgJy1waCcsICc3LjAnLCAnLXRuJywgJzgnLCAnLW1hJywgJzIwMCcsICctbWV0YWxfYmluZGluZycsICctaW1hZScsICc8aW5maWxlLm1hZT4nLCAnLW9tYWUnLCAnPG91dGZpbGUubWFlPic=

> <r_lp_tautomer_probability>
0.5

> <r_epik_Ionization_Penalty>
0.000134763

> <r_epik_Ionization_Penalty_Charging>
0

> <r_epik_Ionization_Penalty_Neutral>
0.000134763

> <r_epik_State_Penalty>
0.41068

> <r_epik_Charging_Adjusted_Penalty>
0.41068

> <i_epik_Tot_Q>
0

> <i_epik_Tot_abs_Q>
0

> <r_epik_Metal_State_Penalty>
0.410661

> <b_epik_Metal_Only>
0

> <s_lp_Force_Field>
OPLS_2005

> <r_lp_Energy>
25.663

> <b_lp_Chiralities_Consistent>
1

> <s_lp_Variant>
AV-unprocessed.smi:2510-9

> <Gold.Version>
5.8.1

> <Gold.Id.Protein>
6NUR|6NUR_protein|mol2

> <Gold.PLP.Fitness>
36.6569

> <Gold.PLP.PLP>
-33.9359

> <Gold.PLP.part.hbond>
-1.0000

> <Gold.PLP.part.metal>
0.0000

> <Gold.PLP.part.buried>
-5.6640

> <Gold.PLP.part.nonpolar>
-27.5731

> <Gold.PLP.part.repulsive>
0.1629

> <Gold.PLP.ligand.clash>
0.0000

> <Gold.PLP.ligand.torsion>
0.4793

> <Gold.PLP.Chemscore.Hbond>
1.0000

> <Gold.PLP.Chemscore.CHOScore>
0.0000

> <Gold.PLP.Chemscore.Metal>
0.0000

> <Gold.Chemscore.Hbonds>
donor molecule, donor type, donor heavy atom, donor atom, acceptor molecule, acceptor atom, score
      P1  H  6896  6907       L1     9  1.00

> <Gold.PLP.Chemscore.Internal.Correction>
0.6797

> <Gold.Rescore>
     Score         DG    S(hbond)    S(metal)    S(lipo)     H(rot)  DE(clash)    DE(int)     intcor
     12.33     -14.27       1.00        0.00      86.25       1.81       0.29       1.65       ----

> <Gold.Chemscore.Fitness>
12.3290

> <Gold.Chemscore.DG>
-14.2685

> <Gold.Chemscore.ZeroCoef>
-5.4800

> <Gold.Chemscore.Hbond>
0.9975

> <Gold.Chemscore.Metal>
0.0000

> <Gold.Chemscore.Lipo>
86.2476

> <Gold.Chemscore.Internal_Hbond>
0.0000

> <Gold.Chemscore.DEClash>
0.2931

> <Gold.Chemscore.DEInternal>
1.6464

> <Gold.Chemscore.Rot>
1.8102

> <Gold.Chemscore.Internal.Correction>
   9.000000E+99

> <Gold.Chemscore.Hbonds>
donor molecule, donor type, donor heavy atom, donor atom, acceptor molecule, acceptor atom, score
      P1  H  6896  6907       L1     9  0.97

> <Gold.Chemscore.Hbond.Weighted>
-3.3316

> <Gold.Chemscore.Metal.Weighted>
-0.0000

> <Gold.Chemscore.Lipo.Weighted>
-10.0910

> <Gold.Chemscore.Internal_Hbond.Weighted>
0.0000

> <Gold.Chemscore.DEClash.Weighted>
0.2931

> <Gold.Chemscore.DEInternal.Weighted>
1.6464

> <Gold.Chemscore.Rot.Weighted>
4.6341

> <Gold.Chemscore.Internal.Correction.Weighted>
   9.000000E+99

> <Gold.Protein.RotatedTorsions>
[ 6907 6896 6895 6894 ] final  -17.80 input  -60.11 | X-H torsion
[ 7974 7965 7964 7962 ] final  -60.14 input  175.53 | X-H torsion
[ 8008 7997 7996 7995 ] final -159.55 input   59.86 | X-H torsion
[ 10167 10162 10161 10158 ] final  164.66 input  -65.29 | X-H torsion
[ 10718 10713 10712 10709 ] final  161.34 input   66.30 | X-H torsion
[ 10763 10752 10751 10750 ] final   -6.47 input  -60.55 | X-H torsion
[ 11005 11000 10999 10996 ] final  -38.84 input  -57.11 | X-H torsion

> <Gold.Protein.ActiveResidues>
 VAL166  LYS551  ARG553  GLY616  TRP617  ASP618  TYR619  PRO620  LYS621  CYS622 
 ASP623  PHE694  ASN695  SER759  ASP760  ASP761  ALA762  ILE779  LEU786  VAL792 
 PHE793  MET794  SER795  GLU796  ALA797  LYS798  CYS799  TRP800  GLU811  SER814 

> <Gold.Protein.RotatedAtoms>
  151.2879  135.0733  159.9193 H   0  0  0  0  0  0  0  0  0  0  0  0  # atno 6907 bound_to 6896
  152.5322  133.9962  159.7884 H   0  0  0  0  0  0  0  0  0  0  0  0  # atno 6908 bound_to 6896
  151.0227  133.5811  159.2700 H   0  0  0  0  0  0  0  0  0  0  0  0  # atno 6909 bound_to 6896
  145.8190  140.8552  143.0142 H   0  0  0  0  0  0  0  0  0  0  0  0  # atno 7974 bound_to 7965
  155.7642  140.0843  157.2140 H   0  0  0  0  0  0  0  0  0  0  0  0  # atno 8008 bound_to 7997
  154.4001  140.1537  156.2924 H   0  0  0  0  0  0  0  0  0  0  0  0  # atno 8009 bound_to 7997
  155.8810  140.3420  155.5890 H   0  0  0  0  0  0  0  0  0  0  0  0  # atno 8010 bound_to 7997
  139.4892  144.4212  151.9184 H   0  0  0  0  0  0  0  0  0  0  0  0  # atno 10167 bound_to 10162
  157.1379  131.0533  151.2340 H   0  0  0  0  0  0  0  0  0  0  0  0  # atno 10718 bound_to 10713
  153.4128  135.7008  153.6348 H   0  0  0  0  0  0  0  0  0  0  0  0  # atno 10763 bound_to 10752
  153.4835  135.3688  155.2455 H   0  0  0  0  0  0  0  0  0  0  0  0  # atno 10764 bound_to 10752
  154.8718  135.4071  154.3482 H   0  0  0  0  0  0  0  0  0  0  0  0  # atno 10765 bound_to 10752
  141.0057  133.6933  156.2106 H   0  0  0  0  0  0  0  0  0  0  0  0  # atno 11005 bound_to 11000
  144.6749  140.0506  143.7479 LP  0  0  0  0  0  0  0  0  0  0  0  0  # atno 17320 bound_to 7965
  145.9695  139.2859  143.1107 LP  0  0  0  0  0  0  0  0  0  0  0  0  # atno 17321 bound_to 7965
  140.3657  144.2918  150.5927 LP  0  0  0  0  0  0  0  0  0  0  0  0  # atno 17342 bound_to 10162
  140.5364  143.2232  151.8156 LP  0  0  0  0  0  0  0  0  0  0  0  0  # atno 17343 bound_to 10162
  157.4333  130.7503  149.7008 LP  0  0  0  0  0  0  0  0  0  0  0  0  # atno 17370 bound_to 10713
  155.9794  130.4040  150.3587 LP  0  0  0  0  0  0  0  0  0  0  0  0  # atno 17371 bound_to 10713
  140.6816  134.4761  157.5589 LP  0  0  0  0  0  0  0  0  0  0  0  0  # atno 17394 bound_to 11000
  139.9062  134.8444  156.1697 LP  0  0  0  0  0  0  0  0  0  0  0  0  # atno 17395 bound_to 11000

$$$$
