AV-unprocessed.smi:2172|AV-procd|sdf|8835|dock1
  -GOLD-   2272012 23D 1   1.00000     0.00000
 Structure written by MMmdl.
 36 38  0  0  0  0  0  0  0  0  1 V2000
  153.4021  139.5475  154.7544 O   0  0  0  0  0  0  0  0  0  0  0  0
  152.4317  139.2428  155.7330 C   0  0  0  0  0  0  0  0  0  0  0  0
  151.1136  139.9040  155.4667 C   0  0  0  0  0  0  0  0  0  0  0  0
  150.4866  139.7794  154.2966 N   0  0  0  0  0  0  0  0  0  0  0  0
  149.3359  140.5191  154.4878 C   0  0  0  0  0  0  0  0  0  0  0  0
  148.2542  140.7760  153.6152 C   0  0  0  0  0  0  0  0  0  0  0  0
  147.1706  141.5737  154.0373 C   0  0  0  0  0  0  0  0  0  0  0  0
  147.1525  142.1247  155.3352 C   0  0  0  0  0  0  0  0  0  0  0  0
  148.2202  141.8807  156.2205 C   0  0  0  0  0  0  0  0  0  0  0  0
  149.2997  141.0836  155.7944 C   0  0  0  0  0  0  0  0  0  0  0  0
  150.4794  140.6593  156.3987 N   0  0  0  0  0  0  0  0  0  0  0  0
  150.9161  140.9702  157.7533 C   0  0  0  0  0  0  0  0  0  0  0  0
  151.5789  142.3578  157.8672 C   0  0  1  0  0  0  0  0  0  0  0  0
  150.7132  143.3541  157.3577 O   0  0  0  0  0  0  0  0  0  0  0  0
  152.0126  142.6404  159.2974 C   0  0  0  0  0  0  0  0  0  0  0  0
  151.5093  143.7578  160.0004 C   0  0  0  0  0  0  0  0  0  0  0  0
  151.9099  143.9999  161.3289 C   0  0  0  0  0  0  0  0  0  0  0  0
  152.8119  143.1246  161.9640 C   0  0  0  0  0  0  0  0  0  0  0  0
  153.3009  143.4202  163.5920 Cl  0  0  0  0  0  0  0  0  0  0  0  0
  153.3126  142.0063  161.2699 C   0  0  0  0  0  0  0  0  0  0  0  0
  152.9134  141.7648  159.9410 C   0  0  0  0  0  0  0  0  0  0  0  0
  153.7659  138.7379  154.4302 H   0  0  0  0  0  0  0  0  0  0  0  0
  152.3026  138.1626  155.7903 H   0  0  0  0  0  0  0  0  0  0  0  0
  152.8058  139.5641  156.7058 H   0  0  0  0  0  0  0  0  0  0  0  0
  148.2583  140.3578  152.6196 H   0  0  0  0  0  0  0  0  0  0  0  0
  146.3495  141.7642  153.3620 H   0  0  0  0  0  0  0  0  0  0  0  0
  146.3190  142.7349  155.6507 H   0  0  0  0  0  0  0  0  0  0  0  0
  148.2115  142.3038  157.2141 H   0  0  0  0  0  0  0  0  0  0  0  0
  150.0544  140.9073  158.4190 H   0  0  0  0  0  0  0  0  0  0  0  0
  151.6062  140.1937  158.0843 H   0  0  0  0  0  0  0  0  0  0  0  0
  152.4689  142.3799  157.2381 H   0  0  0  0  0  0  0  0  0  0  0  0
  149.8214  143.0656  157.4774 H   0  0  0  0  0  0  0  0  0  0  0  0
  150.8115  144.4317  159.5254 H   0  0  0  0  0  0  0  0  0  0  0  0
  151.5224  144.8569  161.8602 H   0  0  0  0  0  0  0  0  0  0  0  0
  154.0016  141.3310  161.7558 H   0  0  0  0  0  0  0  0  0  0  0  0
  153.2994  140.9019  159.4181 H   0  0  0  0  0  0  0  0  0  0  0  0
  1  2  1  0  0  0  0
  1 22  1  0  0  0  0
  2  3  1  0  0  0  0
  2 23  1  0  0  0  0
  2 24  1  0  0  0  0
  3 11  1  0  0  0  0
  3  4  2  0  0  0  0
  4  5  1  0  0  0  0
  5 10  2  0  0  0  0
  5  6  1  0  0  0  0
  6  7  2  0  0  0  0
  6 25  1  0  0  0  0
  7  8  1  0  0  0  0
  7 26  1  0  0  0  0
  8  9  2  0  0  0  0
  8 27  1  0  0  0  0
  9 10  1  0  0  0  0
  9 28  1  0  0  0  0
 10 11  1  0  0  0  0
 11 12  1  0  0  0  0
 12 13  1  0  0  0  0
 12 29  1  0  0  0  0
 12 30  1  0  0  0  0
 13 14  1  0  0  0  0
 13 15  1  0  0  0  0
 13 31  1  0  0  0  0
 14 32  1  0  0  0  0
 15 21  1  0  0  0  0
 15 16  2  0  0  0  0
 16 17  1  0  0  0  0
 16 33  1  0  0  0  0
 17 18  2  0  0  0  0
 17 34  1  0  0  0  0
 18 19  1  0  0  0  0
 18 20  1  0  0  0  0
 20 21  2  0  0  0  0
 20 35  1  0  0  0  0
 21 36  1  0  0  0  0
M  END
> <s_m_source_file>
AV-unprocessed.smi

> <i_m_source_file_index>
2172

> <i_lp_mmshare_version>
43012

> <i_f3d_flags>
0

> <s_epik_input>
W2NIXTFbY0hdW2NIXVtjSF1jKGMxMiluKGMobjIpW0NIMl1bT0hdKVtDSDJdW0NASF0oW09IXSljM1tjSF1bY0hdYyhDbClbY0hdW2NIXTM=

> <s_epik_cmdline>
J2VwaWtfcHl0aG9uJywgJy1waCcsICc3LjAnLCAnLXRuJywgJzgnLCAnLW1hJywgJzIwMCcsICctbWV0YWxfYmluZGluZycsICctaW1hZScsICc8aW5maWxlLm1hZT4nLCAnLW9tYWUnLCAnPG91dGZpbGUubWFlPic=

> <r_epik_Ionization_Penalty>
0.0634726

> <r_epik_Ionization_Penalty_Charging>
0

> <r_epik_Ionization_Penalty_Neutral>
0.0634726

> <r_epik_State_Penalty>
0.0551572

> <r_epik_Charging_Adjusted_Penalty>
0.0551572

> <i_epik_Tot_Q>
0

> <i_epik_Tot_abs_Q>
0

> <r_epik_Metal_State_Penalty>
5.78034e-05

> <b_epik_Metal_Only>
0

> <s_lp_Force_Field>
OPLS_2005

> <r_lp_Energy>
11.6759

> <b_lp_Chiralities_Consistent>
1

> <s_lp_Variant>
AV-unprocessed.smi:2172-2

> <Gold.Version>
5.8.1

> <Gold.Id.Protein>
6NUR|6NUR_protein|mol2

> <Gold.PLP.Fitness>
55.8073

> <Gold.PLP.PLP>
-51.6461

> <Gold.PLP.part.hbond>
-4.0000

> <Gold.PLP.part.metal>
0.0000

> <Gold.PLP.part.buried>
-0.6605

> <Gold.PLP.part.nonpolar>
-45.5118

> <Gold.PLP.part.repulsive>
0.1360

> <Gold.PLP.ligand.clash>
0.0000

> <Gold.PLP.ligand.torsion>
0.3691

> <Gold.PLP.Chemscore.Hbond>
1.6000

> <Gold.PLP.Chemscore.CHOScore>
0.0000

> <Gold.PLP.Chemscore.Metal>
0.0000

> <Gold.Chemscore.Hbonds>
donor molecule, donor type, donor heavy atom, donor atom, acceptor molecule, acceptor atom, score
      P1  H  7989  7998       L1     4  0.65
      P1  H  7997  8008       L1     1  1.00

> <Gold.PLP.Chemscore.Internal.Correction>
0.0995

> <Gold.Rescore>
     Score         DG    S(hbond)    S(metal)    S(lipo)     H(rot)  DE(clash)    DE(int)     intcor
     14.42     -15.06       0.22        0.00     132.98       2.62       0.15       0.49       ----

> <Gold.Chemscore.Fitness>
14.4158

> <Gold.Chemscore.DG>
-15.0583

> <Gold.Chemscore.ZeroCoef>
-5.4800

> <Gold.Chemscore.Hbond>
0.2202

> <Gold.Chemscore.Metal>
0.0000

> <Gold.Chemscore.Lipo>
132.9763

> <Gold.Chemscore.Internal_Hbond>
0.0000

> <Gold.Chemscore.DEClash>
0.1544

> <Gold.Chemscore.DEInternal>
0.4882

> <Gold.Chemscore.Rot>
2.6232

> <Gold.Chemscore.Internal.Correction>
   9.000000E+99

> <Gold.Chemscore.Hbonds>
donor molecule, donor type, donor heavy atom, donor atom, acceptor molecule, acceptor atom, score
      P1  H  7989  7998       L1     4  0.03
      P1  H  7997  8008       L1     1  0.23

> <Gold.Chemscore.Hbond.Weighted>
-0.7356

> <Gold.Chemscore.Metal.Weighted>
-0.0000

> <Gold.Chemscore.Lipo.Weighted>
-15.5582

> <Gold.Chemscore.Internal_Hbond.Weighted>
0.0000

> <Gold.Chemscore.DEClash.Weighted>
0.1544

> <Gold.Chemscore.DEInternal.Weighted>
0.4882

> <Gold.Chemscore.Rot.Weighted>
6.7154

> <Gold.Chemscore.Internal.Correction.Weighted>
   9.000000E+99

> <Gold.Protein.RotatedTorsions>
[ 6907 6896 6895 6894 ] final   -7.78 input  -60.11 | X-H torsion
[ 7974 7965 7964 7962 ] final    4.86 input  175.53 | X-H torsion
[ 8008 7997 7996 7995 ] final    9.93 input   59.86 | X-H torsion
[ 10167 10162 10161 10158 ] final  151.49 input  -65.29 | X-H torsion
[ 10718 10713 10712 10709 ] final   13.81 input   66.30 | X-H torsion
[ 10763 10752 10751 10750 ] final   62.86 input  -60.55 | X-H torsion
[ 11005 11000 10999 10996 ] final  -45.13 input  -57.11 | X-H torsion

> <Gold.Protein.ActiveResidues>
 VAL166  LYS551  ARG553  GLY616  TRP617  ASP618  TYR619  PRO620  LYS621  CYS622 
 ASP623  PHE694  ASN695  SER759  ASP760  ASP761  ALA762  ILE779  LEU786  VAL792 
 PHE793  MET794  SER795  GLU796  ALA797  LYS798  CYS799  TRP800  GLU811  SER814 

> <Gold.Protein.RotatedAtoms>
  151.4441  135.1023  159.9678 H   0  0  0  0  0  0  0  0  0  0  0  0  # atno 6907 bound_to 6896
  152.4912  133.8501  159.7207 H   0  0  0  0  0  0  0  0  0  0  0  0  # atno 6908 bound_to 6896
  150.9067  133.6990  159.2892 H   0  0  0  0  0  0  0  0  0  0  0  0  # atno 6909 bound_to 6896
  146.2442  140.0470  142.8378 H   0  0  0  0  0  0  0  0  0  0  0  0  # atno 7974 bound_to 7965
  154.7866  140.2828  155.6023 H   0  0  0  0  0  0  0  0  0  0  0  0  # atno 8008 bound_to 7997
  156.2958  140.2613  156.2632 H   0  0  0  0  0  0  0  0  0  0  0  0  # atno 8009 bound_to 7997
  154.9720  140.0376  157.2228 H   0  0  0  0  0  0  0  0  0  0  0  0  # atno 8010 bound_to 7997
  139.4840  144.5437  151.7521 H   0  0  0  0  0  0  0  0  0  0  0  0  # atno 10167 bound_to 10162
  157.0300  130.6189  149.5734 H   0  0  0  0  0  0  0  0  0  0  0  0  # atno 10718 bound_to 10713
  152.9997  135.5450  154.6260 H   0  0  0  0  0  0  0  0  0  0  0  0  # atno 10763 bound_to 10752
  154.5548  135.2829  155.0977 H   0  0  0  0  0  0  0  0  0  0  0  0  # atno 10764 bound_to 10752
  154.2202  135.6452  153.5195 H   0  0  0  0  0  0  0  0  0  0  0  0  # atno 10765 bound_to 10752
  141.0496  133.6748  156.2970 H   0  0  0  0  0  0  0  0  0  0  0  0  # atno 11005 bound_to 11000
  145.1018  140.9350  143.4708 LP  0  0  0  0  0  0  0  0  0  0  0  0  # atno 17320 bound_to 7965
  145.0665  139.3065  143.5854 LP  0  0  0  0  0  0  0  0  0  0  0  0  # atno 17321 bound_to 7965
  140.4980  144.1211  150.5964 LP  0  0  0  0  0  0  0  0  0  0  0  0  # atno 17342 bound_to 10162
  140.4095  143.2664  151.9850 LP  0  0  0  0  0  0  0  0  0  0  0  0  # atno 17343 bound_to 10162
  156.0073  130.5161  150.7871 LP  0  0  0  0  0  0  0  0  0  0  0  0  # atno 17370 bound_to 10713
  157.5185  131.0930  151.0109 LP  0  0  0  0  0  0  0  0  0  0  0  0  # atno 17371 bound_to 10713
  140.6081  134.5486  157.5529 LP  0  0  0  0  0  0  0  0  0  0  0  0  # atno 17394 bound_to 11000
  139.9339  134.7911  156.0855 LP  0  0  0  0  0  0  0  0  0  0  0  0  # atno 17395 bound_to 11000

$$$$
