AV-unprocessed.smi:49|AV-procd|sdf|481|dock1
  -GOLD-   2262016343D 1   1.00000     0.00000
 Structure written by MMmdl.
 28 29  0  0  0  0  0  0  0  0  2 V2000
  151.8098  145.5954  160.2288 C   0  0  0  0  0  0  0  0  0  0  0  0
  151.9265  145.2848  158.7327 C   0  0  0  0  0  0  0  0  0  0  0  0
  151.7642  143.8304  158.4338 C   0  0  0  0  0  0  0  0  0  0  0  0
  150.7793  143.3719  157.6482 N   0  0  0  0  0  0  0  0  0  0  0  0
  150.9778  142.0455  157.6572 C   0  0  0  0  0  0  0  0  0  0  0  0
  150.0793  141.1147  156.8984 C   0  0  2  0  0  0  0  0  0  0  0  0
  150.7794  140.2584  155.8407 C   0  0  0  0  0  0  0  0  0  0  0  0
  149.6889  140.0930  154.7866 C   0  0  2  0  0  0  0  0  0  0  0  0
  150.2198  139.7785  153.5169 O   0  0  0  0  0  0  0  0  0  0  0  0
  148.9811  141.4529  154.7975 C   0  0  0  0  0  0  0  0  0  0  0  0
  149.1357  141.9860  156.1662 N   0  3  0  0  0  0  0  0  0  0  0  0
  152.0225  141.6814  158.4115 N   0  0  0  0  0  0  0  0  0  0  0  0
  152.5399  142.8586  158.9227 N   0  0  0  0  0  0  0  0  0  0  0  0
  149.5112  140.4860  157.5857 H   0  0  0  0  0  0  0  0  0  0  0  0
  148.9934  139.3110  155.0954 H   0  0  0  0  0  0  0  0  0  0  0  0
  150.0618  143.8996  157.1720 H   0  0  0  0  0  0  0  0  0  0  0  0
  151.9329  146.6624  160.4147 H   0  0  0  0  0  0  0  0  0  0  0  0
  152.5736  145.0677  160.8006 H   0  0  0  0  0  0  0  0  0  0  0  0
  150.8354  145.2992  160.6175 H   0  0  0  0  0  0  0  0  0  0  0  0
  151.1773  145.8494  158.1765 H   0  0  0  0  0  0  0  0  0  0  0  0
  152.8991  145.6108  158.3622 H   0  0  0  0  0  0  0  0  0  0  0  0
  151.6200  140.8070  155.4113 H   0  0  0  0  0  0  0  0  0  0  0  0
  151.1595  139.3151  156.2340 H   0  0  0  0  0  0  0  0  0  0  0  0
  149.6468  140.1295  152.8517 H   0  0  0  0  0  0  0  0  0  0  0  0
  149.4705  142.1482  154.1137 H   0  0  0  0  0  0  0  0  0  0  0  0
  147.9319  141.3802  154.5094 H   0  0  0  0  0  0  0  0  0  0  0  0
  148.2468  142.0077  156.6451 H   0  0  0  0  0  0  0  0  0  0  0  0
  149.5175  142.9201  156.1120 H   0  0  0  0  0  0  0  0  0  0  0  0
  1  2  1  0  0  0  0
  1 17  1  0  0  0  0
  1 18  1  0  0  0  0
  1 19  1  0  0  0  0
  2 20  1  0  0  0  0
  2 21  1  0  0  0  0
  2  3  1  0  0  0  0
  3  4  1  0  0  0  0
  3 13  2  0  0  0  0
  4 16  1  0  0  0  0
  4  5  1  0  0  0  0
  5 12  2  0  0  0  0
  5  6  1  0  0  0  0
  6 14  1  0  0  0  0
  6 11  1  0  0  0  0
  6  7  1  0  0  0  0
  7  8  1  0  0  0  0
  7 22  1  0  0  0  0
  7 23  1  0  0  0  0
  8 15  1  0  0  0  0
  8  9  1  0  0  0  0
  8 10  1  0  0  0  0
  9 24  1  0  0  0  0
 10 11  1  0  0  0  0
 10 25  1  0  0  0  0
 10 26  1  0  0  0  0
 11 27  1  0  0  0  0
 11 28  1  0  0  0  0
 12 13  1  0  0  0  0
M  CHG  1  11   1
M  END
> <s_m_source_file>
AV-unprocessed.smi

> <i_m_source_file_index>
49

> <i_lp_mmshare_version>
43012

> <i_f3d_flags>
0

> <s_epik_input>
W0NIM11bQ0gyXWMxbmMobltuSF0xKVtDQEBIXTJbQ0gyXVtDQEBIXShbT0hdKVtDSDJdW05IXTI=

> <s_epik_cmdline>
J2VwaWtfcHl0aG9uJywgJy1waCcsICc3LjAnLCAnLXRuJywgJzgnLCAnLW1hJywgJzIwMCcsICctbWV0YWxfYmluZGluZycsICctaW1hZScsICc8aW5maWxlLm1hZT4nLCAnLW9tYWUnLCAnPG91dGZpbGUubWFlPic=

> <r_lp_tautomer_probability>
0.0517155

> <r_epik_Ionization_Penalty>
0.939819

> <r_epik_Ionization_Penalty_Charging>
0.0688988

> <r_epik_Ionization_Penalty_Neutral>
0.87092

> <r_epik_State_Penalty>
2.1224

> <r_epik_Charging_Adjusted_Penalty>
2.1913

> <i_epik_Tot_Q>
1

> <i_epik_Tot_abs_Q>
1

> <r_epik_Metal_State_Penalty>
2.39725

> <b_epik_Metal_Only>
0

> <s_lp_Force_Field>
OPLS_2005

> <r_lp_Energy>
21.0752

> <b_lp_Chiralities_Consistent>
1

> <s_lp_Variant>
AV-unprocessed.smi:49-19

> <Gold.Version>
5.8.1

> <Gold.Id.Protein>
6NUR|6NUR_protein|mol2

> <Gold.PLP.Fitness>
41.0844

> <Gold.PLP.PLP>
-29.1247

> <Gold.PLP.part.hbond>
-3.8128

> <Gold.PLP.part.metal>
0.0000

> <Gold.PLP.part.buried>
-4.2075

> <Gold.PLP.part.nonpolar>
-21.4021

> <Gold.PLP.part.repulsive>
0.0733

> <Gold.PLP.ligand.clash>
0.0000

> <Gold.PLP.ligand.torsion>
0.0146

> <Gold.PLP.Chemscore.Hbond>
3.9920

> <Gold.PLP.Chemscore.CHOScore>
0.0000

> <Gold.PLP.Chemscore.Metal>
0.0000

> <Gold.Chemscore.Hbonds>
donor molecule, donor type, donor heavy atom, donor atom, acceptor molecule, acceptor atom, score
      L1  H     4    16       P1  8028  0.91
      L1  H     9    24       P1  7957  0.67
      L1  H    11    28       P1  8028  1.50
      P1  H  7989  7998       L1     9  0.77

> <Gold.PLP.Chemscore.Internal.Correction>
0.0131

> <Gold.Rescore>
     Score         DG    S(hbond)    S(metal)    S(lipo)     H(rot)  DE(clash)    DE(int)     intcor
     14.99     -15.09       2.60        0.00      49.32       1.89       0.09       0.01       ----

> <Gold.Chemscore.Fitness>
14.9885

> <Gold.Chemscore.DG>
-15.0909

> <Gold.Chemscore.ZeroCoef>
-5.4800

> <Gold.Chemscore.Hbond>
2.5972

> <Gold.Chemscore.Metal>
0.0000

> <Gold.Chemscore.Lipo>
49.3175

> <Gold.Chemscore.Internal_Hbond>
0.0000

> <Gold.Chemscore.DEClash>
0.0934

> <Gold.Chemscore.DEInternal>
0.0091

> <Gold.Chemscore.Rot>
1.8883

> <Gold.Chemscore.Internal.Correction>
   9.000000E+99

> <Gold.Chemscore.Hbonds>
donor molecule, donor type, donor heavy atom, donor atom, acceptor molecule, acceptor atom, score
      L1  H     4    16       P1  8028  0.80
      L1  H     9    24       P1  7957  0.68
      L1  H    11    28       P1  8028  0.75
      P1  H  7989  7998       L1     9  0.09

> <Gold.Chemscore.Hbond.Weighted>
-8.6747

> <Gold.Chemscore.Metal.Weighted>
-0.0000

> <Gold.Chemscore.Lipo.Weighted>
-5.7701

> <Gold.Chemscore.Internal_Hbond.Weighted>
0.0000

> <Gold.Chemscore.DEClash.Weighted>
0.0934

> <Gold.Chemscore.DEInternal.Weighted>
0.0091

> <Gold.Chemscore.Rot.Weighted>
4.8340

> <Gold.Chemscore.Internal.Correction.Weighted>
   9.000000E+99

> <Gold.Protein.RotatedTorsions>
[ 6907 6896 6895 6894 ] final  141.15 input  -60.11 | X-H torsion
[ 7974 7965 7964 7962 ] final  177.81 input  175.53 | X-H torsion
[ 8008 7997 7996 7995 ] final -127.94 input   59.86 | X-H torsion
[ 10167 10162 10161 10158 ] final  169.45 input  -65.29 | X-H torsion
[ 10718 10713 10712 10709 ] final   61.56 input   66.30 | X-H torsion
[ 10763 10752 10751 10750 ] final -133.12 input  -60.55 | X-H torsion
[ 11005 11000 10999 10996 ] final  -22.37 input  -57.11 | X-H torsion

> <Gold.Protein.ActiveResidues>
 VAL166  LYS551  ARG553  GLY616  TRP617  ASP618  TYR619  PRO620  LYS621  CYS622 
 ASP623  PHE694  ASN695  SER759  ASP760  ASP761  ALA762  ILE779  LEU786  VAL792 
 PHE793  MET794  SER795  GLU796  ALA797  LYS798  CYS799  TRP800  GLU811  SER814 

> <Gold.Protein.RotatedAtoms>
  152.2345  133.5085  159.5234 H   0  0  0  0  0  0  0  0  0  0  0  0  # atno 6907 bound_to 6896
  150.7046  134.1172  159.4030 H   0  0  0  0  0  0  0  0  0  0  0  0  # atno 6908 bound_to 6896
  151.9093  135.0345  160.0564 H   0  0  0  0  0  0  0  0  0  0  0  0  # atno 6909 bound_to 6896
  144.7164  140.0303  143.6439 H   0  0  0  0  0  0  0  0  0  0  0  0  # atno 7974 bound_to 7965
  155.2545  140.0433  157.2990 H   0  0  0  0  0  0  0  0  0  0  0  0  # atno 8008 bound_to 7997
  154.5748  140.2384  155.8107 H   0  0  0  0  0  0  0  0  0  0  0  0  # atno 8009 bound_to 7997
  156.2150  140.2987  155.9827 H   0  0  0  0  0  0  0  0  0  0  0  0  # atno 8010 bound_to 7997
  139.4993  144.3704  151.9730 H   0  0  0  0  0  0  0  0  0  0  0  0  # atno 10167 bound_to 10162
  157.5837  130.9002  149.9477 H   0  0  0  0  0  0  0  0  0  0  0  0  # atno 10718 bound_to 10713
  154.8736  135.3776  154.4520 H   0  0  0  0  0  0  0  0  0  0  0  0  # atno 10763 bound_to 10752
  153.5196  135.7029  153.5743 H   0  0  0  0  0  0  0  0  0  0  0  0  # atno 10764 bound_to 10752
  153.3996  135.3951  155.1944 H   0  0  0  0  0  0  0  0  0  0  0  0  # atno 10765 bound_to 10752
  140.8651  133.7760  156.0120 H   0  0  0  0  0  0  0  0  0  0  0  0  # atno 11005 bound_to 11000
  146.0108  139.3168  143.0872 LP  0  0  0  0  0  0  0  0  0  0  0  0  # atno 17320 bound_to 7965
  145.8684  140.9434  143.0663 LP  0  0  0  0  0  0  0  0  0  0  0  0  # atno 17321 bound_to 7965
  140.3140  144.3505  150.6026 LP  0  0  0  0  0  0  0  0  0  0  0  0  # atno 17342 bound_to 10162
  140.5776  143.2175  151.7487 LP  0  0  0  0  0  0  0  0  0  0  0  0  # atno 17343 bound_to 10162
  156.0885  130.3665  150.0441 LP  0  0  0  0  0  0  0  0  0  0  0  0  # atno 17370 bound_to 10713
  156.8576  130.9480  151.3620 LP  0  0  0  0  0  0  0  0  0  0  0  0  # atno 17371 bound_to 10713
  140.8638  134.2808  157.5222 LP  0  0  0  0  0  0  0  0  0  0  0  0  # atno 17394 bound_to 11000
  139.8709  134.9532  156.4138 LP  0  0  0  0  0  0  0  0  0  0  0  0  # atno 17395 bound_to 11000

$$$$
