AV-unprocessed.smi:1978|AV-procd|sdf|8002|dock4
  -GOLD-   2272010183D 1   1.00000     0.00000
 Structure written by MMmdl.
 44 45  0  0  0  0  0  0  0  0  3 V2000
  153.0138  143.4052  160.1674 C   0  0  0  0  0  0  0  0  0  0  0  0
  152.3038  142.8417  158.9844 C   0  0  0  0  0  0  0  0  0  0  0  0
  152.1030  143.3057  157.7154 C   0  0  0  0  0  0  0  0  0  0  0  0
  151.3404  142.2709  157.1081 C   0  0  0  0  0  0  0  0  0  0  0  0
  150.8988  142.2559  155.8409 N   0  5  0  0  0  0  0  0  0  0  0  0
  150.3542  141.1316  155.3239 C   0  0  0  0  0  0  0  0  0  0  0  0
  150.9519  140.2405  154.7160 O   0  0  0  0  0  0  0  0  0  0  0  0
  149.0313  141.0345  155.5182 N   0  0  0  0  0  0  0  0  0  0  0  0
  148.1835  139.9437  155.0493 C   0  0  0  0  0  0  0  0  0  0  0  0
  147.0304  140.4460  154.1436 C   0  0  2  0  0  0  0  0  0  0  0  0
  146.4645  141.8045  154.6067 C   0  0  0  0  0  0  0  0  0  0  0  0
  145.9446  139.4298  153.9609 N   0  3  2  0  0  0  0  0  0  0  0  0
  145.4647  138.8242  155.2378 C   0  0  0  0  0  0  0  0  0  0  0  0
  144.1812  138.0088  155.0244 C   0  0  0  0  0  0  0  0  0  0  0  0
  144.4052  136.9144  153.9784 C   0  0  0  0  0  0  0  0  0  0  0  0
  144.9288  137.5405  152.6818 C   0  0  0  0  0  0  0  0  0  0  0  0
  146.2041  138.3778  152.9213 C   0  0  1  0  0  0  0  0  0  0  0  0
  146.6947  138.9433  151.5728 C   0  0  0  0  0  0  0  0  0  0  0  0
  151.1134  141.2606  157.9306 N   0  0  0  0  0  0  0  0  0  0  0  0
  151.7228  141.6215  159.1381 O   0  0  0  0  0  0  0  0  0  0  0  0
  154.0934  143.3184  160.0456 H   0  0  0  0  0  0  0  0  0  0  0  0
  152.7326  142.8810  161.0811 H   0  0  0  0  0  0  0  0  0  0  0  0
  152.7712  144.4601  160.2962 H   0  0  0  0  0  0  0  0  0  0  0  0
  152.4438  144.2375  157.2895 H   0  0  0  0  0  0  0  0  0  0  0  0
  148.5803  141.7838  156.0227 H   0  0  0  0  0  0  0  0  0  0  0  0
  148.8041  139.2105  154.5329 H   0  0  0  0  0  0  0  0  0  0  0  0
  147.7867  139.4437  155.9324 H   0  0  0  0  0  0  0  0  0  0  0  0
  147.4410  140.6634  153.1599 H   0  0  0  0  0  0  0  0  0  0  0  0
  147.2072  142.5949  154.4939 H   0  0  0  0  0  0  0  0  0  0  0  0
  146.1706  141.7952  155.6559 H   0  0  0  0  0  0  0  0  0  0  0  0
  145.5971  142.0941  154.0131 H   0  0  0  0  0  0  0  0  0  0  0  0
  146.2388  138.1816  155.6590 H   0  0  0  0  0  0  0  0  0  0  0  0
  145.2545  139.5912  155.9810 H   0  0  0  0  0  0  0  0  0  0  0  0
  143.8616  137.5626  155.9667 H   0  0  0  0  0  0  0  0  0  0  0  0
  143.3740  138.6687  154.7035 H   0  0  0  0  0  0  0  0  0  0  0  0
  145.1227  136.1831  154.3531 H   0  0  0  0  0  0  0  0  0  0  0  0
  143.4763  136.3754  153.7899 H   0  0  0  0  0  0  0  0  0  0  0  0
  145.1292  136.7496  151.9579 H   0  0  0  0  0  0  0  0  0  0  0  0
  144.1523  138.1686  152.2424 H   0  0  0  0  0  0  0  0  0  0  0  0
  146.9753  137.7056  153.2996 H   0  0  0  0  0  0  0  0  0  0  0  0
  146.7318  138.1620  150.8132 H   0  0  0  0  0  0  0  0  0  0  0  0
  147.7046  139.3473  151.6401 H   0  0  0  0  0  0  0  0  0  0  0  0
  146.0341  139.7287  151.2042 H   0  0  0  0  0  0  0  0  0  0  0  0
  145.1630  139.9599  153.6034 H   0  0  0  0  0  0  0  0  0  0  0  0
  1  2  1  0  0  0  0
  1 21  1  0  0  0  0
  1 22  1  0  0  0  0
  1 23  1  0  0  0  0
  2 20  1  0  0  0  0
  2  3  2  0  0  0  0
  3  4  1  0  0  0  0
  3 24  1  0  0  0  0
  4  5  1  0  0  0  0
  4 19  2  0  0  0  0
  5  6  1  0  0  0  0
  6  7  2  0  0  0  0
  6  8  1  0  0  0  0
  8  9  1  0  0  0  0
  8 25  1  0  0  0  0
  9 10  1  0  0  0  0
  9 26  1  0  0  0  0
  9 27  1  0  0  0  0
 10 11  1  0  0  0  0
 10 12  1  0  0  0  0
 10 28  1  0  0  0  0
 11 29  1  0  0  0  0
 11 30  1  0  0  0  0
 11 31  1  0  0  0  0
 12 17  1  0  0  0  0
 12 13  1  0  0  0  0
 12 44  1  0  0  0  0
 13 14  1  0  0  0  0
 13 32  1  0  0  0  0
 13 33  1  0  0  0  0
 14 15  1  0  0  0  0
 14 34  1  0  0  0  0
 14 35  1  0  0  0  0
 15 16  1  0  0  0  0
 15 36  1  0  0  0  0
 15 37  1  0  0  0  0
 16 17  1  0  0  0  0
 16 38  1  0  0  0  0
 16 39  1  0  0  0  0
 17 18  1  0  0  0  0
 17 40  1  0  0  0  0
 18 41  1  0  0  0  0
 18 42  1  0  0  0  0
 18 43  1  0  0  0  0
 19 20  1  0  0  0  0
M  CHG  1   5  -1
M  CHG  1  12   1
M  END
> <s_m_source_file>
AV-unprocessed.smi

> <i_m_source_file_index>
1978

> <i_lp_mmshare_version>
43012

> <i_f3d_flags>
0

> <s_epik_input>
W0NIM11jMVtjSF1jKG5vMSlbTkhdQyg9TylbTkhdW0NIMl1bQ0BIXShbQ0gzXSlOMltDSDJdW0NIMl1bQ0gyXVtDSDJdW0NASF0yW0NIM10=

> <s_epik_cmdline>
J2VwaWtfcHl0aG9uJywgJy1waCcsICc3LjAnLCAnLXRuJywgJzgnLCAnLW1hJywgJzIwMCcsICctbWV0YWxfYmluZGluZycsICctaW1hZScsICc8aW5maWxlLm1hZT4nLCAnLW9tYWUnLCAnPG91dGZpbGUubWFlPic=

> <r_epik_Ionization_Penalty>
6.22372

> <r_epik_Ionization_Penalty_Charging>
6.22362

> <r_epik_Ionization_Penalty_Neutral>
9.65074e-05

> <r_epik_State_Penalty>
6.22363

> <r_epik_Charging_Adjusted_Penalty>
12.4472

> <i_epik_Tot_Q>
0

> <i_epik_Tot_abs_Q>
2

> <r_epik_Metal_State_Penalty>
2.16675

> <b_epik_Metal_Only>
1

> <s_lp_Force_Field>
OPLS_2005

> <r_lp_Energy>
9.77909

> <b_lp_Chiralities_Consistent>
1

> <s_lp_Variant>
AV-unprocessed.smi:1978-11

> <Gold.Version>
5.8.1

> <Gold.Id.Protein>
6NUR|6NUR_protein|mol2

> <Gold.PLP.Fitness>
37.2596

> <Gold.PLP.PLP>
-30.7571

> <Gold.PLP.part.hbond>
-2.7118

> <Gold.PLP.part.metal>
0.0000

> <Gold.PLP.part.buried>
-3.1364

> <Gold.PLP.part.nonpolar>
-25.9214

> <Gold.PLP.part.repulsive>
0.6349

> <Gold.PLP.ligand.clash>
0.0000

> <Gold.PLP.ligand.torsion>
1.3623

> <Gold.PLP.Chemscore.Hbond>
3.0000

> <Gold.PLP.Chemscore.CHOScore>
0.0000

> <Gold.PLP.Chemscore.Metal>
0.0000

> <Gold.Chemscore.Hbonds>
donor molecule, donor type, donor heavy atom, donor atom, acceptor molecule, acceptor atom, score
      L1  H    12    44       P1 10175  2.00
      P1  H  7989  7998       L1     7  0.99

> <Gold.PLP.Chemscore.Internal.Correction>
0.2271

> <Gold.Rescore>
     Score         DG    S(hbond)    S(metal)    S(lipo)     H(rot)  DE(clash)    DE(int)     intcor
     14.30     -16.98       1.93        0.00      76.42       1.52       1.42       1.26       ----

> <Gold.Chemscore.Fitness>
14.3043

> <Gold.Chemscore.DG>
-16.9845

> <Gold.Chemscore.ZeroCoef>
-5.4800

> <Gold.Chemscore.Hbond>
1.9316

> <Gold.Chemscore.Metal>
0.0000

> <Gold.Chemscore.Lipo>
76.4235

> <Gold.Chemscore.Internal_Hbond>
0.0000

> <Gold.Chemscore.DEClash>
1.4166

> <Gold.Chemscore.DEInternal>
1.2635

> <Gold.Chemscore.Rot>
1.5190

> <Gold.Chemscore.Internal.Correction>
   9.000000E+99

> <Gold.Chemscore.Hbonds>
donor molecule, donor type, donor heavy atom, donor atom, acceptor molecule, acceptor atom, score
      L1  H    12    44       P1 10175  0.99
      P1  H  7989  7998       L1     7  0.61

> <Gold.Chemscore.Hbond.Weighted>
-6.4516

> <Gold.Chemscore.Metal.Weighted>
-0.0000

> <Gold.Chemscore.Lipo.Weighted>
-8.9415

> <Gold.Chemscore.Internal_Hbond.Weighted>
0.0000

> <Gold.Chemscore.DEClash.Weighted>
1.4166

> <Gold.Chemscore.DEInternal.Weighted>
1.2635

> <Gold.Chemscore.Rot.Weighted>
3.8886

> <Gold.Chemscore.Internal.Correction.Weighted>
   9.000000E+99

> <Gold.Protein.RotatedTorsions>
[ 6907 6896 6895 6894 ] final  157.01 input  -60.11 | X-H torsion
[ 7974 7965 7964 7962 ] final -106.65 input  175.53 | X-H torsion
[ 8008 7997 7996 7995 ] final   36.70 input   59.86 | X-H torsion
[ 10167 10162 10161 10158 ] final  -10.80 input  -65.29 | X-H torsion
[ 10718 10713 10712 10709 ] final -138.79 input   66.30 | X-H torsion
[ 10763 10752 10751 10750 ] final  -96.47 input  -60.55 | X-H torsion
[ 11005 11000 10999 10996 ] final    1.14 input  -57.11 | X-H torsion

> <Gold.Protein.ActiveResidues>
 VAL166  LYS551  ARG553  GLY616  TRP617  ASP618  TYR619  PRO620  LYS621  CYS622 
 ASP623  PHE694  ASN695  SER759  ASP760  ASP761  ALA762  ILE779  LEU786  VAL792 
 PHE793  MET794  SER795  GLU796  ALA797  LYS798  CYS799  TRP800  GLU811  SER814 

> <Gold.Protein.RotatedAtoms>
  152.0214  133.3900  159.4259 H   0  0  0  0  0  0  0  0  0  0  0  0  # atno 6907 bound_to 6896
  150.6890  134.3622  159.4964 H   0  0  0  0  0  0  0  0  0  0  0  0  # atno 6908 bound_to 6896
  152.1396  134.9072  160.0605 H   0  0  0  0  0  0  0  0  0  0  0  0  # atno 6909 bound_to 6896
  145.2152  140.9112  143.3291 H   0  0  0  0  0  0  0  0  0  0  0  0  # atno 7974 bound_to 7965
  155.1917  140.3308  155.4357 H   0  0  0  0  0  0  0  0  0  0  0  0  # atno 8008 bound_to 7997
  156.2440  140.1909  156.6959 H   0  0  0  0  0  0  0  0  0  0  0  0  # atno 8009 bound_to 7997
  154.6201  140.0596  156.9590 H   0  0  0  0  0  0  0  0  0  0  0  0  # atno 8010 bound_to 7997
  140.7123  143.5708  150.9094 H   0  0  0  0  0  0  0  0  0  0  0  0  # atno 10167 bound_to 10162
  156.3033  130.7441  151.1498 H   0  0  0  0  0  0  0  0  0  0  0  0  # atno 10718 bound_to 10713
  154.7242  135.5082  153.8859 H   0  0  0  0  0  0  0  0  0  0  0  0  # atno 10763 bound_to 10752
  153.0889  135.6653  153.9901 H   0  0  0  0  0  0  0  0  0  0  0  0  # atno 10764 bound_to 10752
  153.9717  135.3037  155.3406 H   0  0  0  0  0  0  0  0  0  0  0  0  # atno 10765 bound_to 10752
  140.6187  133.9681  155.8214 H   0  0  0  0  0  0  0  0  0  0  0  0  # atno 11005 bound_to 11000
  144.9818  139.3776  143.6258 LP  0  0  0  0  0  0  0  0  0  0  0  0  # atno 17320 bound_to 7965
  146.3388  139.8962  142.8801 LP  0  0  0  0  0  0  0  0  0  0  0  0  # atno 17321 bound_to 7965
  139.9434  143.6355  152.3048 LP  0  0  0  0  0  0  0  0  0  0  0  0  # atno 17342 bound_to 10162
  139.6848  144.7652  151.1543 LP  0  0  0  0  0  0  0  0  0  0  0  0  # atno 17343 bound_to 10162
  157.7373  131.0553  150.5361 LP  0  0  0  0  0  0  0  0  0  0  0  0  # atno 17370 bound_to 10713
  156.5492  130.4227  149.6116 LP  0  0  0  0  0  0  0  0  0  0  0  0  # atno 17371 bound_to 10713
  141.0757  134.0138  157.3461 LP  0  0  0  0  0  0  0  0  0  0  0  0  # atno 17394 bound_to 11000
  139.9162  135.0197  156.7890 LP  0  0  0  0  0  0  0  0  0  0  0  0  # atno 17395 bound_to 11000

$$$$
