AV-unprocessed.smi:160|AV-procd|sdf|1365|dock9
  -GOLD-   2262019 83D 1   1.00000     0.00000
 Structure written by MMmdl.
 28 29  0  0  0  0  0  0  0  0  2 V2000
  151.6101  136.9609  154.7127 N   0  5  0  0  0  0  0  0  0  0  0  0
  151.9745  138.2052  155.0921 C   0  0  0  0  0  0  0  0  0  0  0  0
  153.0593  138.5308  155.5731 O   0  0  0  0  0  0  0  0  0  0  0  0
  150.9144  139.2599  154.8818 C   0  0  0  0  0  0  0  0  0  0  0  0
  151.1231  140.5489  155.2876 N   0  0  0  0  0  0  0  0  0  0  0  0
  149.9689  141.0799  154.9075 C   0  0  0  0  0  0  0  0  0  0  0  0
  149.1363  140.2213  154.3114 N   0  0  0  0  0  0  0  0  0  0  0  0
  147.7443  140.4545  153.7973 C   0  0  2  0  0  0  0  0  0  0  0  0
  146.8979  140.6048  154.8915 O   0  0  0  0  0  0  0  0  0  0  0  0
  146.4222  139.3286  155.2982 C   0  0  1  0  0  0  0  0  0  0  0  0
  145.1224  139.4897  156.1009 C   0  0  0  0  0  0  0  0  0  0  0  0
  144.6035  138.2237  156.4491 O   0  0  0  0  0  0  0  0  0  0  0  0
  146.2265  138.5891  153.9635 C   0  0  2  0  0  0  0  0  0  0  0  0
  146.5431  137.2206  154.1215 O   0  0  0  0  0  0  0  0  0  0  0  0
  147.2052  139.2585  152.9920 C   0  0  1  0  0  0  0  0  0  0  0  0
  146.5321  139.6923  151.8269 O   0  0  0  0  0  0  0  0  0  0  0  0
  149.7373  139.0043  154.3027 N   0  0  0  0  0  0  0  0  0  0  0  0
  147.8264  141.3788  153.2237 H   0  0  0  0  0  0  0  0  0  0  0  0
  147.1855  138.8318  155.9001 H   0  0  0  0  0  0  0  0  0  0  0  0
  145.1978  138.6922  153.6132 H   0  0  0  0  0  0  0  0  0  0  0  0
  148.0186  138.6021  152.6792 H   0  0  0  0  0  0  0  0  0  0  0  0
  151.2233  136.8309  153.7702 H   0  0  0  0  0  0  0  0  0  0  0  0
  149.7232  142.1190  155.0698 H   0  0  0  0  0  0  0  0  0  0  0  0
  145.2793  140.0962  156.9935 H   0  0  0  0  0  0  0  0  0  0  0  0
  144.3699  139.9939  155.4940 H   0  0  0  0  0  0  0  0  0  0  0  0
  143.6709  138.2286  156.2986 H   0  0  0  0  0  0  0  0  0  0  0  0
  147.3757  137.0552  153.7065 H   0  0  0  0  0  0  0  0  0  0  0  0
  145.6385  139.8961  152.0572 H   0  0  0  0  0  0  0  0  0  0  0  0
  1  2  1  0  0  0  0
  1 22  1  0  0  0  0
  2  3  2  0  0  0  0
  2  4  1  0  0  0  0
  4 17  2  0  0  0  0
  4  5  1  0  0  0  0
  5  6  2  0  0  0  0
  6  7  1  0  0  0  0
  6 23  1  0  0  0  0
  7  8  1  0  0  0  0
  7 17  1  0  0  0  0
  8 18  1  0  0  0  0
  8 15  1  0  0  0  0
  8  9  1  0  0  0  0
  9 10  1  0  0  0  0
 10 19  1  0  0  0  0
 10 11  1  0  0  0  0
 10 13  1  0  0  0  0
 11 12  1  0  0  0  0
 11 24  1  0  0  0  0
 11 25  1  0  0  0  0
 12 26  1  0  0  0  0
 13 20  1  0  0  0  0
 13 14  1  0  0  0  0
 13 15  1  0  0  0  0
 14 27  1  0  0  0  0
 15 21  1  0  0  0  0
 15 16  1  0  0  0  0
 16 28  1  0  0  0  0
M  CHG  1   1  -1
M  END
> <s_m_source_file>
AV-unprocessed.smi

> <i_m_source_file_index>
160

> <i_lp_mmshare_version>
43012

> <i_f3d_flags>
0

> <s_epik_input>
W05IMl1DKD1PKWMxbltjSF1uKG4xKVtDQEBIXTJPW0NASF0oW0NIMl1bT0hdKVtDQEBIXShbT0hdKVtDQEhdMltPSF0=

> <s_epik_cmdline>
J2VwaWtfcHl0aG9uJywgJy1waCcsICc3LjAnLCAnLXRuJywgJzgnLCAnLW1hJywgJzIwMCcsICctbWV0YWxfYmluZGluZycsICctaW1hZScsICc8aW5maWxlLm1hZT4nLCAnLW9tYWUnLCAnPG91dGZpbGUubWFlPic=

> <r_lp_tautomer_probability>
1

> <r_epik_Ionization_Penalty>
6.6993

> <r_epik_Ionization_Penalty_Charging>
6.6993

> <r_epik_Ionization_Penalty_Neutral>
6.01698e-06

> <r_epik_State_Penalty>
6.69929

> <r_epik_Charging_Adjusted_Penalty>
13.3986

> <i_epik_Tot_Q>
-1

> <i_epik_Tot_abs_Q>
1

> <r_epik_Metal_State_Penalty>
2.62798

> <b_epik_Metal_Only>
1

> <s_epik_Chemistry_Notes>
This compound contains an acetal/aminal-like group ( X-CH(R)-Y where X, Y are N, S, or O) that may be acid/base labile, releasing an aldehyde.

> <s_lp_Force_Field>
OPLS_2005

> <r_lp_Energy>
36.7288

> <b_lp_Chiralities_Consistent>
1

> <s_lp_Variant>
AV-unprocessed.smi:160-23

> <Gold.Version>
5.8.1

> <Gold.Id.Protein>
6NUR|6NUR_protein|mol2

> <Gold.PLP.Fitness>
43.2240

> <Gold.PLP.PLP>
-25.6536

> <Gold.PLP.part.hbond>
-6.6329

> <Gold.PLP.part.metal>
0.0000

> <Gold.PLP.part.buried>
-1.6579

> <Gold.PLP.part.nonpolar>
-17.1220

> <Gold.PLP.part.repulsive>
0.5478

> <Gold.PLP.ligand.clash>
0.0000

> <Gold.PLP.ligand.torsion>
0.2670

> <Gold.PLP.Chemscore.Hbond>
5.7086

> <Gold.PLP.Chemscore.CHOScore>
0.3151

> <Gold.PLP.Chemscore.Metal>
0.0000

> <Gold.Chemscore.Hbonds>
donor molecule, donor type, donor heavy atom, donor atom, acceptor molecule, acceptor atom, score
      L1  H    16    28       P1 10175  0.91
      P1  H  7989  7998       L1     5  0.06
      P1  H  7997  8010       L1     3  0.71
      P1  H 10752 10765       L1     1  0.70
      L1  C     6    23       P1  8028  0.35

> <Gold.PLP.Chemscore.Internal.Correction>
0.0333

> <Gold.Rescore>
     Score         DG    S(hbond)    S(metal)    S(lipo)     H(rot)  DE(clash)    DE(int)     intcor
      9.61     -10.09       4.13        0.00       9.97       4.04       0.09       0.39       ----

> <Gold.Chemscore.Fitness>
9.6084

> <Gold.Chemscore.DG>
-10.0931

> <Gold.Chemscore.ZeroCoef>
-5.4800

> <Gold.Chemscore.Hbond>
4.1288

> <Gold.Chemscore.Metal>
0.0000

> <Gold.Chemscore.Lipo>
9.9651

> <Gold.Chemscore.Internal_Hbond>
0.0000

> <Gold.Chemscore.DEClash>
0.0912

> <Gold.Chemscore.DEInternal>
0.3934

> <Gold.Chemscore.Rot>
4.0403

> <Gold.Chemscore.Internal.Correction>
   9.000000E+99

> <Gold.Chemscore.Hbonds>
donor molecule, donor type, donor heavy atom, donor atom, acceptor molecule, acceptor atom, score
      L1  H     1    22       P1  7949  0.04
      L1  H    16    28       P1 10175  0.65
      P1  H  7997  8010       L1     3  0.68
      P1  H 10752 10765       L1     1  0.01

> <Gold.Chemscore.Hbond.Weighted>
-13.7902

> <Gold.Chemscore.Metal.Weighted>
-0.0000

> <Gold.Chemscore.Lipo.Weighted>
-1.1659

> <Gold.Chemscore.Internal_Hbond.Weighted>
0.0000

> <Gold.Chemscore.DEClash.Weighted>
0.0912

> <Gold.Chemscore.DEInternal.Weighted>
0.3934

> <Gold.Chemscore.Rot.Weighted>
10.3431

> <Gold.Chemscore.Internal.Correction.Weighted>
   9.000000E+99

> <Gold.Protein.RotatedTorsions>
[ 6907 6896 6895 6894 ] final -177.40 input  -60.11 | X-H torsion
[ 7974 7965 7964 7962 ] final  101.46 input  175.53 | X-H torsion
[ 8008 7997 7996 7995 ] final   87.88 input   59.86 | X-H torsion
[ 10167 10162 10161 10158 ] final -146.31 input  -65.29 | X-H torsion
[ 10718 10713 10712 10709 ] final  115.10 input   66.30 | X-H torsion
[ 10763 10752 10751 10750 ] final  157.84 input  -60.55 | X-H torsion
[ 11005 11000 10999 10996 ] final -125.19 input  -57.11 | X-H torsion

> <Gold.Protein.ActiveResidues>
 VAL166  LYS551  ARG553  GLY616  TRP617  ASP618  TYR619  PRO620  LYS621  CYS622 
 ASP623  PHE694  ASN695  SER759  ASP760  ASP761  ALA762  ILE779  LEU786  VAL792 
 PHE793  MET794  SER795  GLU796  ALA797  LYS798  CYS799  TRP800  GLU811  SER814 

> <Gold.Protein.RotatedAtoms>
  151.6204  133.3339  159.3086 H   0  0  0  0  0  0  0  0  0  0  0  0  # atno 6907 bound_to 6896
  150.8109  134.7266  159.6698 H   0  0  0  0  0  0  0  0  0  0  0  0  # atno 6908 bound_to 6896
  152.4205  134.5968  160.0041 H   0  0  0  0  0  0  0  0  0  0  0  0  # atno 6909 bound_to 6896
  145.3720  139.2396  143.3450 H   0  0  0  0  0  0  0  0  0  0  0  0  # atno 7974 bound_to 7965
  155.9809  140.3377  155.6662 H   0  0  0  0  0  0  0  0  0  0  0  0  # atno 8008 bound_to 7997
  155.6550  140.0710  157.2592 H   0  0  0  0  0  0  0  0  0  0  0  0  # atno 8009 bound_to 7997
  154.4191  140.1719  156.1703 H   0  0  0  0  0  0  0  0  0  0  0  0  # atno 8010 bound_to 7997
  139.7725  143.8217  152.2627 H   0  0  0  0  0  0  0  0  0  0  0  0  # atno 10167 bound_to 10162
  157.6242  131.1008  150.7281 H   0  0  0  0  0  0  0  0  0  0  0  0  # atno 10718 bound_to 10713
  154.2066  135.2788  155.2972 H   0  0  0  0  0  0  0  0  0  0  0  0  # atno 10763 bound_to 10752
  154.5812  135.5589  153.7190 H   0  0  0  0  0  0  0  0  0  0  0  0  # atno 10764 bound_to 10752
  153.0074  135.6345  154.2205 H   0  0  0  0  0  0  0  0  0  0  0  0  # atno 10765 bound_to 10752
  140.9782  134.0711  157.3795 H   0  0  0  0  0  0  0  0  0  0  0  0  # atno 11005 bound_to 11000
  146.2881  140.4372  142.8750 LP  0  0  0  0  0  0  0  0  0  0  0  0  # atno 17320 bound_to 7965
  144.8570  140.7084  143.6132 LP  0  0  0  0  0  0  0  0  0  0  0  0  # atno 17321 bound_to 7965
  139.8256  144.7277  150.9516 LP  0  0  0  0  0  0  0  0  0  0  0  0  # atno 17342 bound_to 10162
  140.7814  143.4118  151.0981 LP  0  0  0  0  0  0  0  0  0  0  0  0  # atno 17343 bound_to 10162
  156.7632  130.4805  149.5433 LP  0  0  0  0  0  0  0  0  0  0  0  0  # atno 17370 bound_to 10713
  156.1405  130.6241  151.0460 LP  0  0  0  0  0  0  0  0  0  0  0  0  # atno 17371 bound_to 10713
  139.8939  135.0133  156.6923 LP  0  0  0  0  0  0  0  0  0  0  0  0  # atno 17394 bound_to 11000
  140.7227  133.9127  155.8157 LP  0  0  0  0  0  0  0  0  0  0  0  0  # atno 17395 bound_to 11000

$$$$
