AV-unprocessed.smi:196|AV-procd|sdf|1540|dock2
  -GOLD-   2262019393D 1   1.00000     0.00000
 Structure written by MMmdl.
 47 50  0  0  0  0  0  0  0  0  1 V2000
  150.1479  141.6540  155.6712 C   0  0  0  0  0  0  0  0  0  0  0  0
  151.2477  140.5860  155.5666 C   0  0  2  0  0  0  0  0  0  0  0  0
  151.0284  139.8649  154.3565 O   0  0  0  0  0  0  0  0  0  0  0  0
  151.4591  138.5268  154.5322 C   0  0  0  0  0  0  0  0  0  0  0  0
  151.0008  138.2185  155.9492 C   0  0  0  0  0  0  0  0  0  0  0  0
  151.2951  139.5168  156.6952 C   0  0  1  0  0  0  0  0  0  0  0  0
  152.6309  139.4522  157.1679 O   0  0  0  0  0  0  0  0  0  0  0  0
  150.3673  139.7576  157.9156 C   0  0  0  0  0  0  0  0  0  0  0  0
  150.0520  138.5417  158.6511 N   0  0  0  0  0  0  0  0  0  0  0  0
  150.9492  137.6810  159.2445 C   0  0  0  0  0  0  0  0  0  0  0  0
  150.4207  136.6498  159.8457 N   0  0  0  0  0  0  0  0  0  0  0  0
  149.0555  136.8171  159.6564 C   0  0  0  0  0  0  0  0  0  0  0  0
  147.9108  136.0686  160.0329 C   0  0  0  0  0  0  0  0  0  0  0  0
  148.0138  134.9244  160.7468 N   0  0  0  0  0  0  0  0  0  0  0  0
  147.8296  135.0859  162.1860 C   0  0  0  0  0  0  0  0  0  0  0  0
  146.8691  133.9782  162.6218 C   0  0  1  0  0  0  0  0  0  0  0  0
  145.6176  134.4397  162.5936 F   0  0  0  0  0  0  0  0  0  0  0  0
  147.0469  132.9184  161.5403 C   0  0  0  0  0  0  0  0  0  0  0  0
  147.2748  133.7489  160.2695 C   0  0  2  0  0  0  0  0  0  0  0  0
  148.0053  132.9384  159.1823 C   0  0  0  0  0  0  0  0  0  0  0  0
  148.3170  133.5388  158.0286 N   0  0  0  0  0  0  0  0  0  0  0  0
  148.2830  131.7589  159.3872 O   0  0  0  0  0  0  0  0  0  0  0  0
  146.6906  136.5460  159.6742 N   0  0  0  0  0  0  0  0  0  0  0  0
  146.5987  137.6840  158.9793 C   0  0  0  0  0  0  0  0  0  0  0  0
  147.5791  138.4838  158.5526 N   0  0  0  0  0  0  0  0  0  0  0  0
  148.8039  138.0048  158.9152 C   0  0  0  0  0  0  0  0  0  0  0  0
  147.0621  133.6099  163.6295 H   0  0  0  0  0  0  0  0  0  0  0  0
  146.3024  134.0446  159.8721 H   0  0  0  0  0  0  0  0  0  0  0  0
  150.2620  142.2584  156.5712 H   0  0  0  0  0  0  0  0  0  0  0  0
  149.1543  141.2054  155.6824 H   0  0  0  0  0  0  0  0  0  0  0  0
  150.1895  142.3309  154.8177 H   0  0  0  0  0  0  0  0  0  0  0  0
  152.2111  141.0924  155.4805 H   0  0  0  0  0  0  0  0  0  0  0  0
  151.0182  137.8610  153.7903 H   0  0  0  0  0  0  0  0  0  0  0  0
  152.5455  138.4727  154.4474 H   0  0  0  0  0  0  0  0  0  0  0  0
  149.9268  138.0307  155.9330 H   0  0  0  0  0  0  0  0  0  0  0  0
  151.4858  137.3407  156.3785 H   0  0  0  0  0  0  0  0  0  0  0  0
  152.6819  138.7816  157.8316 H   0  0  0  0  0  0  0  0  0  0  0  0
  150.8254  140.4637  158.6093 H   0  0  0  0  0  0  0  0  0  0  0  0
  149.4250  140.2048  157.5980 H   0  0  0  0  0  0  0  0  0  0  0  0
  152.0170  137.8405  159.2110 H   0  0  0  0  0  0  0  0  0  0  0  0
  148.8012  134.9480  162.6612 H   0  0  0  0  0  0  0  0  0  0  0  0
  147.4638  136.0736  162.4741 H   0  0  0  0  0  0  0  0  0  0  0  0
  147.9242  132.3099  161.7683 H   0  0  0  0  0  0  0  0  0  0  0  0
  146.1885  132.2501  161.4612 H   0  0  0  0  0  0  0  0  0  0  0  0
  148.7967  133.0210  157.3059 H   0  0  0  0  0  0  0  0  0  0  0  0
  148.0722  134.5076  157.8844 H   0  0  0  0  0  0  0  0  0  0  0  0
  145.5964  137.9991  158.7297 H   0  0  0  0  0  0  0  0  0  0  0  0
  1  2  1  0  0  0  0
  1 29  1  0  0  0  0
  1 30  1  0  0  0  0
  1 31  1  0  0  0  0
  2  6  1  0  0  0  0
  2  3  1  0  0  0  0
  2 32  1  0  0  0  0
  3  4  1  0  0  0  0
  4  5  1  0  0  0  0
  4 33  1  0  0  0  0
  4 34  1  0  0  0  0
  5  6  1  0  0  0  0
  5 35  1  0  0  0  0
  5 36  1  0  0  0  0
  6  7  1  0  0  0  0
  6  8  1  0  0  0  0
  7 37  1  0  0  0  0
  8  9  1  0  0  0  0
  8 38  1  0  0  0  0
  8 39  1  0  0  0  0
  9 26  1  0  0  0  0
  9 10  1  0  0  0  0
 10 11  2  0  0  0  0
 10 40  1  0  0  0  0
 11 12  1  0  0  0  0
 12 26  2  0  0  0  0
 12 13  1  0  0  0  0
 13 14  1  0  0  0  0
 13 23  2  0  0  0  0
 14 19  1  0  0  0  0
 14 15  1  0  0  0  0
 15 16  1  0  0  0  0
 15 41  1  0  0  0  0
 15 42  1  0  0  0  0
 16 27  1  0  0  0  0
 16 17  1  0  0  0  0
 16 18  1  0  0  0  0
 18 19  1  0  0  0  0
 18 43  1  0  0  0  0
 18 44  1  0  0  0  0
 19 28  1  0  0  0  0
 19 20  1  0  0  0  0
 20 21  1  0  0  0  0
 20 22  2  0  0  0  0
 21 45  1  0  0  0  0
 21 46  1  0  0  0  0
 23 24  1  0  0  0  0
 24 25  2  0  0  0  0
 24 47  1  0  0  0  0
 25 26  1  0  0  0  0
M  END
> <s_m_source_file>
AV-unprocessed.smi

> <i_m_source_file_index>
196

> <i_lp_mmshare_version>
43012

> <i_f3d_flags>
0

> <s_epik_input>
W0NIMl0xW0NIMl1PW0NAQEhdKFtDSDNdKVtDQEBdMShbT0hdKVtDSDJdbihbY0hdbjIpYyhjMjMpbltjSF1uYzNONFtDSDJdW0NASF0oRilbQ0gyXVtDQEhdNEMoPU8pW05IMl0=

> <s_epik_cmdline>
J2VwaWtfcHl0aG9uJywgJy1waCcsICc3LjAnLCAnLXRuJywgJzgnLCAnLW1hJywgJzIwMCcsICctbWV0YWxfYmluZGluZycsICctaW1hZScsICc8aW5maWxlLm1hZT4nLCAnLW9tYWUnLCAnPG91dGZpbGUubWFlPic=

> <r_lp_tautomer_probability>
1

> <r_epik_Ionization_Penalty>
0.000857933

> <r_epik_Ionization_Penalty_Charging>
0

> <r_epik_Ionization_Penalty_Neutral>
0.000857933

> <r_epik_State_Penalty>
0.000462053

> <r_epik_Charging_Adjusted_Penalty>
0.000462053

> <i_epik_Tot_Q>
0

> <i_epik_Tot_abs_Q>
0

> <r_epik_Metal_State_Penalty>
-0

> <b_epik_Metal_Only>
0

> <s_lp_Force_Field>
OPLS_2005

> <r_lp_Energy>
46.05

> <b_lp_Chiralities_Consistent>
1

> <s_lp_Variant>
AV-unprocessed.smi:196-13

> <Gold.Version>
5.8.1

> <Gold.Id.Protein>
6NUR|6NUR_protein|mol2

> <Gold.PLP.Fitness>
42.0038

> <Gold.PLP.PLP>
-35.2591

> <Gold.PLP.part.hbond>
-3.4504

> <Gold.PLP.part.metal>
0.0000

> <Gold.PLP.part.buried>
-1.9088

> <Gold.PLP.part.nonpolar>
-30.1285

> <Gold.PLP.part.repulsive>
0.1863

> <Gold.PLP.ligand.clash>
0.0000

> <Gold.PLP.ligand.torsion>
0.7847

> <Gold.PLP.Chemscore.Hbond>
2.7166

> <Gold.PLP.Chemscore.CHOScore>
0.0000

> <Gold.PLP.Chemscore.Metal>
0.0000

> <Gold.Chemscore.Hbonds>
donor molecule, donor type, donor heavy atom, donor atom, acceptor molecule, acceptor atom, score
      P1  H  6896  6909       L1    11  1.00
      P1  H  7989  7998       L1     3  0.64
      P1  H  7997  8008       L1     7  1.00

> <Gold.PLP.Chemscore.Internal.Correction>
0.1643

> <Gold.Rescore>
     Score         DG    S(hbond)    S(metal)    S(lipo)     H(rot)  DE(clash)    DE(int)     intcor
     13.30     -14.53       2.81        0.00      63.63       3.04       0.42       0.81       ----

> <Gold.Chemscore.Fitness>
13.2991

> <Gold.Chemscore.DG>
-14.5299

> <Gold.Chemscore.ZeroCoef>
-5.4800

> <Gold.Chemscore.Hbond>
2.8116

> <Gold.Chemscore.Metal>
0.0000

> <Gold.Chemscore.Lipo>
63.6310

> <Gold.Chemscore.Internal_Hbond>
0.0000

> <Gold.Chemscore.DEClash>
0.4229

> <Gold.Chemscore.DEInternal>
0.8079

> <Gold.Chemscore.Rot>
3.0413

> <Gold.Chemscore.Internal.Correction>
   9.000000E+99

> <Gold.Chemscore.Hbonds>
donor molecule, donor type, donor heavy atom, donor atom, acceptor molecule, acceptor atom, score
      P1  H  6896  6909       L1    11  0.96
      P1  H  7989  7998       L1     3  0.09
      P1  H  7997  8008       L1     7  0.54

> <Gold.Chemscore.Hbond.Weighted>
-9.3908

> <Gold.Chemscore.Metal.Weighted>
-0.0000

> <Gold.Chemscore.Lipo.Weighted>
-7.4448

> <Gold.Chemscore.Internal_Hbond.Weighted>
0.0000

> <Gold.Chemscore.DEClash.Weighted>
0.4229

> <Gold.Chemscore.DEInternal.Weighted>
0.8079

> <Gold.Chemscore.Rot.Weighted>
7.7856

> <Gold.Chemscore.Internal.Correction.Weighted>
   9.000000E+99

> <Gold.Protein.RotatedTorsions>
[ 6907 6896 6895 6894 ] final   87.48 input  -60.11 | X-H torsion
[ 7974 7965 7964 7962 ] final  -45.89 input  175.53 | X-H torsion
[ 8008 7997 7996 7995 ] final  -76.53 input   59.86 | X-H torsion
[ 10167 10162 10161 10158 ] final -141.35 input  -65.29 | X-H torsion
[ 10718 10713 10712 10709 ] final  -92.50 input   66.30 | X-H torsion
[ 10763 10752 10751 10750 ] final  -28.64 input  -60.55 | X-H torsion
[ 11005 11000 10999 10996 ] final -164.90 input  -57.11 | X-H torsion

> <Gold.Protein.ActiveResidues>
 VAL166  LYS551  ARG553  GLY616  TRP617  ASP618  TYR619  PRO620  LYS621  CYS622 
 ASP623  PHE694  ASN695  SER759  ASP760  ASP761  ALA762  ILE779  LEU786  VAL792 
 PHE793  MET794  SER795  GLU796  ALA797  LYS798  CYS799  TRP800  GLU811  SER814 

> <Gold.Protein.RotatedAtoms>
  152.5412  134.2269  159.8809 H   0  0  0  0  0  0  0  0  0  0  0  0  # atno 6907 bound_to 6896
  151.2243  133.4478  159.2609 H   0  0  0  0  0  0  0  0  0  0  0  0  # atno 6908 bound_to 6896
  151.0775  134.9851  159.8395 H   0  0  0  0  0  0  0  0  0  0  0  0  # atno 6909 bound_to 6896
  145.9775  140.7319  142.9380 H   0  0  0  0  0  0  0  0  0  0  0  0  # atno 7974 bound_to 7965
  154.5513  140.0725  156.8673 H   0  0  0  0  0  0  0  0  0  0  0  0  # atno 8008 bound_to 7997
  155.2987  140.3383  155.4230 H   0  0  0  0  0  0  0  0  0  0  0  0  # atno 8009 bound_to 7997
  156.1964  140.1705  156.7976 H   0  0  0  0  0  0  0  0  0  0  0  0  # atno 8010 bound_to 7997
  139.8193  143.7596  152.2666 H   0  0  0  0  0  0  0  0  0  0  0  0  # atno 10167 bound_to 10162
  156.0003  130.4989  150.5635 H   0  0  0  0  0  0  0  0  0  0  0  0  # atno 10718 bound_to 10713
  153.7516  135.6925  153.4944 H   0  0  0  0  0  0  0  0  0  0  0  0  # atno 10763 bound_to 10752
  153.1999  135.4440  155.0253 H   0  0  0  0  0  0  0  0  0  0  0  0  # atno 10764 bound_to 10752
  154.8185  135.3410  154.7036 H   0  0  0  0  0  0  0  0  0  0  0  0  # atno 10765 bound_to 10752
  140.5817  134.5135  157.5179 H   0  0  0  0  0  0  0  0  0  0  0  0  # atno 11005 bound_to 11000
  144.6852  140.2852  143.7286 LP  0  0  0  0  0  0  0  0  0  0  0  0  # atno 17320 bound_to 7965
  145.7818  139.1894  143.2153 LP  0  0  0  0  0  0  0  0  0  0  0  0  # atno 17321 bound_to 7965
  139.7769  144.7458  151.0144 LP  0  0  0  0  0  0  0  0  0  0  0  0  # atno 17342 bound_to 10162
  140.7814  143.4584  151.0312 LP  0  0  0  0  0  0  0  0  0  0  0  0  # atno 17343 bound_to 10162
  157.3541  131.0738  151.1690 LP  0  0  0  0  0  0  0  0  0  0  0  0  # atno 17370 bound_to 10713
  157.2497  130.6608  149.5926 LP  0  0  0  0  0  0  0  0  0  0  0  0  # atno 17371 bound_to 10713
  139.9314  134.7956  156.0920 LP  0  0  0  0  0  0  0  0  0  0  0  0  # atno 17394 bound_to 11000
  141.0992  133.6684  156.2715 LP  0  0  0  0  0  0  0  0  0  0  0  0  # atno 17395 bound_to 11000

$$$$
