AV-unprocessed.smi:16|AV-procd|sdf|95|dock1
  -GOLD-   2262015233D 1   1.00000     0.00000
 Structure written by MMmdl.
 59 63  0  0  0  0  0  0  0  0  1 V2000
  146.3791  142.5361  153.7635 C   0  0  0  0  0  0  0  0  0  0  0  0
  145.7790  142.8931  155.1326 C   0  0  0  0  0  0  0  0  0  0  0  0
  145.7031  141.7352  156.0227 N   0  0  0  0  0  0  0  0  0  0  0  0
  145.1522  142.1668  157.3096 C   0  0  0  0  0  0  0  0  0  0  0  0
  145.1526  141.0018  158.3138 C   0  0  0  0  0  0  0  0  0  0  0  0
  144.3507  139.8050  157.7877 C   0  0  1  0  0  0  0  0  0  0  0  0
  142.9621  140.1290  157.7737 O   0  0  0  0  0  0  0  0  0  0  0  0
  142.1616  139.0300  157.3527 C   0  0  0  0  0  0  0  0  0  0  0  0
  142.5395  138.6318  155.9173 C   0  0  0  0  0  0  0  0  0  0  0  0
  143.9767  138.3748  155.8256 N   0  0  0  0  0  0  0  0  0  0  0  0
  144.4422  137.7389  154.7175 C   0  0  0  0  0  0  0  0  0  0  0  0
  145.6887  138.0250  154.2529 N   0  0  0  0  0  0  0  0  0  0  0  0
  146.1673  137.4074  153.1697 C   0  0  0  0  0  0  0  0  0  0  0  0
  145.5785  136.4847  152.4079 N   0  0  0  0  0  0  0  0  0  0  0  0
  144.3268  136.1928  152.8632 C   0  0  0  0  0  0  0  0  0  0  0  0
  143.6850  136.7709  153.9960 C   0  0  0  0  0  0  0  0  0  0  0  0
  142.4030  136.2481  154.1247 N   0  0  0  0  0  0  0  0  0  0  0  0
  142.2968  135.4072  153.1326 C   0  0  0  0  0  0  0  0  0  0  0  0
  143.4150  135.2929  152.3389 N   0  0  0  0  0  0  0  0  0  0  0  0
  143.5515  134.4907  151.1585 C   0  0  0  0  0  0  0  0  0  0  0  0
  143.4868  132.9607  151.2200 C   0  0  0  0  0  0  0  0  0  0  0  0
  144.4808  132.8868  150.0375 C   0  0  0  0  0  0  0  0  0  0  0  0
  145.5471  131.7756  150.0972 C   0  0  0  0  0  0  0  0  0  0  0  0
  146.5362  131.9150  149.0971 O   0  0  0  0  0  0  0  0  0  0  0  0
  143.8083  132.7956  148.6541 C   0  0  0  0  0  0  0  0  0  0  0  0
  143.3993  134.0661  148.1894 O   0  0  0  0  0  0  0  0  0  0  0  0
  144.9098  134.3066  150.4751 C   0  0  0  0  0  0  0  0  0  0  0  0
  144.8219  139.4436  156.3641 C   0  0  1  0  0  0  0  0  0  0  0  0
  144.8415  140.6941  155.4534 C   0  0  0  0  0  0  0  0  0  0  0  0
  144.5052  138.9579  158.4584 H   0  0  0  0  0  0  0  0  0  0  0  0
  145.8459  139.0845  156.4517 H   0  0  0  0  0  0  0  0  0  0  0  0
  146.5453  143.4389  153.1759 H   0  0  0  0  0  0  0  0  0  0  0  0
  145.7242  141.8912  153.1786 H   0  0  0  0  0  0  0  0  0  0  0  0
  147.3408  142.0340  153.8724 H   0  0  0  0  0  0  0  0  0  0  0  0
  146.4244  143.6455  155.5881 H   0  0  0  0  0  0  0  0  0  0  0  0
  144.7967  143.3535  155.0174 H   0  0  0  0  0  0  0  0  0  0  0  0
  145.7563  142.9801  157.7135 H   0  0  0  0  0  0  0  0  0  0  0  0
  144.1413  142.5557  157.1769 H   0  0  0  0  0  0  0  0  0  0  0  0
  146.1811  140.6925  158.5047 H   0  0  0  0  0  0  0  0  0  0  0  0
  144.7483  141.3308  159.2713 H   0  0  0  0  0  0  0  0  0  0  0  0
  142.2923  138.1886  158.0350 H   0  0  0  0  0  0  0  0  0  0  0  0
  141.1109  139.3162  157.3982 H   0  0  0  0  0  0  0  0  0  0  0  0
  141.9790  137.7405  155.6319 H   0  0  0  0  0  0  0  0  0  0  0  0
  142.2598  139.4241  155.2219 H   0  0  0  0  0  0  0  0  0  0  0  0
  147.1650  137.6932  152.8711 H   0  0  0  0  0  0  0  0  0  0  0  0
  141.3921  134.8447  152.9527 H   0  0  0  0  0  0  0  0  0  0  0  0
  142.8167  134.8784  150.4509 H   0  0  0  0  0  0  0  0  0  0  0  0
  143.8857  132.5679  152.1567 H   0  0  0  0  0  0  0  0  0  0  0  0
  142.5000  132.5443  151.0156 H   0  0  0  0  0  0  0  0  0  0  0  0
  146.0491  131.7711  151.0653 H   0  0  0  0  0  0  0  0  0  0  0  0
  145.0948  130.7914  149.9726 H   0  0  0  0  0  0  0  0  0  0  0  0
  147.3592  131.6065  149.4442 H   0  0  0  0  0  0  0  0  0  0  0  0
  144.4822  132.3545  147.9189 H   0  0  0  0  0  0  0  0  0  0  0  0
  142.9278  132.1535  148.6815 H   0  0  0  0  0  0  0  0  0  0  0  0
  144.1678  134.5577  147.9429 H   0  0  0  0  0  0  0  0  0  0  0  0
  145.0983  135.0054  149.6595 H   0  0  0  0  0  0  0  0  0  0  0  0
  145.7355  134.3136  151.1885 H   0  0  0  0  0  0  0  0  0  0  0  0
  143.8343  141.0876  155.3099 H   0  0  0  0  0  0  0  0  0  0  0  0
  145.2107  140.4030  154.4711 H   0  0  0  0  0  0  0  0  0  0  0  0
  1  2  1  0  0  0  0
  1 32  1  0  0  0  0
  1 33  1  0  0  0  0
  1 34  1  0  0  0  0
  2  3  1  0  0  0  0
  2 35  1  0  0  0  0
  2 36  1  0  0  0  0
  3 29  1  0  0  0  0
  3  4  1  0  0  0  0
  4  5  1  0  0  0  0
  4 37  1  0  0  0  0
  4 38  1  0  0  0  0
  5  6  1  0  0  0  0
  5 39  1  0  0  0  0
  5 40  1  0  0  0  0
  6 30  1  0  0  0  0
  6 28  1  0  0  0  0
  6  7  1  0  0  0  0
  7  8  1  0  0  0  0
  8  9  1  0  0  0  0
  8 41  1  0  0  0  0
  8 42  1  0  0  0  0
  9 10  1  0  0  0  0
  9 43  1  0  0  0  0
  9 44  1  0  0  0  0
 10 11  1  0  0  0  0
 10 28  1  0  0  0  0
 11 16  1  0  0  0  0
 11 12  2  0  0  0  0
 12 13  1  0  0  0  0
 13 14  2  0  0  0  0
 13 45  1  0  0  0  0
 14 15  1  0  0  0  0
 15 19  1  0  0  0  0
 15 16  2  0  0  0  0
 16 17  1  0  0  0  0
 17 18  2  0  0  0  0
 18 19  1  0  0  0  0
 18 46  1  0  0  0  0
 19 20  1  0  0  0  0
 20 27  1  0  0  0  0
 20 21  1  0  0  0  0
 20 47  1  0  0  0  0
 21 22  1  0  0  0  0
 21 48  1  0  0  0  0
 21 49  1  0  0  0  0
 22 23  1  0  0  0  0
 22 25  1  0  0  0  0
 22 27  1  0  0  0  0
 23 24  1  0  0  0  0
 23 50  1  0  0  0  0
 23 51  1  0  0  0  0
 24 52  1  0  0  0  0
 25 26  1  0  0  0  0
 25 53  1  0  0  0  0
 25 54  1  0  0  0  0
 26 55  1  0  0  0  0
 27 56  1  0  0  0  0
 27 57  1  0  0  0  0
 28 31  1  0  0  0  0
 28 29  1  0  0  0  0
 29 58  1  0  0  0  0
 29 59  1  0  0  0  0
M  END
> <s_m_source_file>
AV-unprocessed.smi

> <i_m_source_file_index>
16

> <i_lp_mmshare_version>
43012

> <i_f3d_flags>
0

> <s_epik_input>
W0NIM11bQ0gyXU4oW0NIMl1bQ0gyXTEpW0NIMl1bQ0BASF0oW0NAQEhdMTIpTihbQ0gyXVtDSDJdTzIpYyhuW2NIXW4zKWMoYzM0KW5bY0hdbjRbQ0hdKFtDSDJdNSlbQ0gyXUM1KFtDSDJdW09IXSlbQ0gyXVtPSF0=

> <s_epik_cmdline>
J2VwaWtfcHl0aG9uJywgJy1waCcsICc3LjAnLCAnLXRuJywgJzgnLCAnLW1hJywgJzIwMCcsICctbWV0YWxfYmluZGluZycsICctaW1hZScsICc8aW5maWxlLm1hZT4nLCAnLW9tYWUnLCAnPG91dGZpbGUubWFlPic=

> <r_lp_tautomer_probability>
1

> <r_epik_Ionization_Penalty>
2.27341

> <r_epik_Ionization_Penalty_Charging>
0

> <r_epik_Ionization_Penalty_Neutral>
2.27341

> <r_epik_State_Penalty>
2.41121

> <r_epik_Charging_Adjusted_Penalty>
2.41121

> <i_epik_Tot_Q>
0

> <i_epik_Tot_abs_Q>
0

> <r_epik_Metal_State_Penalty>
2.40177

> <b_epik_Metal_Only>
0

> <s_lp_Force_Field>
OPLS_2005

> <r_lp_Energy>
57.2914

> <b_lp_Chiralities_Consistent>
1

> <s_lp_Variant>
AV-unprocessed.smi:16-9

> <Gold.Version>
5.8.1

> <Gold.Id.Protein>
6NUR|6NUR_protein|mol2

> <Gold.PLP.Fitness>
46.4892

> <Gold.PLP.PLP>
-36.1214

> <Gold.PLP.part.hbond>
-4.3927

> <Gold.PLP.part.metal>
0.0000

> <Gold.PLP.part.buried>
-4.1290

> <Gold.PLP.part.nonpolar>
-27.1707

> <Gold.PLP.part.repulsive>
0.4525

> <Gold.PLP.ligand.clash>
0.0000

> <Gold.PLP.ligand.torsion>
1.2292

> <Gold.PLP.Chemscore.Hbond>
2.9425

> <Gold.PLP.Chemscore.CHOScore>
0.9907

> <Gold.PLP.Chemscore.Metal>
0.0000

> <Gold.Chemscore.Hbonds>
donor molecule, donor type, donor heavy atom, donor atom, acceptor molecule, acceptor atom, score
      L1  H    24    52       P1 10747  1.00
      L1  H    26    55       P1  7921  1.00
      P1  H 10192 10197       L1    26  0.86
      L1  C    13    45       P1  7948  0.96

> <Gold.PLP.Chemscore.Internal.Correction>
1.0265

> <Gold.Rescore>
     Score         DG    S(hbond)    S(metal)    S(lipo)     H(rot)  DE(clash)    DE(int)     intcor
     10.10     -14.40       2.70        0.00      70.97       3.28       0.38       3.92       ----

> <Gold.Chemscore.Fitness>
10.1027

> <Gold.Chemscore.DG>
-14.3953

> <Gold.Chemscore.ZeroCoef>
-5.4800

> <Gold.Chemscore.Hbond>
2.6955

> <Gold.Chemscore.Metal>
0.0000

> <Gold.Chemscore.Lipo>
70.9668

> <Gold.Chemscore.Internal_Hbond>
0.0000

> <Gold.Chemscore.DEClash>
0.3769

> <Gold.Chemscore.DEInternal>
3.9157

> <Gold.Chemscore.Rot>
3.2776

> <Gold.Chemscore.Internal.Correction>
   9.000000E+99

> <Gold.Chemscore.Hbonds>
donor molecule, donor type, donor heavy atom, donor atom, acceptor molecule, acceptor atom, score
      L1  H    24    52       P1 10747  0.99
      L1  H    26    55       P1  7921  0.95
      P1  H 10192 10197       L1    26  0.16

> <Gold.Chemscore.Hbond.Weighted>
-9.0029

> <Gold.Chemscore.Metal.Weighted>
-0.0000

> <Gold.Chemscore.Lipo.Weighted>
-8.3031

> <Gold.Chemscore.Internal_Hbond.Weighted>
0.0000

> <Gold.Chemscore.DEClash.Weighted>
0.3769

> <Gold.Chemscore.DEInternal.Weighted>
3.9157

> <Gold.Chemscore.Rot.Weighted>
8.3907

> <Gold.Chemscore.Internal.Correction.Weighted>
   9.000000E+99

> <Gold.Protein.RotatedTorsions>
[ 6907 6896 6895 6894 ] final  112.23 input  -60.11 | X-H torsion
[ 7974 7965 7964 7962 ] final  153.95 input  175.53 | X-H torsion
[ 8008 7997 7996 7995 ] final  -73.24 input   59.86 | X-H torsion
[ 10167 10162 10161 10158 ] final  153.33 input  -65.29 | X-H torsion
[ 10718 10713 10712 10709 ] final -118.35 input   66.30 | X-H torsion
[ 10763 10752 10751 10750 ] final   15.03 input  -60.55 | X-H torsion
[ 11005 11000 10999 10996 ] final -174.41 input  -57.11 | X-H torsion

> <Gold.Protein.ActiveResidues>
 VAL166  LYS551  ARG553  GLY616  TRP617  ASP618  TYR619  PRO620  LYS621  CYS622 
 ASP623  PHE694  ASN695  SER759  ASP760  ASP761  ALA762  ILE779  LEU786  VAL792 
 PHE793  MET794  SER795  GLU796  ALA797  LYS798  CYS799  TRP800  GLU811  SER814 

> <Gold.Protein.RotatedAtoms>
  152.4927  133.8545  159.7218 H   0  0  0  0  0  0  0  0  0  0  0  0  # atno 6907 bound_to 6896
  150.9073  133.7032  159.2870 H   0  0  0  0  0  0  0  0  0  0  0  0  # atno 6908 bound_to 6896
  151.4453  135.1028  159.9734 H   0  0  0  0  0  0  0  0  0  0  0  0  # atno 6909 bound_to 6896
  144.8120  139.6869  143.6137 H   0  0  0  0  0  0  0  0  0  0  0  0  # atno 7974 bound_to 7965
  154.5231  140.0782  156.8209 H   0  0  0  0  0  0  0  0  0  0  0  0  # atno 8008 bound_to 7997
  155.3533  140.3414  155.4221 H   0  0  0  0  0  0  0  0  0  0  0  0  # atno 8009 bound_to 7997
  156.1703  140.1617  156.8446 H   0  0  0  0  0  0  0  0  0  0  0  0  # atno 8010 bound_to 7997
  139.4828  144.5282  151.7765 H   0  0  0  0  0  0  0  0  0  0  0  0  # atno 10167 bound_to 10162
  156.1100  130.6241  150.9280 H   0  0  0  0  0  0  0  0  0  0  0  0  # atno 10718 bound_to 10713
  153.1564  135.6788  153.8806 H   0  0  0  0  0  0  0  0  0  0  0  0  # atno 10763 bound_to 10752
  153.8216  135.3129  155.3412 H   0  0  0  0  0  0  0  0  0  0  0  0  # atno 10764 bound_to 10752
  154.7900  135.4840  154.0120 H   0  0  0  0  0  0  0  0  0  0  0  0  # atno 10765 bound_to 10752
  140.4748  134.6131  157.4896 H   0  0  0  0  0  0  0  0  0  0  0  0  # atno 11005 bound_to 11000
  146.2420  139.6020  142.9485 LP  0  0  0  0  0  0  0  0  0  0  0  0  # atno 17320 bound_to 7965
  145.5301  141.0427  143.2388 LP  0  0  0  0  0  0  0  0  0  0  0  0  # atno 17321 bound_to 7965
  140.4805  144.1456  150.5932 LP  0  0  0  0  0  0  0  0  0  0  0  0  # atno 17342 bound_to 10162
  140.4283  143.2580  151.9628 LP  0  0  0  0  0  0  0  0  0  0  0  0  # atno 17343 bound_to 10162
  157.6280  131.0924  150.8495 LP  0  0  0  0  0  0  0  0  0  0  0  0  # atno 17370 bound_to 10713
  156.8608  130.5112  149.5304 LP  0  0  0  0  0  0  0  0  0  0  0  0  # atno 17371 bound_to 10713
  139.9863  134.7057  155.9769 LP  0  0  0  0  0  0  0  0  0  0  0  0  # atno 17394 bound_to 11000
  141.1560  133.6543  156.4162 LP  0  0  0  0  0  0  0  0  0  0  0  0  # atno 17395 bound_to 11000

$$$$
