AV-unprocessed.smi:177|AV-procd|sdf|1441|dock9
  -GOLD-   2262019233D 1   1.00000     0.00000
 Structure written by MMmdl.
 61 65  0  0  0  0  0  0  0  0  1 V2000
  147.2571  139.8685  153.5815 C   0  0  0  0  0  0  0  0  0  0  0  0
  148.1450  138.7654  153.6775 O   0  0  0  0  0  0  0  0  0  0  0  0
  149.0688  138.8513  154.7546 C   0  0  2  0  0  0  0  0  0  0  0  0
  149.8599  140.1735  154.6931 C   0  0  0  0  0  0  0  0  0  0  0  0
  150.9562  140.2250  155.7688 C   0  0  0  0  0  0  0  0  0  0  0  0
  151.9138  139.0238  155.6385 C   0  0  1  0  0  0  0  0  0  0  0  0
  152.9868  139.0629  156.5814 O   0  0  0  0  0  0  0  0  0  0  0  0
  152.6262  138.7109  157.9128 C   0  0  0  0  0  0  0  0  0  0  0  0
  152.0327  137.2921  157.9314 C   0  0  0  0  0  0  0  0  0  0  0  0
  150.8969  137.1941  157.0218 N   0  0  0  0  0  0  0  0  0  0  0  0
  149.6690  137.3567  157.5701 C   0  0  0  0  0  0  0  0  0  0  0  0
  149.0443  138.5599  157.4896 N   0  0  0  0  0  0  0  0  0  0  0  0
  147.8217  138.7178  158.0035 C   0  0  0  0  0  0  0  0  0  0  0  0
  147.0641  137.8237  158.6405 N   0  0  0  0  0  0  0  0  0  0  0  0
  147.7015  136.6237  158.7558 C   0  0  0  0  0  0  0  0  0  0  0  0
  148.9947  136.3081  158.2529 C   0  0  0  0  0  0  0  0  0  0  0  0
  149.3137  134.9907  158.5555 N   0  0  0  0  0  0  0  0  0  0  0  0
  148.2592  134.5453  159.1812 C   0  0  0  0  0  0  0  0  0  0  0  0
  147.2510  135.4656  159.3664 N   0  0  0  0  0  0  0  0  0  0  0  0
  145.9743  135.2328  160.0260 C   0  0  0  0  0  0  0  0  0  0  0  0
  146.0488  134.6650  161.4805 C   0  0  0  0  0  0  0  0  0  0  0  0
  147.2750  135.2391  162.2457 C   0  0  0  0  0  0  0  0  0  0  0  0
  147.2961  136.6518  162.3073 O   0  0  0  0  0  0  0  0  0  0  0  0
  144.7545  134.9183  162.2962 C   0  0  0  0  0  0  0  0  0  0  0  0
  143.5552  134.0995  161.7845 C   0  0  0  0  0  0  0  0  0  0  0  0
  143.8719  132.7139  161.7950 O   0  0  0  0  0  0  0  0  0  0  0  0
  144.9587  132.3914  160.9376 C   0  0  0  0  0  0  0  0  0  0  0  0
  146.2288  133.1271  161.4034 C   0  0  0  0  0  0  0  0  0  0  0  0
  151.1908  137.6526  155.6545 C   0  0  1  0  0  0  0  0  0  0  0  0
  150.0162  137.6369  154.6425 C   0  0  0  0  0  0  0  0  0  0  0  0
  146.5821  139.7178  152.7391 H   0  0  0  0  0  0  0  0  0  0  0  0
  147.7885  140.8058  153.4170 H   0  0  0  0  0  0  0  0  0  0  0  0
  146.6490  139.9637  154.4820 H   0  0  0  0  0  0  0  0  0  0  0  0
  148.5214  138.7987  155.6946 H   0  0  0  0  0  0  0  0  0  0  0  0
  150.3134  140.2823  153.7069 H   0  0  0  0  0  0  0  0  0  0  0  0
  149.1932  141.0258  154.8208 H   0  0  0  0  0  0  0  0  0  0  0  0
  151.5194  141.1533  155.6711 H   0  0  0  0  0  0  0  0  0  0  0  0
  150.4932  140.2555  156.7527 H   0  0  0  0  0  0  0  0  0  0  0  0
  152.3909  139.1208  154.6624 H   0  0  0  0  0  0  0  0  0  0  0  0
  153.5204  138.7448  158.5351 H   0  0  0  0  0  0  0  0  0  0  0  0
  151.9347  139.4425  158.3296 H   0  0  0  0  0  0  0  0  0  0  0  0
  152.7880  136.5702  157.6197 H   0  0  0  0  0  0  0  0  0  0  0  0
  151.7394  137.0156  158.9452 H   0  0  0  0  0  0  0  0  0  0  0  0
  147.3883  139.6997  157.8854 H   0  0  0  0  0  0  0  0  0  0  0  0
  148.1935  133.5288  159.5416 H   0  0  0  0  0  0  0  0  0  0  0  0
  145.4212  136.1705  159.9968 H   0  0  0  0  0  0  0  0  0  0  0  0
  145.4060  134.5458  159.3974 H   0  0  0  0  0  0  0  0  0  0  0  0
  147.2828  134.8867  163.2777 H   0  0  0  0  0  0  0  0  0  0  0  0
  148.2048  134.8909  161.7948 H   0  0  0  0  0  0  0  0  0  0  0  0
  146.7654  136.9289  163.0388 H   0  0  0  0  0  0  0  0  0  0  0  0
  144.9285  134.6432  163.3375 H   0  0  0  0  0  0  0  0  0  0  0  0
  144.4996  135.9774  162.3120 H   0  0  0  0  0  0  0  0  0  0  0  0
  142.6937  134.2635  162.4316 H   0  0  0  0  0  0  0  0  0  0  0  0
  143.2539  134.4065  160.7830 H   0  0  0  0  0  0  0  0  0  0  0  0
  145.1209  131.3142  160.9778 H   0  0  0  0  0  0  0  0  0  0  0  0
  144.7088  132.6278  159.9032 H   0  0  0  0  0  0  0  0  0  0  0  0
  147.0652  132.8729  160.7510 H   0  0  0  0  0  0  0  0  0  0  0  0
  146.4899  132.7366  162.3879 H   0  0  0  0  0  0  0  0  0  0  0  0
  151.9089  136.9176  155.2885 H   0  0  0  0  0  0  0  0  0  0  0  0
  149.4597  136.7034  154.6984 H   0  0  0  0  0  0  0  0  0  0  0  0
  150.4466  137.6475  153.6402 H   0  0  0  0  0  0  0  0  0  0  0  0
  1  2  1  0  0  0  0
  1 31  1  0  0  0  0
  1 32  1  0  0  0  0
  1 33  1  0  0  0  0
  2  3  1  0  0  0  0
  3 30  1  0  0  0  0
  3  4  1  0  0  0  0
  3 34  1  0  0  0  0
  4  5  1  0  0  0  0
  4 35  1  0  0  0  0
  4 36  1  0  0  0  0
  5  6  1  0  0  0  0
  5 37  1  0  0  0  0
  5 38  1  0  0  0  0
  6 29  1  0  0  0  0
  6  7  1  0  0  0  0
  6 39  1  0  0  0  0
  7  8  1  0  0  0  0
  8  9  1  0  0  0  0
  8 40  1  0  0  0  0
  8 41  1  0  0  0  0
  9 10  1  0  0  0  0
  9 42  1  0  0  0  0
  9 43  1  0  0  0  0
 10 11  1  0  0  0  0
 10 29  1  0  0  0  0
 11 16  1  0  0  0  0
 11 12  2  0  0  0  0
 12 13  1  0  0  0  0
 13 14  2  0  0  0  0
 13 44  1  0  0  0  0
 14 15  1  0  0  0  0
 15 19  1  0  0  0  0
 15 16  2  0  0  0  0
 16 17  1  0  0  0  0
 17 18  2  0  0  0  0
 18 19  1  0  0  0  0
 18 45  1  0  0  0  0
 19 20  1  0  0  0  0
 20 21  1  0  0  0  0
 20 46  1  0  0  0  0
 20 47  1  0  0  0  0
 21 28  1  0  0  0  0
 21 22  1  0  0  0  0
 21 24  1  0  0  0  0
 22 23  1  0  0  0  0
 22 48  1  0  0  0  0
 22 49  1  0  0  0  0
 23 50  1  0  0  0  0
 24 25  1  0  0  0  0
 24 51  1  0  0  0  0
 24 52  1  0  0  0  0
 25 26  1  0  0  0  0
 25 53  1  0  0  0  0
 25 54  1  0  0  0  0
 26 27  1  0  0  0  0
 27 28  1  0  0  0  0
 27 55  1  0  0  0  0
 27 56  1  0  0  0  0
 28 57  1  0  0  0  0
 28 58  1  0  0  0  0
 29 30  1  0  0  0  0
 29 59  1  0  0  0  0
 30 60  1  0  0  0  0
 30 61  1  0  0  0  0
M  END
> <s_m_source_file>
AV-unprocessed.smi

> <i_m_source_file_index>
177

> <i_lp_mmshare_version>
43012

> <i_f3d_flags>
0

> <s_epik_input>
W0NIM11PW0NASF0oW0NIMl1bQ0gyXTEpW0NIMl1bQ0BIXShbQ0BASF0xMilOKFtDSDJdW0NIMl1PMiljKG5bY0hdbjMpYyhjMzQpbltjSF1uNFtDSDJdQzUoW0NIMl1bT0hdKVtDSDJdW0NIMl1PW0NIMl1bQ0gyXTU=

> <s_epik_cmdline>
J2VwaWtfcHl0aG9uJywgJy1waCcsICc3LjAnLCAnLXRuJywgJzgnLCAnLW1hJywgJzIwMCcsICctbWV0YWxfYmluZGluZycsICctaW1hZScsICc8aW5maWxlLm1hZT4nLCAnLW9tYWUnLCAnPG91dGZpbGUubWFlPic=

> <r_lp_tautomer_probability>
1

> <r_epik_Ionization_Penalty>
0.0065899

> <r_epik_Ionization_Penalty_Charging>
0

> <r_epik_Ionization_Penalty_Neutral>
0.0065899

> <r_epik_State_Penalty>
0.00470042

> <r_epik_Charging_Adjusted_Penalty>
0.00470042

> <i_epik_Tot_Q>
0

> <i_epik_Tot_abs_Q>
0

> <r_epik_Metal_State_Penalty>
-0

> <b_epik_Metal_Only>
0

> <s_lp_Force_Field>
OPLS_2005

> <r_lp_Energy>
52.4416

> <b_lp_Chiralities_Consistent>
1

> <s_lp_Variant>
AV-unprocessed.smi:177-5

> <Gold.Version>
5.8.1

> <Gold.Id.Protein>
6NUR|6NUR_protein|mol2

> <Gold.PLP.Fitness>
47.2022

> <Gold.PLP.PLP>
-40.5583

> <Gold.PLP.part.hbond>
-5.0000

> <Gold.PLP.part.metal>
0.0000

> <Gold.PLP.part.buried>
-3.5816

> <Gold.PLP.part.nonpolar>
-31.6498

> <Gold.PLP.part.repulsive>
0.3028

> <Gold.PLP.ligand.clash>
0.0000

> <Gold.PLP.ligand.torsion>
1.5747

> <Gold.PLP.Chemscore.Hbond>
2.9228

> <Gold.PLP.Chemscore.CHOScore>
0.0000

> <Gold.PLP.Chemscore.Metal>
0.0000

> <Gold.Chemscore.Hbonds>
donor molecule, donor type, donor heavy atom, donor atom, acceptor molecule, acceptor atom, score
      P1  H  6896  6908       L1    17  1.00
      P1  H  6931  6943       L1    23  0.11
      P1  H  7997  8009       L1     7  0.93

> <Gold.PLP.Chemscore.Internal.Correction>
1.0250

> <Gold.Rescore>
     Score         DG    S(hbond)    S(metal)    S(lipo)     H(rot)  DE(clash)    DE(int)     intcor
     15.39     -19.29       2.48        0.00      97.82       2.32       0.02       3.88       ----

> <Gold.Chemscore.Fitness>
15.3860

> <Gold.Chemscore.DG>
-19.2930

> <Gold.Chemscore.ZeroCoef>
-5.4800

> <Gold.Chemscore.Hbond>
2.4849

> <Gold.Chemscore.Metal>
0.0000

> <Gold.Chemscore.Lipo>
97.8183

> <Gold.Chemscore.Internal_Hbond>
0.0000

> <Gold.Chemscore.DEClash>
0.0228

> <Gold.Chemscore.DEInternal>
3.8842

> <Gold.Chemscore.Rot>
2.3169

> <Gold.Chemscore.Internal.Correction>
   9.000000E+99

> <Gold.Chemscore.Hbonds>
donor molecule, donor type, donor heavy atom, donor atom, acceptor molecule, acceptor atom, score
      P1  H  6896  6908       L1    17  0.45
      P1  H  6931  6943       L1    23  0.10
      P1  H  7997  8009       L1     7  0.83

> <Gold.Chemscore.Hbond.Weighted>
-8.2996

> <Gold.Chemscore.Metal.Weighted>
-0.0000

> <Gold.Chemscore.Lipo.Weighted>
-11.4447

> <Gold.Chemscore.Internal_Hbond.Weighted>
0.0000

> <Gold.Chemscore.DEClash.Weighted>
0.0228

> <Gold.Chemscore.DEInternal.Weighted>
3.8842

> <Gold.Chemscore.Rot.Weighted>
5.9313

> <Gold.Chemscore.Internal.Correction.Weighted>
   9.000000E+99

> <Gold.Protein.RotatedTorsions>
[ 6907 6896 6895 6894 ] final  154.76 input  -60.11 | X-H torsion
[ 7974 7965 7964 7962 ] final  138.54 input  175.53 | X-H torsion
[ 8008 7997 7996 7995 ] final -150.39 input   59.86 | X-H torsion
[ 10167 10162 10161 10158 ] final  -27.26 input  -65.29 | X-H torsion
[ 10718 10713 10712 10709 ] final  -36.57 input   66.30 | X-H torsion
[ 10763 10752 10751 10750 ] final -149.17 input  -60.55 | X-H torsion
[ 11005 11000 10999 10996 ] final -128.98 input  -57.11 | X-H torsion

> <Gold.Protein.ActiveResidues>
 VAL166  LYS551  ARG553  GLY616  TRP617  ASP618  TYR619  PRO620  LYS621  CYS622 
 ASP623  PHE694  ASN695  SER759  ASP760  ASP761  ALA762  ILE779  LEU786  VAL792 
 PHE793  MET794  SER795  GLU796  ALA797  LYS798  CYS799  TRP800  GLU811  SER814 

> <Gold.Protein.RotatedAtoms>
  152.0539  133.4031  159.4388 H   0  0  0  0  0  0  0  0  0  0  0  0  # atno 6907 bound_to 6896
  150.6869  134.3277  159.4823 H   0  0  0  0  0  0  0  0  0  0  0  0  # atno 6908 bound_to 6896
  152.1090  134.9287  160.0618 H   0  0  0  0  0  0  0  0  0  0  0  0  # atno 6909 bound_to 6896
  144.9363  139.4985  143.5593 H   0  0  0  0  0  0  0  0  0  0  0  0  # atno 7974 bound_to 7965
  155.6227  140.0683  157.2673 H   0  0  0  0  0  0  0  0  0  0  0  0  # atno 8008 bound_to 7997
  154.4225  140.1781  156.1438 H   0  0  0  0  0  0  0  0  0  0  0  0  # atno 8009 bound_to 7997
  155.9996  140.3337  155.6836 H   0  0  0  0  0  0  0  0  0  0  0  0  # atno 8010 bound_to 7997
  140.7278  143.4108  151.1108 H   0  0  0  0  0  0  0  0  0  0  0  0  # atno 10167 bound_to 10162
  156.3254  130.4271  149.7922 H   0  0  0  0  0  0  0  0  0  0  0  0  # atno 10718 bound_to 10713
  154.8192  135.3316  154.7088 H   0  0  0  0  0  0  0  0  0  0  0  0  # atno 10763 bound_to 10752
  153.7723  135.6924  153.4908 H   0  0  0  0  0  0  0  0  0  0  0  0  # atno 10764 bound_to 10752
  153.2036  135.4507  155.0244 H   0  0  0  0  0  0  0  0  0  0  0  0  # atno 10765 bound_to 10752
  140.9471  134.1116  157.4097 H   0  0  0  0  0  0  0  0  0  0  0  0  # atno 11005 bound_to 11000
  146.3268  139.8349  142.8901 LP  0  0  0  0  0  0  0  0  0  0  0  0  # atno 17320 bound_to 7965
  145.3062  141.0208  143.3580 LP  0  0  0  0  0  0  0  0  0  0  0  0  # atno 17321 bound_to 7965
  139.7741  143.8450  152.3126 LP  0  0  0  0  0  0  0  0  0  0  0  0  # atno 17342 bound_to 10162
  139.8379  144.7223  150.9368 LP  0  0  0  0  0  0  0  0  0  0  0  0  # atno 17343 bound_to 10162
  156.5214  130.8217  151.3205 LP  0  0  0  0  0  0  0  0  0  0  0  0  # atno 17370 bound_to 10713
  157.7420  130.9881  150.2485 LP  0  0  0  0  0  0  0  0  0  0  0  0  # atno 17371 bound_to 10713
  139.8836  135.0054  156.6314 LP  0  0  0  0  0  0  0  0  0  0  0  0  # atno 17394 bound_to 11000
  140.7654  133.8782  155.8450 LP  0  0  0  0  0  0  0  0  0  0  0  0  # atno 17395 bound_to 11000

$$$$
