AV-unprocessed.smi:804|AV-procd|sdf|3794|dock3
  -GOLD-   22720 1233D 1   1.00000     0.00000
 Structure written by MMmdl.
 39 40  0  0  0  0  0  0  0  0  1 V2000
  157.2385  145.1899  163.7380 C   0  0  0  0  0  0  0  0  0  0  0  0
  157.6399  143.7050  163.6942 C   0  0  0  0  0  0  0  0  0  0  0  0
  159.0492  143.5850  163.0768 C   0  0  0  0  0  0  0  0  0  0  0  0
  157.6240  143.1372  165.1287 C   0  0  0  0  0  0  0  0  0  0  0  0
  156.6491  143.0212  162.8560 N   0  0  0  0  0  0  0  0  0  0  0  0
  156.5025  141.7015  162.6374 C   0  0  0  0  0  0  0  0  0  0  0  0
  157.1900  140.8293  163.1689 O   0  0  0  0  0  0  0  0  0  0  0  0
  155.3622  141.3275  161.7357 C   0  0  0  0  0  0  0  0  0  0  0  0
  154.5600  142.3385  161.3308 N   0  0  0  0  0  0  0  0  0  0  0  0
  153.5287  142.0569  160.5249 C   0  0  0  0  0  0  0  0  0  0  0  0
  152.7201  143.1233  160.1097 N   0  0  0  0  0  0  0  0  0  0  0  0
  151.7560  142.9747  159.0160 C   0  0  0  0  0  0  0  0  0  0  0  0
  151.5257  144.3147  158.2965 C   0  0  0  0  0  0  0  0  0  0  0  0
  151.1369  145.3078  159.2366 O   0  0  0  0  0  0  0  0  0  0  0  0
  152.1523  145.5306  160.2064 C   0  0  0  0  0  0  0  0  0  0  0  0
  152.4023  144.2399  161.0038 C   0  0  0  0  0  0  0  0  0  0  0  0
  153.2171  140.8314  160.0852 N   0  0  0  0  0  0  0  0  0  0  0  0
  153.9932  139.8033  160.4861 C   0  0  0  0  0  0  0  0  0  0  0  0
  155.1026  139.9916  161.3326 C   0  0  0  0  0  0  0  0  0  0  0  0
  156.0359  138.6266  161.8450 Cl  0  0  0  0  0  0  0  0  0  0  0  0
  157.9320  145.7714  164.3467 H   0  0  0  0  0  0  0  0  0  0  0  0
  156.2421  145.3212  164.1623 H   0  0  0  0  0  0  0  0  0  0  0  0
  157.2308  145.6303  162.7400 H   0  0  0  0  0  0  0  0  0  0  0  0
  159.0649  143.9505  162.0493 H   0  0  0  0  0  0  0  0  0  0  0  0
  159.4066  142.5554  163.0658 H   0  0  0  0  0  0  0  0  0  0  0  0
  159.7759  144.1681  163.6433 H   0  0  0  0  0  0  0  0  0  0  0  0
  158.2898  143.7026  165.7813 H   0  0  0  0  0  0  0  0  0  0  0  0
  157.9514  142.0981  165.1633 H   0  0  0  0  0  0  0  0  0  0  0  0
  156.6243  143.1825  165.5627 H   0  0  0  0  0  0  0  0  0  0  0  0
  156.0003  143.6255  162.3730 H   0  0  0  0  0  0  0  0  0  0  0  0
  152.0872  142.2470  158.2754 H   0  0  0  0  0  0  0  0  0  0  0  0
  150.8169  142.6033  159.4272 H   0  0  0  0  0  0  0  0  0  0  0  0
  152.4250  144.6308  157.7655 H   0  0  0  0  0  0  0  0  0  0  0  0
  150.7384  144.2069  157.5504 H   0  0  0  0  0  0  0  0  0  0  0  0
  153.0684  145.8715  159.7211 H   0  0  0  0  0  0  0  0  0  0  0  0
  151.8324  146.3285  160.8767 H   0  0  0  0  0  0  0  0  0  0  0  0
  151.5163  143.9813  161.5848 H   0  0  0  0  0  0  0  0  0  0  0  0
  153.2038  144.4328  161.7163 H   0  0  0  0  0  0  0  0  0  0  0  0
  153.7206  138.8199  160.1330 H   0  0  0  0  0  0  0  0  0  0  0  0
  1  2  1  0  0  0  0
  1 21  1  0  0  0  0
  1 22  1  0  0  0  0
  1 23  1  0  0  0  0
  2  3  1  0  0  0  0
  2  4  1  0  0  0  0
  2  5  1  0  0  0  0
  3 24  1  0  0  0  0
  3 25  1  0  0  0  0
  3 26  1  0  0  0  0
  4 27  1  0  0  0  0
  4 28  1  0  0  0  0
  4 29  1  0  0  0  0
  5  6  1  0  0  0  0
  5 30  1  0  0  0  0
  6  7  2  0  0  0  0
  6  8  1  0  0  0  0
  8 19  1  0  0  0  0
  8  9  2  0  0  0  0
  9 10  1  0  0  0  0
 10 11  1  0  0  0  0
 10 17  2  0  0  0  0
 11 16  1  0  0  0  0
 11 12  1  0  0  0  0
 12 13  1  0  0  0  0
 12 31  1  0  0  0  0
 12 32  1  0  0  0  0
 13 14  1  0  0  0  0
 13 33  1  0  0  0  0
 13 34  1  0  0  0  0
 14 15  1  0  0  0  0
 15 16  1  0  0  0  0
 15 35  1  0  0  0  0
 15 36  1  0  0  0  0
 16 37  1  0  0  0  0
 16 38  1  0  0  0  0
 17 18  1  0  0  0  0
 18 19  2  0  0  0  0
 18 39  1  0  0  0  0
 19 20  1  0  0  0  0
M  END
> <s_m_source_file>
AV-unprocessed.smi

> <i_m_source_file_index>
804

> <i_lp_mmshare_version>
43012

> <i_f3d_flags>
0

> <s_epik_input>
W0NIM11DKFtDSDNdKShbQ0gzXSlbTkhdQyg9TyljMW5jKG5bY0hdYzFDbClOMltDSDJdW0NIMl1PW0NIMl1bQ0gyXTI=

> <s_epik_cmdline>
J2VwaWtfcHl0aG9uJywgJy1waCcsICc3LjAnLCAnLXRuJywgJzgnLCAnLW1hJywgJzIwMCcsICctbWV0YWxfYmluZGluZycsICctaW1hZScsICc8aW5maWxlLm1hZT4nLCAnLW9tYWUnLCAnPG91dGZpbGUubWFlPic=

> <r_lp_tautomer_probability>
1

> <r_epik_Ionization_Penalty>
1.02082e-05

> <r_epik_Ionization_Penalty_Charging>
0

> <r_epik_Ionization_Penalty_Neutral>
1.02082e-05

> <r_epik_State_Penalty>
-0

> <r_epik_Charging_Adjusted_Penalty>
0

> <i_epik_Tot_Q>
0

> <i_epik_Tot_abs_Q>
0

> <r_epik_Metal_State_Penalty>
0.00994437

> <b_epik_Metal_Only>
0

> <s_lp_Force_Field>
OPLS_2005

> <r_lp_Energy>
15.0003

> <b_lp_Chiralities_Consistent>
1

> <s_lp_Variant>
AV-unprocessed.smi:804-1

> <Gold.Version>
5.8.1

> <Gold.Id.Protein>
6NUR|6NUR_protein|mol2

> <Gold.PLP.Fitness>
45.0353

> <Gold.PLP.PLP>
-45.7295

> <Gold.PLP.part.hbond>
-2.0000

> <Gold.PLP.part.metal>
0.0000

> <Gold.PLP.part.buried>
-1.2154

> <Gold.PLP.part.nonpolar>
-41.2052

> <Gold.PLP.part.repulsive>
0.1758

> <Gold.PLP.ligand.clash>
0.0000

> <Gold.PLP.ligand.torsion>
0.4142

> <Gold.PLP.Chemscore.Hbond>
0.0000

> <Gold.PLP.Chemscore.CHOScore>
0.0000

> <Gold.PLP.Chemscore.Metal>
0.0000

> <Gold.PLP.Chemscore.Internal.Correction>
0.1342

> <Gold.Rescore>
     Score         DG    S(hbond)    S(metal)    S(lipo)     H(rot)  DE(clash)    DE(int)     intcor
     13.43     -15.15       0.00        0.00     104.56       1.00       0.27       1.46       ----

> <Gold.Chemscore.Fitness>
13.4286

> <Gold.Chemscore.DG>
-15.1535

> <Gold.Chemscore.ZeroCoef>
-5.4800

> <Gold.Chemscore.Hbond>
0.0000

> <Gold.Chemscore.Metal>
0.0000

> <Gold.Chemscore.Lipo>
104.5598

> <Gold.Chemscore.Internal_Hbond>
0.0000

> <Gold.Chemscore.DEClash>
0.2673

> <Gold.Chemscore.DEInternal>
1.4577

> <Gold.Chemscore.Rot>
1.0000

> <Gold.Chemscore.Internal.Correction>
   9.000000E+99

> <Gold.Chemscore.Hbond.Weighted>
-0.0000

> <Gold.Chemscore.Metal.Weighted>
-0.0000

> <Gold.Chemscore.Lipo.Weighted>
-12.2335

> <Gold.Chemscore.Internal_Hbond.Weighted>
0.0000

> <Gold.Chemscore.DEClash.Weighted>
0.2673

> <Gold.Chemscore.DEInternal.Weighted>
1.4577

> <Gold.Chemscore.Rot.Weighted>
2.5600

> <Gold.Chemscore.Internal.Correction.Weighted>
   9.000000E+99

> <Gold.Protein.RotatedTorsions>
[ 6907 6896 6895 6894 ] final  137.10 input  -60.11 | X-H torsion
[ 7974 7965 7964 7962 ] final  -19.04 input  175.53 | X-H torsion
[ 8008 7997 7996 7995 ] final   82.85 input   59.86 | X-H torsion
[ 10167 10162 10161 10158 ] final -138.50 input  -65.29 | X-H torsion
[ 10718 10713 10712 10709 ] final   25.96 input   66.30 | X-H torsion
[ 10763 10752 10751 10750 ] final -129.55 input  -60.55 | X-H torsion
[ 11005 11000 10999 10996 ] final  -91.93 input  -57.11 | X-H torsion

> <Gold.Protein.ActiveResidues>
 VAL166  LYS551  ARG553  GLY616  TRP617  ASP618  TYR619  PRO620  LYS621  CYS622 
 ASP623  PHE694  ASN695  SER759  ASP760  ASP761  ALA762  ILE779  LEU786  VAL792 
 PHE793  MET794  SER795  GLU796  ALA797  LYS798  CYS799  TRP800  GLU811  SER814 

> <Gold.Protein.RotatedAtoms>
  152.2819  133.5478  159.5502 H   0  0  0  0  0  0  0  0  0  0  0  0  # atno 6907 bound_to 6896
  150.7199  134.0552  159.3821 H   0  0  0  0  0  0  0  0  0  0  0  0  # atno 6908 bound_to 6896
  151.8462  135.0573  160.0504 H   0  0  0  0  0  0  0  0  0  0  0  0  # atno 6909 bound_to 6896
  146.1861  140.4006  142.8475 H   0  0  0  0  0  0  0  0  0  0  0  0  # atno 7974 bound_to 7965
  155.9162  140.3424  155.6137 H   0  0  0  0  0  0  0  0  0  0  0  0  # atno 8008 bound_to 7997
  155.7329  140.0797  157.2299 H   0  0  0  0  0  0  0  0  0  0  0  0  # atno 8009 bound_to 7997
  154.4063  140.1585  156.2516 H   0  0  0  0  0  0  0  0  0  0  0  0  # atno 8010 bound_to 7997
  139.8472  143.7246  152.2660 H   0  0  0  0  0  0  0  0  0  0  0  0  # atno 10167 bound_to 10162
  157.2005  130.6887  149.6186 H   0  0  0  0  0  0  0  0  0  0  0  0  # atno 10718 bound_to 10713
  154.8757  135.3891  154.3939 H   0  0  0  0  0  0  0  0  0  0  0  0  # atno 10763 bound_to 10752
  153.4671  135.7029  153.6020 H   0  0  0  0  0  0  0  0  0  0  0  0  # atno 10764 bound_to 10752
  153.4493  135.3837  155.2243 H   0  0  0  0  0  0  0  0  0  0  0  0  # atno 10765 bound_to 10752
  141.1533  133.7788  156.9949 H   0  0  0  0  0  0  0  0  0  0  0  0  # atno 11005 bound_to 11000
  144.8401  140.6843  143.6235 LP  0  0  0  0  0  0  0  0  0  0  0  0  # atno 17320 bound_to 7965
  145.3933  139.1612  143.4217 LP  0  0  0  0  0  0  0  0  0  0  0  0  # atno 17321 bound_to 7965
  139.7501  144.7536  151.0519 LP  0  0  0  0  0  0  0  0  0  0  0  0  # atno 17342 bound_to 10162
  140.7792  143.4870  150.9943 LP  0  0  0  0  0  0  0  0  0  0  0  0  # atno 17343 bound_to 10162
  155.9701  130.4584  150.5999 LP  0  0  0  0  0  0  0  0  0  0  0  0  # atno 17370 bound_to 10713
  157.3772  131.0775  151.1508 LP  0  0  0  0  0  0  0  0  0  0  0  0  # atno 17371 bound_to 10713
  140.0978  134.9553  157.1877 LP  0  0  0  0  0  0  0  0  0  0  0  0  # atno 17394 bound_to 11000
  140.3359  134.2758  155.7220 LP  0  0  0  0  0  0  0  0  0  0  0  0  # atno 17395 bound_to 11000

$$$$
