AV-unprocessed.smi:829|AV-procd|sdf|3867|dock6
  -GOLD-   22720 1323D 1   1.00000     0.00000
 Structure written by MMmdl.
 49 51  0  0  0  0  0  0  0  0  2 V2000
  144.4926  136.2227  152.3396 O   0  0  0  0  0  0  0  0  0  0  0  0
  145.6993  136.1959  152.0994 C   0  0  0  0  0  0  0  0  0  0  0  0
  146.3343  135.2413  151.3970 N   0  0  0  0  0  0  0  0  0  0  0  0
  145.7898  134.0794  150.7849 C   0  0  0  0  0  0  0  0  0  0  0  0
  144.3954  134.0386  150.5792 C   0  0  0  0  0  0  0  0  0  0  0  0
  143.8291  132.8919  149.9871 C   0  0  0  0  0  0  0  0  0  0  0  0
  144.5533  131.8170  149.6114 N   0  0  0  0  0  0  0  0  0  0  0  0
  145.8860  131.8513  149.8230 C   0  0  0  0  0  0  0  0  0  0  0  0
  146.5520  132.9478  150.4065 C   0  0  0  0  0  0  0  0  0  0  0  0
  146.5584  137.1274  152.5395 N   0  0  0  0  0  0  0  0  0  0  0  0
  146.1978  138.2935  153.3458 C   0  0  2  0  0  0  0  0  0  0  0  0
  146.8105  139.5735  152.7500 C   0  0  0  0  0  0  0  0  0  0  0  0
  148.3350  139.6430  152.9603 C   0  0  0  0  0  0  0  0  0  0  0  0
  148.6873  139.5034  154.3971 N   0  3  2  0  0  0  0  0  0  0  0  0
  150.1331  139.7194  154.6639 C   0  0  0  0  0  0  0  0  0  0  0  0
  150.3939  140.1438  156.1227 C   0  0  0  0  0  0  0  0  0  0  0  0
  149.6625  141.4297  156.5155 C   0  0  0  0  0  0  0  0  0  0  0  0
  150.3704  141.9085  157.7853 C   0  0  0  0  0  0  0  0  0  0  0  0
  151.8062  141.3735  157.6954 C   0  0  0  0  0  0  0  0  0  0  0  0
  151.8545  140.4685  156.4582 C   0  0  0  0  0  0  0  0  0  0  0  0
  148.1732  138.2275  154.9593 C   0  0  0  0  0  0  0  0  0  0  0  0
  146.6448  138.1387  154.8136 C   0  0  0  0  0  0  0  0  0  0  0  0
  147.3392  135.3214  151.3476 H   0  0  0  0  0  0  0  0  0  0  0  0
  143.7665  134.8700  150.8622 H   0  0  0  0  0  0  0  0  0  0  0  0
  142.7647  132.8367  149.8128 H   0  0  0  0  0  0  0  0  0  0  0  0
  146.4400  130.9742  149.5232 H   0  0  0  0  0  0  0  0  0  0  0  0
  147.6183  132.8920  150.5607 H   0  0  0  0  0  0  0  0  0  0  0  0
  147.5321  137.0269  152.2923 H   0  0  0  0  0  0  0  0  0  0  0  0
  145.1112  138.3946  153.3178 H   0  0  0  0  0  0  0  0  0  0  0  0
  146.5736  139.6488  151.6879 H   0  0  0  0  0  0  0  0  0  0  0  0
  146.3494  140.4417  153.2233 H   0  0  0  0  0  0  0  0  0  0  0  0
  148.8366  138.8644  152.3834 H   0  0  0  0  0  0  0  0  0  0  0  0
  148.6991  140.6000  152.5843 H   0  0  0  0  0  0  0  0  0  0  0  0
  150.7147  138.8356  154.3967 H   0  0  0  0  0  0  0  0  0  0  0  0
  150.5037  140.5185  154.0200 H   0  0  0  0  0  0  0  0  0  0  0  0
  150.0522  139.3512  156.7911 H   0  0  0  0  0  0  0  0  0  0  0  0
  149.7763  142.1790  155.7305 H   0  0  0  0  0  0  0  0  0  0  0  0
  148.5943  141.2737  156.6714 H   0  0  0  0  0  0  0  0  0  0  0  0
  150.3390  142.9939  157.8834 H   0  0  0  0  0  0  0  0  0  0  0  0
  149.8791  141.4867  158.6631 H   0  0  0  0  0  0  0  0  0  0  0  0
  152.5311  142.1839  157.6114 H   0  0  0  0  0  0  0  0  0  0  0  0
  152.0526  140.8094  158.5957 H   0  0  0  0  0  0  0  0  0  0  0  0
  152.4506  139.5724  156.6330 H   0  0  0  0  0  0  0  0  0  0  0  0
  152.3130  141.0158  155.6332 H   0  0  0  0  0  0  0  0  0  0  0  0
  148.6506  137.3859  154.4548 H   0  0  0  0  0  0  0  0  0  0  0  0
  148.4337  138.1447  156.0130 H   0  0  0  0  0  0  0  0  0  0  0  0
  146.1856  138.9270  155.4117 H   0  0  0  0  0  0  0  0  0  0  0  0
  146.2837  137.1986  155.2319 H   0  0  0  0  0  0  0  0  0  0  0  0
  148.2019  140.2500  154.8735 H   0  0  0  0  0  0  0  0  0  0  0  0
  1  2  2  0  0  0  0
  2  3  1  0  0  0  0
  2 10  1  0  0  0  0
  3  4  1  0  0  0  0
  3 23  1  0  0  0  0
  4  9  1  0  0  0  0
  4  5  2  0  0  0  0
  5  6  1  0  0  0  0
  5 24  1  0  0  0  0
  6  7  2  0  0  0  0
  6 25  1  0  0  0  0
  7  8  1  0  0  0  0
  8  9  2  0  0  0  0
  8 26  1  0  0  0  0
  9 27  1  0  0  0  0
 10 11  1  0  0  0  0
 10 28  1  0  0  0  0
 11 22  1  0  0  0  0
 11 12  1  0  0  0  0
 11 29  1  0  0  0  0
 12 13  1  0  0  0  0
 12 30  1  0  0  0  0
 12 31  1  0  0  0  0
 13 14  1  0  0  0  0
 13 32  1  0  0  0  0
 13 33  1  0  0  0  0
 14 15  1  0  0  0  0
 14 21  1  0  0  0  0
 14 49  1  0  0  0  0
 15 16  1  0  0  0  0
 15 34  1  0  0  0  0
 15 35  1  0  0  0  0
 16 20  1  0  0  0  0
 16 17  1  0  0  0  0
 16 36  1  0  0  0  0
 17 18  1  0  0  0  0
 17 37  1  0  0  0  0
 17 38  1  0  0  0  0
 18 19  1  0  0  0  0
 18 39  1  0  0  0  0
 18 40  1  0  0  0  0
 19 20  1  0  0  0  0
 19 41  1  0  0  0  0
 19 42  1  0  0  0  0
 20 43  1  0  0  0  0
 20 44  1  0  0  0  0
 21 22  1  0  0  0  0
 21 45  1  0  0  0  0
 21 46  1  0  0  0  0
 22 47  1  0  0  0  0
 22 48  1  0  0  0  0
M  CHG  1  14   1
M  END
> <s_m_source_file>
AV-unprocessed.smi

> <i_m_source_file_index>
829

> <i_lp_mmshare_version>
43012

> <i_f3d_flags>
0

> <s_epik_input>
W2NIXTFbY0hdbltjSF1bY0hdYzFbTkhdQyg9TylbTkhdW0NIXTJbQ0gyXVtDSDJdTihbQ0gyXVtDSDJdMilbQ0gyXVtDSF0zW0NIMl1bQ0gyXVtDSDJdW0NIMl0z

> <s_epik_cmdline>
J2VwaWtfcHl0aG9uJywgJy1waCcsICc3LjAnLCAnLXRuJywgJzgnLCAnLW1hJywgJzIwMCcsICctbWV0YWxfYmluZGluZycsICctaW1hZScsICc8aW5maWxlLm1hZT4nLCAnLW9tYWUnLCAnPG91dGZpbGUubWFlPic=

> <r_epik_Ionization_Penalty>
0.101981

> <r_epik_Ionization_Penalty_Charging>
0.00207989

> <r_epik_Ionization_Penalty_Neutral>
0.0999008

> <r_epik_State_Penalty>
0.0935668

> <r_epik_Charging_Adjusted_Penalty>
0.0956467

> <i_epik_Tot_Q>
1

> <i_epik_Tot_abs_Q>
1

> <r_epik_Metal_State_Penalty>
0.0787682

> <b_epik_Metal_Only>
0

> <s_lp_Force_Field>
OPLS_2005

> <r_lp_Energy>
43.3749

> <b_lp_Chiralities_Consistent>
1

> <s_lp_Variant>
AV-unprocessed.smi:829-2

> <Gold.Version>
5.8.1

> <Gold.Id.Protein>
6NUR|6NUR_protein|mol2

> <Gold.PLP.Fitness>
42.7771

> <Gold.PLP.PLP>
-32.2922

> <Gold.PLP.part.hbond>
-3.0000

> <Gold.PLP.part.metal>
0.0000

> <Gold.PLP.part.buried>
2.4019

> <Gold.PLP.part.nonpolar>
-31.4229

> <Gold.PLP.part.repulsive>
0.4713

> <Gold.PLP.ligand.clash>
0.0000

> <Gold.PLP.ligand.torsion>
0.3973

> <Gold.PLP.Chemscore.Hbond>
2.1531

> <Gold.PLP.Chemscore.CHOScore>
1.5976

> <Gold.PLP.Chemscore.Metal>
0.0000

> <Gold.Chemscore.Hbonds>
donor molecule, donor type, donor heavy atom, donor atom, acceptor molecule, acceptor atom, score
      L1  H     3    23       P1  7948  1.00
      L1  H    10    28       P1  7948  1.00
      P1  H 10785 10796       L1     7  0.15
      L1  C     6    25       P1 10186  1.00
      L1  C     8    26       P1 10747  0.58

> <Gold.PLP.Chemscore.Internal.Correction>
0.0272

> <Gold.Rescore>
     Score         DG    S(hbond)    S(metal)    S(lipo)     H(rot)  DE(clash)    DE(int)     intcor
     17.51     -21.15       2.08        0.00     104.01       1.35       1.89       1.75       ----

> <Gold.Chemscore.Fitness>
17.5062

> <Gold.Chemscore.DG>
-21.1491

> <Gold.Chemscore.ZeroCoef>
-5.4800

> <Gold.Chemscore.Hbond>
2.0791

> <Gold.Chemscore.Metal>
0.0000

> <Gold.Chemscore.Lipo>
104.0115

> <Gold.Chemscore.Internal_Hbond>
0.0000

> <Gold.Chemscore.DEClash>
1.8919

> <Gold.Chemscore.DEInternal>
1.7510

> <Gold.Chemscore.Rot>
1.3455

> <Gold.Chemscore.Internal.Correction>
   9.000000E+99

> <Gold.Chemscore.Hbonds>
donor molecule, donor type, donor heavy atom, donor atom, acceptor molecule, acceptor atom, score
      L1  H     3    23       P1  7948  0.78
      L1  H    10    28       P1  7948  0.99
      P1  H 10785 10796       L1     7  0.13

> <Gold.Chemscore.Hbond.Weighted>
-6.9443

> <Gold.Chemscore.Metal.Weighted>
-0.0000

> <Gold.Chemscore.Lipo.Weighted>
-12.1693

> <Gold.Chemscore.Internal_Hbond.Weighted>
0.0000

> <Gold.Chemscore.DEClash.Weighted>
1.8919

> <Gold.Chemscore.DEInternal.Weighted>
1.7510

> <Gold.Chemscore.Rot.Weighted>
3.4445

> <Gold.Chemscore.Internal.Correction.Weighted>
   9.000000E+99

> <Gold.Protein.RotatedTorsions>
[ 6907 6896 6895 6894 ] final   -0.12 input  -60.11 | X-H torsion
[ 7974 7965 7964 7962 ] final   94.92 input  175.53 | X-H torsion
[ 8008 7997 7996 7995 ] final  -85.58 input   59.86 | X-H torsion
[ 10167 10162 10161 10158 ] final   82.55 input  -65.29 | X-H torsion
[ 10718 10713 10712 10709 ] final -141.45 input   66.30 | X-H torsion
[ 10763 10752 10751 10750 ] final   60.49 input  -60.55 | X-H torsion
[ 11005 11000 10999 10996 ] final  167.40 input  -57.11 | X-H torsion

> <Gold.Protein.ActiveResidues>
 VAL166  LYS551  ARG553  GLY616  TRP617  ASP618  TYR619  PRO620  LYS621  CYS622 
 ASP623  PHE694  ASN695  SER759  ASP760  ASP761  ALA762  ILE779  LEU786  VAL792 
 PHE793  MET794  SER795  GLU796  ALA797  LYS798  CYS799  TRP800  GLU811  SER814 

> <Gold.Protein.RotatedAtoms>
  151.5673  135.1063  159.9986 H   0  0  0  0  0  0  0  0  0  0  0  0  # atno 6907 bound_to 6896
  152.4418  133.7457  159.6676 H   0  0  0  0  0  0  0  0  0  0  0  0  # atno 6908 bound_to 6896
  150.8325  133.7999  159.3116 H   0  0  0  0  0  0  0  0  0  0  0  0  # atno 6909 bound_to 6896
  145.4592  139.2288  143.2997 H   0  0  0  0  0  0  0  0  0  0  0  0  # atno 7974 bound_to 7965
  154.6423  140.0589  156.9860 H   0  0  0  0  0  0  0  0  0  0  0  0  # atno 8008 bound_to 7997
  155.1498  140.3273  155.4415 H   0  0  0  0  0  0  0  0  0  0  0  0  # atno 8009 bound_to 7997
  156.2537  140.1949  156.6610 H   0  0  0  0  0  0  0  0  0  0  0  0  # atno 8010 bound_to 7997
  139.9276  144.6172  150.8377 H   0  0  0  0  0  0  0  0  0  0  0  0  # atno 10167 bound_to 10162
  156.3341  130.7602  151.1726 H   0  0  0  0  0  0  0  0  0  0  0  0  # atno 10718 bound_to 10713
  152.9923  135.5534  154.5882 H   0  0  0  0  0  0  0  0  0  0  0  0  # atno 10763 bound_to 10752
  154.5249  135.2810  155.1232 H   0  0  0  0  0  0  0  0  0  0  0  0  # atno 10764 bound_to 10752
  154.2571  135.6388  153.5314 H   0  0  0  0  0  0  0  0  0  0  0  0  # atno 10765 bound_to 10752
  140.2764  134.7785  157.3721 H   0  0  0  0  0  0  0  0  0  0  0  0  # atno 11005 bound_to 11000
  146.2461  140.5359  142.8913 LP  0  0  0  0  0  0  0  0  0  0  0  0  # atno 17320 bound_to 7965
  144.8013  140.6219  143.6476 LP  0  0  0  0  0  0  0  0  0  0  0  0  # atno 17321 bound_to 7965
  140.7646  143.3252  151.2531 LP  0  0  0  0  0  0  0  0  0  0  0  0  # atno 17342 bound_to 10162
  139.6809  143.9857  152.2808 LP  0  0  0  0  0  0  0  0  0  0  0  0  # atno 17343 bound_to 10162
  157.7435  131.0473  150.4936 LP  0  0  0  0  0  0  0  0  0  0  0  0  # atno 17370 bound_to 10713
  156.5107  130.4138  149.6303 LP  0  0  0  0  0  0  0  0  0  0  0  0  # atno 17371 bound_to 10713
  140.1324  134.5078  155.8095 LP  0  0  0  0  0  0  0  0  0  0  0  0  # atno 17394 bound_to 11000
  141.2169  133.6795  156.7063 LP  0  0  0  0  0  0  0  0  0  0  0  0  # atno 17395 bound_to 11000

$$$$
