AV-unprocessed.smi:1803|AV-procd|sdf|7294|dock5
  -GOLD-   22720 8553D 1   1.00000     0.00000
 Structure written by MMmdl.
 35 37  0  0  0  0  0  0  0  0  3 V2000
  151.1338  141.2514  157.8484 O   0  0  0  0  0  0  0  0  0  0  0  0
  150.5723  142.3086  157.5651 C   0  0  0  0  0  0  0  0  0  0  0  0
  150.8703  143.4955  158.1550 N   0  5  0  0  0  0  0  0  0  0  0  0
  151.3927  143.5797  159.3927 C   0  0  0  0  0  0  0  0  0  0  0  0
  151.5116  142.5129  160.1995 N   0  0  0  0  0  0  0  0  0  0  0  0
  152.0662  142.8216  161.4339 N   0  0  0  0  0  0  0  0  0  0  0  0
  152.3678  144.1169  161.5211 C   0  0  0  0  0  0  0  0  0  0  0  0
  151.9903  145.0792  160.1079 S   0  0  0  0  0  0  0  0  0  0  0  0
  149.6099  142.3009  156.6238 N   0  0  0  0  0  0  0  0  0  0  0  0
  149.1583  141.1355  155.8737 C   0  0  1  0  0  0  0  0  0  0  0  0
  147.7924  141.3196  155.1937 C   0  0  0  0  0  0  0  0  0  0  0  0
  147.9252  140.6342  153.8196 C   0  0  0  0  0  0  0  0  0  0  0  0
  149.2660  140.0060  153.7850 N   0  3  2  0  0  0  0  0  0  0  0  0
  149.2158  138.5591  154.1320 C   0  0  0  0  0  0  0  0  0  0  0  0
  150.6156  137.9632  154.3301 C   0  0  0  0  0  0  0  0  0  0  0  0
  151.3647  138.7259  155.4257 C   0  0  0  0  0  0  0  0  0  0  0  0
  151.4595  140.2071  155.0441 C   0  0  0  0  0  0  0  0  0  0  0  0
  150.0902  140.8337  154.6978 C   0  0  2  0  0  0  0  0  0  0  0  0
  152.8134  144.5081  162.4235 H   0  0  0  0  0  0  0  0  0  0  0  0
  149.1594  143.1803  156.4164 H   0  0  0  0  0  0  0  0  0  0  0  0
  149.1173  140.2693  156.5363 H   0  0  0  0  0  0  0  0  0  0  0  0
  146.9977  140.8743  155.7932 H   0  0  0  0  0  0  0  0  0  0  0  0
  147.5494  142.3749  155.0606 H   0  0  0  0  0  0  0  0  0  0  0  0
  147.1223  139.9205  153.6292 H   0  0  0  0  0  0  0  0  0  0  0  0
  147.8808  141.3868  153.0316 H   0  0  0  0  0  0  0  0  0  0  0  0
  148.6303  138.4152  155.0417 H   0  0  0  0  0  0  0  0  0  0  0  0
  148.6939  138.0228  153.3387 H   0  0  0  0  0  0  0  0  0  0  0  0
  150.5364  136.9094  154.5988 H   0  0  0  0  0  0  0  0  0  0  0  0
  151.1756  138.0052  153.3949 H   0  0  0  0  0  0  0  0  0  0  0  0
  150.8496  138.6138  156.3804 H   0  0  0  0  0  0  0  0  0  0  0  0
  152.3633  138.3093  155.5603 H   0  0  0  0  0  0  0  0  0  0  0  0
  151.9410  140.7715  155.8434 H   0  0  0  0  0  0  0  0  0  0  0  0
  152.1144  140.2986  154.1767 H   0  0  0  0  0  0  0  0  0  0  0  0
  150.2825  141.7737  154.1760 H   0  0  0  0  0  0  0  0  0  0  0  0
  149.6457  140.0779  152.8520 H   0  0  0  0  0  0  0  0  0  0  0  0
  1  2  2  0  0  0  0
  2  3  1  0  0  0  0
  2  9  1  0  0  0  0
  3  4  1  0  0  0  0
  4  8  1  0  0  0  0
  4  5  2  0  0  0  0
  5  6  1  0  0  0  0
  6  7  2  0  0  0  0
  7  8  1  0  0  0  0
  7 19  1  0  0  0  0
  9 10  1  0  0  0  0
  9 20  1  0  0  0  0
 10 18  1  0  0  0  0
 10 11  1  0  0  0  0
 10 21  1  0  0  0  0
 11 12  1  0  0  0  0
 11 22  1  0  0  0  0
 11 23  1  0  0  0  0
 12 13  1  0  0  0  0
 12 24  1  0  0  0  0
 12 25  1  0  0  0  0
 13 18  1  0  0  0  0
 13 14  1  0  0  0  0
 13 35  1  0  0  0  0
 14 15  1  0  0  0  0
 14 26  1  0  0  0  0
 14 27  1  0  0  0  0
 15 16  1  0  0  0  0
 15 28  1  0  0  0  0
 15 29  1  0  0  0  0
 16 17  1  0  0  0  0
 16 30  1  0  0  0  0
 16 31  1  0  0  0  0
 17 18  1  0  0  0  0
 17 32  1  0  0  0  0
 17 33  1  0  0  0  0
 18 34  1  0  0  0  0
M  CHG  1   3  -1
M  CHG  1  13   1
M  END
> <s_m_source_file>
AV-unprocessed.smi

> <i_m_source_file_index>
1803

> <i_lp_mmshare_version>
43012

> <i_f3d_flags>
0

> <s_epik_input>
czFbY0hdbm5jMVtOSF1DKD1PKVtOSF1bQ0BIXShbQ0gyXVtDSDJdMilbQ0BASF0oTjIzKVtDSDJdW0NIMl1bQ0gyXVtDSDJdMw==

> <s_epik_cmdline>
J2VwaWtfcHl0aG9uJywgJy1waCcsICc3LjAnLCAnLXRuJywgJzgnLCAnLW1hJywgJzIwMCcsICctbWV0YWxfYmluZGluZycsICctaW1hZScsICc8aW5maWxlLm1hZT4nLCAnLW9tYWUnLCAnPG91dGZpbGUubWFlPic=

> <r_lp_tautomer_probability>
1

> <r_epik_Ionization_Penalty>
3.78828

> <r_epik_Ionization_Penalty_Charging>
3.7591

> <r_epik_Ionization_Penalty_Neutral>
0.0291838

> <r_epik_State_Penalty>
3.757

> <r_epik_Charging_Adjusted_Penalty>
7.51609

> <i_epik_Tot_Q>
0

> <i_epik_Tot_abs_Q>
2

> <r_epik_Metal_State_Penalty>
0.558016

> <b_epik_Metal_Only>
1

> <s_lp_Force_Field>
OPLS_2005

> <r_lp_Energy>
31.4395

> <b_lp_Chiralities_Consistent>
1

> <s_lp_Variant>
AV-unprocessed.smi:1803-16

> <Gold.Version>
5.8.1

> <Gold.Id.Protein>
6NUR|6NUR_protein|mol2

> <Gold.PLP.Fitness>
38.1246

> <Gold.PLP.PLP>
-32.8483

> <Gold.PLP.part.hbond>
-4.0000

> <Gold.PLP.part.metal>
0.0000

> <Gold.PLP.part.buried>
-0.1443

> <Gold.PLP.part.nonpolar>
-28.9291

> <Gold.PLP.part.repulsive>
0.4949

> <Gold.PLP.ligand.clash>
0.0000

> <Gold.PLP.ligand.torsion>
0.4322

> <Gold.PLP.Chemscore.Hbond>
2.0437

> <Gold.PLP.Chemscore.CHOScore>
0.0000

> <Gold.PLP.Chemscore.Metal>
0.0000

> <Gold.Chemscore.Hbonds>
donor molecule, donor type, donor heavy atom, donor atom, acceptor molecule, acceptor atom, score
      L1  H     9    20       P1  8028  1.00
      L1  H    13    35       P1  7957  1.00

> <Gold.PLP.Chemscore.Internal.Correction>
0.0095

> <Gold.Rescore>
     Score         DG    S(hbond)    S(metal)    S(lipo)     H(rot)  DE(clash)    DE(int)     intcor
     14.60     -18.11       1.97        0.00      73.50       1.00       0.62       2.89       ----

> <Gold.Chemscore.Fitness>
14.6023

> <Gold.Chemscore.DG>
-18.1103

> <Gold.Chemscore.ZeroCoef>
-5.4800

> <Gold.Chemscore.Hbond>
1.9731

> <Gold.Chemscore.Metal>
0.0000

> <Gold.Chemscore.Lipo>
73.5046

> <Gold.Chemscore.Internal_Hbond>
0.0000

> <Gold.Chemscore.DEClash>
0.6181

> <Gold.Chemscore.DEInternal>
2.8898

> <Gold.Chemscore.Rot>
1.0000

> <Gold.Chemscore.Internal.Correction>
   9.000000E+99

> <Gold.Chemscore.Hbonds>
donor molecule, donor type, donor heavy atom, donor atom, acceptor molecule, acceptor atom, score
      L1  H     9    20       P1  8028  0.99
      L1  H    13    35       P1  7957  0.99

> <Gold.Chemscore.Hbond.Weighted>
-6.5902

> <Gold.Chemscore.Metal.Weighted>
-0.0000

> <Gold.Chemscore.Lipo.Weighted>
-8.6000

> <Gold.Chemscore.Internal_Hbond.Weighted>
0.0000

> <Gold.Chemscore.DEClash.Weighted>
0.6181

> <Gold.Chemscore.DEInternal.Weighted>
2.8898

> <Gold.Chemscore.Rot.Weighted>
2.5600

> <Gold.Chemscore.Internal.Correction.Weighted>
   9.000000E+99

> <Gold.Protein.RotatedTorsions>
[ 6907 6896 6895 6894 ] final -125.44 input  -60.11 | X-H torsion
[ 7974 7965 7964 7962 ] final  -33.49 input  175.53 | X-H torsion
[ 8008 7997 7996 7995 ] final  -28.89 input   59.86 | X-H torsion
[ 10167 10162 10161 10158 ] final   57.74 input  -65.29 | X-H torsion
[ 10718 10713 10712 10709 ] final   76.33 input   66.30 | X-H torsion
[ 10763 10752 10751 10750 ] final   20.86 input  -60.55 | X-H torsion
[ 11005 11000 10999 10996 ] final -179.34 input  -57.11 | X-H torsion

> <Gold.Protein.ActiveResidues>
 VAL166  LYS551  ARG553  GLY616  TRP617  ASP618  TYR619  PRO620  LYS621  CYS622 
 ASP623  PHE694  ASN695  SER759  ASP760  ASP761  ALA762  ILE779  LEU786  VAL792 
 PHE793  MET794  SER795  GLU796  ALA797  LYS798  CYS799  TRP800  GLU811  SER814 

> <Gold.Protein.RotatedAtoms>
  150.8868  133.7297  159.2915 H   0  0  0  0  0  0  0  0  0  0  0  0  # atno 6907 bound_to 6896
  151.4860  135.1053  159.9800 H   0  0  0  0  0  0  0  0  0  0  0  0  # atno 6908 bound_to 6896
  152.4795  133.8173  159.7090 H   0  0  0  0  0  0  0  0  0  0  0  0  # atno 6909 bound_to 6896
  146.0906  140.5923  142.8866 H   0  0  0  0  0  0  0  0  0  0  0  0  # atno 7974 bound_to 7965
  154.4313  140.1833  156.1161 H   0  0  0  0  0  0  0  0  0  0  0  0  # atno 8008 bound_to 7997
  156.0180  140.3344  155.6983 H   0  0  0  0  0  0  0  0  0  0  0  0  # atno 8009 bound_to 7997
  155.6017  140.0641  157.2722 H   0  0  0  0  0  0  0  0  0  0  0  0  # atno 8010 bound_to 7997
  140.1947  144.4049  150.6555 H   0  0  0  0  0  0  0  0  0  0  0  0  # atno 10167 bound_to 10162
  157.6669  130.9769  150.1481 H   0  0  0  0  0  0  0  0  0  0  0  0  # atno 10718 bound_to 10713
  153.1043  135.6680  153.9616 H   0  0  0  0  0  0  0  0  0  0  0  0  # atno 10763 bound_to 10752
  153.9178  135.3018  155.3449 H   0  0  0  0  0  0  0  0  0  0  0  0  # atno 10764 bound_to 10752
  154.7464  135.5055  153.9287 H   0  0  0  0  0  0  0  0  0  0  0  0  # atno 10765 bound_to 10752
  140.4197  134.6617  157.4657 H   0  0  0  0  0  0  0  0  0  0  0  0  # atno 11005 bound_to 11000
  144.7357  140.4802  143.6905 LP  0  0  0  0  0  0  0  0  0  0  0  0  # atno 17320 bound_to 7965
  145.6046  139.1507  143.3110 LP  0  0  0  0  0  0  0  0  0  0  0  0  # atno 17321 bound_to 7965
  140.6431  143.2208  151.6245 LP  0  0  0  0  0  0  0  0  0  0  0  0  # atno 17342 bound_to 10162
  139.5241  144.3113  152.0990 LP  0  0  0  0  0  0  0  0  0  0  0  0  # atno 17343 bound_to 10162
  156.2287  130.3680  149.8470 LP  0  0  0  0  0  0  0  0  0  0  0  0  # atno 17370 bound_to 10713
  156.6303  130.8663  151.3494 LP  0  0  0  0  0  0  0  0  0  0  0  0  # atno 17371 bound_to 10713
  140.0209  134.6549  155.9241 LP  0  0  0  0  0  0  0  0  0  0  0  0  # atno 17394 bound_to 11000
  141.1789  133.6543  156.4939 LP  0  0  0  0  0  0  0  0  0  0  0  0  # atno 17395 bound_to 11000

$$$$
