AV-unprocessed.smi:1543|AV-procd|sdf|6206|dock1
  -GOLD-   22720 6373D 1   1.00000     0.00000
 Structure written by MMmdl.
 48 49  0  0  0  0  0  0  0  0  1 V2000
  152.9528  138.5688  154.7075 C   0  0  0  0  0  0  0  0  0  0  0  0
  151.4421  138.5182  154.4565 C   0  0  1  0  0  0  0  0  0  0  0  0
  150.7253  137.5481  155.4138 C   0  0  0  0  0  0  0  0  0  0  0  0
  149.2720  137.5497  155.2150 N   0  0  0  0  0  0  0  0  0  0  0  0
  148.5281  136.5394  156.0197 C   0  0  0  0  0  0  0  0  0  0  0  0
  148.8837  136.5840  157.5256 C   0  0  0  0  0  0  0  0  0  0  0  0
  146.9974  136.7558  155.9067 C   0  0  0  0  0  0  0  0  0  0  0  0
  148.8080  135.0885  155.5268 C   0  0  0  0  0  0  0  0  0  0  0  0
  148.3604  134.8567  154.1534 N   0  0  0  0  0  0  0  0  0  0  0  0
  147.2607  134.1833  153.7884 C   0  0  0  0  0  0  0  0  0  0  0  0
  146.4821  133.6651  154.5882 O   0  0  0  0  0  0  0  0  0  0  0  0
  147.1230  134.1762  152.4513 N   0  0  0  0  0  0  0  0  0  0  0  0
  146.1106  133.5647  151.6632 C   0  0  0  0  0  0  0  0  0  0  0  0
  144.7419  133.5038  152.0227 C   0  0  0  0  0  0  0  0  0  0  0  0
  143.8414  132.8501  151.1596 C   0  0  0  0  0  0  0  0  0  0  0  0
  144.3408  132.2767  149.9741 C   0  0  0  0  0  0  0  0  0  0  0  0
  145.6436  132.3168  149.6247 N   0  0  0  0  0  0  0  0  0  0  0  0
  146.5013  132.9447  150.4572 C   0  0  0  0  0  0  0  0  0  0  0  0
  148.7849  138.9270  155.3505 C   0  0  0  0  0  0  0  0  0  0  0  0
  149.5111  139.8987  154.4010 C   0  0  1  0  0  0  0  0  0  0  0  0
  149.0627  141.3499  154.6048 C   0  0  0  0  0  0  0  0  0  0  0  0
  150.9130  139.8270  154.6382 O   0  0  0  0  0  0  0  0  0  0  0  0
  153.4066  137.5876  154.5660 H   0  0  0  0  0  0  0  0  0  0  0  0
  153.1733  138.8965  155.7237 H   0  0  0  0  0  0  0  0  0  0  0  0
  153.4387  139.2619  154.0204 H   0  0  0  0  0  0  0  0  0  0  0  0
  151.2702  138.2063  153.4249 H   0  0  0  0  0  0  0  0  0  0  0  0
  151.1382  136.5549  155.2484 H   0  0  0  0  0  0  0  0  0  0  0  0
  150.9641  137.8228  156.4414 H   0  0  0  0  0  0  0  0  0  0  0  0
  148.3176  135.8364  158.0825 H   0  0  0  0  0  0  0  0  0  0  0  0
  148.6535  137.5491  157.9763 H   0  0  0  0  0  0  0  0  0  0  0  0
  149.9383  136.3767  157.7062 H   0  0  0  0  0  0  0  0  0  0  0  0
  146.4425  135.9223  156.3387 H   0  0  0  0  0  0  0  0  0  0  0  0
  146.6792  136.8538  154.8682 H   0  0  0  0  0  0  0  0  0  0  0  0
  146.6651  137.6479  156.4373 H   0  0  0  0  0  0  0  0  0  0  0  0
  149.8728  134.8612  155.5699 H   0  0  0  0  0  0  0  0  0  0  0  0
  148.3522  134.3652  156.2056 H   0  0  0  0  0  0  0  0  0  0  0  0
  148.9302  135.2594  153.4240 H   0  0  0  0  0  0  0  0  0  0  0  0
  147.8033  134.7148  151.9352 H   0  0  0  0  0  0  0  0  0  0  0  0
  144.3669  133.9283  152.9407 H   0  0  0  0  0  0  0  0  0  0  0  0
  142.7912  132.7862  151.4029 H   0  0  0  0  0  0  0  0  0  0  0  0
  143.6770  131.7674  149.2913 H   0  0  0  0  0  0  0  0  0  0  0  0
  147.5359  132.9549  150.1461 H   0  0  0  0  0  0  0  0  0  0  0  0
  147.7202  138.9841  155.1308 H   0  0  0  0  0  0  0  0  0  0  0  0
  148.9155  139.2718  156.3765 H   0  0  0  0  0  0  0  0  0  0  0  0
  149.3127  139.6137  153.3664 H   0  0  0  0  0  0  0  0  0  0  0  0
  147.9936  141.4600  154.4217 H   0  0  0  0  0  0  0  0  0  0  0  0
  149.5874  142.0189  153.9225 H   0  0  0  0  0  0  0  0  0  0  0  0
  149.2645  141.6863  155.6223 H   0  0  0  0  0  0  0  0  0  0  0  0
  1  2  1  0  0  0  0
  1 23  1  0  0  0  0
  1 24  1  0  0  0  0
  1 25  1  0  0  0  0
  2 22  1  0  0  0  0
  2  3  1  0  0  0  0
  2 26  1  0  0  0  0
  3  4  1  0  0  0  0
  3 27  1  0  0  0  0
  3 28  1  0  0  0  0
  4  5  1  0  0  0  0
  4 19  1  0  0  0  0
  5  6  1  0  0  0  0
  5  7  1  0  0  0  0
  5  8  1  0  0  0  0
  6 29  1  0  0  0  0
  6 30  1  0  0  0  0
  6 31  1  0  0  0  0
  7 32  1  0  0  0  0
  7 33  1  0  0  0  0
  7 34  1  0  0  0  0
  8  9  1  0  0  0  0
  8 35  1  0  0  0  0
  8 36  1  0  0  0  0
  9 10  1  0  0  0  0
  9 37  1  0  0  0  0
 10 11  2  0  0  0  0
 10 12  1  0  0  0  0
 12 13  1  0  0  0  0
 12 38  1  0  0  0  0
 13 18  1  0  0  0  0
 13 14  2  0  0  0  0
 14 15  1  0  0  0  0
 14 39  1  0  0  0  0
 15 16  2  0  0  0  0
 15 40  1  0  0  0  0
 16 17  1  0  0  0  0
 16 41  1  0  0  0  0
 17 18  2  0  0  0  0
 18 42  1  0  0  0  0
 19 20  1  0  0  0  0
 19 43  1  0  0  0  0
 19 44  1  0  0  0  0
 20 21  1  0  0  0  0
 20 22  1  0  0  0  0
 20 45  1  0  0  0  0
 21 46  1  0  0  0  0
 21 47  1  0  0  0  0
 21 48  1  0  0  0  0
M  END
> <s_m_source_file>
AV-unprocessed.smi

> <i_m_source_file_index>
1543

> <i_lp_mmshare_version>
43012

> <i_f3d_flags>
0

> <s_epik_input>
W0NIM11bQ0BASF0xW0NIMl1OKFtDSDJdW0NASF0oTzEpW0NIM10pQyhbQ0gzXSkoW0NIM10pW0NIMl1bTkhdQyg9TylbTkhdYzJbY0hdW2NIXVtjSF1uW2NIXTI=

> <s_epik_cmdline>
J2VwaWtfcHl0aG9uJywgJy1waCcsICc3LjAnLCAnLXRuJywgJzgnLCAnLW1hJywgJzIwMCcsICctbWV0YWxfYmluZGluZycsICctaW1hZScsICc8aW5maWxlLm1hZT4nLCAnLW9tYWUnLCAnPG91dGZpbGUubWFlPic=

> <r_epik_Ionization_Penalty>
0.270794

> <r_epik_Ionization_Penalty_Charging>
0

> <r_epik_Ionization_Penalty_Neutral>
0.270794

> <r_epik_State_Penalty>
0.268291

> <r_epik_Charging_Adjusted_Penalty>
0.268291

> <i_epik_Tot_Q>
0

> <i_epik_Tot_abs_Q>
0

> <r_epik_Metal_State_Penalty>
0.264827

> <b_epik_Metal_Only>
0

> <s_lp_Force_Field>
OPLS_2005

> <r_lp_Energy>
43.3582

> <b_lp_Chiralities_Consistent>
1

> <s_lp_Variant>
AV-unprocessed.smi:1543-2

> <Gold.Version>
5.8.1

> <Gold.Id.Protein>
6NUR|6NUR_protein|mol2

> <Gold.PLP.Fitness>
44.5942

> <Gold.PLP.PLP>
-34.3498

> <Gold.PLP.part.hbond>
-3.0000

> <Gold.PLP.part.metal>
0.0000

> <Gold.PLP.part.buried>
-6.4505

> <Gold.PLP.part.nonpolar>
-25.7181

> <Gold.PLP.part.repulsive>
0.4291

> <Gold.PLP.ligand.clash>
0.0000

> <Gold.PLP.ligand.torsion>
0.6556

> <Gold.PLP.Chemscore.Hbond>
2.9600

> <Gold.PLP.Chemscore.CHOScore>
0.8453

> <Gold.PLP.Chemscore.Metal>
0.0000

> <Gold.Chemscore.Hbonds>
donor molecule, donor type, donor heavy atom, donor atom, acceptor molecule, acceptor atom, score
      L1  H     9    37       P1  7948  0.94
      L1  H    12    38       P1  7948  1.00
      P1  H  7989  7998       L1    22  1.00
      L1  C    18    42       P1 10747  0.84

> <Gold.PLP.Chemscore.Internal.Correction>
0.1397

> <Gold.Rescore>
     Score         DG    S(hbond)    S(metal)    S(lipo)     H(rot)  DE(clash)    DE(int)     intcor
     18.31     -19.00       2.18        0.00      84.71       1.43       0.00       0.69       ----

> <Gold.Chemscore.Fitness>
18.3061

> <Gold.Chemscore.DG>
-18.9981

> <Gold.Chemscore.ZeroCoef>
-5.4800

> <Gold.Chemscore.Hbond>
2.1754

> <Gold.Chemscore.Metal>
0.0000

> <Gold.Chemscore.Lipo>
84.7080

> <Gold.Chemscore.Internal_Hbond>
0.0000

> <Gold.Chemscore.DEClash>
0.0021

> <Gold.Chemscore.DEInternal>
0.6898

> <Gold.Chemscore.Rot>
1.4291

> <Gold.Chemscore.Internal.Correction>
   9.000000E+99

> <Gold.Chemscore.Hbonds>
donor molecule, donor type, donor heavy atom, donor atom, acceptor molecule, acceptor atom, score
      L1  H     9    37       P1  7948  0.56
      L1  H    12    38       P1  7948  0.37
      P1  H  7989  7998       L1    22  0.36

> <Gold.Chemscore.Hbond.Weighted>
-7.2658

> <Gold.Chemscore.Metal.Weighted>
-0.0000

> <Gold.Chemscore.Lipo.Weighted>
-9.9108

> <Gold.Chemscore.Internal_Hbond.Weighted>
0.0000

> <Gold.Chemscore.DEClash.Weighted>
0.0021

> <Gold.Chemscore.DEInternal.Weighted>
0.6898

> <Gold.Chemscore.Rot.Weighted>
3.6586

> <Gold.Chemscore.Internal.Correction.Weighted>
   9.000000E+99

> <Gold.Protein.RotatedTorsions>
[ 6907 6896 6895 6894 ] final   54.37 input  -60.11 | X-H torsion
[ 7974 7965 7964 7962 ] final  -15.57 input  175.53 | X-H torsion
[ 8008 7997 7996 7995 ] final   74.03 input   59.86 | X-H torsion
[ 10167 10162 10161 10158 ] final -134.42 input  -65.29 | X-H torsion
[ 10718 10713 10712 10709 ] final   16.16 input   66.30 | X-H torsion
[ 10763 10752 10751 10750 ] final    5.31 input  -60.55 | X-H torsion
[ 11005 11000 10999 10996 ] final  -51.27 input  -57.11 | X-H torsion

> <Gold.Protein.ActiveResidues>
 VAL166  LYS551  ARG553  GLY616  TRP617  ASP618  TYR619  PRO620  LYS621  CYS622 
 ASP623  PHE694  ASN695  SER759  ASP760  ASP761  ALA762  ILE779  LEU786  VAL792 
 PHE793  MET794  SER795  GLU796  ALA797  LYS798  CYS799  TRP800  GLU811  SER814 

> <Gold.Protein.RotatedAtoms>
  152.3431  134.7107  160.0257 H   0  0  0  0  0  0  0  0  0  0  0  0  # atno 6907 bound_to 6896
  151.7485  133.3320  159.3393 H   0  0  0  0  0  0  0  0  0  0  0  0  # atno 6908 bound_to 6896
  150.7492  134.6146  159.6148 H   0  0  0  0  0  0  0  0  0  0  0  0  # atno 6909 bound_to 6896
  146.2026  140.3512  142.8418 H   0  0  0  0  0  0  0  0  0  0  0  0  # atno 7974 bound_to 7965
  155.7924  140.3479  155.5356 H   0  0  0  0  0  0  0  0  0  0  0  0  # atno 8008 bound_to 7997
  155.8621  140.0973  157.1627 H   0  0  0  0  0  0  0  0  0  0  0  0  # atno 8009 bound_to 7997
  154.4012  140.1356  156.3960 H   0  0  0  0  0  0  0  0  0  0  0  0  # atno 8010 bound_to 7997
  139.8882  143.6755  152.2616 H   0  0  0  0  0  0  0  0  0  0  0  0  # atno 10167 bound_to 10162
  157.0639  130.6320  149.5791 H   0  0  0  0  0  0  0  0  0  0  0  0  # atno 10718 bound_to 10713
  153.2609  135.6923  153.7580 H   0  0  0  0  0  0  0  0  0  0  0  0  # atno 10763 bound_to 10752
  153.6639  135.3355  155.3136 H   0  0  0  0  0  0  0  0  0  0  0  0  # atno 10764 bound_to 10752
  154.8430  135.4484  154.1598 H   0  0  0  0  0  0  0  0  0  0  0  0  # atno 10765 bound_to 10752
  141.0862  133.6642  156.3853 H   0  0  0  0  0  0  0  0  0  0  0  0  # atno 11005 bound_to 11000
  144.8718  140.7282  143.6042 LP  0  0  0  0  0  0  0  0  0  0  0  0  # atno 17320 bound_to 7965
  145.3431  139.1726  143.4475 LP  0  0  0  0  0  0  0  0  0  0  0  0  # atno 17321 bound_to 7965
  139.7134  144.7616  151.1074 LP  0  0  0  0  0  0  0  0  0  0  0  0  # atno 17342 bound_to 10162
  140.7732  143.5301  150.9433 LP  0  0  0  0  0  0  0  0  0  0  0  0  # atno 17343 bound_to 10162
  155.9970  130.5041  150.7518 LP  0  0  0  0  0  0  0  0  0  0  0  0  # atno 17370 bound_to 10713
  157.4932  131.0912  151.0402 LP  0  0  0  0  0  0  0  0  0  0  0  0  # atno 17371 bound_to 10713
  140.5357  134.6169  157.5364 LP  0  0  0  0  0  0  0  0  0  0  0  0  # atno 17394 bound_to 11000
  139.9681  134.7339  156.0098 LP  0  0  0  0  0  0  0  0  0  0  0  0  # atno 17395 bound_to 11000

$$$$
