AV-unprocessed.smi:2320|AV-procd|sdf|9280|dock1
  -GOLD-   2272012503D 1   1.00000     0.00000
 Structure written by MMmdl.
 41 42  0  0  0  0  0  0  0  0  1 V2000
  152.9943  143.2128  161.1126 C   0  0  0  0  0  0  0  0  0  0  0  0
  152.3967  142.5397  159.8944 C   0  0  0  0  0  0  0  0  0  0  0  0
  152.3096  141.1351  159.8232 C   0  0  0  0  0  0  0  0  0  0  0  0
  151.7524  140.5194  158.6862 C   0  0  0  0  0  0  0  0  0  0  0  0
  151.2764  141.2910  157.6066 C   0  0  0  0  0  0  0  0  0  0  0  0
  150.7479  140.6051  156.5343 O   0  0  0  0  0  0  0  0  0  0  0  0
  150.2074  141.3549  155.4541 C   0  0  0  0  0  0  0  0  0  0  0  0
  149.4651  140.3969  154.5096 C   0  0  1  0  0  0  0  0  0  0  0  0
  149.2775  141.0820  153.2877 O   0  0  0  0  0  0  0  0  0  0  0  0
  150.2661  139.1017  154.2452 C   0  0  0  0  0  0  0  0  0  0  0  0
  149.6137  137.9170  154.8276 N   0  0  0  0  0  0  0  0  0  0  0  0
  148.2203  137.9913  154.9927 C   0  0  0  0  0  0  0  0  0  0  0  0
  147.5426  137.0130  155.4977 N   0  0  0  0  0  0  0  0  0  0  0  0
  148.1972  135.8427  155.8923 C   0  0  0  0  0  0  0  0  0  0  0  0
  147.3088  134.7617  156.4819 C   0  0  0  0  0  0  0  0  0  0  0  0
  149.5436  135.7032  155.7503 C   0  0  0  0  0  0  0  0  0  0  0  0
  150.3100  134.4531  156.1654 C   0  0  0  0  0  0  0  0  0  0  0  0
  150.3280  136.8075  155.1739 C   0  0  0  0  0  0  0  0  0  0  0  0
  151.5485  136.7460  155.0133 O   0  0  0  0  0  0  0  0  0  0  0  0
  151.3663  142.7037  157.6848 C   0  0  0  0  0  0  0  0  0  0  0  0
  151.9235  143.3206  158.8219 C   0  0  0  0  0  0  0  0  0  0  0  0
  153.2884  142.4825  161.8671 H   0  0  0  0  0  0  0  0  0  0  0  0
  152.2703  143.8933  161.5617 H   0  0  0  0  0  0  0  0  0  0  0  0
  153.8779  143.7864  160.8316 H   0  0  0  0  0  0  0  0  0  0  0  0
  152.6684  140.5242  160.6386 H   0  0  0  0  0  0  0  0  0  0  0  0
  151.6905  139.4420  158.6416 H   0  0  0  0  0  0  0  0  0  0  0  0
  149.5119  142.0992  155.8463 H   0  0  0  0  0  0  0  0  0  0  0  0
  150.9968  141.8795  154.9124 H   0  0  0  0  0  0  0  0  0  0  0  0
  148.4858  140.1723  154.9342 H   0  0  0  0  0  0  0  0  0  0  0  0
  149.0004  140.4597  152.6326 H   0  0  0  0  0  0  0  0  0  0  0  0
  150.4583  138.9787  153.1775 H   0  0  0  0  0  0  0  0  0  0  0  0
  151.2634  139.1955  154.6799 H   0  0  0  0  0  0  0  0  0  0  0  0
  147.7581  138.9236  154.6629 H   0  0  0  0  0  0  0  0  0  0  0  0
  147.6152  134.5308  157.5024 H   0  0  0  0  0  0  0  0  0  0  0  0
  147.3665  133.8514  155.8848 H   0  0  0  0  0  0  0  0  0  0  0  0
  146.2647  135.0764  156.5101 H   0  0  0  0  0  0  0  0  0  0  0  0
  150.8463  134.0385  155.3112 H   0  0  0  0  0  0  0  0  0  0  0  0
  149.6681  133.6668  156.5596 H   0  0  0  0  0  0  0  0  0  0  0  0
  151.0403  134.6995  156.9368 H   0  0  0  0  0  0  0  0  0  0  0  0
  151.0136  143.3380  156.8860 H   0  0  0  0  0  0  0  0  0  0  0  0
  151.9860  144.3981  158.8691 H   0  0  0  0  0  0  0  0  0  0  0  0
  1  2  1  0  0  0  0
  1 22  1  0  0  0  0
  1 23  1  0  0  0  0
  1 24  1  0  0  0  0
  2 21  1  0  0  0  0
  2  3  2  0  0  0  0
  3  4  1  0  0  0  0
  3 25  1  0  0  0  0
  4  5  2  0  0  0  0
  4 26  1  0  0  0  0
  5  6  1  0  0  0  0
  5 20  1  0  0  0  0
  6  7  1  0  0  0  0
  7  8  1  0  0  0  0
  7 27  1  0  0  0  0
  7 28  1  0  0  0  0
  8  9  1  0  0  0  0
  8 10  1  0  0  0  0
  8 29  1  0  0  0  0
  9 30  1  0  0  0  0
 10 11  1  0  0  0  0
 10 31  1  0  0  0  0
 10 32  1  0  0  0  0
 11 18  1  0  0  0  0
 11 12  1  0  0  0  0
 12 13  2  0  0  0  0
 12 33  1  0  0  0  0
 13 14  1  0  0  0  0
 14 15  1  0  0  0  0
 14 16  2  0  0  0  0
 15 34  1  0  0  0  0
 15 35  1  0  0  0  0
 15 36  1  0  0  0  0
 16 17  1  0  0  0  0
 16 18  1  0  0  0  0
 17 37  1  0  0  0  0
 17 38  1  0  0  0  0
 17 39  1  0  0  0  0
 18 19  2  0  0  0  0
 20 21  2  0  0  0  0
 20 40  1  0  0  0  0
 21 41  1  0  0  0  0
M  END
> <s_m_source_file>
AV-unprocessed.smi

> <i_m_source_file_index>
2320

> <i_lp_mmshare_version>
43012

> <i_f3d_flags>
0

> <s_epik_input>
W0NIM11jMVtjSF1bY0hdYyhbY0hdW2NIXTEpT1tDSDJdW0NASF0oW09IXSlbQ0gyXW4yW2NIXW5jKFtDSDNdKWMoW0NIM10pYzI9Tw==

> <s_epik_cmdline>
J2VwaWtfcHl0aG9uJywgJy1waCcsICc3LjAnLCAnLXRuJywgJzgnLCAnLW1hJywgJzIwMCcsICctbWV0YWxfYmluZGluZycsICctaW1hZScsICc8aW5maWxlLm1hZT4nLCAnLW9tYWUnLCAnPG91dGZpbGUubWFlPic=

> <r_lp_tautomer_probability>
1

> <r_epik_Ionization_Penalty>
3.74127e-05

> <r_epik_Ionization_Penalty_Charging>
8.43242e-08

> <r_epik_Ionization_Penalty_Neutral>
3.73284e-05

> <r_epik_State_Penalty>
-0

> <r_epik_Charging_Adjusted_Penalty>
8.43242e-08

> <i_epik_Tot_Q>
0

> <i_epik_Tot_abs_Q>
0

> <r_epik_Metal_State_Penalty>
-0

> <b_epik_Metal_Only>
0

> <s_lp_Force_Field>
OPLS_2005

> <r_lp_Energy>
22.1305

> <b_lp_Chiralities_Consistent>
1

> <s_lp_Variant>
AV-unprocessed.smi:2320-2

> <Gold.Version>
5.8.1

> <Gold.Id.Protein>
6NUR|6NUR_protein|mol2

> <Gold.PLP.Fitness>
44.6195

> <Gold.PLP.PLP>
-38.8179

> <Gold.PLP.part.hbond>
-3.5995

> <Gold.PLP.part.metal>
0.0000

> <Gold.PLP.part.buried>
-4.3048

> <Gold.PLP.part.nonpolar>
-30.5436

> <Gold.PLP.part.repulsive>
0.2076

> <Gold.PLP.ligand.clash>
0.0000

> <Gold.PLP.ligand.torsion>
1.2316

> <Gold.PLP.Chemscore.Hbond>
2.7200

> <Gold.PLP.Chemscore.CHOScore>
0.0000

> <Gold.PLP.Chemscore.Metal>
0.0000

> <Gold.Chemscore.Hbonds>
donor molecule, donor type, donor heavy atom, donor atom, acceptor molecule, acceptor atom, score
      L1  H     9    30       P1  7957  0.66
      P1  H  8011  8017       L1     9  1.00
      P1  H 10752 10765       L1    19  1.00

> <Gold.PLP.Chemscore.Internal.Correction>
0.1047

> <Gold.Rescore>
     Score         DG    S(hbond)    S(metal)    S(lipo)     H(rot)  DE(clash)    DE(int)     intcor
     17.40     -18.66       2.19        0.00     101.47       2.35       0.07       1.18       ----

> <Gold.Chemscore.Fitness>
17.4031

> <Gold.Chemscore.DG>
-18.6594

> <Gold.Chemscore.ZeroCoef>
-5.4800

> <Gold.Chemscore.Hbond>
2.1919

> <Gold.Chemscore.Metal>
0.0000

> <Gold.Chemscore.Lipo>
101.4693

> <Gold.Chemscore.Internal_Hbond>
0.0000

> <Gold.Chemscore.DEClash>
0.0729

> <Gold.Chemscore.DEInternal>
1.1834

> <Gold.Chemscore.Rot>
2.3490

> <Gold.Chemscore.Internal.Correction>
   9.000000E+99

> <Gold.Chemscore.Hbonds>
donor molecule, donor type, donor heavy atom, donor atom, acceptor molecule, acceptor atom, score
      L1  H     9    30       P1  7957  0.66
      P1  H  8011  8017       L1     9  0.34
      P1  H 10752 10765       L1    19  1.00

> <Gold.Chemscore.Hbond.Weighted>
-7.3210

> <Gold.Chemscore.Metal.Weighted>
-0.0000

> <Gold.Chemscore.Lipo.Weighted>
-11.8719

> <Gold.Chemscore.Internal_Hbond.Weighted>
0.0000

> <Gold.Chemscore.DEClash.Weighted>
0.0729

> <Gold.Chemscore.DEInternal.Weighted>
1.1834

> <Gold.Chemscore.Rot.Weighted>
6.0136

> <Gold.Chemscore.Internal.Correction.Weighted>
   9.000000E+99

> <Gold.Protein.RotatedTorsions>
[ 6907 6896 6895 6894 ] final   37.80 input  -60.11 | X-H torsion
[ 7974 7965 7964 7962 ] final  -85.18 input  175.53 | X-H torsion
[ 8008 7997 7996 7995 ] final  144.94 input   59.86 | X-H torsion
[ 10167 10162 10161 10158 ] final -141.09 input  -65.29 | X-H torsion
[ 10718 10713 10712 10709 ] final  162.11 input   66.30 | X-H torsion
[ 10763 10752 10751 10750 ] final  173.51 input  -60.55 | X-H torsion
[ 11005 11000 10999 10996 ] final -163.36 input  -57.11 | X-H torsion

> <Gold.Protein.ActiveResidues>
 VAL166  LYS551  ARG553  GLY616  TRP617  ASP618  TYR619  PRO620  LYS621  CYS622 
 ASP623  PHE694  ASN695  SER759  ASP760  ASP761  ALA762  ILE779  LEU786  VAL792 
 PHE793  MET794  SER795  GLU796  ALA797  LYS798  CYS799  TRP800  GLU811  SER814 

> <Gold.Protein.RotatedAtoms>
  152.1480  134.9010  160.0549 H   0  0  0  0  0  0  0  0  0  0  0  0  # atno 6907 bound_to 6896
  152.0053  133.3836  159.4206 H   0  0  0  0  0  0  0  0  0  0  0  0  # atno 6908 bound_to 6896
  150.6872  134.3711  159.5036 H   0  0  0  0  0  0  0  0  0  0  0  0  # atno 6909 bound_to 6896
  145.4967  140.9549  143.1782 H   0  0  0  0  0  0  0  0  0  0  0  0  # atno 7974 bound_to 7965
  156.2896  140.2222  156.5135 H   0  0  0  0  0  0  0  0  0  0  0  0  # atno 8008 bound_to 7997
  154.7588  140.0475  157.0978 H   0  0  0  0  0  0  0  0  0  0  0  0  # atno 8009 bound_to 7997
  155.0016  140.3102  155.4868 H   0  0  0  0  0  0  0  0  0  0  0  0  # atno 8010 bound_to 7997
  139.8218  143.7564  152.2666 H   0  0  0  0  0  0  0  0  0  0  0  0  # atno 10167 bound_to 10162
  157.1272  131.0507  151.2388 H   0  0  0  0  0  0  0  0  0  0  0  0  # atno 10718 bound_to 10713
  154.4410  135.2762  155.1847 H   0  0  0  0  0  0  0  0  0  0  0  0  # atno 10763 bound_to 10752
  154.3713  135.6108  153.5745 H   0  0  0  0  0  0  0  0  0  0  0  0  # atno 10764 bound_to 10752
  152.9841  135.5858  154.4738 H   0  0  0  0  0  0  0  0  0  0  0  0  # atno 10765 bound_to 10752
  140.5989  134.4967  157.5203 H   0  0  0  0  0  0  0  0  0  0  0  0  # atno 11005 bound_to 11000
  144.7803  139.6541  143.7157 LP  0  0  0  0  0  0  0  0  0  0  0  0  # atno 17320 bound_to 7965
  146.2251  139.5707  142.9593 LP  0  0  0  0  0  0  0  0  0  0  0  0  # atno 17321 bound_to 7965
  139.7744  144.7466  151.0177 LP  0  0  0  0  0  0  0  0  0  0  0  0  # atno 17342 bound_to 10162
  140.7813  143.4609  151.0279 LP  0  0  0  0  0  0  0  0  0  0  0  0  # atno 17343 bound_to 10162
  157.4424  130.7552  149.7081 LP  0  0  0  0  0  0  0  0  0  0  0  0  # atno 17370 bound_to 10713
  155.9815  130.4018  150.3465 LP  0  0  0  0  0  0  0  0  0  0  0  0  # atno 17371 bound_to 10713
  139.9241  134.8091  156.1122 LP  0  0  0  0  0  0  0  0  0  0  0  0  # atno 17394 bound_to 11000
  141.0885  133.6724  156.2489 LP  0  0  0  0  0  0  0  0  0  0  0  0  # atno 17395 bound_to 11000

$$$$
