AV-unprocessed.smi:1463|AV-procd|sdf|5934|dock3
  -GOLD-   22720 6 13D 1   1.00000     0.00000
 Structure written by MMmdl.
 46 47  0  0  0  0  0  0  0  0  1 V2000
  149.9046  135.0061  155.9135 C   0  0  0  0  0  0  0  0  0  0  0  0
  150.9668  135.9201  155.7085 O   0  0  0  0  0  0  0  0  0  0  0  0
  150.5200  137.1756  155.2236 C   0  0  0  0  0  0  0  0  0  0  0  0
  151.7361  138.0805  155.0106 C   0  0  0  0  0  0  0  0  0  0  0  0
  151.2646  139.4121  154.8444 O   0  0  0  0  0  0  0  0  0  0  0  0
  151.2725  140.2662  155.9295 C   0  0  0  0  0  0  0  0  0  0  0  0
  152.2244  140.0877  156.8800 N   0  0  0  0  0  0  0  0  0  0  0  0
  152.2503  140.9335  157.9310 C   0  0  0  0  0  0  0  0  0  0  0  0
  151.3426  141.9975  158.0875 C   0  0  0  0  0  0  0  0  0  0  0  0
  150.3537  142.1828  157.1035 C   0  0  0  0  0  0  0  0  0  0  0  0
  150.2985  141.2938  156.0091 C   0  0  0  0  0  0  0  0  0  0  0  0
  149.2647  141.4939  154.9356 C   0  0  0  0  0  0  0  0  0  0  0  0
  149.6476  141.6237  153.7723 O   0  0  0  0  0  0  0  0  0  0  0  0
  147.9538  141.5056  155.2875 N   0  0  0  0  0  0  0  0  0  0  0  0
  147.4276  141.7040  156.6466 C   0  0  0  0  0  0  0  0  0  0  0  0
  146.7785  143.0969  156.7368 C   0  0  0  0  0  0  0  0  0  0  0  0
  145.6761  143.2845  155.6723 C   0  0  0  0  0  0  0  0  0  0  0  0
  145.0934  144.7151  155.7283 C   0  0  0  0  0  0  0  0  0  0  0  0
  144.8586  145.2421  157.1491 C   0  0  0  0  0  0  0  0  0  0  0  0
  145.8045  146.0297  157.6665 N   0  0  0  0  0  0  0  0  0  0  0  0
  143.8444  144.9405  157.7753 O   0  0  0  0  0  0  0  0  0  0  0  0
  146.2137  142.9057  154.2717 C   0  0  0  0  0  0  0  0  0  0  0  0
  146.8794  141.5189  154.2880 C   0  0  0  0  0  0  0  0  0  0  0  0
  150.3017  134.0610  156.2838 H   0  0  0  0  0  0  0  0  0  0  0  0
  149.3705  134.8068  154.9836 H   0  0  0  0  0  0  0  0  0  0  0  0
  149.1961  135.3848  156.6512 H   0  0  0  0  0  0  0  0  0  0  0  0
  149.9967  137.0325  154.2771 H   0  0  0  0  0  0  0  0  0  0  0  0
  149.8200  137.6382  155.9213 H   0  0  0  0  0  0  0  0  0  0  0  0
  152.4151  137.9985  155.8612 H   0  0  0  0  0  0  0  0  0  0  0  0
  152.2750  137.7698  154.1143 H   0  0  0  0  0  0  0  0  0  0  0  0
  153.0218  140.7602  158.6665 H   0  0  0  0  0  0  0  0  0  0  0  0
  151.4044  142.6564  158.9410 H   0  0  0  0  0  0  0  0  0  0  0  0
  149.6447  142.9928  157.1952 H   0  0  0  0  0  0  0  0  0  0  0  0
  146.6918  140.9284  156.8643 H   0  0  0  0  0  0  0  0  0  0  0  0
  148.1821  141.6255  157.4267 H   0  0  0  0  0  0  0  0  0  0  0  0
  146.3622  143.2424  157.7341 H   0  0  0  0  0  0  0  0  0  0  0  0
  147.5478  143.8603  156.6097 H   0  0  0  0  0  0  0  0  0  0  0  0
  144.8786  142.5815  155.9191 H   0  0  0  0  0  0  0  0  0  0  0  0
  145.7773  145.4071  155.2356 H   0  0  0  0  0  0  0  0  0  0  0  0
  144.1606  144.7532  155.1635 H   0  0  0  0  0  0  0  0  0  0  0  0
  145.6974  146.4034  158.5983 H   0  0  0  0  0  0  0  0  0  0  0  0
  146.6256  146.2496  157.1213 H   0  0  0  0  0  0  0  0  0  0  0  0
  145.4072  142.9077  153.5383 H   0  0  0  0  0  0  0  0  0  0  0  0
  146.9371  143.6510  153.9380 H   0  0  0  0  0  0  0  0  0  0  0  0
  147.2333  141.2633  153.2882 H   0  0  0  0  0  0  0  0  0  0  0  0
  146.1442  140.7541  154.5433 H   0  0  0  0  0  0  0  0  0  0  0  0
  1  2  1  0  0  0  0
  1 24  1  0  0  0  0
  1 25  1  0  0  0  0
  1 26  1  0  0  0  0
  2  3  1  0  0  0  0
  3  4  1  0  0  0  0
  3 27  1  0  0  0  0
  3 28  1  0  0  0  0
  4  5  1  0  0  0  0
  4 29  1  0  0  0  0
  4 30  1  0  0  0  0
  5  6  1  0  0  0  0
  6 11  1  0  0  0  0
  6  7  2  0  0  0  0
  7  8  1  0  0  0  0
  8  9  2  0  0  0  0
  8 31  1  0  0  0  0
  9 10  1  0  0  0  0
  9 32  1  0  0  0  0
 10 11  2  0  0  0  0
 10 33  1  0  0  0  0
 11 12  1  0  0  0  0
 12 13  2  0  0  0  0
 12 14  1  0  0  0  0
 14 23  1  0  0  0  0
 14 15  1  0  0  0  0
 15 16  1  0  0  0  0
 15 34  1  0  0  0  0
 15 35  1  0  0  0  0
 16 17  1  0  0  0  0
 16 36  1  0  0  0  0
 16 37  1  0  0  0  0
 17 18  1  0  0  0  0
 17 22  1  0  0  0  0
 17 38  1  0  0  0  0
 18 19  1  0  0  0  0
 18 39  1  0  0  0  0
 18 40  1  0  0  0  0
 19 20  1  0  0  0  0
 19 21  2  0  0  0  0
 20 41  1  0  0  0  0
 20 42  1  0  0  0  0
 22 23  1  0  0  0  0
 22 43  1  0  0  0  0
 22 44  1  0  0  0  0
 23 45  1  0  0  0  0
 23 46  1  0  0  0  0
M  END
> <s_m_source_file>
AV-unprocessed.smi

> <i_m_source_file_index>
1463

> <i_lp_mmshare_version>
43012

> <i_f3d_flags>
0

> <s_epik_input>
W0NIM11PW0NIMl1bQ0gyXU9jMW5bY0hdW2NIXVtjSF1jMUMoPU8pTjJbQ0gyXVtDSDJdW0NIXShbQ0gyXVtDSDJdMilbQ0gyXUMoPU8pW05IMl0=

> <s_epik_cmdline>
J2VwaWtfcHl0aG9uJywgJy1waCcsICc3LjAnLCAnLXRuJywgJzgnLCAnLW1hJywgJzIwMCcsICctbWV0YWxfYmluZGluZycsICctaW1hZScsICc8aW5maWxlLm1hZT4nLCAnLW9tYWUnLCAnPG91dGZpbGUubWFlPic=

> <r_lp_tautomer_probability>
1

> <r_epik_Ionization_Penalty>
2.54873e-06

> <r_epik_Ionization_Penalty_Charging>
0

> <r_epik_Ionization_Penalty_Neutral>
2.54873e-06

> <r_epik_State_Penalty>
-0

> <r_epik_Charging_Adjusted_Penalty>
0

> <i_epik_Tot_Q>
0

> <i_epik_Tot_abs_Q>
0

> <r_epik_Metal_State_Penalty>
-0

> <b_epik_Metal_Only>
0

> <s_lp_Force_Field>
OPLS_2005

> <r_lp_Energy>
26.7295

> <b_lp_Chiralities_Consistent>
1

> <s_lp_Variant>
AV-unprocessed.smi:1463-1

> <Gold.Version>
5.8.1

> <Gold.Id.Protein>
6NUR|6NUR_protein|mol2

> <Gold.PLP.Fitness>
48.9622

> <Gold.PLP.PLP>
-37.8086

> <Gold.PLP.part.hbond>
-5.6992

> <Gold.PLP.part.metal>
0.0000

> <Gold.PLP.part.buried>
-2.5526

> <Gold.PLP.part.nonpolar>
-29.9673

> <Gold.PLP.part.repulsive>
0.6670

> <Gold.PLP.ligand.clash>
0.0000

> <Gold.PLP.ligand.torsion>
2.2277

> <Gold.PLP.Chemscore.Hbond>
4.6313

> <Gold.PLP.Chemscore.CHOScore>
0.0000

> <Gold.PLP.Chemscore.Metal>
0.0000

> <Gold.Chemscore.Hbonds>
donor molecule, donor type, donor heavy atom, donor atom, acceptor molecule, acceptor atom, score
      L1  H    20    42       P1  8029  0.12
      P1  H  7989  7998       L1     5  0.75
      P1  H  7997  8010       L1     7  0.59
      P1  H  8011  8017       L1    13  0.66
      P1  H 10752 10764       L1     2  0.44

> <Gold.PLP.Chemscore.Internal.Correction>
1.7151

> <Gold.Rescore>
     Score         DG    S(hbond)    S(metal)    S(lipo)     H(rot)  DE(clash)    DE(int)     intcor
     12.34     -16.58       2.94        0.00      66.87       2.55       0.93       3.32       ----

> <Gold.Chemscore.Fitness>
12.3388

> <Gold.Chemscore.DG>
-16.5845

> <Gold.Chemscore.ZeroCoef>
-5.4800

> <Gold.Chemscore.Hbond>
2.9396

> <Gold.Chemscore.Metal>
0.0000

> <Gold.Chemscore.Lipo>
66.8680

> <Gold.Chemscore.Internal_Hbond>
0.0000

> <Gold.Chemscore.DEClash>
0.9255

> <Gold.Chemscore.DEInternal>
3.3202

> <Gold.Chemscore.Rot>
2.5536

> <Gold.Chemscore.Internal.Correction>
   9.000000E+99

> <Gold.Chemscore.Hbonds>
donor molecule, donor type, donor heavy atom, donor atom, acceptor molecule, acceptor atom, score
      L1  H    20    42       P1  8029  0.02
      P1  H  7989  7998       L1     5  0.09
      P1  H  7997  8010       L1     7  0.10
      P1  H  8011  8017       L1    13  0.66
      P1  H 10752 10764       L1     2  0.30

> <Gold.Chemscore.Hbond.Weighted>
-9.8182

> <Gold.Chemscore.Metal.Weighted>
-0.0000

> <Gold.Chemscore.Lipo.Weighted>
-7.8236

> <Gold.Chemscore.Internal_Hbond.Weighted>
0.0000

> <Gold.Chemscore.DEClash.Weighted>
0.9255

> <Gold.Chemscore.DEInternal.Weighted>
3.3202

> <Gold.Chemscore.Rot.Weighted>
6.5373

> <Gold.Chemscore.Internal.Correction.Weighted>
   9.000000E+99

> <Gold.Protein.RotatedTorsions>
[ 6907 6896 6895 6894 ] final  168.80 input  -60.11 | X-H torsion
[ 7974 7965 7964 7962 ] final   60.36 input  175.53 | X-H torsion
[ 8008 7997 7996 7995 ] final   71.00 input   59.86 | X-H torsion
[ 10167 10162 10161 10158 ] final   35.61 input  -65.29 | X-H torsion
[ 10718 10713 10712 10709 ] final   49.36 input   66.30 | X-H torsion
[ 10763 10752 10751 10750 ] final  -39.45 input  -60.55 | X-H torsion
[ 11005 11000 10999 10996 ] final  174.55 input  -57.11 | X-H torsion

> <Gold.Protein.ActiveResidues>
 VAL166  LYS551  ARG553  GLY616  TRP617  ASP618  TYR619  PRO620  LYS621  CYS622 
 ASP623  PHE694  ASN695  SER759  ASP760  ASP761  ALA762  ILE779  LEU786  VAL792 
 PHE793  MET794  SER795  GLU796  ALA797  LYS798  CYS799  TRP800  GLU811  SER814 

> <Gold.Protein.RotatedAtoms>
  151.8420  133.3425  159.3645 H   0  0  0  0  0  0  0  0  0  0  0  0  # atno 6907 bound_to 6896
  150.7232  134.5382  159.5743 H   0  0  0  0  0  0  0  0  0  0  0  0  # atno 6908 bound_to 6896
  152.2858  134.7778  160.0439 H   0  0  0  0  0  0  0  0  0  0  0  0  # atno 6909 bound_to 6896
  145.8969  139.3552  143.0616 H   0  0  0  0  0  0  0  0  0  0  0  0  # atno 7974 bound_to 7965
  155.7473  140.3489  155.5133 H   0  0  0  0  0  0  0  0  0  0  0  0  # atno 8008 bound_to 7997
  155.9038  140.1038  157.1351 H   0  0  0  0  0  0  0  0  0  0  0  0  # atno 8009 bound_to 7997
  154.4047  140.1281  156.4457 H   0  0  0  0  0  0  0  0  0  0  0  0  # atno 8010 bound_to 7997
  140.4205  144.1466  150.6147 H   0  0  0  0  0  0  0  0  0  0  0  0  # atno 10167 bound_to 10162
  157.4779  130.8296  149.8060 H   0  0  0  0  0  0  0  0  0  0  0  0  # atno 10718 bound_to 10713
  153.9297  135.6773  153.4746 H   0  0  0  0  0  0  0  0  0  0  0  0  # atno 10763 bound_to 10752
  153.0986  135.4839  154.8822 H   0  0  0  0  0  0  0  0  0  0  0  0  # atno 10764 bound_to 10752
  154.7435  135.3166  154.8644 H   0  0  0  0  0  0  0  0  0  0  0  0  # atno 10765 bound_to 10752
  140.3525  134.7182  157.4278 H   0  0  0  0  0  0  0  0  0  0  0  0  # atno 11005 bound_to 11000
  145.8840  140.9345  143.0587 LP  0  0  0  0  0  0  0  0  0  0  0  0  # atno 17320 bound_to 7965
  144.6733  140.0817  143.7469 LP  0  0  0  0  0  0  0  0  0  0  0  0  # atno 17321 bound_to 7965
  140.4538  143.2476  151.9312 LP  0  0  0  0  0  0  0  0  0  0  0  0  # atno 17342 bound_to 10162
  139.4782  144.5535  151.8349 LP  0  0  0  0  0  0  0  0  0  0  0  0  # atno 17343 bound_to 10162
  156.0106  130.3835  150.2278 LP  0  0  0  0  0  0  0  0  0  0  0  0  # atno 17370 bound_to 10713
  157.0463  131.0050  151.3268 LP  0  0  0  0  0  0  0  0  0  0  0  0  # atno 17371 bound_to 10713
  140.0691  134.5888  155.8662 LP  0  0  0  0  0  0  0  0  0  0  0  0  # atno 17394 bound_to 11000
  141.2008  133.6614  156.5915 LP  0  0  0  0  0  0  0  0  0  0  0  0  # atno 17395 bound_to 11000

$$$$
