AV-unprocessed.smi:1847|AV-procd|sdf|7518|dock1
  -GOLD-   22720 9223D 1   1.00000     0.00000
 Structure written by MMmdl.
 25 26  0  0  0  0  0  0  0  0  1 V2000
  152.6437  139.9324  157.4850 O   0  0  0  0  0  0  0  0  0  0  0  0
  151.7732  140.8013  157.3997 C   0  0  0  0  0  0  0  0  0  0  0  0
  150.5793  140.7458  156.6846 N   0  0  0  0  0  0  0  0  0  0  0  0
  150.3391  139.9628  155.6958 C   0  0  0  0  0  0  0  0  0  0  0  0
  149.0004  140.1010  155.0724 C   0  0  0  0  0  0  0  0  0  0  0  0
  148.6658  139.3289  154.0184 C   0  0  0  0  0  0  0  0  0  0  0  0
  149.5220  138.3847  153.4673 N   0  0  0  0  0  0  0  0  0  0  0  0
  150.7798  138.2105  154.0300 C   0  0  0  0  0  0  0  0  0  0  0  0
  151.2279  138.9234  155.0847 C   0  0  0  0  0  0  0  0  0  0  0  0
  151.8934  142.0898  158.0782 C   0  0  0  0  0  0  0  0  0  0  0  0
  151.1205  143.1299  157.6848 C   0  0  0  0  0  0  0  0  0  0  0  0
  151.1905  144.3849  158.2360 O   0  0  0  0  0  0  0  0  0  0  0  0
  152.3111  144.5984  159.0857 C   0  0  0  0  0  0  0  0  0  0  0  0
  152.5594  143.3619  159.9608 C   0  0  0  0  0  0  0  0  0  0  0  0
  152.7609  142.2154  159.1421 O   0  0  0  0  0  0  0  0  0  0  0  0
  148.3232  140.8320  155.4909 H   0  0  0  0  0  0  0  0  0  0  0  0
  147.7045  139.3931  153.5305 H   0  0  0  0  0  0  0  0  0  0  0  0
  151.3748  137.4468  153.5511 H   0  0  0  0  0  0  0  0  0  0  0  0
  152.2110  138.7350  155.4785 H   0  0  0  0  0  0  0  0  0  0  0  0
  150.4029  143.0954  156.8776 H   0  0  0  0  0  0  0  0  0  0  0  0
  153.1888  144.8151  158.4754 H   0  0  0  0  0  0  0  0  0  0  0  0
  152.1267  145.4752  159.7066 H   0  0  0  0  0  0  0  0  0  0  0  0
  153.4365  143.5093  160.5911 H   0  0  0  0  0  0  0  0  0  0  0  0
  151.7117  143.1859  160.6244 H   0  0  0  0  0  0  0  0  0  0  0  0
  149.2317  137.8279  152.6759 H   0  0  0  0  0  0  0  0  0  0  0  0
  1  2  2  0  0  0  0
  2  3  1  0  0  0  0
  2 10  1  0  0  0  0
  3  4  2  0  0  0  0
  4  9  1  0  0  0  0
  4  5  1  0  0  0  0
  5  6  2  0  0  0  0
  5 16  1  0  0  0  0
  6  7  1  0  0  0  0
  6 17  1  0  0  0  0
  7  8  1  0  0  0  0
  7 25  1  0  0  0  0
  8  9  2  0  0  0  0
  8 18  1  0  0  0  0
  9 19  1  0  0  0  0
 10 15  1  0  0  0  0
 10 11  2  0  0  0  0
 11 12  1  0  0  0  0
 11 20  1  0  0  0  0
 12 13  1  0  0  0  0
 13 14  1  0  0  0  0
 13 21  1  0  0  0  0
 13 22  1  0  0  0  0
 14 15  1  0  0  0  0
 14 23  1  0  0  0  0
 14 24  1  0  0  0  0
M  END
> <s_m_source_file>
AV-unprocessed.smi

> <i_m_source_file_index>
1847

> <i_lp_mmshare_version>
43012

> <i_f3d_flags>
0

> <s_epik_input>
TzFbQ0gyXVtDSDJdT1tDSF09QzFDKD1PKVtOSF1jMltjSF1bY0hdbltjSF1bY0hdMg==

> <s_epik_cmdline>
J2VwaWtfcHl0aG9uJywgJy1waCcsICc3LjAnLCAnLXRuJywgJzgnLCAnLW1hJywgJzIwMCcsICctbWV0YWxfYmluZGluZycsICctaW1hZScsICc8aW5maWxlLm1hZT4nLCAnLW9tYWUnLCAnPG91dGZpbGUubWFlPic=

> <r_epik_Ionization_Penalty>
6.73206

> <r_epik_Ionization_Penalty_Charging>
6.73206

> <r_epik_Ionization_Penalty_Neutral>
0

> <r_epik_State_Penalty>
8.39127

> <r_epik_Charging_Adjusted_Penalty>
15.1233

> <i_epik_Tot_Q>
0

> <i_epik_Tot_abs_Q>
0

> <r_epik_Metal_State_Penalty>
11.2314

> <b_epik_Metal_Only>
1

> <s_lp_Force_Field>
OPLS_2005

> <r_lp_Energy>
18.4122

> <b_lp_Chiralities_Consistent>
1

> <s_lp_Variant>
AV-unprocessed.smi:1847-4

> <Gold.Version>
5.8.1

> <Gold.Id.Protein>
6NUR|6NUR_protein|mol2

> <Gold.PLP.Fitness>
41.2891

> <Gold.PLP.PLP>
-29.8104

> <Gold.PLP.part.hbond>
-3.0000

> <Gold.PLP.part.metal>
0.0000

> <Gold.PLP.part.buried>
-5.1320

> <Gold.PLP.part.nonpolar>
-23.0288

> <Gold.PLP.part.repulsive>
0.2490

> <Gold.PLP.ligand.clash>
0.0000

> <Gold.PLP.ligand.torsion>
0.2559

> <Gold.PLP.Chemscore.Hbond>
2.0000

> <Gold.PLP.Chemscore.CHOScore>
1.9965

> <Gold.PLP.Chemscore.Metal>
0.0000

> <Gold.Chemscore.Hbonds>
donor molecule, donor type, donor heavy atom, donor atom, acceptor molecule, acceptor atom, score
      L1  H     7    25       P1  7948  1.00
      P1  H  7997  8008       L1     1  1.00
      L1  C     8    18       P1  7949  1.00
      L1  C    11    20       P1  8028  1.00

> <Gold.PLP.Chemscore.Internal.Correction>
0.0012

> <Gold.Rescore>
     Score         DG    S(hbond)    S(metal)    S(lipo)     H(rot)  DE(clash)    DE(int)     intcor
     19.84     -21.31       1.97        0.00      79.09       0.00       0.08       1.38       ----

> <Gold.Chemscore.Fitness>
19.8448

> <Gold.Chemscore.DG>
-21.3096

> <Gold.Chemscore.ZeroCoef>
-5.4800

> <Gold.Chemscore.Hbond>
1.9687

> <Gold.Chemscore.Metal>
0.0000

> <Gold.Chemscore.Lipo>
79.0945

> <Gold.Chemscore.Internal_Hbond>
0.0000

> <Gold.Chemscore.DEClash>
0.0811

> <Gold.Chemscore.DEInternal>
1.3837

> <Gold.Chemscore.Rot>
0.0000

> <Gold.Chemscore.Internal.Correction>
   9.000000E+99

> <Gold.Chemscore.Hbonds>
donor molecule, donor type, donor heavy atom, donor atom, acceptor molecule, acceptor atom, score
      L1  H     7    25       P1  7948  0.92
      P1  H  7997  8008       L1     1  0.98

> <Gold.Chemscore.Hbond.Weighted>
-6.5755

> <Gold.Chemscore.Metal.Weighted>
-0.0000

> <Gold.Chemscore.Lipo.Weighted>
-9.2541

> <Gold.Chemscore.Internal_Hbond.Weighted>
0.0000

> <Gold.Chemscore.DEClash.Weighted>
0.0811

> <Gold.Chemscore.DEInternal.Weighted>
1.3837

> <Gold.Chemscore.Rot.Weighted>
0.0000

> <Gold.Chemscore.Internal.Correction.Weighted>
   9.000000E+99

> <Gold.Protein.RotatedTorsions>
[ 6907 6896 6895 6894 ] final   63.62 input  -60.11 | X-H torsion
[ 7974 7965 7964 7962 ] final   43.74 input  175.53 | X-H torsion
[ 8008 7997 7996 7995 ] final  -63.93 input   59.86 | X-H torsion
[ 10167 10162 10161 10158 ] final  -59.76 input  -65.29 | X-H torsion
[ 10718 10713 10712 10709 ] final  109.46 input   66.30 | X-H torsion
[ 10763 10752 10751 10750 ] final   34.19 input  -60.55 | X-H torsion
[ 11005 11000 10999 10996 ] final -102.54 input  -57.11 | X-H torsion

> <Gold.Protein.ActiveResidues>
 VAL166  LYS551  ARG553  GLY616  TRP617  ASP618  TYR619  PRO620  LYS621  CYS622 
 ASP623  PHE694  ASN695  SER759  ASP760  ASP761  ALA762  ILE779  LEU786  VAL792 
 PHE793  MET794  SER795  GLU796  ALA797  LYS798  CYS799  TRP800  GLU811  SER814 

> <Gold.Protein.RotatedAtoms>
  152.4268  134.5854  159.9959 H   0  0  0  0  0  0  0  0  0  0  0  0  # atno 6907 bound_to 6896
  151.5988  133.3353  159.3051 H   0  0  0  0  0  0  0  0  0  0  0  0  # atno 6908 bound_to 6896
  150.8158  134.7375  159.6793 H   0  0  0  0  0  0  0  0  0  0  0  0  # atno 6909 bound_to 6896
  146.0629  139.5152  142.9647 H   0  0  0  0  0  0  0  0  0  0  0  0  # atno 7974 bound_to 7965
  154.4582  140.0964  156.6819 H   0  0  0  0  0  0  0  0  0  0  0  0  # atno 8008 bound_to 7997
  155.5073  140.3475  155.4363 H   0  0  0  0  0  0  0  0  0  0  0  0  # atno 8009 bound_to 7997
  156.0820  140.1375  156.9689 H   0  0  0  0  0  0  0  0  0  0  0  0  # atno 8010 bound_to 7997
  140.6114  143.2388  151.5699 H   0  0  0  0  0  0  0  0  0  0  0  0  # atno 10167 bound_to 10162
  157.6540  131.0914  150.6457 H   0  0  0  0  0  0  0  0  0  0  0  0  # atno 10718 bound_to 10713
  153.0176  135.6367  154.1629 H   0  0  0  0  0  0  0  0  0  0  0  0  # atno 10763 bound_to 10752
  154.1367  135.2837  155.3173 H   0  0  0  0  0  0  0  0  0  0  0  0  # atno 10764 bound_to 10752
  154.6155  135.5542  153.7580 H   0  0  0  0  0  0  0  0  0  0  0  0  # atno 10765 bound_to 10752
  141.1184  133.8567  157.1373 H   0  0  0  0  0  0  0  0  0  0  0  0  # atno 11005 bound_to 11000
  145.6529  141.0259  143.1750 LP  0  0  0  0  0  0  0  0  0  0  0  0  # atno 17320 bound_to 7965
  144.7185  139.8112  143.7390 LP  0  0  0  0  0  0  0  0  0  0  0  0  # atno 17321 bound_to 7965
  139.5364  144.2768  152.1261 LP  0  0  0  0  0  0  0  0  0  0  0  0  # atno 17342 bound_to 10162
  140.1968  144.4697  150.6451 LP  0  0  0  0  0  0  0  0  0  0  0  0  # atno 17343 bound_to 10162
  156.6765  130.4555  149.5641 LP  0  0  0  0  0  0  0  0  0  0  0  0  # atno 17370 bound_to 10713
  156.1960  130.6589  151.1114 LP  0  0  0  0  0  0  0  0  0  0  0  0  # atno 17371 bound_to 10713
  140.0123  134.9982  157.0422 LP  0  0  0  0  0  0  0  0  0  0  0  0  # atno 17394 bound_to 11000
  140.4578  134.1515  155.7188 LP  0  0  0  0  0  0  0  0  0  0  0  0  # atno 17395 bound_to 11000

$$$$
