AV-unprocessed.smi:2477|AV-procd|sdf|9761|dock9
  -GOLD-   2272013403D 1   1.00000     0.00000
 Structure written by MMmdl.
 51 53  0  0  0  0  0  0  0  0  1 V2000
  145.7475  129.5960  151.8898 C   0  0  0  0  0  0  0  0  0  0  0  0
  145.7802  131.0382  151.6335 N   0  0  0  0  0  0  0  0  0  0  0  0
  144.9330  131.5395  150.6313 C   0  0  0  0  0  0  0  0  0  0  0  0
  144.8977  132.8446  150.3290 C   0  0  0  0  0  0  0  0  0  0  0  0
  145.7580  133.7430  151.0609 C   0  0  0  0  0  0  0  0  0  0  0  0
  146.5852  133.2807  152.0327 C   0  0  0  0  0  0  0  0  0  0  0  0
  147.4582  134.0751  152.7982 N   0  0  0  0  0  0  0  0  0  0  0  0
  147.7555  134.0206  154.1095 C   0  0  0  0  0  0  0  0  0  0  0  0
  147.2923  133.2270  154.9278 O   0  0  0  0  0  0  0  0  0  0  0  0
  148.6582  134.9581  154.4286 N   0  0  0  0  0  0  0  0  0  0  0  0
  149.2313  135.1641  155.7559 C   0  0  2  0  0  0  0  0  0  0  0  0
  148.1048  135.3845  156.7834 C   0  0  0  0  0  0  0  0  0  0  0  0
  148.6703  135.6205  158.1924 C   0  0  0  0  0  0  0  0  0  0  0  0
  149.6583  136.7967  158.2049 C   0  0  0  0  0  0  0  0  0  0  0  0
  150.7860  136.5900  157.1800 C   0  0  0  0  0  0  0  0  0  0  0  0
  150.2395  136.3388  155.7622 C   0  0  2  0  0  0  0  0  0  0  0  0
  149.5930  137.5309  155.3244 O   0  0  0  0  0  0  0  0  0  0  0  0
  150.3614  138.3549  154.4554 C   0  0  0  0  0  0  0  0  0  0  0  0
  151.8173  138.4310  154.9262 C   0  0  0  0  0  0  0  0  0  0  0  0
  151.8060  139.4311  156.0869 C   0  0  0  0  0  0  0  0  0  0  0  0
  150.5771  140.3275  155.8685 C   0  0  0  0  0  0  0  0  0  0  0  0
  149.8694  139.7929  154.6171 C   0  0  0  0  0  0  0  0  0  0  0  0
  146.6167  131.8405  152.3571 C   0  0  0  0  0  0  0  0  0  0  0  0
  147.3514  131.3713  153.2300 O   0  0  0  0  0  0  0  0  0  0  0  0
  145.0181  129.0737  151.2698 H   0  0  0  0  0  0  0  0  0  0  0  0
  145.4893  129.3963  152.9310 H   0  0  0  0  0  0  0  0  0  0  0  0
  146.7229  129.1505  151.6896 H   0  0  0  0  0  0  0  0  0  0  0  0
  144.3204  130.8050  150.1288 H   0  0  0  0  0  0  0  0  0  0  0  0
  144.2415  133.2157  149.5557 H   0  0  0  0  0  0  0  0  0  0  0  0
  145.7077  134.7851  150.7946 H   0  0  0  0  0  0  0  0  0  0  0  0
  147.9370  134.7887  152.2679 H   0  0  0  0  0  0  0  0  0  0  0  0
  148.9909  135.5661  153.6946 H   0  0  0  0  0  0  0  0  0  0  0  0
  149.7631  134.2545  156.0424 H   0  0  0  0  0  0  0  0  0  0  0  0
  147.4948  136.2400  156.4897 H   0  0  0  0  0  0  0  0  0  0  0  0
  147.4383  134.5215  156.7975 H   0  0  0  0  0  0  0  0  0  0  0  0
  147.8564  135.8112  158.8923 H   0  0  0  0  0  0  0  0  0  0  0  0
  149.1727  134.7171  158.5408 H   0  0  0  0  0  0  0  0  0  0  0  0
  149.1267  137.7232  157.9836 H   0  0  0  0  0  0  0  0  0  0  0  0
  150.0812  136.9160  159.2027 H   0  0  0  0  0  0  0  0  0  0  0  0
  151.4486  137.4560  157.1771 H   0  0  0  0  0  0  0  0  0  0  0  0
  151.3966  135.7392  157.4851 H   0  0  0  0  0  0  0  0  0  0  0  0
  151.0845  136.0931  155.1162 H   0  0  0  0  0  0  0  0  0  0  0  0
  150.2713  138.0237  153.4199 H   0  0  0  0  0  0  0  0  0  0  0  0
  152.2356  137.4650  155.2087 H   0  0  0  0  0  0  0  0  0  0  0  0
  152.4338  138.8259  154.1176 H   0  0  0  0  0  0  0  0  0  0  0  0
  151.7064  138.8982  157.0334 H   0  0  0  0  0  0  0  0  0  0  0  0
  152.7317  140.0056  156.1312 H   0  0  0  0  0  0  0  0  0  0  0  0
  149.9153  140.2624  156.7331 H   0  0  0  0  0  0  0  0  0  0  0  0
  150.8540  141.3752  155.7474 H   0  0  0  0  0  0  0  0  0  0  0  0
  150.1808  140.3783  153.7509 H   0  0  0  0  0  0  0  0  0  0  0  0
  148.7831  139.8621  154.6840 H   0  0  0  0  0  0  0  0  0  0  0  0
  1  2  1  0  0  0  0
  1 25  1  0  0  0  0
  1 26  1  0  0  0  0
  1 27  1  0  0  0  0
  2 23  1  0  0  0  0
  2  3  1  0  0  0  0
  3  4  2  0  0  0  0
  3 28  1  0  0  0  0
  4  5  1  0  0  0  0
  4 29  1  0  0  0  0
  5  6  2  0  0  0  0
  5 30  1  0  0  0  0
  6  7  1  0  0  0  0
  6 23  1  0  0  0  0
  7  8  1  0  0  0  0
  7 31  1  0  0  0  0
  8  9  2  0  0  0  0
  8 10  1  0  0  0  0
 10 11  1  0  0  0  0
 10 32  1  0  0  0  0
 11 16  1  0  0  0  0
 11 12  1  0  0  0  0
 11 33  1  0  0  0  0
 12 13  1  0  0  0  0
 12 34  1  0  0  0  0
 12 35  1  0  0  0  0
 13 14  1  0  0  0  0
 13 36  1  0  0  0  0
 13 37  1  0  0  0  0
 14 15  1  0  0  0  0
 14 38  1  0  0  0  0
 14 39  1  0  0  0  0
 15 16  1  0  0  0  0
 15 40  1  0  0  0  0
 15 41  1  0  0  0  0
 16 17  1  0  0  0  0
 16 42  1  0  0  0  0
 17 18  1  0  0  0  0
 18 22  1  0  0  0  0
 18 19  1  0  0  0  0
 18 43  1  0  0  0  0
 19 20  1  0  0  0  0
 19 44  1  0  0  0  0
 19 45  1  0  0  0  0
 20 21  1  0  0  0  0
 20 46  1  0  0  0  0
 20 47  1  0  0  0  0
 21 22  1  0  0  0  0
 21 48  1  0  0  0  0
 21 49  1  0  0  0  0
 22 50  1  0  0  0  0
 22 51  1  0  0  0  0
 23 24  2  0  0  0  0
M  END
> <s_m_source_file>
AV-unprocessed.smi

> <i_m_source_file_index>
2477

> <i_lp_mmshare_version>
43012

> <i_f3d_flags>
0

> <s_epik_input>
W0NIM11uMVtjSF1bY0hdW2NIXWMoYzE9TylbTkhdQyg9TylbTkhdW0NAQEhdMltDSDJdW0NIMl1bQ0gyXVtDSDJdW0NASF0yT1tDSF0zW0NIMl1bQ0gyXVtDSDJdW0NIMl0z

> <s_epik_cmdline>
J2VwaWtfcHl0aG9uJywgJy1waCcsICc3LjAnLCAnLXRuJywgJzgnLCAnLW1hJywgJzIwMCcsICctbWV0YWxfYmluZGluZycsICctaW1hZScsICc8aW5maWxlLm1hZT4nLCAnLW9tYWUnLCAnPG91dGZpbGUubWFlPic=

> <r_lp_tautomer_probability>
1

> <r_epik_Ionization_Penalty>
2.40753e-05

> <r_epik_Ionization_Penalty_Charging>
4.84018e-06

> <r_epik_Ionization_Penalty_Neutral>
1.92352e-05

> <r_epik_State_Penalty>
-0

> <r_epik_Charging_Adjusted_Penalty>
4.84018e-06

> <i_epik_Tot_Q>
0

> <i_epik_Tot_abs_Q>
0

> <r_epik_Metal_State_Penalty>
-0

> <b_epik_Metal_Only>
0

> <s_lp_Force_Field>
OPLS_2005

> <r_lp_Energy>
42.349

> <b_lp_Chiralities_Consistent>
1

> <s_lp_Variant>
AV-unprocessed.smi:2477-3

> <Gold.Version>
5.8.1

> <Gold.Id.Protein>
6NUR|6NUR_protein|mol2

> <Gold.PLP.Fitness>
44.9713

> <Gold.PLP.PLP>
-41.1928

> <Gold.PLP.part.hbond>
-2.0000

> <Gold.PLP.part.metal>
0.0000

> <Gold.PLP.part.buried>
-5.2779

> <Gold.PLP.part.nonpolar>
-34.7919

> <Gold.PLP.part.repulsive>
0.2613

> <Gold.PLP.ligand.clash>
0.0000

> <Gold.PLP.ligand.torsion>
1.1276

> <Gold.PLP.Chemscore.Hbond>
2.0000

> <Gold.PLP.Chemscore.CHOScore>
0.0000

> <Gold.PLP.Chemscore.Metal>
0.0000

> <Gold.Chemscore.Hbonds>
donor molecule, donor type, donor heavy atom, donor atom, acceptor molecule, acceptor atom, score
      L1  H     7    31       P1  7948  1.00
      L1  H    10    32       P1  7948  1.00

> <Gold.PLP.Chemscore.Internal.Correction>
0.0337

> <Gold.Rescore>
     Score         DG    S(hbond)    S(metal)    S(lipo)     H(rot)  DE(clash)    DE(int)     intcor
     14.06     -19.12       1.86        0.00      93.14       1.36       0.45       4.62       ----

> <Gold.Chemscore.Fitness>
14.0573

> <Gold.Chemscore.DG>
-19.1194

> <Gold.Chemscore.ZeroCoef>
-5.4800

> <Gold.Chemscore.Hbond>
1.8607

> <Gold.Chemscore.Metal>
0.0000

> <Gold.Chemscore.Lipo>
93.1369

> <Gold.Chemscore.Internal_Hbond>
0.0000

> <Gold.Chemscore.DEClash>
0.4465

> <Gold.Chemscore.DEInternal>
4.6156

> <Gold.Chemscore.Rot>
1.3564

> <Gold.Chemscore.Internal.Correction>
   9.000000E+99

> <Gold.Chemscore.Hbonds>
donor molecule, donor type, donor heavy atom, donor atom, acceptor molecule, acceptor atom, score
      L1  H     7    31       P1  7948  0.60
      L1  H    10    32       P1  7948  0.79

> <Gold.Chemscore.Hbond.Weighted>
-6.2148

> <Gold.Chemscore.Metal.Weighted>
-0.0000

> <Gold.Chemscore.Lipo.Weighted>
-10.8970

> <Gold.Chemscore.Internal_Hbond.Weighted>
0.0000

> <Gold.Chemscore.DEClash.Weighted>
0.4465

> <Gold.Chemscore.DEInternal.Weighted>
4.6156

> <Gold.Chemscore.Rot.Weighted>
3.4724

> <Gold.Chemscore.Internal.Correction.Weighted>
   9.000000E+99

> <Gold.Protein.RotatedTorsions>
[ 6907 6896 6895 6894 ] final   -6.71 input  -60.11 | X-H torsion
[ 7974 7965 7964 7962 ] final  -10.19 input  175.53 | X-H torsion
[ 8008 7997 7996 7995 ] final  139.93 input   59.86 | X-H torsion
[ 10167 10162 10161 10158 ] final -158.70 input  -65.29 | X-H torsion
[ 10718 10713 10712 10709 ] final   95.88 input   66.30 | X-H torsion
[ 10763 10752 10751 10750 ] final  -98.60 input  -60.55 | X-H torsion
[ 11005 11000 10999 10996 ] final -108.22 input  -57.11 | X-H torsion

> <Gold.Protein.ActiveResidues>
 VAL166  LYS551  ARG553  GLY616  TRP617  ASP618  TYR619  PRO620  LYS621  CYS622 
 ASP623  PHE694  ASN695  SER759  ASP760  ASP761  ALA762  ILE779  LEU786  VAL792 
 PHE793  MET794  SER795  GLU796  ALA797  LYS798  CYS799  TRP800  GLU811  SER814 

> <Gold.Protein.RotatedAtoms>
  151.4613  135.1038  159.9725 H   0  0  0  0  0  0  0  0  0  0  0  0  # atno 6907 bound_to 6896
  152.4852  133.8350  159.7133 H   0  0  0  0  0  0  0  0  0  0  0  0  # atno 6908 bound_to 6896
  150.8955  133.7126  159.2920 H   0  0  0  0  0  0  0  0  0  0  0  0  # atno 6909 bound_to 6896
  146.2228  140.2727  142.8357 H   0  0  0  0  0  0  0  0  0  0  0  0  # atno 7974 bound_to 7965
  156.2985  140.2355  156.4317 H   0  0  0  0  0  0  0  0  0  0  0  0  # atno 8008 bound_to 7997
  154.8264  140.0435  157.1467 H   0  0  0  0  0  0  0  0  0  0  0  0  # atno 8009 bound_to 7997
  154.9257  140.3010  155.5197 H   0  0  0  0  0  0  0  0  0  0  0  0  # atno 8010 bound_to 7997
  139.6671  143.9809  152.2261 H   0  0  0  0  0  0  0  0  0  0  0  0  # atno 10167 bound_to 10162
  157.6934  131.0560  150.4406 H   0  0  0  0  0  0  0  0  0  0  0  0  # atno 10718 bound_to 10713
  154.7428  135.5003  153.9152 H   0  0  0  0  0  0  0  0  0  0  0  0  # atno 10763 bound_to 10752
  153.1061  135.6697  153.9593 H   0  0  0  0  0  0  0  0  0  0  0  0  # atno 10764 bound_to 10752
  153.9365  135.3072  155.3423 H   0  0  0  0  0  0  0  0  0  0  0  0  # atno 10765 bound_to 10752
  141.0913  133.9050  157.2069 H   0  0  0  0  0  0  0  0  0  0  0  0  # atno 11005 bound_to 11000
  144.9256  140.7917  143.5721 LP  0  0  0  0  0  0  0  0  0  0  0  0  # atno 17320 bound_to 7965
  145.2667  139.1971  143.4863 LP  0  0  0  0  0  0  0  0  0  0  0  0  # atno 17321 bound_to 7965
  139.9564  144.6587  150.8122 LP  0  0  0  0  0  0  0  0  0  0  0  0  # atno 17342 bound_to 10162
  140.7604  143.3150  151.2755 LP  0  0  0  0  0  0  0  0  0  0  0  0  # atno 17343 bound_to 10162
  156.4765  130.4064  149.6487 LP  0  0  0  0  0  0  0  0  0  0  0  0  # atno 17370 bound_to 10713
  156.3548  130.7451  151.2415 LP  0  0  0  0  0  0  0  0  0  0  0  0  # atno 17371 bound_to 10713
  139.9739  135.0120  156.9582 LP  0  0  0  0  0  0  0  0  0  0  0  0  # atno 17394 bound_to 11000
  140.5246  134.0874  155.7300 LP  0  0  0  0  0  0  0  0  0  0  0  0  # atno 17395 bound_to 11000

$$$$
