AV-unprocessed.smi:101|AV-procd|sdf|920|dock8
  -GOLD-   2262017423D 1   1.00000     0.00000
 Structure written by MMmdl.
 44 46  0  0  0  0  0  0  0  0  1 V2000
  144.8902  142.0010  159.0158 C   0  0  0  0  0  0  0  0  0  0  0  0
  144.9816  142.4673  157.5719 C   0  0  0  0  0  0  0  0  0  0  0  0
  146.0649  142.2141  156.7935 C   0  0  0  0  0  0  0  0  0  0  0  0
  146.1797  142.6302  155.4719 N   0  0  0  0  0  0  0  0  0  0  0  0
  147.4109  142.3486  154.6270 C   0  0  1  0  0  0  0  0  0  0  0  0
  148.4934  142.0500  155.4580 O   0  0  0  0  0  0  0  0  0  0  0  0
  148.7594  140.6526  155.4175 C   0  0  2  0  0  0  0  0  0  0  0  0
  150.1752  140.3450  155.9211 C   0  0  0  0  0  0  0  0  0  0  0  0
  150.4411  141.2003  157.0200 O   0  0  0  0  0  0  0  0  0  0  0  0
  151.6677  141.2449  157.5706 C   0  0  0  0  0  0  0  0  0  0  0  0
  152.5404  140.3990  157.3660 O   0  0  0  0  0  0  0  0  0  0  0  0
  151.8576  142.4324  158.4534 C   0  0  0  0  0  0  0  0  0  0  0  0
  152.4977  142.2726  159.7046 C   0  0  0  0  0  0  0  0  0  0  0  0
  152.6913  143.3773  160.5570 C   0  0  0  0  0  0  0  0  0  0  0  0
  152.2461  144.6545  160.1693 C   0  0  0  0  0  0  0  0  0  0  0  0
  151.6078  144.8267  158.9273 C   0  0  0  0  0  0  0  0  0  0  0  0
  151.4144  143.7238  158.0730 C   0  0  0  0  0  0  0  0  0  0  0  0
  148.4623  140.2938  153.9606 C   0  0  2  0  0  0  0  0  0  0  0  0
  149.5472  140.6495  153.1230 O   0  0  0  0  0  0  0  0  0  0  0  0
  147.2365  141.1489  153.6577 C   0  0  1  0  0  0  0  0  0  0  0  0
  146.0643  140.3865  153.8912 O   0  0  0  0  0  0  0  0  0  0  0  0
  145.1279  143.3672  154.8897 C   0  0  0  0  0  0  0  0  0  0  0  0
  145.1631  143.7689  153.7272 O   0  0  0  0  0  0  0  0  0  0  0  0
  144.0148  143.6251  155.6870 N   0  0  0  0  0  0  0  0  0  0  0  0
  143.8546  143.2201  157.0141 C   0  0  0  0  0  0  0  0  0  0  0  0
  142.8210  143.5064  157.6159 O   0  0  0  0  0  0  0  0  0  0  0  0
  143.2594  144.1502  155.2708 H   0  0  0  0  0  0  0  0  0  0  0  0
  145.7910  141.4728  159.3303 H   0  0  0  0  0  0  0  0  0  0  0  0
  144.0440  141.3253  159.1445 H   0  0  0  0  0  0  0  0  0  0  0  0
  144.7535  142.8524  159.6832 H   0  0  0  0  0  0  0  0  0  0  0  0
  146.8736  141.6616  157.2463 H   0  0  0  0  0  0  0  0  0  0  0  0
  147.6377  143.2872  154.1178 H   0  0  0  0  0  0  0  0  0  0  0  0
  148.0334  140.1326  156.0451 H   0  0  0  0  0  0  0  0  0  0  0  0
  150.2412  139.3085  156.2539 H   0  0  0  0  0  0  0  0  0  0  0  0
  150.9086  140.4893  155.1263 H   0  0  0  0  0  0  0  0  0  0  0  0
  152.8485  141.3016  160.0235 H   0  0  0  0  0  0  0  0  0  0  0  0
  153.1823  143.2436  161.5096 H   0  0  0  0  0  0  0  0  0  0  0  0
  152.3939  145.5011  160.8236 H   0  0  0  0  0  0  0  0  0  0  0  0
  151.2651  145.8064  158.6284 H   0  0  0  0  0  0  0  0  0  0  0  0
  150.9208  143.8922  157.1270 H   0  0  0  0  0  0  0  0  0  0  0  0
  148.2747  139.2265  153.8334 H   0  0  0  0  0  0  0  0  0  0  0  0
  149.5493  140.0748  152.3726 H   0  0  0  0  0  0  0  0  0  0  0  0
  147.2184  141.5038  152.6263 H   0  0  0  0  0  0  0  0  0  0  0  0
  145.4536  140.5585  153.1906 H   0  0  0  0  0  0  0  0  0  0  0  0
  1  2  1  0  0  0  0
  1 28  1  0  0  0  0
  1 29  1  0  0  0  0
  1 30  1  0  0  0  0
  2 25  1  0  0  0  0
  2  3  2  0  0  0  0
  3  4  1  0  0  0  0
  3 31  1  0  0  0  0
  4  5  1  0  0  0  0
  4 22  1  0  0  0  0
  5 20  1  0  0  0  0
  5  6  1  0  0  0  0
  5 32  1  0  0  0  0
  6  7  1  0  0  0  0
  7  8  1  0  0  0  0
  7 18  1  0  0  0  0
  7 33  1  0  0  0  0
  8  9  1  0  0  0  0
  8 34  1  0  0  0  0
  8 35  1  0  0  0  0
  9 10  1  0  0  0  0
 10 11  2  0  0  0  0
 10 12  1  0  0  0  0
 12 17  1  0  0  0  0
 12 13  2  0  0  0  0
 13 14  1  0  0  0  0
 13 36  1  0  0  0  0
 14 15  2  0  0  0  0
 14 37  1  0  0  0  0
 15 16  1  0  0  0  0
 15 38  1  0  0  0  0
 16 17  2  0  0  0  0
 16 39  1  0  0  0  0
 17 40  1  0  0  0  0
 18 19  1  0  0  0  0
 18 20  1  0  0  0  0
 18 41  1  0  0  0  0
 19 42  1  0  0  0  0
 20 21  1  0  0  0  0
 20 43  1  0  0  0  0
 21 44  1  0  0  0  0
 22 23  2  0  0  0  0
 22 24  1  0  0  0  0
 24 27  1  0  0  0  0
 24 25  1  0  0  0  0
 25 26  2  0  0  0  0
M  END
> <s_m_source_file>
AV-unprocessed.smi

> <i_m_source_file_index>
101

> <i_lp_mmshare_version>
43012

> <i_f3d_flags>
0

> <s_epik_input>
Tz1jMVtuSF1jKD1PKW4oW2NIXWMxW0NIM10pW0NAQEhdMk9bQ0BIXShbQ0BASF0oW09IXSlbQ0BIXTJbT0hdKVtDSDJdT0MoPU8pYzNbY0hdW2NIXVtjSF1bY0hdW2NIXTM=

> <s_epik_cmdline>
J2VwaWtfcHl0aG9uJywgJy1waCcsICc3LjAnLCAnLXRuJywgJzgnLCAnLW1hJywgJzIwMCcsICctbWV0YWxfYmluZGluZycsICctaW1hZScsICc8aW5maWxlLm1hZT4nLCAnLW9tYWUnLCAnPG91dGZpbGUubWFlPic=

> <r_lp_tautomer_probability>
0.999537

> <r_epik_Ionization_Penalty>
0.00263537

> <r_epik_Ionization_Penalty_Charging>
0.00263428

> <r_epik_Ionization_Penalty_Neutral>
1.09111e-06

> <r_epik_State_Penalty>
0.00183335

> <r_epik_Charging_Adjusted_Penalty>
0.00446763

> <i_epik_Tot_Q>
0

> <i_epik_Tot_abs_Q>
0

> <r_epik_Metal_State_Penalty>
1.00528

> <b_epik_Metal_Only>
0

> <s_epik_Chemistry_Notes>
This compound has an ester and may undergo hydrolysis at high or low pH. This compound contains an acetal/aminal-like group ( X-CH(R)-Y where X, Y are N, S, or O) that may be acid/base labile, releasing an aldehyde.

> <s_lp_Force_Field>
OPLS_2005

> <r_lp_Energy>
36.6069

> <b_lp_Chiralities_Consistent>
1

> <s_lp_Variant>
AV-unprocessed.smi:101-8

> <Gold.Version>
5.8.1

> <Gold.Id.Protein>
6NUR|6NUR_protein|mol2

> <Gold.PLP.Fitness>
47.6372

> <Gold.PLP.PLP>
-40.3430

> <Gold.PLP.part.hbond>
-2.9352

> <Gold.PLP.part.metal>
0.0000

> <Gold.PLP.part.buried>
-3.7501

> <Gold.PLP.part.nonpolar>
-35.8188

> <Gold.PLP.part.repulsive>
3.1532

> <Gold.PLP.ligand.clash>
0.0000

> <Gold.PLP.ligand.torsion>
1.7203

> <Gold.PLP.Chemscore.Hbond>
3.5568

> <Gold.PLP.Chemscore.CHOScore>
0.0000

> <Gold.PLP.Chemscore.Metal>
0.0000

> <Gold.Chemscore.Hbonds>
donor molecule, donor type, donor heavy atom, donor atom, acceptor molecule, acceptor atom, score
      L1  H    19    42       P1  7957  0.19
      L1  H    21    44       P1 10175  1.00
      P1  H  7989  7998       L1    19  0.22
      P1  H  7997  8010       L1    11  0.91
      P1  H  8011  8017       L1    19  1.00

> <Gold.PLP.Chemscore.Internal.Correction>
0.0643

> <Gold.Rescore>
     Score         DG    S(hbond)    S(metal)    S(lipo)     H(rot)  DE(clash)    DE(int)     intcor
     14.59     -17.67       2.82        0.00      96.34       3.32       1.85       1.23       ----

> <Gold.Chemscore.Fitness>
14.5884

> <Gold.Chemscore.DG>
-17.6702

> <Gold.Chemscore.ZeroCoef>
-5.4800

> <Gold.Chemscore.Hbond>
2.8175

> <Gold.Chemscore.Metal>
0.0000

> <Gold.Chemscore.Lipo>
96.3404

> <Gold.Chemscore.Internal_Hbond>
0.0000

> <Gold.Chemscore.DEClash>
1.8541

> <Gold.Chemscore.DEInternal>
1.2277

> <Gold.Chemscore.Rot>
3.3172

> <Gold.Chemscore.Internal.Correction>
   9.000000E+99

> <Gold.Chemscore.Hbonds>
donor molecule, donor type, donor heavy atom, donor atom, acceptor molecule, acceptor atom, score
      L1  H    19    42       P1  7957  0.18
      L1  H    21    44       P1 10175  0.86
      P1  H  7989  7998       L1    19  0.07
      P1  H  7997  8010       L1    11  0.87
      P1  H  8011  8017       L1    19  0.34

> <Gold.Chemscore.Hbond.Weighted>
-9.4104

> <Gold.Chemscore.Metal.Weighted>
-0.0000

> <Gold.Chemscore.Lipo.Weighted>
-11.2718

> <Gold.Chemscore.Internal_Hbond.Weighted>
0.0000

> <Gold.Chemscore.DEClash.Weighted>
1.8541

> <Gold.Chemscore.DEInternal.Weighted>
1.2277

> <Gold.Chemscore.Rot.Weighted>
8.4920

> <Gold.Chemscore.Internal.Correction.Weighted>
   9.000000E+99

> <Gold.Protein.RotatedTorsions>
[ 6907 6896 6895 6894 ] final -123.78 input  -60.11 | X-H torsion
[ 7974 7965 7964 7962 ] final -129.47 input  175.53 | X-H torsion
[ 8008 7997 7996 7995 ] final   55.23 input   59.86 | X-H torsion
[ 10167 10162 10161 10158 ] final  148.30 input  -65.29 | X-H torsion
[ 10718 10713 10712 10709 ] final   51.80 input   66.30 | X-H torsion
[ 10763 10752 10751 10750 ] final  149.10 input  -60.55 | X-H torsion
[ 11005 11000 10999 10996 ] final  137.93 input  -57.11 | X-H torsion

> <Gold.Protein.ActiveResidues>
 VAL166  LYS551  ARG553  GLY616  TRP617  ASP618  TYR619  PRO620  LYS621  CYS622 
 ASP623  PHE694  ASN695  SER759  ASP760  ASP761  ALA762  ILE779  LEU786  VAL792 
 PHE793  MET794  SER795  GLU796  ALA797  LYS798  CYS799  TRP800  GLU811  SER814 

> <Gold.Protein.RotatedAtoms>
  150.8703  133.7514  159.2963 H   0  0  0  0  0  0  0  0  0  0  0  0  # atno 6907 bound_to 6896
  151.5128  135.1064  159.9868 H   0  0  0  0  0  0  0  0  0  0  0  0  # atno 6908 bound_to 6896
  152.4691  133.7943  159.6974 H   0  0  0  0  0  0  0  0  0  0  0  0  # atno 6909 bound_to 6896
  144.9569  140.7405  143.4753 H   0  0  0  0  0  0  0  0  0  0  0  0  # atno 7974 bound_to 7965
  155.4977  140.3473  155.4365 H   0  0  0  0  0  0  0  0  0  0  0  0  # atno 8008 bound_to 7997
  156.0935  140.1416  156.9589 H   0  0  0  0  0  0  0  0  0  0  0  0  # atno 8009 bound_to 7997
  154.4649  140.0921  156.6970 H   0  0  0  0  0  0  0  0  0  0  0  0  # atno 8010 bound_to 7997
  139.4877  144.5690  151.7090 H   0  0  0  0  0  0  0  0  0  0  0  0  # atno 10167 bound_to 10162
  157.5015  130.8441  149.8322 H   0  0  0  0  0  0  0  0  0  0  0  0  # atno 10718 bound_to 10713
  154.0656  135.2870  155.3317 H   0  0  0  0  0  0  0  0  0  0  0  0  # atno 10763 bound_to 10752
  154.6780  135.5274  153.8228 H   0  0  0  0  0  0  0  0  0  0  0  0  # atno 10764 bound_to 10752
  153.0505  135.6574  154.0841 H   0  0  0  0  0  0  0  0  0  0  0  0  # atno 10765 bound_to 10752
  140.0148  134.9423  157.0353 H   0  0  0  0  0  0  0  0  0  0  0  0  # atno 11005 bound_to 11000
  145.2759  139.1937  143.4817 LP  0  0  0  0  0  0  0  0  0  0  0  0  # atno 17320 bound_to 7965
  146.3340  140.2713  142.8606 LP  0  0  0  0  0  0  0  0  0  0  0  0  # atno 17321 bound_to 7965
  140.5274  144.0785  150.6042 LP  0  0  0  0  0  0  0  0  0  0  0  0  # atno 17342 bound_to 10162
  140.3763  143.2827  152.0221 LP  0  0  0  0  0  0  0  0  0  0  0  0  # atno 17343 bound_to 10162
  156.0232  130.3788  150.1900 LP  0  0  0  0  0  0  0  0  0  0  0  0  # atno 17370 bound_to 10713
  157.0089  130.9945  151.3371 LP  0  0  0  0  0  0  0  0  0  0  0  0  # atno 17371 bound_to 10713
  140.4490  134.1601  155.7180 LP  0  0  0  0  0  0  0  0  0  0  0  0  # atno 17394 bound_to 11000
  141.1735  133.8561  157.1495 LP  0  0  0  0  0  0  0  0  0  0  0  0  # atno 17395 bound_to 11000

$$$$
