AV-unprocessed.smi:3050|AV-procd|sdf|11632|dock7
  -GOLD-   2272017 23D 1   1.00000     0.00000
 Structure written by MMmdl.
 45 46  0  0  0  0  0  0  0  0  1 V2000
  147.1528  141.8292  154.0962 C   0  0  0  0  0  0  0  0  0  0  0  0
  148.1992  140.9185  153.4420 C   0  0  0  0  0  0  0  0  0  0  0  0
  148.1641  139.4811  153.9938 C   0  0  1  0  0  0  0  0  0  0  0  0
  148.4349  139.5414  155.3936 O   0  0  0  0  0  0  0  0  0  0  0  0
  149.6584  140.1636  155.7779 C   0  0  0  0  0  0  0  0  0  0  0  0
  150.8223  139.5634  154.9926 C   0  0  0  0  0  0  0  0  0  0  0  0
  152.0588  139.8999  155.8296 C   0  0  0  0  0  0  0  0  0  0  0  0
  151.5714  139.9962  157.2837 C   0  0  0  0  0  0  0  0  0  0  0  0
  150.0411  139.8894  157.2362 C   0  0  0  0  0  0  0  0  0  0  0  0
  146.7968  138.8242  153.7483 C   0  0  0  0  0  0  0  0  0  0  0  0
  145.8114  139.1743  154.3980 O   0  0  0  0  0  0  0  0  0  0  0  0
  146.7552  137.8739  152.8025 N   0  0  0  0  0  0  0  0  0  0  0  0
  145.5497  137.1759  152.3670 C   0  0  0  0  0  0  0  0  0  0  0  0
  145.7009  136.5634  150.9612 C   0  0  0  0  0  0  0  0  0  0  0  0
  145.5301  135.0669  150.9599 C   0  0  0  0  0  0  0  0  0  0  0  0
  146.4463  134.0807  151.4245 C   0  0  0  0  0  0  0  0  0  0  0  0
  145.9982  132.8462  151.2638 N   0  0  0  0  0  0  0  0  0  0  0  0
  144.7845  133.0005  150.6959 N   0  0  0  0  0  0  0  0  0  0  0  0
  143.9947  131.8318  150.3721 C   0  0  0  0  0  0  0  0  0  0  0  0
  144.4742  134.3291  150.5033 C   0  0  0  0  0  0  0  0  0  0  0  0
  147.2089  142.8387  153.6886 H   0  0  0  0  0  0  0  0  0  0  0  0
  147.3075  141.8963  155.1733 H   0  0  0  0  0  0  0  0  0  0  0  0
  146.1423  141.4579  153.9249 H   0  0  0  0  0  0  0  0  0  0  0  0
  148.0434  140.9083  152.3622 H   0  0  0  0  0  0  0  0  0  0  0  0
  149.1871  141.3520  153.6054 H   0  0  0  0  0  0  0  0  0  0  0  0
  148.9372  138.9032  153.4845 H   0  0  0  0  0  0  0  0  0  0  0  0
  149.6397  141.2387  155.5943 H   0  0  0  0  0  0  0  0  0  0  0  0
  150.7075  138.4802  154.9324 H   0  0  0  0  0  0  0  0  0  0  0  0
  150.8851  139.9476  153.9740 H   0  0  0  0  0  0  0  0  0  0  0  0
  152.8481  139.1579  155.7054 H   0  0  0  0  0  0  0  0  0  0  0  0
  152.4637  140.8631  155.5162 H   0  0  0  0  0  0  0  0  0  0  0  0
  151.9952  139.2034  157.9011 H   0  0  0  0  0  0  0  0  0  0  0  0
  151.8790  140.9473  157.7197 H   0  0  0  0  0  0  0  0  0  0  0  0
  149.5559  140.5741  157.9326 H   0  0  0  0  0  0  0  0  0  0  0  0
  149.7418  138.8761  157.5080 H   0  0  0  0  0  0  0  0  0  0  0  0
  147.6136  137.6447  152.3227 H   0  0  0  0  0  0  0  0  0  0  0  0
  145.3542  136.3828  153.0891 H   0  0  0  0  0  0  0  0  0  0  0  0
  144.6881  137.8445  152.4032 H   0  0  0  0  0  0  0  0  0  0  0  0
  144.9788  137.0318  150.2921 H   0  0  0  0  0  0  0  0  0  0  0  0
  146.6798  136.8316  150.5621 H   0  0  0  0  0  0  0  0  0  0  0  0
  147.4216  134.2258  151.8653 H   0  0  0  0  0  0  0  0  0  0  0  0
  143.0712  132.1301  149.8751 H   0  0  0  0  0  0  0  0  0  0  0  0
  143.7469  131.2899  151.2854 H   0  0  0  0  0  0  0  0  0  0  0  0
  144.5588  131.1766  149.7074 H   0  0  0  0  0  0  0  0  0  0  0  0
  143.5408  134.6388  150.0560 H   0  0  0  0  0  0  0  0  0  0  0  0
  1  2  1  0  0  0  0
  1 21  1  0  0  0  0
  1 22  1  0  0  0  0
  1 23  1  0  0  0  0
  2  3  1  0  0  0  0
  2 24  1  0  0  0  0
  2 25  1  0  0  0  0
  3  4  1  0  0  0  0
  3 10  1  0  0  0  0
  3 26  1  0  0  0  0
  4  5  1  0  0  0  0
  5  9  1  0  0  0  0
  5  6  1  0  0  0  0
  5 27  1  0  0  0  0
  6  7  1  0  0  0  0
  6 28  1  0  0  0  0
  6 29  1  0  0  0  0
  7  8  1  0  0  0  0
  7 30  1  0  0  0  0
  7 31  1  0  0  0  0
  8  9  1  0  0  0  0
  8 32  1  0  0  0  0
  8 33  1  0  0  0  0
  9 34  1  0  0  0  0
  9 35  1  0  0  0  0
 10 11  2  0  0  0  0
 10 12  1  0  0  0  0
 12 13  1  0  0  0  0
 12 36  1  0  0  0  0
 13 14  1  0  0  0  0
 13 37  1  0  0  0  0
 13 38  1  0  0  0  0
 14 15  1  0  0  0  0
 14 39  1  0  0  0  0
 14 40  1  0  0  0  0
 15 20  2  0  0  0  0
 15 16  1  0  0  0  0
 16 17  2  0  0  0  0
 16 41  1  0  0  0  0
 17 18  1  0  0  0  0
 18 19  1  0  0  0  0
 18 20  1  0  0  0  0
 19 42  1  0  0  0  0
 19 43  1  0  0  0  0
 19 44  1  0  0  0  0
 20 45  1  0  0  0  0
M  END
> <s_m_source_file>
AV-unprocessed.smi

> <i_m_source_file_index>
3050

> <i_lp_mmshare_version>
43012

> <i_f3d_flags>
0

> <s_epik_input>
W0NIMl0xW0NIMl1bQ0gyXVtDSDJdW0NIXTFPW0NAQEhdKFtDSDJdW0NIM10pQyg9TylbTkhdW0NIMl1bQ0gyXWMyW2NIXW5uKFtDSDNdKVtjSF0y

> <s_epik_cmdline>
J2VwaWtfcHl0aG9uJywgJy1waCcsICc3LjAnLCAnLXRuJywgJzgnLCAnLW1hJywgJzIwMCcsICctbWV0YWxfYmluZGluZycsICctaW1hZScsICc8aW5maWxlLm1hZT4nLCAnLW9tYWUnLCAnPG91dGZpbGUubWFlPic=

> <r_lp_tautomer_probability>
1

> <r_epik_Ionization_Penalty>
0.000440265

> <r_epik_Ionization_Penalty_Charging>
0

> <r_epik_Ionization_Penalty_Neutral>
0.000440265

> <r_epik_State_Penalty>
-0

> <r_epik_Charging_Adjusted_Penalty>
0

> <i_epik_Tot_Q>
0

> <i_epik_Tot_abs_Q>
0

> <r_epik_Metal_State_Penalty>
-0

> <b_epik_Metal_Only>
0

> <s_lp_Force_Field>
OPLS_2005

> <r_lp_Energy>
20.8184

> <b_lp_Chiralities_Consistent>
1

> <s_lp_Variant>
AV-unprocessed.smi:3050-2

> <Gold.Version>
5.8.1

> <Gold.Id.Protein>
6NUR|6NUR_protein|mol2

> <Gold.PLP.Fitness>
40.7267

> <Gold.PLP.PLP>
-33.6420

> <Gold.PLP.part.hbond>
-1.0000

> <Gold.PLP.part.metal>
0.0000

> <Gold.PLP.part.buried>
-0.6804

> <Gold.PLP.part.nonpolar>
-33.3879

> <Gold.PLP.part.repulsive>
0.2949

> <Gold.PLP.ligand.clash>
0.0000

> <Gold.PLP.ligand.torsion>
1.0628

> <Gold.PLP.Chemscore.Hbond>
1.0000

> <Gold.PLP.Chemscore.CHOScore>
1.9913

> <Gold.PLP.Chemscore.Metal>
0.0000

> <Gold.Chemscore.Hbonds>
donor molecule, donor type, donor heavy atom, donor atom, acceptor molecule, acceptor atom, score
      L1  H    12    36       P1  7948  0.96
      L1  C    16    41       P1  7948  1.00
      L1  C    20    45       P1 10186  0.87

> <Gold.PLP.Chemscore.Internal.Correction>
0.2365

> <Gold.Rescore>
     Score         DG    S(hbond)    S(metal)    S(lipo)     H(rot)  DE(clash)    DE(int)     intcor
     11.23     -14.12       0.95        0.00      86.84       1.83       0.61       2.28       ----

> <Gold.Chemscore.Fitness>
11.2283

> <Gold.Chemscore.DG>
-14.1188

> <Gold.Chemscore.ZeroCoef>
-5.4800

> <Gold.Chemscore.Hbond>
0.9459

> <Gold.Chemscore.Metal>
0.0000

> <Gold.Chemscore.Lipo>
86.8433

> <Gold.Chemscore.Internal_Hbond>
0.0000

> <Gold.Chemscore.DEClash>
0.6109

> <Gold.Chemscore.DEInternal>
2.2795

> <Gold.Chemscore.Rot>
1.8286

> <Gold.Chemscore.Internal.Correction>
   9.000000E+99

> <Gold.Chemscore.Hbonds>
donor molecule, donor type, donor heavy atom, donor atom, acceptor molecule, acceptor atom, score
      L1  H    12    36       P1  7948  0.90

> <Gold.Chemscore.Hbond.Weighted>
-3.1592

> <Gold.Chemscore.Metal.Weighted>
-0.0000

> <Gold.Chemscore.Lipo.Weighted>
-10.1607

> <Gold.Chemscore.Internal_Hbond.Weighted>
0.0000

> <Gold.Chemscore.DEClash.Weighted>
0.6109

> <Gold.Chemscore.DEInternal.Weighted>
2.2795

> <Gold.Chemscore.Rot.Weighted>
4.6811

> <Gold.Chemscore.Internal.Correction.Weighted>
   9.000000E+99

> <Gold.Protein.RotatedTorsions>
[ 6907 6896 6895 6894 ] final  104.48 input  -60.11 | X-H torsion
[ 7974 7965 7964 7962 ] final -152.17 input  175.53 | X-H torsion
[ 8008 7997 7996 7995 ] final -171.80 input   59.86 | X-H torsion
[ 10167 10162 10161 10158 ] final  116.79 input  -65.29 | X-H torsion
[ 10718 10713 10712 10709 ] final  -85.28 input   66.30 | X-H torsion
[ 10763 10752 10751 10750 ] final -121.82 input  -60.55 | X-H torsion
[ 11005 11000 10999 10996 ] final   16.11 input  -57.11 | X-H torsion

> <Gold.Protein.ActiveResidues>
 VAL166  LYS551  ARG553  GLY616  TRP617  ASP618  TYR619  PRO620  LYS621  CYS622 
 ASP623  PHE694  ASN695  SER759  ASP760  ASP761  ALA762  ILE779  LEU786  VAL792 
 PHE793  MET794  SER795  GLU796  ALA797  LYS798  CYS799  TRP800  GLU811  SER814 

> <Gold.Protein.RotatedAtoms>
  152.5263  133.9670  159.7743 H   0  0  0  0  0  0  0  0  0  0  0  0  # atno 6907 bound_to 6896
  150.9949  133.6105  159.2710 H   0  0  0  0  0  0  0  0  0  0  0  0  # atno 6908 bound_to 6896
  151.3234  135.0830  159.9367 H   0  0  0  0  0  0  0  0  0  0  0  0  # atno 6909 bound_to 6896
  144.7809  140.4699  143.5840 H   0  0  0  0  0  0  0  0  0  0  0  0  # atno 7974 bound_to 7965
  155.9363  140.1100  157.1092 H   0  0  0  0  0  0  0  0  0  0  0  0  # atno 8008 bound_to 7997
  154.4080  140.1228  156.4934 H   0  0  0  0  0  0  0  0  0  0  0  0  # atno 8009 bound_to 7997
  155.7018  140.3472  155.4938 H   0  0  0  0  0  0  0  0  0  0  0  0  # atno 8010 bound_to 7997
  139.6223  144.7103  151.2608 H   0  0  0  0  0  0  0  0  0  0  0  0  # atno 10167 bound_to 10162
  155.9998  130.4725  150.4538 H   0  0  0  0  0  0  0  0  0  0  0  0  # atno 10718 bound_to 10713
  154.8676  135.4154  154.2682 H   0  0  0  0  0  0  0  0  0  0  0  0  # atno 10763 bound_to 10752
  153.3597  135.7003  153.6727 H   0  0  0  0  0  0  0  0  0  0  0  0  # atno 10764 bound_to 10752
  153.5633  135.3605  155.2780 H   0  0  0  0  0  0  0  0  0  0  0  0  # atno 10765 bound_to 10752
  140.4507  134.1227  155.7702 H   0  0  0  0  0  0  0  0  0  0  0  0  # atno 11005 bound_to 11000
  145.6053  139.1508  143.3106 LP  0  0  0  0  0  0  0  0  0  0  0  0  # atno 17320 bound_to 7965
  146.2016  140.6172  142.9099 LP  0  0  0  0  0  0  0  0  0  0  0  0  # atno 17321 bound_to 7965
  140.7389  143.6633  150.8145 LP  0  0  0  0  0  0  0  0  0  0  0  0  # atno 17342 bound_to 10162
  140.0245  143.5507  152.2786 LP  0  0  0  0  0  0  0  0  0  0  0  0  # atno 17343 bound_to 10162
  157.2568  131.0558  151.2345 LP  0  0  0  0  0  0  0  0  0  0  0  0  # atno 17370 bound_to 10713
  157.3474  130.7064  149.6419 LP  0  0  0  0  0  0  0  0  0  0  0  0  # atno 17371 bound_to 10713
  141.1665  133.8692  157.1699 LP  0  0  0  0  0  0  0  0  0  0  0  0  # atno 17394 bound_to 11000
  140.0008  135.0028  157.0186 LP  0  0  0  0  0  0  0  0  0  0  0  0  # atno 17395 bound_to 11000

$$$$
