AV-unprocessed.smi:2154|AV-procd|sdf|8771|dock3
  -GOLD-   2272011553D 1   1.00000     0.00000
 Structure written by MMmdl.
 32 33  0  0  0  0  0  0  0  0  1 V2000
  152.6641  142.2373  160.1138 C   0  0  0  0  0  0  0  0  0  0  0  0
  152.4072  143.7291  160.0361 C   0  0  1  0  0  0  0  0  0  0  0  0
  152.5407  144.4663  158.7246 C   0  0  0  0  0  0  0  0  0  0  0  0
  151.1787  144.3077  159.3615 C   0  0  1  0  0  0  0  0  0  0  0  0
  150.1166  143.4237  158.7296 C   0  0  0  0  0  0  0  0  0  0  0  0
  150.5486  142.7044  157.5389 N   0  0  0  0  0  0  0  0  0  0  0  0
  149.8002  141.8206  156.8619 C   0  0  0  0  0  0  0  0  0  0  0  0
  148.6409  141.5422  157.1719 O   0  0  0  0  0  0  0  0  0  0  0  0
  150.4621  141.1732  155.6370 C   0  0  0  0  0  0  0  0  0  0  0  0
  149.4893  140.6443  154.6698 N   0  0  0  0  0  0  0  0  0  0  0  0
  148.4487  141.4418  154.2149 C   0  0  0  0  0  0  0  0  0  0  0  0
  147.5147  141.0170  153.3312 C   0  0  0  0  0  0  0  0  0  0  0  0
  147.5626  139.6581  152.8022 C   0  0  0  0  0  0  0  0  0  0  0  0
  146.7652  139.1816  151.9975 O   0  0  0  0  0  0  0  0  0  0  0  0
  148.6218  138.8856  153.2861 N   0  0  0  0  0  0  0  0  0  0  0  0
  149.5867  139.3170  154.1980 C   0  0  0  0  0  0  0  0  0  0  0  0
  150.4787  138.5516  154.5625 O   0  0  0  0  0  0  0  0  0  0  0  0
  148.6941  137.9363  152.9499 H   0  0  0  0  0  0  0  0  0  0  0  0
  152.4282  141.7447  159.1706 H   0  0  0  0  0  0  0  0  0  0  0  0
  152.0561  141.7934  160.9023 H   0  0  0  0  0  0  0  0  0  0  0  0
  153.7143  142.0529  160.3403 H   0  0  0  0  0  0  0  0  0  0  0  0
  152.7439  144.2662  160.9209 H   0  0  0  0  0  0  0  0  0  0  0  0
  152.9910  145.4563  158.7470 H   0  0  0  0  0  0  0  0  0  0  0  0
  152.7518  143.8812  157.8316 H   0  0  0  0  0  0  0  0  0  0  0  0
  150.7682  145.1908  159.8477 H   0  0  0  0  0  0  0  0  0  0  0  0
  149.7332  142.7145  159.4645 H   0  0  0  0  0  0  0  0  0  0  0  0
  149.2756  144.0557  158.4440 H   0  0  0  0  0  0  0  0  0  0  0  0
  151.4879  142.8812  157.2134 H   0  0  0  0  0  0  0  0  0  0  0  0
  151.0993  141.9209  155.1628 H   0  0  0  0  0  0  0  0  0  0  0  0
  151.1400  140.3794  155.9581 H   0  0  0  0  0  0  0  0  0  0  0  0
  148.3708  142.4549  154.5834 H   0  0  0  0  0  0  0  0  0  0  0  0
  146.7273  141.6855  153.0145 H   0  0  0  0  0  0  0  0  0  0  0  0
  1  2  1  0  0  0  0
  1 19  1  0  0  0  0
  1 20  1  0  0  0  0
  1 21  1  0  0  0  0
  2  4  1  0  0  0  0
  2  3  1  0  0  0  0
  2 22  1  0  0  0  0
  3  4  1  0  0  0  0
  3 23  1  0  0  0  0
  3 24  1  0  0  0  0
  4  5  1  0  0  0  0
  4 25  1  0  0  0  0
  5  6  1  0  0  0  0
  5 26  1  0  0  0  0
  5 27  1  0  0  0  0
  6  7  1  0  0  0  0
  6 28  1  0  0  0  0
  7  8  2  0  0  0  0
  7  9  1  0  0  0  0
  9 10  1  0  0  0  0
  9 29  1  0  0  0  0
  9 30  1  0  0  0  0
 10 16  1  0  0  0  0
 10 11  1  0  0  0  0
 11 12  2  0  0  0  0
 11 31  1  0  0  0  0
 12 13  1  0  0  0  0
 12 32  1  0  0  0  0
 13 14  2  0  0  0  0
 13 15  1  0  0  0  0
 15 18  1  0  0  0  0
 15 16  1  0  0  0  0
 16 17  2  0  0  0  0
M  END
> <s_m_source_file>
AV-unprocessed.smi

> <i_m_source_file_index>
2154

> <i_lp_mmshare_version>
43012

> <i_f3d_flags>
0

> <s_epik_input>
W0NIM11bQ0BASF0xW0NIMl1bQ0BIXTFbQ0gyXVtOSF1DKD1PKVtDSDJdbjJbY0hdW2NIXWMoPU8pW25IXWMyPU8=

> <s_epik_cmdline>
J2VwaWtfcHl0aG9uJywgJy1waCcsICc3LjAnLCAnLXRuJywgJzgnLCAnLW1hJywgJzIwMCcsICctbWV0YWxfYmluZGluZycsICctaW1hZScsICc8aW5maWxlLm1hZT4nLCAnLW9tYWUnLCAnPG91dGZpbGUubWFlPic=

> <r_lp_tautomer_probability>
0.999537

> <r_epik_Ionization_Penalty>
0.00305319

> <r_epik_Ionization_Penalty_Charging>
0.00305317

> <r_epik_Ionization_Penalty_Neutral>
2.06703e-08

> <r_epik_State_Penalty>
0.00214626

> <r_epik_Charging_Adjusted_Penalty>
0.00519944

> <i_epik_Tot_Q>
0

> <i_epik_Tot_abs_Q>
0

> <r_epik_Metal_State_Penalty>
0.361976

> <b_epik_Metal_Only>
0

> <s_lp_Force_Field>
OPLS_2005

> <r_lp_Energy>
15.5744

> <b_lp_Chiralities_Consistent>
1

> <s_lp_Variant>
AV-unprocessed.smi:2154-2

> <Gold.Version>
5.8.1

> <Gold.Id.Protein>
6NUR|6NUR_protein|mol2

> <Gold.PLP.Fitness>
43.5272

> <Gold.PLP.PLP>
-39.0977

> <Gold.PLP.part.hbond>
-2.8769

> <Gold.PLP.part.metal>
0.0000

> <Gold.PLP.part.buried>
-2.0892

> <Gold.PLP.part.nonpolar>
-34.3087

> <Gold.PLP.part.repulsive>
0.6675

> <Gold.PLP.ligand.clash>
0.0000

> <Gold.PLP.ligand.torsion>
0.7745

> <Gold.PLP.Chemscore.Hbond>
0.9263

> <Gold.PLP.Chemscore.CHOScore>
0.8869

> <Gold.PLP.Chemscore.Metal>
0.0000

> <Gold.Chemscore.Hbonds>
donor molecule, donor type, donor heavy atom, donor atom, acceptor molecule, acceptor atom, score
      L1  H    15    18       P1  7948  1.00
      L1  C    11    31       P1  8028  0.99

> <Gold.PLP.Chemscore.Internal.Correction>
0.5389

> <Gold.Rescore>
     Score         DG    S(hbond)    S(metal)    S(lipo)     H(rot)  DE(clash)    DE(int)     intcor
     10.60     -12.63       0.92        0.00      78.70       2.01       0.00       2.03       ----

> <Gold.Chemscore.Fitness>
10.5963

> <Gold.Chemscore.DG>
-12.6283

> <Gold.Chemscore.ZeroCoef>
-5.4800

> <Gold.Chemscore.Hbond>
0.9212

> <Gold.Chemscore.Metal>
0.0000

> <Gold.Chemscore.Lipo>
78.7019

> <Gold.Chemscore.Internal_Hbond>
0.0000

> <Gold.Chemscore.DEClash>
0.0038

> <Gold.Chemscore.DEInternal>
2.0283

> <Gold.Chemscore.Rot>
2.0065

> <Gold.Chemscore.Internal.Correction>
   9.000000E+99

> <Gold.Chemscore.Hbonds>
donor molecule, donor type, donor heavy atom, donor atom, acceptor molecule, acceptor atom, score
      L1  H    15    18       P1  7948  0.94

> <Gold.Chemscore.Hbond.Weighted>
-3.0768

> <Gold.Chemscore.Metal.Weighted>
-0.0000

> <Gold.Chemscore.Lipo.Weighted>
-9.2081

> <Gold.Chemscore.Internal_Hbond.Weighted>
0.0000

> <Gold.Chemscore.DEClash.Weighted>
0.0038

> <Gold.Chemscore.DEInternal.Weighted>
2.0283

> <Gold.Chemscore.Rot.Weighted>
5.1366

> <Gold.Chemscore.Internal.Correction.Weighted>
   9.000000E+99

> <Gold.Protein.RotatedTorsions>
[ 6907 6896 6895 6894 ] final   -2.29 input  -60.11 | X-H torsion
[ 7974 7965 7964 7962 ] final -177.45 input  175.53 | X-H torsion
[ 8008 7997 7996 7995 ] final  167.60 input   59.86 | X-H torsion
[ 10167 10162 10161 10158 ] final   48.97 input  -65.29 | X-H torsion
[ 10718 10713 10712 10709 ] final  -12.63 input   66.30 | X-H torsion
[ 10763 10752 10751 10750 ] final  -56.15 input  -60.55 | X-H torsion
[ 11005 11000 10999 10996 ] final  117.75 input  -57.11 | X-H torsion

> <Gold.Protein.ActiveResidues>
 VAL166  LYS551  ARG553  GLY616  TRP617  ASP618  TYR619  PRO620  LYS621  CYS622 
 ASP623  PHE694  ASN695  SER759  ASP760  ASP761  ALA762  ILE779  LEU786  VAL792 
 PHE793  MET794  SER795  GLU796  ALA797  LYS798  CYS799  TRP800  GLU811  SER814 

> <Gold.Protein.RotatedAtoms>
  151.5323  135.1068  159.9905 H   0  0  0  0  0  0  0  0  0  0  0  0  # atno 6907 bound_to 6896
  152.4573  133.7745  159.6827 H   0  0  0  0  0  0  0  0  0  0  0  0  # atno 6908 bound_to 6896
  150.8521  133.7706  159.3046 H   0  0  0  0  0  0  0  0  0  0  0  0  # atno 6909 bound_to 6896
  144.7128  140.1018  143.6416 H   0  0  0  0  0  0  0  0  0  0  0  0  # atno 7974 bound_to 7965
  156.1619  140.1612  156.8597 H   0  0  0  0  0  0  0  0  0  0  0  0  # atno 8008 bound_to 7997
  154.5169  140.0787  156.8134 H   0  0  0  0  0  0  0  0  0  0  0  0  # atno 8009 bound_to 7997
  155.3689  140.3399  155.4245 H   0  0  0  0  0  0  0  0  0  0  0  0  # atno 8010 bound_to 7997
  140.2877  144.3082  150.6248 H   0  0  0  0  0  0  0  0  0  0  0  0  # atno 10167 bound_to 10162
  156.6418  130.4930  149.6092 H   0  0  0  0  0  0  0  0  0  0  0  0  # atno 10718 bound_to 10713
  154.2022  135.6409  153.5090 H   0  0  0  0  0  0  0  0  0  0  0  0  # atno 10763 bound_to 10752
  153.0009  135.5454  154.6304 H   0  0  0  0  0  0  0  0  0  0  0  0  # atno 10764 bound_to 10752
  154.5719  135.2917  155.0792 H   0  0  0  0  0  0  0  0  0  0  0  0  # atno 10765 bound_to 10752
  139.9085  134.9613  156.7398 H   0  0  0  0  0  0  0  0  0  0  0  0  # atno 11005 bound_to 11000
  145.9531  139.2747  143.1200 LP  0  0  0  0  0  0  0  0  0  0  0  0  # atno 17320 bound_to 7965
  145.9302  140.9054  143.0360 LP  0  0  0  0  0  0  0  0  0  0  0  0  # atno 17321 bound_to 7965
  140.5758  143.2176  151.7517 LP  0  0  0  0  0  0  0  0  0  0  0  0  # atno 17342 bound_to 10162
  139.4946  144.4151  152.0039 LP  0  0  0  0  0  0  0  0  0  0  0  0  # atno 17343 bound_to 10162
  156.2153  130.6704  151.1312 LP  0  0  0  0  0  0  0  0  0  0  0  0  # atno 17370 bound_to 10713
  157.7168  131.0705  150.6293 LP  0  0  0  0  0  0  0  0  0  0  0  0  # atno 17371 bound_to 10713
  140.6858  133.9434  155.7937 LP  0  0  0  0  0  0  0  0  0  0  0  0  # atno 17394 bound_to 11000
  141.0477  134.0530  157.3823 LP  0  0  0  0  0  0  0  0  0  0  0  0  # atno 17395 bound_to 11000

$$$$
