AV-unprocessed.smi:671|AV-procd|sdf|3276|dock5
  -GOLD-   22720 0233D 1   1.00000     0.00000
 Structure written by MMmdl.
 49 50  0  0  0  0  0  0  0  0  1 V2000
  152.7600  137.9753  155.7683 C   0  0  0  0  0  0  0  0  0  0  0  0
  151.9166  139.2062  155.9388 C   0  0  0  0  0  0  0  0  0  0  0  0
  152.3226  140.1649  156.7551 N   0  0  0  0  0  0  0  0  0  0  0  0
  151.3628  141.1091  156.6827 N   0  0  0  0  0  0  0  0  0  0  0  0
  151.4962  142.3219  157.4661 C   0  0  0  0  0  0  0  0  0  0  0  0
  150.3475  140.7447  155.8202 C   0  0  0  0  0  0  0  0  0  0  0  0
  149.1625  141.6176  155.5627 C   0  0  0  0  0  0  0  0  0  0  0  0
  150.6740  139.5165  155.3123 C   0  0  0  0  0  0  0  0  0  0  0  0
  149.9057  138.6806  154.3215 C   0  0  0  0  0  0  0  0  0  0  0  0
  148.6524  138.0295  154.9464 C   0  0  1  0  0  0  0  0  0  0  0  0
  147.5890  139.0649  155.3460 C   0  0  0  0  0  0  0  0  0  0  0  0
  148.0548  137.0769  154.0081 N   0  0  0  0  0  0  0  0  0  0  0  0
  146.8355  136.5094  154.0565 C   0  0  0  0  0  0  0  0  0  0  0  0
  146.0447  136.7522  154.9661 O   0  0  0  0  0  0  0  0  0  0  0  0
  146.5664  135.6667  153.0439 N   0  0  0  0  0  0  0  0  0  0  0  0
  145.3113  134.9409  152.8449 C   0  0  1  0  0  0  0  0  0  0  0  0
  144.3049  135.8449  152.1201 C   0  0  0  0  0  0  0  0  0  0  0  0
  144.4271  135.4702  150.6463 C   0  0  0  0  0  0  0  0  0  0  0  0
  144.6775  133.9645  150.6601 C   0  0  0  0  0  0  0  0  0  0  0  0
  145.4496  133.6703  151.9594 C   0  0  1  0  0  0  0  0  0  0  0  0
  146.8846  133.1778  151.6901 C   0  0  0  0  0  0  0  0  0  0  0  0
  152.1947  137.0783  156.0212 H   0  0  0  0  0  0  0  0  0  0  0  0
  153.6451  137.9981  156.4054 H   0  0  0  0  0  0  0  0  0  0  0  0
  153.0974  137.8751  154.7366 H   0  0  0  0  0  0  0  0  0  0  0  0
  150.6560  142.4074  158.1555 H   0  0  0  0  0  0  0  0  0  0  0  0
  151.5030  143.1871  156.8029 H   0  0  0  0  0  0  0  0  0  0  0  0
  152.4235  142.3103  158.0409 H   0  0  0  0  0  0  0  0  0  0  0  0
  148.3907  141.0754  155.0178 H   0  0  0  0  0  0  0  0  0  0  0  0
  149.4441  142.4879  154.9699 H   0  0  0  0  0  0  0  0  0  0  0  0
  148.7231  141.9690  156.4965 H   0  0  0  0  0  0  0  0  0  0  0  0
  149.6070  139.2786  153.4597 H   0  0  0  0  0  0  0  0  0  0  0  0
  150.5571  137.9061  153.9158 H   0  0  0  0  0  0  0  0  0  0  0  0
  148.9399  137.4981  155.8552 H   0  0  0  0  0  0  0  0  0  0  0  0
  147.9683  139.7564  156.0987 H   0  0  0  0  0  0  0  0  0  0  0  0
  146.7088  138.5793  155.7685 H   0  0  0  0  0  0  0  0  0  0  0  0
  147.2647  139.6535  154.4873 H   0  0  0  0  0  0  0  0  0  0  0  0
  148.6397  136.8083  153.2300 H   0  0  0  0  0  0  0  0  0  0  0  0
  147.2841  135.5257  152.3482 H   0  0  0  0  0  0  0  0  0  0  0  0
  144.8982  134.6716  153.8188 H   0  0  0  0  0  0  0  0  0  0  0  0
  143.2965  135.6123  152.4652 H   0  0  0  0  0  0  0  0  0  0  0  0
  144.4696  136.9086  152.2983 H   0  0  0  0  0  0  0  0  0  0  0  0
  143.5445  135.7443  150.0679 H   0  0  0  0  0  0  0  0  0  0  0  0
  145.2851  135.9774  150.2048 H   0  0  0  0  0  0  0  0  0  0  0  0
  143.7206  133.4413  150.6817 H   0  0  0  0  0  0  0  0  0  0  0  0
  145.2031  133.6327  149.7638 H   0  0  0  0  0  0  0  0  0  0  0  0
  144.9302  132.8564  152.4673 H   0  0  0  0  0  0  0  0  0  0  0  0
  147.4713  133.9208  151.1487 H   0  0  0  0  0  0  0  0  0  0  0  0
  146.8753  132.2675  151.0902 H   0  0  0  0  0  0  0  0  0  0  0  0
  147.4038  132.9464  152.6203 H   0  0  0  0  0  0  0  0  0  0  0  0
  1  2  1  0  0  0  0
  1 22  1  0  0  0  0
  1 23  1  0  0  0  0
  1 24  1  0  0  0  0
  2  8  1  0  0  0  0
  2  3  2  0  0  0  0
  3  4  1  0  0  0  0
  4  5  1  0  0  0  0
  4  6  1  0  0  0  0
  5 25  1  0  0  0  0
  5 26  1  0  0  0  0
  5 27  1  0  0  0  0
  6  7  1  0  0  0  0
  6  8  2  0  0  0  0
  7 28  1  0  0  0  0
  7 29  1  0  0  0  0
  7 30  1  0  0  0  0
  8  9  1  0  0  0  0
  9 10  1  0  0  0  0
  9 31  1  0  0  0  0
  9 32  1  0  0  0  0
 10 11  1  0  0  0  0
 10 12  1  0  0  0  0
 10 33  1  0  0  0  0
 11 34  1  0  0  0  0
 11 35  1  0  0  0  0
 11 36  1  0  0  0  0
 12 13  1  0  0  0  0
 12 37  1  0  0  0  0
 13 14  2  0  0  0  0
 13 15  1  0  0  0  0
 15 16  1  0  0  0  0
 15 38  1  0  0  0  0
 16 20  1  0  0  0  0
 16 17  1  0  0  0  0
 16 39  1  0  0  0  0
 17 18  1  0  0  0  0
 17 40  1  0  0  0  0
 17 41  1  0  0  0  0
 18 19  1  0  0  0  0
 18 42  1  0  0  0  0
 18 43  1  0  0  0  0
 19 20  1  0  0  0  0
 19 44  1  0  0  0  0
 19 45  1  0  0  0  0
 20 21  1  0  0  0  0
 20 46  1  0  0  0  0
 21 47  1  0  0  0  0
 21 48  1  0  0  0  0
 21 49  1  0  0  0  0
M  END
> <s_m_source_file>
AV-unprocessed.smi

> <i_m_source_file_index>
671

> <i_lp_mmshare_version>
43012

> <i_f3d_flags>
0

> <s_epik_input>
W0NIM11jMW5uKFtDSDNdKWMoW0NIM10pYzFbQ0gyXVtDQEhdKFtDSDNdKVtOSF1DKD1PKVtOSF1bQ0BASF0yW0NIMl1bQ0gyXVtDSDJdW0NASF0yW0NIM10=

> <s_epik_cmdline>
J2VwaWtfcHl0aG9uJywgJy1waCcsICc3LjAnLCAnLXRuJywgJzgnLCAnLW1hJywgJzIwMCcsICctbWV0YWxfYmluZGluZycsICctaW1hZScsICc8aW5maWxlLm1hZT4nLCAnLW9tYWUnLCAnPG91dGZpbGUubWFlPic=

> <r_lp_tautomer_probability>
1

> <r_epik_Ionization_Penalty>
0.0126855

> <r_epik_Ionization_Penalty_Charging>
0

> <r_epik_Ionization_Penalty_Neutral>
0.0126855

> <r_epik_State_Penalty>
0.00977547

> <r_epik_Charging_Adjusted_Penalty>
0.00977547

> <i_epik_Tot_Q>
0

> <i_epik_Tot_abs_Q>
0

> <r_epik_Metal_State_Penalty>
0.00957132

> <b_epik_Metal_Only>
0

> <s_lp_Force_Field>
OPLS_2005

> <r_lp_Energy>
24.0852

> <b_lp_Chiralities_Consistent>
1

> <s_lp_Variant>
AV-unprocessed.smi:671-4

> <Gold.Version>
5.8.1

> <Gold.Id.Protein>
6NUR|6NUR_protein|mol2

> <Gold.PLP.Fitness>
38.3623

> <Gold.PLP.PLP>
-32.1425

> <Gold.PLP.part.hbond>
-2.7658

> <Gold.PLP.part.metal>
0.0000

> <Gold.PLP.part.buried>
-1.5017

> <Gold.PLP.part.nonpolar>
-28.2922

> <Gold.PLP.part.repulsive>
0.0365

> <Gold.PLP.ligand.clash>
0.0000

> <Gold.PLP.ligand.torsion>
0.7310

> <Gold.PLP.Chemscore.Hbond>
2.5547

> <Gold.PLP.Chemscore.CHOScore>
0.0000

> <Gold.PLP.Chemscore.Metal>
0.0000

> <Gold.Chemscore.Hbonds>
donor molecule, donor type, donor heavy atom, donor atom, acceptor molecule, acceptor atom, score
      L1  H    12    37       P1  7948  0.94
      L1  H    15    38       P1  7948  0.82
      P1  H  7997  8009       L1     3  0.99

> <Gold.PLP.Chemscore.Internal.Correction>
0.0176

> <Gold.Rescore>
     Score         DG    S(hbond)    S(metal)    S(lipo)     H(rot)  DE(clash)    DE(int)     intcor
     16.50     -19.15       2.40        0.00      80.01       1.45       0.54       2.11       ----

> <Gold.Chemscore.Fitness>
16.5028

> <Gold.Chemscore.DG>
-19.1489

> <Gold.Chemscore.ZeroCoef>
-5.4800

> <Gold.Chemscore.Hbond>
2.4012

> <Gold.Chemscore.Metal>
0.0000

> <Gold.Chemscore.Lipo>
80.0068

> <Gold.Chemscore.Internal_Hbond>
0.0000

> <Gold.Chemscore.DEClash>
0.5379

> <Gold.Chemscore.DEInternal>
2.1082

> <Gold.Chemscore.Rot>
1.4499

> <Gold.Chemscore.Internal.Correction>
   9.000000E+99

> <Gold.Chemscore.Hbonds>
donor molecule, donor type, donor heavy atom, donor atom, acceptor molecule, acceptor atom, score
      L1  H    12    37       P1  7948  0.89
      L1  H    15    38       P1  7948  0.81
      P1  H  7997  8009       L1     3  0.31

> <Gold.Chemscore.Hbond.Weighted>
-8.0199

> <Gold.Chemscore.Metal.Weighted>
-0.0000

> <Gold.Chemscore.Lipo.Weighted>
-9.3608

> <Gold.Chemscore.Internal_Hbond.Weighted>
0.0000

> <Gold.Chemscore.DEClash.Weighted>
0.5379

> <Gold.Chemscore.DEInternal.Weighted>
2.1082

> <Gold.Chemscore.Rot.Weighted>
3.7118

> <Gold.Chemscore.Internal.Correction.Weighted>
   9.000000E+99

> <Gold.Protein.RotatedTorsions>
[ 6907 6896 6895 6894 ] final  -22.80 input  -60.11 | X-H torsion
[ 7974 7965 7964 7962 ] final  103.17 input  175.53 | X-H torsion
[ 8008 7997 7996 7995 ] final -172.54 input   59.86 | X-H torsion
[ 10167 10162 10161 10158 ] final  143.96 input  -65.29 | X-H torsion
[ 10718 10713 10712 10709 ] final   16.48 input   66.30 | X-H torsion
[ 10763 10752 10751 10750 ] final  171.72 input  -60.55 | X-H torsion
[ 11005 11000 10999 10996 ] final -138.97 input  -57.11 | X-H torsion

> <Gold.Protein.ActiveResidues>
 VAL166  LYS551  ARG553  GLY616  TRP617  ASP618  TYR619  PRO620  LYS621  CYS622 
 ASP623  PHE694  ASN695  SER759  ASP760  ASP761  ALA762  ILE779  LEU786  VAL792 
 PHE793  MET794  SER795  GLU796  ALA797  LYS798  CYS799  TRP800  GLU811  SER814 

> <Gold.Protein.RotatedAtoms>
  151.2133  135.0490  159.8919 H   0  0  0  0  0  0  0  0  0  0  0  0  # atno 6907 bound_to 6896
  152.5422  134.0721  159.8208 H   0  0  0  0  0  0  0  0  0  0  0  0  # atno 6908 bound_to 6896
  151.0877  133.5292  159.2648 H   0  0  0  0  0  0  0  0  0  0  0  0  # atno 6909 bound_to 6896
  145.3495  139.2443  143.3566 H   0  0  0  0  0  0  0  0  0  0  0  0  # atno 7974 bound_to 7965
  155.9459  140.1117  157.1017 H   0  0  0  0  0  0  0  0  0  0  0  0  # atno 8008 bound_to 7997
  154.4099  140.1210  156.5055 H   0  0  0  0  0  0  0  0  0  0  0  0  # atno 8009 bound_to 7997
  155.6903  140.3472  155.4893 H   0  0  0  0  0  0  0  0  0  0  0  0  # atno 8010 bound_to 7997
  139.4957  144.6004  151.6492 H   0  0  0  0  0  0  0  0  0  0  0  0  # atno 10167 bound_to 10162
  157.0684  130.6338  149.5800 H   0  0  0  0  0  0  0  0  0  0  0  0  # atno 10718 bound_to 10713
  154.4159  135.2757  155.2007 H   0  0  0  0  0  0  0  0  0  0  0  0  # atno 10763 bound_to 10752
  154.3973  135.6052  153.5880 H   0  0  0  0  0  0  0  0  0  0  0  0  # atno 10764 bound_to 10752
  152.9832  135.5918  154.4448 H   0  0  0  0  0  0  0  0  0  0  0  0  # atno 10765 bound_to 10752
  140.8565  134.2222  157.4732 H   0  0  0  0  0  0  0  0  0  0  0  0  # atno 11005 bound_to 11000
  146.2974  140.4108  142.8716 LP  0  0  0  0  0  0  0  0  0  0  0  0  # atno 17320 bound_to 7965
  144.8729  140.7296  143.6035 LP  0  0  0  0  0  0  0  0  0  0  0  0  # atno 17321 bound_to 7965
  140.5653  144.0200  150.6189 LP  0  0  0  0  0  0  0  0  0  0  0  0  # atno 17342 bound_to 10162
  140.3300  143.3083  152.0697 LP  0  0  0  0  0  0  0  0  0  0  0  0  # atno 17343 bound_to 10162
  155.9957  130.5025  150.7471 LP  0  0  0  0  0  0  0  0  0  0  0  0  # atno 17370 bound_to 10713
  157.4898  131.0910  151.0440 LP  0  0  0  0  0  0  0  0  0  0  0  0  # atno 17371 bound_to 10713
  139.8705  134.9708  156.4716 LP  0  0  0  0  0  0  0  0  0  0  0  0  # atno 17394 bound_to 11000
  140.8732  133.7973  155.9386 LP  0  0  0  0  0  0  0  0  0  0  0  0  # atno 17395 bound_to 11000

$$$$
