AV-unprocessed.smi:666|AV-procd|sdf|3254|dock9
  -GOLD-   22720 0203D 1   1.00000     0.00000
 Structure written by MMmdl.
 34 35  0  0  0  0  0  0  0  0  2 V2000
  151.5264  139.5078  159.3373 O   0  0  0  0  0  0  0  0  0  0  0  0
  152.3594  140.0560  158.6147 C   0  0  0  0  0  0  0  0  0  0  0  0
  153.3947  140.9972  159.2426 C   0  0  0  0  0  0  0  0  0  0  0  0
  152.8518  142.3279  159.7364 C   0  0  0  0  0  0  0  0  0  0  0  0
  152.9059  142.6886  161.0337 C   0  0  0  0  0  0  0  0  0  0  0  0
  152.3652  143.9997  161.5764 C   0  0  0  0  0  0  0  0  0  0  0  0
  151.4422  144.7111  160.5727 C   0  0  0  0  0  0  0  0  0  0  0  0
  152.0329  144.6773  159.1575 C   0  0  0  0  0  0  0  0  0  0  0  0
  152.2473  143.2328  158.6699 C   0  0  0  0  0  0  0  0  0  0  0  0
  152.5280  139.9440  157.2766 N   0  5  0  0  0  0  0  0  0  0  0  0
  151.5685  139.0373  156.3329 S   0  0  0  0  0  0  0  0  0  0  0  0
  151.5145  139.5374  154.9500 O   0  0  0  0  0  0  0  0  0  0  0  0
  151.8442  137.6032  156.5110 O   0  0  0  0  0  0  0  0  0  0  0  0
  149.8874  139.3364  157.0559 C   0  0  0  0  0  0  0  0  0  0  0  0
  148.9470  139.8922  156.0207 C   0  0  0  0  0  0  0  0  0  0  0  0
  147.6645  139.4105  155.6354 C   0  0  0  0  0  0  0  0  0  0  0  0
  147.2649  140.2942  154.6754 C   0  0  0  0  0  0  0  0  0  0  0  0
  148.2097  141.2491  154.4862 O   0  0  0  0  0  0  0  0  0  0  0  0
  149.2778  140.9865  155.3517 N   0  0  0  0  0  0  0  0  0  0  0  0
  153.9307  140.5180  160.0647 H   0  0  0  0  0  0  0  0  0  0  0  0
  154.1465  141.1944  158.4772 H   0  0  0  0  0  0  0  0  0  0  0  0
  153.3670  142.0283  161.7537 H   0  0  0  0  0  0  0  0  0  0  0  0
  151.8268  143.8101  162.5053 H   0  0  0  0  0  0  0  0  0  0  0  0
  153.2145  144.6367  161.8248 H   0  0  0  0  0  0  0  0  0  0  0  0
  150.4668  144.2229  160.5650 H   0  0  0  0  0  0  0  0  0  0  0  0
  151.2694  145.7401  160.8892 H   0  0  0  0  0  0  0  0  0  0  0  0
  151.3851  145.2117  158.4621 H   0  0  0  0  0  0  0  0  0  0  0  0
  152.9874  145.2053  159.1568 H   0  0  0  0  0  0  0  0  0  0  0  0
  152.8931  143.2410  157.7915 H   0  0  0  0  0  0  0  0  0  0  0  0
  151.2968  142.7982  158.3586 H   0  0  0  0  0  0  0  0  0  0  0  0
  149.5049  138.4145  157.4914 H   0  0  0  0  0  0  0  0  0  0  0  0
  150.0130  140.0441  157.8756 H   0  0  0  0  0  0  0  0  0  0  0  0
  147.1277  138.5480  156.0007 H   0  0  0  0  0  0  0  0  0  0  0  0
  146.3773  140.3763  154.0658 H   0  0  0  0  0  0  0  0  0  0  0  0
  1  2  2  0  0  0  0
  2  3  1  0  0  0  0
  2 10  1  0  0  0  0
  3  4  1  0  0  0  0
  3 20  1  0  0  0  0
  3 21  1  0  0  0  0
  4  9  1  0  0  0  0
  4  5  2  0  0  0  0
  5  6  1  0  0  0  0
  5 22  1  0  0  0  0
  6  7  1  0  0  0  0
  6 23  1  0  0  0  0
  6 24  1  0  0  0  0
  7  8  1  0  0  0  0
  7 25  1  0  0  0  0
  7 26  1  0  0  0  0
  8  9  1  0  0  0  0
  8 27  1  0  0  0  0
  8 28  1  0  0  0  0
  9 29  1  0  0  0  0
  9 30  1  0  0  0  0
 10 11  1  0  0  0  0
 11 12  2  0  0  0  0
 11 13  2  0  0  0  0
 11 14  1  0  0  0  0
 14 15  1  0  0  0  0
 14 31  1  0  0  0  0
 14 32  1  0  0  0  0
 15 19  2  0  0  0  0
 15 16  1  0  0  0  0
 16 17  2  0  0  0  0
 16 33  1  0  0  0  0
 17 18  1  0  0  0  0
 17 34  1  0  0  0  0
 18 19  1  0  0  0  0
M  CHG  1  10  -1
M  END
> <s_m_source_file>
AV-unprocessed.smi

> <i_m_source_file_index>
666

> <i_lp_mmshare_version>
43012

> <i_f3d_flags>
0

> <s_epik_input>
W0NIMl0xW0NIMl1bQ0gyXVtDSDJdW0NIXT1DMVtDSDJdQyg9TylbTkhdUyg9TykoPU8pW0NIMl1jMltjSF1bY0hdb24y

> <s_epik_cmdline>
J2VwaWtfcHl0aG9uJywgJy1waCcsICc3LjAnLCAnLXRuJywgJzgnLCAnLW1hJywgJzIwMCcsICctbWV0YWxfYmluZGluZycsICctaW1hZScsICc8aW5maWxlLm1hZT4nLCAnLW9tYWUnLCAnPG91dGZpbGUubWFlPic=

> <r_epik_Ionization_Penalty>
0.000833246

> <r_epik_Ionization_Penalty_Charging>
0.000833246

> <r_epik_Ionization_Penalty_Neutral>
1.62659e-10

> <r_epik_State_Penalty>
0.000536532

> <r_epik_Charging_Adjusted_Penalty>
0.00136978

> <i_epik_Tot_Q>
-1

> <i_epik_Tot_abs_Q>
1

> <r_epik_Metal_State_Penalty>
-0

> <b_epik_Metal_Only>
0

> <s_lp_Force_Field>
OPLS_2005

> <r_lp_Energy>
4.18867

> <b_lp_Chiralities_Consistent>
1

> <s_lp_Variant>
AV-unprocessed.smi:666-1

> <Gold.Version>
5.8.1

> <Gold.Id.Protein>
6NUR|6NUR_protein|mol2

> <Gold.PLP.Fitness>
51.3907

> <Gold.PLP.PLP>
-41.2227

> <Gold.PLP.part.hbond>
-4.3722

> <Gold.PLP.part.metal>
0.0000

> <Gold.PLP.part.buried>
-5.4934

> <Gold.PLP.part.nonpolar>
-32.4270

> <Gold.PLP.part.repulsive>
0.4104

> <Gold.PLP.ligand.clash>
0.0000

> <Gold.PLP.ligand.torsion>
0.7370

> <Gold.PLP.Chemscore.Hbond>
3.5360

> <Gold.PLP.Chemscore.CHOScore>
0.0000

> <Gold.PLP.Chemscore.Metal>
0.0000

> <Gold.Chemscore.Hbonds>
donor molecule, donor type, donor heavy atom, donor atom, acceptor molecule, acceptor atom, score
      P1  H  7989  7998       L1    12  1.00
      P1  H  7997  8010       L1    10  2.00

> <Gold.PLP.Chemscore.Internal.Correction>
1.0340

> <Gold.Rescore>
     Score         DG    S(hbond)    S(metal)    S(lipo)     H(rot)  DE(clash)    DE(int)     intcor
     17.74     -21.25       2.45        0.00     102.04       1.70       0.07       3.43       ----

> <Gold.Chemscore.Fitness>
17.7406

> <Gold.Chemscore.DG>
-21.2470

> <Gold.Chemscore.ZeroCoef>
-5.4800

> <Gold.Chemscore.Hbond>
2.4527

> <Gold.Chemscore.Metal>
0.0000

> <Gold.Chemscore.Lipo>
102.0415

> <Gold.Chemscore.Internal_Hbond>
0.0000

> <Gold.Chemscore.DEClash>
0.0742

> <Gold.Chemscore.DEInternal>
3.4322

> <Gold.Chemscore.Rot>
1.7046

> <Gold.Chemscore.Internal.Correction>
   9.000000E+99

> <Gold.Chemscore.Hbonds>
donor molecule, donor type, donor heavy atom, donor atom, acceptor molecule, acceptor atom, score
      P1  H  7989  7998       L1    12  0.98
      P1  H  7997  8010       L1    10  0.76

> <Gold.Chemscore.Hbond.Weighted>
-8.1920

> <Gold.Chemscore.Metal.Weighted>
-0.0000

> <Gold.Chemscore.Lipo.Weighted>
-11.9389

> <Gold.Chemscore.Internal_Hbond.Weighted>
0.0000

> <Gold.Chemscore.DEClash.Weighted>
0.0742

> <Gold.Chemscore.DEInternal.Weighted>
3.4322

> <Gold.Chemscore.Rot.Weighted>
4.3638

> <Gold.Chemscore.Internal.Correction.Weighted>
   9.000000E+99

> <Gold.Protein.RotatedTorsions>
[ 6907 6896 6895 6894 ] final  116.57 input  -60.11 | X-H torsion
[ 7974 7965 7964 7962 ] final   29.96 input  175.53 | X-H torsion
[ 8008 7997 7996 7995 ] final   67.40 input   59.86 | X-H torsion
[ 10167 10162 10161 10158 ] final  118.48 input  -65.29 | X-H torsion
[ 10718 10713 10712 10709 ] final   58.10 input   66.30 | X-H torsion
[ 10763 10752 10751 10750 ] final  -47.60 input  -60.55 | X-H torsion
[ 11005 11000 10999 10996 ] final  111.79 input  -57.11 | X-H torsion

> <Gold.Protein.ActiveResidues>
 VAL166  LYS551  ARG553  GLY616  TRP617  ASP618  TYR619  PRO620  LYS621  CYS622 
 ASP623  PHE694  ASN695  SER759  ASP760  ASP761  ALA762  ILE779  LEU786  VAL792 
 PHE793  MET794  SER795  GLU796  ALA797  LYS798  CYS799  TRP800  GLU811  SER814 

> <Gold.Protein.RotatedAtoms>
  152.4669  133.7944  159.6918 H   0  0  0  0  0  0  0  0  0  0  0  0  # atno 6907 bound_to 6896
  150.8639  133.7594  159.2989 H   0  0  0  0  0  0  0  0  0  0  0  0  # atno 6908 bound_to 6896
  151.5150  135.1069  159.9916 H   0  0  0  0  0  0  0  0  0  0  0  0  # atno 6909 bound_to 6896
  146.1640  139.6851  142.9014 H   0  0  0  0  0  0  0  0  0  0  0  0  # atno 7974 bound_to 7965
  155.6924  140.3496  155.4899 H   0  0  0  0  0  0  0  0  0  0  0  0  # atno 8008 bound_to 7997
  155.9513  140.1120  157.0997 H   0  0  0  0  0  0  0  0  0  0  0  0  # atno 8009 bound_to 7997
  154.4122  140.1193  156.5042 H   0  0  0  0  0  0  0  0  0  0  0  0  # atno 8010 bound_to 7997
  139.6109  144.7081  151.2847 H   0  0  0  0  0  0  0  0  0  0  0  0  # atno 10167 bound_to 10162
  157.5569  130.8806  149.9049 H   0  0  0  0  0  0  0  0  0  0  0  0  # atno 10718 bound_to 10713
  154.0641  135.6614  153.4815 H   0  0  0  0  0  0  0  0  0  0  0  0  # atno 10763 bound_to 10752
  153.0415  135.5141  154.7631 H   0  0  0  0  0  0  0  0  0  0  0  0  # atno 10764 bound_to 10752
  154.6676  135.3024  154.9752 H   0  0  0  0  0  0  0  0  0  0  0  0  # atno 10765 bound_to 10752
  139.8912  134.9515  156.6485 H   0  0  0  0  0  0  0  0  0  0  0  0  # atno 11005 bound_to 11000
  145.4515  141.0428  143.2802 LP  0  0  0  0  0  0  0  0  0  0  0  0  # atno 17320 bound_to 7965
  144.8066  139.6039  143.7048 LP  0  0  0  0  0  0  0  0  0  0  0  0  # atno 17321 bound_to 7965
  140.7318  143.6841  150.7976 LP  0  0  0  0  0  0  0  0  0  0  0  0  # atno 17342 bound_to 10162
  140.0436  143.5321  152.2706 LP  0  0  0  0  0  0  0  0  0  0  0  0  # atno 17343 bound_to 10162
  156.0626  130.3697  150.0948 LP  0  0  0  0  0  0  0  0  0  0  0  0  # atno 17370 bound_to 10713
  156.9115  130.9653  151.3562 LP  0  0  0  0  0  0  0  0  0  0  0  0  # atno 17371 bound_to 10713
  140.7538  133.8875  155.8367 LP  0  0  0  0  0  0  0  0  0  0  0  0  # atno 17394 bound_to 11000
  140.9978  134.1191  157.4346 LP  0  0  0  0  0  0  0  0  0  0  0  0  # atno 17395 bound_to 11000

$$$$
