AV-unprocessed.smi:234|AV-procd|sdf|1785|dock6
  -GOLD-   2262020333D 1   1.00000     0.00000
 Structure written by MMmdl.
 59 62  0  0  0  0  0  0  0  0  1 V2000
  151.8667  144.6142  159.0401 C   0  0  0  0  0  0  0  0  0  0  0  0
  152.1861  143.2596  158.4042 C   0  0  0  0  0  0  0  0  0  0  0  0
  151.0011  142.4822  158.3605 O   0  0  0  0  0  0  0  0  0  0  0  0
  151.0603  141.4370  157.4016 C   0  0  2  0  0  0  0  0  0  0  0  0
  150.9478  141.9048  155.9444 C   0  0  0  0  0  0  0  0  0  0  0  0
  149.9862  140.7317  155.7112 C   0  0  1  0  0  0  0  0  0  0  0  0
  150.6090  139.5420  155.0956 N   0  0  0  0  0  0  0  0  0  0  0  0
  152.0432  139.2423  155.1617 C   0  0  0  0  0  0  0  0  0  0  0  0
  149.7811  138.4778  154.9188 C   0  0  0  0  0  0  0  0  0  0  0  0
  150.2247  137.2316  155.2376 N   0  0  0  0  0  0  0  0  0  0  0  0
  149.4261  136.1701  155.0974 C   0  0  0  0  0  0  0  0  0  0  0  0
  148.1672  136.1260  154.6602 N   0  0  0  0  0  0  0  0  0  0  0  0
  147.7173  137.3687  154.3248 C   0  0  0  0  0  0  0  0  0  0  0  0
  148.4516  138.5859  154.4157 C   0  0  0  0  0  0  0  0  0  0  0  0
  147.6684  139.6392  153.9563 N   0  0  0  0  0  0  0  0  0  0  0  0
  146.5341  139.0818  153.6342 C   0  0  0  0  0  0  0  0  0  0  0  0
  146.4718  137.7220  153.8348 N   0  0  0  0  0  0  0  0  0  0  0  0
  145.3345  136.8528  153.5740 C   0  0  0  0  0  0  0  0  0  0  0  0
  145.5801  135.8528  152.4132 C   0  0  1  0  0  0  0  0  0  0  0  0
  146.2315  136.5479  151.3632 O   0  0  0  0  0  0  0  0  0  0  0  0
  146.4636  134.6708  152.8068 C   0  0  0  0  0  0  0  0  0  0  0  0
  145.9711  133.5532  151.9009 C   0  0  0  0  0  0  0  0  0  0  0  0
  144.5709  133.7649  151.8964 O   0  0  0  0  0  0  0  0  0  0  0  0
  144.3205  135.1653  151.8137 C   0  0  1  0  0  0  0  0  0  0  0  0
  142.9784  135.4468  152.5070 C   0  0  0  0  0  0  0  0  0  0  0  0
  149.7209  140.6761  157.2445 C   0  0  0  0  0  0  0  0  0  0  0  0
  149.6116  139.3120  157.9368 C   0  0  0  0  0  0  0  0  0  0  0  0
  148.4661  141.4546  157.6652 C   0  0  0  0  0  0  0  0  0  0  0  0
  152.7574  145.2408  159.0899 H   0  0  0  0  0  0  0  0  0  0  0  0
  151.4878  144.4900  160.0549 H   0  0  0  0  0  0  0  0  0  0  0  0
  151.1122  145.1494  158.4634 H   0  0  0  0  0  0  0  0  0  0  0  0
  152.5814  143.4071  157.3982 H   0  0  0  0  0  0  0  0  0  0  0  0
  152.9513  142.7459  158.9879 H   0  0  0  0  0  0  0  0  0  0  0  0
  151.9003  140.7609  157.5691 H   0  0  0  0  0  0  0  0  0  0  0  0
  150.4482  142.8704  155.8531 H   0  0  0  0  0  0  0  0  0  0  0  0
  151.8756  141.8985  155.3741 H   0  0  0  0  0  0  0  0  0  0  0  0
  149.1063  141.0817  155.1750 H   0  0  0  0  0  0  0  0  0  0  0  0
  152.3147  138.5318  154.3799 H   0  0  0  0  0  0  0  0  0  0  0  0
  152.3239  138.8049  156.1180 H   0  0  0  0  0  0  0  0  0  0  0  0
  152.6575  140.1262  155.0033 H   0  0  0  0  0  0  0  0  0  0  0  0
  149.8567  135.2203  155.3783 H   0  0  0  0  0  0  0  0  0  0  0  0
  145.7045  139.6531  153.2438 H   0  0  0  0  0  0  0  0  0  0  0  0
  145.1111  136.3187  154.4980 H   0  0  0  0  0  0  0  0  0  0  0  0
  144.4675  137.4798  153.3617 H   0  0  0  0  0  0  0  0  0  0  0  0
  147.1190  136.2301  151.2988 H   0  0  0  0  0  0  0  0  0  0  0  0
  147.5327  134.8649  152.7088 H   0  0  0  0  0  0  0  0  0  0  0  0
  146.2716  134.3876  153.8425 H   0  0  0  0  0  0  0  0  0  0  0  0
  146.3670  133.6593  150.8898 H   0  0  0  0  0  0  0  0  0  0  0  0
  146.2287  132.5617  152.2737 H   0  0  0  0  0  0  0  0  0  0  0  0
  144.2188  135.4159  150.7559 H   0  0  0  0  0  0  0  0  0  0  0  0
  142.7227  136.5055  152.4653 H   0  0  0  0  0  0  0  0  0  0  0  0
  142.9941  135.1385  153.5525 H   0  0  0  0  0  0  0  0  0  0  0  0
  142.1731  134.8983  152.0182 H   0  0  0  0  0  0  0  0  0  0  0  0
  148.7910  138.7219  157.5279 H   0  0  0  0  0  0  0  0  0  0  0  0
  149.4333  139.4199  159.0071 H   0  0  0  0  0  0  0  0  0  0  0  0
  150.5188  138.7209  157.8380 H   0  0  0  0  0  0  0  0  0  0  0  0
  147.5558  140.9385  157.3580 H   0  0  0  0  0  0  0  0  0  0  0  0
  148.4348  142.4488  157.2183 H   0  0  0  0  0  0  0  0  0  0  0  0
  148.4188  141.5896  158.7464 H   0  0  0  0  0  0  0  0  0  0  0  0
  1  2  1  0  0  0  0
  1 29  1  0  0  0  0
  1 30  1  0  0  0  0
  1 31  1  0  0  0  0
  2  3  1  0  0  0  0
  2 32  1  0  0  0  0
  2 33  1  0  0  0  0
  3  4  1  0  0  0  0
  4 26  1  0  0  0  0
  4  5  1  0  0  0  0
  4 34  1  0  0  0  0
  5  6  1  0  0  0  0
  5 35  1  0  0  0  0
  5 36  1  0  0  0  0
  6  7  1  0  0  0  0
  6 26  1  0  0  0  0
  6 37  1  0  0  0  0
  7  8  1  0  0  0  0
  7  9  1  0  0  0  0
  8 38  1  0  0  0  0
  8 39  1  0  0  0  0
  8 40  1  0  0  0  0
  9 14  1  0  0  0  0
  9 10  2  0  0  0  0
 10 11  1  0  0  0  0
 11 12  2  0  0  0  0
 11 41  1  0  0  0  0
 12 13  1  0  0  0  0
 13 17  1  0  0  0  0
 13 14  2  0  0  0  0
 14 15  1  0  0  0  0
 15 16  2  0  0  0  0
 16 17  1  0  0  0  0
 16 42  1  0  0  0  0
 17 18  1  0  0  0  0
 18 19  1  0  0  0  0
 18 43  1  0  0  0  0
 18 44  1  0  0  0  0
 19 24  1  0  0  0  0
 19 20  1  0  0  0  0
 19 21  1  0  0  0  0
 20 45  1  0  0  0  0
 21 22  1  0  0  0  0
 21 46  1  0  0  0  0
 21 47  1  0  0  0  0
 22 23  1  0  0  0  0
 22 48  1  0  0  0  0
 22 49  1  0  0  0  0
 23 24  1  0  0  0  0
 24 25  1  0  0  0  0
 24 50  1  0  0  0  0
 25 51  1  0  0  0  0
 25 52  1  0  0  0  0
 25 53  1  0  0  0  0
 26 27  1  0  0  0  0
 26 28  1  0  0  0  0
 27 54  1  0  0  0  0
 27 55  1  0  0  0  0
 27 56  1  0  0  0  0
 28 57  1  0  0  0  0
 28 58  1  0  0  0  0
 28 59  1  0  0  0  0
M  END
> <s_m_source_file>
AV-unprocessed.smi

> <i_m_source_file_index>
234

> <i_lp_mmshare_version>
43012

> <i_f3d_flags>
0

> <s_epik_input>
W0NIM11bQ0gyXU9bQ0BASF0oQzEoW0NIM10pW0NIM10pW0NIMl1bQ0BIXTFOKFtDSDNdKWMobltjSF1uMiljKGMyMyluW2NIXW4zW0NIMl1bQ0BAXTQoW09IXSlbQ0gyXVtDSDJdT1tDQEhdNFtDSDNd

> <s_epik_cmdline>
J2VwaWtfcHl0aG9uJywgJy1waCcsICc3LjAnLCAnLXRuJywgJzgnLCAnLW1hJywgJzIwMCcsICctbWV0YWxfYmluZGluZycsICctaW1hZScsICc8aW5maWxlLm1hZT4nLCAnLW9tYWUnLCAnPG91dGZpbGUubWFlPic=

> <r_lp_tautomer_probability>
1

> <r_epik_Ionization_Penalty>
0.00349132

> <r_epik_Ionization_Penalty_Charging>
0

> <r_epik_Ionization_Penalty_Neutral>
0.00349132

> <r_epik_State_Penalty>
0.00242418

> <r_epik_Charging_Adjusted_Penalty>
0.00242418

> <i_epik_Tot_Q>
0

> <i_epik_Tot_abs_Q>
0

> <r_epik_Metal_State_Penalty>
-0

> <b_epik_Metal_Only>
0

> <s_lp_Force_Field>
OPLS_2005

> <r_lp_Energy>
52.3915

> <b_lp_Chiralities_Consistent>
1

> <s_lp_Variant>
AV-unprocessed.smi:234-1

> <Gold.Version>
5.8.1

> <Gold.Id.Protein>
6NUR|6NUR_protein|mol2

> <Gold.PLP.Fitness>
41.4401

> <Gold.PLP.PLP>
-37.0088

> <Gold.PLP.part.hbond>
-1.0000

> <Gold.PLP.part.metal>
0.0000

> <Gold.PLP.part.buried>
-6.4970

> <Gold.PLP.part.nonpolar>
-30.0685

> <Gold.PLP.part.repulsive>
0.7755

> <Gold.PLP.ligand.clash>
0.0000

> <Gold.PLP.ligand.torsion>
1.2600

> <Gold.PLP.Chemscore.Hbond>
1.0000

> <Gold.PLP.Chemscore.CHOScore>
1.0000

> <Gold.PLP.Chemscore.Metal>
0.0000

> <Gold.Chemscore.Hbonds>
donor molecule, donor type, donor heavy atom, donor atom, acceptor molecule, acceptor atom, score
      L1  H    20    45       P1  7948  1.00
      L1  C    16    42       P1 10175  1.00

> <Gold.PLP.Chemscore.Internal.Correction>
0.9514

> <Gold.Rescore>
     Score         DG    S(hbond)    S(metal)    S(lipo)     H(rot)  DE(clash)    DE(int)     intcor
     10.32     -12.91       0.99        0.00      86.91       2.37       0.01       2.57       ----

> <Gold.Chemscore.Fitness>
10.3245

> <Gold.Chemscore.DG>
-12.9062

> <Gold.Chemscore.ZeroCoef>
-5.4800

> <Gold.Chemscore.Hbond>
0.9937

> <Gold.Chemscore.Metal>
0.0000

> <Gold.Chemscore.Lipo>
86.9091

> <Gold.Chemscore.Internal_Hbond>
0.0000

> <Gold.Chemscore.DEClash>
0.0104

> <Gold.Chemscore.DEInternal>
2.5713

> <Gold.Chemscore.Rot>
2.3676

> <Gold.Chemscore.Internal.Correction>
   9.000000E+99

> <Gold.Chemscore.Hbonds>
donor molecule, donor type, donor heavy atom, donor atom, acceptor molecule, acceptor atom, score
      L1  H    20    45       P1  7948  0.97

> <Gold.Chemscore.Hbond.Weighted>
-3.3188

> <Gold.Chemscore.Metal.Weighted>
-0.0000

> <Gold.Chemscore.Lipo.Weighted>
-10.1684

> <Gold.Chemscore.Internal_Hbond.Weighted>
0.0000

> <Gold.Chemscore.DEClash.Weighted>
0.0104

> <Gold.Chemscore.DEInternal.Weighted>
2.5713

> <Gold.Chemscore.Rot.Weighted>
6.0610

> <Gold.Chemscore.Internal.Correction.Weighted>
   9.000000E+99

> <Gold.Protein.RotatedTorsions>
[ 6907 6896 6895 6894 ] final  134.93 input  -60.11 | X-H torsion
[ 7974 7965 7964 7962 ] final   63.09 input  175.53 | X-H torsion
[ 8008 7997 7996 7995 ] final  166.60 input   59.86 | X-H torsion
[ 10167 10162 10161 10158 ] final  -78.17 input  -65.29 | X-H torsion
[ 10718 10713 10712 10709 ] final   37.94 input   66.30 | X-H torsion
[ 10763 10752 10751 10750 ] final -174.49 input  -60.55 | X-H torsion
[ 11005 11000 10999 10996 ] final  112.83 input  -57.11 | X-H torsion

> <Gold.Protein.ActiveResidues>
 VAL166  LYS551  ARG553  GLY616  TRP617  ASP618  TYR619  PRO620  LYS621  CYS622 
 ASP623  PHE694  ASN695  SER759  ASP760  ASP761  ALA762  ILE779  LEU786  VAL792 
 PHE793  MET794  SER795  GLU796  ALA797  LYS798  CYS799  TRP800  GLU811  SER814 

> <Gold.Protein.RotatedAtoms>
  152.3059  133.5703  159.5648 H   0  0  0  0  0  0  0  0  0  0  0  0  # atno 6907 bound_to 6896
  150.7300  134.0223  159.3714 H   0  0  0  0  0  0  0  0  0  0  0  0  # atno 6908 bound_to 6896
  151.8119  135.0678  160.0465 H   0  0  0  0  0  0  0  0  0  0  0  0  # atno 6909 bound_to 6896
  145.8659  139.3345  143.0791 H   0  0  0  0  0  0  0  0  0  0  0  0  # atno 7974 bound_to 7965
  156.1705  140.1639  156.8456 H   0  0  0  0  0  0  0  0  0  0  0  0  # atno 8008 bound_to 7997
  154.5251  140.0769  156.8279 H   0  0  0  0  0  0  0  0  0  0  0  0  # atno 8009 bound_to 7997
  155.3523  140.3390  155.4242 H   0  0  0  0  0  0  0  0  0  0  0  0  # atno 8010 bound_to 7997
  140.4706  143.2428  151.8211 H   0  0  0  0  0  0  0  0  0  0  0  0  # atno 10167 bound_to 10162
  157.3529  130.7608  149.6991 H   0  0  0  0  0  0  0  0  0  0  0  0  # atno 10718 bound_to 10713
  154.5956  135.2849  155.0589 H   0  0  0  0  0  0  0  0  0  0  0  0  # atno 10763 bound_to 10752
  154.1874  135.6446  153.5054 H   0  0  0  0  0  0  0  0  0  0  0  0  # atno 10764 bound_to 10752
  153.0137  135.5438  154.6657 H   0  0  0  0  0  0  0  0  0  0  0  0  # atno 10765 bound_to 10752
  139.8937  134.9538  156.6646 H   0  0  0  0  0  0  0  0  0  0  0  0  # atno 11005 bound_to 11000
  145.9194  140.9125  143.0413 LP  0  0  0  0  0  0  0  0  0  0  0  0  # atno 17320 bound_to 7965
  144.6726  140.1268  143.7446 LP  0  0  0  0  0  0  0  0  0  0  0  0  # atno 17321 bound_to 7965
  139.4818  144.4896  151.9202 LP  0  0  0  0  0  0  0  0  0  0  0  0  # atno 17342 bound_to 10162
  140.3982  144.2528  150.5895 LP  0  0  0  0  0  0  0  0  0  0  0  0  # atno 17343 bound_to 10162
  155.9724  130.4135  150.4087 LP  0  0  0  0  0  0  0  0  0  0  0  0  # atno 17370 bound_to 10713
  157.2153  131.0470  151.2577 LP  0  0  0  0  0  0  0  0  0  0  0  0  # atno 17371 bound_to 10713
  140.7420  133.8969  155.8285 LP  0  0  0  0  0  0  0  0  0  0  0  0  # atno 17394 bound_to 11000
  141.0069  134.1073  157.4261 LP  0  0  0  0  0  0  0  0  0  0  0  0  # atno 17395 bound_to 11000

$$$$
