AV-unprocessed.smi:1321|AV-procd|sdf|5462|dock3
  -GOLD-   22720 5 33D 1   1.00000     0.00000
 Structure written by MMmdl.
 43 44  0  0  0  0  0  0  0  0  1 V2000
  155.3082  138.8665  161.7366 C   0  0  0  0  0  0  0  0  0  0  0  0
  154.4133  137.6211  161.5317 C   0  0  0  0  0  0  0  0  0  0  0  0
  155.2913  136.4620  161.0144 C   0  0  0  0  0  0  0  0  0  0  0  0
  153.7891  137.2165  162.8823 C   0  0  0  0  0  0  0  0  0  0  0  0
  153.2670  137.8764  160.5237 C   0  0  0  0  0  0  0  0  0  0  0  0
  152.4625  136.9766  160.2787 O   0  0  0  0  0  0  0  0  0  0  0  0
  153.1808  139.0927  159.9585 N   0  0  0  0  0  0  0  0  0  0  0  0
  152.1189  139.5553  159.0717 C   0  0  0  0  0  0  0  0  0  0  0  0
  152.1195  141.0721  158.9310 C   0  0  0  0  0  0  0  0  0  0  0  0
  152.9253  141.8437  159.7953 C   0  0  0  0  0  0  0  0  0  0  0  0
  152.9025  143.2460  159.6891 C   0  0  0  0  0  0  0  0  0  0  0  0
  152.0673  143.8266  158.7177 C   0  0  0  0  0  0  0  0  0  0  0  0
  151.2905  143.1038  157.8848 N   0  0  0  0  0  0  0  0  0  0  0  0
  151.3084  141.7519  157.9835 C   0  0  0  0  0  0  0  0  0  0  0  0
  150.5004  141.0300  157.0883 N   0  0  0  0  0  0  0  0  0  0  0  0
  149.5248  141.8079  156.3323 C   0  0  0  0  0  0  0  0  0  0  0  0
  148.6073  140.8645  155.5362 C   0  0  0  0  0  0  0  0  0  0  0  0
  149.3980  140.0252  154.6988 O   0  0  0  0  0  0  0  0  0  0  0  0
  150.2975  139.2137  155.4492 C   0  0  0  0  0  0  0  0  0  0  0  0
  151.2581  140.1088  156.2517 C   0  0  0  0  0  0  0  0  0  0  0  0
  156.1288  138.6508  162.4216 H   0  0  0  0  0  0  0  0  0  0  0  0
  154.7516  139.7031  162.1617 H   0  0  0  0  0  0  0  0  0  0  0  0
  155.7536  139.2014  160.7985 H   0  0  0  0  0  0  0  0  0  0  0  0
  155.7172  136.6898  160.0364 H   0  0  0  0  0  0  0  0  0  0  0  0
  154.7265  135.5334  160.9204 H   0  0  0  0  0  0  0  0  0  0  0  0
  156.1214  136.2632  161.6928 H   0  0  0  0  0  0  0  0  0  0  0  0
  154.5591  137.0137  163.6274 H   0  0  0  0  0  0  0  0  0  0  0  0
  153.1795  136.3162  162.7942 H   0  0  0  0  0  0  0  0  0  0  0  0
  153.1509  138.0075  163.2794 H   0  0  0  0  0  0  0  0  0  0  0  0
  153.8864  139.7710  160.2060 H   0  0  0  0  0  0  0  0  0  0  0  0
  152.2806  139.1014  158.0937 H   0  0  0  0  0  0  0  0  0  0  0  0
  151.1365  139.2097  159.3946 H   0  0  0  0  0  0  0  0  0  0  0  0
  153.5505  141.3690  160.5372 H   0  0  0  0  0  0  0  0  0  0  0  0
  153.5075  143.8614  160.3380 H   0  0  0  0  0  0  0  0  0  0  0  0
  152.0213  144.8999  158.6061 H   0  0  0  0  0  0  0  0  0  0  0  0
  148.9338  142.4210  157.0137 H   0  0  0  0  0  0  0  0  0  0  0  0
  150.0382  142.4834  155.6468 H   0  0  0  0  0  0  0  0  0  0  0  0
  147.9965  140.2568  156.2051 H   0  0  0  0  0  0  0  0  0  0  0  0
  147.9219  141.4419  154.9158 H   0  0  0  0  0  0  0  0  0  0  0  0
  149.7392  138.5492  156.1103 H   0  0  0  0  0  0  0  0  0  0  0  0
  150.8596  138.5791  154.7640 H   0  0  0  0  0  0  0  0  0  0  0  0
  151.8926  140.6789  155.5715 H   0  0  0  0  0  0  0  0  0  0  0  0
  151.9176  139.4937  156.8646 H   0  0  0  0  0  0  0  0  0  0  0  0
  1  2  1  0  0  0  0
  1 21  1  0  0  0  0
  1 22  1  0  0  0  0
  1 23  1  0  0  0  0
  2  3  1  0  0  0  0
  2  4  1  0  0  0  0
  2  5  1  0  0  0  0
  3 24  1  0  0  0  0
  3 25  1  0  0  0  0
  3 26  1  0  0  0  0
  4 27  1  0  0  0  0
  4 28  1  0  0  0  0
  4 29  1  0  0  0  0
  5  6  2  0  0  0  0
  5  7  1  0  0  0  0
  7  8  1  0  0  0  0
  7 30  1  0  0  0  0
  8  9  1  0  0  0  0
  8 31  1  0  0  0  0
  8 32  1  0  0  0  0
  9 14  1  0  0  0  0
  9 10  2  0  0  0  0
 10 11  1  0  0  0  0
 10 33  1  0  0  0  0
 11 12  2  0  0  0  0
 11 34  1  0  0  0  0
 12 13  1  0  0  0  0
 12 35  1  0  0  0  0
 13 14  2  0  0  0  0
 14 15  1  0  0  0  0
 15 20  1  0  0  0  0
 15 16  1  0  0  0  0
 16 17  1  0  0  0  0
 16 36  1  0  0  0  0
 16 37  1  0  0  0  0
 17 18  1  0  0  0  0
 17 38  1  0  0  0  0
 17 39  1  0  0  0  0
 18 19  1  0  0  0  0
 19 20  1  0  0  0  0
 19 40  1  0  0  0  0
 19 41  1  0  0  0  0
 20 42  1  0  0  0  0
 20 43  1  0  0  0  0
M  END
> <s_m_source_file>
AV-unprocessed.smi

> <i_m_source_file_index>
1321

> <i_lp_mmshare_version>
43012

> <i_f3d_flags>
0

> <s_epik_input>
W0NIM11DKFtDSDNdKShbQ0gzXSlDKD1PKVtOSF1bQ0gyXWMxW2NIXVtjSF1bY0hdbmMxTjJbQ0gyXVtDSDJdT1tDSDJdW0NIMl0y

> <s_epik_cmdline>
J2VwaWtfcHl0aG9uJywgJy1waCcsICc3LjAnLCAnLXRuJywgJzgnLCAnLW1hJywgJzIwMCcsICctbWV0YWxfYmluZGluZycsICctaW1hZScsICc8aW5maWxlLm1hZT4nLCAnLW9tYWUnLCAnPG91dGZpbGUubWFlPic=

> <r_lp_tautomer_probability>
1

> <r_epik_Ionization_Penalty>
0.0052234

> <r_epik_Ionization_Penalty_Charging>
0

> <r_epik_Ionization_Penalty_Neutral>
0.0052234

> <r_epik_State_Penalty>
0.0038086

> <r_epik_Charging_Adjusted_Penalty>
0.0038086

> <i_epik_Tot_Q>
0

> <i_epik_Tot_abs_Q>
0

> <r_epik_Metal_State_Penalty>
-0

> <b_epik_Metal_Only>
0

> <s_lp_Force_Field>
OPLS_2005

> <r_lp_Energy>
23.2048

> <b_lp_Chiralities_Consistent>
1

> <s_lp_Variant>
AV-unprocessed.smi:1321-1

> <Gold.Version>
5.8.1

> <Gold.Id.Protein>
6NUR|6NUR_protein|mol2

> <Gold.PLP.Fitness>
45.5816

> <Gold.PLP.PLP>
-40.1879

> <Gold.PLP.part.hbond>
-1.9955

> <Gold.PLP.part.metal>
0.0000

> <Gold.PLP.part.buried>
-4.6468

> <Gold.PLP.part.nonpolar>
-33.2937

> <Gold.PLP.part.repulsive>
0.4591

> <Gold.PLP.ligand.clash>
0.0000

> <Gold.PLP.ligand.torsion>
0.3223

> <Gold.PLP.Chemscore.Hbond>
1.9500

> <Gold.PLP.Chemscore.CHOScore>
0.0000

> <Gold.PLP.Chemscore.Metal>
0.0000

> <Gold.Chemscore.Hbonds>
donor molecule, donor type, donor heavy atom, donor atom, acceptor molecule, acceptor atom, score
      P1  H  6896  6907       L1     6  1.00

> <Gold.PLP.Chemscore.Internal.Correction>
0.1882

> <Gold.Rescore>
     Score         DG    S(hbond)    S(metal)    S(lipo)     H(rot)  DE(clash)    DE(int)     intcor
     16.69     -18.23       1.39        0.00     102.58       1.52       0.02       1.53       ----

> <Gold.Chemscore.Fitness>
16.6853

> <Gold.Chemscore.DG>
-18.2319

> <Gold.Chemscore.ZeroCoef>
-5.4800

> <Gold.Chemscore.Hbond>
1.3876

> <Gold.Chemscore.Metal>
0.0000

> <Gold.Chemscore.Lipo>
102.5768

> <Gold.Chemscore.Internal_Hbond>
0.0000

> <Gold.Chemscore.DEClash>
0.0178

> <Gold.Chemscore.DEInternal>
1.5289

> <Gold.Chemscore.Rot>
1.5173

> <Gold.Chemscore.Internal.Correction>
   9.000000E+99

> <Gold.Chemscore.Hbonds>
donor molecule, donor type, donor heavy atom, donor atom, acceptor molecule, acceptor atom, score
      P1  H  6896  6907       L1     6  0.98

> <Gold.Chemscore.Hbond.Weighted>
-4.6347

> <Gold.Chemscore.Metal.Weighted>
-0.0000

> <Gold.Chemscore.Lipo.Weighted>
-12.0015

> <Gold.Chemscore.Internal_Hbond.Weighted>
0.0000

> <Gold.Chemscore.DEClash.Weighted>
0.0178

> <Gold.Chemscore.DEInternal.Weighted>
1.5289

> <Gold.Chemscore.Rot.Weighted>
3.8843

> <Gold.Chemscore.Internal.Correction.Weighted>
   9.000000E+99

> <Gold.Protein.RotatedTorsions>
[ 6907 6896 6895 6894 ] final   22.86 input  -60.11 | X-H torsion
[ 7974 7965 7964 7962 ] final  -15.67 input  175.53 | X-H torsion
[ 8008 7997 7996 7995 ] final  170.33 input   59.86 | X-H torsion
[ 10167 10162 10161 10158 ] final  -37.62 input  -65.29 | X-H torsion
[ 10718 10713 10712 10709 ] final  145.08 input   66.30 | X-H torsion
[ 10763 10752 10751 10750 ] final  -66.45 input  -60.55 | X-H torsion
[ 11005 11000 10999 10996 ] final  -77.14 input  -57.11 | X-H torsion

> <Gold.Protein.ActiveResidues>
 VAL166  LYS551  ARG553  GLY616  TRP617  ASP618  TYR619  PRO620  LYS621  CYS622 
 ASP623  PHE694  ASN695  SER759  ASP760  ASP761  ALA762  ILE779  LEU786  VAL792 
 PHE793  MET794  SER795  GLU796  ALA797  LYS798  CYS799  TRP800  GLU811  SER814 

> <Gold.Protein.RotatedAtoms>
  151.9336  135.0245  160.0530 H   0  0  0  0  0  0  0  0  0  0  0  0  # atno 6907 bound_to 6896
  152.2097  133.4897  159.5111 H   0  0  0  0  0  0  0  0  0  0  0  0  # atno 6908 bound_to 6896
  150.6973  134.1400  159.4144 H   0  0  0  0  0  0  0  0  0  0  0  0  # atno 6909 bound_to 6896
  146.2021  140.3527  142.8419 H   0  0  0  0  0  0  0  0  0  0  0  0  # atno 7974 bound_to 7965
  156.1375  140.1540  156.8972 H   0  0  0  0  0  0  0  0  0  0  0  0  # atno 8008 bound_to 7997
  154.4959  140.0838  156.7735 H   0  0  0  0  0  0  0  0  0  0  0  0  # atno 8009 bound_to 7997
  155.4141  140.3420  155.4268 H   0  0  0  0  0  0  0  0  0  0  0  0  # atno 8010 bound_to 7997
  140.7113  143.3330  151.2526 H   0  0  0  0  0  0  0  0  0  0  0  0  # atno 10167 bound_to 10162
  157.3496  131.0948  151.1012 H   0  0  0  0  0  0  0  0  0  0  0  0  # atno 10718 bound_to 10713
  154.3600  135.6118  153.5686 H   0  0  0  0  0  0  0  0  0  0  0  0  # atno 10763 bound_to 10752
  152.9794  135.5813  154.4644 H   0  0  0  0  0  0  0  0  0  0  0  0  # atno 10764 bound_to 10752
  154.4380  135.2849  155.1845 H   0  0  0  0  0  0  0  0  0  0  0  0  # atno 10765 bound_to 10752
  141.1658  133.7011  156.7776 H   0  0  0  0  0  0  0  0  0  0  0  0  # atno 11005 bound_to 11000
  144.8708  140.7270  143.6048 LP  0  0  0  0  0  0  0  0  0  0  0  0  # atno 17320 bound_to 7965
  145.3446  139.1723  143.4467 LP  0  0  0  0  0  0  0  0  0  0  0  0  # atno 17321 bound_to 7965
  139.6817  143.9843  152.2812 LP  0  0  0  0  0  0  0  0  0  0  0  0  # atno 17342 bound_to 10162
  139.9475  144.6642  150.8205 LP  0  0  0  0  0  0  0  0  0  0  0  0  # atno 17343 bound_to 10162
  157.2193  130.6474  149.5804 LP  0  0  0  0  0  0  0  0  0  0  0  0  # atno 17370 bound_to 10713
  155.9719  130.4634  150.6182 LP  0  0  0  0  0  0  0  0  0  0  0  0  # atno 17371 bound_to 10713
  140.2418  134.8607  157.3581 LP  0  0  0  0  0  0  0  0  0  0  0  0  # atno 17394 bound_to 11000
  140.1788  134.4515  155.7785 LP  0  0  0  0  0  0  0  0  0  0  0  0  # atno 17395 bound_to 11000

$$$$
