AV-unprocessed.smi:2822|AV-procd|sdf|10871|dock2
  -GOLD-   2272015313D 1   1.00000     0.00000
 Structure written by MMmdl.
 40 42  0  0  0  0  0  0  0  0  2 V2000
  153.9260  142.8221  163.7124 Cl  0  0  0  0  0  0  0  0  0  0  0  0
  153.2217  142.9359  162.1369 C   0  0  0  0  0  0  0  0  0  0  0  0
  152.1647  143.8400  161.9057 C   0  0  0  0  0  0  0  0  0  0  0  0
  151.5630  143.9894  160.7069 N   0  0  0  0  0  0  0  0  0  0  0  0
  152.0040  143.2292  159.6831 C   0  0  0  0  0  0  0  0  0  0  0  0
  153.0533  142.2964  159.8050 C   0  0  0  0  0  0  0  0  0  0  0  0
  153.6823  142.1408  161.0624 C   0  0  0  0  0  0  0  0  0  0  0  0
  154.7333  141.2368  161.2756 N   0  0  0  0  0  0  0  0  0  0  0  0
  155.3031  140.4571  160.1860 C   0  0  0  0  0  0  0  0  0  0  0  0
  155.2011  138.9437  160.4400 C   0  0  1  0  0  0  0  0  0  0  0  0
  156.0373  138.4648  161.6445 C   0  0  0  0  0  0  0  0  0  0  0  0
  155.8445  137.0106  161.8681 N   0  3  1  0  0  0  0  0  0  0  0  0
  156.6467  136.4651  162.9941 C   0  0  0  0  0  0  0  0  0  0  0  0
  156.0656  136.8551  164.3674 C   0  0  0  0  0  0  0  0  0  0  0  0
  154.5870  136.4575  164.4761 C   0  0  0  0  0  0  0  0  0  0  0  0
  153.7859  137.0424  163.3040 C   0  0  0  0  0  0  0  0  0  0  0  0
  154.4066  136.6320  161.9506 C   0  0  1  0  0  0  0  0  0  0  0  0
  153.6341  137.1994  160.7436 C   0  0  0  0  0  0  0  0  0  0  0  0
  153.8330  138.6037  160.6389 O   0  0  0  0  0  0  0  0  0  0  0  0
  151.7916  144.4618  162.7061 H   0  0  0  0  0  0  0  0  0  0  0  0
  151.5049  143.3677  158.7355 H   0  0  0  0  0  0  0  0  0  0  0  0
  153.3513  141.7213  158.9413 H   0  0  0  0  0  0  0  0  0  0  0  0
  155.1019  141.1152  162.2083 H   0  0  0  0  0  0  0  0  0  0  0  0
  154.7869  140.7089  159.2589 H   0  0  0  0  0  0  0  0  0  0  0  0
  156.3500  140.7338  160.0570 H   0  0  0  0  0  0  0  0  0  0  0  0
  155.5553  138.4361  159.5409 H   0  0  0  0  0  0  0  0  0  0  0  0
  157.0938  138.6674  161.4649 H   0  0  0  0  0  0  0  0  0  0  0  0
  155.7595  139.0179  162.5414 H   0  0  0  0  0  0  0  0  0  0  0  0
  156.6642  135.3780  162.9052 H   0  0  0  0  0  0  0  0  0  0  0  0
  157.6824  136.7963  162.9088 H   0  0  0  0  0  0  0  0  0  0  0  0
  156.6372  136.3719  165.1604 H   0  0  0  0  0  0  0  0  0  0  0  0
  156.1712  137.9278  164.5309 H   0  0  0  0  0  0  0  0  0  0  0  0
  154.4992  135.3703  164.4743 H   0  0  0  0  0  0  0  0  0  0  0  0
  154.1730  136.8023  165.4240 H   0  0  0  0  0  0  0  0  0  0  0  0
  152.7537  136.6950  163.3596 H   0  0  0  0  0  0  0  0  0  0  0  0
  153.7449  138.1287  163.3916 H   0  0  0  0  0  0  0  0  0  0  0  0
  154.3579  135.5438  161.8859 H   0  0  0  0  0  0  0  0  0  0  0  0
  153.9549  136.7136  159.8208 H   0  0  0  0  0  0  0  0  0  0  0  0
  152.5675  136.9980  160.8458 H   0  0  0  0  0  0  0  0  0  0  0  0
  156.2002  136.5657  161.0339 H   0  0  0  0  0  0  0  0  0  0  0  0
  1  2  1  0  0  0  0
  2  7  1  0  0  0  0
  2  3  2  0  0  0  0
  3  4  1  0  0  0  0
  3 20  1  0  0  0  0
  4  5  2  0  0  0  0
  5  6  1  0  0  0  0
  5 21  1  0  0  0  0
  6  7  2  0  0  0  0
  6 22  1  0  0  0  0
  7  8  1  0  0  0  0
  8  9  1  0  0  0  0
  8 23  1  0  0  0  0
  9 10  1  0  0  0  0
  9 24  1  0  0  0  0
  9 25  1  0  0  0  0
 10 19  1  0  0  0  0
 10 11  1  0  0  0  0
 10 26  1  0  0  0  0
 11 12  1  0  0  0  0
 11 27  1  0  0  0  0
 11 28  1  0  0  0  0
 12 17  1  0  0  0  0
 12 13  1  0  0  0  0
 12 40  1  0  0  0  0
 13 14  1  0  0  0  0
 13 29  1  0  0  0  0
 13 30  1  0  0  0  0
 14 15  1  0  0  0  0
 14 31  1  0  0  0  0
 14 32  1  0  0  0  0
 15 16  1  0  0  0  0
 15 33  1  0  0  0  0
 15 34  1  0  0  0  0
 16 17  1  0  0  0  0
 16 35  1  0  0  0  0
 16 36  1  0  0  0  0
 17 18  1  0  0  0  0
 17 37  1  0  0  0  0
 18 19  1  0  0  0  0
 18 38  1  0  0  0  0
 18 39  1  0  0  0  0
M  CHG  1  12   1
M  END
> <s_m_source_file>
AV-unprocessed.smi

> <i_m_source_file_index>
2822

> <i_lp_mmshare_version>
43012

> <i_f3d_flags>
0

> <s_epik_input>
Q2xjMVtjSF1uW2NIXVtjSF1jMVtOSF1bQ0gyXVtDQEhdKFtDSDJdMilPW0NIMl1bQ0BASF0oTjIzKVtDSDJdW0NIMl1bQ0gyXVtDSDJdMw==

> <s_epik_cmdline>
J2VwaWtfcHl0aG9uJywgJy1waCcsICc3LjAnLCAnLXRuJywgJzgnLCAnLW1hJywgJzIwMCcsICctbWV0YWxfYmluZGluZycsICctaW1hZScsICc8aW5maWxlLm1hZT4nLCAnLW9tYWUnLCAnPG91dGZpbGUubWFlPic=

> <r_lp_tautomer_probability>
0.999999

> <r_epik_Ionization_Penalty>
0.88937

> <r_epik_Ionization_Penalty_Charging>
0.0803403

> <r_epik_Ionization_Penalty_Neutral>
0.80903

> <r_epik_State_Penalty>
0.931884

> <r_epik_Charging_Adjusted_Penalty>
1.01222

> <i_epik_Tot_Q>
1

> <i_epik_Tot_abs_Q>
1

> <r_epik_Metal_State_Penalty>
0.0782275

> <b_epik_Metal_Only>
0

> <s_lp_Force_Field>
OPLS_2005

> <r_lp_Energy>
33.0779

> <b_lp_Chiralities_Consistent>
1

> <s_lp_Variant>
AV-unprocessed.smi:2822-12

> <Gold.Version>
5.8.1

> <Gold.Id.Protein>
6NUR|6NUR_protein|mol2

> <Gold.PLP.Fitness>
41.4794

> <Gold.PLP.PLP>
-41.5023

> <Gold.PLP.part.hbond>
-1.0000

> <Gold.PLP.part.metal>
0.0000

> <Gold.PLP.part.buried>
-5.1146

> <Gold.PLP.part.nonpolar>
-35.0010

> <Gold.PLP.part.repulsive>
0.0928

> <Gold.PLP.ligand.clash>
0.0000

> <Gold.PLP.ligand.torsion>
0.0132

> <Gold.PLP.Chemscore.Hbond>
0.0000

> <Gold.PLP.Chemscore.CHOScore>
0.0000

> <Gold.PLP.Chemscore.Metal>
0.0000

> <Gold.PLP.Chemscore.Internal.Correction>
0.0035

> <Gold.Rescore>
     Score         DG    S(hbond)    S(metal)    S(lipo)     H(rot)  DE(clash)    DE(int)     intcor
     17.89     -17.93       0.00        0.00     131.99       1.17       0.03       0.01       ----

> <Gold.Chemscore.Fitness>
17.8920

> <Gold.Chemscore.DG>
-17.9291

> <Gold.Chemscore.ZeroCoef>
-5.4800

> <Gold.Chemscore.Hbond>
0.0000

> <Gold.Chemscore.Metal>
0.0000

> <Gold.Chemscore.Lipo>
131.9871

> <Gold.Chemscore.Internal_Hbond>
0.0000

> <Gold.Chemscore.DEClash>
0.0284

> <Gold.Chemscore.DEInternal>
0.0087

> <Gold.Chemscore.Rot>
1.1693

> <Gold.Chemscore.Internal.Correction>
   9.000000E+99

> <Gold.Chemscore.Hbond.Weighted>
-0.0000

> <Gold.Chemscore.Metal.Weighted>
-0.0000

> <Gold.Chemscore.Lipo.Weighted>
-15.4425

> <Gold.Chemscore.Internal_Hbond.Weighted>
0.0000

> <Gold.Chemscore.DEClash.Weighted>
0.0284

> <Gold.Chemscore.DEInternal.Weighted>
0.0087

> <Gold.Chemscore.Rot.Weighted>
2.9934

> <Gold.Chemscore.Internal.Correction.Weighted>
   9.000000E+99

> <Gold.Protein.RotatedTorsions>
[ 6907 6896 6895 6894 ] final  -18.77 input  -60.11 | X-H torsion
[ 7974 7965 7964 7962 ] final -166.39 input  175.53 | X-H torsion
[ 8008 7997 7996 7995 ] final  -92.16 input   59.86 | X-H torsion
[ 10167 10162 10161 10158 ] final  -45.72 input  -65.29 | X-H torsion
[ 10718 10713 10712 10709 ] final -159.81 input   66.30 | X-H torsion
[ 10763 10752 10751 10750 ] final -126.60 input  -60.55 | X-H torsion
[ 11005 11000 10999 10996 ] final   69.83 input  -57.11 | X-H torsion

> <Gold.Protein.ActiveResidues>
 VAL166  LYS551  ARG553  GLY616  TRP617  ASP618  TYR619  PRO620  LYS621  CYS622 
 ASP623  PHE694  ASN695  SER759  ASP760  ASP761  ALA762  ILE779  LEU786  VAL792 
 PHE793  MET794  SER795  GLU796  ALA797  LYS798  CYS799  TRP800  GLU811  SER814 

> <Gold.Protein.RotatedAtoms>
  151.2731  135.0691  159.9141 H   0  0  0  0  0  0  0  0  0  0  0  0  # atno 6907 bound_to 6896
  152.5347  134.0109  159.7948 H   0  0  0  0  0  0  0  0  0  0  0  0  # atno 6908 bound_to 6896
  151.0351  133.5705  159.2687 H   0  0  0  0  0  0  0  0  0  0  0  0  # atno 6909 bound_to 6896
  144.7246  140.2673  143.6256 H   0  0  0  0  0  0  0  0  0  0  0  0  # atno 7974 bound_to 7965
  154.7196  140.0512  157.0627 H   0  0  0  0  0  0  0  0  0  0  0  0  # atno 8008 bound_to 7997
  155.0445  140.3172  155.4694 H   0  0  0  0  0  0  0  0  0  0  0  0  # atno 8009 bound_to 7997
  156.2813  140.2127  156.5569 H   0  0  0  0  0  0  0  0  0  0  0  0  # atno 8010 bound_to 7997
  140.6847  143.2866  151.3679 H   0  0  0  0  0  0  0  0  0  0  0  0  # atno 10167 bound_to 10162
  156.5734  130.8698  151.2844 H   0  0  0  0  0  0  0  0  0  0  0  0  # atno 10718 bound_to 10713
  154.8747  135.3990  154.3458 H   0  0  0  0  0  0  0  0  0  0  0  0  # atno 10763 bound_to 10752
  153.4251  135.7024  153.6273 H   0  0  0  0  0  0  0  0  0  0  0  0  # atno 10764 bound_to 10752
  153.4919  135.3746  155.2466 H   0  0  0  0  0  0  0  0  0  0  0  0  # atno 10765 bound_to 10752
  139.9631  134.7026  156.0602 H   0  0  0  0  0  0  0  0  0  0  0  0  # atno 11005 bound_to 11000
  145.8077  139.1990  143.2011 LP  0  0  0  0  0  0  0  0  0  0  0  0  # atno 17320 bound_to 7965
  146.0622  140.7958  142.9729 LP  0  0  0  0  0  0  0  0  0  0  0  0  # atno 17321 bound_to 7965
  139.6195  144.0935  152.2378 LP  0  0  0  0  0  0  0  0  0  0  0  0  # atno 17342 bound_to 10162
  140.0375  144.6033  150.7438 LP  0  0  0  0  0  0  0  0  0  0  0  0  # atno 17343 bound_to 10162
  157.7343  130.9744  150.2022 LP  0  0  0  0  0  0  0  0  0  0  0  0  # atno 17370 bound_to 10713
  156.2695  130.3720  149.8047 LP  0  0  0  0  0  0  0  0  0  0  0  0  # atno 17371 bound_to 10713
  141.1310  133.6586  156.3464 LP  0  0  0  0  0  0  0  0  0  0  0  0  # atno 17394 bound_to 11000
  140.5455  134.6079  157.5392 LP  0  0  0  0  0  0  0  0  0  0  0  0  # atno 17395 bound_to 11000

$$$$
