AV-unprocessed.smi:475|AV-procd|sdf|2668|dock2
  -GOLD-   2262023 83D 1   1.00000     0.00000
 Structure written by MMmdl.
 40 42  0  0  0  0  0  0  0  0  2 V2000
  149.9354  138.2845  157.8545 C   0  0  0  0  0  0  0  0  0  0  0  0
  150.4136  138.9559  159.0064 O   0  0  0  0  0  0  0  0  0  0  0  0
  151.8179  139.1519  158.9785 C   0  0  0  0  0  0  0  0  0  0  0  0
  152.2080  139.9670  157.7371 C   0  0  0  0  0  0  0  0  0  0  0  0
  151.6369  141.3218  157.7581 N   0  0  0  0  0  0  0  0  0  0  0  0
  150.7645  141.9203  156.9005 C   0  0  0  0  0  0  0  0  0  0  0  0
  150.0551  141.1911  155.4602 S   0  0  0  0  0  0  0  0  0  0  0  0
  148.2557  141.3277  155.6822 C   0  0  0  0  0  0  0  0  0  0  0  0
  147.5003  141.4822  154.3580 C   0  0  0  0  0  0  0  0  0  0  0  0
  147.1070  142.5855  153.9771 O   0  0  0  0  0  0  0  0  0  0  0  0
  147.2669  140.2690  153.5813 C   0  0  0  0  0  0  0  0  0  0  0  0
  147.4644  138.9422  153.8559 C   0  0  0  0  0  0  0  0  0  0  0  0
  147.0526  138.1948  152.7118 C   0  0  0  0  0  0  0  0  0  0  0  0
  146.6136  139.0798  151.7655 C   0  0  0  0  0  0  0  0  0  0  0  0
  146.7485  140.3413  152.3043 N   0  0  0  0  0  0  0  0  0  0  0  0
  150.5377  143.1837  157.3551 N   0  3  0  0  0  0  0  0  0  0  0  0
  151.2720  143.3970  158.5230 C   0  0  0  0  0  0  0  0  0  0  0  0
  151.3675  144.5148  159.3463 C   0  0  0  0  0  0  0  0  0  0  0  0
  152.2088  144.4011  160.4726 C   0  0  0  0  0  0  0  0  0  0  0  0
  152.9131  143.2105  160.7460 C   0  0  0  0  0  0  0  0  0  0  0  0
  152.8096  142.0841  159.9035 C   0  0  0  0  0  0  0  0  0  0  0  0
  151.9784  142.2048  158.7898 C   0  0  0  0  0  0  0  0  0  0  0  0
  146.5028  141.2008  151.8331 H   0  0  0  0  0  0  0  0  0  0  0  0
  148.8552  138.1582  157.9267 H   0  0  0  0  0  0  0  0  0  0  0  0
  150.3846  137.2950  157.7595 H   0  0  0  0  0  0  0  0  0  0  0  0
  150.1478  138.8544  156.9491 H   0  0  0  0  0  0  0  0  0  0  0  0
  152.1393  139.6769  159.8792 H   0  0  0  0  0  0  0  0  0  0  0  0
  152.3282  138.1874  158.9637 H   0  0  0  0  0  0  0  0  0  0  0  0
  153.2912  140.0332  157.6358 H   0  0  0  0  0  0  0  0  0  0  0  0
  151.8474  139.4693  156.8363 H   0  0  0  0  0  0  0  0  0  0  0  0
  147.8926  140.4404  156.2012 H   0  0  0  0  0  0  0  0  0  0  0  0
  148.0405  142.1895  156.3140 H   0  0  0  0  0  0  0  0  0  0  0  0
  147.8621  138.5455  154.7784 H   0  0  0  0  0  0  0  0  0  0  0  0
  147.0757  137.1213  152.5950 H   0  0  0  0  0  0  0  0  0  0  0  0
  146.2218  138.9331  150.7697 H   0  0  0  0  0  0  0  0  0  0  0  0
  150.8271  145.4271  159.1407 H   0  0  0  0  0  0  0  0  0  0  0  0
  152.3142  145.2429  161.1416 H   0  0  0  0  0  0  0  0  0  0  0  0
  153.5456  143.1590  161.6206 H   0  0  0  0  0  0  0  0  0  0  0  0
  153.3496  141.1759  160.1260 H   0  0  0  0  0  0  0  0  0  0  0  0
  149.9250  143.8481  156.9005 H   0  0  0  0  0  0  0  0  0  0  0  0
  1  2  1  0  0  0  0
  1 24  1  0  0  0  0
  1 25  1  0  0  0  0
  1 26  1  0  0  0  0
  2  3  1  0  0  0  0
  3  4  1  0  0  0  0
  3 27  1  0  0  0  0
  3 28  1  0  0  0  0
  4  5  1  0  0  0  0
  4 29  1  0  0  0  0
  4 30  1  0  0  0  0
  5 22  1  0  0  0  0
  5  6  1  0  0  0  0
  6  7  1  0  0  0  0
  6 16  2  0  0  0  0
  7  8  1  0  0  0  0
  8  9  1  0  0  0  0
  8 31  1  0  0  0  0
  8 32  1  0  0  0  0
  9 10  2  0  0  0  0
  9 11  1  0  0  0  0
 11 15  1  0  0  0  0
 11 12  2  0  0  0  0
 12 13  1  0  0  0  0
 12 33  1  0  0  0  0
 13 14  2  0  0  0  0
 13 34  1  0  0  0  0
 14 15  1  0  0  0  0
 14 35  1  0  0  0  0
 15 23  1  0  0  0  0
 16 17  1  0  0  0  0
 16 40  1  0  0  0  0
 17 22  2  0  0  0  0
 17 18  1  0  0  0  0
 18 19  2  0  0  0  0
 18 36  1  0  0  0  0
 19 20  1  0  0  0  0
 19 37  1  0  0  0  0
 20 21  2  0  0  0  0
 20 38  1  0  0  0  0
 21 22  1  0  0  0  0
 21 39  1  0  0  0  0
M  CHG  1  16   1
M  END
> <s_m_source_file>
AV-unprocessed.smi

> <i_m_source_file_index>
475

> <i_lp_mmshare_version>
43012

> <i_f3d_flags>
0

> <s_epik_input>
W2NIXTFbY0hdW2NIXVtjSF1jKGMxMiluKFtDSDJdW0NIMl1PW0NIM10pYyhuMilTW0NIMl1DKD1PKWMzW2NIXVtjSF1bY0hdW25IXTM=

> <s_epik_cmdline>
J2VwaWtfcHl0aG9uJywgJy1waCcsICc3LjAnLCAnLXRuJywgJzgnLCAnLW1hJywgJzIwMCcsICctbWV0YWxfYmluZGluZycsICctaW1hZScsICc8aW5maWxlLm1hZT4nLCAnLW9tYWUnLCAnPG91dGZpbGUubWFlPic=

> <r_lp_tautomer_probability>
0.9999

> <r_epik_Ionization_Penalty>
2.12955

> <r_epik_Ionization_Penalty_Charging>
2.12955

> <r_epik_Ionization_Penalty_Neutral>
1.90655e-06

> <r_epik_State_Penalty>
2.26782

> <r_epik_Charging_Adjusted_Penalty>
4.39737

> <i_epik_Tot_Q>
1

> <i_epik_Tot_abs_Q>
1

> <r_epik_Metal_State_Penalty>
2.28582

> <b_epik_Metal_Only>
0

> <s_lp_Force_Field>
OPLS_2005

> <r_lp_Energy>
16.0961

> <b_lp_Chiralities_Consistent>
1

> <s_lp_Variant>
AV-unprocessed.smi:475-2

> <Gold.Version>
5.8.1

> <Gold.Id.Protein>
6NUR|6NUR_protein|mol2

> <Gold.PLP.Fitness>
53.8751

> <Gold.PLP.PLP>
-45.7638

> <Gold.PLP.part.hbond>
-3.5375

> <Gold.PLP.part.metal>
0.0000

> <Gold.PLP.part.buried>
-1.5669

> <Gold.PLP.part.nonpolar>
-41.5209

> <Gold.PLP.part.repulsive>
0.2390

> <Gold.PLP.ligand.clash>
0.0000

> <Gold.PLP.ligand.torsion>
0.5251

> <Gold.PLP.Chemscore.Hbond>
2.0000

> <Gold.PLP.Chemscore.CHOScore>
0.9968

> <Gold.PLP.Chemscore.Metal>
0.0000

> <Gold.Chemscore.Hbonds>
donor molecule, donor type, donor heavy atom, donor atom, acceptor molecule, acceptor atom, score
      L1  H    16    40       P1  8028  2.00
      L1  C    14    35       P1 10171  0.98

> <Gold.PLP.Chemscore.Internal.Correction>
0.1712

> <Gold.Rescore>
     Score         DG    S(hbond)    S(metal)    S(lipo)     H(rot)  DE(clash)    DE(int)     intcor
     16.38     -17.12       0.98        0.00     117.64       2.10       0.24       0.50       ----

> <Gold.Chemscore.Fitness>
16.3839

> <Gold.Chemscore.DG>
-17.1159

> <Gold.Chemscore.ZeroCoef>
-5.4800

> <Gold.Chemscore.Hbond>
0.9760

> <Gold.Chemscore.Metal>
0.0000

> <Gold.Chemscore.Lipo>
117.6398

> <Gold.Chemscore.Internal_Hbond>
0.0000

> <Gold.Chemscore.DEClash>
0.2364

> <Gold.Chemscore.DEInternal>
0.4956

> <Gold.Chemscore.Rot>
2.1046

> <Gold.Chemscore.Internal.Correction>
   9.000000E+99

> <Gold.Chemscore.Hbonds>
donor molecule, donor type, donor heavy atom, donor atom, acceptor molecule, acceptor atom, score
      L1  H    16    40       P1  8028  0.98

> <Gold.Chemscore.Hbond.Weighted>
-3.2599

> <Gold.Chemscore.Metal.Weighted>
-0.0000

> <Gold.Chemscore.Lipo.Weighted>
-13.7639

> <Gold.Chemscore.Internal_Hbond.Weighted>
0.0000

> <Gold.Chemscore.DEClash.Weighted>
0.2364

> <Gold.Chemscore.DEInternal.Weighted>
0.4956

> <Gold.Chemscore.Rot.Weighted>
5.3878

> <Gold.Chemscore.Internal.Correction.Weighted>
   9.000000E+99

> <Gold.Protein.RotatedTorsions>
[ 6907 6896 6895 6894 ] final -179.40 input  -60.11 | X-H torsion
[ 7974 7965 7964 7962 ] final -155.87 input  175.53 | X-H torsion
[ 8008 7997 7996 7995 ] final  -16.08 input   59.86 | X-H torsion
[ 10167 10162 10161 10158 ] final  126.98 input  -65.29 | X-H torsion
[ 10718 10713 10712 10709 ] final  -41.94 input   66.30 | X-H torsion
[ 10763 10752 10751 10750 ] final   22.22 input  -60.55 | X-H torsion
[ 11005 11000 10999 10996 ] final -121.37 input  -57.11 | X-H torsion

> <Gold.Protein.ActiveResidues>
 VAL166  LYS551  ARG553  GLY616  TRP617  ASP618  TYR619  PRO620  LYS621  CYS622 
 ASP623  PHE694  ASN695  SER759  ASP760  ASP761  ALA762  ILE779  LEU786  VAL792 
 PHE793  MET794  SER795  GLU796  ALA797  LYS798  CYS799  TRP800  GLU811  SER814 

> <Gold.Protein.RotatedAtoms>
  151.6529  133.3320  159.3155 H   0  0  0  0  0  0  0  0  0  0  0  0  # atno 6907 bound_to 6896
  150.7951  134.7009  159.6559 H   0  0  0  0  0  0  0  0  0  0  0  0  # atno 6908 bound_to 6896
  152.4037  134.6247  160.0111 H   0  0  0  0  0  0  0  0  0  0  0  0  # atno 6909 bound_to 6896
  144.7619  140.4189  143.5970 H   0  0  0  0  0  0  0  0  0  0  0  0  # atno 7974 bound_to 7965
  154.5080  140.2179  155.9212 H   0  0  0  0  0  0  0  0  0  0  0  0  # atno 8008 bound_to 7997
  156.1518  140.3160  155.8626 H   0  0  0  0  0  0  0  0  0  0  0  0  # atno 8009 bound_to 7997
  155.3924  140.0479  157.3031 H   0  0  0  0  0  0  0  0  0  0  0  0  # atno 8010 bound_to 7997
  139.5602  144.6877  151.4064 H   0  0  0  0  0  0  0  0  0  0  0  0  # atno 10167 bound_to 10162
  156.2649  130.4200  149.8501 H   0  0  0  0  0  0  0  0  0  0  0  0  # atno 10718 bound_to 10713
  153.0932  135.6652  153.9813 H   0  0  0  0  0  0  0  0  0  0  0  0  # atno 10763 bound_to 10752
  153.9404  135.2994  155.3444 H   0  0  0  0  0  0  0  0  0  0  0  0  # atno 10764 bound_to 10752
  154.7349  135.5106  153.9098 H   0  0  0  0  0  0  0  0  0  0  0  0  # atno 10765 bound_to 10752
  141.0075  134.0313  157.3457 H   0  0  0  0  0  0  0  0  0  0  0  0  # atno 11005 bound_to 11000
  145.6591  139.1578  143.2818 LP  0  0  0  0  0  0  0  0  0  0  0  0  # atno 17320 bound_to 7965
  146.1691  140.6673  142.9241 LP  0  0  0  0  0  0  0  0  0  0  0  0  # atno 17321 bound_to 7965
  140.6881  143.7926  150.7215 LP  0  0  0  0  0  0  0  0  0  0  0  0  # atno 17342 bound_to 10162
  140.1400  143.4450  152.2200 LP  0  0  0  0  0  0  0  0  0  0  0  0  # atno 17343 bound_to 10162
  156.6003  130.8544  151.3430 LP  0  0  0  0  0  0  0  0  0  0  0  0  # atno 17370 bound_to 10713
  157.7264  130.9628  150.1653 LP  0  0  0  0  0  0  0  0  0  0  0  0  # atno 17371 bound_to 10713
  139.9071  135.0182  156.7535 LP  0  0  0  0  0  0  0  0  0  0  0  0  # atno 17394 bound_to 11000
  140.6788  133.9493  155.7898 LP  0  0  0  0  0  0  0  0  0  0  0  0  # atno 17395 bound_to 11000

$$$$
