AV-unprocessed.smi:3328|AV-procd|sdf|12793|dock3
  -GOLD-   2272019143D 1   1.00000     0.00000
 Structure written by MMmdl.
 40 41  0  0  0  0  0  0  0  0  1 V2000
  144.4566  144.6840  152.9552 C   0  0  0  0  0  0  0  0  0  0  0  0
  144.9368  143.6802  153.9633 C   0  0  0  0  0  0  0  0  0  0  0  0
  144.3456  143.3440  155.2144 C   0  0  0  0  0  0  0  0  0  0  0  0
  145.0187  142.4113  155.8679 N   0  0  0  0  0  0  0  0  0  0  0  0
  146.0639  142.1236  155.0630 N   0  0  0  0  0  0  0  0  0  0  0  0
  147.0370  141.1225  155.4655 C   0  0  0  0  0  0  0  0  0  0  0  0
  148.4855  141.5499  155.1545 C   0  0  2  0  0  0  0  0  0  0  0  0
  149.0832  140.6884  154.0280 C   0  0  0  0  0  0  0  0  0  0  0  0
  149.2893  141.4172  156.3652 N   0  0  0  0  0  0  0  0  0  0  0  0
  150.5938  142.0480  156.2376 C   0  0  0  0  0  0  0  0  0  0  0  0
  151.4599  141.6744  157.4496 C   0  0  0  0  0  0  0  0  0  0  0  0
  151.6586  142.8189  158.3336 N   0  0  0  0  0  0  0  0  0  0  0  0
  151.1317  144.1270  157.9838 C   0  0  0  0  0  0  0  0  0  0  0  0
  151.7104  145.0839  159.0362 C   0  0  0  0  0  0  0  0  0  0  0  0
  152.2658  144.1907  160.1511 C   0  0  0  0  0  0  0  0  0  0  0  0
  152.2714  142.8073  159.5233 C   0  0  0  0  0  0  0  0  0  0  0  0
  152.7812  141.8294  160.0681 O   0  0  0  0  0  0  0  0  0  0  0  0
  146.0366  142.8718  153.9054 C   0  0  0  0  0  0  0  0  0  0  0  0
  143.6664  145.3177  153.3586 H   0  0  0  0  0  0  0  0  0  0  0  0
  144.0564  144.1986  152.0652 H   0  0  0  0  0  0  0  0  0  0  0  0
  145.2612  145.3433  152.6290 H   0  0  0  0  0  0  0  0  0  0  0  0
  143.4502  143.7478  155.6635 H   0  0  0  0  0  0  0  0  0  0  0  0
  146.9147  140.9027  156.5278 H   0  0  0  0  0  0  0  0  0  0  0  0
  146.7985  140.2022  154.9310 H   0  0  0  0  0  0  0  0  0  0  0  0
  148.4741  142.5943  154.8393 H   0  0  0  0  0  0  0  0  0  0  0  0
  148.4669  140.7435  153.1303 H   0  0  0  0  0  0  0  0  0  0  0  0
  149.1464  139.6395  154.3196 H   0  0  0  0  0  0  0  0  0  0  0  0
  150.0831  141.0179  153.7468 H   0  0  0  0  0  0  0  0  0  0  0  0
  149.3868  140.4434  156.6156 H   0  0  0  0  0  0  0  0  0  0  0  0
  151.0805  141.7262  155.3174 H   0  0  0  0  0  0  0  0  0  0  0  0
  150.4731  143.1308  156.1849 H   0  0  0  0  0  0  0  0  0  0  0  0
  150.9905  140.8639  158.0095 H   0  0  0  0  0  0  0  0  0  0  0  0
  152.4314  141.3011  157.1214 H   0  0  0  0  0  0  0  0  0  0  0  0
  151.4209  144.4145  156.9721 H   0  0  0  0  0  0  0  0  0  0  0  0
  150.0425  144.1015  158.0347 H   0  0  0  0  0  0  0  0  0  0  0  0
  152.5166  145.6759  158.6008 H   0  0  0  0  0  0  0  0  0  0  0  0
  150.9566  145.7791  159.4074 H   0  0  0  0  0  0  0  0  0  0  0  0
  153.2667  144.4923  160.4613 H   0  0  0  0  0  0  0  0  0  0  0  0
  151.6126  144.1901  161.0242 H   0  0  0  0  0  0  0  0  0  0  0  0
  146.7965  142.7690  153.1447 H   0  0  0  0  0  0  0  0  0  0  0  0
  1  2  1  0  0  0  0
  1 19  1  0  0  0  0
  1 20  1  0  0  0  0
  1 21  1  0  0  0  0
  2 18  2  0  0  0  0
  2  3  1  0  0  0  0
  3  4  2  0  0  0  0
  3 22  1  0  0  0  0
  4  5  1  0  0  0  0
  5  6  1  0  0  0  0
  5 18  1  0  0  0  0
  6  7  1  0  0  0  0
  6 23  1  0  0  0  0
  6 24  1  0  0  0  0
  7  8  1  0  0  0  0
  7  9  1  0  0  0  0
  7 25  1  0  0  0  0
  8 26  1  0  0  0  0
  8 27  1  0  0  0  0
  8 28  1  0  0  0  0
  9 10  1  0  0  0  0
  9 29  1  0  0  0  0
 10 11  1  0  0  0  0
 10 30  1  0  0  0  0
 10 31  1  0  0  0  0
 11 12  1  0  0  0  0
 11 32  1  0  0  0  0
 11 33  1  0  0  0  0
 12 16  1  0  0  0  0
 12 13  1  0  0  0  0
 13 14  1  0  0  0  0
 13 34  1  0  0  0  0
 13 35  1  0  0  0  0
 14 15  1  0  0  0  0
 14 36  1  0  0  0  0
 14 37  1  0  0  0  0
 15 16  1  0  0  0  0
 15 38  1  0  0  0  0
 15 39  1  0  0  0  0
 16 17  2  0  0  0  0
 18 40  1  0  0  0  0
M  END
> <s_m_source_file>
AV-unprocessed.smi

> <i_m_source_file_index>
3328

> <i_lp_mmshare_version>
43012

> <i_f3d_flags>
0

> <s_epik_input>
W0NIM11jMVtjSF1ubihbY0hdMSlbQ0gyXVtDQEhdKFtDSDNdKVtOSF1bQ0gyXVtDSDJdTjJbQ0gyXVtDSDJdW0NIMl1DMj1P

> <s_epik_cmdline>
J2VwaWtfcHl0aG9uJywgJy1waCcsICc3LjAnLCAnLXRuJywgJzgnLCAnLW1hJywgJzIwMCcsICctbWV0YWxfYmluZGluZycsICctaW1hZScsICc8aW5maWxlLm1hZT4nLCAnLW9tYWUnLCAnPG91dGZpbGUubWFlPic=

> <r_lp_tautomer_probability>
1

> <r_epik_Ionization_Penalty>
2.53591

> <r_epik_Ionization_Penalty_Charging>
0

> <r_epik_Ionization_Penalty_Neutral>
2.53591

> <r_epik_State_Penalty>
2.70334

> <r_epik_Charging_Adjusted_Penalty>
2.70334

> <i_epik_Tot_Q>
0

> <i_epik_Tot_abs_Q>
0

> <r_epik_Metal_State_Penalty>
2.70327

> <b_epik_Metal_Only>
0

> <s_lp_Force_Field>
OPLS_2005

> <r_lp_Energy>
20.4488

> <b_lp_Chiralities_Consistent>
1

> <s_lp_Variant>
AV-unprocessed.smi:3328-3

> <Gold.Version>
5.8.1

> <Gold.Id.Protein>
6NUR|6NUR_protein|mol2

> <Gold.PLP.Fitness>
42.3771

> <Gold.PLP.PLP>
-45.0619

> <Gold.PLP.part.hbond>
0.0000

> <Gold.PLP.part.metal>
0.0000

> <Gold.PLP.part.buried>
-5.1416

> <Gold.PLP.part.nonpolar>
-40.2799

> <Gold.PLP.part.repulsive>
0.1517

> <Gold.PLP.ligand.clash>
0.0000

> <Gold.PLP.ligand.torsion>
1.4046

> <Gold.PLP.Chemscore.Hbond>
0.0000

> <Gold.PLP.Chemscore.CHOScore>
0.0000

> <Gold.PLP.Chemscore.Metal>
0.0000

> <Gold.PLP.Chemscore.Internal.Correction>
0.1243

> <Gold.Rescore>
     Score         DG    S(hbond)    S(metal)    S(lipo)     H(rot)  DE(clash)    DE(int)     intcor
     10.65     -12.10       0.00        0.00      97.99       1.89       0.07       1.38       ----

> <Gold.Chemscore.Fitness>
10.6485

> <Gold.Chemscore.DG>
-12.1009

> <Gold.Chemscore.ZeroCoef>
-5.4800

> <Gold.Chemscore.Hbond>
0.0000

> <Gold.Chemscore.Metal>
0.0000

> <Gold.Chemscore.Lipo>
97.9863

> <Gold.Chemscore.Internal_Hbond>
0.0000

> <Gold.Chemscore.DEClash>
0.0698

> <Gold.Chemscore.DEInternal>
1.3827

> <Gold.Chemscore.Rot>
1.8920

> <Gold.Chemscore.Internal.Correction>
   9.000000E+99

> <Gold.Chemscore.Hbond.Weighted>
-0.0000

> <Gold.Chemscore.Metal.Weighted>
-0.0000

> <Gold.Chemscore.Lipo.Weighted>
-11.4644

> <Gold.Chemscore.Internal_Hbond.Weighted>
0.0000

> <Gold.Chemscore.DEClash.Weighted>
0.0698

> <Gold.Chemscore.DEInternal.Weighted>
1.3827

> <Gold.Chemscore.Rot.Weighted>
4.8435

> <Gold.Chemscore.Internal.Correction.Weighted>
   9.000000E+99

> <Gold.Protein.RotatedTorsions>
[ 6907 6896 6895 6894 ] final   -2.82 input  -60.11 | X-H torsion
[ 7974 7965 7964 7962 ] final  111.24 input  175.53 | X-H torsion
[ 8008 7997 7996 7995 ] final   18.19 input   59.86 | X-H torsion
[ 10167 10162 10161 10158 ] final   47.37 input  -65.29 | X-H torsion
[ 10718 10713 10712 10709 ] final  178.51 input   66.30 | X-H torsion
[ 10763 10752 10751 10750 ] final   37.18 input  -60.55 | X-H torsion
[ 11005 11000 10999 10996 ] final  -73.36 input  -57.11 | X-H torsion

> <Gold.Protein.ActiveResidues>
 VAL166  LYS551  ARG553  GLY616  TRP617  ASP618  TYR619  PRO620  LYS621  CYS622 
 ASP623  PHE694  ASN695  SER759  ASP760  ASP761  ALA762  ILE779  LEU786  VAL792 
 PHE793  MET794  SER795  GLU796  ALA797  LYS798  CYS799  TRP800  GLU811  SER814 

> <Gold.Protein.RotatedAtoms>
  151.5237  135.1067  159.9884 H   0  0  0  0  0  0  0  0  0  0  0  0  # atno 6907 bound_to 6896
  152.4609  133.7816  159.6864 H   0  0  0  0  0  0  0  0  0  0  0  0  # atno 6908 bound_to 6896
  150.8571  133.7634  159.3030 H   0  0  0  0  0  0  0  0  0  0  0  0  # atno 6909 bound_to 6896
  145.2448  139.2764  143.4099 H   0  0  0  0  0  0  0  0  0  0  0  0  # atno 7974 bound_to 7965
  154.9024  140.3002  155.5310 H   0  0  0  0  0  0  0  0  0  0  0  0  # atno 8008 bound_to 7997
  156.3018  140.2404  156.3989 H   0  0  0  0  0  0  0  0  0  0  0  0  # atno 8009 bound_to 7997
  154.8507  140.0409  157.1591 H   0  0  0  0  0  0  0  0  0  0  0  0  # atno 8010 bound_to 7997
  140.3043  144.2896  150.6212 H   0  0  0  0  0  0  0  0  0  0  0  0  # atno 10167 bound_to 10162
  156.8895  130.9842  151.3051 H   0  0  0  0  0  0  0  0  0  0  0  0  # atno 10718 bound_to 10713
  153.0047  135.6285  154.2104 H   0  0  0  0  0  0  0  0  0  0  0  0  # atno 10763 bound_to 10752
  154.1847  135.2811  155.3042 H   0  0  0  0  0  0  0  0  0  0  0  0  # atno 10764 bound_to 10752
  154.5807  135.5648  153.7242 H   0  0  0  0  0  0  0  0  0  0  0  0  # atno 10765 bound_to 10752
  141.1621  133.6876  156.7199 H   0  0  0  0  0  0  0  0  0  0  0  0  # atno 11005 bound_to 11000
  146.3319  140.2821  142.8611 LP  0  0  0  0  0  0  0  0  0  0  0  0  # atno 17320 bound_to 7965
  144.9556  140.8223  143.5545 LP  0  0  0  0  0  0  0  0  0  0  0  0  # atno 17321 bound_to 7965
  140.5623  143.2190  151.7743 LP  0  0  0  0  0  0  0  0  0  0  0  0  # atno 17342 bound_to 10162
  139.4908  144.4331  151.9850 LP  0  0  0  0  0  0  0  0  0  0  0  0  # atno 17343 bound_to 10162
  157.6092  130.8570  149.8925 LP  0  0  0  0  0  0  0  0  0  0  0  0  # atno 17370 bound_to 10713
  156.0636  130.3696  150.0927 LP  0  0  0  0  0  0  0  0  0  0  0  0  # atno 17371 bound_to 10713
  140.2824  134.8306  157.3944 LP  0  0  0  0  0  0  0  0  0  0  0  0  # atno 17394 bound_to 11000
  140.1421  134.4958  155.8023 LP  0  0  0  0  0  0  0  0  0  0  0  0  # atno 17395 bound_to 11000

$$$$
