AV-unprocessed.smi:2902|AV-procd|sdf|11154|dock7
  -GOLD-   2272016 33D 1   1.00000     0.00000
 Structure written by MMmdl.
 47 48  0  0  0  0  0  0  0  0  1 V2000
  149.1855  131.6317  155.3101 C   0  0  0  0  0  0  0  0  0  0  0  0
  149.5007  132.3128  153.9724 C   0  0  0  0  0  0  0  0  0  0  0  0
  148.7168  133.6226  153.7699 C   0  0  1  0  0  0  0  0  0  0  0  0
  147.3261  133.3003  153.7549 O   0  0  0  0  0  0  0  0  0  0  0  0
  146.5671  133.7904  152.6529 C   0  0  0  0  0  0  0  0  0  0  0  0
  145.1280  133.2552  152.6711 C   0  0  0  0  0  0  0  0  0  0  0  0
  144.7322  133.0274  151.2037 C   0  0  0  0  0  0  0  0  0  0  0  0
  145.9674  133.3758  150.3660 C   0  0  0  0  0  0  0  0  0  0  0  0
  147.1415  133.2709  151.3370 C   0  0  0  0  0  0  0  0  0  0  0  0
  149.0311  134.6366  154.8824 C   0  0  0  0  0  0  0  0  0  0  0  0
  148.8886  134.3288  156.0659 O   0  0  0  0  0  0  0  0  0  0  0  0
  149.4369  135.8496  154.4775 N   0  0  0  0  0  0  0  0  0  0  0  0
  149.7292  136.9904  155.3440 C   0  0  1  0  0  0  0  0  0  0  0  0
  150.6245  136.5198  156.5060 C   0  0  0  0  0  0  0  0  0  0  0  0
  150.3695  138.1286  154.5064 C   0  0  2  0  0  0  0  0  0  0  0  0
  151.9052  138.0406  154.4293 C   0  0  0  0  0  0  0  0  0  0  0  0
  149.9787  139.4388  155.0147 N   0  0  0  0  0  0  0  0  0  0  0  0
  149.2279  139.7815  156.0645 C   0  0  0  0  0  0  0  0  0  0  0  0
  149.0705  141.0896  156.2079 N   0  0  0  0  0  0  0  0  0  0  0  0
  149.7874  141.5253  155.1303 C   0  0  0  0  0  0  0  0  0  0  0  0
  150.3488  140.5772  154.3801 N   0  0  0  0  0  0  0  0  0  0  0  0
  149.7451  130.7018  155.4130 H   0  0  0  0  0  0  0  0  0  0  0  0
  148.1250  131.3923  155.3901 H   0  0  0  0  0  0  0  0  0  0  0  0
  149.4494  132.2724  156.1517 H   0  0  0  0  0  0  0  0  0  0  0  0
  150.5725  132.5073  153.9124 H   0  0  0  0  0  0  0  0  0  0  0  0
  149.2701  131.6165  153.1647 H   0  0  0  0  0  0  0  0  0  0  0  0
  148.9919  134.0502  152.8034 H   0  0  0  0  0  0  0  0  0  0  0  0
  146.5612  134.8814  152.6113 H   0  0  0  0  0  0  0  0  0  0  0  0
  145.0887  132.3059  153.2070 H   0  0  0  0  0  0  0  0  0  0  0  0
  144.4498  133.9403  153.1799 H   0  0  0  0  0  0  0  0  0  0  0  0
  144.4578  131.9824  151.0544 H   0  0  0  0  0  0  0  0  0  0  0  0
  143.8728  133.6318  150.9134 H   0  0  0  0  0  0  0  0  0  0  0  0
  146.0819  132.7261  149.4980 H   0  0  0  0  0  0  0  0  0  0  0  0
  145.8853  134.4014  150.0036 H   0  0  0  0  0  0  0  0  0  0  0  0
  148.0148  133.8351  151.0081 H   0  0  0  0  0  0  0  0  0  0  0  0
  147.4374  132.2262  151.4435 H   0  0  0  0  0  0  0  0  0  0  0  0
  149.5163  136.0078  153.4832 H   0  0  0  0  0  0  0  0  0  0  0  0
  148.7922  137.3621  155.7634 H   0  0  0  0  0  0  0  0  0  0  0  0
  150.7749  137.3086  157.2425 H   0  0  0  0  0  0  0  0  0  0  0  0
  151.6045  136.2023  156.1484 H   0  0  0  0  0  0  0  0  0  0  0  0
  150.1768  135.6775  157.0344 H   0  0  0  0  0  0  0  0  0  0  0  0
  149.9929  138.0504  153.4846 H   0  0  0  0  0  0  0  0  0  0  0  0
  152.2307  137.1469  153.8977 H   0  0  0  0  0  0  0  0  0  0  0  0
  152.3555  138.0213  155.4221 H   0  0  0  0  0  0  0  0  0  0  0  0
  152.3182  138.8958  153.8932 H   0  0  0  0  0  0  0  0  0  0  0  0
  148.7860  139.0602  156.7362 H   0  0  0  0  0  0  0  0  0  0  0  0
  149.8950  142.5724  154.8885 H   0  0  0  0  0  0  0  0  0  0  0  0
  1  2  1  0  0  0  0
  1 22  1  0  0  0  0
  1 23  1  0  0  0  0
  1 24  1  0  0  0  0
  2  3  1  0  0  0  0
  2 25  1  0  0  0  0
  2 26  1  0  0  0  0
  3  4  1  0  0  0  0
  3 10  1  0  0  0  0
  3 27  1  0  0  0  0
  4  5  1  0  0  0  0
  5  9  1  0  0  0  0
  5  6  1  0  0  0  0
  5 28  1  0  0  0  0
  6  7  1  0  0  0  0
  6 29  1  0  0  0  0
  6 30  1  0  0  0  0
  7  8  1  0  0  0  0
  7 31  1  0  0  0  0
  7 32  1  0  0  0  0
  8  9  1  0  0  0  0
  8 33  1  0  0  0  0
  8 34  1  0  0  0  0
  9 35  1  0  0  0  0
  9 36  1  0  0  0  0
 10 11  2  0  0  0  0
 10 12  1  0  0  0  0
 12 13  1  0  0  0  0
 12 37  1  0  0  0  0
 13 14  1  0  0  0  0
 13 15  1  0  0  0  0
 13 38  1  0  0  0  0
 14 39  1  0  0  0  0
 14 40  1  0  0  0  0
 14 41  1  0  0  0  0
 15 16  1  0  0  0  0
 15 17  1  0  0  0  0
 15 42  1  0  0  0  0
 16 43  1  0  0  0  0
 16 44  1  0  0  0  0
 16 45  1  0  0  0  0
 17 21  1  0  0  0  0
 17 18  1  0  0  0  0
 18 19  2  0  0  0  0
 18 46  1  0  0  0  0
 19 20  1  0  0  0  0
 20 21  2  0  0  0  0
 20 47  1  0  0  0  0
M  END
> <s_m_source_file>
AV-unprocessed.smi

> <i_m_source_file_index>
2902

> <i_lp_mmshare_version>
43012

> <i_f3d_flags>
0

> <s_epik_input>
W0NIMl0xW0NIMl1bQ0gyXVtDSDJdW0NIXTFPW0NAQEhdKFtDSDJdW0NIM10pQyg9TylbTkhdW0NASF0oW0NIM10pW0NASF0oW0NIM10pbjJbY0hdbltjSF1uMg==

> <s_epik_cmdline>
J2VwaWtfcHl0aG9uJywgJy1waCcsICc3LjAnLCAnLXRuJywgJzgnLCAnLW1hJywgJzIwMCcsICctbWV0YWxfYmluZGluZycsICctaW1hZScsICc8aW5maWxlLm1hZT4nLCAnLW9tYWUnLCAnPG91dGZpbGUubWFlPic=

> <r_lp_tautomer_probability>
1

> <r_epik_Ionization_Penalty>
6.95617e-05

> <r_epik_Ionization_Penalty_Charging>
0

> <r_epik_Ionization_Penalty_Neutral>
6.95617e-05

> <r_epik_State_Penalty>
-0

> <r_epik_Charging_Adjusted_Penalty>
0

> <i_epik_Tot_Q>
0

> <i_epik_Tot_abs_Q>
0

> <r_epik_Metal_State_Penalty>
-0

> <b_epik_Metal_Only>
0

> <s_lp_Force_Field>
OPLS_2005

> <r_lp_Energy>
29.0587

> <b_lp_Chiralities_Consistent>
1

> <s_lp_Variant>
AV-unprocessed.smi:2902-4

> <Gold.Version>
5.8.1

> <Gold.Id.Protein>
6NUR|6NUR_protein|mol2

> <Gold.PLP.Fitness>
37.8205

> <Gold.PLP.PLP>
-32.2046

> <Gold.PLP.part.hbond>
-1.9301

> <Gold.PLP.part.metal>
0.0000

> <Gold.PLP.part.buried>
-3.2136

> <Gold.PLP.part.nonpolar>
-26.6983

> <Gold.PLP.part.repulsive>
0.3112

> <Gold.PLP.ligand.clash>
0.0000

> <Gold.PLP.ligand.torsion>
1.6854

> <Gold.PLP.Chemscore.Hbond>
1.9280

> <Gold.PLP.Chemscore.CHOScore>
1.0000

> <Gold.PLP.Chemscore.Metal>
0.0000

> <Gold.Chemscore.Hbonds>
donor molecule, donor type, donor heavy atom, donor atom, acceptor molecule, acceptor atom, score
      L1  H    12    37       P1  7948  1.00
      P1  H  7989  7998       L1    21  0.90
      L1  C    20    47       P1  8028  1.00

> <Gold.PLP.Chemscore.Internal.Correction>
0.2028

> <Gold.Rescore>
     Score         DG    S(hbond)    S(metal)    S(lipo)     H(rot)  DE(clash)    DE(int)     intcor
      8.66     -12.43       1.81        0.00      66.54       2.69       0.00       3.77       ----

> <Gold.Chemscore.Fitness>
8.6586

> <Gold.Chemscore.DG>
-12.4262

> <Gold.Chemscore.ZeroCoef>
-5.4800

> <Gold.Chemscore.Hbond>
1.8132

> <Gold.Chemscore.Metal>
0.0000

> <Gold.Chemscore.Lipo>
66.5431

> <Gold.Chemscore.Internal_Hbond>
0.0000

> <Gold.Chemscore.DEClash>
0.0000

> <Gold.Chemscore.DEInternal>
3.7675

> <Gold.Chemscore.Rot>
2.6935

> <Gold.Chemscore.Internal.Correction>
   9.000000E+99

> <Gold.Chemscore.Hbonds>
donor molecule, donor type, donor heavy atom, donor atom, acceptor molecule, acceptor atom, score
      L1  H    12    37       P1  7948  0.39
      P1  H  7989  7998       L1    21  0.84

> <Gold.Chemscore.Hbond.Weighted>
-6.0560

> <Gold.Chemscore.Metal.Weighted>
-0.0000

> <Gold.Chemscore.Lipo.Weighted>
-7.7855

> <Gold.Chemscore.Internal_Hbond.Weighted>
0.0000

> <Gold.Chemscore.DEClash.Weighted>
0.0000

> <Gold.Chemscore.DEInternal.Weighted>
3.7675

> <Gold.Chemscore.Rot.Weighted>
6.8954

> <Gold.Chemscore.Internal.Correction.Weighted>
   9.000000E+99

> <Gold.Protein.RotatedTorsions>
[ 6907 6896 6895 6894 ] final  -98.54 input  -60.11 | X-H torsion
[ 7974 7965 7964 7962 ] final   30.88 input  175.53 | X-H torsion
[ 8008 7997 7996 7995 ] final   -5.75 input   59.86 | X-H torsion
[ 10167 10162 10161 10158 ] final -118.10 input  -65.29 | X-H torsion
[ 10718 10713 10712 10709 ] final  -47.25 input   66.30 | X-H torsion
[ 10763 10752 10751 10750 ] final -129.38 input  -60.55 | X-H torsion
[ 11005 11000 10999 10996 ] final  -63.68 input  -57.11 | X-H torsion

> <Gold.Protein.ActiveResidues>
 VAL166  LYS551  ARG553  GLY616  TRP617  ASP618  TYR619  PRO620  LYS621  CYS622 
 ASP623  PHE694  ASN695  SER759  ASP760  ASP761  ALA762  ILE779  LEU786  VAL792 
 PHE793  MET794  SER795  GLU796  ALA797  LYS798  CYS799  TRP800  GLU811  SER814 

> <Gold.Protein.RotatedAtoms>
  150.7050  134.1178  159.4023 H   0  0  0  0  0  0  0  0  0  0  0  0  # atno 6907 bound_to 6896
  151.9164  135.0314  160.0528 H   0  0  0  0  0  0  0  0  0  0  0  0  # atno 6908 bound_to 6896
  152.2292  133.5010  159.5243 H   0  0  0  0  0  0  0  0  0  0  0  0  # atno 6909 bound_to 6896
  146.1584  139.6730  142.9050 H   0  0  0  0  0  0  0  0  0  0  0  0  # atno 7974 bound_to 7965
  154.6007  140.2450  155.7796 H   0  0  0  0  0  0  0  0  0  0  0  0  # atno 8008 bound_to 7997
  156.2309  140.2967  156.0138 H   0  0  0  0  0  0  0  0  0  0  0  0  # atno 8009 bound_to 7997
  155.2216  140.0400  157.2939 H   0  0  0  0  0  0  0  0  0  0  0  0  # atno 8010 bound_to 7997
  140.0611  143.4967  152.2031 H   0  0  0  0  0  0  0  0  0  0  0  0  # atno 10167 bound_to 10162
  156.2103  130.4160  149.9124 H   0  0  0  0  0  0  0  0  0  0  0  0  # atno 10718 bound_to 10713
  154.8757  135.3897  154.3911 H   0  0  0  0  0  0  0  0  0  0  0  0  # atno 10763 bound_to 10752
  153.4646  135.7029  153.6035 H   0  0  0  0  0  0  0  0  0  0  0  0  # atno 10764 bound_to 10752
  153.4518  135.3832  155.2256 H   0  0  0  0  0  0  0  0  0  0  0  0  # atno 10765 bound_to 10752
  141.1401  133.6655  156.5717 H   0  0  0  0  0  0  0  0  0  0  0  0  # atno 11005 bound_to 11000
  145.4649  141.0434  143.2731 LP  0  0  0  0  0  0  0  0  0  0  0  0  # atno 17320 bound_to 7965
  144.7994  139.6169  143.7078 LP  0  0  0  0  0  0  0  0  0  0  0  0  # atno 17321 bound_to 7965
  139.5893  144.7544  151.3441 LP  0  0  0  0  0  0  0  0  0  0  0  0  # atno 17342 bound_to 10162
  140.7171  143.7236  150.7677 LP  0  0  0  0  0  0  0  0  0  0  0  0  # atno 17343 bound_to 10162
  156.6804  130.8856  151.3575 LP  0  0  0  0  0  0  0  0  0  0  0  0  # atno 17370 bound_to 10713
  157.7034  130.9358  150.0857 LP  0  0  0  0  0  0  0  0  0  0  0  0  # atno 17371 bound_to 10713
  140.3908  134.7442  157.4720 LP  0  0  0  0  0  0  0  0  0  0  0  0  # atno 17394 bound_to 11000
  140.0568  134.6052  155.8796 LP  0  0  0  0  0  0  0  0  0  0  0  0  # atno 17395 bound_to 11000

$$$$
