AV-unprocessed.smi:160|AV-procd|sdf|1368|dock6
  -GOLD-   2262019 83D 1   1.00000     0.00000
 Structure written by MMmdl.
 28 29  0  0  0  0  0  0  0  0  2 V2000
  148.0153  137.1350  160.3004 N   0  5  0  0  0  0  0  0  0  0  0  0
  148.7779  136.9896  159.1946 C   0  0  0  0  0  0  0  0  0  0  0  0
  149.6995  136.1875  159.0467 O   0  0  0  0  0  0  0  0  0  0  0  0
  148.4236  137.9243  158.0622 C   0  0  0  0  0  0  0  0  0  0  0  0
  147.4002  138.8219  158.1934 N   0  0  0  0  0  0  0  0  0  0  0  0
  147.4607  139.3900  156.9964 C   0  0  0  0  0  0  0  0  0  0  0  0
  148.4315  138.9110  156.2102 N   0  0  0  0  0  0  0  0  0  0  0  0
  148.8112  139.2307  154.7961 C   0  0  1  0  0  0  0  0  0  0  0  0
  148.0288  138.4600  153.9385 O   0  0  0  0  0  0  0  0  0  0  0  0
  146.8257  139.1594  153.6497 C   0  0  2  0  0  0  0  0  0  0  0  0
  146.1888  138.5970  152.3695 C   0  0  0  0  0  0  0  0  0  0  0  0
  147.1279  138.5988  151.3154 O   0  0  0  0  0  0  0  0  0  0  0  0
  147.3152  140.6054  153.5036 C   0  0  1  0  0  0  0  0  0  0  0  0
  146.2913  141.5047  153.8787 O   0  0  0  0  0  0  0  0  0  0  0  0
  148.4973  140.7030  154.4699 C   0  0  2  0  0  0  0  0  0  0  0  0
  149.5958  141.3387  153.8484 O   0  0  0  0  0  0  0  0  0  0  0  0
  149.0665  137.9255  156.8901 N   0  0  0  0  0  0  0  0  0  0  0  0
  149.8665  138.9608  154.7356 H   0  0  0  0  0  0  0  0  0  0  0  0
  146.1405  139.0798  154.4963 H   0  0  0  0  0  0  0  0  0  0  0  0
  147.6315  140.7985  152.4769 H   0  0  0  0  0  0  0  0  0  0  0  0
  148.2396  141.2485  155.3792 H   0  0  0  0  0  0  0  0  0  0  0  0
  147.1436  136.5964  160.3664 H   0  0  0  0  0  0  0  0  0  0  0  0
  146.7801  140.1698  156.6879 H   0  0  0  0  0  0  0  0  0  0  0  0
  145.8799  137.5633  152.5288 H   0  0  0  0  0  0  0  0  0  0  0  0
  145.2994  139.1615  152.0881 H   0  0  0  0  0  0  0  0  0  0  0  0
  147.7868  139.2503  151.5017 H   0  0  0  0  0  0  0  0  0  0  0  0
  145.4933  141.2456  153.4437 H   0  0  0  0  0  0  0  0  0  0  0  0
  150.1794  141.6504  154.5236 H   0  0  0  0  0  0  0  0  0  0  0  0
  1  2  1  0  0  0  0
  1 22  1  0  0  0  0
  2  3  2  0  0  0  0
  2  4  1  0  0  0  0
  4 17  2  0  0  0  0
  4  5  1  0  0  0  0
  5  6  2  0  0  0  0
  6  7  1  0  0  0  0
  6 23  1  0  0  0  0
  7  8  1  0  0  0  0
  7 17  1  0  0  0  0
  8 18  1  0  0  0  0
  8 15  1  0  0  0  0
  8  9  1  0  0  0  0
  9 10  1  0  0  0  0
 10 19  1  0  0  0  0
 10 11  1  0  0  0  0
 10 13  1  0  0  0  0
 11 12  1  0  0  0  0
 11 24  1  0  0  0  0
 11 25  1  0  0  0  0
 12 26  1  0  0  0  0
 13 20  1  0  0  0  0
 13 14  1  0  0  0  0
 13 15  1  0  0  0  0
 14 27  1  0  0  0  0
 15 21  1  0  0  0  0
 15 16  1  0  0  0  0
 16 28  1  0  0  0  0
M  CHG  1   1  -1
M  END
> <s_m_source_file>
AV-unprocessed.smi

> <i_m_source_file_index>
160

> <i_lp_mmshare_version>
43012

> <i_f3d_flags>
0

> <s_epik_input>
W05IMl1DKD1PKWMxbltjSF1uKG4xKVtDQEBIXTJPW0NASF0oW0NIMl1bT0hdKVtDQEBIXShbT0hdKVtDQEhdMltPSF0=

> <s_epik_cmdline>
J2VwaWtfcHl0aG9uJywgJy1waCcsICc3LjAnLCAnLXRuJywgJzgnLCAnLW1hJywgJzIwMCcsICctbWV0YWxfYmluZGluZycsICctaW1hZScsICc8aW5maWxlLm1hZT4nLCAnLW9tYWUnLCAnPG91dGZpbGUubWFlPic=

> <r_lp_tautomer_probability>
1

> <r_epik_Ionization_Penalty>
6.6993

> <r_epik_Ionization_Penalty_Charging>
6.6993

> <r_epik_Ionization_Penalty_Neutral>
6.01698e-06

> <r_epik_State_Penalty>
6.69929

> <r_epik_Charging_Adjusted_Penalty>
13.3986

> <i_epik_Tot_Q>
-1

> <i_epik_Tot_abs_Q>
1

> <r_epik_Metal_State_Penalty>
2.62798

> <b_epik_Metal_Only>
1

> <s_epik_Chemistry_Notes>
This compound contains an acetal/aminal-like group ( X-CH(R)-Y where X, Y are N, S, or O) that may be acid/base labile, releasing an aldehyde.

> <s_lp_Force_Field>
OPLS_2005

> <r_lp_Energy>
37.5232

> <b_lp_Chiralities_Consistent>
1

> <s_lp_Variant>
AV-unprocessed.smi:160-26

> <Gold.Version>
5.8.1

> <Gold.Id.Protein>
6NUR|6NUR_protein|mol2

> <Gold.PLP.Fitness>
45.3147

> <Gold.PLP.PLP>
-24.7971

> <Gold.PLP.part.hbond>
-10.9436

> <Gold.PLP.part.metal>
0.0000

> <Gold.PLP.part.buried>
-2.1604

> <Gold.PLP.part.nonpolar>
-11.9955

> <Gold.PLP.part.repulsive>
0.1975

> <Gold.PLP.ligand.clash>
0.0000

> <Gold.PLP.ligand.torsion>
0.7438

> <Gold.PLP.Chemscore.Hbond>
7.3212

> <Gold.PLP.Chemscore.CHOScore>
0.0000

> <Gold.PLP.Chemscore.Metal>
0.0000

> <Gold.Chemscore.Hbonds>
donor molecule, donor type, donor heavy atom, donor atom, acceptor molecule, acceptor atom, score
      L1  H    12    26       P1  7957  0.98
      L1  H    14    27       P1 10175  0.63
      P1  H  6896  6908       L1     3  1.00
      P1  H  6931  6943       L1     1  0.84
      P1  H  6934  6947       L1     1  0.89
      P1  H  7954  7966       L1    12  0.55
      P1  H  8011  8017       L1    16  0.78

> <Gold.PLP.Chemscore.Internal.Correction>
0.0415

> <Gold.Rescore>
     Score         DG    S(hbond)    S(metal)    S(lipo)     H(rot)  DE(clash)    DE(int)     intcor
     11.73     -12.99       4.45        0.00      25.56       4.04       0.50       0.76       ----

> <Gold.Chemscore.Fitness>
11.7318

> <Gold.Chemscore.DG>
-12.9920

> <Gold.Chemscore.ZeroCoef>
-5.4800

> <Gold.Chemscore.Hbond>
4.4506

> <Gold.Chemscore.Metal>
0.0000

> <Gold.Chemscore.Lipo>
25.5578

> <Gold.Chemscore.Internal_Hbond>
0.0000

> <Gold.Chemscore.DEClash>
0.5011

> <Gold.Chemscore.DEInternal>
0.7592

> <Gold.Chemscore.Rot>
4.0403

> <Gold.Chemscore.Internal.Correction>
   9.000000E+99

> <Gold.Chemscore.Hbonds>
donor molecule, donor type, donor heavy atom, donor atom, acceptor molecule, acceptor atom, score
      L1  H    12    26       P1  7957  0.87
      L1  H    14    27       P1 10175  0.22
      P1  H  6896  6908       L1     3  1.00
      P1  H  6931  6943       L1     1  0.34
      P1  H  6934  6947       L1     1  0.08
      P1  H  7954  7966       L1    12  0.03
      P1  H  8011  8017       L1    16  0.51

> <Gold.Chemscore.Hbond.Weighted>
-14.8649

> <Gold.Chemscore.Metal.Weighted>
-0.0000

> <Gold.Chemscore.Lipo.Weighted>
-2.9903

> <Gold.Chemscore.Internal_Hbond.Weighted>
0.0000

> <Gold.Chemscore.DEClash.Weighted>
0.5011

> <Gold.Chemscore.DEInternal.Weighted>
0.7592

> <Gold.Chemscore.Rot.Weighted>
10.3431

> <Gold.Chemscore.Internal.Correction.Weighted>
   9.000000E+99

> <Gold.Protein.RotatedTorsions>
[ 6907 6896 6895 6894 ] final  177.32 input  -60.11 | X-H torsion
[ 7974 7965 7964 7962 ] final   50.85 input  175.53 | X-H torsion
[ 8008 7997 7996 7995 ] final  -61.93 input   59.86 | X-H torsion
[ 10167 10162 10161 10158 ] final  -80.62 input  -65.29 | X-H torsion
[ 10718 10713 10712 10709 ] final  -47.86 input   66.30 | X-H torsion
[ 10763 10752 10751 10750 ] final  102.16 input  -60.55 | X-H torsion
[ 11005 11000 10999 10996 ] final  105.50 input  -57.11 | X-H torsion

> <Gold.Protein.ActiveResidues>
 VAL166  LYS551  ARG553  GLY616  TRP617  ASP618  TYR619  PRO620  LYS621  CYS622 
 ASP623  PHE694  ASN695  SER759  ASP760  ASP761  ALA762  ILE779  LEU786  VAL792 
 PHE793  MET794  SER795  GLU796  ALA797  LYS798  CYS799  TRP800  GLU811  SER814 

> <Gold.Protein.RotatedAtoms>
  151.7058  133.3311  159.3277 H   0  0  0  0  0  0  0  0  0  0  0  0  # atno 6907 bound_to 6896
  150.7715  134.6575  159.6331 H   0  0  0  0  0  0  0  0  0  0  0  0  # atno 6908 bound_to 6896
  152.3741  134.6692  160.0217 H   0  0  0  0  0  0  0  0  0  0  0  0  # atno 6909 bound_to 6896
  145.9971  139.4400  143.0038 H   0  0  0  0  0  0  0  0  0  0  0  0  # atno 7974 bound_to 7965
  154.4473  140.1007  156.6508 H   0  0  0  0  0  0  0  0  0  0  0  0  # atno 8008 bound_to 7997
  155.5399  140.3483  155.4426 H   0  0  0  0  0  0  0  0  0  0  0  0  # atno 8009 bound_to 7997
  156.0604  140.1325  156.9937 H   0  0  0  0  0  0  0  0  0  0  0  0  # atno 8010 bound_to 7997
  140.4487  143.2490  151.8521 H   0  0  0  0  0  0  0  0  0  0  0  0  # atno 10167 bound_to 10162
  156.2043  130.4157  149.9198 H   0  0  0  0  0  0  0  0  0  0  0  0  # atno 10718 bound_to 10713
  153.3360  135.4020  155.1534 H   0  0  0  0  0  0  0  0  0  0  0  0  # atno 10763 bound_to 10752
  154.8633  135.3622  154.5408 H   0  0  0  0  0  0  0  0  0  0  0  0  # atno 10764 bound_to 10752
  153.5849  135.7075  153.5507 H   0  0  0  0  0  0  0  0  0  0  0  0  # atno 10765 bound_to 10752
  139.8803  134.9338  156.5524 H   0  0  0  0  0  0  0  0  0  0  0  0  # atno 11005 bound_to 11000
  145.7543  140.9960  143.1233 LP  0  0  0  0  0  0  0  0  0  0  0  0  # atno 17320 bound_to 7965
  144.6907  139.9253  143.7469 LP  0  0  0  0  0  0  0  0  0  0  0  0  # atno 17321 bound_to 7965
  139.4795  144.5145  151.8886 LP  0  0  0  0  0  0  0  0  0  0  0  0  # atno 17342 bound_to 10162
  140.4233  144.2214  150.5887 LP  0  0  0  0  0  0  0  0  0  0  0  0  # atno 17343 bound_to 10162
  156.6897  130.8891  151.3586 LP  0  0  0  0  0  0  0  0  0  0  0  0  # atno 17370 bound_to 10713
  157.7004  130.9326  150.0767 LP  0  0  0  0  0  0  0  0  0  0  0  0  # atno 17371 bound_to 10713
  140.8230  133.8339  155.8913 LP  0  0  0  0  0  0  0  0  0  0  0  0  # atno 17394 bound_to 11000
  140.9400  134.1912  157.4804 LP  0  0  0  0  0  0  0  0  0  0  0  0  # atno 17395 bound_to 11000

$$$$
