AV-unprocessed.smi:1701|AV-procd|sdf|6844|dock7
  -GOLD-   22720 8 23D 1   1.00000     0.00000
 Structure written by MMmdl.
 54 56  0  0  0  0  0  0  0  0  4 V2000
  153.6694  141.6594  160.4938 C   0  0  0  0  0  0  0  0  0  0  0  0
  152.7835  142.9098  160.3906 C   0  0  0  0  0  0  0  0  0  0  0  0
  152.4987  143.2887  159.0064 N   0  0  0  0  0  0  0  0  0  0  0  0
  152.4918  144.7207  158.6964 C   0  0  0  0  0  0  0  0  0  0  0  0
  151.8724  145.5708  159.8169 C   0  0  0  0  0  0  0  0  0  0  0  0
  151.6481  142.4252  158.2743 C   0  0  0  0  0  0  0  0  0  0  0  0
  151.0110  141.3025  158.8574 C   0  0  0  0  0  0  0  0  0  0  0  0
  150.1673  140.4869  158.0762 C   0  0  0  0  0  0  0  0  0  0  0  0
  149.9512  140.7989  156.7189 C   0  0  0  0  0  0  0  0  0  0  0  0
  149.1094  139.9376  155.9652 N   0  0  0  0  0  0  0  0  0  0  0  0
  149.2441  139.5100  154.6852 C   0  0  0  0  0  0  0  0  0  0  0  0
  150.1861  139.9255  154.0131 O   0  0  0  0  0  0  0  0  0  0  0  0
  148.3211  138.6507  154.1551 N   0  5  0  0  0  0  0  0  0  0  0  0
  146.8941  138.8811  153.8667 C   0  0  1  0  0  0  0  0  0  0  0  0
  146.7437  139.6374  152.5327 C   0  0  0  0  0  0  0  0  0  0  0  0
  146.5616  138.5571  151.4521 C   0  0  0  0  0  0  0  0  0  0  0  0
  146.5622  137.2646  152.1685 N   0  3  2  0  0  0  0  0  0  0  0  0
  145.8538  136.1353  151.5135 C   0  0  0  0  0  0  0  0  0  0  0  0
  144.3305  136.1956  151.7151 C   0  0  0  0  0  0  0  0  0  0  0  0
  143.9867  136.3216  153.2032 C   0  0  0  0  0  0  0  0  0  0  0  0
  144.6582  137.5743  153.7780 C   0  0  0  0  0  0  0  0  0  0  0  0
  146.2000  137.5345  153.5796 C   0  0  2  0  0  0  0  0  0  0  0  0
  150.6227  141.9180  156.1748 C   0  0  0  0  0  0  0  0  0  0  0  0
  151.4232  142.6710  156.9596 N   0  3  0  0  0  0  0  0  0  0  0  0
  153.8334  141.3895  161.5374 H   0  0  0  0  0  0  0  0  0  0  0  0
  154.6465  141.8243  160.0390 H   0  0  0  0  0  0  0  0  0  0  0  0
  153.2089  140.8031  160.0002 H   0  0  0  0  0  0  0  0  0  0  0  0
  151.8364  142.7159  160.8948 H   0  0  0  0  0  0  0  0  0  0  0  0
  153.2319  143.7343  160.9420 H   0  0  0  0  0  0  0  0  0  0  0  0
  153.5054  145.0603  158.4798 H   0  0  0  0  0  0  0  0  0  0  0  0
  151.9239  144.8869  157.7804 H   0  0  0  0  0  0  0  0  0  0  0  0
  151.8545  146.6234  159.5339 H   0  0  0  0  0  0  0  0  0  0  0  0
  152.4292  145.4934  160.7504 H   0  0  0  0  0  0  0  0  0  0  0  0
  150.8445  145.2659  160.0155 H   0  0  0  0  0  0  0  0  0  0  0  0
  151.1663  141.0405  159.8926 H   0  0  0  0  0  0  0  0  0  0  0  0
  149.6865  139.6283  158.5219 H   0  0  0  0  0  0  0  0  0  0  0  0
  148.2641  139.6426  156.4314 H   0  0  0  0  0  0  0  0  0  0  0  0
  146.3925  139.4118  154.6770 H   0  0  0  0  0  0  0  0  0  0  0  0
  145.8533  140.2660  152.5674 H   0  0  0  0  0  0  0  0  0  0  0  0
  147.5858  140.2969  152.3175 H   0  0  0  0  0  0  0  0  0  0  0  0
  145.6221  138.7116  150.9194 H   0  0  0  0  0  0  0  0  0  0  0  0
  147.3676  138.5737  150.7176 H   0  0  0  0  0  0  0  0  0  0  0  0
  146.1045  136.1069  150.4527 H   0  0  0  0  0  0  0  0  0  0  0  0
  146.2345  135.2098  151.9468 H   0  0  0  0  0  0  0  0  0  0  0  0
  143.9126  137.0407  151.1668 H   0  0  0  0  0  0  0  0  0  0  0  0
  143.8665  135.3005  151.3000 H   0  0  0  0  0  0  0  0  0  0  0  0
  142.9059  136.3802  153.3360 H   0  0  0  0  0  0  0  0  0  0  0  0
  144.3227  135.4351  153.7424 H   0  0  0  0  0  0  0  0  0  0  0  0
  144.2091  138.4453  153.2946 H   0  0  0  0  0  0  0  0  0  0  0  0
  144.4159  137.6582  154.8390 H   0  0  0  0  0  0  0  0  0  0  0  0
  146.6041  136.7396  154.2093 H   0  0  0  0  0  0  0  0  0  0  0  0
  150.5640  142.2359  155.1447 H   0  0  0  0  0  0  0  0  0  0  0  0
  147.5380  137.0050  152.2070 H   0  0  0  0  0  0  0  0  0  0  0  0
  151.8884  143.4728  156.5343 H   0  0  0  0  0  0  0  0  0  0  0  0
  1  2  1  0  0  0  0
  1 25  1  0  0  0  0
  1 26  1  0  0  0  0
  1 27  1  0  0  0  0
  2  3  1  0  0  0  0
  2 28  1  0  0  0  0
  2 29  1  0  0  0  0
  3  4  1  0  0  0  0
  3  6  1  0  0  0  0
  4  5  1  0  0  0  0
  4 30  1  0  0  0  0
  4 31  1  0  0  0  0
  5 32  1  0  0  0  0
  5 33  1  0  0  0  0
  5 34  1  0  0  0  0
  6 24  1  0  0  0  0
  6  7  2  0  0  0  0
  7  8  1  0  0  0  0
  7 35  1  0  0  0  0
  8  9  2  0  0  0  0
  8 36  1  0  0  0  0
  9 10  1  0  0  0  0
  9 23  1  0  0  0  0
 10 11  1  0  0  0  0
 10 37  1  0  0  0  0
 11 12  2  0  0  0  0
 11 13  1  0  0  0  0
 13 14  1  0  0  0  0
 14 22  1  0  0  0  0
 14 15  1  0  0  0  0
 14 38  1  0  0  0  0
 15 16  1  0  0  0  0
 15 39  1  0  0  0  0
 15 40  1  0  0  0  0
 16 17  1  0  0  0  0
 16 41  1  0  0  0  0
 16 42  1  0  0  0  0
 17 22  1  0  0  0  0
 17 18  1  0  0  0  0
 17 53  1  0  0  0  0
 18 19  1  0  0  0  0
 18 43  1  0  0  0  0
 18 44  1  0  0  0  0
 19 20  1  0  0  0  0
 19 45  1  0  0  0  0
 19 46  1  0  0  0  0
 20 21  1  0  0  0  0
 20 47  1  0  0  0  0
 20 48  1  0  0  0  0
 21 22  1  0  0  0  0
 21 49  1  0  0  0  0
 21 50  1  0  0  0  0
 22 51  1  0  0  0  0
 23 24  2  0  0  0  0
 23 52  1  0  0  0  0
 24 54  1  0  0  0  0
M  CHG  1  13  -1
M  CHG  1  17   1
M  CHG  1  24   1
M  END
> <s_m_source_file>
AV-unprocessed.smi

> <i_m_source_file_index>
1701

> <i_lp_mmshare_version>
43012

> <i_f3d_flags>
0

> <s_epik_input>
W0NIM11bQ0gyXU4oW0NIMl1bQ0gzXSljMVtjSF1bY0hdYyhbY0hdbjEpW05IXUMoPU8pW05IXVtDQEhdKFtDSDJdW0NIMl0yKVtDQEBIXShOMjMpW0NIMl1bQ0gyXVtDSDJdW0NIMl0z

> <s_epik_cmdline>
J2VwaWtfcHl0aG9uJywgJy1waCcsICc3LjAnLCAnLXRuJywgJzgnLCAnLW1hJywgJzIwMCcsICctbWV0YWxfYmluZGluZycsICctaW1hZScsICc8aW5maWxlLm1hZT4nLCAnLW9tYWUnLCAnPG91dGZpbGUubWFlPic=

> <r_lp_tautomer_probability>
0.999994

> <r_epik_Ionization_Penalty>
7.37095

> <r_epik_Ionization_Penalty_Charging>
7.37095

> <r_epik_Ionization_Penalty_Neutral>
3.78969e-06

> <r_epik_State_Penalty>
6.83842

> <r_epik_Charging_Adjusted_Penalty>
14.2094

> <i_epik_Tot_Q>
1

> <i_epik_Tot_abs_Q>
3

> <r_epik_Metal_State_Penalty>
2.78552

> <b_epik_Metal_Only>
1

> <s_lp_Force_Field>
OPLS_2005

> <r_lp_Energy>
52.2686

> <b_lp_Chiralities_Consistent>
1

> <s_lp_Variant>
AV-unprocessed.smi:1701-24

> <Gold.Version>
5.8.1

> <Gold.Id.Protein>
6NUR|6NUR_protein|mol2

> <Gold.PLP.Fitness>
51.6636

> <Gold.PLP.PLP>
-45.2278

> <Gold.PLP.part.hbond>
-2.0000

> <Gold.PLP.part.metal>
0.0000

> <Gold.PLP.part.buried>
-1.1590

> <Gold.PLP.part.nonpolar>
-43.6022

> <Gold.PLP.part.repulsive>
1.4900

> <Gold.PLP.ligand.clash>
0.0000

> <Gold.PLP.ligand.torsion>
1.7821

> <Gold.PLP.Chemscore.Hbond>
3.0000

> <Gold.PLP.Chemscore.CHOScore>
0.0000

> <Gold.PLP.Chemscore.Metal>
0.0000

> <Gold.Chemscore.Hbonds>
donor molecule, donor type, donor heavy atom, donor atom, acceptor molecule, acceptor atom, score
      L1  H    17    53       P1  7948  2.00
      P1  H  7989  7998       L1    12  0.99

> <Gold.PLP.Chemscore.Internal.Correction>
1.0000

> <Gold.Rescore>
     Score         DG    S(hbond)    S(metal)    S(lipo)     H(rot)  DE(clash)    DE(int)     intcor
     18.13     -21.48       1.97        0.00     108.64       1.28       0.45       2.90       ----

> <Gold.Chemscore.Fitness>
18.1307

> <Gold.Chemscore.DG>
-21.4794

> <Gold.Chemscore.ZeroCoef>
-5.4800

> <Gold.Chemscore.Hbond>
1.9688

> <Gold.Chemscore.Metal>
0.0000

> <Gold.Chemscore.Lipo>
108.6352

> <Gold.Chemscore.Internal_Hbond>
0.0000

> <Gold.Chemscore.DEClash>
0.4498

> <Gold.Chemscore.DEInternal>
2.8989

> <Gold.Chemscore.Rot>
1.2838

> <Gold.Chemscore.Internal.Correction>
   9.000000E+99

> <Gold.Chemscore.Hbonds>
donor molecule, donor type, donor heavy atom, donor atom, acceptor molecule, acceptor atom, score
      L1  H    17    53       P1  7948  0.99
      P1  H  7989  7998       L1    12  0.94

> <Gold.Chemscore.Hbond.Weighted>
-6.5756

> <Gold.Chemscore.Metal.Weighted>
-0.0000

> <Gold.Chemscore.Lipo.Weighted>
-12.7103

> <Gold.Chemscore.Internal_Hbond.Weighted>
0.0000

> <Gold.Chemscore.DEClash.Weighted>
0.4498

> <Gold.Chemscore.DEInternal.Weighted>
2.8989

> <Gold.Chemscore.Rot.Weighted>
3.2865

> <Gold.Chemscore.Internal.Correction.Weighted>
   9.000000E+99

> <Gold.Protein.RotatedTorsions>
[ 6907 6896 6895 6894 ] final -150.85 input  -60.11 | X-H torsion
[ 7974 7965 7964 7962 ] final  164.58 input  175.53 | X-H torsion
[ 8008 7997 7996 7995 ] final  -41.27 input   59.86 | X-H torsion
[ 10167 10162 10161 10158 ] final -166.13 input  -65.29 | X-H torsion
[ 10718 10713 10712 10709 ] final   85.95 input   66.30 | X-H torsion
[ 10763 10752 10751 10750 ] final  131.33 input  -60.55 | X-H torsion
[ 11005 11000 10999 10996 ] final -161.82 input  -57.11 | X-H torsion

> <Gold.Protein.ActiveResidues>
 VAL166  LYS551  ARG553  GLY616  TRP617  ASP618  TYR619  PRO620  LYS621  CYS622 
 ASP623  PHE694  ASN695  SER759  ASP760  ASP761  ALA762  ILE779  LEU786  VAL792 
 PHE793  MET794  SER795  GLU796  ALA797  LYS798  CYS799  TRP800  GLU811  SER814 

> <Gold.Protein.RotatedAtoms>
  151.2046  133.4591  159.2596 H   0  0  0  0  0  0  0  0  0  0  0  0  # atno 6907 bound_to 6896
  151.1036  134.9986  159.8470 H   0  0  0  0  0  0  0  0  0  0  0  0  # atno 6908 bound_to 6896
  152.5445  134.1971  159.8750 H   0  0  0  0  0  0  0  0  0  0  0  0  # atno 6909 bound_to 6896
  144.7539  139.8346  143.6356 H   0  0  0  0  0  0  0  0  0  0  0  0  # atno 7974 bound_to 7965
  154.4005  140.1504  156.3164 H   0  0  0  0  0  0  0  0  0  0  0  0  # atno 8008 bound_to 7997
  155.8569  140.3455  155.5709 H   0  0  0  0  0  0  0  0  0  0  0  0  # atno 8009 bound_to 7997
  155.7922  140.0858  157.1993 H   0  0  0  0  0  0  0  0  0  0  0  0  # atno 8010 bound_to 7997
  139.6136  144.0766  152.1866 H   0  0  0  0  0  0  0  0  0  0  0  0  # atno 10167 bound_to 10162
  157.6922  131.0196  150.2900 H   0  0  0  0  0  0  0  0  0  0  0  0  # atno 10718 bound_to 10713
  153.7725  135.3180  155.3354 H   0  0  0  0  0  0  0  0  0  0  0  0  # atno 10763 bound_to 10752
  154.8191  135.4616  154.0730 H   0  0  0  0  0  0  0  0  0  0  0  0  # atno 10764 bound_to 10752
  153.1994  135.6920  153.8335 H   0  0  0  0  0  0  0  0  0  0  0  0  # atno 10765 bound_to 10752
  140.6161  134.4799  157.5220 H   0  0  0  0  0  0  0  0  0  0  0  0  # atno 11005 bound_to 11000
  146.1525  139.4612  143.0040 LP  0  0  0  0  0  0  0  0  0  0  0  0  # atno 17320 bound_to 7965
  145.6847  141.0181  143.1587 LP  0  0  0  0  0  0  0  0  0  0  0  0  # atno 17321 bound_to 7965
  140.0390  144.6022  150.7426 LP  0  0  0  0  0  0  0  0  0  0  0  0  # atno 17342 bound_to 10162
  140.7335  143.2718  151.3863 LP  0  0  0  0  0  0  0  0  0  0  0  0  # atno 17343 bound_to 10162
  156.3432  130.3819  149.7391 LP  0  0  0  0  0  0  0  0  0  0  0  0  # atno 17370 bound_to 10713
  156.4893  130.8077  151.3088 LP  0  0  0  0  0  0  0  0  0  0  0  0  # atno 17371 bound_to 10713
  139.9172  134.8222  156.1327 LP  0  0  0  0  0  0  0  0  0  0  0  0  # atno 17394 bound_to 11000
  141.0775  133.6769  156.2266 LP  0  0  0  0  0  0  0  0  0  0  0  0  # atno 17395 bound_to 11000

$$$$
