AV-unprocessed.smi:1385|AV-procd|sdf|5632|dock4
  -GOLD-   22720 5253D 1   1.00000     0.00000
 Structure written by MMmdl.
 38 39  0  0  0  0  0  0  0  0  3 V2000
  152.5096  140.6128  159.6667 C   0  0  0  0  0  0  0  0  0  0  0  0
  152.1580  140.4375  158.2291 C   0  0  0  0  0  0  0  0  0  0  0  0
  152.8903  139.7009  157.3899 N   0  0  0  0  0  0  0  0  0  0  0  0
  152.3612  139.6886  156.1075 N   0  0  0  0  0  0  0  0  0  0  0  0
  151.2336  140.4052  155.9970 C   0  0  0  0  0  0  0  0  0  0  0  0
  150.5673  140.5232  154.8366 N   0  5  0  0  0  0  0  0  0  0  0  0
  149.7209  139.5462  154.4411 C   0  0  0  0  0  0  0  0  0  0  0  0
  150.0348  138.4197  154.0497 O   0  0  0  0  0  0  0  0  0  0  0  0
  148.4286  139.8986  154.5001 N   0  0  0  0  0  0  0  0  0  0  0  0
  147.2934  139.0593  154.1297 C   0  0  2  0  0  0  0  0  0  0  0  0
  147.4651  137.6313  154.6800 C   0  0  0  0  0  0  0  0  0  0  0  0
  146.3319  136.7098  154.2017 C   0  0  0  0  0  0  0  0  0  0  0  0
  146.2458  136.6929  152.7193 N   0  3  1  0  0  0  0  0  0  0  0  0
  145.2571  135.7031  152.2198 C   0  0  0  0  0  0  0  0  0  0  0  0
  145.5673  135.2064  150.8038 C   0  0  0  0  0  0  0  0  0  0  0  0
  145.4104  136.0838  149.8101 N   0  0  0  0  0  0  0  0  0  0  0  0
  145.9275  134.0478  150.6035 O   0  0  0  0  0  0  0  0  0  0  0  0
  146.0338  138.0589  152.1699 C   0  0  0  0  0  0  0  0  0  0  0  0
  147.1636  139.0084  152.5992 C   0  0  0  0  0  0  0  0  0  0  0  0
  150.7430  141.1804  157.5030 S   0  0  0  0  0  0  0  0  0  0  0  0
  152.0890  139.7968  160.2544 H   0  0  0  0  0  0  0  0  0  0  0  0
  152.1111  141.5562  160.0401 H   0  0  0  0  0  0  0  0  0  0  0  0
  153.5923  140.6172  159.7954 H   0  0  0  0  0  0  0  0  0  0  0  0
  148.2215  140.8308  154.8278 H   0  0  0  0  0  0  0  0  0  0  0  0
  146.3789  139.4947  154.5374 H   0  0  0  0  0  0  0  0  0  0  0  0
  148.4245  137.2232  154.3581 H   0  0  0  0  0  0  0  0  0  0  0  0
  147.4870  137.6455  155.7704 H   0  0  0  0  0  0  0  0  0  0  0  0
  146.5141  135.7006  154.5728 H   0  0  0  0  0  0  0  0  0  0  0  0
  145.3783  137.0357  154.6202 H   0  0  0  0  0  0  0  0  0  0  0  0
  145.2606  134.8237  152.8652 H   0  0  0  0  0  0  0  0  0  0  0  0
  144.2508  136.1230  152.2676 H   0  0  0  0  0  0  0  0  0  0  0  0
  145.6029  135.8127  148.8565 H   0  0  0  0  0  0  0  0  0  0  0  0
  145.1004  137.0228  150.0167 H   0  0  0  0  0  0  0  0  0  0  0  0
  145.9916  138.0254  151.0810 H   0  0  0  0  0  0  0  0  0  0  0  0
  145.0715  138.4445  152.5106 H   0  0  0  0  0  0  0  0  0  0  0  0
  146.9741  140.0082  152.2064 H   0  0  0  0  0  0  0  0  0  0  0  0
  148.1036  138.6749  152.1564 H   0  0  0  0  0  0  0  0  0  0  0  0
  147.1473  136.3793  152.3877 H   0  0  0  0  0  0  0  0  0  0  0  0
  1  2  1  0  0  0  0
  1 21  1  0  0  0  0
  1 22  1  0  0  0  0
  1 23  1  0  0  0  0
  2 20  1  0  0  0  0
  2  3  2  0  0  0  0
  3  4  1  0  0  0  0
  4  5  2  0  0  0  0
  5  6  1  0  0  0  0
  5 20  1  0  0  0  0
  6  7  1  0  0  0  0
  7  8  2  0  0  0  0
  7  9  1  0  0  0  0
  9 10  1  0  0  0  0
  9 24  1  0  0  0  0
 10 19  1  0  0  0  0
 10 11  1  0  0  0  0
 10 25  1  0  0  0  0
 11 12  1  0  0  0  0
 11 26  1  0  0  0  0
 11 27  1  0  0  0  0
 12 13  1  0  0  0  0
 12 28  1  0  0  0  0
 12 29  1  0  0  0  0
 13 14  1  0  0  0  0
 13 18  1  0  0  0  0
 13 38  1  0  0  0  0
 14 15  1  0  0  0  0
 14 30  1  0  0  0  0
 14 31  1  0  0  0  0
 15 16  1  0  0  0  0
 15 17  2  0  0  0  0
 16 32  1  0  0  0  0
 16 33  1  0  0  0  0
 18 19  1  0  0  0  0
 18 34  1  0  0  0  0
 18 35  1  0  0  0  0
 19 36  1  0  0  0  0
 19 37  1  0  0  0  0
M  CHG  1   6  -1
M  CHG  1  13   1
M  END
> <s_m_source_file>
AV-unprocessed.smi

> <i_m_source_file_index>
1385

> <i_lp_mmshare_version>
43012

> <i_f3d_flags>
0

> <s_epik_input>
W0NIM11jMW5uYyhzMSlbTkhdQyg9TylbTkhdW0NIXTJbQ0gyXVtDSDJdTihbQ0gyXVtDSDJdMilbQ0gyXUMoPU8pW05IMl0=

> <s_epik_cmdline>
J2VwaWtfcHl0aG9uJywgJy1waCcsICc3LjAnLCAnLXRuJywgJzgnLCAnLW1hJywgJzIwMCcsICctbWV0YWxfYmluZGluZycsICctaW1hZScsICc8aW5maWxlLm1hZT4nLCAnLW9tYWUnLCAnPG91dGZpbGUubWFlPic=

> <r_lp_tautomer_probability>
1

> <r_epik_Ionization_Penalty>
3.90109

> <r_epik_Ionization_Penalty_Charging>
3.79141

> <r_epik_Ionization_Penalty_Neutral>
0.109679

> <r_epik_State_Penalty>
3.87237

> <r_epik_Charging_Adjusted_Penalty>
7.66378

> <i_epik_Tot_Q>
0

> <i_epik_Tot_abs_Q>
2

> <r_epik_Metal_State_Penalty>
1.33354

> <b_epik_Metal_Only>
1

> <s_lp_Force_Field>
OPLS_2005

> <r_lp_Energy>
4.67367

> <b_lp_Chiralities_Consistent>
1

> <s_lp_Variant>
AV-unprocessed.smi:1385-5

> <Gold.Version>
5.8.1

> <Gold.Id.Protein>
6NUR|6NUR_protein|mol2

> <Gold.PLP.Fitness>
44.3894

> <Gold.PLP.PLP>
-30.1892

> <Gold.PLP.part.hbond>
-5.9062

> <Gold.PLP.part.metal>
0.0000

> <Gold.PLP.part.buried>
-3.5840

> <Gold.PLP.part.nonpolar>
-21.2799

> <Gold.PLP.part.repulsive>
1.2608

> <Gold.PLP.ligand.clash>
0.0000

> <Gold.PLP.ligand.torsion>
1.9279

> <Gold.PLP.Chemscore.Hbond>
5.9920

> <Gold.PLP.Chemscore.CHOScore>
0.0000

> <Gold.PLP.Chemscore.Metal>
0.0000

> <Gold.Chemscore.Hbonds>
donor molecule, donor type, donor heavy atom, donor atom, acceptor molecule, acceptor atom, score
      L1  H    13    38       P1  7948  2.00
      L1  H    16    32       P1  7921  1.00
      L1  H    16    33       P1 10171  1.00
      P1  H  7989  7998       L1     6  1.00
      P1  H  7997  8009       L1     3  0.85

> <Gold.PLP.Chemscore.Internal.Correction>
0.0801

> <Gold.Rescore>
     Score         DG    S(hbond)    S(metal)    S(lipo)     H(rot)  DE(clash)    DE(int)     intcor
     15.59     -19.23       4.10        0.00      45.11       2.04       0.09       3.54       ----

> <Gold.Chemscore.Fitness>
15.5895

> <Gold.Chemscore.DG>
-19.2261

> <Gold.Chemscore.ZeroCoef>
-5.4800

> <Gold.Chemscore.Hbond>
4.1002

> <Gold.Chemscore.Metal>
0.0000

> <Gold.Chemscore.Lipo>
45.1090

> <Gold.Chemscore.Internal_Hbond>
0.0000

> <Gold.Chemscore.DEClash>
0.0928

> <Gold.Chemscore.DEInternal>
3.5439

> <Gold.Chemscore.Rot>
2.0415

> <Gold.Chemscore.Internal.Correction>
   9.000000E+99

> <Gold.Chemscore.Hbonds>
donor molecule, donor type, donor heavy atom, donor atom, acceptor molecule, acceptor atom, score
      L1  H    13    38       P1  7948  1.00
      L1  H    16    32       P1  7921  0.99
      L1  H    16    33       P1 10171  0.94
      P1  H  7989  7998       L1     6  0.51
      P1  H  7997  8009       L1     3  0.14

> <Gold.Chemscore.Hbond.Weighted>
-13.6946

> <Gold.Chemscore.Metal.Weighted>
-0.0000

> <Gold.Chemscore.Lipo.Weighted>
-5.2778

> <Gold.Chemscore.Internal_Hbond.Weighted>
0.0000

> <Gold.Chemscore.DEClash.Weighted>
0.0928

> <Gold.Chemscore.DEInternal.Weighted>
3.5439

> <Gold.Chemscore.Rot.Weighted>
5.2262

> <Gold.Chemscore.Internal.Correction.Weighted>
   9.000000E+99

> <Gold.Protein.RotatedTorsions>
[ 6907 6896 6895 6894 ] final -143.12 input  -60.11 | X-H torsion
[ 7974 7965 7964 7962 ] final -117.94 input  175.53 | X-H torsion
[ 8008 7997 7996 7995 ] final  160.48 input   59.86 | X-H torsion
[ 10167 10162 10161 10158 ] final  161.93 input  -65.29 | X-H torsion
[ 10718 10713 10712 10709 ] final  -34.65 input   66.30 | X-H torsion
[ 10763 10752 10751 10750 ] final   13.02 input  -60.55 | X-H torsion
[ 11005 11000 10999 10996 ] final  -35.06 input  -57.11 | X-H torsion

> <Gold.Protein.ActiveResidues>
 VAL166  LYS551  ARG553  GLY616  TRP617  ASP618  TYR619  PRO620  LYS621  CYS622 
 ASP623  PHE694  ASN695  SER759  ASP760  ASP761  ALA762  ILE779  LEU786  VAL792 
 PHE793  MET794  SER795  GLU796  ALA797  LYS798  CYS799  TRP800  GLU811  SER814 

> <Gold.Protein.RotatedAtoms>
  151.0961  133.5278  159.2612 H   0  0  0  0  0  0  0  0  0  0  0  0  # atno 6907 bound_to 6896
  151.2127  135.0487  159.8927 H   0  0  0  0  0  0  0  0  0  0  0  0  # atno 6908 bound_to 6896
  152.5439  134.0775  159.8274 H   0  0  0  0  0  0  0  0  0  0  0  0  # atno 6909 bound_to 6896
  145.0795  140.8415  143.4047 H   0  0  0  0  0  0  0  0  0  0  0  0  # atno 7974 bound_to 7965
  156.2169  140.1803  156.7568 H   0  0  0  0  0  0  0  0  0  0  0  0  # atno 8008 bound_to 7997
  154.5805  140.0667  156.9126 H   0  0  0  0  0  0  0  0  0  0  0  0  # atno 8009 bound_to 7997
  155.2510  140.3329  155.4284 H   0  0  0  0  0  0  0  0  0  0  0  0  # atno 8010 bound_to 7997
  139.4855  144.4488  151.8857 H   0  0  0  0  0  0  0  0  0  0  0  0  # atno 10167 bound_to 10162
  156.3481  130.4304  149.7728 H   0  0  0  0  0  0  0  0  0  0  0  0  # atno 10718 bound_to 10713
  153.1763  135.6820  153.8539 H   0  0  0  0  0  0  0  0  0  0  0  0  # atno 10763 bound_to 10752
  153.7885  135.3172  155.3376 H   0  0  0  0  0  0  0  0  0  0  0  0  # atno 10764 bound_to 10752
  154.8031  135.4765  154.0418 H   0  0  0  0  0  0  0  0  0  0  0  0  # atno 10765 bound_to 10752
  140.9766  133.7079  156.1613 H   0  0  0  0  0  0  0  0  0  0  0  0  # atno 11005 bound_to 11000
  145.1196  139.2703  143.5595 LP  0  0  0  0  0  0  0  0  0  0  0  0  # atno 17320 bound_to 7965
  146.3530  140.0815  142.8617 LP  0  0  0  0  0  0  0  0  0  0  0  0  # atno 17321 bound_to 7965
  140.3943  144.2575  150.5897 LP  0  0  0  0  0  0  0  0  0  0  0  0  # atno 17342 bound_to 10162
  140.5117  143.2289  151.8526 LP  0  0  0  0  0  0  0  0  0  0  0  0  # atno 17343 bound_to 10162
  156.4939  130.8098  151.3106 LP  0  0  0  0  0  0  0  0  0  0  0  0  # atno 17370 bound_to 10713
  157.7457  130.9966  150.2786 LP  0  0  0  0  0  0  0  0  0  0  0  0  # atno 17371 bound_to 10713
  140.7249  134.4318  157.5571 LP  0  0  0  0  0  0  0  0  0  0  0  0  # atno 17394 bound_to 11000
  139.8933  134.8734  156.2229 LP  0  0  0  0  0  0  0  0  0  0  0  0  # atno 17395 bound_to 11000

$$$$
