AV-unprocessed.smi:1795|AV-procd|sdf|7240|dock10
  -GOLD-   22720 8493D 1   1.00000     0.00000
 Structure written by MMmdl.
 47 48  0  0  0  0  0  0  0  0  1 V2000
  146.1238  135.8782  155.3795 C   0  0  0  0  0  0  0  0  0  0  0  0
  146.6029  137.2970  155.0542 C   0  0  1  0  0  0  0  0  0  0  0  0
  148.0432  137.5464  155.5401 C   0  0  0  0  0  0  0  0  0  0  0  0
  148.5565  138.8697  155.1676 N   0  0  0  0  0  0  0  0  0  0  0  0
  149.9562  139.0798  155.6064 C   0  0  1  0  0  0  0  0  0  0  0  0
  150.9560  138.1241  154.9073 C   0  0  0  0  0  0  0  0  0  0  0  0
  150.4536  140.5425  155.4156 C   0  0  0  0  0  0  0  0  0  0  0  0
  151.4613  140.9417  156.3943 N   0  0  0  0  0  0  0  0  0  0  0  0
  151.2245  141.1540  157.6977 C   0  0  0  0  0  0  0  0  0  0  0  0
  150.1133  141.0141  158.2112 O   0  0  0  0  0  0  0  0  0  0  0  0
  152.4364  141.5673  158.5450 C   0  0  0  0  0  0  0  0  0  0  0  0
  152.2637  142.8693  159.2111 N   0  0  0  0  0  0  0  0  0  0  0  0
  151.9657  143.9758  158.3908 C   0  0  0  0  0  0  0  0  0  0  0  0
  151.7905  145.2072  158.8958 C   0  0  0  0  0  0  0  0  0  0  0  0
  151.9145  145.3835  160.3235 C   0  0  0  0  0  0  0  0  0  0  0  0
  152.2037  144.3328  161.1168 C   0  0  0  0  0  0  0  0  0  0  0  0
  152.3988  142.9855  160.5685 C   0  0  0  0  0  0  0  0  0  0  0  0
  152.6668  142.0207  161.2853 O   0  0  0  0  0  0  0  0  0  0  0  0
  148.3977  139.0207  153.7168 C   0  0  0  0  0  0  0  0  0  0  0  0
  146.9544  138.7729  153.2387 C   0  0  1  0  0  0  0  0  0  0  0  0
  146.8260  138.8609  151.7143 C   0  0  0  0  0  0  0  0  0  0  0  0
  146.5470  137.4728  153.6446 O   0  0  0  0  0  0  0  0  0  0  0  0
  146.1341  135.6972  156.4546 H   0  0  0  0  0  0  0  0  0  0  0  0
  146.7610  135.1295  154.9078 H   0  0  0  0  0  0  0  0  0  0  0  0
  145.1051  135.7197  155.0253 H   0  0  0  0  0  0  0  0  0  0  0  0
  145.9278  138.0119  155.5281 H   0  0  0  0  0  0  0  0  0  0  0  0
  148.0309  137.4289  156.6212 H   0  0  0  0  0  0  0  0  0  0  0  0
  148.7015  136.7718  155.1433 H   0  0  0  0  0  0  0  0  0  0  0  0
  150.0032  138.8604  156.6742 H   0  0  0  0  0  0  0  0  0  0  0  0
  151.9891  138.3257  155.1876 H   0  0  0  0  0  0  0  0  0  0  0  0
  150.8893  138.2088  153.8222 H   0  0  0  0  0  0  0  0  0  0  0  0
  150.7868  137.0824  155.1762 H   0  0  0  0  0  0  0  0  0  0  0  0
  150.8793  140.6620  154.4187 H   0  0  0  0  0  0  0  0  0  0  0  0
  149.6463  141.2690  155.4909 H   0  0  0  0  0  0  0  0  0  0  0  0
  152.4030  141.0720  156.0536 H   0  0  0  0  0  0  0  0  0  0  0  0
  152.6188  140.7819  159.2797 H   0  0  0  0  0  0  0  0  0  0  0  0
  153.3302  141.5844  157.9181 H   0  0  0  0  0  0  0  0  0  0  0  0
  151.8975  143.7613  157.3342 H   0  0  0  0  0  0  0  0  0  0  0  0
  151.5670  146.0445  158.2511 H   0  0  0  0  0  0  0  0  0  0  0  0
  151.7760  146.3628  160.7572 H   0  0  0  0  0  0  0  0  0  0  0  0
  152.2940  144.4842  162.1824 H   0  0  0  0  0  0  0  0  0  0  0  0
  148.6669  140.0292  153.4072 H   0  0  0  0  0  0  0  0  0  0  0  0
  149.0748  138.3388  153.1995 H   0  0  0  0  0  0  0  0  0  0  0  0
  146.2880  139.5114  153.6885 H   0  0  0  0  0  0  0  0  0  0  0  0
  147.1168  139.8471  151.3521 H   0  0  0  0  0  0  0  0  0  0  0  0
  145.7978  138.6816  151.3996 H   0  0  0  0  0  0  0  0  0  0  0  0
  147.4591  138.1225  151.2215 H   0  0  0  0  0  0  0  0  0  0  0  0
  1  2  1  0  0  0  0
  1 23  1  0  0  0  0
  1 24  1  0  0  0  0
  1 25  1  0  0  0  0
  2 22  1  0  0  0  0
  2  3  1  0  0  0  0
  2 26  1  0  0  0  0
  3  4  1  0  0  0  0
  3 27  1  0  0  0  0
  3 28  1  0  0  0  0
  4  5  1  0  0  0  0
  4 19  1  0  0  0  0
  5  6  1  0  0  0  0
  5  7  1  0  0  0  0
  5 29  1  0  0  0  0
  6 30  1  0  0  0  0
  6 31  1  0  0  0  0
  6 32  1  0  0  0  0
  7  8  1  0  0  0  0
  7 33  1  0  0  0  0
  7 34  1  0  0  0  0
  8  9  1  0  0  0  0
  8 35  1  0  0  0  0
  9 10  2  0  0  0  0
  9 11  1  0  0  0  0
 11 12  1  0  0  0  0
 11 36  1  0  0  0  0
 11 37  1  0  0  0  0
 12 17  1  0  0  0  0
 12 13  1  0  0  0  0
 13 14  2  0  0  0  0
 13 38  1  0  0  0  0
 14 15  1  0  0  0  0
 14 39  1  0  0  0  0
 15 16  2  0  0  0  0
 15 40  1  0  0  0  0
 16 17  1  0  0  0  0
 16 41  1  0  0  0  0
 17 18  2  0  0  0  0
 19 20  1  0  0  0  0
 19 42  1  0  0  0  0
 19 43  1  0  0  0  0
 20 21  1  0  0  0  0
 20 22  1  0  0  0  0
 20 44  1  0  0  0  0
 21 45  1  0  0  0  0
 21 46  1  0  0  0  0
 21 47  1  0  0  0  0
M  END
> <s_m_source_file>
AV-unprocessed.smi

> <i_m_source_file_index>
1795

> <i_lp_mmshare_version>
43012

> <i_f3d_flags>
0

> <s_epik_input>
W0NIM11bQ0BASF0xW0NIMl1OKFtDSDJdW0NASF0oTzEpW0NIM10pW0NASF0oW0NIM10pW0NIMl1bTkhdQyg9TylbQ0gyXW4yW2NIXVtjSF1bY0hdW2NIXWMyPU8=

> <s_epik_cmdline>
J2VwaWtfcHl0aG9uJywgJy1waCcsICc3LjAnLCAnLXRuJywgJzgnLCAnLW1hJywgJzIwMCcsICctbWV0YWxfYmluZGluZycsICctaW1hZScsICc8aW5maWxlLm1hZT4nLCAnLW9tYWUnLCAnPG91dGZpbGUubWFlPic=

> <r_lp_tautomer_probability>
1

> <r_epik_Ionization_Penalty>
0.237383

> <r_epik_Ionization_Penalty_Charging>
3.58805e-07

> <r_epik_Ionization_Penalty_Neutral>
0.237382

> <r_epik_State_Penalty>
0.228245

> <r_epik_Charging_Adjusted_Penalty>
0.228245

> <i_epik_Tot_Q>
0

> <i_epik_Tot_abs_Q>
0

> <r_epik_Metal_State_Penalty>
0.228221

> <b_epik_Metal_Only>
0

> <s_lp_Force_Field>
OPLS_2005

> <r_lp_Energy>
36.5227

> <b_lp_Chiralities_Consistent>
1

> <s_lp_Variant>
AV-unprocessed.smi:1795-4

> <Gold.Version>
5.8.1

> <Gold.Id.Protein>
6NUR|6NUR_protein|mol2

> <Gold.PLP.Fitness>
40.3854

> <Gold.PLP.PLP>
-41.1621

> <Gold.PLP.part.hbond>
0.0000

> <Gold.PLP.part.metal>
0.0000

> <Gold.PLP.part.buried>
-2.8042

> <Gold.PLP.part.nonpolar>
-38.4943

> <Gold.PLP.part.repulsive>
0.4001

> <Gold.PLP.ligand.clash>
0.0000

> <Gold.PLP.ligand.torsion>
0.4162

> <Gold.PLP.Chemscore.Hbond>
0.0000

> <Gold.PLP.Chemscore.CHOScore>
0.0000

> <Gold.PLP.Chemscore.Metal>
0.0000

> <Gold.PLP.Chemscore.Internal.Correction>
0.0557

> <Gold.Rescore>
     Score         DG    S(hbond)    S(metal)    S(lipo)     H(rot)  DE(clash)    DE(int)     intcor
     12.10     -12.57       0.00        0.00     100.51       1.83       0.05       0.41       ----

> <Gold.Chemscore.Fitness>
12.0983

> <Gold.Chemscore.DG>
-12.5671

> <Gold.Chemscore.ZeroCoef>
-5.4800

> <Gold.Chemscore.Hbond>
0.0000

> <Gold.Chemscore.Metal>
0.0000

> <Gold.Chemscore.Lipo>
100.5084

> <Gold.Chemscore.Internal_Hbond>
0.0000

> <Gold.Chemscore.DEClash>
0.0542

> <Gold.Chemscore.DEInternal>
0.4146

> <Gold.Chemscore.Rot>
1.8251

> <Gold.Chemscore.Internal.Correction>
   9.000000E+99

> <Gold.Chemscore.Hbond.Weighted>
-0.0000

> <Gold.Chemscore.Metal.Weighted>
-0.0000

> <Gold.Chemscore.Lipo.Weighted>
-11.7595

> <Gold.Chemscore.Internal_Hbond.Weighted>
0.0000

> <Gold.Chemscore.DEClash.Weighted>
0.0542

> <Gold.Chemscore.DEInternal.Weighted>
0.4146

> <Gold.Chemscore.Rot.Weighted>
4.6724

> <Gold.Chemscore.Internal.Correction.Weighted>
   9.000000E+99

> <Gold.Protein.RotatedTorsions>
[ 6907 6896 6895 6894 ] final   64.68 input  -60.11 | X-H torsion
[ 7974 7965 7964 7962 ] final -178.74 input  175.53 | X-H torsion
[ 8008 7997 7996 7995 ] final  -72.92 input   59.86 | X-H torsion
[ 10167 10162 10161 10158 ] final -147.06 input  -65.29 | X-H torsion
[ 10718 10713 10712 10709 ] final  -25.74 input   66.30 | X-H torsion
[ 10763 10752 10751 10750 ] final   -8.95 input  -60.55 | X-H torsion
[ 11005 11000 10999 10996 ] final -171.93 input  -57.11 | X-H torsion

> <Gold.Protein.ActiveResidues>
 VAL166  LYS551  ARG553  GLY616  TRP617  ASP618  TYR619  PRO620  LYS621  CYS622 
 ASP623  PHE694  ASN695  SER759  ASP760  ASP761  ALA762  ILE779  LEU786  VAL792 
 PHE793  MET794  SER795  GLU796  ALA797  LYS798  CYS799  TRP800  GLU811  SER814 

> <Gold.Protein.RotatedAtoms>
  152.4350  134.5704  159.9919 H   0  0  0  0  0  0  0  0  0  0  0  0  # atno 6907 bound_to 6896
  151.5817  133.3371  159.3017 H   0  0  0  0  0  0  0  0  0  0  0  0  # atno 6908 bound_to 6896
  150.8247  134.7507  159.6867 H   0  0  0  0  0  0  0  0  0  0  0  0  # atno 6909 bound_to 6896
  144.7132  140.0823  143.6425 H   0  0  0  0  0  0  0  0  0  0  0  0  # atno 7974 bound_to 7965
  154.5205  140.0788  156.8163 H   0  0  0  0  0  0  0  0  0  0  0  0  # atno 8008 bound_to 7997
  155.3586  140.3416  155.4222 H   0  0  0  0  0  0  0  0  0  0  0  0  # atno 8009 bound_to 7997
  156.1676  140.1609  156.8491 H   0  0  0  0  0  0  0  0  0  0  0  0  # atno 8010 bound_to 7997
  139.7656  143.8312  152.2615 H   0  0  0  0  0  0  0  0  0  0  0  0  # atno 10167 bound_to 10162
  156.4604  130.4502  149.6932 H   0  0  0  0  0  0  0  0  0  0  0  0  # atno 10718 bound_to 10713
  153.4478  135.7014  153.6128 H   0  0  0  0  0  0  0  0  0  0  0  0  # atno 10763 bound_to 10752
  153.4475  135.3766  155.2265 H   0  0  0  0  0  0  0  0  0  0  0  0  # atno 10764 bound_to 10752
  154.8728  135.3989  154.3886 H   0  0  0  0  0  0  0  0  0  0  0  0  # atno 10765 bound_to 10752
  140.5026  134.5878  157.4993 H   0  0  0  0  0  0  0  0  0  0  0  0  # atno 11005 bound_to 11000
  145.9692  139.2857  143.1109 LP  0  0  0  0  0  0  0  0  0  0  0  0  # atno 17320 bound_to 7965
  145.9135  140.9164  143.0441 LP  0  0  0  0  0  0  0  0  0  0  0  0  # atno 17321 bound_to 7965
  139.8331  144.7244  150.9425 LP  0  0  0  0  0  0  0  0  0  0  0  0  # atno 17342 bound_to 10162
  140.7810  143.4051  151.1084 LP  0  0  0  0  0  0  0  0  0  0  0  0  # atno 17343 bound_to 10162
  156.3723  130.7536  151.2521 LP  0  0  0  0  0  0  0  0  0  0  0  0  # atno 17370 bound_to 10713
  157.7498  131.0319  150.4205 LP  0  0  0  0  0  0  0  0  0  0  0  0  # atno 17371 bound_to 10713
  139.9704  134.7302  156.0052 LP  0  0  0  0  0  0  0  0  0  0  0  0  # atno 17394 bound_to 11000
  141.1427  133.6561  156.3777 LP  0  0  0  0  0  0  0  0  0  0  0  0  # atno 17395 bound_to 11000

$$$$
