AV-unprocessed.smi:1088|AV-procd|sdf|4731|dock5
  -GOLD-   22720 3263D 1   1.00000     0.00000
 Structure written by MMmdl.
 48 49  0  0  0  0  0  0  0  0  2 V2000
  144.9158  135.2639  150.8650 C   0  0  0  0  0  0  0  0  0  0  0  0
  145.1776  135.9622  152.0698 O   0  0  0  0  0  0  0  0  0  0  0  0
  144.0902  136.7780  152.4726 C   0  0  0  0  0  0  0  0  0  0  0  0
  144.4551  137.4781  153.7895 C   0  0  0  0  0  0  0  0  0  0  0  0
  143.4708  138.5234  154.1619 N   0  3  1  0  0  0  0  0  0  0  0  0
  142.0550  138.1490  153.9603 C   0  0  0  0  0  0  0  0  0  0  0  0
  141.2702  139.0551  154.8997 C   0  0  0  0  0  0  0  0  0  0  0  0
  142.1837  139.1553  156.1155 C   0  0  0  0  0  0  0  0  0  0  0  0
  143.6131  139.0287  155.5506 C   0  0  2  0  0  0  0  0  0  0  0  0
  144.4022  140.3554  155.5557 C   0  0  0  0  0  0  0  0  0  0  0  0
  145.6367  140.2677  154.7840 N   0  0  0  0  0  0  0  0  0  0  0  0
  146.6047  141.1959  154.7784 C   0  0  0  0  0  0  0  0  0  0  0  0
  146.5676  142.2132  155.4718 O   0  0  0  0  0  0  0  0  0  0  0  0
  147.7992  140.9265  153.8548 C   0  0  0  0  0  0  0  0  0  0  0  0
  149.0333  140.6521  154.6012 N   0  0  0  0  0  0  0  0  0  0  0  0
  149.6159  141.6519  155.3587 C   0  0  0  0  0  0  0  0  0  0  0  0
  150.7516  141.4812  156.0702 C   0  0  0  0  0  0  0  0  0  0  0  0
  151.4463  140.1993  156.0762 C   0  0  0  0  0  0  0  0  0  0  0  0
  152.4718  139.9954  156.7268 O   0  0  0  0  0  0  0  0  0  0  0  0
  150.8380  139.1988  155.2805 N   0  0  0  0  0  0  0  0  0  0  0  0
  151.4459  137.8850  155.2331 C   0  0  0  0  0  0  0  0  0  0  0  0
  149.6414  139.3788  154.5519 C   0  0  0  0  0  0  0  0  0  0  0  0
  149.1342  138.4658  153.8947 O   0  0  0  0  0  0  0  0  0  0  0  0
  145.7785  134.6518  150.6020 H   0  0  0  0  0  0  0  0  0  0  0  0
  144.7301  135.9549  150.0416 H   0  0  0  0  0  0  0  0  0  0  0  0
  144.0541  134.6035  150.9699 H   0  0  0  0  0  0  0  0  0  0  0  0
  143.8415  137.5036  151.6970 H   0  0  0  0  0  0  0  0  0  0  0  0
  143.2070  136.1559  152.6258 H   0  0  0  0  0  0  0  0  0  0  0  0
  144.5348  136.7476  154.5959 H   0  0  0  0  0  0  0  0  0  0  0  0
  145.4409  137.9342  153.6844 H   0  0  0  0  0  0  0  0  0  0  0  0
  141.7493  138.2677  152.9203 H   0  0  0  0  0  0  0  0  0  0  0  0
  141.9004  137.1065  154.2437 H   0  0  0  0  0  0  0  0  0  0  0  0
  141.1443  140.0398  154.4476 H   0  0  0  0  0  0  0  0  0  0  0  0
  140.2814  138.6640  155.1410 H   0  0  0  0  0  0  0  0  0  0  0  0
  142.0126  140.0708  156.6826 H   0  0  0  0  0  0  0  0  0  0  0  0
  141.9848  138.3190  156.7871 H   0  0  0  0  0  0  0  0  0  0  0  0
  144.1470  138.2883  156.1499 H   0  0  0  0  0  0  0  0  0  0  0  0
  143.7865  141.1669  155.1636 H   0  0  0  0  0  0  0  0  0  0  0  0
  144.6605  140.6321  156.5785 H   0  0  0  0  0  0  0  0  0  0  0  0
  145.7520  139.4571  154.1925 H   0  0  0  0  0  0  0  0  0  0  0  0
  147.5495  140.0790  153.2151 H   0  0  0  0  0  0  0  0  0  0  0  0
  147.9541  141.7710  153.1804 H   0  0  0  0  0  0  0  0  0  0  0  0
  149.1412  142.6220  155.3849 H   0  0  0  0  0  0  0  0  0  0  0  0
  151.1517  142.3044  156.6439 H   0  0  0  0  0  0  0  0  0  0  0  0
  151.4041  137.5207  154.2052 H   0  0  0  0  0  0  0  0  0  0  0  0
  150.8728  137.2468  155.9072 H   0  0  0  0  0  0  0  0  0  0  0  0
  152.4923  137.9352  155.5339 H   0  0  0  0  0  0  0  0  0  0  0  0
  143.6411  139.3192  153.5636 H   0  0  0  0  0  0  0  0  0  0  0  0
  1  2  1  0  0  0  0
  1 24  1  0  0  0  0
  1 25  1  0  0  0  0
  1 26  1  0  0  0  0
  2  3  1  0  0  0  0
  3  4  1  0  0  0  0
  3 27  1  0  0  0  0
  3 28  1  0  0  0  0
  4  5  1  0  0  0  0
  4 29  1  0  0  0  0
  4 30  1  0  0  0  0
  5  9  1  0  0  0  0
  5  6  1  0  0  0  0
  5 48  1  0  0  0  0
  6  7  1  0  0  0  0
  6 31  1  0  0  0  0
  6 32  1  0  0  0  0
  7  8  1  0  0  0  0
  7 33  1  0  0  0  0
  7 34  1  0  0  0  0
  8  9  1  0  0  0  0
  8 35  1  0  0  0  0
  8 36  1  0  0  0  0
  9 10  1  0  0  0  0
  9 37  1  0  0  0  0
 10 11  1  0  0  0  0
 10 38  1  0  0  0  0
 10 39  1  0  0  0  0
 11 12  1  0  0  0  0
 11 40  1  0  0  0  0
 12 13  2  0  0  0  0
 12 14  1  0  0  0  0
 14 15  1  0  0  0  0
 14 41  1  0  0  0  0
 14 42  1  0  0  0  0
 15 22  1  0  0  0  0
 15 16  1  0  0  0  0
 16 17  2  0  0  0  0
 16 43  1  0  0  0  0
 17 18  1  0  0  0  0
 17 44  1  0  0  0  0
 18 19  2  0  0  0  0
 18 20  1  0  0  0  0
 20 21  1  0  0  0  0
 20 22  1  0  0  0  0
 21 45  1  0  0  0  0
 21 46  1  0  0  0  0
 21 47  1  0  0  0  0
 22 23  2  0  0  0  0
M  CHG  1   5   1
M  END
> <s_m_source_file>
AV-unprocessed.smi

> <i_m_source_file_index>
1088

> <i_lp_mmshare_version>
43012

> <i_f3d_flags>
0

> <s_epik_input>
W0NIM11PW0NIMl1bQ0gyXU4xW0NIMl1bQ0gyXVtDSDJdW0NASF0xW0NIMl1bTkhdQyg9TylbQ0gyXW4yW2NIXVtjSF1jKD1PKW4oW0NIM10pYzI9Tw==

> <s_epik_cmdline>
J2VwaWtfcHl0aG9uJywgJy1waCcsICc3LjAnLCAnLXRuJywgJzgnLCAnLW1hJywgJzIwMCcsICctbWV0YWxfYmluZGluZycsICctaW1hZScsICc8aW5maWxlLm1hZT4nLCAnLW9tYWUnLCAnPG91dGZpbGUubWFlPic=

> <r_lp_tautomer_probability>
1

> <r_epik_Ionization_Penalty>
0.0127388

> <r_epik_Ionization_Penalty_Charging>
0.0127387

> <r_epik_Ionization_Penalty_Neutral>
8.26414e-08

> <r_epik_State_Penalty>
0.00987716

> <r_epik_Charging_Adjusted_Penalty>
0.0226159

> <i_epik_Tot_Q>
1

> <i_epik_Tot_abs_Q>
1

> <r_epik_Metal_State_Penalty>
0.00987836

> <b_epik_Metal_Only>
0

> <s_lp_Force_Field>
OPLS_2005

> <r_lp_Energy>
36.9775

> <b_lp_Chiralities_Consistent>
1

> <s_lp_Variant>
AV-unprocessed.smi:1088-4

> <Gold.Version>
5.8.1

> <Gold.Id.Protein>
6NUR|6NUR_protein|mol2

> <Gold.PLP.Fitness>
44.7872

> <Gold.PLP.PLP>
-33.4302

> <Gold.PLP.part.hbond>
-2.9998

> <Gold.PLP.part.metal>
0.0000

> <Gold.PLP.part.buried>
-3.8109

> <Gold.PLP.part.nonpolar>
-29.9813

> <Gold.PLP.part.repulsive>
2.5683

> <Gold.PLP.ligand.clash>
0.0000

> <Gold.PLP.ligand.torsion>
0.3492

> <Gold.PLP.Chemscore.Hbond>
3.0000

> <Gold.PLP.Chemscore.CHOScore>
1.0000

> <Gold.PLP.Chemscore.Metal>
0.0000

> <Gold.Chemscore.Hbonds>
donor molecule, donor type, donor heavy atom, donor atom, acceptor molecule, acceptor atom, score
      L1  H     5    48       P1 10175  2.00
      P1  H  7997  8008       L1    19  1.00
      L1  C    16    43       P1  8028  1.00

> <Gold.PLP.Chemscore.Internal.Correction>
0.0555

> <Gold.Rescore>
     Score         DG    S(hbond)    S(metal)    S(lipo)     H(rot)  DE(clash)    DE(int)     intcor
     11.01     -11.45       1.99        0.00      50.44       2.57       0.06       0.38       ----

> <Gold.Chemscore.Fitness>
11.0120

> <Gold.Chemscore.DG>
-11.4523

> <Gold.Chemscore.ZeroCoef>
-5.4800

> <Gold.Chemscore.Hbond>
1.9906

> <Gold.Chemscore.Metal>
0.0000

> <Gold.Chemscore.Lipo>
50.4356

> <Gold.Chemscore.Internal_Hbond>
0.0000

> <Gold.Chemscore.DEClash>
0.0595

> <Gold.Chemscore.DEInternal>
0.3808

> <Gold.Chemscore.Rot>
2.5692

> <Gold.Chemscore.Internal.Correction>
   9.000000E+99

> <Gold.Chemscore.Hbonds>
donor molecule, donor type, donor heavy atom, donor atom, acceptor molecule, acceptor atom, score
      L1  H     5    48       P1 10175  0.96
      P1  H  7997  8008       L1    19  0.98

> <Gold.Chemscore.Hbond.Weighted>
-6.6485

> <Gold.Chemscore.Metal.Weighted>
-0.0000

> <Gold.Chemscore.Lipo.Weighted>
-5.9010

> <Gold.Chemscore.Internal_Hbond.Weighted>
0.0000

> <Gold.Chemscore.DEClash.Weighted>
0.0595

> <Gold.Chemscore.DEInternal.Weighted>
0.3808

> <Gold.Chemscore.Rot.Weighted>
6.5772

> <Gold.Chemscore.Internal.Correction.Weighted>
   9.000000E+99

> <Gold.Protein.RotatedTorsions>
[ 6907 6896 6895 6894 ] final    1.79 input  -60.11 | X-H torsion
[ 7974 7965 7964 7962 ] final -105.11 input  175.53 | X-H torsion
[ 8008 7997 7996 7995 ] final  -60.54 input   59.86 | X-H torsion
[ 10167 10162 10161 10158 ] final  105.40 input  -65.29 | X-H torsion
[ 10718 10713 10712 10709 ] final -121.85 input   66.30 | X-H torsion
[ 10763 10752 10751 10750 ] final  -86.58 input  -60.55 | X-H torsion
[ 11005 11000 10999 10996 ] final  127.53 input  -57.11 | X-H torsion

> <Gold.Protein.ActiveResidues>
 VAL166  LYS551  ARG553  GLY616  TRP617  ASP618  TYR619  PRO620  LYS621  CYS622 
 ASP623  PHE694  ASN695  SER759  ASP760  ASP761  ALA762  ILE779  LEU786  VAL792 
 PHE793  MET794  SER795  GLU796  ALA797  LYS798  CYS799  TRP800  GLU811  SER814 

> <Gold.Protein.RotatedAtoms>
  151.5984  135.1049  160.0054 H   0  0  0  0  0  0  0  0  0  0  0  0  # atno 6907 bound_to 6896
  152.4270  133.7209  159.6543 H   0  0  0  0  0  0  0  0  0  0  0  0  # atno 6908 bound_to 6896
  150.8160  133.8264  159.3182 H   0  0  0  0  0  0  0  0  0  0  0  0  # atno 6909 bound_to 6896
  145.2346  140.9183  143.3185 H   0  0  0  0  0  0  0  0  0  0  0  0  # atno 7974 bound_to 7965
  154.4404  140.1037  156.6290 H   0  0  0  0  0  0  0  0  0  0  0  0  # atno 8008 bound_to 7997
  155.5626  140.3488  155.4476 H   0  0  0  0  0  0  0  0  0  0  0  0  # atno 8009 bound_to 7997
  156.0449  140.1290  157.0104 H   0  0  0  0  0  0  0  0  0  0  0  0  # atno 8010 bound_to 7997
  139.7096  144.7080  151.1049 H   0  0  0  0  0  0  0  0  0  0  0  0  # atno 10167 bound_to 10162
  156.1371  130.6438  150.9713 H   0  0  0  0  0  0  0  0  0  0  0  0  # atno 10718 bound_to 10713
  154.6241  135.5444  153.7607 H   0  0  0  0  0  0  0  0  0  0  0  0  # atno 10763 bound_to 10752
  153.0252  135.6420  154.1398 H   0  0  0  0  0  0  0  0  0  0  0  0  # atno 10764 bound_to 10752
  154.1331  135.2913  155.3160 H   0  0  0  0  0  0  0  0  0  0  0  0  # atno 10765 bound_to 10752
  139.9512  134.9621  156.8868 H   0  0  0  0  0  0  0  0  0  0  0  0  # atno 11005 bound_to 11000
  144.9645  139.3945  143.6339 LP  0  0  0  0  0  0  0  0  0  0  0  0  # atno 17320 bound_to 7965
  146.3344  139.8713  142.8839 LP  0  0  0  0  0  0  0  0  0  0  0  0  # atno 17321 bound_to 7965
  140.7730  143.5311  150.9422 LP  0  0  0  0  0  0  0  0  0  0  0  0  # atno 17342 bound_to 10162
  139.8995  143.6853  152.3133 LP  0  0  0  0  0  0  0  0  0  0  0  0  # atno 17343 bound_to 10162
  157.6542  131.0892  150.7984 LP  0  0  0  0  0  0  0  0  0  0  0  0  # atno 17370 bound_to 10713
  156.8063  130.4938  149.5362 LP  0  0  0  0  0  0  0  0  0  0  0  0  # atno 17371 bound_to 10713
  140.5715  134.0439  155.7432 LP  0  0  0  0  0  0  0  0  0  0  0  0  # atno 17394 bound_to 11000
  141.1175  133.9516  157.2794 LP  0  0  0  0  0  0  0  0  0  0  0  0  # atno 17395 bound_to 11000

$$$$
