AV-unprocessed.smi:1958|AV-procd|sdf|7909|dock4
  -GOLD-   2272010 73D 1   1.00000     0.00000
 Structure written by MMmdl.
 48 49  0  0  0  0  0  0  0  0  2 V2000
  155.5798  138.8832  152.4399 C   0  0  0  0  0  0  0  0  0  0  0  0
  155.0024  138.7349  153.7249 O   0  0  0  0  0  0  0  0  0  0  0  0
  153.5914  138.6113  153.6754 C   0  0  0  0  0  0  0  0  0  0  0  0
  153.0880  138.1527  155.0518 C   0  0  0  0  0  0  0  0  0  0  0  0
  151.6364  137.9466  155.0536 N   0  0  0  0  0  0  0  0  0  0  0  0
  151.2565  136.6215  155.1838 N   0  0  0  0  0  0  0  0  0  0  0  0
  150.0025  136.3038  155.2072 C   0  0  0  0  0  0  0  0  0  0  0  0
  149.5553  134.8908  155.3529 C   0  0  0  0  0  0  0  0  0  0  0  0
  149.9587  134.1722  156.2686 O   0  0  0  0  0  0  0  0  0  0  0  0
  148.6940  134.4623  154.4115 N   0  0  0  0  0  0  0  0  0  0  0  0
  148.1264  133.1196  154.3179 C   0  0  0  0  0  0  0  0  0  0  0  0
  148.8537  132.2363  153.2700 C   0  0  1  0  0  0  0  0  0  0  0  0
  150.0809  131.5380  153.9072 C   0  0  0  0  0  0  0  0  0  0  0  0
  147.8910  131.2745  152.6364 N   0  3  0  0  0  0  0  0  0  0  0  0
  147.7570  130.0030  153.4002 C   0  0  0  0  0  0  0  0  0  0  0  0
  146.8277  129.0153  152.6765 C   0  0  0  0  0  0  0  0  0  0  0  0
  145.5535  129.6131  152.4947 O   0  0  0  0  0  0  0  0  0  0  0  0
  145.6372  130.7708  151.6779 C   0  0  0  0  0  0  0  0  0  0  0  0
  146.5358  131.8236  152.3498 C   0  0  0  0  0  0  0  0  0  0  0  0
  148.9740  137.3241  155.0946 C   0  0  0  0  0  0  0  0  0  0  0  0
  149.3604  138.6115  154.9567 C   0  0  0  0  0  0  0  0  0  0  0  0
  150.7720  138.9977  154.9229 C   0  0  0  0  0  0  0  0  0  0  0  0
  151.1487  140.1612  154.7870 O   0  0  0  0  0  0  0  0  0  0  0  0
  156.6623  138.9697  152.5331 H   0  0  0  0  0  0  0  0  0  0  0  0
  155.2114  139.7819  151.9440 H   0  0  0  0  0  0  0  0  0  0  0  0
  155.3638  138.0207  151.8083 H   0  0  0  0  0  0  0  0  0  0  0  0
  153.1425  139.5683  153.4052 H   0  0  0  0  0  0  0  0  0  0  0  0
  153.3081  137.8858  152.9112 H   0  0  0  0  0  0  0  0  0  0  0  0
  153.5937  137.2264  155.3310 H   0  0  0  0  0  0  0  0  0  0  0  0
  153.3723  138.8785  155.8156 H   0  0  0  0  0  0  0  0  0  0  0  0
  148.4169  135.1231  153.6994 H   0  0  0  0  0  0  0  0  0  0  0  0
  148.1283  132.6189  155.2874 H   0  0  0  0  0  0  0  0  0  0  0  0
  147.0799  133.2640  154.0572 H   0  0  0  0  0  0  0  0  0  0  0  0
  149.2379  132.8850  152.4810 H   0  0  0  0  0  0  0  0  0  0  0  0
  150.7551  132.2509  154.3806 H   0  0  0  0  0  0  0  0  0  0  0  0
  150.6888  131.0189  153.1665 H   0  0  0  0  0  0  0  0  0  0  0  0
  149.7791  130.8191  154.6695 H   0  0  0  0  0  0  0  0  0  0  0  0
  148.7211  129.5184  153.5383 H   0  0  0  0  0  0  0  0  0  0  0  0
  147.3643  130.2159  154.3956 H   0  0  0  0  0  0  0  0  0  0  0  0
  147.2476  128.7144  151.7151 H   0  0  0  0  0  0  0  0  0  0  0  0
  146.7092  128.1083  153.2693 H   0  0  0  0  0  0  0  0  0  0  0  0
  146.0179  130.5074  150.6898 H   0  0  0  0  0  0  0  0  0  0  0  0
  144.6341  131.1728  151.5335 H   0  0  0  0  0  0  0  0  0  0  0  0
  146.0775  132.1714  153.2771 H   0  0  0  0  0  0  0  0  0  0  0  0
  146.5949  132.6750  151.6728 H   0  0  0  0  0  0  0  0  0  0  0  0
  147.9247  137.0678  155.1154 H   0  0  0  0  0  0  0  0  0  0  0  0
  148.6068  139.3804  154.8693 H   0  0  0  0  0  0  0  0  0  0  0  0
  148.2841  131.0353  151.7370 H   0  0  0  0  0  0  0  0  0  0  0  0
  1  2  1  0  0  0  0
  1 24  1  0  0  0  0
  1 25  1  0  0  0  0
  1 26  1  0  0  0  0
  2  3  1  0  0  0  0
  3  4  1  0  0  0  0
  3 27  1  0  0  0  0
  3 28  1  0  0  0  0
  4  5  1  0  0  0  0
  4 29  1  0  0  0  0
  4 30  1  0  0  0  0
  5 22  1  0  0  0  0
  5  6  1  0  0  0  0
  6  7  2  0  0  0  0
  7  8  1  0  0  0  0
  7 20  1  0  0  0  0
  8  9  2  0  0  0  0
  8 10  1  0  0  0  0
 10 11  1  0  0  0  0
 10 31  1  0  0  0  0
 11 12  1  0  0  0  0
 11 32  1  0  0  0  0
 11 33  1  0  0  0  0
 12 13  1  0  0  0  0
 12 14  1  0  0  0  0
 12 34  1  0  0  0  0
 13 35  1  0  0  0  0
 13 36  1  0  0  0  0
 13 37  1  0  0  0  0
 14 19  1  0  0  0  0
 14 15  1  0  0  0  0
 14 48  1  0  0  0  0
 15 16  1  0  0  0  0
 15 38  1  0  0  0  0
 15 39  1  0  0  0  0
 16 17  1  0  0  0  0
 16 40  1  0  0  0  0
 16 41  1  0  0  0  0
 17 18  1  0  0  0  0
 18 19  1  0  0  0  0
 18 42  1  0  0  0  0
 18 43  1  0  0  0  0
 19 44  1  0  0  0  0
 19 45  1  0  0  0  0
 20 21  2  0  0  0  0
 20 46  1  0  0  0  0
 21 22  1  0  0  0  0
 21 47  1  0  0  0  0
 22 23  2  0  0  0  0
M  CHG  1  14   1
M  END
> <s_m_source_file>
AV-unprocessed.smi

> <i_m_source_file_index>
1958

> <i_lp_mmshare_version>
43012

> <i_f3d_flags>
0

> <s_epik_input>
W0NIM11PW0NIMl1bQ0gyXW4xbmMoW2NIXVtjSF1jMT1PKUMoPU8pW05IXVtDSDJdW0NASF0oW0NIM10pTjJbQ0gyXVtDSDJdT1tDSDJdW0NIMl0y

> <s_epik_cmdline>
J2VwaWtfcHl0aG9uJywgJy1waCcsICc3LjAnLCAnLXRuJywgJzgnLCAnLW1hJywgJzIwMCcsICctbWV0YWxfYmluZGluZycsICctaW1hZScsICc8aW5maWxlLm1hZT4nLCAnLW9tYWUnLCAnPG91dGZpbGUubWFlPic=

> <r_lp_tautomer_probability>
1

> <r_epik_Ionization_Penalty>
0.724355

> <r_epik_Ionization_Penalty_Charging>
0.724348

> <r_epik_Ionization_Penalty_Neutral>
6.31911e-06

> <r_epik_State_Penalty>
0.749058

> <r_epik_Charging_Adjusted_Penalty>
1.47341

> <i_epik_Tot_Q>
1

> <i_epik_Tot_abs_Q>
1

> <r_epik_Metal_State_Penalty>
0.750821

> <b_epik_Metal_Only>
0

> <s_lp_Force_Field>
OPLS_2005

> <r_lp_Energy>
42.169

> <b_lp_Chiralities_Consistent>
1

> <s_lp_Variant>
AV-unprocessed.smi:1958-4

> <Gold.Version>
5.8.1

> <Gold.Id.Protein>
6NUR|6NUR_protein|mol2

> <Gold.PLP.Fitness>
43.5444

> <Gold.PLP.PLP>
-37.2923

> <Gold.PLP.part.hbond>
-3.8710

> <Gold.PLP.part.metal>
0.0000

> <Gold.PLP.part.buried>
-4.1511

> <Gold.PLP.part.nonpolar>
-30.6346

> <Gold.PLP.part.repulsive>
0.3477

> <Gold.PLP.ligand.clash>
0.0000

> <Gold.PLP.ligand.torsion>
2.0134

> <Gold.PLP.Chemscore.Hbond>
3.3753

> <Gold.PLP.Chemscore.CHOScore>
0.0000

> <Gold.PLP.Chemscore.Metal>
0.0000

> <Gold.Chemscore.Hbonds>
donor molecule, donor type, donor heavy atom, donor atom, acceptor molecule, acceptor atom, score
      L1  H    10    31       P1  7948  0.56
      L1  H    14    48       P1 10747  1.00
      P1  H  7989  7998       L1    23  1.00
      P1  H  7997  8010       L1     2  0.36
      P1  H 10752 10763       L1     6  0.40

> <Gold.PLP.Chemscore.Internal.Correction>
0.1532

> <Gold.Rescore>
     Score         DG    S(hbond)    S(metal)    S(lipo)     H(rot)  DE(clash)    DE(int)     intcor
     18.13     -20.11       2.95        0.00      87.39       2.12       0.01       1.97       ----

> <Gold.Chemscore.Fitness>
18.1279

> <Gold.Chemscore.DG>
-20.1099

> <Gold.Chemscore.ZeroCoef>
-5.4800

> <Gold.Chemscore.Hbond>
2.9454

> <Gold.Chemscore.Metal>
0.0000

> <Gold.Chemscore.Lipo>
87.3921

> <Gold.Chemscore.Internal_Hbond>
0.0000

> <Gold.Chemscore.DEClash>
0.0125

> <Gold.Chemscore.DEInternal>
1.9695

> <Gold.Chemscore.Rot>
2.1221

> <Gold.Chemscore.Internal.Correction>
   9.000000E+99

> <Gold.Chemscore.Hbonds>
donor molecule, donor type, donor heavy atom, donor atom, acceptor molecule, acceptor atom, score
      L1  H    10    31       P1  7948  0.52
      L1  H    14    48       P1 10747  0.99
      P1  H  7989  7998       L1    23  0.95
      P1  H  7997  8010       L1     2  0.10
      P1  H 10752 10763       L1     6  0.20

> <Gold.Chemscore.Hbond.Weighted>
-9.8375

> <Gold.Chemscore.Metal.Weighted>
-0.0000

> <Gold.Chemscore.Lipo.Weighted>
-10.2249

> <Gold.Chemscore.Internal_Hbond.Weighted>
0.0000

> <Gold.Chemscore.DEClash.Weighted>
0.0125

> <Gold.Chemscore.DEInternal.Weighted>
1.9695

> <Gold.Chemscore.Rot.Weighted>
5.4325

> <Gold.Chemscore.Internal.Correction.Weighted>
   9.000000E+99

> <Gold.Protein.RotatedTorsions>
[ 6907 6896 6895 6894 ] final  -93.66 input  -60.11 | X-H torsion
[ 7974 7965 7964 7962 ] final -131.11 input  175.53 | X-H torsion
[ 8008 7997 7996 7995 ] final  159.54 input   59.86 | X-H torsion
[ 10167 10162 10161 10158 ] final  -74.75 input  -65.29 | X-H torsion
[ 10718 10713 10712 10709 ] final  109.66 input   66.30 | X-H torsion
[ 10763 10752 10751 10750 ] final   92.27 input  -60.55 | X-H torsion
[ 11005 11000 10999 10996 ] final   33.54 input  -57.11 | X-H torsion

> <Gold.Protein.ActiveResidues>
 VAL166  LYS551  ARG553  GLY616  TRP617  ASP618  TYR619  PRO620  LYS621  CYS622 
 ASP623  PHE694  ASN695  SER759  ASP760  ASP761  ALA762  ILE779  LEU786  VAL792 
 PHE793  MET794  SER795  GLU796  ALA797  LYS798  CYS799  TRP800  GLU811  SER814 

> <Gold.Protein.RotatedAtoms>
  150.6927  134.1933  159.4293 H   0  0  0  0  0  0  0  0  0  0  0  0  # atno 6907 bound_to 6896
  151.9902  134.9980  160.0570 H   0  0  0  0  0  0  0  0  0  0  0  0  # atno 6908 bound_to 6896
  152.1674  133.4586  159.4928 H   0  0  0  0  0  0  0  0  0  0  0  0  # atno 6909 bound_to 6896
  144.9410  140.7239  143.4846 H   0  0  0  0  0  0  0  0  0  0  0  0  # atno 7974 bound_to 7965
  156.2232  140.1828  156.7427 H   0  0  0  0  0  0  0  0  0  0  0  0  # atno 8008 bound_to 7997
  154.5898  140.0652  156.9251 H   0  0  0  0  0  0  0  0  0  0  0  0  # atno 8009 bound_to 7997
  155.2356  140.3318  155.4300 H   0  0  0  0  0  0  0  0  0  0  0  0  # atno 8010 bound_to 7997
  140.5001  143.2363  151.7766 H   0  0  0  0  0  0  0  0  0  0  0  0  # atno 10167 bound_to 10162
  157.6531  131.0918  150.6486 H   0  0  0  0  0  0  0  0  0  0  0  0  # atno 10718 bound_to 10713
  153.2173  135.4367  155.0449 H   0  0  0  0  0  0  0  0  0  0  0  0  # atno 10763 bound_to 10752
  154.8232  135.3347  154.6979 H   0  0  0  0  0  0  0  0  0  0  0  0  # atno 10764 bound_to 10752
  153.7413  135.7004  153.5022 H   0  0  0  0  0  0  0  0  0  0  0  0  # atno 10765 bound_to 10752
  140.2620  134.3181  155.7854 H   0  0  0  0  0  0  0  0  0  0  0  0  # atno 11005 bound_to 11000
  145.2991  139.1857  143.4699 LP  0  0  0  0  0  0  0  0  0  0  0  0  # atno 17320 bound_to 7965
  146.3286  140.2979  142.8619 LP  0  0  0  0  0  0  0  0  0  0  0  0  # atno 17321 bound_to 7965
  139.4870  144.4533  151.9628 LP  0  0  0  0  0  0  0  0  0  0  0  0  # atno 17342 bound_to 10162
  140.3622  144.2959  150.5932 LP  0  0  0  0  0  0  0  0  0  0  0  0  # atno 17343 bound_to 10162
  156.6795  130.4563  149.5632 LP  0  0  0  0  0  0  0  0  0  0  0  0  # atno 17370 bound_to 10713
  156.1939  130.6577  151.1092 LP  0  0  0  0  0  0  0  0  0  0  0  0  # atno 17371 bound_to 10713
  141.2189  133.7415  156.9202 LP  0  0  0  0  0  0  0  0  0  0  0  0  # atno 17394 bound_to 11000
  140.1455  134.9265  157.2524 LP  0  0  0  0  0  0  0  0  0  0  0  0  # atno 17395 bound_to 11000

$$$$
