AV-unprocessed.smi:1586|AV-procd|sdf|6385|dock7
  -GOLD-   22720 7 23D 1   1.00000     0.00000
 Structure written by MMmdl.
 45 46  0  0  0  0  0  0  0  0  2 V2000
  151.8908  144.6471  160.1355 C   0  0  0  0  0  0  0  0  0  0  0  0
  152.9263  143.6490  159.5979 C   0  0  0  0  0  0  0  0  0  0  0  0
  152.3805  142.5901  158.7507 N   0  0  0  0  0  0  0  0  0  0  0  0
  151.9886  141.4332  159.5526 C   0  0  0  0  0  0  0  0  0  0  0  0
  151.4229  140.2978  158.6804 C   0  0  0  0  0  0  0  0  0  0  0  0
  150.2462  140.7242  157.9107 N   0  0  0  0  0  0  0  0  0  0  0  0
  149.6869  139.6361  157.0794 C   0  0  2  0  0  0  0  0  0  0  0  0
  148.2990  139.9668  156.4851 C   0  0  0  0  0  0  0  0  0  0  0  0
  149.5839  138.2743  157.8113 C   0  0  0  0  0  0  0  0  0  0  0  0
  148.6127  138.3192  158.8996 N   0  0  0  0  0  0  0  0  0  0  0  0
  148.2647  137.2808  159.6702 C   0  0  0  0  0  0  0  0  0  0  0  0
  148.7828  136.1774  159.4825 O   0  0  0  0  0  0  0  0  0  0  0  0
  147.3374  137.5844  160.6077 N   0  5  0  0  0  0  0  0  0  0  0  0
  146.6788  136.6069  161.2489 C   0  0  0  0  0  0  0  0  0  0  0  0
  146.4852  135.2795  160.7778 C   0  0  0  0  0  0  0  0  0  0  0  0
  145.7546  134.6978  161.7746 C   0  0  0  0  0  0  0  0  0  0  0  0
  145.2027  133.3249  161.9561 C   0  0  0  0  0  0  0  0  0  0  0  0
  145.5108  135.5959  162.7666 O   0  0  0  0  0  0  0  0  0  0  0  0
  146.1010  136.8171  162.4200 N   0  0  0  0  0  0  0  0  0  0  0  0
  150.6391  141.8966  157.1176 C   0  0  0  0  0  0  0  0  0  0  0  0
  151.2082  143.0286  157.9931 C   0  0  0  0  0  0  0  0  0  0  0  0
  152.3849  145.4606  160.6669 H   0  0  0  0  0  0  0  0  0  0  0  0
  151.1980  144.1795  160.8346 H   0  0  0  0  0  0  0  0  0  0  0  0
  151.3095  145.0863  159.3242 H   0  0  0  0  0  0  0  0  0  0  0  0
  153.6579  144.2170  159.0215 H   0  0  0  0  0  0  0  0  0  0  0  0
  153.4768  143.2110  160.4317 H   0  0  0  0  0  0  0  0  0  0  0  0
  152.8509  141.0600  160.1059 H   0  0  0  0  0  0  0  0  0  0  0  0
  151.2452  141.7262  160.2960 H   0  0  0  0  0  0  0  0  0  0  0  0
  152.1977  139.9274  158.0074 H   0  0  0  0  0  0  0  0  0  0  0  0
  151.1659  139.4768  159.3474 H   0  0  0  0  0  0  0  0  0  0  0  0
  150.3586  139.4814  156.2338 H   0  0  0  0  0  0  0  0  0  0  0  0
  147.8732  139.1041  155.9721 H   0  0  0  0  0  0  0  0  0  0  0  0
  148.3484  140.7648  155.7450 H   0  0  0  0  0  0  0  0  0  0  0  0
  147.5939  140.2681  157.2604 H   0  0  0  0  0  0  0  0  0  0  0  0
  149.2826  137.4969  157.1075 H   0  0  0  0  0  0  0  0  0  0  0  0
  150.5540  137.9547  158.1922 H   0  0  0  0  0  0  0  0  0  0  0  0
  148.1754  139.2098  159.0856 H   0  0  0  0  0  0  0  0  0  0  0  0
  146.8313  134.8279  159.8603 H   0  0  0  0  0  0  0  0  0  0  0  0
  145.9954  132.5794  161.8918 H   0  0  0  0  0  0  0  0  0  0  0  0
  144.4644  133.1018  161.1858 H   0  0  0  0  0  0  0  0  0  0  0  0
  144.7192  133.2197  162.9277 H   0  0  0  0  0  0  0  0  0  0  0  0
  151.3722  141.6096  156.3622 H   0  0  0  0  0  0  0  0  0  0  0  0
  149.7797  142.3010  156.5853 H   0  0  0  0  0  0  0  0  0  0  0  0
  150.4349  143.3888  158.6737 H   0  0  0  0  0  0  0  0  0  0  0  0
  151.4700  143.8654  157.3461 H   0  0  0  0  0  0  0  0  0  0  0  0
  1  2  1  0  0  0  0
  1 22  1  0  0  0  0
  1 23  1  0  0  0  0
  1 24  1  0  0  0  0
  2  3  1  0  0  0  0
  2 25  1  0  0  0  0
  2 26  1  0  0  0  0
  3 21  1  0  0  0  0
  3  4  1  0  0  0  0
  4  5  1  0  0  0  0
  4 27  1  0  0  0  0
  4 28  1  0  0  0  0
  5  6  1  0  0  0  0
  5 29  1  0  0  0  0
  5 30  1  0  0  0  0
  6  7  1  0  0  0  0
  6 20  1  0  0  0  0
  7  8  1  0  0  0  0
  7  9  1  0  0  0  0
  7 31  1  0  0  0  0
  8 32  1  0  0  0  0
  8 33  1  0  0  0  0
  8 34  1  0  0  0  0
  9 10  1  0  0  0  0
  9 35  1  0  0  0  0
  9 36  1  0  0  0  0
 10 11  1  0  0  0  0
 10 37  1  0  0  0  0
 11 12  2  0  0  0  0
 11 13  1  0  0  0  0
 13 14  1  0  0  0  0
 14 19  2  0  0  0  0
 14 15  1  0  0  0  0
 15 16  2  0  0  0  0
 15 38  1  0  0  0  0
 16 17  1  0  0  0  0
 16 18  1  0  0  0  0
 17 39  1  0  0  0  0
 17 40  1  0  0  0  0
 17 41  1  0  0  0  0
 18 19  1  0  0  0  0
 20 21  1  0  0  0  0
 20 42  1  0  0  0  0
 20 43  1  0  0  0  0
 21 44  1  0  0  0  0
 21 45  1  0  0  0  0
M  CHG  1  13  -1
M  END
> <s_m_source_file>
AV-unprocessed.smi

> <i_m_source_file_index>
1586

> <i_lp_mmshare_version>
43012

> <i_f3d_flags>
0

> <s_epik_input>
W0NIM11bQ0gyXU4xW0NIMl1bQ0gyXU4oW0NIMl1bQ0gyXTEpW0NASF0oW0NIM10pW0NIMl1bTkhdQyg9TylbTkhdYzJbY0hdYyhbQ0gzXSlvbjI=

> <s_epik_cmdline>
J2VwaWtfcHl0aG9uJywgJy1waCcsICc3LjAnLCAnLXRuJywgJzgnLCAnLW1hJywgJzIwMCcsICctbWV0YWxfYmluZGluZycsICctaW1hZScsICc8aW5maWxlLm1hZT4nLCAnLW9tYWUnLCAnPG91dGZpbGUubWFlPic=

> <r_epik_Ionization_Penalty>
9.09031

> <r_epik_Ionization_Penalty_Charging>
6.65437

> <r_epik_Ionization_Penalty_Neutral>
2.43594

> <r_epik_State_Penalty>
8.41762

> <r_epik_Charging_Adjusted_Penalty>
15.072

> <i_epik_Tot_Q>
-1

> <i_epik_Tot_abs_Q>
1

> <r_epik_Metal_State_Penalty>
4.3436

> <b_epik_Metal_Only>
1

> <s_lp_Force_Field>
OPLS_2005

> <r_lp_Energy>
37.6489

> <b_lp_Chiralities_Consistent>
1

> <s_lp_Variant>
AV-unprocessed.smi:1586-13

> <Gold.Version>
5.8.1

> <Gold.Id.Protein>
6NUR|6NUR_protein|mol2

> <Gold.PLP.Fitness>
45.8866

> <Gold.PLP.PLP>
-34.4839

> <Gold.PLP.part.hbond>
-3.0000

> <Gold.PLP.part.metal>
0.0000

> <Gold.PLP.part.buried>
-6.9434

> <Gold.PLP.part.nonpolar>
-25.6323

> <Gold.PLP.part.repulsive>
0.2314

> <Gold.PLP.ligand.clash>
0.0000

> <Gold.PLP.ligand.torsion>
0.6917

> <Gold.PLP.Chemscore.Hbond>
4.2320

> <Gold.PLP.Chemscore.CHOScore>
0.0000

> <Gold.PLP.Chemscore.Metal>
0.0000

> <Gold.Chemscore.Hbonds>
donor molecule, donor type, donor heavy atom, donor atom, acceptor molecule, acceptor atom, score
      P1  H  6931  6943       L1    13  0.20
      P1  H  6934  6947       L1    13  1.76

> <Gold.PLP.Chemscore.Internal.Correction>
0.0901

> <Gold.Rescore>
     Score         DG    S(hbond)    S(metal)    S(lipo)     H(rot)  DE(clash)    DE(int)     intcor
     15.28     -17.69       2.12        0.00      80.40       1.68       0.05       2.35       ----

> <Gold.Chemscore.Fitness>
15.2826

> <Gold.Chemscore.DG>
-17.6856

> <Gold.Chemscore.ZeroCoef>
-5.4800

> <Gold.Chemscore.Hbond>
2.1247

> <Gold.Chemscore.Metal>
0.0000

> <Gold.Chemscore.Lipo>
80.4000

> <Gold.Chemscore.Internal_Hbond>
0.0000

> <Gold.Chemscore.DEClash>
0.0480

> <Gold.Chemscore.DEInternal>
2.3550

> <Gold.Chemscore.Rot>
1.6788

> <Gold.Chemscore.Internal.Correction>
   9.000000E+99

> <Gold.Chemscore.Hbonds>
donor molecule, donor type, donor heavy atom, donor atom, acceptor molecule, acceptor atom, score
      P1  H  6896  6908       L1    12  0.02
      P1  H  6934  6947       L1    13  0.77

> <Gold.Chemscore.Hbond.Weighted>
-7.0966

> <Gold.Chemscore.Metal.Weighted>
-0.0000

> <Gold.Chemscore.Lipo.Weighted>
-9.4068

> <Gold.Chemscore.Internal_Hbond.Weighted>
0.0000

> <Gold.Chemscore.DEClash.Weighted>
0.0480

> <Gold.Chemscore.DEInternal.Weighted>
2.3550

> <Gold.Chemscore.Rot.Weighted>
4.2978

> <Gold.Chemscore.Internal.Correction.Weighted>
   9.000000E+99

> <Gold.Protein.RotatedTorsions>
[ 6907 6896 6895 6894 ] final  165.15 input  -60.11 | X-H torsion
[ 7974 7965 7964 7962 ] final   28.94 input  175.53 | X-H torsion
[ 8008 7997 7996 7995 ] final  -58.45 input   59.86 | X-H torsion
[ 10167 10162 10161 10158 ] final -128.14 input  -65.29 | X-H torsion
[ 10718 10713 10712 10709 ] final  141.64 input   66.30 | X-H torsion
[ 10763 10752 10751 10750 ] final   87.93 input  -60.55 | X-H torsion
[ 11005 11000 10999 10996 ] final  -28.58 input  -57.11 | X-H torsion

> <Gold.Protein.ActiveResidues>
 VAL166  LYS551  ARG553  GLY616  TRP617  ASP618  TYR619  PRO620  LYS621  CYS622 
 ASP623  PHE694  ASN695  SER759  ASP760  ASP761  ALA762  ILE779  LEU786  VAL792 
 PHE793  MET794  SER795  GLU796  ALA797  LYS798  CYS799  TRP800  GLU811  SER814 

> <Gold.Protein.RotatedAtoms>
  151.8988  133.3533  159.3823 H   0  0  0  0  0  0  0  0  0  0  0  0  # atno 6907 bound_to 6896
  150.7085  134.4849  159.5497 H   0  0  0  0  0  0  0  0  0  0  0  0  # atno 6908 bound_to 6896
  152.2433  134.8206  160.0508 H   0  0  0  0  0  0  0  0  0  0  0  0  # atno 6909 bound_to 6896
  146.1700  139.6989  142.8974 H   0  0  0  0  0  0  0  0  0  0  0  0  # atno 7974 bound_to 7965
  154.4309  140.1084  156.5959 H   0  0  0  0  0  0  0  0  0  0  0  0  # atno 8008 bound_to 7997
  155.5963  140.3492  155.4562 H   0  0  0  0  0  0  0  0  0  0  0  0  # atno 8009 bound_to 7997
  156.0208  140.1239  157.0349 H   0  0  0  0  0  0  0  0  0  0  0  0  # atno 8010 bound_to 7997
  139.9535  143.6029  152.2468 H   0  0  0  0  0  0  0  0  0  0  0  0  # atno 10167 bound_to 10162
  157.3897  131.1003  151.0659 H   0  0  0  0  0  0  0  0  0  0  0  0  # atno 10718 bound_to 10713
  153.1717  135.4525  154.9912 H   0  0  0  0  0  0  0  0  0  0  0  0  # atno 10763 bound_to 10752
  154.7971  135.3241  154.7644 H   0  0  0  0  0  0  0  0  0  0  0  0  # atno 10764 bound_to 10752
  153.8119  135.6954  153.4894 H   0  0  0  0  0  0  0  0  0  0  0  0  # atno 10765 bound_to 10752
  140.9221  133.7392  156.0815 H   0  0  0  0  0  0  0  0  0  0  0  0  # atno 11005 bound_to 11000
  145.4365  141.0419  143.2882 LP  0  0  0  0  0  0  0  0  0  0  0  0  # atno 17320 bound_to 7965
  144.8149  139.5894  143.7013 LP  0  0  0  0  0  0  0  0  0  0  0  0  # atno 17321 bound_to 7965
  139.6610  144.7662  151.1963 LP  0  0  0  0  0  0  0  0  0  0  0  0  # atno 17342 bound_to 10162
  140.7575  143.6011  150.8699 LP  0  0  0  0  0  0  0  0  0  0  0  0  # atno 17343 bound_to 10162
  157.1697  130.6262  149.5637 LP  0  0  0  0  0  0  0  0  0  0  0  0  # atno 17370 bound_to 10713
  155.9795  130.4789  150.6719 LP  0  0  0  0  0  0  0  0  0  0  0  0  # atno 17371 bound_to 10713
  140.7974  134.3547  157.5448 LP  0  0  0  0  0  0  0  0  0  0  0  0  # atno 17394 bound_to 11000
  139.8777  134.9177  156.3185 LP  0  0  0  0  0  0  0  0  0  0  0  0  # atno 17395 bound_to 11000

$$$$
