AV-unprocessed.smi:2085|AV-procd|sdf|8516|dock9
  -GOLD-   2272011233D 1   1.00000     0.00000
 Structure written by MMmdl.
 30 31  0  0  0  0  0  0  0  0  1 V2000
  153.0371  138.5132  155.1446 C   0  0  0  0  0  0  0  0  0  0  0  0
  152.6754  139.6654  155.8986 O   0  0  0  0  0  0  0  0  0  0  0  0
  151.4310  140.2284  155.6875 C   0  0  0  0  0  0  0  0  0  0  0  0
  150.7127  139.8194  154.6114 N   0  0  0  0  0  0  0  0  0  0  0  0
  149.5006  140.3716  154.3998 C   0  0  0  0  0  0  0  0  0  0  0  0
  148.9463  141.3561  155.2376 C   0  0  0  0  0  0  0  0  0  0  0  0
  149.6888  141.7822  156.3543 C   0  0  0  0  0  0  0  0  0  0  0  0
  150.9574  141.2018  156.5984 C   0  0  0  0  0  0  0  0  0  0  0  0
  151.8010  141.5719  157.6828 N   0  0  0  0  0  0  0  0  0  0  0  0
  151.6379  142.5542  158.5887 C   0  0  0  0  0  0  0  0  0  0  0  0
  150.6519  143.2883  158.6490 O   0  0  0  0  0  0  0  0  0  0  0  0
  152.7544  142.7038  159.6329 C   0  0  2  0  0  0  0  0  0  0  0  0
  153.0268  141.4295  160.4438 C   0  0  0  0  0  0  0  0  0  0  0  0
  153.4597  141.9870  161.7812 C   0  0  0  0  0  0  0  0  0  0  0  0
  152.5519  143.2027  161.9141 C   0  0  0  0  0  0  0  0  0  0  0  0
  152.4073  143.7076  160.5913 O   0  0  0  0  0  0  0  0  0  0  0  0
  154.0404  138.1969  155.4295 H   0  0  0  0  0  0  0  0  0  0  0  0
  153.0487  138.7235  154.0743 H   0  0  0  0  0  0  0  0  0  0  0  0
  152.3601  137.6800  155.3391 H   0  0  0  0  0  0  0  0  0  0  0  0
  148.9593  140.0233  153.5327 H   0  0  0  0  0  0  0  0  0  0  0  0
  147.9757  141.7796  155.0253 H   0  0  0  0  0  0  0  0  0  0  0  0
  149.2775  142.5530  156.9869 H   0  0  0  0  0  0  0  0  0  0  0  0
  152.6131  140.9861  157.8163 H   0  0  0  0  0  0  0  0  0  0  0  0
  153.6682  143.0259  159.1320 H   0  0  0  0  0  0  0  0  0  0  0  0
  152.1203  140.8341  160.5687 H   0  0  0  0  0  0  0  0  0  0  0  0
  153.7891  140.7961  159.9892 H   0  0  0  0  0  0  0  0  0  0  0  0
  153.3464  141.2767  162.6006 H   0  0  0  0  0  0  0  0  0  0  0  0
  154.5039  142.2995  161.7378 H   0  0  0  0  0  0  0  0  0  0  0  0
  151.5700  142.9051  162.2844 H   0  0  0  0  0  0  0  0  0  0  0  0
  152.9557  143.9577  162.5888 H   0  0  0  0  0  0  0  0  0  0  0  0
  1  2  1  0  0  0  0
  1 17  1  0  0  0  0
  1 18  1  0  0  0  0
  1 19  1  0  0  0  0
  2  3  1  0  0  0  0
  3  8  1  0  0  0  0
  3  4  2  0  0  0  0
  4  5  1  0  0  0  0
  5  6  2  0  0  0  0
  5 20  1  0  0  0  0
  6  7  1  0  0  0  0
  6 21  1  0  0  0  0
  7  8  2  0  0  0  0
  7 22  1  0  0  0  0
  8  9  1  0  0  0  0
  9 10  1  0  0  0  0
  9 23  1  0  0  0  0
 10 11  2  0  0  0  0
 10 12  1  0  0  0  0
 12 16  1  0  0  0  0
 12 13  1  0  0  0  0
 12 24  1  0  0  0  0
 13 14  1  0  0  0  0
 13 25  1  0  0  0  0
 13 26  1  0  0  0  0
 14 15  1  0  0  0  0
 14 27  1  0  0  0  0
 14 28  1  0  0  0  0
 15 16  1  0  0  0  0
 15 29  1  0  0  0  0
 15 30  1  0  0  0  0
M  END
> <s_m_source_file>
AV-unprocessed.smi

> <i_m_source_file_index>
2085

> <i_lp_mmshare_version>
43012

> <i_f3d_flags>
0

> <s_epik_input>
W0NIM11PYzFuW2NIXVtjSF1bY0hdYzFbTkhdQyg9TylbQ0BASF0yW0NIMl1bQ0gyXVtDSDJdTzI=

> <s_epik_cmdline>
J2VwaWtfcHl0aG9uJywgJy1waCcsICc3LjAnLCAnLXRuJywgJzgnLCAnLW1hJywgJzIwMCcsICctbWV0YWxfYmluZGluZycsICctaW1hZScsICc8aW5maWxlLm1hZT4nLCAnLW9tYWUnLCAnPG91dGZpbGUubWFlPic=

> <r_lp_tautomer_probability>
1

> <r_epik_Ionization_Penalty>
2.59253e-05

> <r_epik_Ionization_Penalty_Charging>
0

> <r_epik_Ionization_Penalty_Neutral>
2.59253e-05

> <r_epik_State_Penalty>
-0

> <r_epik_Charging_Adjusted_Penalty>
0

> <i_epik_Tot_Q>
0

> <i_epik_Tot_abs_Q>
0

> <r_epik_Metal_State_Penalty>
-0

> <b_epik_Metal_Only>
0

> <s_lp_Force_Field>
OPLS_2005

> <r_lp_Energy>
24.0215

> <b_lp_Chiralities_Consistent>
1

> <s_lp_Variant>
AV-unprocessed.smi:2085-1

> <Gold.Version>
5.8.1

> <Gold.Id.Protein>
6NUR|6NUR_protein|mol2

> <Gold.PLP.Fitness>
43.4050

> <Gold.PLP.PLP>
-36.3107

> <Gold.PLP.part.hbond>
-2.0000

> <Gold.PLP.part.metal>
0.0000

> <Gold.PLP.part.buried>
-2.3712

> <Gold.PLP.part.nonpolar>
-31.4458

> <Gold.PLP.part.repulsive>
0.3336

> <Gold.PLP.ligand.clash>
0.0000

> <Gold.PLP.ligand.torsion>
0.1572

> <Gold.PLP.Chemscore.Hbond>
1.4700

> <Gold.PLP.Chemscore.CHOScore>
0.9972

> <Gold.PLP.Chemscore.Metal>
0.0000

> <Gold.Chemscore.Hbonds>
donor molecule, donor type, donor heavy atom, donor atom, acceptor molecule, acceptor atom, score
      P1  H  7989  7998       L1     4  0.55
      P1  H  7997  8009       L1     2  0.90
      L1  C     5    20       P1  7957  1.00

> <Gold.PLP.Chemscore.Internal.Correction>
0.0072

> <Gold.Rescore>
     Score         DG    S(hbond)    S(metal)    S(lipo)     H(rot)  DE(clash)    DE(int)     intcor
     12.98     -14.66       0.86        0.00      80.96       1.24       0.01       1.68       ----

> <Gold.Chemscore.Fitness>
12.9786

> <Gold.Chemscore.DG>
-14.6633

> <Gold.Chemscore.ZeroCoef>
-5.4800

> <Gold.Chemscore.Hbond>
0.8625

> <Gold.Chemscore.Metal>
0.0000

> <Gold.Chemscore.Lipo>
80.9584

> <Gold.Chemscore.Internal_Hbond>
0.0000

> <Gold.Chemscore.DEClash>
0.0057

> <Gold.Chemscore.DEInternal>
1.6790

> <Gold.Chemscore.Rot>
1.2381

> <Gold.Chemscore.Internal.Correction>
   9.000000E+99

> <Gold.Chemscore.Hbonds>
donor molecule, donor type, donor heavy atom, donor atom, acceptor molecule, acceptor atom, score
      P1  H  7989  7998       L1     4  0.01
      P1  H  7997  8009       L1     2  0.17

> <Gold.Chemscore.Hbond.Weighted>
-2.8806

> <Gold.Chemscore.Metal.Weighted>
-0.0000

> <Gold.Chemscore.Lipo.Weighted>
-9.4721

> <Gold.Chemscore.Internal_Hbond.Weighted>
0.0000

> <Gold.Chemscore.DEClash.Weighted>
0.0057

> <Gold.Chemscore.DEInternal.Weighted>
1.6790

> <Gold.Chemscore.Rot.Weighted>
3.1694

> <Gold.Chemscore.Internal.Correction.Weighted>
   9.000000E+99

> <Gold.Protein.RotatedTorsions>
[ 6907 6896 6895 6894 ] final   47.88 input  -60.11 | X-H torsion
[ 7974 7965 7964 7962 ] final   25.41 input  175.53 | X-H torsion
[ 8008 7997 7996 7995 ] final -174.77 input   59.86 | X-H torsion
[ 10167 10162 10161 10158 ] final  140.69 input  -65.29 | X-H torsion
[ 10718 10713 10712 10709 ] final  164.41 input   66.30 | X-H torsion
[ 10763 10752 10751 10750 ] final   62.80 input  -60.55 | X-H torsion
[ 11005 11000 10999 10996 ] final   44.87 input  -57.11 | X-H torsion

> <Gold.Protein.ActiveResidues>
 VAL166  LYS551  ARG553  GLY616  TRP617  ASP618  TYR619  PRO620  LYS621  CYS622 
 ASP623  PHE694  ASN695  SER759  ASP760  ASP761  ALA762  ILE779  LEU786  VAL792 
 PHE793  MET794  SER795  GLU796  ALA797  LYS798  CYS799  TRP800  GLU811  SER814 

> <Gold.Protein.RotatedAtoms>
  152.2732  134.7910  160.0410 H   0  0  0  0  0  0  0  0  0  0  0  0  # atno 6907 bound_to 6896
  151.8516  133.3435  159.3683 H   0  0  0  0  0  0  0  0  0  0  0  0  # atno 6908 bound_to 6896
  150.7160  134.5222  159.5703 H   0  0  0  0  0  0  0  0  0  0  0  0  # atno 6909 bound_to 6896
  146.1890  139.7470  142.8845 H   0  0  0  0  0  0  0  0  0  0  0  0  # atno 7974 bound_to 7965
  155.9743  140.1169  157.0784 H   0  0  0  0  0  0  0  0  0  0  0  0  # atno 8008 bound_to 7997
  154.4165  140.1157  156.5416 H   0  0  0  0  0  0  0  0  0  0  0  0  # atno 8009 bound_to 7997
  155.6556  140.3473  155.4766 H   0  0  0  0  0  0  0  0  0  0  0  0  # atno 8010 bound_to 7997
  139.5041  144.6218  151.6032 H   0  0  0  0  0  0  0  0  0  0  0  0  # atno 10167 bound_to 10162
  157.0948  131.0427  151.2522 H   0  0  0  0  0  0  0  0  0  0  0  0  # atno 10718 bound_to 10713
  152.9995  135.5452  154.6251 H   0  0  0  0  0  0  0  0  0  0  0  0  # atno 10763 bound_to 10752
  154.5541  135.2829  155.0983 H   0  0  0  0  0  0  0  0  0  0  0  0  # atno 10764 bound_to 10752
  154.2211  135.6450  153.5197 H   0  0  0  0  0  0  0  0  0  0  0  0  # atno 10765 bound_to 10752
  140.1512  134.4459  155.8380 H   0  0  0  0  0  0  0  0  0  0  0  0  # atno 11005 bound_to 11000
  145.3851  141.0364  143.3155 LP  0  0  0  0  0  0  0  0  0  0  0  0  # atno 17320 bound_to 7965
  144.8451  139.5410  143.6882 LP  0  0  0  0  0  0  0  0  0  0  0  0  # atno 17321 bound_to 7965
  140.5923  143.9758  150.6332 LP  0  0  0  0  0  0  0  0  0  0  0  0  # atno 17342 bound_to 10162
  140.2943  143.3303  152.1033 LP  0  0  0  0  0  0  0  0  0  0  0  0  # atno 17343 bound_to 10162
  157.4691  130.7698  149.7306 LP  0  0  0  0  0  0  0  0  0  0  0  0  # atno 17370 bound_to 10713
  155.9888  130.3956  150.3099 LP  0  0  0  0  0  0  0  0  0  0  0  0  # atno 17371 bound_to 10713
  141.2199  133.6873  156.7425 LP  0  0  0  0  0  0  0  0  0  0  0  0  # atno 17394 bound_to 11000
  140.2602  134.8472  157.3751 LP  0  0  0  0  0  0  0  0  0  0  0  0  # atno 17395 bound_to 11000

$$$$
