AV-unprocessed.smi:2296|AV-procd|sdf|9221|dock10
  -GOLD-   2272012443D 1   1.00000     0.00000
 Structure written by MMmdl.
 24 24  0  0  0  0  0  0  0  0  2 V2000
  144.8685  137.8098  152.7368 N   0  3  0  0  0  0  0  0  0  0  0  0
  146.2780  138.2155  152.9006 C   0  0  1  0  0  0  0  0  0  0  0  0
  146.7920  138.8850  151.6146 C   0  0  0  0  0  0  0  0  0  0  0  0
  146.5741  138.0405  150.5039 O   0  0  0  0  0  0  0  0  0  0  0  0
  146.4368  139.1451  154.1195 C   0  0  0  0  0  0  0  0  0  0  0  0
  147.8602  139.6387  154.3127 C   0  0  0  0  0  0  0  0  0  0  0  0
  148.1260  141.0038  154.5475 C   0  0  0  0  0  0  0  0  0  0  0  0
  149.4653  141.4068  154.7247 C   0  0  0  0  0  0  0  0  0  0  0  0
  150.5083  140.5505  154.6843 N   0  0  0  0  0  0  0  0  0  0  0  0
  150.2471  139.2453  154.4568 C   0  0  0  0  0  0  0  0  0  0  0  0
  148.9454  138.7393  154.2661 C   0  0  0  0  0  0  0  0  0  0  0  0
  144.5821  137.2517  153.5281 H   0  0  0  0  0  0  0  0  0  0  0  0
  144.7688  137.2707  151.8884 H   0  0  0  0  0  0  0  0  0  0  0  0
  146.8646  137.3126  153.0785 H   0  0  0  0  0  0  0  0  0  0  0  0
  146.3047  139.8461  151.4461 H   0  0  0  0  0  0  0  0  0  0  0  0
  147.8634  139.0753  151.6870 H   0  0  0  0  0  0  0  0  0  0  0  0
  145.6586  138.0787  150.2698 H   0  0  0  0  0  0  0  0  0  0  0  0
  145.7919  140.0176  154.0049 H   0  0  0  0  0  0  0  0  0  0  0  0
  146.1010  138.6387  155.0256 H   0  0  0  0  0  0  0  0  0  0  0  0
  147.3273  141.7300  154.5897 H   0  0  0  0  0  0  0  0  0  0  0  0
  149.7039  142.4441  154.9064 H   0  0  0  0  0  0  0  0  0  0  0  0
  151.1003  138.5839  154.4276 H   0  0  0  0  0  0  0  0  0  0  0  0
  148.7884  137.6853  154.0882 H   0  0  0  0  0  0  0  0  0  0  0  0
  144.2906  138.6365  152.6816 H   0  0  0  0  0  0  0  0  0  0  0  0
  1  2  1  0  0  0  0
  1 12  1  0  0  0  0
  1 13  1  0  0  0  0
  1 24  1  0  0  0  0
  2  3  1  0  0  0  0
  2  5  1  0  0  0  0
  2 14  1  0  0  0  0
  3  4  1  0  0  0  0
  3 15  1  0  0  0  0
  3 16  1  0  0  0  0
  4 17  1  0  0  0  0
  5  6  1  0  0  0  0
  5 18  1  0  0  0  0
  5 19  1  0  0  0  0
  6 11  1  0  0  0  0
  6  7  2  0  0  0  0
  7  8  1  0  0  0  0
  7 20  1  0  0  0  0
  8  9  2  0  0  0  0
  8 21  1  0  0  0  0
  9 10  1  0  0  0  0
 10 11  2  0  0  0  0
 10 22  1  0  0  0  0
 11 23  1  0  0  0  0
M  CHG  1   1   1
M  END
> <s_m_source_file>
AV-unprocessed.smi

> <i_m_source_file_index>
2296

> <i_lp_mmshare_version>
43012

> <i_f3d_flags>
0

> <s_epik_input>
W09IXVtDSDJdW0NAQEhdKFtOSDJdKVtDSDJdYzFbY0hdW2NIXW5bY0hdW2NIXTE=

> <s_epik_cmdline>
J2VwaWtfcHl0aG9uJywgJy1waCcsICc3LjAnLCAnLXRuJywgJzgnLCAnLW1hJywgJzIwMCcsICctbWV0YWxfYmluZGluZycsICctaW1hZScsICc8aW5maWxlLm1hZT4nLCAnLW9tYWUnLCAnPG91dGZpbGUubWFlPic=

> <r_epik_Ionization_Penalty>
0.0199414

> <r_epik_Ionization_Penalty_Charging>
0.0188044

> <r_epik_Ionization_Penalty_Neutral>
0.00113699

> <r_epik_State_Penalty>
0.00788343

> <r_epik_Charging_Adjusted_Penalty>
0.0266878

> <i_epik_Tot_Q>
1

> <i_epik_Tot_abs_Q>
1

> <r_epik_Metal_State_Penalty>
-0

> <b_epik_Metal_Only>
0

> <s_lp_Force_Field>
OPLS_2005

> <r_lp_Energy>
8.03463

> <b_lp_Chiralities_Consistent>
1

> <s_lp_Variant>
AV-unprocessed.smi:2296-2

> <Gold.Version>
5.8.1

> <Gold.Id.Protein>
6NUR|6NUR_protein|mol2

> <Gold.PLP.Fitness>
41.3901

> <Gold.PLP.PLP>
-23.8822

> <Gold.PLP.part.hbond>
-4.9207

> <Gold.PLP.part.metal>
0.0000

> <Gold.PLP.part.buried>
-1.4980

> <Gold.PLP.part.nonpolar>
-17.6946

> <Gold.PLP.part.repulsive>
0.1002

> <Gold.PLP.ligand.clash>
0.0000

> <Gold.PLP.ligand.torsion>
0.1543

> <Gold.PLP.Chemscore.Hbond>
4.9360

> <Gold.PLP.Chemscore.CHOScore>
1.0000

> <Gold.PLP.Chemscore.Metal>
0.0000

> <Gold.Chemscore.Hbonds>
donor molecule, donor type, donor heavy atom, donor atom, acceptor molecule, acceptor atom, score
      L1  H     1    24       P1 10175  2.00
      L1  H     4    17       P1 10171  1.00
      P1  H  7954  7966       L1     4  0.93
      P1  H  7989  7998       L1     9  0.99
      L1  C     8    21       P1  8028  1.00

> <Gold.PLP.Chemscore.Internal.Correction>
0.0085

> <Gold.Rescore>
     Score         DG    S(hbond)    S(metal)    S(lipo)     H(rot)  DE(clash)    DE(int)     intcor
     17.23     -17.76       3.49        0.00      52.20       2.14       0.36       0.17       ----

> <Gold.Chemscore.Fitness>
17.2256

> <Gold.Chemscore.DG>
-17.7581

> <Gold.Chemscore.ZeroCoef>
-5.4800

> <Gold.Chemscore.Hbond>
3.4882

> <Gold.Chemscore.Metal>
0.0000

> <Gold.Chemscore.Lipo>
52.1991

> <Gold.Chemscore.Internal_Hbond>
0.0000

> <Gold.Chemscore.DEClash>
0.3649

> <Gold.Chemscore.DEInternal>
0.1675

> <Gold.Chemscore.Rot>
2.1405

> <Gold.Chemscore.Internal.Correction>
   9.000000E+99

> <Gold.Chemscore.Hbonds>
donor molecule, donor type, donor heavy atom, donor atom, acceptor molecule, acceptor atom, score
      L1  H     1    24       P1 10175  0.99
      L1  H     4    17       P1 10171  1.00
      P1  H  7954  7966       L1     4  0.32
      P1  H  7989  7998       L1     9  0.29

> <Gold.Chemscore.Hbond.Weighted>
-11.6505

> <Gold.Chemscore.Metal.Weighted>
-0.0000

> <Gold.Chemscore.Lipo.Weighted>
-6.1073

> <Gold.Chemscore.Internal_Hbond.Weighted>
0.0000

> <Gold.Chemscore.DEClash.Weighted>
0.3649

> <Gold.Chemscore.DEInternal.Weighted>
0.1675

> <Gold.Chemscore.Rot.Weighted>
5.4797

> <Gold.Chemscore.Internal.Correction.Weighted>
   9.000000E+99

> <Gold.Protein.RotatedTorsions>
[ 6907 6896 6895 6894 ] final  -51.27 input  -60.11 | X-H torsion
[ 7974 7965 7964 7962 ] final  139.55 input  175.53 | X-H torsion
[ 8008 7997 7996 7995 ] final   27.84 input   59.86 | X-H torsion
[ 10167 10162 10161 10158 ] final   35.88 input  -65.29 | X-H torsion
[ 10718 10713 10712 10709 ] final   32.07 input   66.30 | X-H torsion
[ 10763 10752 10751 10750 ] final  110.95 input  -60.55 | X-H torsion
[ 11005 11000 10999 10996 ] final   96.96 input  -57.11 | X-H torsion

> <Gold.Protein.ActiveResidues>
 VAL166  LYS551  ARG553  GLY616  TRP617  ASP618  TYR619  PRO620  LYS621  CYS622 
 ASP623  PHE694  ASN695  SER759  ASP760  ASP761  ALA762  ILE779  LEU786  VAL792 
 PHE793  MET794  SER795  GLU796  ALA797  LYS798  CYS799  TRP800  GLU811  SER814 

> <Gold.Protein.RotatedAtoms>
  150.8628  134.7984  159.7095 H   0  0  0  0  0  0  0  0  0  0  0  0  # atno 6907 bound_to 6896
  152.4659  134.5073  159.9753 H   0  0  0  0  0  0  0  0  0  0  0  0  # atno 6908 bound_to 6896
  151.5174  133.3435  159.2931 H   0  0  0  0  0  0  0  0  0  0  0  0  # atno 6909 bound_to 6896
  144.9268  139.5097  143.5637 H   0  0  0  0  0  0  0  0  0  0  0  0  # atno 7974 bound_to 7965
  155.0493  140.3178  155.4697 H   0  0  0  0  0  0  0  0  0  0  0  0  # atno 8008 bound_to 7997
  156.2838  140.2149  156.5562 H   0  0  0  0  0  0  0  0  0  0  0  0  # atno 8009 bound_to 7997
  154.7224  140.0488  157.0639 H   0  0  0  0  0  0  0  0  0  0  0  0  # atno 8010 bound_to 7997
  140.4181  144.1499  150.6145 H   0  0  0  0  0  0  0  0  0  0  0  0  # atno 10167 bound_to 10162
  157.2805  130.7252  149.6554 H   0  0  0  0  0  0  0  0  0  0  0  0  # atno 10718 bound_to 10713
  153.4564  135.3732  155.2313 H   0  0  0  0  0  0  0  0  0  0  0  0  # atno 10763 bound_to 10752
  154.8757  135.3898  154.3977 H   0  0  0  0  0  0  0  0  0  0  0  0  # atno 10764 bound_to 10752
  153.4544  135.7086  153.6153 H   0  0  0  0  0  0  0  0  0  0  0  0  # atno 10765 bound_to 10752
  139.8778  134.8977  156.4236 H   0  0  0  0  0  0  0  0  0  0  0  0  # atno 11005 bound_to 11000
  146.3229  139.8189  142.8931 LP  0  0  0  0  0  0  0  0  0  0  0  0  # atno 17320 bound_to 7965
  145.3206  141.0243  143.3502 LP  0  0  0  0  0  0  0  0  0  0  0  0  # atno 17321 bound_to 7965
  140.4564  143.2466  151.9278 LP  0  0  0  0  0  0  0  0  0  0  0  0  # atno 17342 bound_to 10162
  139.4782  144.5511  151.8384 LP  0  0  0  0  0  0  0  0  0  0  0  0  # atno 17343 bound_to 10162
  155.9664  130.4339  150.5028 LP  0  0  0  0  0  0  0  0  0  0  0  0  # atno 17370 bound_to 10713
  157.2971  131.0638  151.2094 LP  0  0  0  0  0  0  0  0  0  0  0  0  # atno 17371 bound_to 10713
  140.9116  133.7707  155.9799 LP  0  0  0  0  0  0  0  0  0  0  0  0  # atno 17394 bound_to 11000
  140.8539  134.2921  157.5263 LP  0  0  0  0  0  0  0  0  0  0  0  0  # atno 17395 bound_to 11000

$$$$
