AV-unprocessed.smi:3184|AV-procd|sdf|12161|dock3
  -GOLD-   2272017593D 1   1.00000     0.00000
 Structure written by MMmdl.
 35 36  0  0  0  0  0  0  0  0  2 V2000
  150.9545  139.9375  155.3654 C   0  0  0  0  0  0  0  0  0  0  0  0
  149.8886  140.9902  155.6975 C   0  0  2  0  0  0  0  0  0  0  0  0
  149.3161  141.6296  154.4143 C   0  0  0  0  0  0  0  0  0  0  0  0
  147.8539  141.7432  154.4362 N   0  0  0  0  0  0  0  0  0  0  0  0
  147.0923  142.4732  155.3122 C   0  0  0  0  0  0  0  0  0  0  0  0
  145.7854  142.2894  154.9408 C   0  0  0  0  0  0  0  0  0  0  0  0
  145.8041  141.4524  153.8575 N   0  3  0  0  0  0  0  0  0  0  0  0
  147.0625  141.1170  153.5553 C   0  0  0  0  0  0  0  0  0  0  0  0
  150.4825  142.0022  156.5699 N   0  0  0  0  0  0  0  0  0  0  0  0
  151.0787  141.7737  157.7537 C   0  0  0  0  0  0  0  0  0  0  0  0
  151.1861  140.6487  158.2432 O   0  0  0  0  0  0  0  0  0  0  0  0
  151.5378  142.8877  158.3638 N   0  0  0  0  0  0  0  0  0  0  0  0
  151.6859  144.2163  157.7617 C   0  0  0  0  0  0  0  0  0  0  0  0
  151.9940  145.1654  158.9201 C   0  0  0  0  0  0  0  0  0  0  0  0
  152.6204  144.2701  159.9794 C   0  0  0  0  0  0  0  0  0  0  0  0
  151.9499  142.9131  159.7661 C   0  0  0  0  0  0  0  0  0  0  0  0
  150.5410  139.1436  154.7428 H   0  0  0  0  0  0  0  0  0  0  0  0
  151.3441  139.4727  156.2719 H   0  0  0  0  0  0  0  0  0  0  0  0
  151.7955  140.3773  154.8282 H   0  0  0  0  0  0  0  0  0  0  0  0
  149.0836  140.4761  156.2259 H   0  0  0  0  0  0  0  0  0  0  0  0
  149.7432  142.6196  154.2454 H   0  0  0  0  0  0  0  0  0  0  0  0
  149.5732  141.0238  153.5445 H   0  0  0  0  0  0  0  0  0  0  0  0
  147.5266  143.0593  156.1091 H   0  0  0  0  0  0  0  0  0  0  0  0
  144.8681  142.6824  155.3544 H   0  0  0  0  0  0  0  0  0  0  0  0
  147.3771  140.4774  152.7499 H   0  0  0  0  0  0  0  0  0  0  0  0
  150.4455  142.9572  156.2441 H   0  0  0  0  0  0  0  0  0  0  0  0
  152.5161  144.1958  157.0540 H   0  0  0  0  0  0  0  0  0  0  0  0
  150.7888  144.5328  157.2273 H   0  0  0  0  0  0  0  0  0  0  0  0
  152.6412  145.9930  158.6288 H   0  0  0  0  0  0  0  0  0  0  0  0
  151.0643  145.5876  159.3039 H   0  0  0  0  0  0  0  0  0  0  0  0
  153.6917  144.1811  159.7948 H   0  0  0  0  0  0  0  0  0  0  0  0
  152.4864  144.6537  160.9913 H   0  0  0  0  0  0  0  0  0  0  0  0
  151.0648  142.8197  160.3974 H   0  0  0  0  0  0  0  0  0  0  0  0
  152.6282  142.0940  160.0098 H   0  0  0  0  0  0  0  0  0  0  0  0
  144.9853  141.1337  153.3548 H   0  0  0  0  0  0  0  0  0  0  0  0
  1  2  1  0  0  0  0
  1 17  1  0  0  0  0
  1 18  1  0  0  0  0
  1 19  1  0  0  0  0
  2  3  1  0  0  0  0
  2  9  1  0  0  0  0
  2 20  1  0  0  0  0
  3  4  1  0  0  0  0
  3 21  1  0  0  0  0
  3 22  1  0  0  0  0
  4  8  1  0  0  0  0
  4  5  1  0  0  0  0
  5  6  2  0  0  0  0
  5 23  1  0  0  0  0
  6  7  1  0  0  0  0
  6 24  1  0  0  0  0
  7  8  2  0  0  0  0
  7 35  1  0  0  0  0
  8 25  1  0  0  0  0
  9 10  1  0  0  0  0
  9 26  1  0  0  0  0
 10 11  2  0  0  0  0
 10 12  1  0  0  0  0
 12 16  1  0  0  0  0
 12 13  1  0  0  0  0
 13 14  1  0  0  0  0
 13 27  1  0  0  0  0
 13 28  1  0  0  0  0
 14 15  1  0  0  0  0
 14 29  1  0  0  0  0
 14 30  1  0  0  0  0
 15 16  1  0  0  0  0
 15 31  1  0  0  0  0
 15 32  1  0  0  0  0
 16 33  1  0  0  0  0
 16 34  1  0  0  0  0
M  CHG  1   7   1
M  END
> <s_m_source_file>
AV-unprocessed.smi

> <i_m_source_file_index>
3184

> <i_lp_mmshare_version>
43012

> <i_f3d_flags>
0

> <s_epik_input>
W2NIXTFuW2NIXVtjSF1uMVtDSDJdW0NAQEhdKFtDSDNdKVtOSF1DKD1PKU4yW0NIMl1bQ0gyXVtDSDJdW0NIMl0y

> <s_epik_cmdline>
J2VwaWtfcHl0aG9uJywgJy1waCcsICc3LjAnLCAnLXRuJywgJzgnLCAnLW1hJywgJzIwMCcsICctbWV0YWxfYmluZGluZycsICctaW1hZScsICc8aW5maWxlLm1hZT4nLCAnLW9tYWUnLCAnPG91dGZpbGUubWFlPic=

> <r_lp_tautomer_probability>
1

> <r_epik_Ionization_Penalty>
0.25331

> <r_epik_Ionization_Penalty_Charging>
0

> <r_epik_Ionization_Penalty_Neutral>
0.25331

> <r_epik_State_Penalty>
0.244676

> <r_epik_Charging_Adjusted_Penalty>
0.244676

> <i_epik_Tot_Q>
1

> <i_epik_Tot_abs_Q>
1

> <r_epik_Metal_State_Penalty>
0.535078

> <b_epik_Metal_Only>
0

> <s_lp_Force_Field>
OPLS_2005

> <r_lp_Energy>
36.6247

> <b_lp_Chiralities_Consistent>
1

> <s_lp_Variant>
AV-unprocessed.smi:3184-1

> <Gold.Version>
5.8.1

> <Gold.Id.Protein>
6NUR|6NUR_protein|mol2

> <Gold.PLP.Fitness>
47.3647

> <Gold.PLP.PLP>
-37.0861

> <Gold.PLP.part.hbond>
-1.0000

> <Gold.PLP.part.metal>
0.0000

> <Gold.PLP.part.buried>
-1.9727

> <Gold.PLP.part.nonpolar>
-34.2076

> <Gold.PLP.part.repulsive>
0.0664

> <Gold.PLP.ligand.clash>
0.0000

> <Gold.PLP.ligand.torsion>
0.7199

> <Gold.PLP.Chemscore.Hbond>
2.0000

> <Gold.PLP.Chemscore.CHOScore>
1.8986

> <Gold.PLP.Chemscore.Metal>
0.0000

> <Gold.Chemscore.Hbonds>
donor molecule, donor type, donor heavy atom, donor atom, acceptor molecule, acceptor atom, score
      L1  H     7    35       P1 10175  2.00
      L1  H     9    26       P1  8028  0.01
      L1  C     5    23       P1  8028  0.62
      L1  C     8    25       P1  7957  0.44

> <Gold.PLP.Chemscore.Internal.Correction>
0.0227

> <Gold.Rescore>
     Score         DG    S(hbond)    S(metal)    S(lipo)     H(rot)  DE(clash)    DE(int)     intcor
     12.27     -14.21       1.11        0.00      79.15       1.65       0.24       1.70       ----

> <Gold.Chemscore.Fitness>
12.2712

> <Gold.Chemscore.DG>
-14.2146

> <Gold.Chemscore.ZeroCoef>
-5.4800

> <Gold.Chemscore.Hbond>
1.1081

> <Gold.Chemscore.Metal>
0.0000

> <Gold.Chemscore.Lipo>
79.1526

> <Gold.Chemscore.Internal_Hbond>
0.0000

> <Gold.Chemscore.DEClash>
0.2420

> <Gold.Chemscore.DEInternal>
1.7014

> <Gold.Chemscore.Rot>
1.6513

> <Gold.Chemscore.Internal.Correction>
   9.000000E+99

> <Gold.Chemscore.Hbonds>
donor molecule, donor type, donor heavy atom, donor atom, acceptor molecule, acceptor atom, score
      L1  H     7    35       P1 10175  0.35
      L1  H     9    26       P1  8028  0.07

> <Gold.Chemscore.Hbond.Weighted>
-3.7010

> <Gold.Chemscore.Metal.Weighted>
-0.0000

> <Gold.Chemscore.Lipo.Weighted>
-9.2608

> <Gold.Chemscore.Internal_Hbond.Weighted>
0.0000

> <Gold.Chemscore.DEClash.Weighted>
0.2420

> <Gold.Chemscore.DEInternal.Weighted>
1.7014

> <Gold.Chemscore.Rot.Weighted>
4.2273

> <Gold.Chemscore.Internal.Correction.Weighted>
   9.000000E+99

> <Gold.Protein.RotatedTorsions>
[ 6907 6896 6895 6894 ] final   40.62 input  -60.11 | X-H torsion
[ 7974 7965 7964 7962 ] final   72.54 input  175.53 | X-H torsion
[ 8008 7997 7996 7995 ] final  148.08 input   59.86 | X-H torsion
[ 10167 10162 10161 10158 ] final  156.56 input  -65.29 | X-H torsion
[ 10718 10713 10712 10709 ] final   35.93 input   66.30 | X-H torsion
[ 10763 10752 10751 10750 ] final  174.75 input  -60.55 | X-H torsion
[ 11005 11000 10999 10996 ] final -112.86 input  -57.11 | X-H torsion

> <Gold.Protein.ActiveResidues>
 VAL166  LYS551  ARG553  GLY616  TRP617  ASP618  TYR619  PRO620  LYS621  CYS622 
 ASP623  PHE694  ASN695  SER759  ASP760  ASP761  ALA762  ILE779  LEU786  VAL792 
 PHE793  MET794  SER795  GLU796  ALA797  LYS798  CYS799  TRP800  GLU811  SER814 

> <Gold.Protein.RotatedAtoms>
  152.1848  134.8723  160.0522 H   0  0  0  0  0  0  0  0  0  0  0  0  # atno 6907 bound_to 6896
  151.9633  133.3697  159.4052 H   0  0  0  0  0  0  0  0  0  0  0  0  # atno 6908 bound_to 6896
  150.6924  134.4140  159.5219 H   0  0  0  0  0  0  0  0  0  0  0  0  # atno 6909 bound_to 6896
  145.7521  139.2764  143.1425 H   0  0  0  0  0  0  0  0  0  0  0  0  # atno 7974 bound_to 7965
  156.2803  140.2138  156.5640 H   0  0  0  0  0  0  0  0  0  0  0  0  # atno 8008 bound_to 7997
  154.7190  140.0505  157.0644 H   0  0  0  0  0  0  0  0  0  0  0  0  # atno 8009 bound_to 7997
  155.0504  140.3155  155.4697 H   0  0  0  0  0  0  0  0  0  0  0  0  # atno 8010 bound_to 7997
  139.4821  144.4998  151.8185 H   0  0  0  0  0  0  0  0  0  0  0  0  # atno 10167 bound_to 10162
  157.3287  130.7486  149.6833 H   0  0  0  0  0  0  0  0  0  0  0  0  # atno 10718 bound_to 10713
  154.4583  135.2767  155.1732 H   0  0  0  0  0  0  0  0  0  0  0  0  # atno 10763 bound_to 10752
  154.3530  135.6146  153.5656 H   0  0  0  0  0  0  0  0  0  0  0  0  # atno 10764 bound_to 10752
  152.9852  135.5816  154.4940 H   0  0  0  0  0  0  0  0  0  0  0  0  # atno 10765 bound_to 10752
  141.0650  133.9474  157.2596 H   0  0  0  0  0  0  0  0  0  0  0  0  # atno 11005 bound_to 11000
  146.0347  140.8224  142.9858 LP  0  0  0  0  0  0  0  0  0  0  0  0  # atno 17320 bound_to 7965
  144.6847  140.2820  143.7290 LP  0  0  0  0  0  0  0  0  0  0  0  0  # atno 17321 bound_to 7965
  140.4490  144.1881  150.5896 LP  0  0  0  0  0  0  0  0  0  0  0  0  # atno 17342 bound_to 10162
  140.4605  143.2451  151.9227 LP  0  0  0  0  0  0  0  0  0  0  0  0  # atno 17343 bound_to 10162
  155.9693  130.4201  150.4409 LP  0  0  0  0  0  0  0  0  0  0  0  0  # atno 17370 bound_to 10713
  157.2437  131.0531  151.2421 LP  0  0  0  0  0  0  0  0  0  0  0  0  # atno 17371 bound_to 10713
  139.9467  135.0183  156.8874 LP  0  0  0  0  0  0  0  0  0  0  0  0  # atno 17394 bound_to 11000
  140.5792  134.0368  155.7458 LP  0  0  0  0  0  0  0  0  0  0  0  0  # atno 17395 bound_to 11000

$$$$
