AV-unprocessed.smi:1064|AV-procd|sdf|4664|dock5
  -GOLD-   22720 3173D 1   1.00000     0.00000
 Structure written by MMmdl.
 35 36  0  0  0  0  0  0  0  0  1 V2000
  153.2064  138.9557  156.4740 O   0  0  0  0  0  0  0  0  0  0  0  0
  152.2246  139.6860  156.3286 C   0  0  0  0  0  0  0  0  0  0  0  0
  151.7363  140.4330  157.3335 N   0  0  0  0  0  0  0  0  0  0  0  0
  152.2609  140.4547  158.6936 C   0  0  0  0  0  0  0  0  0  0  0  0
  153.1859  141.6614  158.9192 C   0  0  0  0  0  0  0  0  0  0  0  0
  152.9913  142.2877  160.2645 C   0  0  0  0  0  0  0  0  0  0  0  0
  153.2789  141.6735  161.4081 N   0  0  0  0  0  0  0  0  0  0  0  0
  152.9186  142.5803  162.3983 C   0  0  0  0  0  0  0  0  0  0  0  0
  152.4151  143.7167  161.8137 C   0  0  0  0  0  0  0  0  0  0  0  0
  152.4716  143.5194  160.4385 N   0  0  0  0  0  0  0  0  0  0  0  0
  152.0235  144.4507  159.4154 C   0  0  0  0  0  0  0  0  0  0  0  0
  151.7211  145.6241  159.9699 F   0  0  0  0  0  0  0  0  0  0  0  0
  152.9690  144.6232  158.4911 F   0  0  0  0  0  0  0  0  0  0  0  0
  151.5725  139.8268  155.1466 N   0  0  0  0  0  0  0  0  0  0  0  0
  150.5080  140.8032  154.8618 C   0  0  0  0  0  0  0  0  0  0  0  0
  149.1406  140.1336  155.0785 C   0  0  0  0  0  0  0  0  0  0  0  0
  148.9048  138.7461  153.9242 S   0  0  0  0  0  0  0  0  0  0  0  0
  150.4719  137.8575  154.1855 C   0  0  0  0  0  0  0  0  0  0  0  0
  151.6732  138.8137  154.0894 C   0  0  0  0  0  0  0  0  0  0  0  0
  150.9402  141.0235  157.1412 H   0  0  0  0  0  0  0  0  0  0  0  0
  151.4375  140.4609  159.4095 H   0  0  0  0  0  0  0  0  0  0  0  0
  152.8103  139.5283  158.8629 H   0  0  0  0  0  0  0  0  0  0  0  0
  154.2268  141.3460  158.8343 H   0  0  0  0  0  0  0  0  0  0  0  0
  153.0370  142.4100  158.1421 H   0  0  0  0  0  0  0  0  0  0  0  0
  153.0417  142.3449  163.4451 H   0  0  0  0  0  0  0  0  0  0  0  0
  152.0296  144.6247  162.2536 H   0  0  0  0  0  0  0  0  0  0  0  0
  151.1391  144.0673  158.9073 H   0  0  0  0  0  0  0  0  0  0  0  0
  150.5801  141.7054  155.4693 H   0  0  0  0  0  0  0  0  0  0  0  0
  150.5911  141.1524  153.8318 H   0  0  0  0  0  0  0  0  0  0  0  0
  149.0536  139.7665  156.1017 H   0  0  0  0  0  0  0  0  0  0  0  0
  148.3358  140.8532  154.9272 H   0  0  0  0  0  0  0  0  0  0  0  0
  150.4481  137.3726  155.1622 H   0  0  0  0  0  0  0  0  0  0  0  0
  150.5545  137.0676  153.4389 H   0  0  0  0  0  0  0  0  0  0  0  0
  151.6956  139.2929  153.1096 H   0  0  0  0  0  0  0  0  0  0  0  0
  152.6049  138.2502  154.1562 H   0  0  0  0  0  0  0  0  0  0  0  0
  1  2  2  0  0  0  0
  2  3  1  0  0  0  0
  2 14  1  0  0  0  0
  3  4  1  0  0  0  0
  3 20  1  0  0  0  0
  4  5  1  0  0  0  0
  4 21  1  0  0  0  0
  4 22  1  0  0  0  0
  5  6  1  0  0  0  0
  5 23  1  0  0  0  0
  5 24  1  0  0  0  0
  6 10  1  0  0  0  0
  6  7  2  0  0  0  0
  7  8  1  0  0  0  0
  8  9  2  0  0  0  0
  8 25  1  0  0  0  0
  9 10  1  0  0  0  0
  9 26  1  0  0  0  0
 10 11  1  0  0  0  0
 11 12  1  0  0  0  0
 11 13  1  0  0  0  0
 11 27  1  0  0  0  0
 14 19  1  0  0  0  0
 14 15  1  0  0  0  0
 15 16  1  0  0  0  0
 15 28  1  0  0  0  0
 15 29  1  0  0  0  0
 16 17  1  0  0  0  0
 16 30  1  0  0  0  0
 16 31  1  0  0  0  0
 17 18  1  0  0  0  0
 18 19  1  0  0  0  0
 18 32  1  0  0  0  0
 18 33  1  0  0  0  0
 19 34  1  0  0  0  0
 19 35  1  0  0  0  0
M  END
> <s_m_source_file>
AV-unprocessed.smi

> <i_m_source_file_index>
1064

> <i_lp_mmshare_version>
43012

> <i_f3d_flags>
0

> <s_epik_input>
W0NIMl0xW0NIMl1TW0NIMl1bQ0gyXU4xQyg9TylbTkhdW0NIMl1bQ0gyXWMybltjSF1bY0hdbjJbQ0hdKEYpRg==

> <s_epik_cmdline>
J2VwaWtfcHl0aG9uJywgJy1waCcsICc3LjAnLCAnLXRuJywgJzgnLCAnLW1hJywgJzIwMCcsICctbWV0YWxfYmluZGluZycsICctaW1hZScsICc8aW5maWxlLm1hZT4nLCAnLW9tYWUnLCAnPG91dGZpbGUubWFlPic=

> <r_lp_tautomer_probability>
1

> <r_epik_Ionization_Penalty>
0.100551

> <r_epik_Ionization_Penalty_Charging>
0.100507

> <r_epik_Ionization_Penalty_Neutral>
4.37624e-05

> <r_epik_State_Penalty>
0.0905262

> <r_epik_Charging_Adjusted_Penalty>
0.191033

> <i_epik_Tot_Q>
0

> <i_epik_Tot_abs_Q>
0

> <r_epik_Metal_State_Penalty>
0.077291

> <b_epik_Metal_Only>
0

> <s_lp_Force_Field>
OPLS_2005

> <r_lp_Energy>
25.4045

> <b_lp_Chiralities_Consistent>
1

> <s_lp_Variant>
AV-unprocessed.smi:1064-1

> <Gold.Version>
5.8.1

> <Gold.Id.Protein>
6NUR|6NUR_protein|mol2

> <Gold.PLP.Fitness>
52.3958

> <Gold.PLP.PLP>
-51.0717

> <Gold.PLP.part.hbond>
-1.0000

> <Gold.PLP.part.metal>
0.0000

> <Gold.PLP.part.buried>
-4.8562

> <Gold.PLP.part.nonpolar>
-43.1791

> <Gold.PLP.part.repulsive>
0.0818

> <Gold.PLP.ligand.clash>
0.2879

> <Gold.PLP.ligand.torsion>
0.7278

> <Gold.PLP.Chemscore.Hbond>
1.0000

> <Gold.PLP.Chemscore.CHOScore>
0.0000

> <Gold.PLP.Chemscore.Metal>
0.0000

> <Gold.Chemscore.Hbonds>
donor molecule, donor type, donor heavy atom, donor atom, acceptor molecule, acceptor atom, score
      P1  H  7997  8010       L1     1  0.90

> <Gold.PLP.Chemscore.Internal.Correction>
0.0675

> <Gold.Rescore>
     Score         DG    S(hbond)    S(metal)    S(lipo)     H(rot)  DE(clash)    DE(int)     intcor
     13.20     -13.74       0.85        0.00      81.48       1.61       0.03       0.52       ----

> <Gold.Chemscore.Fitness>
13.1958

> <Gold.Chemscore.DG>
-13.7409

> <Gold.Chemscore.ZeroCoef>
-5.4800

> <Gold.Chemscore.Hbond>
0.8531

> <Gold.Chemscore.Metal>
0.0000

> <Gold.Chemscore.Lipo>
81.4789

> <Gold.Chemscore.Internal_Hbond>
0.0000

> <Gold.Chemscore.DEClash>
0.0290

> <Gold.Chemscore.DEInternal>
0.5162

> <Gold.Chemscore.Rot>
1.6100

> <Gold.Chemscore.Internal.Correction>
   9.000000E+99

> <Gold.Chemscore.Hbonds>
donor molecule, donor type, donor heavy atom, donor atom, acceptor molecule, acceptor atom, score
      P1  H  7997  8010       L1     1  0.17

> <Gold.Chemscore.Hbond.Weighted>
-2.8495

> <Gold.Chemscore.Metal.Weighted>
-0.0000

> <Gold.Chemscore.Lipo.Weighted>
-9.5330

> <Gold.Chemscore.Internal_Hbond.Weighted>
0.0000

> <Gold.Chemscore.DEClash.Weighted>
0.0290

> <Gold.Chemscore.DEInternal.Weighted>
0.5162

> <Gold.Chemscore.Rot.Weighted>
4.1216

> <Gold.Chemscore.Internal.Correction.Weighted>
   9.000000E+99

> <Gold.Protein.RotatedTorsions>
[ 6907 6896 6895 6894 ] final -151.97 input  -60.11 | X-H torsion
[ 7974 7965 7964 7962 ] final   31.83 input  175.53 | X-H torsion
[ 8008 7997 7996 7995 ] final   77.35 input   59.86 | X-H torsion
[ 10167 10162 10161 10158 ] final -128.03 input  -65.29 | X-H torsion
[ 10718 10713 10712 10709 ] final  -67.83 input   66.30 | X-H torsion
[ 10763 10752 10751 10750 ] final  -96.76 input  -60.55 | X-H torsion
[ 11005 11000 10999 10996 ] final  100.95 input  -57.11 | X-H torsion

> <Gold.Protein.ActiveResidues>
 VAL166  LYS551  ARG553  GLY616  TRP617  ASP618  TYR619  PRO620  LYS621  CYS622 
 ASP623  PHE694  ASN695  SER759  ASP760  ASP761  ALA762  ILE779  LEU786  VAL792 
 PHE793  MET794  SER795  GLU796  ALA797  LYS798  CYS799  TRP800  GLU811  SER814 

> <Gold.Protein.RotatedAtoms>
  151.2209  133.4503  159.2600 H   0  0  0  0  0  0  0  0  0  0  0  0  # atno 6907 bound_to 6896
  151.0885  134.9902  159.8401 H   0  0  0  0  0  0  0  0  0  0  0  0  # atno 6908 bound_to 6896
  152.5432  134.2144  159.8816 H   0  0  0  0  0  0  0  0  0  0  0  0  # atno 6909 bound_to 6896
  146.1525  139.6605  142.9089 H   0  0  0  0  0  0  0  0  0  0  0  0  # atno 7974 bound_to 7965
  155.8404  140.3462  155.5628 H   0  0  0  0  0  0  0  0  0  0  0  0  # atno 8008 bound_to 7997
  155.8147  140.0904  157.1903 H   0  0  0  0  0  0  0  0  0  0  0  0  # atno 8009 bound_to 7997
  154.4005  140.1441  156.3416 H   0  0  0  0  0  0  0  0  0  0  0  0  # atno 8010 bound_to 7997
  139.9546  143.6018  152.2465 H   0  0  0  0  0  0  0  0  0  0  0  0  # atno 10167 bound_to 10162
  156.0537  130.4284  150.1912 H   0  0  0  0  0  0  0  0  0  0  0  0  # atno 10718 bound_to 10713
  154.7268  135.5071  153.8900 H   0  0  0  0  0  0  0  0  0  0  0  0  # atno 10763 bound_to 10752
  153.0912  135.6660  153.9858 H   0  0  0  0  0  0  0  0  0  0  0  0  # atno 10764 bound_to 10752
  153.9668  135.3042  155.3409 H   0  0  0  0  0  0  0  0  0  0  0  0  # atno 10765 bound_to 10752
  139.8772  134.9162  156.4833 H   0  0  0  0  0  0  0  0  0  0  0  0  # atno 11005 bound_to 11000
  145.4789  141.0437  143.2657 LP  0  0  0  0  0  0  0  0  0  0  0  0  # atno 17320 bound_to 7965
  144.7922  139.6306  143.7108 LP  0  0  0  0  0  0  0  0  0  0  0  0  # atno 17321 bound_to 7965
  139.6602  144.7662  151.1978 LP  0  0  0  0  0  0  0  0  0  0  0  0  # atno 17342 bound_to 10162
  140.7572  143.6023  150.8688 LP  0  0  0  0  0  0  0  0  0  0  0  0  # atno 17343 bound_to 10162
  156.9991  130.9917  151.3395 LP  0  0  0  0  0  0  0  0  0  0  0  0  # atno 17370 bound_to 10713
  157.5487  130.8168  149.8118 LP  0  0  0  0  0  0  0  0  0  0  0  0  # atno 17371 bound_to 10713
  140.8711  133.7987  155.9365 LP  0  0  0  0  0  0  0  0  0  0  0  0  # atno 17394 bound_to 11000
  140.8951  134.2447  157.5073 LP  0  0  0  0  0  0  0  0  0  0  0  0  # atno 17395 bound_to 11000

$$$$
