AV-unprocessed.smi:2563|AV-procd|sdf|10056|dock2
  -GOLD-   2272014 93D 1   1.00000     0.00000
 Structure written by MMmdl.
 35 36  0  0  0  0  0  0  0  0  2 V2000
  152.1170  144.4705  158.0371 C   0  0  0  0  0  0  0  0  0  0  0  0
  151.0754  143.4097  158.4159 C   0  0  0  0  0  0  0  0  0  0  0  0
  151.6484  142.0662  158.4634 N   0  0  0  0  0  0  0  0  0  0  0  0
  151.1408  141.0517  157.5386 C   0  0  0  0  0  0  0  0  0  0  0  0
  149.9902  141.5775  156.6617 C   0  0  2  0  0  0  0  0  0  0  0  0
  148.6720  141.6800  157.4532 C   0  0  0  0  0  0  0  0  0  0  0  0
  147.5787  142.1206  156.5643 N   0  3  0  0  0  0  0  0  0  0  0  0
  147.4480  141.2410  155.3864 C   0  0  0  0  0  0  0  0  0  0  0  0
  148.7996  141.1256  154.6617 C   0  0  0  0  0  0  0  0  0  0  0  0
  149.7914  140.6730  155.5773 O   0  0  0  0  0  0  0  0  0  0  0  0
  152.6718  141.7435  159.3877 C   0  0  0  0  0  0  0  0  0  0  0  0
  153.0267  142.6135  160.4477 C   0  0  0  0  0  0  0  0  0  0  0  0
  154.0494  142.2096  161.3232 C   0  0  0  0  0  0  0  0  0  0  0  0
  154.6521  140.9632  161.0834 C   0  0  0  0  0  0  0  0  0  0  0  0
  154.2833  140.1660  160.0580 N   0  0  0  0  0  0  0  0  0  0  0  0
  153.3110  140.5547  159.2270 N   0  0  0  0  0  0  0  0  0  0  0  0
  151.6611  145.4595  157.9929 H   0  0  0  0  0  0  0  0  0  0  0  0
  152.5543  144.2635  157.0599 H   0  0  0  0  0  0  0  0  0  0  0  0
  152.9282  144.5121  158.7642 H   0  0  0  0  0  0  0  0  0  0  0  0
  150.5888  143.6606  159.3582 H   0  0  0  0  0  0  0  0  0  0  0  0
  150.2789  143.4212  157.6716 H   0  0  0  0  0  0  0  0  0  0  0  0
  151.9561  140.7040  156.9030 H   0  0  0  0  0  0  0  0  0  0  0  0
  150.8182  140.1740  158.1002 H   0  0  0  0  0  0  0  0  0  0  0  0
  150.2494  142.5633  156.2717 H   0  0  0  0  0  0  0  0  0  0  0  0
  148.4127  140.7148  157.8910 H   0  0  0  0  0  0  0  0  0  0  0  0
  148.7709  142.3905  158.2745 H   0  0  0  0  0  0  0  0  0  0  0  0
  146.7090  142.1283  157.0780 H   0  0  0  0  0  0  0  0  0  0  0  0
  147.1094  140.2563  155.7108 H   0  0  0  0  0  0  0  0  0  0  0  0
  146.6851  141.6402  154.7175 H   0  0  0  0  0  0  0  0  0  0  0  0
  148.7259  140.4140  153.8394 H   0  0  0  0  0  0  0  0  0  0  0  0
  149.0959  142.0827  154.2299 H   0  0  0  0  0  0  0  0  0  0  0  0
  152.5503  143.5693  160.6016 H   0  0  0  0  0  0  0  0  0  0  0  0
  154.3614  142.8331  162.1477 H   0  0  0  0  0  0  0  0  0  0  0  0
  155.4431  140.5993  161.7222 H   0  0  0  0  0  0  0  0  0  0  0  0
  147.7814  143.0578  156.2459 H   0  0  0  0  0  0  0  0  0  0  0  0
  1  2  1  0  0  0  0
  1 17  1  0  0  0  0
  1 18  1  0  0  0  0
  1 19  1  0  0  0  0
  2  3  1  0  0  0  0
  2 20  1  0  0  0  0
  2 21  1  0  0  0  0
  3  4  1  0  0  0  0
  3 11  1  0  0  0  0
  4  5  1  0  0  0  0
  4 22  1  0  0  0  0
  4 23  1  0  0  0  0
  5 10  1  0  0  0  0
  5  6  1  0  0  0  0
  5 24  1  0  0  0  0
  6  7  1  0  0  0  0
  6 25  1  0  0  0  0
  6 26  1  0  0  0  0
  7  8  1  0  0  0  0
  7 27  1  0  0  0  0
  7 35  1  0  0  0  0
  8  9  1  0  0  0  0
  8 28  1  0  0  0  0
  8 29  1  0  0  0  0
  9 10  1  0  0  0  0
  9 30  1  0  0  0  0
  9 31  1  0  0  0  0
 11 16  1  0  0  0  0
 11 12  2  0  0  0  0
 12 13  1  0  0  0  0
 12 32  1  0  0  0  0
 13 14  2  0  0  0  0
 13 33  1  0  0  0  0
 14 15  1  0  0  0  0
 14 34  1  0  0  0  0
 15 16  2  0  0  0  0
M  CHG  1   7   1
M  END
> <s_m_source_file>
AV-unprocessed.smi

> <i_m_source_file_index>
2563

> <i_lp_mmshare_version>
43012

> <i_f3d_flags>
0

> <s_epik_input>
bjFuW2NIXVtjSF1bY0hdYzFOKFtDSDJdW0NIM10pW0NIMl1bQ0BASF0yW0NIMl1bTkhdW0NIMl1bQ0gyXU8y

> <s_epik_cmdline>
J2VwaWtfcHl0aG9uJywgJy1waCcsICc3LjAnLCAnLXRuJywgJzgnLCAnLW1hJywgJzIwMCcsICctbWV0YWxfYmluZGluZycsICctaW1hZScsICc8aW5maWxlLm1hZT4nLCAnLW9tYWUnLCAnPG91dGZpbGUubWFlPic=

> <r_lp_tautomer_probability>
1

> <r_epik_Ionization_Penalty>
0.0472862

> <r_epik_Ionization_Penalty_Charging>
0.0127794

> <r_epik_Ionization_Penalty_Neutral>
0.0345068

> <r_epik_State_Penalty>
0.0614045

> <r_epik_Charging_Adjusted_Penalty>
0.0741839

> <i_epik_Tot_Q>
1

> <i_epik_Tot_abs_Q>
1

> <r_epik_Metal_State_Penalty>
0.0547208

> <b_epik_Metal_Only>
0

> <s_lp_Force_Field>
OPLS_2005

> <r_lp_Energy>
24.8207

> <b_lp_Chiralities_Consistent>
1

> <s_lp_Variant>
AV-unprocessed.smi:2563-1

> <Gold.Version>
5.8.1

> <Gold.Id.Protein>
6NUR|6NUR_protein|mol2

> <Gold.PLP.Fitness>
41.1515

> <Gold.PLP.PLP>
-35.4895

> <Gold.PLP.part.hbond>
-1.0000

> <Gold.PLP.part.metal>
0.0000

> <Gold.PLP.part.buried>
-4.1536

> <Gold.PLP.part.nonpolar>
-30.5279

> <Gold.PLP.part.repulsive>
0.1091

> <Gold.PLP.ligand.clash>
0.0000

> <Gold.PLP.ligand.torsion>
0.1803

> <Gold.PLP.Chemscore.Hbond>
2.0000

> <Gold.PLP.Chemscore.CHOScore>
0.0000

> <Gold.PLP.Chemscore.Metal>
0.0000

> <Gold.Chemscore.Hbonds>
donor molecule, donor type, donor heavy atom, donor atom, acceptor molecule, acceptor atom, score
      L1  H     7    35       P1  8028  1.79

> <Gold.PLP.Chemscore.Internal.Correction>
0.0227

> <Gold.Rescore>
     Score         DG    S(hbond)    S(metal)    S(lipo)     H(rot)  DE(clash)    DE(int)     intcor
     14.80     -15.01       0.95        0.00      85.05       1.40       0.03       0.18       ----

> <Gold.Chemscore.Fitness>
14.7965

> <Gold.Chemscore.DG>
-15.0076

> <Gold.Chemscore.ZeroCoef>
-5.4800

> <Gold.Chemscore.Hbond>
0.9490

> <Gold.Chemscore.Metal>
0.0000

> <Gold.Chemscore.Lipo>
85.0460

> <Gold.Chemscore.Internal_Hbond>
0.0000

> <Gold.Chemscore.DEClash>
0.0280

> <Gold.Chemscore.DEInternal>
0.1831

> <Gold.Chemscore.Rot>
1.4033

> <Gold.Chemscore.Internal.Correction>
   9.000000E+99

> <Gold.Chemscore.Hbonds>
donor molecule, donor type, donor heavy atom, donor atom, acceptor molecule, acceptor atom, score
      L1  H     7    35       P1  8028  0.19

> <Gold.Chemscore.Hbond.Weighted>
-3.1697

> <Gold.Chemscore.Metal.Weighted>
-0.0000

> <Gold.Chemscore.Lipo.Weighted>
-9.9504

> <Gold.Chemscore.Internal_Hbond.Weighted>
0.0000

> <Gold.Chemscore.DEClash.Weighted>
0.0280

> <Gold.Chemscore.DEInternal.Weighted>
0.1831

> <Gold.Chemscore.Rot.Weighted>
3.5924

> <Gold.Chemscore.Internal.Correction.Weighted>
   9.000000E+99

> <Gold.Protein.RotatedTorsions>
[ 6907 6896 6895 6894 ] final   76.80 input  -60.11 | X-H torsion
[ 7974 7965 7964 7962 ] final   90.13 input  175.53 | X-H torsion
[ 8008 7997 7996 7995 ] final -104.45 input   59.86 | X-H torsion
[ 10167 10162 10161 10158 ] final   63.49 input  -65.29 | X-H torsion
[ 10718 10713 10712 10709 ] final  122.55 input   66.30 | X-H torsion
[ 10763 10752 10751 10750 ] final  -72.23 input  -60.55 | X-H torsion
[ 11005 11000 10999 10996 ] final -138.47 input  -57.11 | X-H torsion

> <Gold.Protein.ActiveResidues>
 VAL166  LYS551  ARG553  GLY616  TRP617  ASP618  TYR619  PRO620  LYS621  CYS622 
 ASP623  PHE694  ASN695  SER759  ASP760  ASP761  ALA762  ILE779  LEU786  VAL792 
 PHE793  MET794  SER795  GLU796  ALA797  LYS798  CYS799  TRP800  GLU811  SER814 

> <Gold.Protein.RotatedAtoms>
  152.5089  134.3914  159.9384 H   0  0  0  0  0  0  0  0  0  0  0  0  # atno 6907 bound_to 6896
  151.3874  133.3794  159.2725 H   0  0  0  0  0  0  0  0  0  0  0  0  # atno 6908 bound_to 6896
  150.9458  134.8884  159.7700 H   0  0  0  0  0  0  0  0  0  0  0  0  # atno 6909 bound_to 6896
  145.5231  139.2280  143.2660 H   0  0  0  0  0  0  0  0  0  0  0  0  # atno 7974 bound_to 7965
  154.8855  140.0418  157.1807 H   0  0  0  0  0  0  0  0  0  0  0  0  # atno 8008 bound_to 7997
  154.8595  140.2942  155.5527 H   0  0  0  0  0  0  0  0  0  0  0  0  # atno 8009 bound_to 7997
  156.2998  140.2449  156.3567 H   0  0  0  0  0  0  0  0  0  0  0  0  # atno 8010 bound_to 7997
  140.1324  144.4630  150.6857 H   0  0  0  0  0  0  0  0  0  0  0  0  # atno 10167 bound_to 10162
  157.5734  131.1081  150.8325 H   0  0  0  0  0  0  0  0  0  0  0  0  # atno 10718 bound_to 10713
  154.4428  135.5936  153.6140 H   0  0  0  0  0  0  0  0  0  0  0  0  # atno 10763 bound_to 10752
  152.9807  135.6002  154.3701 H   0  0  0  0  0  0  0  0  0  0  0  0  # atno 10764 bound_to 10752
  154.3553  135.2841  155.2328 H   0  0  0  0  0  0  0  0  0  0  0  0  # atno 10765 bound_to 10752
  140.8613  134.2165  157.4705 H   0  0  0  0  0  0  0  0  0  0  0  0  # atno 11005 bound_to 11000
  146.2093  140.6044  142.9067 LP  0  0  0  0  0  0  0  0  0  0  0  0  # atno 17320 bound_to 7965
  144.7665  140.5543  143.6699 LP  0  0  0  0  0  0  0  0  0  0  0  0  # atno 17321 bound_to 7965
  140.6809  143.2326  151.5387 LP  0  0  0  0  0  0  0  0  0  0  0  0  # atno 17342 bound_to 10162
  139.5513  144.2389  152.1534 LP  0  0  0  0  0  0  0  0  0  0  0  0  # atno 17343 bound_to 10162
  156.8791  130.5173  149.5292 LP  0  0  0  0  0  0  0  0  0  0  0  0  # atno 17370 bound_to 10713
  156.0778  130.5796  150.9507 LP  0  0  0  0  0  0  0  0  0  0  0  0  # atno 17371 bound_to 10713
  139.8707  134.9731  156.4796 LP  0  0  0  0  0  0  0  0  0  0  0  0  # atno 17394 bound_to 11000
  140.8679  133.8010  155.9334 LP  0  0  0  0  0  0  0  0  0  0  0  0  # atno 17395 bound_to 11000

$$$$
