AV-unprocessed.smi:38|AV-procd|sdf|344|dock7
  -GOLD-   2262016183D 1   1.00000     0.00000
 Structure written by MMmdl.
 27 28  0  0  0  0  0  0  0  0  2 V2000
  151.2614  134.3823  156.8259 O   0  0  0  0  0  0  0  0  0  0  0  0
  151.2986  135.5284  156.3806 C   0  0  0  0  0  0  0  0  0  0  0  0
  152.3796  136.3461  156.5368 N   0  5  0  0  0  0  0  0  0  0  0  0
  152.4182  137.6190  156.0443 C   0  0  0  0  0  0  0  0  0  0  0  0
  153.3878  138.3652  156.1839 O   0  0  0  0  0  0  0  0  0  0  0  0
  151.2900  138.1191  155.3378 N   0  0  0  0  0  0  0  0  0  0  0  0
  151.3392  139.5333  154.7960 C   0  0  2  0  0  0  0  0  0  0  0  0
  151.4709  140.5465  155.9435 C   0  0  0  0  0  0  0  0  0  0  0  0
  150.3995  141.5636  155.6024 C   0  0  2  0  0  0  0  0  0  0  0  0
  149.9104  142.1955  156.7677 O   0  0  0  0  0  0  0  0  0  0  0  0
  149.3425  140.6979  154.9172 C   0  0  1  0  0  0  0  0  0  0  0  0
  148.3858  141.4927  154.0155 C   0  0  0  0  0  0  0  0  0  0  0  0
  147.7704  140.6324  153.0804 O   0  0  0  0  0  0  0  0  0  0  0  0
  150.1473  139.8291  154.1250 O   0  0  0  0  0  0  0  0  0  0  0  0
  150.1789  137.3096  155.1625 C   0  0  0  0  0  0  0  0  0  0  0  0
  150.1451  136.0531  155.6519 C   0  0  0  0  0  0  0  0  0  0  0  0
  149.0527  135.2918  155.4667 F   0  0  0  0  0  0  0  0  0  0  0  0
  152.1648  139.5531  154.0825 H   0  0  0  0  0  0  0  0  0  0  0  0
  150.7960  142.3061  154.9082 H   0  0  0  0  0  0  0  0  0  0  0  0
  148.7966  140.1203  155.6661 H   0  0  0  0  0  0  0  0  0  0  0  0
  151.2549  140.0556  156.8947 H   0  0  0  0  0  0  0  0  0  0  0  0
  152.4754  140.9686  155.9834 H   0  0  0  0  0  0  0  0  0  0  0  0
  149.5971  143.0556  156.5327 H   0  0  0  0  0  0  0  0  0  0  0  0
  147.5938  141.9423  154.6148 H   0  0  0  0  0  0  0  0  0  0  0  0
  148.9046  142.3034  153.5033 H   0  0  0  0  0  0  0  0  0  0  0  0
  148.3871  140.4513  152.3878 H   0  0  0  0  0  0  0  0  0  0  0  0
  149.3146  137.6727  154.6278 H   0  0  0  0  0  0  0  0  0  0  0  0
  1  2  2  0  0  0  0
  2 16  1  0  0  0  0
  2  3  1  0  0  0  0
  3  4  1  0  0  0  0
  4  5  2  0  0  0  0
  4  6  1  0  0  0  0
  6  7  1  0  0  0  0
  6 15  1  0  0  0  0
  7 18  1  0  0  0  0
  7 14  1  0  0  0  0
  7  8  1  0  0  0  0
  8  9  1  0  0  0  0
  8 21  1  0  0  0  0
  8 22  1  0  0  0  0
  9 19  1  0  0  0  0
  9 10  1  0  0  0  0
  9 11  1  0  0  0  0
 10 23  1  0  0  0  0
 11 20  1  0  0  0  0
 11 12  1  0  0  0  0
 11 14  1  0  0  0  0
 12 13  1  0  0  0  0
 12 24  1  0  0  0  0
 12 25  1  0  0  0  0
 13 26  1  0  0  0  0
 15 16  2  0  0  0  0
 15 27  1  0  0  0  0
 16 17  1  0  0  0  0
M  CHG  1   3  -1
M  END
> <s_m_source_file>
AV-unprocessed.smi

> <i_m_source_file_index>
38

> <i_lp_mmshare_version>
43012

> <i_f3d_flags>
0

> <s_epik_input>
Tz1jMVtuSF1jKD1PKW4oW2NIXWMxRilbQ0BIXTJbQ0gyXVtDQEhdKFtPSF0pW0NASF0oTzIpW0NIMl1bT0hd

> <s_epik_cmdline>
J2VwaWtfcHl0aG9uJywgJy1waCcsICc3LjAnLCAnLXRuJywgJzgnLCAnLW1hJywgJzIwMCcsICctbWV0YWxfYmluZGluZycsICctaW1hZScsICc8aW5maWxlLm1hZT4nLCAnLW9tYWUnLCAnPG91dGZpbGUubWFlPic=

> <r_epik_Ionization_Penalty>
1.68146

> <r_epik_Ionization_Penalty_Charging>
3.4211e-08

> <r_epik_Ionization_Penalty_Neutral>
1.68146

> <r_epik_State_Penalty>
1.78593

> <r_epik_Charging_Adjusted_Penalty>
1.78593

> <i_epik_Tot_Q>
-1

> <i_epik_Tot_abs_Q>
1

> <r_epik_Metal_State_Penalty>
0.0113696

> <b_epik_Metal_Only>
0

> <s_epik_Chemistry_Notes>
This compound contains an acetal/aminal-like group ( X-CH(R)-Y where X, Y are N, S, or O) that may be acid/base labile, releasing an aldehyde.

> <s_lp_Force_Field>
OPLS_2005

> <r_lp_Energy>
37.5177

> <b_lp_Chiralities_Consistent>
1

> <s_lp_Variant>
AV-unprocessed.smi:38-10

> <Gold.Version>
5.8.1

> <Gold.Id.Protein>
6NUR|6NUR_protein|mol2

> <Gold.PLP.Fitness>
39.8604

> <Gold.PLP.PLP>
-27.3764

> <Gold.PLP.part.hbond>
-5.6712

> <Gold.PLP.part.metal>
0.0000

> <Gold.PLP.part.buried>
-1.4136

> <Gold.PLP.part.nonpolar>
-19.9320

> <Gold.PLP.part.repulsive>
1.0639

> <Gold.PLP.ligand.clash>
0.0000

> <Gold.PLP.ligand.torsion>
0.1542

> <Gold.PLP.Chemscore.Hbond>
4.2586

> <Gold.PLP.Chemscore.CHOScore>
0.0000

> <Gold.PLP.Chemscore.Metal>
0.0000

> <Gold.Chemscore.Hbonds>
donor molecule, donor type, donor heavy atom, donor atom, acceptor molecule, acceptor atom, score
      L1  H    10    23       P1  8028  1.00
      L1  H    13    26       P1  7957  1.00
      P1  H  7997  8008       L1     5  0.60
      P1  H 10752 10765       L1     3  1.40

> <Gold.PLP.Chemscore.Internal.Correction>
0.0164

> <Gold.Rescore>
     Score         DG    S(hbond)    S(metal)    S(lipo)     H(rot)  DE(clash)    DE(int)     intcor
     10.51     -12.22       2.93        0.00      36.93       2.88       0.21       1.49       ----

> <Gold.Chemscore.Fitness>
10.5135

> <Gold.Chemscore.DG>
-12.2153

> <Gold.Chemscore.ZeroCoef>
-5.4800

> <Gold.Chemscore.Hbond>
2.9315

> <Gold.Chemscore.Metal>
0.0000

> <Gold.Chemscore.Lipo>
36.9270

> <Gold.Chemscore.Internal_Hbond>
0.0000

> <Gold.Chemscore.DEClash>
0.2112

> <Gold.Chemscore.DEInternal>
1.4906

> <Gold.Chemscore.Rot>
2.8815

> <Gold.Chemscore.Internal.Correction>
   9.000000E+99

> <Gold.Chemscore.Hbonds>
donor molecule, donor type, donor heavy atom, donor atom, acceptor molecule, acceptor atom, score
      L1  H    10    23       P1  8028  0.95
      L1  H    13    26       P1  7957  1.00
      P1  H  7997  8008       L1     5  0.57
      P1  H 10752 10765       L1     3  0.03

> <Gold.Chemscore.Hbond.Weighted>
-9.7913

> <Gold.Chemscore.Metal.Weighted>
-0.0000

> <Gold.Chemscore.Lipo.Weighted>
-4.3205

> <Gold.Chemscore.Internal_Hbond.Weighted>
0.0000

> <Gold.Chemscore.DEClash.Weighted>
0.2112

> <Gold.Chemscore.DEInternal.Weighted>
1.4906

> <Gold.Chemscore.Rot.Weighted>
7.3765

> <Gold.Chemscore.Internal.Correction.Weighted>
   9.000000E+99

> <Gold.Protein.RotatedTorsions>
[ 6907 6896 6895 6894 ] final   55.58 input  -60.11 | X-H torsion
[ 7974 7965 7964 7962 ] final  -15.09 input  175.53 | X-H torsion
[ 8008 7997 7996 7995 ] final  -71.19 input   59.86 | X-H torsion
[ 10167 10162 10161 10158 ] final  117.57 input  -65.29 | X-H torsion
[ 10718 10713 10712 10709 ] final -112.13 input   66.30 | X-H torsion
[ 10763 10752 10751 10750 ] final -128.10 input  -60.55 | X-H torsion
[ 11005 11000 10999 10996 ] final  -29.06 input  -57.11 | X-H torsion

> <Gold.Protein.ActiveResidues>
 VAL166  LYS551  ARG553  GLY616  TRP617  ASP618  TYR619  PRO620  LYS621  CYS622 
 ASP623  PHE694  ASN695  SER759  ASP760  ASP761  ALA762  ILE779  LEU786  VAL792 
 PHE793  MET794  SER795  GLU796  ALA797  LYS798  CYS799  TRP800  GLU811  SER814 

> <Gold.Protein.RotatedAtoms>
  152.3553  134.6949  160.0223 H   0  0  0  0  0  0  0  0  0  0  0  0  # atno 6907 bound_to 6896
  151.7289  133.3311  159.3343 H   0  0  0  0  0  0  0  0  0  0  0  0  # atno 6908 bound_to 6896
  150.7567  134.6315  159.6233 H   0  0  0  0  0  0  0  0  0  0  0  0  # atno 6909 bound_to 6896
  146.2047  140.3442  142.8411 H   0  0  0  0  0  0  0  0  0  0  0  0  # atno 7974 bound_to 7965
  154.5069  140.0820  156.7912 H   0  0  0  0  0  0  0  0  0  0  0  0  # atno 8008 bound_to 7997
  155.3873  140.3431  155.4231 H   0  0  0  0  0  0  0  0  0  0  0  0  # atno 8009 bound_to 7997
  156.1526  140.1563  156.8732 H   0  0  0  0  0  0  0  0  0  0  0  0  # atno 8010 bound_to 7997
  139.6169  144.7094  151.2719 H   0  0  0  0  0  0  0  0  0  0  0  0  # atno 10167 bound_to 10162
  156.0687  130.5904  150.8467 H   0  0  0  0  0  0  0  0  0  0  0  0  # atno 10718 bound_to 10713
  154.8755  135.3940  154.3701 H   0  0  0  0  0  0  0  0  0  0  0  0  # atno 10763 bound_to 10752
  153.4462  135.7027  153.6143 H   0  0  0  0  0  0  0  0  0  0  0  0  # atno 10764 bound_to 10752
  153.4702  135.3792  155.2356 H   0  0  0  0  0  0  0  0  0  0  0  0  # atno 10765 bound_to 10752
  140.9263  133.7366  156.0873 H   0  0  0  0  0  0  0  0  0  0  0  0  # atno 11005 bound_to 11000
  144.8764  140.7342  143.6014 LP  0  0  0  0  0  0  0  0  0  0  0  0  # atno 17320 bound_to 7965
  145.3362  139.1745  143.4510 LP  0  0  0  0  0  0  0  0  0  0  0  0  # atno 17321 bound_to 7965
  140.7357  143.6729  150.8066 LP  0  0  0  0  0  0  0  0  0  0  0  0  # atno 17342 bound_to 10162
  140.0333  143.5421  152.2750 LP  0  0  0  0  0  0  0  0  0  0  0  0  # atno 17343 bound_to 10162
  157.5745  131.0946  150.9366 LP  0  0  0  0  0  0  0  0  0  0  0  0  # atno 17370 bound_to 10713
  156.9575  130.5443  149.5284 LP  0  0  0  0  0  0  0  0  0  0  0  0  # atno 17371 bound_to 10713
  140.7921  134.3605  157.5462 LP  0  0  0  0  0  0  0  0  0  0  0  0  # atno 17394 bound_to 11000
  139.8786  134.9146  156.3112 LP  0  0  0  0  0  0  0  0  0  0  0  0  # atno 17395 bound_to 11000

$$$$
