AV-unprocessed.smi:521|AV-procd|sdf|2799|dock2
  -GOLD-   2262023273D 1   1.00000     0.00000
 Structure written by MMmdl.
 40 42  0  0  0  0  0  0  0  0  1 V2000
  146.2795  143.1823  153.5486 C   0  0  0  0  0  0  0  0  0  0  0  0
  147.4564  142.6968  154.1761 O   0  0  0  0  0  0  0  0  0  0  0  0
  147.7885  141.3677  154.0110 C   0  0  0  0  0  0  0  0  0  0  0  0
  147.1000  140.4862  153.1397 C   0  0  0  0  0  0  0  0  0  0  0  0
  147.4985  139.1419  153.0240 C   0  0  0  0  0  0  0  0  0  0  0  0
  148.5868  138.6643  153.7740 C   0  0  0  0  0  0  0  0  0  0  0  0
  149.2770  139.5301  154.6415 C   0  0  0  0  0  0  0  0  0  0  0  0
  148.8820  140.8855  154.7662 C   0  0  0  0  0  0  0  0  0  0  0  0
  149.5063  141.7912  155.5958 O   0  0  0  0  0  0  0  0  0  0  0  0
  150.8413  141.5390  156.0100 C   0  0  0  0  0  0  0  0  0  0  0  0
  150.8094  140.6979  157.2939 C   0  0  0  0  0  0  0  0  0  0  0  0
  151.5326  141.3374  158.3846 N   0  0  0  0  0  0  0  0  0  0  0  0
  152.3908  140.7691  159.2685 C   0  0  0  0  0  0  0  0  0  0  0  0
  152.7209  139.3085  159.2343 C   0  0  0  0  0  0  0  0  0  0  0  0
  153.3430  138.9192  158.0287 O   0  0  0  0  0  0  0  0  0  0  0  0
  152.9239  141.5925  160.1720 N   0  0  0  0  0  0  0  0  0  0  0  0
  152.3638  142.8108  159.8402 C   0  0  0  0  0  0  0  0  0  0  0  0
  152.5350  144.0884  160.4199 C   0  0  0  0  0  0  0  0  0  0  0  0
  151.8530  145.2068  159.8972 C   0  0  0  0  0  0  0  0  0  0  0  0
  150.9905  145.0641  158.7912 C   0  0  0  0  0  0  0  0  0  0  0  0
  150.8014  143.7992  158.2026 C   0  0  0  0  0  0  0  0  0  0  0  0
  151.4868  142.6861  158.7258 C   0  0  0  0  0  0  0  0  0  0  0  0
  146.1715  144.2450  153.7652 H   0  0  0  0  0  0  0  0  0  0  0  0
  145.3894  142.6762  153.9244 H   0  0  0  0  0  0  0  0  0  0  0  0
  146.3300  143.0702  152.4648 H   0  0  0  0  0  0  0  0  0  0  0  0
  146.2603  140.8177  152.5483 H   0  0  0  0  0  0  0  0  0  0  0  0
  146.9679  138.4765  152.3588 H   0  0  0  0  0  0  0  0  0  0  0  0
  148.8929  137.6323  153.6851 H   0  0  0  0  0  0  0  0  0  0  0  0
  150.1070  139.1294  155.2030 H   0  0  0  0  0  0  0  0  0  0  0  0
  151.3812  140.9973  155.2323 H   0  0  0  0  0  0  0  0  0  0  0  0
  151.3651  142.4778  156.1962 H   0  0  0  0  0  0  0  0  0  0  0  0
  149.7776  140.5403  157.6098 H   0  0  0  0  0  0  0  0  0  0  0  0
  151.2252  139.7075  157.1102 H   0  0  0  0  0  0  0  0  0  0  0  0
  153.3665  139.0551  160.0751 H   0  0  0  0  0  0  0  0  0  0  0  0
  151.8051  138.7291  159.3565 H   0  0  0  0  0  0  0  0  0  0  0  0
  152.9329  138.1252  157.7223 H   0  0  0  0  0  0  0  0  0  0  0  0
  153.1945  144.2084  161.2668 H   0  0  0  0  0  0  0  0  0  0  0  0
  151.9935  146.1792  160.3462 H   0  0  0  0  0  0  0  0  0  0  0  0
  150.4743  145.9260  158.3943 H   0  0  0  0  0  0  0  0  0  0  0  0
  150.1444  143.6874  157.3527 H   0  0  0  0  0  0  0  0  0  0  0  0
  1  2  1  0  0  0  0
  1 23  1  0  0  0  0
  1 24  1  0  0  0  0
  1 25  1  0  0  0  0
  2  3  1  0  0  0  0
  3  8  1  0  0  0  0
  3  4  2  0  0  0  0
  4  5  1  0  0  0  0
  4 26  1  0  0  0  0
  5  6  2  0  0  0  0
  5 27  1  0  0  0  0
  6  7  1  0  0  0  0
  6 28  1  0  0  0  0
  7  8  2  0  0  0  0
  7 29  1  0  0  0  0
  8  9  1  0  0  0  0
  9 10  1  0  0  0  0
 10 11  1  0  0  0  0
 10 30  1  0  0  0  0
 10 31  1  0  0  0  0
 11 12  1  0  0  0  0
 11 32  1  0  0  0  0
 11 33  1  0  0  0  0
 12 22  1  0  0  0  0
 12 13  1  0  0  0  0
 13 14  1  0  0  0  0
 13 16  2  0  0  0  0
 14 15  1  0  0  0  0
 14 34  1  0  0  0  0
 14 35  1  0  0  0  0
 15 36  1  0  0  0  0
 16 17  1  0  0  0  0
 17 22  2  0  0  0  0
 17 18  1  0  0  0  0
 18 19  2  0  0  0  0
 18 37  1  0  0  0  0
 19 20  1  0  0  0  0
 19 38  1  0  0  0  0
 20 21  2  0  0  0  0
 20 39  1  0  0  0  0
 21 22  1  0  0  0  0
 21 40  1  0  0  0  0
M  END
> <s_m_source_file>
AV-unprocessed.smi

> <i_m_source_file_index>
521

> <i_lp_mmshare_version>
43012

> <i_f3d_flags>
0

> <s_epik_input>
W0NIM11PYzFbY0hdW2NIXVtjSF1bY0hdYzFPW0NIMl1bQ0gyXW4oYyhuMilbQ0gyXVtPSF0pYyhjMjMpW2NIXVtjSF1bY0hdW2NIXTM=

> <s_epik_cmdline>
J2VwaWtfcHl0aG9uJywgJy1waCcsICc3LjAnLCAnLXRuJywgJzgnLCAnLW1hJywgJzIwMCcsICctbWV0YWxfYmluZGluZycsICctaW1hZScsICc8aW5maWxlLm1hZT4nLCAnLW9tYWUnLCAnPG91dGZpbGUubWFlPic=

> <r_lp_tautomer_probability>
1

> <r_epik_Ionization_Penalty>
0.048627

> <r_epik_Ionization_Penalty_Charging>
0

> <r_epik_Ionization_Penalty_Neutral>
0.048627

> <r_epik_State_Penalty>
0.0414172

> <r_epik_Charging_Adjusted_Penalty>
0.0414172

> <i_epik_Tot_Q>
0

> <i_epik_Tot_abs_Q>
0

> <r_epik_Metal_State_Penalty>
4.28976e-05

> <b_epik_Metal_Only>
0

> <s_lp_Force_Field>
OPLS_2005

> <r_lp_Energy>
18.4761

> <b_lp_Chiralities_Consistent>
1

> <s_lp_Variant>
AV-unprocessed.smi:521-1

> <Gold.Version>
5.8.1

> <Gold.Id.Protein>
6NUR|6NUR_protein|mol2

> <Gold.PLP.Fitness>
46.5797

> <Gold.PLP.PLP>
-45.7475

> <Gold.PLP.part.hbond>
-1.0000

> <Gold.PLP.part.metal>
0.0000

> <Gold.PLP.part.buried>
-6.7900

> <Gold.PLP.part.nonpolar>
-40.2497

> <Gold.PLP.part.repulsive>
2.2500

> <Gold.PLP.ligand.clash>
0.0000

> <Gold.PLP.ligand.torsion>
1.1293

> <Gold.PLP.Chemscore.Hbond>
1.0000

> <Gold.PLP.Chemscore.CHOScore>
0.0000

> <Gold.PLP.Chemscore.Metal>
0.0000

> <Gold.Chemscore.Hbonds>
donor molecule, donor type, donor heavy atom, donor atom, acceptor molecule, acceptor atom, score
      P1  H  7997  8009       L1    15  1.00
      P1  H  8022  8030       L1     2  0.02

> <Gold.PLP.Chemscore.Internal.Correction>
0.0907

> <Gold.Rescore>
     Score         DG    S(hbond)    S(metal)    S(lipo)     H(rot)  DE(clash)    DE(int)     intcor
     16.03     -17.68       0.99        0.00     129.65       2.46       0.41       1.24       ----

> <Gold.Chemscore.Fitness>
16.0293

> <Gold.Chemscore.DG>
-17.6764

> <Gold.Chemscore.ZeroCoef>
-5.4800

> <Gold.Chemscore.Hbond>
0.9927

> <Gold.Chemscore.Metal>
0.0000

> <Gold.Chemscore.Lipo>
129.6477

> <Gold.Chemscore.Internal_Hbond>
0.0000

> <Gold.Chemscore.DEClash>
0.4091

> <Gold.Chemscore.DEInternal>
1.2381

> <Gold.Chemscore.Rot>
2.4562

> <Gold.Chemscore.Internal.Correction>
   9.000000E+99

> <Gold.Chemscore.Hbonds>
donor molecule, donor type, donor heavy atom, donor atom, acceptor molecule, acceptor atom, score
      P1  H  7997  8009       L1    15  0.98

> <Gold.Chemscore.Hbond.Weighted>
-3.3156

> <Gold.Chemscore.Metal.Weighted>
-0.0000

> <Gold.Chemscore.Lipo.Weighted>
-15.1688

> <Gold.Chemscore.Internal_Hbond.Weighted>
0.0000

> <Gold.Chemscore.DEClash.Weighted>
0.4091

> <Gold.Chemscore.DEInternal.Weighted>
1.2381

> <Gold.Chemscore.Rot.Weighted>
6.2880

> <Gold.Chemscore.Internal.Correction.Weighted>
   9.000000E+99

> <Gold.Protein.RotatedTorsions>
[ 6907 6896 6895 6894 ] final -146.35 input  -60.11 | X-H torsion
[ 7974 7965 7964 7962 ] final -147.60 input  175.53 | X-H torsion
[ 8008 7997 7996 7995 ] final  160.92 input   59.86 | X-H torsion
[ 10167 10162 10161 10158 ] final  -29.19 input  -65.29 | X-H torsion
[ 10718 10713 10712 10709 ] final  169.69 input   66.30 | X-H torsion
[ 10763 10752 10751 10750 ] final  143.95 input  -60.55 | X-H torsion
[ 11005 11000 10999 10996 ] final  -59.03 input  -57.11 | X-H torsion

> <Gold.Protein.ActiveResidues>
 VAL166  LYS551  ARG553  GLY616  TRP617  ASP618  TYR619  PRO620  LYS621  CYS622 
 ASP623  PHE694  ASN695  SER759  ASP760  ASP761  ALA762  ILE779  LEU786  VAL792 
 PHE793  MET794  SER795  GLU796  ALA797  LYS798  CYS799  TRP800  GLU811  SER814 

> <Gold.Protein.RotatedAtoms>
  151.1405  133.4975  159.2596 H   0  0  0  0  0  0  0  0  0  0  0  0  # atno 6907 bound_to 6896
  151.1660  135.0295  159.8741 H   0  0  0  0  0  0  0  0  0  0  0  0  # atno 6908 bound_to 6896
  152.5462  134.1273  159.8477 H   0  0  0  0  0  0  0  0  0  0  0  0  # atno 6909 bound_to 6896
  144.8083  140.5305  143.5660 H   0  0  0  0  0  0  0  0  0  0  0  0  # atno 7974 bound_to 7965
  156.2139  140.1791  156.7632 H   0  0  0  0  0  0  0  0  0  0  0  0  # atno 8008 bound_to 7997
  154.5763  140.0674  156.9068 H   0  0  0  0  0  0  0  0  0  0  0  0  # atno 8009 bound_to 7997
  155.2582  140.3334  155.4278 H   0  0  0  0  0  0  0  0  0  0  0  0  # atno 8010 bound_to 7997
  140.7263  143.3948  151.1366 H   0  0  0  0  0  0  0  0  0  0  0  0  # atno 10167 bound_to 10162
  157.0190  131.0226  151.2780 H   0  0  0  0  0  0  0  0  0  0  0  0  # atno 10718 bound_to 10713
  153.9809  135.2941  155.3420 H   0  0  0  0  0  0  0  0  0  0  0  0  # atno 10763 bound_to 10752
  154.7269  135.5084  153.8904 H   0  0  0  0  0  0  0  0  0  0  0  0  # atno 10764 bound_to 10752
  153.0855  135.6692  154.0072 H   0  0  0  0  0  0  0  0  0  0  0  0  # atno 10765 bound_to 10752
  141.1232  133.6614  156.5010 H   0  0  0  0  0  0  0  0  0  0  0  0  # atno 11005 bound_to 11000
  145.5386  139.1475  143.3460 LP  0  0  0  0  0  0  0  0  0  0  0  0  # atno 17320 bound_to 7965
  146.2377  140.5525  142.8947 LP  0  0  0  0  0  0  0  0  0  0  0  0  # atno 17321 bound_to 7965
  139.7559  143.8708  152.3088 LP  0  0  0  0  0  0  0  0  0  0  0  0  # atno 17342 bound_to 10162
  139.8577  144.7132  150.9137 LP  0  0  0  0  0  0  0  0  0  0  0  0  # atno 17343 bound_to 10162
  157.5264  130.8030  149.7867 LP  0  0  0  0  0  0  0  0  0  0  0  0  # atno 17370 bound_to 10713
  156.0109  130.3834  150.2269 LP  0  0  0  0  0  0  0  0  0  0  0  0  # atno 17371 bound_to 10713
  140.4446  134.6985  157.5009 LP  0  0  0  0  0  0  0  0  0  0  0  0  # atno 17394 bound_to 11000
  140.0206  134.6552  155.9245 LP  0  0  0  0  0  0  0  0  0  0  0  0  # atno 17395 bound_to 11000

$$$$
