AV-unprocessed.smi:200|AV-procd|sdf|1578|dock1
  -GOLD-   2262019463D 1   1.00000     0.00000
 Structure written by MMmdl.
 56 59  0  0  0  0  0  0  0  0  1 V2000
  147.6976  140.8241  153.7844 C   0  0  0  0  0  0  0  0  0  0  0  0
  148.6521  141.7586  154.2627 O   0  0  0  0  0  0  0  0  0  0  0  0
  149.7580  141.1746  154.9389 C   0  0  0  0  0  0  0  0  0  0  0  0
  149.6409  141.2991  156.4730 C   0  0  0  0  0  0  0  0  0  0  0  0
  150.6826  140.5710  157.2004 N   0  0  0  0  0  0  0  0  0  0  0  0
  151.0761  139.3995  156.6436 C   0  0  0  0  0  0  0  0  0  0  0  0
  152.3579  139.2413  156.2205 N   0  0  0  0  0  0  0  0  0  0  0  0
  152.7438  138.0818  155.6800 C   0  0  0  0  0  0  0  0  0  0  0  0
  152.0249  136.9758  155.4753 N   0  0  0  0  0  0  0  0  0  0  0  0
  150.7364  137.1346  155.8937 C   0  0  0  0  0  0  0  0  0  0  0  0
  150.1817  138.3095  156.4725 C   0  0  0  0  0  0  0  0  0  0  0  0
  148.8353  138.1160  156.7510 N   0  0  0  0  0  0  0  0  0  0  0  0
  148.6067  136.8920  156.3607 C   0  0  0  0  0  0  0  0  0  0  0  0
  149.6984  136.2188  155.8567 N   0  0  0  0  0  0  0  0  0  0  0  0
  149.7256  134.8489  155.3639 C   0  0  0  0  0  0  0  0  0  0  0  0
  149.6287  133.7692  156.4656 C   0  0  0  0  0  0  0  0  0  0  0  0
  150.8590  133.8132  157.3876 C   0  0  0  0  0  0  0  0  0  0  0  0
  150.8194  132.7831  158.3543 O   0  0  0  0  0  0  0  0  0  0  0  0
  148.2741  133.7014  157.1841 C   0  0  0  0  0  0  0  0  0  0  0  0
  147.9137  132.4617  156.5398 O   0  0  0  0  0  0  0  0  0  0  0  0
  149.2414  132.3634  155.9836 C   0  0  0  0  0  0  0  0  0  0  0  0
  151.7366  141.3930  157.8103 C   0  0  2  0  0  0  0  0  0  0  0  0
  152.7041  140.6423  158.7390 C   0  0  0  0  0  0  0  0  0  0  0  0
  153.2914  141.7117  159.6757 C   0  0  0  0  0  0  0  0  0  0  0  0
  152.5580  143.0273  159.3590 C   0  0  2  0  0  0  0  0  0  0  0  0
  152.3121  143.9148  160.5865 C   0  0  0  0  0  0  0  0  0  0  0  0
  151.2755  142.5949  158.6454 C   0  0  0  0  0  0  0  0  0  0  0  0
  146.8569  141.3609  153.3453 H   0  0  0  0  0  0  0  0  0  0  0  0
  147.3109  140.2023  154.5926 H   0  0  0  0  0  0  0  0  0  0  0  0
  148.1142  140.1788  153.0114 H   0  0  0  0  0  0  0  0  0  0  0  0
  149.8151  140.1258  154.6472 H   0  0  0  0  0  0  0  0  0  0  0  0
  150.6878  141.6287  154.5935 H   0  0  0  0  0  0  0  0  0  0  0  0
  149.6784  142.3523  156.7538 H   0  0  0  0  0  0  0  0  0  0  0  0
  148.6641  140.9437  156.8008 H   0  0  0  0  0  0  0  0  0  0  0  0
  153.7771  138.0317  155.3696 H   0  0  0  0  0  0  0  0  0  0  0  0
  147.6297  136.4384  156.4417 H   0  0  0  0  0  0  0  0  0  0  0  0
  148.9170  134.7348  154.6409 H   0  0  0  0  0  0  0  0  0  0  0  0
  150.6437  134.7202  154.7893 H   0  0  0  0  0  0  0  0  0  0  0  0
  151.7752  133.6873  156.8097 H   0  0  0  0  0  0  0  0  0  0  0  0
  150.9542  134.7763  157.8878 H   0  0  0  0  0  0  0  0  0  0  0  0
  150.1435  132.1688  158.1112 H   0  0  0  0  0  0  0  0  0  0  0  0
  148.3499  133.5883  158.2666 H   0  0  0  0  0  0  0  0  0  0  0  0
  147.5949  134.5152  156.9272 H   0  0  0  0  0  0  0  0  0  0  0  0
  149.2228  132.2432  154.9018 H   0  0  0  0  0  0  0  0  0  0  0  0
  149.8164  131.5612  156.4481 H   0  0  0  0  0  0  0  0  0  0  0  0
  152.3258  141.7979  156.9861 H   0  0  0  0  0  0  0  0  0  0  0  0
  152.1809  139.8981  159.3389 H   0  0  0  0  0  0  0  0  0  0  0  0
  153.4776  140.1191  158.1762 H   0  0  0  0  0  0  0  0  0  0  0  0
  153.1314  141.4141  160.7128 H   0  0  0  0  0  0  0  0  0  0  0  0
  154.3672  141.8223  159.5354 H   0  0  0  0  0  0  0  0  0  0  0  0
  153.1642  143.5854  158.6433 H   0  0  0  0  0  0  0  0  0  0  0  0
  151.7085  143.4000  161.3346 H   0  0  0  0  0  0  0  0  0  0  0  0
  151.7875  144.8288  160.3074 H   0  0  0  0  0  0  0  0  0  0  0  0
  153.2529  144.2018  161.0566 H   0  0  0  0  0  0  0  0  0  0  0  0
  150.8458  143.3897  158.0352 H   0  0  0  0  0  0  0  0  0  0  0  0
  150.5357  142.3039  159.3920 H   0  0  0  0  0  0  0  0  0  0  0  0
  1  2  1  0  0  0  0
  1 28  1  0  0  0  0
  1 29  1  0  0  0  0
  1 30  1  0  0  0  0
  2  3  1  0  0  0  0
  3  4  1  0  0  0  0
  3 31  1  0  0  0  0
  3 32  1  0  0  0  0
  4  5  1  0  0  0  0
  4 33  1  0  0  0  0
  4 34  1  0  0  0  0
  5  6  1  0  0  0  0
  5 22  1  0  0  0  0
  6 11  1  0  0  0  0
  6  7  2  0  0  0  0
  7  8  1  0  0  0  0
  8  9  2  0  0  0  0
  8 35  1  0  0  0  0
  9 10  1  0  0  0  0
 10 14  1  0  0  0  0
 10 11  2  0  0  0  0
 11 12  1  0  0  0  0
 12 13  2  0  0  0  0
 13 14  1  0  0  0  0
 13 36  1  0  0  0  0
 14 15  1  0  0  0  0
 15 16  1  0  0  0  0
 15 37  1  0  0  0  0
 15 38  1  0  0  0  0
 16 21  1  0  0  0  0
 16 17  1  0  0  0  0
 16 19  1  0  0  0  0
 17 18  1  0  0  0  0
 17 39  1  0  0  0  0
 17 40  1  0  0  0  0
 18 41  1  0  0  0  0
 19 20  1  0  0  0  0
 19 42  1  0  0  0  0
 19 43  1  0  0  0  0
 20 21  1  0  0  0  0
 21 44  1  0  0  0  0
 21 45  1  0  0  0  0
 22 27  1  0  0  0  0
 22 23  1  0  0  0  0
 22 46  1  0  0  0  0
 23 24  1  0  0  0  0
 23 47  1  0  0  0  0
 23 48  1  0  0  0  0
 24 25  1  0  0  0  0
 24 49  1  0  0  0  0
 24 50  1  0  0  0  0
 25 26  1  0  0  0  0
 25 27  1  0  0  0  0
 25 51  1  0  0  0  0
 26 52  1  0  0  0  0
 26 53  1  0  0  0  0
 26 54  1  0  0  0  0
 27 55  1  0  0  0  0
 27 56  1  0  0  0  0
M  END
> <s_m_source_file>
AV-unprocessed.smi

> <i_m_source_file_index>
200

> <i_lp_mmshare_version>
43012

> <i_f3d_flags>
0

> <s_epik_input>
W0NIM11bQ0BASF0oW0NIMl0xKVtDSDJdW0NIMl1bQ0BIXTFOKFtDSDJdW0NIMl1PW0NIM10pYyhuW2NIXW4yKWMoYzIzKW5bY0hdbjNbQ0gyXUM0KFtDSDJdW09IXSlbQ0gyXU9bQ0gyXTQ=

> <s_epik_cmdline>
J2VwaWtfcHl0aG9uJywgJy1waCcsICc3LjAnLCAnLXRuJywgJzgnLCAnLW1hJywgJzIwMCcsICctbWV0YWxfYmluZGluZycsICctaW1hZScsICc8aW5maWxlLm1hZT4nLCAnLW9tYWUnLCAnPG91dGZpbGUubWFlPic=

> <r_lp_tautomer_probability>
1

> <r_epik_Ionization_Penalty>
0.00363087

> <r_epik_Ionization_Penalty_Charging>
0

> <r_epik_Ionization_Penalty_Neutral>
0.00363087

> <r_epik_State_Penalty>
0.0024341

> <r_epik_Charging_Adjusted_Penalty>
0.0024341

> <i_epik_Tot_Q>
0

> <i_epik_Tot_abs_Q>
0

> <r_epik_Metal_State_Penalty>
-0

> <b_epik_Metal_Only>
0

> <s_lp_Force_Field>
OPLS_2005

> <r_lp_Energy>
51.1688

> <b_lp_Chiralities_Consistent>
1

> <s_lp_Variant>
AV-unprocessed.smi:200-3

> <Gold.Version>
5.8.1

> <Gold.Id.Protein>
6NUR|6NUR_protein|mol2

> <Gold.PLP.Fitness>
49.4750

> <Gold.PLP.PLP>
-43.5011

> <Gold.PLP.part.hbond>
-4.0000

> <Gold.PLP.part.metal>
0.0000

> <Gold.PLP.part.buried>
-5.0806

> <Gold.PLP.part.nonpolar>
-34.6412

> <Gold.PLP.part.repulsive>
0.9382

> <Gold.PLP.ligand.clash>
0.0000

> <Gold.PLP.ligand.torsion>
1.5421

> <Gold.PLP.Chemscore.Hbond>
2.5403

> <Gold.PLP.Chemscore.CHOScore>
0.0000

> <Gold.PLP.Chemscore.Metal>
0.0000

> <Gold.Chemscore.Hbonds>
donor molecule, donor type, donor heavy atom, donor atom, acceptor molecule, acceptor atom, score
      P1  H  6896  6908       L1    18  0.14
      P1  H  7997  8008       L1     7  0.51
      P1  H  8011  8017       L1     2  0.11
      P1  H 10752 10765       L1     9  0.85

> <Gold.PLP.Chemscore.Internal.Correction>
1.4373

> <Gold.Rescore>
     Score         DG    S(hbond)    S(metal)    S(lipo)     H(rot)  DE(clash)    DE(int)     intcor
     12.98     -15.77       1.81        0.00     107.90       3.28       0.09       2.70       ----

> <Gold.Chemscore.Fitness>
12.9795

> <Gold.Chemscore.DG>
-15.7724

> <Gold.Chemscore.ZeroCoef>
-5.4800

> <Gold.Chemscore.Hbond>
1.8129

> <Gold.Chemscore.Metal>
0.0000

> <Gold.Chemscore.Lipo>
107.8993

> <Gold.Chemscore.Internal_Hbond>
0.0000

> <Gold.Chemscore.DEClash>
0.0949

> <Gold.Chemscore.DEInternal>
2.6980

> <Gold.Chemscore.Rot>
3.2761

> <Gold.Chemscore.Internal.Correction>
   9.000000E+99

> <Gold.Chemscore.Hbonds>
donor molecule, donor type, donor heavy atom, donor atom, acceptor molecule, acceptor atom, score
      P1  H  6896  6908       L1    18  0.04
      P1  H  7997  8008       L1     7  0.10
      P1  H  8011  8017       L1     2  0.01
      P1  H 10752 10765       L1     9  0.75

> <Gold.Chemscore.Hbond.Weighted>
-6.0550

> <Gold.Chemscore.Metal.Weighted>
-0.0000

> <Gold.Chemscore.Lipo.Weighted>
-12.6242

> <Gold.Chemscore.Internal_Hbond.Weighted>
0.0000

> <Gold.Chemscore.DEClash.Weighted>
0.0949

> <Gold.Chemscore.DEInternal.Weighted>
2.6980

> <Gold.Chemscore.Rot.Weighted>
8.3868

> <Gold.Chemscore.Internal.Correction.Weighted>
   9.000000E+99

> <Gold.Protein.RotatedTorsions>
[ 6907 6896 6895 6894 ] final   72.88 input  -60.11 | X-H torsion
[ 7974 7965 7964 7962 ] final   79.58 input  175.53 | X-H torsion
[ 8008 7997 7996 7995 ] final  -56.97 input   59.86 | X-H torsion
[ 10167 10162 10161 10158 ] final  -60.85 input  -65.29 | X-H torsion
[ 10718 10713 10712 10709 ] final -125.88 input   66.30 | X-H torsion
[ 10763 10752 10751 10750 ] final  172.97 input  -60.55 | X-H torsion
[ 11005 11000 10999 10996 ] final  -10.60 input  -57.11 | X-H torsion

> <Gold.Protein.ActiveResidues>
 VAL166  LYS551  ARG553  GLY616  TRP617  ASP618  TYR619  PRO620  LYS621  CYS622 
 ASP623  PHE694  ASN695  SER759  ASP760  ASP761  ALA762  ILE779  LEU786  VAL792 
 PHE793  MET794  SER795  GLU796  ALA797  LYS798  CYS799  TRP800  GLU811  SER814 

> <Gold.Protein.RotatedAtoms>
  152.4893  134.4505  159.9572 H   0  0  0  0  0  0  0  0  0  0  0  0  # atno 6907 bound_to 6896
  151.4495  133.3615  159.2801 H   0  0  0  0  0  0  0  0  0  0  0  0  # atno 6908 bound_to 6896
  150.9031  134.8469  159.7434 H   0  0  0  0  0  0  0  0  0  0  0  0  # atno 6909 bound_to 6896
  145.6624  139.2475  143.1915 H   0  0  0  0  0  0  0  0  0  0  0  0  # atno 7974 bound_to 7965
  154.4250  140.1117  156.5723 H   0  0  0  0  0  0  0  0  0  0  0  0  # atno 8008 bound_to 7997
  155.6199  140.3495  155.4629 H   0  0  0  0  0  0  0  0  0  0  0  0  # atno 8009 bound_to 7997
  156.0033  140.1203  157.0516 H   0  0  0  0  0  0  0  0  0  0  0  0  # atno 8010 bound_to 7997
  140.6044  143.2369  151.5855 H   0  0  0  0  0  0  0  0  0  0  0  0  # atno 10167 bound_to 10162
  156.1715  130.6671  151.0186 H   0  0  0  0  0  0  0  0  0  0  0  0  # atno 10718 bound_to 10713
  154.4335  135.2760  155.1896 H   0  0  0  0  0  0  0  0  0  0  0  0  # atno 10763 bound_to 10752
  154.3792  135.6091  153.5785 H   0  0  0  0  0  0  0  0  0  0  0  0  # atno 10764 bound_to 10752
  152.9837  135.5876  154.4651 H   0  0  0  0  0  0  0  0  0  0  0  0  # atno 10765 bound_to 10752
  140.7464  133.8628  155.9009 H   0  0  0  0  0  0  0  0  0  0  0  0  # atno 11005 bound_to 11000
  146.1114  140.7424  142.9501 LP  0  0  0  0  0  0  0  0  0  0  0  0  # atno 17320 bound_to 7965
  144.7084  140.3945  143.7099 LP  0  0  0  0  0  0  0  0  0  0  0  0  # atno 17321 bound_to 7965
  139.5314  144.2905  152.1156 LP  0  0  0  0  0  0  0  0  0  0  0  0  # atno 17342 bound_to 10162
  140.2092  144.4580  150.6394 LP  0  0  0  0  0  0  0  0  0  0  0  0  # atno 17343 bound_to 10162
  157.6806  131.0839  150.7380 LP  0  0  0  0  0  0  0  0  0  0  0  0  # atno 17370 bound_to 10713
  156.7439  130.4747  149.5471 LP  0  0  0  0  0  0  0  0  0  0  0  0  # atno 17371 bound_to 10713
  140.9790  134.1430  157.4511 LP  0  0  0  0  0  0  0  0  0  0  0  0  # atno 17394 bound_to 11000
  139.8796  135.0004  156.6009 LP  0  0  0  0  0  0  0  0  0  0  0  0  # atno 17395 bound_to 11000

$$$$
