AV-unprocessed.smi:39|AV-procd|sdf|358|dock9
  -GOLD-   2262016193D 1   1.00000     0.00000
 Structure written by MMmdl.
 32 33  0  0  0  0  0  0  0  0  3 V2000
  152.4587  142.4524  159.9442 C   0  0  0  0  0  0  0  0  0  0  0  0
  151.9430  142.0299  158.5784 C   0  0  0  0  0  0  0  0  0  0  0  0
  152.2247  140.8170  158.0372 C   0  0  0  0  0  0  0  0  0  0  0  0
  151.7645  140.4020  156.7946 N   0  0  0  0  0  0  0  0  0  0  0  0
  152.0958  139.0308  156.2507 C   0  0  2  0  0  0  0  0  0  0  0  0
  150.9883  138.0313  156.6053 C   0  0  0  0  0  0  0  0  0  0  0  0
  151.6311  137.2384  157.7323 C   0  0  1  0  0  0  0  0  0  0  0  0
  151.0563  135.8979  157.9347 N   0  0  0  0  0  0  0  0  0  0  0  0
  149.8933  135.8123  158.3553 N   0  3  0  0  0  0  0  0  0  0  0  0
  148.8725  135.7570  158.8552 N   0  5  0  0  0  0  0  0  0  0  0  0
  153.1123  137.2583  157.3285 C   0  0  2  0  0  0  0  0  0  0  0  0
  154.0727  137.0051  158.5007 C   0  0  0  0  0  0  0  0  0  0  0  0
  153.6753  135.8514  159.2098 O   0  0  0  0  0  0  0  0  0  0  0  0
  153.2828  138.5852  156.8399 O   0  0  0  0  0  0  0  0  0  0  0  0
  150.9351  141.2604  156.0432 C   0  0  0  0  0  0  0  0  0  0  0  0
  150.4610  140.9484  154.9516 O   0  0  0  0  0  0  0  0  0  0  0  0
  150.6514  142.5082  156.5952 N   0  0  0  0  0  0  0  0  0  0  0  0
  151.1053  142.9729  157.8320 C   0  0  0  0  0  0  0  0  0  0  0  0
  150.7872  144.0987  158.2117 O   0  0  0  0  0  0  0  0  0  0  0  0
  152.2574  139.1374  155.1767 H   0  0  0  0  0  0  0  0  0  0  0  0
  151.5172  137.8135  158.6522 H   0  0  0  0  0  0  0  0  0  0  0  0
  153.2954  136.5593  156.5102 H   0  0  0  0  0  0  0  0  0  0  0  0
  150.0631  143.1277  156.0574 H   0  0  0  0  0  0  0  0  0  0  0  0
  153.0733  141.6770  160.4024 H   0  0  0  0  0  0  0  0  0  0  0  0
  151.6264  142.6603  160.6176 H   0  0  0  0  0  0  0  0  0  0  0  0
  153.0659  143.3545  159.8608 H   0  0  0  0  0  0  0  0  0  0  0  0
  152.8377  140.1395  158.6130 H   0  0  0  0  0  0  0  0  0  0  0  0
  150.0607  138.5275  156.8941 H   0  0  0  0  0  0  0  0  0  0  0  0
  150.7949  137.4138  155.7273 H   0  0  0  0  0  0  0  0  0  0  0  0
  155.1027  136.9061  158.1568 H   0  0  0  0  0  0  0  0  0  0  0  0
  154.0427  137.8421  159.1986 H   0  0  0  0  0  0  0  0  0  0  0  0
  154.4459  135.4382  159.5685 H   0  0  0  0  0  0  0  0  0  0  0  0
  1  2  1  0  0  0  0
  1 24  1  0  0  0  0
  1 25  1  0  0  0  0
  1 26  1  0  0  0  0
  2 18  1  0  0  0  0
  2  3  2  0  0  0  0
  3  4  1  0  0  0  0
  3 27  1  0  0  0  0
  4  5  1  0  0  0  0
  4 15  1  0  0  0  0
  5 20  1  0  0  0  0
  5 14  1  0  0  0  0
  5  6  1  0  0  0  0
  6  7  1  0  0  0  0
  6 28  1  0  0  0  0
  6 29  1  0  0  0  0
  7 21  1  0  0  0  0
  7  8  1  0  0  0  0
  7 11  1  0  0  0  0
  8  9  2  0  0  0  0
  9 10  2  0  0  0  0
 11 22  1  0  0  0  0
 11 12  1  0  0  0  0
 11 14  1  0  0  0  0
 12 13  1  0  0  0  0
 12 30  1  0  0  0  0
 12 31  1  0  0  0  0
 13 32  1  0  0  0  0
 15 16  2  0  0  0  0
 15 17  1  0  0  0  0
 17 23  1  0  0  0  0
 17 18  1  0  0  0  0
 18 19  2  0  0  0  0
M  CHG  1   9   1
M  CHG  1  10  -1
M  END
> <s_m_source_file>
AV-unprocessed.smi

> <i_m_source_file_index>
39

> <i_lp_mmshare_version>
43012

> <i_f3d_flags>
0

> <s_epik_input>
Tz1jMVtuSF1jKD1PKW4oW2NIXWMxW0NIM10pW0NASF0yW0NIMl1bQ0BIXShOPVtOK109W04tXSlbQ0BIXShPMilbQ0gyXVtPSF0=

> <s_epik_cmdline>
J2VwaWtfcHl0aG9uJywgJy1waCcsICc3LjAnLCAnLXRuJywgJzgnLCAnLW1hJywgJzIwMCcsICctbWV0YWxfYmluZGluZycsICctaW1hZScsICc8aW5maWxlLm1hZT4nLCAnLW9tYWUnLCAnPG91dGZpbGUubWFlPic=

> <r_lp_tautomer_probability>
0.999537

> <r_epik_Ionization_Penalty>
0.00127512

> <r_epik_Ionization_Penalty_Charging>
0.00127507

> <r_epik_Ionization_Penalty_Neutral>
5.43433e-08

> <r_epik_State_Penalty>
0.000844892

> <r_epik_Charging_Adjusted_Penalty>
0.00211996

> <i_epik_Tot_Q>
0

> <i_epik_Tot_abs_Q>
2

> <r_epik_Metal_State_Penalty>
0.680636

> <b_epik_Metal_Only>
0

> <s_epik_Chemistry_Notes>
This compound contains an acetal/aminal-like group ( X-CH(R)-Y where X, Y are N, S, or O) that may be acid/base labile, releasing an aldehyde.

> <s_lp_Force_Field>
OPLS_2005

> <r_lp_Energy>
25.9236

> <b_lp_Chiralities_Consistent>
1

> <s_lp_Variant>
AV-unprocessed.smi:39-8

> <Gold.Version>
5.8.1

> <Gold.Id.Protein>
6NUR|6NUR_protein|mol2

> <Gold.PLP.Fitness>
36.4116

> <Gold.PLP.PLP>
-26.7251

> <Gold.PLP.part.hbond>
-6.8116

> <Gold.PLP.part.metal>
0.0000

> <Gold.PLP.part.buried>
-5.1339

> <Gold.PLP.part.nonpolar>
-15.7298

> <Gold.PLP.part.repulsive>
0.3302

> <Gold.PLP.ligand.clash>
0.0000

> <Gold.PLP.ligand.torsion>
0.8188

> <Gold.PLP.Chemscore.Hbond>
3.7680

> <Gold.PLP.Chemscore.CHOScore>
0.0000

> <Gold.PLP.Chemscore.Metal>
0.0000

> <Gold.Chemscore.Hbonds>
donor molecule, donor type, donor heavy atom, donor atom, acceptor molecule, acceptor atom, score
      L1  H    17    23       P1  8028  1.00
      P1  H  6896  6909       L1    13  0.95
      P1  H  7989  7998       L1    16  0.74
      P1  H  7997  8009       L1    14  1.00

> <Gold.PLP.Chemscore.Internal.Correction>
0.0202

> <Gold.Rescore>
     Score         DG    S(hbond)    S(metal)    S(lipo)     H(rot)  DE(clash)    DE(int)     intcor
     10.50     -12.73       2.87        0.00      40.17       2.75       1.42       0.81       ----

> <Gold.Chemscore.Fitness>
10.4985

> <Gold.Chemscore.DG>
-12.7344

> <Gold.Chemscore.ZeroCoef>
-5.4800

> <Gold.Chemscore.Hbond>
2.8744

> <Gold.Chemscore.Metal>
0.0000

> <Gold.Chemscore.Lipo>
40.1701

> <Gold.Chemscore.Internal_Hbond>
0.0000

> <Gold.Chemscore.DEClash>
1.4244

> <Gold.Chemscore.DEInternal>
0.8115

> <Gold.Chemscore.Rot>
2.7524

> <Gold.Chemscore.Internal.Correction>
   9.000000E+99

> <Gold.Chemscore.Hbonds>
donor molecule, donor type, donor heavy atom, donor atom, acceptor molecule, acceptor atom, score
      L1  H    17    23       P1  8028  0.94
      P1  H  6896  6909       L1    13  0.21
      P1  H  7989  7998       L1    16  0.70
      P1  H  7997  8009       L1    14  0.24

> <Gold.Chemscore.Hbond.Weighted>
-9.6006

> <Gold.Chemscore.Metal.Weighted>
-0.0000

> <Gold.Chemscore.Lipo.Weighted>
-4.6999

> <Gold.Chemscore.Internal_Hbond.Weighted>
0.0000

> <Gold.Chemscore.DEClash.Weighted>
1.4244

> <Gold.Chemscore.DEInternal.Weighted>
0.8115

> <Gold.Chemscore.Rot.Weighted>
7.0461

> <Gold.Chemscore.Internal.Correction.Weighted>
   9.000000E+99

> <Gold.Protein.RotatedTorsions>
[ 6907 6896 6895 6894 ] final  172.46 input  -60.11 | X-H torsion
[ 7974 7965 7964 7962 ] final -159.83 input  175.53 | X-H torsion
[ 8008 7997 7996 7995 ] final -173.71 input   59.86 | X-H torsion
[ 10167 10162 10161 10158 ] final  167.81 input  -65.29 | X-H torsion
[ 10718 10713 10712 10709 ] final  -33.90 input   66.30 | X-H torsion
[ 10763 10752 10751 10750 ] final  124.55 input  -60.55 | X-H torsion
[ 11005 11000 10999 10996 ] final  -17.32 input  -57.11 | X-H torsion

> <Gold.Protein.ActiveResidues>
 VAL166  LYS551  ARG553  GLY616  TRP617  ASP618  TYR619  PRO620  LYS621  CYS622 
 ASP623  PHE694  ASN695  SER759  ASP760  ASP761  ALA762  ILE779  LEU786  VAL792 
 PHE793  MET794  SER795  GLU796  ALA797  LYS798  CYS799  TRP800  GLU811  SER814 

> <Gold.Protein.RotatedAtoms>
  151.7839  133.3352  159.3479 H   0  0  0  0  0  0  0  0  0  0  0  0  # atno 6907 bound_to 6896
  150.7416  134.5905  159.5994 H   0  0  0  0  0  0  0  0  0  0  0  0  # atno 6908 bound_to 6896
  152.3257  134.7325  160.0354 H   0  0  0  0  0  0  0  0  0  0  0  0  # atno 6909 bound_to 6896
  144.7450  140.3628  143.6092 H   0  0  0  0  0  0  0  0  0  0  0  0  # atno 7974 bound_to 7965
  155.9608  140.1144  157.0897 H   0  0  0  0  0  0  0  0  0  0  0  0  # atno 8008 bound_to 7997
  154.4131  140.1182  156.5244 H   0  0  0  0  0  0  0  0  0  0  0  0  # atno 8009 bound_to 7997
  155.6722  140.3473  155.4825 H   0  0  0  0  0  0  0  0  0  0  0  0  # atno 8010 bound_to 7997
  139.4953  144.3882  151.9547 H   0  0  0  0  0  0  0  0  0  0  0  0  # atno 10167 bound_to 10162
  156.3571  130.4317  149.7655 H   0  0  0  0  0  0  0  0  0  0  0  0  # atno 10718 bound_to 10713
  153.6631  135.3343  155.3132 H   0  0  0  0  0  0  0  0  0  0  0  0  # atno 10763 bound_to 10752
  154.8510  135.4368  154.1783 H   0  0  0  0  0  0  0  0  0  0  0  0  # atno 10764 bound_to 10752
  153.2755  135.7004  153.7513 H   0  0  0  0  0  0  0  0  0  0  0  0  # atno 10765 bound_to 10752
  140.8157  133.8107  155.9608 H   0  0  0  0  0  0  0  0  0  0  0  0  # atno 11005 bound_to 11000
  145.7159  139.1697  143.2512 LP  0  0  0  0  0  0  0  0  0  0  0  0  # atno 17320 bound_to 7965
  146.1313  140.7182  142.9411 LP  0  0  0  0  0  0  0  0  0  0  0  0  # atno 17321 bound_to 7965
  140.3319  144.3306  150.5985 LP  0  0  0  0  0  0  0  0  0  0  0  0  # atno 17342 bound_to 10162
  140.5638  143.2189  151.7719 LP  0  0  0  0  0  0  0  0  0  0  0  0  # atno 17343 bound_to 10162
  156.4833  130.8051  151.3064 LP  0  0  0  0  0  0  0  0  0  0  0  0  # atno 17370 bound_to 10713
  157.7469  130.9998  150.2905 LP  0  0  0  0  0  0  0  0  0  0  0  0  # atno 17371 bound_to 10713
  140.9152  134.2211  157.4961 LP  0  0  0  0  0  0  0  0  0  0  0  0  # atno 17394 bound_to 11000
  139.8711  134.9768  156.4934 LP  0  0  0  0  0  0  0  0  0  0  0  0  # atno 17395 bound_to 11000

$$$$
