AV-unprocessed.smi:529|AV-procd|sdf|2841|dock4
  -GOLD-   2262023333D 1   1.00000     0.00000
 Structure written by MMmdl.
 30 31  0  0  0  0  0  0  0  0  1 V2000
  148.7061  139.8728  154.5426 N   0  0  0  0  0  0  0  0  0  0  0  0
  149.9355  139.5682  154.7693 C   0  0  0  0  0  0  0  0  0  0  0  0
  150.9436  138.3507  153.8524 S   0  0  0  0  0  0  0  0  0  0  0  0
  152.3102  138.7197  154.8826 C   0  0  0  0  0  0  0  0  0  0  0  0
  152.0160  139.6436  155.7957 C   0  0  0  0  0  0  0  0  0  0  0  0
  150.7252  140.1313  155.7742 N   0  0  0  0  0  0  0  0  0  0  0  0
  150.2698  141.1883  156.6779 C   0  0  0  0  0  0  0  0  0  0  0  0
  151.3548  141.6615  157.6546 C   0  0  0  0  0  0  0  0  0  0  0  0
  152.0167  140.8549  158.3099 O   0  0  0  0  0  0  0  0  0  0  0  0
  151.5126  142.9900  157.7530 N   0  0  0  0  0  0  0  0  0  0  0  0
  152.4855  143.6582  158.6129 C   0  0  0  0  0  0  0  0  0  0  0  0
  152.3298  143.2423  160.0911 C   0  0  0  0  0  0  0  0  0  0  0  0
  152.2823  144.5425  160.8955 C   0  0  0  0  0  0  0  0  0  0  0  0
  151.6838  145.5610  159.9310 C   0  0  0  0  0  0  0  0  0  0  0  0
  152.2810  145.1838  158.5751 C   0  0  0  0  0  0  0  0  0  0  0  0
  148.3504  139.3334  153.7663 H   0  0  0  0  0  0  0  0  0  0  0  0
  153.2622  138.2279  154.7480 H   0  0  0  0  0  0  0  0  0  0  0  0
  152.6865  140.0436  156.5423 H   0  0  0  0  0  0  0  0  0  0  0  0
  149.8992  142.0392  156.1037 H   0  0  0  0  0  0  0  0  0  0  0  0
  149.4204  140.8257  157.2581 H   0  0  0  0  0  0  0  0  0  0  0  0
  150.9244  143.5812  157.1838 H   0  0  0  0  0  0  0  0  0  0  0  0
  153.4930  143.4292  158.2600 H   0  0  0  0  0  0  0  0  0  0  0  0
  151.3965  142.6975  160.2430 H   0  0  0  0  0  0  0  0  0  0  0  0
  153.1386  142.5895  160.4207 H   0  0  0  0  0  0  0  0  0  0  0  0
  151.7071  144.4456  161.8166 H   0  0  0  0  0  0  0  0  0  0  0  0
  153.2952  144.8447  161.1652 H   0  0  0  0  0  0  0  0  0  0  0  0
  150.5997  145.4451  159.9006 H   0  0  0  0  0  0  0  0  0  0  0  0
  151.9025  146.5905  160.2154 H   0  0  0  0  0  0  0  0  0  0  0  0
  153.2500  145.6722  158.4634 H   0  0  0  0  0  0  0  0  0  0  0  0
  151.6579  145.5186  157.7446 H   0  0  0  0  0  0  0  0  0  0  0  0
  1  2  2  0  0  0  0
  1 16  1  0  0  0  0
  2  6  1  0  0  0  0
  2  3  1  0  0  0  0
  3  4  1  0  0  0  0
  4  5  2  0  0  0  0
  4 17  1  0  0  0  0
  5  6  1  0  0  0  0
  5 18  1  0  0  0  0
  6  7  1  0  0  0  0
  7  8  1  0  0  0  0
  7 19  1  0  0  0  0
  7 20  1  0  0  0  0
  8  9  2  0  0  0  0
  8 10  1  0  0  0  0
 10 11  1  0  0  0  0
 10 21  1  0  0  0  0
 11 15  1  0  0  0  0
 11 12  1  0  0  0  0
 11 22  1  0  0  0  0
 12 13  1  0  0  0  0
 12 23  1  0  0  0  0
 12 24  1  0  0  0  0
 13 14  1  0  0  0  0
 13 25  1  0  0  0  0
 13 26  1  0  0  0  0
 14 15  1  0  0  0  0
 14 27  1  0  0  0  0
 14 28  1  0  0  0  0
 15 29  1  0  0  0  0
 15 30  1  0  0  0  0
M  END
> <s_m_source_file>
AV-unprocessed.smi

> <i_m_source_file_index>
529

> <i_lp_mmshare_version>
43012

> <i_f3d_flags>
0

> <s_epik_input>
W0hdL049YzFcc1tjSF1bY0hdbjFbQ0gyXUMoPU8pW05IXVtDSF0yW0NIMl1bQ0gyXVtDSDJdW0NIMl0y

> <s_epik_cmdline>
J2VwaWtfcHl0aG9uJywgJy1waCcsICc3LjAnLCAnLXRuJywgJzgnLCAnLW1hJywgJzIwMCcsICctbWV0YWxfYmluZGluZycsICctaW1hZScsICc8aW5maWxlLm1hZT4nLCAnLW9tYWUnLCAnPG91dGZpbGUubWFlPic=

> <r_epik_Ionization_Penalty>
2.18041

> <r_epik_Ionization_Penalty_Charging>
2.18041

> <r_epik_Ionization_Penalty_Neutral>
1.25369e-07

> <r_epik_State_Penalty>
2.33404

> <r_epik_Charging_Adjusted_Penalty>
4.51444

> <i_epik_Tot_Q>
0

> <i_epik_Tot_abs_Q>
0

> <r_epik_Metal_State_Penalty>
2.33404

> <b_epik_Metal_Only>
0

> <s_lp_Force_Field>
OPLS_2005

> <r_lp_Energy>
18.55

> <b_lp_Chiralities_Consistent>
1

> <s_lp_Variant>
AV-unprocessed.smi:529-3

> <Gold.Version>
5.8.1

> <Gold.Id.Protein>
6NUR|6NUR_protein|mol2

> <Gold.PLP.Fitness>
38.9701

> <Gold.PLP.PLP>
-39.2547

> <Gold.PLP.part.hbond>
0.0000

> <Gold.PLP.part.metal>
0.0000

> <Gold.PLP.part.buried>
-6.1520

> <Gold.PLP.part.nonpolar>
-33.9408

> <Gold.PLP.part.repulsive>
0.0220

> <Gold.PLP.ligand.clash>
0.0000

> <Gold.PLP.ligand.torsion>
0.1477

> <Gold.PLP.Chemscore.Hbond>
0.0000

> <Gold.PLP.Chemscore.CHOScore>
0.0000

> <Gold.PLP.Chemscore.Metal>
0.0000

> <Gold.PLP.Chemscore.Internal.Correction>
0.0108

> <Gold.Rescore>
     Score         DG    S(hbond)    S(metal)    S(lipo)     H(rot)  DE(clash)    DE(int)     intcor
     10.95     -12.51       0.00        0.00      94.32       1.56       0.10       1.46       ----

> <Gold.Chemscore.Fitness>
10.9473

> <Gold.Chemscore.DG>
-12.5124

> <Gold.Chemscore.ZeroCoef>
-5.4800

> <Gold.Chemscore.Hbond>
0.0000

> <Gold.Chemscore.Metal>
0.0000

> <Gold.Chemscore.Lipo>
94.3161

> <Gold.Chemscore.Internal_Hbond>
0.0000

> <Gold.Chemscore.DEClash>
0.1007

> <Gold.Chemscore.DEInternal>
1.4644

> <Gold.Chemscore.Rot>
1.5635

> <Gold.Chemscore.Internal.Correction>
   9.000000E+99

> <Gold.Chemscore.Hbond.Weighted>
-0.0000

> <Gold.Chemscore.Metal.Weighted>
-0.0000

> <Gold.Chemscore.Lipo.Weighted>
-11.0350

> <Gold.Chemscore.Internal_Hbond.Weighted>
0.0000

> <Gold.Chemscore.DEClash.Weighted>
0.1007

> <Gold.Chemscore.DEInternal.Weighted>
1.4644

> <Gold.Chemscore.Rot.Weighted>
4.0025

> <Gold.Chemscore.Internal.Correction.Weighted>
   9.000000E+99

> <Gold.Protein.RotatedTorsions>
[ 6907 6896 6895 6894 ] final   45.81 input  -60.11 | X-H torsion
[ 7974 7965 7964 7962 ] final  147.32 input  175.53 | X-H torsion
[ 8008 7997 7996 7995 ] final  151.89 input   59.86 | X-H torsion
[ 10167 10162 10161 10158 ] final  -50.08 input  -65.29 | X-H torsion
[ 10718 10713 10712 10709 ] final  -44.75 input   66.30 | X-H torsion
[ 10763 10752 10751 10750 ] final   15.40 input  -60.55 | X-H torsion
[ 11005 11000 10999 10996 ] final   36.26 input  -57.11 | X-H torsion

> <Gold.Protein.ActiveResidues>
 VAL166  LYS551  ARG553  GLY616  TRP617  ASP618  TYR619  PRO620  LYS621  CYS622 
 ASP623  PHE694  ASN695  SER759  ASP760  ASP761  ALA762  ILE779  LEU786  VAL792 
 PHE793  MET794  SER795  GLU796  ALA797  LYS798  CYS799  TRP800  GLU811  SER814 

> <Gold.Protein.RotatedAtoms>
  152.2489  134.8152  160.0448 H   0  0  0  0  0  0  0  0  0  0  0  0  # atno 6907 bound_to 6896
  151.8840  133.3496  159.3784 H   0  0  0  0  0  0  0  0  0  0  0  0  # atno 6908 bound_to 6896
  150.7077  134.4917  159.5563 H   0  0  0  0  0  0  0  0  0  0  0  0  # atno 6909 bound_to 6896
  144.8601  139.6014  143.5934 H   0  0  0  0  0  0  0  0  0  0  0  0  # atno 7974 bound_to 7965
  156.2654  140.2035  156.6247 H   0  0  0  0  0  0  0  0  0  0  0  0  # atno 8008 bound_to 7997
  154.6730  140.0548  157.0209 H   0  0  0  0  0  0  0  0  0  0  0  0  # atno 8009 bound_to 7997
  155.1110  140.3215  155.4524 H   0  0  0  0  0  0  0  0  0  0  0  0  # atno 8010 bound_to 7997
  140.6655  143.2672  151.4308 H   0  0  0  0  0  0  0  0  0  0  0  0  # atno 10167 bound_to 10162
  156.2354  130.4175  149.8824 H   0  0  0  0  0  0  0  0  0  0  0  0  # atno 10718 bound_to 10713
  153.1529  135.6782  153.8855 H   0  0  0  0  0  0  0  0  0  0  0  0  # atno 10763 bound_to 10752
  153.8276  135.3122  155.3417 H   0  0  0  0  0  0  0  0  0  0  0  0  # atno 10764 bound_to 10752
  154.7876  135.4853  154.0066 H   0  0  0  0  0  0  0  0  0  0  0  0  # atno 10765 bound_to 10752
  140.2344  134.3489  155.7951 H   0  0  0  0  0  0  0  0  0  0  0  0  # atno 11005 bound_to 11000
  146.2854  139.6989  142.9199 LP  0  0  0  0  0  0  0  0  0  0  0  0  # atno 17320 bound_to 7965
  145.4329  141.0416  143.2900 LP  0  0  0  0  0  0  0  0  0  0  0  0  # atno 17321 bound_to 7965
  139.5902  144.1516  152.2079 LP  0  0  0  0  0  0  0  0  0  0  0  0  # atno 17342 bound_to 10162
  140.0868  144.5654  150.7083 LP  0  0  0  0  0  0  0  0  0  0  0  0  # atno 17343 bound_to 10162
  156.6424  130.8710  151.3516 LP  0  0  0  0  0  0  0  0  0  0  0  0  # atno 17370 bound_to 10713
  157.7152  130.9488  150.1229 LP  0  0  0  0  0  0  0  0  0  0  0  0  # atno 17371 bound_to 10713
  141.2215  133.7263  156.8783 LP  0  0  0  0  0  0  0  0  0  0  0  0  # atno 17394 bound_to 11000
  140.1717  134.9095  157.2842 LP  0  0  0  0  0  0  0  0  0  0  0  0  # atno 17395 bound_to 11000

$$$$
