AV-unprocessed.smi:937|AV-procd|sdf|4216|dock3
  -GOLD-   22720 2123D 1   1.00000     0.00000
 Structure written by MMmdl.
 46 47  0  0  0  0  0  0  0  0  2 V2000
  151.6525  143.7690  158.4489 C   0  0  0  0  0  0  0  0  0  0  0  0
  151.3463  142.5628  157.5867 C   0  0  0  0  0  0  0  0  0  0  0  0
  151.9537  141.3069  157.8017 C   0  0  0  0  0  0  0  0  0  0  0  0
  151.6237  140.2283  156.9546 C   0  0  0  0  0  0  0  0  0  0  0  0
  150.6929  140.4266  155.9112 C   0  0  0  0  0  0  0  0  0  0  0  0
  150.3247  139.2924  154.9745 C   0  0  0  0  0  0  0  0  0  0  0  0
  149.2587  139.7133  153.9544 C   0  0  0  0  0  0  0  0  0  0  0  0
  148.5559  138.5492  153.4335 N   0  0  0  0  0  0  0  0  0  0  0  0
  147.3952  138.0806  153.9196 C   0  0  0  0  0  0  0  0  0  0  0  0
  146.7975  138.6007  154.8595 O   0  0  0  0  0  0  0  0  0  0  0  0
  146.9296  136.9778  153.3061 N   0  0  0  0  0  0  0  0  0  0  0  0
  145.7051  136.2211  153.5870 C   0  0  1  0  0  0  0  0  0  0  0  0
  144.5030  136.7505  152.7747 C   0  0  0  0  0  0  0  0  0  0  0  0
  144.6403  136.4459  151.2745 C   0  0  0  0  0  0  0  0  0  0  0  0
  144.8512  134.9442  151.0276 C   0  0  0  0  0  0  0  0  0  0  0  0
  146.0744  134.4056  151.7989 C   0  0  2  0  0  0  0  0  0  0  0  0
  146.3012  132.9008  151.5455 C   0  0  0  0  0  0  0  0  0  0  0  0
  147.3945  132.4719  152.1770 F   0  0  0  0  0  0  0  0  0  0  0  0
  145.2519  132.2011  151.9773 F   0  0  0  0  0  0  0  0  0  0  0  0
  146.4417  132.6750  150.2390 F   0  0  0  0  0  0  0  0  0  0  0  0
  145.9360  134.7223  153.3064 C   0  0  0  0  0  0  0  0  0  0  0  0
  150.1164  141.7041  155.7456 C   0  0  0  0  0  0  0  0  0  0  0  0
  150.4595  142.7118  156.5773 N   0  3  0  0  0  0  0  0  0  0  0  0
  152.3729  143.5223  159.2294 H   0  0  0  0  0  0  0  0  0  0  0  0
  150.7440  144.1355  158.9275 H   0  0  0  0  0  0  0  0  0  0  0  0
  152.0708  144.5724  157.8418 H   0  0  0  0  0  0  0  0  0  0  0  0
  152.6657  141.1693  158.6027 H   0  0  0  0  0  0  0  0  0  0  0  0
  152.0838  139.2623  157.1045 H   0  0  0  0  0  0  0  0  0  0  0  0
  151.2216  138.9451  154.4593 H   0  0  0  0  0  0  0  0  0  0  0  0
  149.9641  138.4505  155.5672 H   0  0  0  0  0  0  0  0  0  0  0  0
  148.5481  140.3952  154.4249 H   0  0  0  0  0  0  0  0  0  0  0  0
  149.7192  140.2500  153.1237 H   0  0  0  0  0  0  0  0  0  0  0  0
  148.9805  138.0600  152.6589 H   0  0  0  0  0  0  0  0  0  0  0  0
  147.5098  136.6031  152.5694 H   0  0  0  0  0  0  0  0  0  0  0  0
  145.4795  136.3193  154.6501 H   0  0  0  0  0  0  0  0  0  0  0  0
  143.5906  136.2834  153.1479 H   0  0  0  0  0  0  0  0  0  0  0  0
  144.3721  137.8223  152.9256 H   0  0  0  0  0  0  0  0  0  0  0  0
  143.7491  136.7853  150.7459 H   0  0  0  0  0  0  0  0  0  0  0  0
  145.4765  137.0086  150.8574 H   0  0  0  0  0  0  0  0  0  0  0  0
  143.9556  134.3983  151.3267 H   0  0  0  0  0  0  0  0  0  0  0  0
  144.9748  134.7692  149.9586 H   0  0  0  0  0  0  0  0  0  0  0  0
  146.9557  134.9293  151.4252 H   0  0  0  0  0  0  0  0  0  0  0  0
  146.8204  134.3804  153.8454 H   0  0  0  0  0  0  0  0  0  0  0  0
  145.0990  134.1549  153.7154 H   0  0  0  0  0  0  0  0  0  0  0  0
  149.4002  141.9507  154.9753 H   0  0  0  0  0  0  0  0  0  0  0  0
  150.0318  143.6271  156.4353 H   0  0  0  0  0  0  0  0  0  0  0  0
  1  2  1  0  0  0  0
  1 24  1  0  0  0  0
  1 25  1  0  0  0  0
  1 26  1  0  0  0  0
  2 23  1  0  0  0  0
  2  3  2  0  0  0  0
  3  4  1  0  0  0  0
  3 27  1  0  0  0  0
  4  5  2  0  0  0  0
  4 28  1  0  0  0  0
  5  6  1  0  0  0  0
  5 22  1  0  0  0  0
  6  7  1  0  0  0  0
  6 29  1  0  0  0  0
  6 30  1  0  0  0  0
  7  8  1  0  0  0  0
  7 31  1  0  0  0  0
  7 32  1  0  0  0  0
  8  9  1  0  0  0  0
  8 33  1  0  0  0  0
  9 10  2  0  0  0  0
  9 11  1  0  0  0  0
 11 12  1  0  0  0  0
 11 34  1  0  0  0  0
 12 21  1  0  0  0  0
 12 13  1  0  0  0  0
 12 35  1  0  0  0  0
 13 14  1  0  0  0  0
 13 36  1  0  0  0  0
 13 37  1  0  0  0  0
 14 15  1  0  0  0  0
 14 38  1  0  0  0  0
 14 39  1  0  0  0  0
 15 16  1  0  0  0  0
 15 40  1  0  0  0  0
 15 41  1  0  0  0  0
 16 17  1  0  0  0  0
 16 21  1  0  0  0  0
 16 42  1  0  0  0  0
 17 18  1  0  0  0  0
 17 19  1  0  0  0  0
 17 20  1  0  0  0  0
 21 43  1  0  0  0  0
 21 44  1  0  0  0  0
 22 23  2  0  0  0  0
 22 45  1  0  0  0  0
 23 46  1  0  0  0  0
M  CHG  1  23   1
M  END
> <s_m_source_file>
AV-unprocessed.smi

> <i_m_source_file_index>
937

> <i_lp_mmshare_version>
43012

> <i_f3d_flags>
0

> <s_epik_input>
W0NIM11jMVtjSF1bY0hdYyhbY0hdbjEpW0NIMl1bQ0gyXVtOSF1DKD1PKVtOSF1bQ0BASF0yW0NIMl1bQ0gyXVtDSDJdW0NAQEhdKEMoRikoRilGKVtDSDJdMg==

> <s_epik_cmdline>
J2VwaWtfcHl0aG9uJywgJy1waCcsICc3LjAnLCAnLXRuJywgJzgnLCAnLW1hJywgJzIwMCcsICctbWV0YWxfYmluZGluZycsICctaW1hZScsICc8aW5maWxlLm1hZT4nLCAnLW9tYWUnLCAnPG91dGZpbGUubWFlPic=

> <r_epik_Ionization_Penalty>
1.4226

> <r_epik_Ionization_Penalty_Charging>
1.42255

> <r_epik_Ionization_Penalty_Neutral>
5.16456e-05

> <r_epik_State_Penalty>
1.50646

> <r_epik_Charging_Adjusted_Penalty>
2.92901

> <i_epik_Tot_Q>
1

> <i_epik_Tot_abs_Q>
1

> <r_epik_Metal_State_Penalty>
1.55846

> <b_epik_Metal_Only>
0

> <s_lp_Force_Field>
OPLS_2005

> <r_lp_Energy>
25.1059

> <b_lp_Chiralities_Consistent>
1

> <s_lp_Variant>
AV-unprocessed.smi:937-8

> <Gold.Version>
5.8.1

> <Gold.Id.Protein>
6NUR|6NUR_protein|mol2

> <Gold.PLP.Fitness>
47.8015

> <Gold.PLP.PLP>
-37.5524

> <Gold.PLP.part.hbond>
-4.0000

> <Gold.PLP.part.metal>
0.0000

> <Gold.PLP.part.buried>
2.5160

> <Gold.PLP.part.nonpolar>
-36.6165

> <Gold.PLP.part.repulsive>
0.2209

> <Gold.PLP.ligand.clash>
0.0000

> <Gold.PLP.ligand.torsion>
0.6715

> <Gold.PLP.Chemscore.Hbond>
3.8480

> <Gold.PLP.Chemscore.CHOScore>
0.0000

> <Gold.PLP.Chemscore.Metal>
0.0000

> <Gold.Chemscore.Hbonds>
donor molecule, donor type, donor heavy atom, donor atom, acceptor molecule, acceptor atom, score
      L1  H     8    33       P1  7948  0.80
      L1  H    11    34       P1  7948  1.00
      L1  H    23    46       P1  8028  2.00

> <Gold.PLP.Chemscore.Internal.Correction>
0.0482

> <Gold.Rescore>
     Score         DG    S(hbond)    S(metal)    S(lipo)     H(rot)  DE(clash)    DE(int)     intcor
     18.52     -21.82       2.89        0.00      93.54       1.66       2.63       0.67       ----

> <Gold.Chemscore.Fitness>
18.5199

> <Gold.Chemscore.DG>
-21.8198

> <Gold.Chemscore.ZeroCoef>
-5.4800

> <Gold.Chemscore.Hbond>
2.8868

> <Gold.Chemscore.Metal>
0.0000

> <Gold.Chemscore.Lipo>
93.5361

> <Gold.Chemscore.Internal_Hbond>
0.0000

> <Gold.Chemscore.DEClash>
2.6262

> <Gold.Chemscore.DEInternal>
0.6737

> <Gold.Chemscore.Rot>
1.6585

> <Gold.Chemscore.Internal.Correction>
   9.000000E+99

> <Gold.Chemscore.Hbonds>
donor molecule, donor type, donor heavy atom, donor atom, acceptor molecule, acceptor atom, score
      L1  H     8    33       P1  7948  0.78
      L1  H    11    34       P1  7948  0.98
      L1  H    23    46       P1  8028  0.98

> <Gold.Chemscore.Hbond.Weighted>
-9.6418

> <Gold.Chemscore.Metal.Weighted>
-0.0000

> <Gold.Chemscore.Lipo.Weighted>
-10.9437

> <Gold.Chemscore.Internal_Hbond.Weighted>
0.0000

> <Gold.Chemscore.DEClash.Weighted>
2.6262

> <Gold.Chemscore.DEInternal.Weighted>
0.6737

> <Gold.Chemscore.Rot.Weighted>
4.2457

> <Gold.Chemscore.Internal.Correction.Weighted>
   9.000000E+99

> <Gold.Protein.RotatedTorsions>
[ 6907 6896 6895 6894 ] final   71.22 input  -60.11 | X-H torsion
[ 7974 7965 7964 7962 ] final  -12.69 input  175.53 | X-H torsion
[ 8008 7997 7996 7995 ] final -112.34 input   59.86 | X-H torsion
[ 10167 10162 10161 10158 ] final  -21.58 input  -65.29 | X-H torsion
[ 10718 10713 10712 10709 ] final   20.39 input   66.30 | X-H torsion
[ 10763 10752 10751 10750 ] final   60.34 input  -60.55 | X-H torsion
[ 11005 11000 10999 10996 ] final   84.34 input  -57.11 | X-H torsion

> <Gold.Protein.ActiveResidues>
 VAL166  LYS551  ARG553  GLY616  TRP617  ASP618  TYR619  PRO620  LYS621  CYS622 
 ASP623  PHE694  ASN695  SER759  ASP760  ASP761  ALA762  ILE779  LEU786  VAL792 
 PHE793  MET794  SER795  GLU796  ALA797  LYS798  CYS799  TRP800  GLU811  SER814 

> <Gold.Protein.RotatedAtoms>
  152.4797  134.4752  159.9647 H   0  0  0  0  0  0  0  0  0  0  0  0  # atno 6907 bound_to 6896
  151.4760  133.3551  159.2838 H   0  0  0  0  0  0  0  0  0  0  0  0  # atno 6908 bound_to 6896
  150.8860  134.8284  159.7320 H   0  0  0  0  0  0  0  0  0  0  0  0  # atno 6909 bound_to 6896
  146.2142  140.3094  142.8381 H   0  0  0  0  0  0  0  0  0  0  0  0  # atno 7974 bound_to 7965
  155.0037  140.0394  157.2371 H   0  0  0  0  0  0  0  0  0  0  0  0  # atno 8008 bound_to 7997
  154.7521  140.2769  155.6261 H   0  0  0  0  0  0  0  0  0  0  0  0  # atno 8009 bound_to 7997
  156.2887  140.2645  156.2277 H   0  0  0  0  0  0  0  0  0  0  0  0  # atno 8010 bound_to 7997
  140.7282  143.4615  151.0374 H   0  0  0  0  0  0  0  0  0  0  0  0  # atno 10167 bound_to 10162
  157.1239  130.6561  149.5932 H   0  0  0  0  0  0  0  0  0  0  0  0  # atno 10718 bound_to 10713
  152.9918  135.5540  154.5858 H   0  0  0  0  0  0  0  0  0  0  0  0  # atno 10763 bound_to 10752
  154.5230  135.2809  155.1248 H   0  0  0  0  0  0  0  0  0  0  0  0  # atno 10764 bound_to 10752
  154.2594  135.6384  153.5322 H   0  0  0  0  0  0  0  0  0  0  0  0  # atno 10765 bound_to 10752
  139.9003  134.8209  156.2432 H   0  0  0  0  0  0  0  0  0  0  0  0  # atno 11005 bound_to 11000
  144.8999  140.7629  143.5873 LP  0  0  0  0  0  0  0  0  0  0  0  0  # atno 17320 bound_to 7965
  145.3020  139.1847  143.4684 LP  0  0  0  0  0  0  0  0  0  0  0  0  # atno 17321 bound_to 7965
  139.8299  143.7705  152.3179 LP  0  0  0  0  0  0  0  0  0  0  0  0  # atno 17342 bound_to 10162
  139.7817  144.7442  151.0079 LP  0  0  0  0  0  0  0  0  0  0  0  0  # atno 17343 bound_to 10162
  155.9822  130.4835  150.6871 LP  0  0  0  0  0  0  0  0  0  0  0  0  # atno 17370 bound_to 10713
  157.4452  131.0866  151.0902 LP  0  0  0  0  0  0  0  0  0  0  0  0  # atno 17371 bound_to 10713
  141.0271  133.7009  156.1367 LP  0  0  0  0  0  0  0  0  0  0  0  0  # atno 17394 bound_to 11000
  140.7150  134.4421  157.5579 LP  0  0  0  0  0  0  0  0  0  0  0  0  # atno 17395 bound_to 11000

$$$$
