AV-unprocessed.smi:532|AV-procd|sdf|2853|dock3
  -GOLD-   2262023343D 1   1.00000     0.00000
 Structure written by MMmdl.
 48 50  0  0  0  0  0  0  0  0  2 V2000
  151.2256  132.4555  156.9422 C   0  0  0  0  0  0  0  0  0  0  0  0
  150.3203  133.2697  157.6660 O   0  0  0  0  0  0  0  0  0  0  0  0
  149.0218  133.2705  157.0979 C   0  0  0  0  0  0  0  0  0  0  0  0
  148.2822  134.5367  157.5454 C   0  0  0  0  0  0  0  0  0  0  0  0
  149.2051  135.5429  158.0536 N   0  0  0  0  0  0  0  0  0  0  0  0
  149.2360  136.0850  159.2973 C   0  0  0  0  0  0  0  0  0  0  0  0
  148.3143  135.7142  160.2728 N   0  0  0  0  0  0  0  0  0  0  0  0
  147.9914  136.5689  161.4160 C   0  0  0  0  0  0  0  0  0  0  0  0
  146.5364  136.4216  161.9155 C   0  0  1  0  0  0  0  0  0  0  0  0
  145.5111  137.1178  161.0057 C   0  0  0  0  0  0  0  0  0  0  0  0
  146.1963  134.9431  162.1703 C   0  0  0  0  0  0  0  0  0  0  0  0
  146.5710  134.0700  160.9617 C   0  0  2  0  0  0  0  0  0  0  0  0
  146.3033  132.5845  161.2385 C   0  0  0  0  0  0  0  0  0  0  0  0
  148.0434  134.3134  160.5847 C   0  0  0  0  0  0  0  0  0  0  0  0
  150.2073  136.9775  159.4979 N   0  0  0  0  0  0  0  0  0  0  0  0
  150.8406  137.0174  158.2641 C   0  0  0  0  0  0  0  0  0  0  0  0
  150.2544  136.1697  157.3774 C   0  0  0  0  0  0  0  0  0  0  0  0
  150.7018  136.0024  155.9791 C   0  0  0  0  0  0  0  0  0  0  0  0
  150.1223  135.2323  155.2158 O   0  0  0  0  0  0  0  0  0  0  0  0
  151.7857  136.7897  155.6879 N   0  5  0  0  0  0  0  0  0  0  0  0
  152.4138  137.6599  156.5545 C   0  0  0  0  0  0  0  0  0  0  0  0
  153.3841  138.3309  156.2022 O   0  0  0  0  0  0  0  0  0  0  0  0
  151.9547  137.7890  157.8412 N   0  0  0  0  0  0  0  0  0  0  0  0
  152.5627  138.6931  158.8221 C   0  0  0  0  0  0  0  0  0  0  0  0
  152.2071  132.4879  157.4147 H   0  0  0  0  0  0  0  0  0  0  0  0
  151.3348  132.8051  155.9147 H   0  0  0  0  0  0  0  0  0  0  0  0
  150.8946  131.4163  156.9260 H   0  0  0  0  0  0  0  0  0  0  0  0
  149.0860  133.2347  156.0096 H   0  0  0  0  0  0  0  0  0  0  0  0
  148.4750  132.3837  157.4200 H   0  0  0  0  0  0  0  0  0  0  0  0
  147.7147  134.9612  156.7186 H   0  0  0  0  0  0  0  0  0  0  0  0
  147.5431  134.3032  158.3109 H   0  0  0  0  0  0  0  0  0  0  0  0
  148.6797  136.3196  162.2246 H   0  0  0  0  0  0  0  0  0  0  0  0
  148.1929  137.6092  161.1581 H   0  0  0  0  0  0  0  0  0  0  0  0
  146.4768  136.9353  162.8758 H   0  0  0  0  0  0  0  0  0  0  0  0
  145.4772  136.6743  160.0127 H   0  0  0  0  0  0  0  0  0  0  0  0
  145.7446  138.1762  160.8906 H   0  0  0  0  0  0  0  0  0  0  0  0
  144.5078  137.0512  161.4266 H   0  0  0  0  0  0  0  0  0  0  0  0
  146.7496  134.5983  163.0452 H   0  0  0  0  0  0  0  0  0  0  0  0
  145.1392  134.8304  162.4139 H   0  0  0  0  0  0  0  0  0  0  0  0
  145.9498  134.3609  160.1137 H   0  0  0  0  0  0  0  0  0  0  0  0
  146.9074  132.2202  162.0701 H   0  0  0  0  0  0  0  0  0  0  0  0
  146.5367  131.9752  160.3649 H   0  0  0  0  0  0  0  0  0  0  0  0
  145.2556  132.4145  161.4878 H   0  0  0  0  0  0  0  0  0  0  0  0
  148.3055  133.7041  159.7186 H   0  0  0  0  0  0  0  0  0  0  0  0
  148.7008  133.9977  161.3960 H   0  0  0  0  0  0  0  0  0  0  0  0
  153.4188  139.2553  158.4485 H   0  0  0  0  0  0  0  0  0  0  0  0
  152.9019  138.1246  159.6886 H   0  0  0  0  0  0  0  0  0  0  0  0
  151.8236  139.4175  159.1653 H   0  0  0  0  0  0  0  0  0  0  0  0
  1  2  1  0  0  0  0
  1 25  1  0  0  0  0
  1 26  1  0  0  0  0
  1 27  1  0  0  0  0
  2  3  1  0  0  0  0
  3  4  1  0  0  0  0
  3 28  1  0  0  0  0
  3 29  1  0  0  0  0
  4  5  1  0  0  0  0
  4 30  1  0  0  0  0
  4 31  1  0  0  0  0
  5 17  1  0  0  0  0
  5  6  1  0  0  0  0
  6  7  1  0  0  0  0
  6 15  2  0  0  0  0
  7 14  1  0  0  0  0
  7  8  1  0  0  0  0
  8  9  1  0  0  0  0
  8 32  1  0  0  0  0
  8 33  1  0  0  0  0
  9 10  1  0  0  0  0
  9 11  1  0  0  0  0
  9 34  1  0  0  0  0
 10 35  1  0  0  0  0
 10 36  1  0  0  0  0
 10 37  1  0  0  0  0
 11 12  1  0  0  0  0
 11 38  1  0  0  0  0
 11 39  1  0  0  0  0
 12 13  1  0  0  0  0
 12 14  1  0  0  0  0
 12 40  1  0  0  0  0
 13 41  1  0  0  0  0
 13 42  1  0  0  0  0
 13 43  1  0  0  0  0
 14 44  1  0  0  0  0
 14 45  1  0  0  0  0
 15 16  1  0  0  0  0
 16 23  1  0  0  0  0
 16 17  2  0  0  0  0
 17 18  1  0  0  0  0
 18 19  2  0  0  0  0
 18 20  1  0  0  0  0
 20 21  1  0  0  0  0
 21 22  2  0  0  0  0
 21 23  1  0  0  0  0
 23 24  1  0  0  0  0
 24 46  1  0  0  0  0
 24 47  1  0  0  0  0
 24 48  1  0  0  0  0
M  CHG  1  20  -1
M  END
> <s_m_source_file>
AV-unprocessed.smi

> <i_m_source_file_index>
532

> <i_lp_mmshare_version>
43012

> <i_f3d_flags>
0

> <s_epik_input>
W0NIM11uMWMoPU8pW25IXWMoPU8pYyhjMTIpbihbQ0gyXVtDSDJdT1tDSDNdKWMobjIpTjNbQ0gyXVtDQEBIXShbQ0gzXSlbQ0gyXVtDQEBIXShbQ0gzXSlbQ0gyXTM=

> <s_epik_cmdline>
J2VwaWtfcHl0aG9uJywgJy1waCcsICc3LjAnLCAnLXRuJywgJzgnLCAnLW1hJywgJzIwMCcsICctbWV0YWxfYmluZGluZycsICctaW1hZScsICc8aW5maWxlLm1hZT4nLCAnLW9tYWUnLCAnPG91dGZpbGUubWFlPic=

> <r_lp_tautomer_probability>
1

> <r_epik_Ionization_Penalty>
5.12128

> <r_epik_Ionization_Penalty_Charging>
0.0789629

> <r_epik_Ionization_Penalty_Neutral>
5.04232

> <r_epik_State_Penalty>
5.03111

> <r_epik_Charging_Adjusted_Penalty>
5.11007

> <i_epik_Tot_Q>
-1

> <i_epik_Tot_abs_Q>
1

> <r_epik_Metal_State_Penalty>
1.14201

> <b_epik_Metal_Only>
1

> <s_lp_Force_Field>
OPLS_2005

> <r_lp_Energy>
48.0239

> <b_lp_Chiralities_Consistent>
1

> <s_lp_Variant>
AV-unprocessed.smi:532-6

> <Gold.Version>
5.8.1

> <Gold.Id.Protein>
6NUR|6NUR_protein|mol2

> <Gold.PLP.Fitness>
37.2959

> <Gold.PLP.PLP>
-27.0525

> <Gold.PLP.part.hbond>
-3.6347

> <Gold.PLP.part.metal>
0.0000

> <Gold.PLP.part.buried>
-2.4308

> <Gold.PLP.part.nonpolar>
-21.0371

> <Gold.PLP.part.repulsive>
0.1866

> <Gold.PLP.ligand.clash>
0.0000

> <Gold.PLP.ligand.torsion>
0.9706

> <Gold.PLP.Chemscore.Hbond>
3.7585

> <Gold.PLP.Chemscore.CHOScore>
0.0000

> <Gold.PLP.Chemscore.Metal>
0.0000

> <Gold.Chemscore.Hbonds>
donor molecule, donor type, donor heavy atom, donor atom, acceptor molecule, acceptor atom, score
      P1  H  6896  6907       L1     2  0.96
      P1  H  7997  8010       L1    22  0.83
      P1  H 10752 10764       L1    20  2.00

> <Gold.PLP.Chemscore.Internal.Correction>
0.9090

> <Gold.Rescore>
     Score         DG    S(hbond)    S(metal)    S(lipo)     H(rot)  DE(clash)    DE(int)     intcor
     10.88     -15.41       1.76        0.00      65.42       1.41       0.98       3.55       ----

> <Gold.Chemscore.Fitness>
10.8791

> <Gold.Chemscore.DG>
-15.4074

> <Gold.Chemscore.ZeroCoef>
-5.4800

> <Gold.Chemscore.Hbond>
1.7648

> <Gold.Chemscore.Metal>
0.0000

> <Gold.Chemscore.Lipo>
65.4240

> <Gold.Chemscore.Internal_Hbond>
0.0000

> <Gold.Chemscore.DEClash>
0.9779

> <Gold.Chemscore.DEInternal>
3.5504

> <Gold.Chemscore.Rot>
1.4147

> <Gold.Chemscore.Internal.Correction>
   9.000000E+99

> <Gold.Chemscore.Hbonds>
donor molecule, donor type, donor heavy atom, donor atom, acceptor molecule, acceptor atom, score
      P1  H  6896  6907       L1     2  0.32
      P1  H  7997  8010       L1    22  0.79
      P1  H 10752 10764       L1    20  0.36

> <Gold.Chemscore.Hbond.Weighted>
-5.8944

> <Gold.Chemscore.Metal.Weighted>
-0.0000

> <Gold.Chemscore.Lipo.Weighted>
-7.6546

> <Gold.Chemscore.Internal_Hbond.Weighted>
0.0000

> <Gold.Chemscore.DEClash.Weighted>
0.9779

> <Gold.Chemscore.DEInternal.Weighted>
3.5504

> <Gold.Chemscore.Rot.Weighted>
3.6216

> <Gold.Chemscore.Internal.Correction.Weighted>
   9.000000E+99

> <Gold.Protein.RotatedTorsions>
[ 6907 6896 6895 6894 ] final -149.74 input  -60.11 | X-H torsion
[ 7974 7965 7964 7962 ] final  -24.05 input  175.53 | X-H torsion
[ 8008 7997 7996 7995 ] final   76.92 input   59.86 | X-H torsion
[ 10167 10162 10161 10158 ] final    4.93 input  -65.29 | X-H torsion
[ 10718 10713 10712 10709 ] final  169.53 input   66.30 | X-H torsion
[ 10763 10752 10751 10750 ] final  -54.81 input  -60.55 | X-H torsion
[ 11005 11000 10999 10996 ] final  -66.37 input  -57.11 | X-H torsion

> <Gold.Protein.ActiveResidues>
 VAL166  LYS551  ARG553  GLY616  TRP617  ASP618  TYR619  PRO620  LYS621  CYS622 
 ASP623  PHE694  ASN695  SER759  ASP760  ASP761  ALA762  ILE779  LEU786  VAL792 
 PHE793  MET794  SER795  GLU796  ALA797  LYS798  CYS799  TRP800  GLU811  SER814 

> <Gold.Protein.RotatedAtoms>
  151.1885  133.4682  159.2594 H   0  0  0  0  0  0  0  0  0  0  0  0  # atno 6907 bound_to 6896
  151.1188  135.0067  159.8538 H   0  0  0  0  0  0  0  0  0  0  0  0  # atno 6908 bound_to 6896
  152.5455  134.1798  159.8684 H   0  0  0  0  0  0  0  0  0  0  0  0  # atno 6909 bound_to 6896
  146.1578  140.4700  142.8584 H   0  0  0  0  0  0  0  0  0  0  0  0  # atno 7974 bound_to 7965
  155.8343  140.3465  155.5591 H   0  0  0  0  0  0  0  0  0  0  0  0  # atno 8008 bound_to 7997
  155.8209  140.0912  157.1869 H   0  0  0  0  0  0  0  0  0  0  0  0  # atno 8009 bound_to 7997
  154.4004  140.1430  156.3486 H   0  0  0  0  0  0  0  0  0  0  0  0  # atno 8010 bound_to 7997
  140.6509  143.7547  150.7573 H   0  0  0  0  0  0  0  0  0  0  0  0  # atno 10167 bound_to 10162
  157.0213  131.0233  151.2773 H   0  0  0  0  0  0  0  0  0  0  0  0  # atno 10718 bound_to 10713
  154.1808  135.6443  153.5033 H   0  0  0  0  0  0  0  0  0  0  0  0  # atno 10763 bound_to 10752
  153.0060  135.5405  154.6516 H   0  0  0  0  0  0  0  0  0  0  0  0  # atno 10764 bound_to 10752
  154.5880  135.2931  155.0637 H   0  0  0  0  0  0  0  0  0  0  0  0  # atno 10765 bound_to 10752
  141.1480  133.6698  156.6128 H   0  0  0  0  0  0  0  0  0  0  0  0  # atno 11005 bound_to 11000
  144.7987  140.6171  143.6493 LP  0  0  0  0  0  0  0  0  0  0  0  0  # atno 17320 bound_to 7965
  145.4664  139.1507  143.3838 LP  0  0  0  0  0  0  0  0  0  0  0  0  # atno 17321 bound_to 7965
  140.1198  143.4623  152.2320 LP  0  0  0  0  0  0  0  0  0  0  0  0  # atno 17342 bound_to 10162
  139.5724  144.7470  151.3855 LP  0  0  0  0  0  0  0  0  0  0  0  0  # atno 17343 bound_to 10162
  157.5247  130.8020  149.7849 LP  0  0  0  0  0  0  0  0  0  0  0  0  # atno 17370 bound_to 10713
  156.0101  130.3837  150.2294 LP  0  0  0  0  0  0  0  0  0  0  0  0  # atno 17371 bound_to 10713
  140.3601  134.7695  157.4527 LP  0  0  0  0  0  0  0  0  0  0  0  0  # atno 17394 bound_to 11000
  140.0792  134.5755  155.8558 LP  0  0  0  0  0  0  0  0  0  0  0  0  # atno 17395 bound_to 11000

$$$$
