AV-unprocessed.smi:3124|AV-procd|sdf|11902|dock9
  -GOLD-   2272017283D 1   1.00000     0.00000
 Structure written by MMmdl.
 24 24  0  0  0  0  0  0  0  0  2 V2000
  153.5498  143.4232  163.4774 C   0  0  0  0  0  0  0  0  0  0  0  0
  152.9512  143.3430  162.1142 C   0  0  0  0  0  0  0  0  0  0  0  0
  153.3324  142.6540  160.9973 C   0  0  0  0  0  0  0  0  0  0  0  0
  152.3481  142.9909  160.0218 C   0  0  0  0  0  0  0  0  0  0  0  0
  152.2576  142.5188  158.5955 C   0  0  0  0  0  0  0  0  0  0  0  0
  150.9047  142.8538  157.9379 C   0  0  2  0  0  0  0  0  0  0  0  0
  150.7537  142.1724  156.5709 C   0  0  0  0  0  0  0  0  0  0  0  0
  150.7281  144.3115  157.8010 N   0  3  0  0  0  0  0  0  0  0  0  0
  151.4320  143.8229  160.4953 N   0  0  0  0  0  0  0  0  0  0  0  0
  151.8104  144.0306  161.7704 N   0  0  0  0  0  0  0  0  0  0  0  0
  151.2849  144.6330  162.3885 H   0  0  0  0  0  0  0  0  0  0  0  0
  154.3549  142.6972  163.5931 H   0  0  0  0  0  0  0  0  0  0  0  0
  152.8012  143.2193  164.2434 H   0  0  0  0  0  0  0  0  0  0  0  0
  153.9617  144.4155  163.6618 H   0  0  0  0  0  0  0  0  0  0  0  0
  154.1870  142.0018  160.8931 H   0  0  0  0  0  0  0  0  0  0  0  0
  152.4194  141.4403  158.5614 H   0  0  0  0  0  0  0  0  0  0  0  0
  153.0678  142.9572  158.0112 H   0  0  0  0  0  0  0  0  0  0  0  0
  150.1033  142.4920  158.5832 H   0  0  0  0  0  0  0  0  0  0  0  0
  150.8370  141.0888  156.6613 H   0  0  0  0  0  0  0  0  0  0  0  0
  151.5215  142.5065  155.8720 H   0  0  0  0  0  0  0  0  0  0  0  0
  149.7812  142.3895  156.1275 H   0  0  0  0  0  0  0  0  0  0  0  0
  150.3551  144.6897  158.6598 H   0  0  0  0  0  0  0  0  0  0  0  0
  150.0869  144.5013  157.0435 H   0  0  0  0  0  0  0  0  0  0  0  0
  151.6197  144.7423  157.6023 H   0  0  0  0  0  0  0  0  0  0  0  0
  1 12  1  0  0  0  0
  1 13  1  0  0  0  0
  1 14  1  0  0  0  0
  1  2  1  0  0  0  0
  2 10  1  0  0  0  0
  2  3  2  0  0  0  0
  3  4  1  0  0  0  0
  3 15  1  0  0  0  0
  4  5  1  0  0  0  0
  4  9  2  0  0  0  0
  5  6  1  0  0  0  0
  5 16  1  0  0  0  0
  5 17  1  0  0  0  0
  6  7  1  0  0  0  0
  6  8  1  0  0  0  0
  6 18  1  0  0  0  0
  7 19  1  0  0  0  0
  7 20  1  0  0  0  0
  7 21  1  0  0  0  0
  8 22  1  0  0  0  0
  8 23  1  0  0  0  0
  8 24  1  0  0  0  0
  9 10  1  0  0  0  0
 10 11  1  0  0  0  0
M  CHG  1   8   1
M  END
> <s_m_source_file>
AV-unprocessed.smi

> <i_m_source_file_index>
3124

> <i_lp_mmshare_version>
43012

> <i_f3d_flags>
0

> <s_epik_input>
W0NIM11jMVtjSF1jKFtuSF1uMSlbQ0gyXVtDQEhdKFtDSDNdKVtOSDJd

> <s_epik_cmdline>
J2VwaWtfcHl0aG9uJywgJy1waCcsICc3LjAnLCAnLXRuJywgJzgnLCAnLW1hJywgJzIwMCcsICctbWV0YWxfYmluZGluZycsICctaW1hZScsICc8aW5maWxlLm1hZT4nLCAnLW9tYWUnLCAnPG91dGZpbGUubWFlPic=

> <r_lp_tautomer_probability>
0.5

> <r_epik_Ionization_Penalty>
0.00151643

> <r_epik_Ionization_Penalty_Charging>
0.00146569

> <r_epik_Ionization_Penalty_Neutral>
5.07401e-05

> <r_epik_State_Penalty>
0.379573

> <r_epik_Charging_Adjusted_Penalty>
0.381038

> <i_epik_Tot_Q>
1

> <i_epik_Tot_abs_Q>
1

> <r_epik_Metal_State_Penalty>
0.378341

> <b_epik_Metal_Only>
0

> <s_lp_Force_Field>
OPLS_2005

> <r_lp_Energy>
2.04404

> <b_lp_Chiralities_Consistent>
1

> <s_lp_Variant>
AV-unprocessed.smi:3124-1

> <Gold.Version>
5.8.1

> <Gold.Id.Protein>
6NUR|6NUR_protein|mol2

> <Gold.PLP.Fitness>
34.2494

> <Gold.PLP.PLP>
-28.5668

> <Gold.PLP.part.hbond>
-3.4129

> <Gold.PLP.part.metal>
0.0000

> <Gold.PLP.part.buried>
-4.3710

> <Gold.PLP.part.nonpolar>
-20.6947

> <Gold.PLP.part.repulsive>
0.2564

> <Gold.PLP.ligand.clash>
0.0000

> <Gold.PLP.ligand.torsion>
0.1602

> <Gold.PLP.Chemscore.Hbond>
2.0000

> <Gold.PLP.Chemscore.CHOScore>
0.0000

> <Gold.PLP.Chemscore.Metal>
0.0000

> <Gold.Chemscore.Hbonds>
donor molecule, donor type, donor heavy atom, donor atom, acceptor molecule, acceptor atom, score
      L1  H     8    23       P1  8028  2.00

> <Gold.PLP.Chemscore.Internal.Correction>
0.0030

> <Gold.Rescore>
     Score         DG    S(hbond)    S(metal)    S(lipo)     H(rot)  DE(clash)    DE(int)     intcor
     10.69     -13.67       0.97        0.00      70.82       1.30       1.60       1.39       ----

> <Gold.Chemscore.Fitness>
10.6856

> <Gold.Chemscore.DG>
-13.6681

> <Gold.Chemscore.ZeroCoef>
-5.4800

> <Gold.Chemscore.Hbond>
0.9663

> <Gold.Chemscore.Metal>
0.0000

> <Gold.Chemscore.Lipo>
70.8150

> <Gold.Chemscore.Internal_Hbond>
0.0000

> <Gold.Chemscore.DEClash>
1.5973

> <Gold.Chemscore.DEInternal>
1.3852

> <Gold.Chemscore.Rot>
1.2987

> <Gold.Chemscore.Internal.Correction>
   9.000000E+99

> <Gold.Chemscore.Hbonds>
donor molecule, donor type, donor heavy atom, donor atom, acceptor molecule, acceptor atom, score
      L1  H     8    23       P1  8028  0.60

> <Gold.Chemscore.Hbond.Weighted>
-3.2274

> <Gold.Chemscore.Metal.Weighted>
-0.0000

> <Gold.Chemscore.Lipo.Weighted>
-8.2854

> <Gold.Chemscore.Internal_Hbond.Weighted>
0.0000

> <Gold.Chemscore.DEClash.Weighted>
1.5973

> <Gold.Chemscore.DEInternal.Weighted>
1.3852

> <Gold.Chemscore.Rot.Weighted>
3.3246

> <Gold.Chemscore.Internal.Correction.Weighted>
   9.000000E+99

> <Gold.Protein.RotatedTorsions>
[ 6907 6896 6895 6894 ] final  165.22 input  -60.11 | X-H torsion
[ 7974 7965 7964 7962 ] final  144.09 input  175.53 | X-H torsion
[ 8008 7997 7996 7995 ] final -117.16 input   59.86 | X-H torsion
[ 10167 10162 10161 10158 ] final   -2.16 input  -65.29 | X-H torsion
[ 10718 10713 10712 10709 ] final -175.47 input   66.30 | X-H torsion
[ 10763 10752 10751 10750 ] final  103.57 input  -60.55 | X-H torsion
[ 11005 11000 10999 10996 ] final  -20.50 input  -57.11 | X-H torsion

> <Gold.Protein.ActiveResidues>
 VAL166  LYS551  ARG553  GLY616  TRP617  ASP618  TYR619  PRO620  LYS621  CYS622 
 ASP623  PHE694  ASN695  SER759  ASP760  ASP761  ALA762  ILE779  LEU786  VAL792 
 PHE793  MET794  SER795  GLU796  ALA797  LYS798  CYS799  TRP800  GLU811  SER814 

> <Gold.Protein.RotatedAtoms>
  151.8977  133.3531  159.3819 H   0  0  0  0  0  0  0  0  0  0  0  0  # atno 6907 bound_to 6896
  150.7087  134.4859  159.5502 H   0  0  0  0  0  0  0  0  0  0  0  0  # atno 6908 bound_to 6896
  152.2442  134.8198  160.0506 H   0  0  0  0  0  0  0  0  0  0  0  0  # atno 6909 bound_to 6896
  144.8865  139.5621  143.5818 H   0  0  0  0  0  0  0  0  0  0  0  0  # atno 7974 bound_to 7965
  155.0792  140.0394  157.2634 H   0  0  0  0  0  0  0  0  0  0  0  0  # atno 8008 bound_to 7997
  154.6920  140.2655  155.6778 H   0  0  0  0  0  0  0  0  0  0  0  0  # atno 8009 bound_to 7997
  156.2732  140.2757  156.1501 H   0  0  0  0  0  0  0  0  0  0  0  0  # atno 8010 bound_to 7997
  140.6840  143.6690  150.8201 H   0  0  0  0  0  0  0  0  0  0  0  0  # atno 10167 bound_to 10162
  156.8003  130.9550  151.3119 H   0  0  0  0  0  0  0  0  0  0  0  0  # atno 10718 bound_to 10713
  153.3545  135.3972  155.1671 H   0  0  0  0  0  0  0  0  0  0  0  0  # atno 10763 bound_to 10752
  154.8668  135.3664  154.5179 H   0  0  0  0  0  0  0  0  0  0  0  0  # atno 10764 bound_to 10752
  153.5634  135.7080  153.5597 H   0  0  0  0  0  0  0  0  0  0  0  0  # atno 10765 bound_to 10752
  140.8471  133.7884  155.9924 H   0  0  0  0  0  0  0  0  0  0  0  0  # atno 11005 bound_to 11000
  146.3027  139.7479  142.9079 LP  0  0  0  0  0  0  0  0  0  0  0  0  # atno 17320 bound_to 7965
  145.3860  141.0365  143.3151 LP  0  0  0  0  0  0  0  0  0  0  0  0  # atno 17321 bound_to 7965
  140.0394  143.5361  152.2724 LP  0  0  0  0  0  0  0  0  0  0  0  0  # atno 17342 bound_to 10162
  139.6183  144.7624  151.2797 LP  0  0  0  0  0  0  0  0  0  0  0  0  # atno 17343 bound_to 10162
  157.6557  130.8922  149.9724 LP  0  0  0  0  0  0  0  0  0  0  0  0  # atno 17370 bound_to 10713
  156.1105  130.3650  150.0057 LP  0  0  0  0  0  0  0  0  0  0  0  0  # atno 17371 bound_to 10713
  140.8832  134.2586  157.5133 LP  0  0  0  0  0  0  0  0  0  0  0  0  # atno 17394 bound_to 11000
  139.8703  134.9625  156.4431 LP  0  0  0  0  0  0  0  0  0  0  0  0  # atno 17395 bound_to 11000

$$$$
