AV-unprocessed.smi:2840|AV-procd|sdf|10933|dock4
  -GOLD-   2272015383D 1   1.00000     0.00000
 Structure written by MMmdl.
 36 37  0  0  0  0  0  0  0  0  1 V2000
  153.8330  140.7959  160.3348 C   0  0  0  0  0  0  0  0  0  0  0  0
  153.4269  142.2795  160.3430 C   0  0  2  0  0  0  0  0  0  0  0  0
  152.4617  142.5968  161.5040 C   0  0  0  0  0  0  0  0  0  0  0  0
  152.1080  144.0917  161.5514 C   0  0  0  0  0  0  0  0  0  0  0  0
  151.5252  144.5711  160.2138 C   0  0  0  0  0  0  0  0  0  0  0  0
  152.4781  144.2581  159.0469 C   0  0  0  0  0  0  0  0  0  0  0  0
  152.8555  142.7640  158.9853 C   0  0  2  0  0  0  0  0  0  0  0  0
  151.6922  141.9776  158.5681 N   0  0  0  0  0  0  0  0  0  0  0  0
  150.9974  142.1340  157.4312 C   0  0  0  0  0  0  0  0  0  0  0  0
  151.2829  142.9610  156.5647 O   0  0  0  0  0  0  0  0  0  0  0  0
  149.9650  141.2744  157.3748 N   0  0  0  0  0  0  0  0  0  0  0  0
  148.9825  141.1463  156.3569 C   0  0  0  0  0  0  0  0  0  0  0  0
  149.4690  141.2757  155.0362 C   0  0  0  0  0  0  0  0  0  0  0  0
  148.5758  141.1578  153.9536 C   0  0  0  0  0  0  0  0  0  0  0  0
  147.2165  140.9151  154.2200 C   0  0  0  0  0  0  0  0  0  0  0  0
  146.8141  140.8025  155.5636 C   0  0  0  0  0  0  0  0  0  0  0  0
  147.6686  140.9140  156.6025 N   0  0  0  0  0  0  0  0  0  0  0  0
  152.9681  140.1407  160.2306 H   0  0  0  0  0  0  0  0  0  0  0  0
  154.3400  140.5250  161.2611 H   0  0  0  0  0  0  0  0  0  0  0  0
  154.5156  140.5815  159.5119 H   0  0  0  0  0  0  0  0  0  0  0  0
  154.3404  142.8487  160.5223 H   0  0  0  0  0  0  0  0  0  0  0  0
  151.5489  142.0084  161.4014 H   0  0  0  0  0  0  0  0  0  0  0  0
  152.9113  142.3011  162.4525 H   0  0  0  0  0  0  0  0  0  0  0  0
  151.3958  144.2796  162.3553 H   0  0  0  0  0  0  0  0  0  0  0  0
  153.0015  144.6706  161.7883 H   0  0  0  0  0  0  0  0  0  0  0  0
  150.5599  144.0936  160.0430 H   0  0  0  0  0  0  0  0  0  0  0  0
  151.3330  145.6434  160.2572 H   0  0  0  0  0  0  0  0  0  0  0  0
  152.0300  144.5741  158.1038 H   0  0  0  0  0  0  0  0  0  0  0  0
  153.3861  144.8512  159.1626 H   0  0  0  0  0  0  0  0  0  0  0  0
  153.6413  142.6643  158.2346 H   0  0  0  0  0  0  0  0  0  0  0  0
  151.3834  141.2638  159.2115 H   0  0  0  0  0  0  0  0  0  0  0  0
  149.8575  140.6517  158.1615 H   0  0  0  0  0  0  0  0  0  0  0  0
  150.5168  141.4616  154.8494 H   0  0  0  0  0  0  0  0  0  0  0  0
  148.9283  141.2512  152.9370 H   0  0  0  0  0  0  0  0  0  0  0  0
  146.5014  140.8183  153.4167 H   0  0  0  0  0  0  0  0  0  0  0  0
  145.7793  140.6171  155.8110 H   0  0  0  0  0  0  0  0  0  0  0  0
  1  2  1  0  0  0  0
  1 18  1  0  0  0  0
  1 19  1  0  0  0  0
  1 20  1  0  0  0  0
  2  7  1  0  0  0  0
  2  3  1  0  0  0  0
  2 21  1  0  0  0  0
  3  4  1  0  0  0  0
  3 22  1  0  0  0  0
  3 23  1  0  0  0  0
  4  5  1  0  0  0  0
  4 24  1  0  0  0  0
  4 25  1  0  0  0  0
  5  6  1  0  0  0  0
  5 26  1  0  0  0  0
  5 27  1  0  0  0  0
  6  7  1  0  0  0  0
  6 28  1  0  0  0  0
  6 29  1  0  0  0  0
  7  8  1  0  0  0  0
  7 30  1  0  0  0  0
  8  9  1  0  0  0  0
  8 31  1  0  0  0  0
  9 10  2  0  0  0  0
  9 11  1  0  0  0  0
 11 12  1  0  0  0  0
 11 32  1  0  0  0  0
 12 17  1  0  0  0  0
 12 13  2  0  0  0  0
 13 14  1  0  0  0  0
 13 33  1  0  0  0  0
 14 15  2  0  0  0  0
 14 34  1  0  0  0  0
 15 16  1  0  0  0  0
 15 35  1  0  0  0  0
 16 17  2  0  0  0  0
 16 36  1  0  0  0  0
M  END
> <s_m_source_file>
AV-unprocessed.smi

> <i_m_source_file_index>
2840

> <i_lp_mmshare_version>
43012

> <i_f3d_flags>
0

> <s_epik_input>
W0NIM11bQ0BASF0xW0NIMl1bQ0gyXVtDSDJdW0NIMl1bQ0BIXTFbTkhdQyg9TylbTkhdYzJbY0hdW2NIXVtjSF1bY0hdbjI=

> <s_epik_cmdline>
J2VwaWtfcHl0aG9uJywgJy1waCcsICc3LjAnLCAnLXRuJywgJzgnLCAnLW1hJywgJzIwMCcsICctbWV0YWxfYmluZGluZycsICctaW1hZScsICc8aW5maWxlLm1hZT4nLCAnLW9tYWUnLCAnPG91dGZpbGUubWFlPic=

> <r_lp_tautomer_probability>
1

> <r_epik_Ionization_Penalty>
5.29956e-05

> <r_epik_Ionization_Penalty_Charging>
0

> <r_epik_Ionization_Penalty_Neutral>
5.29956e-05

> <r_epik_State_Penalty>
-0

> <r_epik_Charging_Adjusted_Penalty>
0

> <i_epik_Tot_Q>
0

> <i_epik_Tot_abs_Q>
0

> <r_epik_Metal_State_Penalty>
-0

> <b_epik_Metal_Only>
0

> <s_lp_Force_Field>
OPLS_2005

> <r_lp_Energy>
11.7155

> <b_lp_Chiralities_Consistent>
1

> <s_lp_Variant>
AV-unprocessed.smi:2840-3

> <Gold.Version>
5.8.1

> <Gold.Id.Protein>
6NUR|6NUR_protein|mol2

> <Gold.PLP.Fitness>
38.0262

> <Gold.PLP.PLP>
-38.6417

> <Gold.PLP.part.hbond>
0.0000

> <Gold.PLP.part.metal>
0.0000

> <Gold.PLP.part.buried>
-4.2081

> <Gold.PLP.part.nonpolar>
-35.6508

> <Gold.PLP.part.repulsive>
1.0530

> <Gold.PLP.ligand.clash>
0.0000

> <Gold.PLP.ligand.torsion>
0.3112

> <Gold.PLP.Chemscore.Hbond>
0.0000

> <Gold.PLP.Chemscore.CHOScore>
0.0000

> <Gold.PLP.Chemscore.Metal>
0.0000

> <Gold.PLP.Chemscore.Internal.Correction>
0.0070

> <Gold.Rescore>
     Score         DG    S(hbond)    S(metal)    S(lipo)     H(rot)  DE(clash)    DE(int)     intcor
     13.13     -15.20       0.00        0.00     104.91       1.00       0.48       1.58       ----

> <Gold.Chemscore.Fitness>
13.1276

> <Gold.Chemscore.DG>
-15.1950

> <Gold.Chemscore.ZeroCoef>
-5.4800

> <Gold.Chemscore.Hbond>
0.0000

> <Gold.Chemscore.Metal>
0.0000

> <Gold.Chemscore.Lipo>
104.9147

> <Gold.Chemscore.Internal_Hbond>
0.0000

> <Gold.Chemscore.DEClash>
0.4830

> <Gold.Chemscore.DEInternal>
1.5844

> <Gold.Chemscore.Rot>
1.0000

> <Gold.Chemscore.Internal.Correction>
   9.000000E+99

> <Gold.Chemscore.Hbond.Weighted>
-0.0000

> <Gold.Chemscore.Metal.Weighted>
-0.0000

> <Gold.Chemscore.Lipo.Weighted>
-12.2750

> <Gold.Chemscore.Internal_Hbond.Weighted>
0.0000

> <Gold.Chemscore.DEClash.Weighted>
0.4830

> <Gold.Chemscore.DEInternal.Weighted>
1.5844

> <Gold.Chemscore.Rot.Weighted>
2.5600

> <Gold.Chemscore.Internal.Correction.Weighted>
   9.000000E+99

> <Gold.Protein.RotatedTorsions>
[ 6907 6896 6895 6894 ] final  -31.81 input  -60.11 | X-H torsion
[ 7974 7965 7964 7962 ] final  164.13 input  175.53 | X-H torsion
[ 8008 7997 7996 7995 ] final  102.80 input   59.86 | X-H torsion
[ 10167 10162 10161 10158 ] final  118.92 input  -65.29 | X-H torsion
[ 10718 10713 10712 10709 ] final -110.13 input   66.30 | X-H torsion
[ 10763 10752 10751 10750 ] final   57.86 input  -60.55 | X-H torsion
[ 11005 11000 10999 10996 ] final  -12.75 input  -57.11 | X-H torsion

> <Gold.Protein.ActiveResidues>
 VAL166  LYS551  ARG553  GLY616  TRP617  ASP618  TYR619  PRO620  LYS621  CYS622 
 ASP623  PHE694  ASN695  SER759  ASP760  ASP761  ALA762  ILE779  LEU786  VAL792 
 PHE793  MET794  SER795  GLU796  ALA797  LYS798  CYS799  TRP800  GLU811  SER814 

> <Gold.Protein.RotatedAtoms>
  151.0871  134.9894  159.8384 H   0  0  0  0  0  0  0  0  0  0  0  0  # atno 6907 bound_to 6896
  152.5425  134.2111  159.8760 H   0  0  0  0  0  0  0  0  0  0  0  0  # atno 6908 bound_to 6896
  151.2144  133.4493  159.2632 H   0  0  0  0  0  0  0  0  0  0  0  0  # atno 6909 bound_to 6896
  144.7558  139.8282  143.6350 H   0  0  0  0  0  0  0  0  0  0  0  0  # atno 7974 bound_to 7965
  156.1426  140.3175  155.8519 H   0  0  0  0  0  0  0  0  0  0  0  0  # atno 8008 bound_to 7997
  155.4125  140.0507  157.3048 H   0  0  0  0  0  0  0  0  0  0  0  0  # atno 8009 bound_to 7997
  154.4989  140.2121  155.9400 H   0  0  0  0  0  0  0  0  0  0  0  0  # atno 8010 bound_to 7997
  139.6080  144.7075  151.2909 H   0  0  0  0  0  0  0  0  0  0  0  0  # atno 10167 bound_to 10162
  156.0574  130.5800  150.8195 H   0  0  0  0  0  0  0  0  0  0  0  0  # atno 10718 bound_to 10713
  152.9858  135.5627  154.5459 H   0  0  0  0  0  0  0  0  0  0  0  0  # atno 10763 bound_to 10752
  154.4905  135.2792  155.1503 H   0  0  0  0  0  0  0  0  0  0  0  0  # atno 10764 bound_to 10752
  154.2974  135.6314  153.5463 H   0  0  0  0  0  0  0  0  0  0  0  0  # atno 10765 bound_to 10752
  140.7690  133.8453  155.9190 H   0  0  0  0  0  0  0  0  0  0  0  0  # atno 11005 bound_to 11000
  146.1567  139.4667  143.0014 LP  0  0  0  0  0  0  0  0  0  0  0  0  # atno 17320 bound_to 7965
  145.6783  141.0198  143.1620 LP  0  0  0  0  0  0  0  0  0  0  0  0  # atno 17321 bound_to 7965
  140.7299  143.6895  150.7933 LP  0  0  0  0  0  0  0  0  0  0  0  0  # atno 17342 bound_to 10162
  140.0485  143.5274  152.2685 LP  0  0  0  0  0  0  0  0  0  0  0  0  # atno 17343 bound_to 10162
  157.5556  131.0945  150.9634 LP  0  0  0  0  0  0  0  0  0  0  0  0  # atno 17370 bound_to 10713
  156.9883  130.5553  149.5301 LP  0  0  0  0  0  0  0  0  0  0  0  0  # atno 17371 bound_to 10713
  140.9591  134.1678  157.4668 LP  0  0  0  0  0  0  0  0  0  0  0  0  # atno 17394 bound_to 11000
  139.8758  134.9938  156.5663 LP  0  0  0  0  0  0  0  0  0  0  0  0  # atno 17395 bound_to 11000

$$$$
