AV-unprocessed.smi:194|AV-procd|sdf|1520|dock6
  -GOLD-   2262019363D 1   1.00000     0.00000
 Structure written by MMmdl.
 53 55  0  0  0  0  0  0  0  0  1 V2000
  150.1784  141.7564  155.4271 C   0  0  0  0  0  0  0  0  0  0  0  0
  149.5402  140.3762  155.2011 C   0  0  2  0  0  0  0  0  0  0  0  0
  150.5571  139.3709  154.6236 C   0  0  0  0  0  0  0  0  0  0  0  0
  152.0863  139.3823  155.6772 S   0  0  1  0  0  0  0  0  0  0  0  0
  152.0181  137.5978  156.1736 C   0  0  0  0  0  0  0  0  0  0  0  0
  153.2758  139.5334  154.7271 O   0  0  0  0  0  0  0  0  0  0  0  0
  148.3293  140.4910  154.3757 N   0  0  0  0  0  0  0  0  0  0  0  0
  148.0136  141.7339  153.6781 C   0  0  0  0  0  0  0  0  0  0  0  0
  147.3527  139.5537  154.5042 C   0  0  0  0  0  0  0  0  0  0  0  0
  146.9135  139.2524  155.7543 N   0  0  0  0  0  0  0  0  0  0  0  0
  145.9662  138.3300  155.9390 C   0  0  0  0  0  0  0  0  0  0  0  0
  145.3287  137.5966  155.0261 N   0  0  0  0  0  0  0  0  0  0  0  0
  145.7615  137.8885  153.7665 C   0  0  0  0  0  0  0  0  0  0  0  0
  146.7568  138.8471  153.4169 C   0  0  0  0  0  0  0  0  0  0  0  0
  146.9037  138.8816  152.0343 N   0  0  0  0  0  0  0  0  0  0  0  0
  146.0532  137.9954  151.5961 C   0  0  0  0  0  0  0  0  0  0  0  0
  145.3383  137.3357  152.5694 N   0  0  0  0  0  0  0  0  0  0  0  0
  144.3257  136.3114  152.3566 C   0  0  0  0  0  0  0  0  0  0  0  0
  144.8340  134.8375  152.3770 C   0  0  0  0  0  0  0  0  0  0  0  0
  143.6414  133.8343  152.3949 C   0  0  0  0  0  0  0  0  0  0  0  0
  142.7140  134.0667  153.4361 O   0  0  0  0  0  0  0  0  0  0  0  0
  145.7991  134.5643  151.1948 C   0  0  0  0  0  0  0  0  0  0  0  0
  146.5718  133.2440  151.3541 C   0  0  0  0  0  0  0  0  0  0  0  0
  147.3114  133.2644  152.5679 O   0  0  0  0  0  0  0  0  0  0  0  0
  146.4812  133.3616  153.7175 C   0  0  0  0  0  0  0  0  0  0  0  0
  145.6636  134.6679  153.6758 C   0  0  0  0  0  0  0  0  0  0  0  0
  151.0245  141.6889  156.1114 H   0  0  0  0  0  0  0  0  0  0  0  0
  149.4608  142.4531  155.8616 H   0  0  0  0  0  0  0  0  0  0  0  0
  150.5423  142.1897  154.4949 H   0  0  0  0  0  0  0  0  0  0  0  0
  149.2725  140.0128  156.1934 H   0  0  0  0  0  0  0  0  0  0  0  0
  150.1499  138.3618  154.5673 H   0  0  0  0  0  0  0  0  0  0  0  0
  150.8374  139.6604  153.6104 H   0  0  0  0  0  0  0  0  0  0  0  0
  151.0829  137.3810  156.6896 H   0  0  0  0  0  0  0  0  0  0  0  0
  152.8458  137.3630  156.8427 H   0  0  0  0  0  0  0  0  0  0  0  0
  152.0900  136.9558  155.2955 H   0  0  0  0  0  0  0  0  0  0  0  0
  147.3550  141.5483  152.8288 H   0  0  0  0  0  0  0  0  0  0  0  0
  148.9126  142.2135  153.2942 H   0  0  0  0  0  0  0  0  0  0  0  0
  147.5221  142.4369  154.3511 H   0  0  0  0  0  0  0  0  0  0  0  0
  145.6802  138.1535  156.9655 H   0  0  0  0  0  0  0  0  0  0  0  0
  145.9304  137.7886  150.5430 H   0  0  0  0  0  0  0  0  0  0  0  0
  143.5559  136.4529  153.1166 H   0  0  0  0  0  0  0  0  0  0  0  0
  143.8376  136.5199  151.4034 H   0  0  0  0  0  0  0  0  0  0  0  0
  143.0730  133.8730  151.4677 H   0  0  0  0  0  0  0  0  0  0  0  0
  144.0097  132.8116  152.4802 H   0  0  0  0  0  0  0  0  0  0  0  0
  142.4968  133.2383  153.8358 H   0  0  0  0  0  0  0  0  0  0  0  0
  145.2692  134.5659  150.2424 H   0  0  0  0  0  0  0  0  0  0  0  0
  146.5273  135.3736  151.1309 H   0  0  0  0  0  0  0  0  0  0  0  0
  145.9025  132.3833  151.3298 H   0  0  0  0  0  0  0  0  0  0  0  0
  147.2697  133.1220  150.5259 H   0  0  0  0  0  0  0  0  0  0  0  0
  145.8422  132.4820  153.7937 H   0  0  0  0  0  0  0  0  0  0  0  0
  147.1168  133.3545  154.6031 H   0  0  0  0  0  0  0  0  0  0  0  0
  146.3656  135.4980  153.7695 H   0  0  0  0  0  0  0  0  0  0  0  0
  145.0149  134.7249  154.5509 H   0  0  0  0  0  0  0  0  0  0  0  0
  1  2  1  0  0  0  0
  1 27  1  0  0  0  0
  1 28  1  0  0  0  0
  1 29  1  0  0  0  0
  2  3  1  0  0  0  0
  2  7  1  0  0  0  0
  2 30  1  0  0  0  0
  3  4  1  0  0  0  0
  3 31  1  0  0  0  0
  3 32  1  0  0  0  0
  4  5  1  0  0  0  0
  4  6  2  0  0  0  0
  5 33  1  0  0  0  0
  5 34  1  0  0  0  0
  5 35  1  0  0  0  0
  7  8  1  0  0  0  0
  7  9  1  0  0  0  0
  8 36  1  0  0  0  0
  8 37  1  0  0  0  0
  8 38  1  0  0  0  0
  9 14  1  0  0  0  0
  9 10  2  0  0  0  0
 10 11  1  0  0  0  0
 11 12  2  0  0  0  0
 11 39  1  0  0  0  0
 12 13  1  0  0  0  0
 13 17  1  0  0  0  0
 13 14  2  0  0  0  0
 14 15  1  0  0  0  0
 15 16  2  0  0  0  0
 16 17  1  0  0  0  0
 16 40  1  0  0  0  0
 17 18  1  0  0  0  0
 18 19  1  0  0  0  0
 18 41  1  0  0  0  0
 18 42  1  0  0  0  0
 19 26  1  0  0  0  0
 19 20  1  0  0  0  0
 19 22  1  0  0  0  0
 20 21  1  0  0  0  0
 20 43  1  0  0  0  0
 20 44  1  0  0  0  0
 21 45  1  0  0  0  0
 22 23  1  0  0  0  0
 22 46  1  0  0  0  0
 22 47  1  0  0  0  0
 23 24  1  0  0  0  0
 23 48  1  0  0  0  0
 23 49  1  0  0  0  0
 24 25  1  0  0  0  0
 25 26  1  0  0  0  0
 25 50  1  0  0  0  0
 25 51  1  0  0  0  0
 26 52  1  0  0  0  0
 26 53  1  0  0  0  0
M  END
> <s_m_source_file>
AV-unprocessed.smi

> <i_m_source_file_index>
194

> <i_lp_mmshare_version>
43012

> <i_f3d_flags>
0

> <s_epik_input>
W0NIM11bU0BAXSg9TylbQ0gyXVtDQEBIXShbQ0gzXSlOKFtDSDNdKWMobltjSF1uMSljKGMxMiluW2NIXW4yW0NIMl1DMyhbQ0gyXVtPSF0pW0NIMl1bQ0gyXU9bQ0gyXVtDSDJdMw==

> <s_epik_cmdline>
J2VwaWtfcHl0aG9uJywgJy1waCcsICc3LjAnLCAnLXRuJywgJzgnLCAnLW1hJywgJzIwMCcsICctbWV0YWxfYmluZGluZycsICctaW1hZScsICc8aW5maWxlLm1hZT4nLCAnLW9tYWUnLCAnPG91dGZpbGUubWFlPic=

> <r_lp_tautomer_probability>
1

> <r_epik_Ionization_Penalty>
0.00101625

> <r_epik_Ionization_Penalty_Charging>
0

> <r_epik_Ionization_Penalty_Neutral>
0.00101625

> <r_epik_State_Penalty>
0.000568005

> <r_epik_Charging_Adjusted_Penalty>
0.000568005

> <i_epik_Tot_Q>
0

> <i_epik_Tot_abs_Q>
0

> <r_epik_Metal_State_Penalty>
-0

> <b_epik_Metal_Only>
0

> <s_lp_Force_Field>
OPLS_2005

> <r_lp_Energy>
28.4609

> <b_lp_Chiralities_Consistent>
1

> <s_lp_Variant>
AV-unprocessed.smi:194-1

> <Gold.Version>
5.8.1

> <Gold.Id.Protein>
6NUR|6NUR_protein|mol2

> <Gold.PLP.Fitness>
42.9386

> <Gold.PLP.PLP>
-38.5434

> <Gold.PLP.part.hbond>
-3.0000

> <Gold.PLP.part.metal>
0.0000

> <Gold.PLP.part.buried>
-2.4516

> <Gold.PLP.part.nonpolar>
-32.8500

> <Gold.PLP.part.repulsive>
1.4742

> <Gold.PLP.ligand.clash>
0.0000

> <Gold.PLP.ligand.torsion>
1.9826

> <Gold.PLP.Chemscore.Hbond>
2.0119

> <Gold.PLP.Chemscore.CHOScore>
0.5839

> <Gold.PLP.Chemscore.Metal>
0.0000

> <Gold.Chemscore.Hbonds>
donor molecule, donor type, donor heavy atom, donor atom, acceptor molecule, acceptor atom, score
      L1  H    21    45       P1 10957  1.00
      P1  H  7997  8009       L1     6  0.95
      L1  C    16    40       P1 10171  0.61

> <Gold.PLP.Chemscore.Internal.Correction>
0.5731

> <Gold.Rescore>
     Score         DG    S(hbond)    S(metal)    S(lipo)     H(rot)  DE(clash)    DE(int)     intcor
      8.92     -11.97       1.94        0.00      66.44       3.03       0.95       2.10       ----

> <Gold.Chemscore.Fitness>
8.9198

> <Gold.Chemscore.DG>
-11.9742

> <Gold.Chemscore.ZeroCoef>
-5.4800

> <Gold.Chemscore.Hbond>
1.9391

> <Gold.Chemscore.Metal>
0.0000

> <Gold.Chemscore.Lipo>
66.4368

> <Gold.Chemscore.Internal_Hbond>
0.0000

> <Gold.Chemscore.DEClash>
0.9532

> <Gold.Chemscore.DEInternal>
2.1012

> <Gold.Chemscore.Rot>
3.0295

> <Gold.Chemscore.Internal.Correction>
   9.000000E+99

> <Gold.Chemscore.Hbonds>
donor molecule, donor type, donor heavy atom, donor atom, acceptor molecule, acceptor atom, score
      L1  H    21    45       P1 10957  1.00
      P1  H  7997  8009       L1     6  0.22

> <Gold.Chemscore.Hbond.Weighted>
-6.4766

> <Gold.Chemscore.Metal.Weighted>
-0.0000

> <Gold.Chemscore.Lipo.Weighted>
-7.7731

> <Gold.Chemscore.Internal_Hbond.Weighted>
0.0000

> <Gold.Chemscore.DEClash.Weighted>
0.9532

> <Gold.Chemscore.DEInternal.Weighted>
2.1012

> <Gold.Chemscore.Rot.Weighted>
7.7555

> <Gold.Chemscore.Internal.Correction.Weighted>
   9.000000E+99

> <Gold.Protein.RotatedTorsions>
[ 6907 6896 6895 6894 ] final   20.69 input  -60.11 | X-H torsion
[ 7974 7965 7964 7962 ] final   71.43 input  175.53 | X-H torsion
[ 8008 7997 7996 7995 ] final -134.89 input   59.86 | X-H torsion
[ 10167 10162 10161 10158 ] final   84.79 input  -65.29 | X-H torsion
[ 10718 10713 10712 10709 ] final  -45.38 input   66.30 | X-H torsion
[ 10763 10752 10751 10750 ] final   16.71 input  -60.55 | X-H torsion
[ 11005 11000 10999 10996 ] final  -48.18 input  -57.11 | X-H torsion

> <Gold.Protein.ActiveResidues>
 VAL166  LYS551  ARG553  GLY616  TRP617  ASP618  TYR619  PRO620  LYS621  CYS622 
 ASP623  PHE694  ASN695  SER759  ASP760  ASP761  ALA762  ILE779  LEU786  VAL792 
 PHE793  MET794  SER795  GLU796  ALA797  LYS798  CYS799  TRP800  GLU811  SER814 

> <Gold.Protein.RotatedAtoms>
  151.9003  135.0381  160.0505 H   0  0  0  0  0  0  0  0  0  0  0  0  # atno 6907 bound_to 6896
  152.2363  133.5094  159.5253 H   0  0  0  0  0  0  0  0  0  0  0  0  # atno 6908 bound_to 6896
  150.7040  134.1065  159.4027 H   0  0  0  0  0  0  0  0  0  0  0  0  # atno 6909 bound_to 6896
  145.7659  139.2821  143.1349 H   0  0  0  0  0  0  0  0  0  0  0  0  # atno 7974 bound_to 7965
  155.3695  140.0487  157.3045 H   0  0  0  0  0  0  0  0  0  0  0  0  # atno 8008 bound_to 7997
  154.5137  140.2200  155.9070 H   0  0  0  0  0  0  0  0  0  0  0  0  # atno 8009 bound_to 7997
  156.1612  140.3116  155.8816 H   0  0  0  0  0  0  0  0  0  0  0  0  # atno 8010 bound_to 7997
  139.9044  144.6310  150.8603 H   0  0  0  0  0  0  0  0  0  0  0  0  # atno 10167 bound_to 10162
  156.2290  130.4171  149.8899 H   0  0  0  0  0  0  0  0  0  0  0  0  # atno 10718 bound_to 10713
  153.1405  135.6759  153.9034 H   0  0  0  0  0  0  0  0  0  0  0  0  # atno 10763 bound_to 10752
  153.8493  135.3095  155.3432 H   0  0  0  0  0  0  0  0  0  0  0  0  # atno 10764 bound_to 10752
  154.7783  135.4902  153.9875 H   0  0  0  0  0  0  0  0  0  0  0  0  # atno 10765 bound_to 10752
  141.0685  133.6686  156.3404 H   0  0  0  0  0  0  0  0  0  0  0  0  # atno 11005 bound_to 11000
  146.0218  140.8341  142.9920 LP  0  0  0  0  0  0  0  0  0  0  0  0  # atno 17320 bound_to 7965
  144.6821  140.2639  143.7315 LP  0  0  0  0  0  0  0  0  0  0  0  0  # atno 17321 bound_to 7965
  140.7700  143.3413  151.2203 LP  0  0  0  0  0  0  0  0  0  0  0  0  # atno 17342 bound_to 10162
  139.6997  143.9553  152.2900 LP  0  0  0  0  0  0  0  0  0  0  0  0  # atno 17343 bound_to 10162
  156.6519  130.8747  151.3533 LP  0  0  0  0  0  0  0  0  0  0  0  0  # atno 17370 bound_to 10713
  157.7124  130.9456  150.1135 LP  0  0  0  0  0  0  0  0  0  0  0  0  # atno 17371 bound_to 10713
  140.5723  134.5828  157.5460 LP  0  0  0  0  0  0  0  0  0  0  0  0  # atno 17394 bound_to 11000
  139.9500  134.7634  156.0471 LP  0  0  0  0  0  0  0  0  0  0  0  0  # atno 17395 bound_to 11000

$$$$
