AV-unprocessed.smi:1012|AV-procd|sdf|4425|dock7
  -GOLD-   22720 2383D 1   1.00000     0.00000
 Structure written by MMmdl.
 44 46  0  0  0  0  0  0  0  0  2 V2000
  153.2833  142.2239  162.2830 C   0  0  0  0  0  0  0  0  0  0  0  0
  152.8029  142.0392  160.9595 O   0  0  0  0  0  0  0  0  0  0  0  0
  152.2859  143.1318  160.2926 C   0  0  0  0  0  0  0  0  0  0  0  0
  152.0470  144.3869  160.9092 C   0  0  0  0  0  0  0  0  0  0  0  0
  151.5177  145.4605  160.1680 C   0  0  0  0  0  0  0  0  0  0  0  0
  151.2204  145.2971  158.8036 C   0  0  0  0  0  0  0  0  0  0  0  0
  151.4527  144.0578  158.1805 C   0  0  0  0  0  0  0  0  0  0  0  0
  151.9818  142.9779  158.9186 C   0  0  0  0  0  0  0  0  0  0  0  0
  152.2287  141.6500  158.2264 C   0  0  0  0  0  0  0  0  0  0  0  0
  151.0867  141.2239  157.5020 O   0  0  0  0  0  0  0  0  0  0  0  0
  150.9885  141.8301  156.2246 C   0  0  0  0  0  0  0  0  0  0  0  0
  150.0642  140.9798  155.3343 C   0  0  1  0  0  0  0  0  0  0  0  0
  150.8110  139.8975  154.8190 O   0  0  0  0  0  0  0  0  0  0  0  0
  148.8527  140.3831  156.0787 C   0  0  0  0  0  0  0  0  0  0  0  0
  147.7511  140.0156  155.1774 N   0  0  0  0  0  0  0  0  0  0  0  0
  146.8706  140.8195  154.5213 C   0  0  0  0  0  0  0  0  0  0  0  0
  146.0373  140.0179  153.8025 N   0  3  0  0  0  0  0  0  0  0  0  0
  146.3899  138.6814  154.0010 C   0  0  0  0  0  0  0  0  0  0  0  0
  145.8407  137.5103  153.4895 C   0  0  0  0  0  0  0  0  0  0  0  0
  146.4356  136.2984  153.8973 C   0  0  0  0  0  0  0  0  0  0  0  0
  145.9385  135.1284  153.4315 F   0  0  0  0  0  0  0  0  0  0  0  0
  147.5355  136.2823  154.7810 C   0  0  0  0  0  0  0  0  0  0  0  0
  148.0751  135.0968  155.1504 F   0  0  0  0  0  0  0  0  0  0  0  0
  148.0858  137.4769  155.2904 C   0  0  0  0  0  0  0  0  0  0  0  0
  147.4915  138.6711  154.8827 C   0  0  0  0  0  0  0  0  0  0  0  0
  153.6492  141.2723  162.6682 H   0  0  0  0  0  0  0  0  0  0  0  0
  152.4920  142.5669  162.9510 H   0  0  0  0  0  0  0  0  0  0  0  0
  154.1133  142.9313  162.3109 H   0  0  0  0  0  0  0  0  0  0  0  0
  152.2624  144.5540  161.9535 H   0  0  0  0  0  0  0  0  0  0  0  0
  151.3404  146.4115  160.6482 H   0  0  0  0  0  0  0  0  0  0  0  0
  150.8148  146.1213  158.2354 H   0  0  0  0  0  0  0  0  0  0  0  0
  151.2211  143.9397  157.1322 H   0  0  0  0  0  0  0  0  0  0  0  0
  153.0812  141.7359  157.5507 H   0  0  0  0  0  0  0  0  0  0  0  0
  152.4954  140.9086  158.9812 H   0  0  0  0  0  0  0  0  0  0  0  0
  150.6296  142.8585  156.2947 H   0  0  0  0  0  0  0  0  0  0  0  0
  151.9928  141.8673  155.8034 H   0  0  0  0  0  0  0  0  0  0  0  0
  149.7036  141.5808  154.4983 H   0  0  0  0  0  0  0  0  0  0  0  0
  150.5299  139.1040  155.2480 H   0  0  0  0  0  0  0  0  0  0  0  0
  149.1507  139.4688  156.5940 H   0  0  0  0  0  0  0  0  0  0  0  0
  148.4876  141.0605  156.8504 H   0  0  0  0  0  0  0  0  0  0  0  0
  146.8388  141.8990  154.5641 H   0  0  0  0  0  0  0  0  0  0  0  0
  144.9980  137.5183  152.8140 H   0  0  0  0  0  0  0  0  0  0  0  0
  148.9244  137.4470  155.9697 H   0  0  0  0  0  0  0  0  0  0  0  0
  145.2839  140.3616  153.2204 H   0  0  0  0  0  0  0  0  0  0  0  0
  1  2  1  0  0  0  0
  1 26  1  0  0  0  0
  1 27  1  0  0  0  0
  1 28  1  0  0  0  0
  2  3  1  0  0  0  0
  3  8  1  0  0  0  0
  3  4  2  0  0  0  0
  4  5  1  0  0  0  0
  4 29  1  0  0  0  0
  5  6  2  0  0  0  0
  5 30  1  0  0  0  0
  6  7  1  0  0  0  0
  6 31  1  0  0  0  0
  7  8  2  0  0  0  0
  7 32  1  0  0  0  0
  8  9  1  0  0  0  0
  9 10  1  0  0  0  0
  9 33  1  0  0  0  0
  9 34  1  0  0  0  0
 10 11  1  0  0  0  0
 11 12  1  0  0  0  0
 11 35  1  0  0  0  0
 11 36  1  0  0  0  0
 12 13  1  0  0  0  0
 12 14  1  0  0  0  0
 12 37  1  0  0  0  0
 13 38  1  0  0  0  0
 14 15  1  0  0  0  0
 14 39  1  0  0  0  0
 14 40  1  0  0  0  0
 15 25  1  0  0  0  0
 15 16  1  0  0  0  0
 16 17  2  0  0  0  0
 16 41  1  0  0  0  0
 17 18  1  0  0  0  0
 17 44  1  0  0  0  0
 18 25  2  0  0  0  0
 18 19  1  0  0  0  0
 19 20  2  0  0  0  0
 19 42  1  0  0  0  0
 20 21  1  0  0  0  0
 20 22  1  0  0  0  0
 22 23  1  0  0  0  0
 22 24  2  0  0  0  0
 24 25  1  0  0  0  0
 24 43  1  0  0  0  0
M  CHG  1  17   1
M  END
> <s_m_source_file>
AV-unprocessed.smi

> <i_m_source_file_index>
1012

> <i_lp_mmshare_version>
43012

> <i_f3d_flags>
0

> <s_epik_input>
W0NIM11PYzFbY0hdW2NIXVtjSF1bY0hdYzFbQ0gyXU9bQ0gyXVtDQEhdKFtPSF0pW0NIMl1uKFtjSF1uMiljKGMyMylbY0hdYyhGKWMoRilbY0hdMw==

> <s_epik_cmdline>
J2VwaWtfcHl0aG9uJywgJy1waCcsICc3LjAnLCAnLXRuJywgJzgnLCAnLW1hJywgJzIwMCcsICctbWV0YWxfYmluZGluZycsICctaW1hZScsICc8aW5maWxlLm1hZT4nLCAnLW9tYWUnLCAnPG91dGZpbGUubWFlPic=

> <r_lp_tautomer_probability>
1

> <r_epik_Ionization_Penalty>
2.14697

> <r_epik_Ionization_Penalty_Charging>
2.14697

> <r_epik_Ionization_Penalty_Neutral>
1.07667e-06

> <r_epik_State_Penalty>
2.28651

> <r_epik_Charging_Adjusted_Penalty>
4.43348

> <i_epik_Tot_Q>
1

> <i_epik_Tot_abs_Q>
1

> <r_epik_Metal_State_Penalty>
6.36664

> <b_epik_Metal_Only>
0

> <s_lp_Force_Field>
OPLS_2005

> <r_lp_Energy>
25.548

> <b_lp_Chiralities_Consistent>
1

> <s_lp_Variant>
AV-unprocessed.smi:1012-4

> <Gold.Version>
5.8.1

> <Gold.Id.Protein>
6NUR|6NUR_protein|mol2

> <Gold.PLP.Fitness>
50.8285

> <Gold.PLP.PLP>
-43.5675

> <Gold.PLP.part.hbond>
-2.0000

> <Gold.PLP.part.metal>
0.0000

> <Gold.PLP.part.buried>
-7.7983

> <Gold.PLP.part.nonpolar>
-32.9630

> <Gold.PLP.part.repulsive>
0.0394

> <Gold.PLP.ligand.clash>
0.0000

> <Gold.PLP.ligand.torsion>
0.9589

> <Gold.PLP.Chemscore.Hbond>
3.0000

> <Gold.PLP.Chemscore.CHOScore>
0.0000

> <Gold.PLP.Chemscore.Metal>
0.0000

> <Gold.Chemscore.Hbonds>
donor molecule, donor type, donor heavy atom, donor atom, acceptor molecule, acceptor atom, score
      L1  H    17    44       P1 10175  2.00
      P1  H  7989  7998       L1    13  0.75

> <Gold.PLP.Chemscore.Internal.Correction>
0.1789

> <Gold.Rescore>
     Score         DG    S(hbond)    S(metal)    S(lipo)     H(rot)  DE(clash)    DE(int)     intcor
     17.18     -18.07       1.90        0.00     119.56       3.03       0.02       0.87       ----

> <Gold.Chemscore.Fitness>
17.1811

> <Gold.Chemscore.DG>
-18.0713

> <Gold.Chemscore.ZeroCoef>
-5.4800

> <Gold.Chemscore.Hbond>
1.9025

> <Gold.Chemscore.Metal>
0.0000

> <Gold.Chemscore.Lipo>
119.5560

> <Gold.Chemscore.Internal_Hbond>
0.0000

> <Gold.Chemscore.DEClash>
0.0163

> <Gold.Chemscore.DEInternal>
0.8738

> <Gold.Chemscore.Rot>
3.0278

> <Gold.Chemscore.Internal.Correction>
   9.000000E+99

> <Gold.Chemscore.Hbonds>
donor molecule, donor type, donor heavy atom, donor atom, acceptor molecule, acceptor atom, score
      L1  H    17    44       P1 10175  0.98
      P1  H  7989  7998       L1    13  0.09

> <Gold.Chemscore.Hbond.Weighted>
-6.3544

> <Gold.Chemscore.Metal.Weighted>
-0.0000

> <Gold.Chemscore.Lipo.Weighted>
-13.9880

> <Gold.Chemscore.Internal_Hbond.Weighted>
0.0000

> <Gold.Chemscore.DEClash.Weighted>
0.0163

> <Gold.Chemscore.DEInternal.Weighted>
0.8738

> <Gold.Chemscore.Rot.Weighted>
7.7512

> <Gold.Chemscore.Internal.Correction.Weighted>
   9.000000E+99

> <Gold.Protein.RotatedTorsions>
[ 6907 6896 6895 6894 ] final   34.76 input  -60.11 | X-H torsion
[ 7974 7965 7964 7962 ] final -109.73 input  175.53 | X-H torsion
[ 8008 7997 7996 7995 ] final   90.81 input   59.86 | X-H torsion
[ 10167 10162 10161 10158 ] final -144.38 input  -65.29 | X-H torsion
[ 10718 10713 10712 10709 ] final   88.70 input   66.30 | X-H torsion
[ 10763 10752 10751 10750 ] final   79.70 input  -60.55 | X-H torsion
[ 11005 11000 10999 10996 ] final   95.69 input  -57.11 | X-H torsion

> <Gold.Protein.ActiveResidues>
 VAL166  LYS551  ARG553  GLY616  TRP617  ASP618  TYR619  PRO620  LYS621  CYS622 
 ASP623  PHE694  ASN695  SER759  ASP760  ASP761  ALA762  ILE779  LEU786  VAL792 
 PHE793  MET794  SER795  GLU796  ALA797  LYS798  CYS799  TRP800  GLU811  SER814 

> <Gold.Protein.RotatedAtoms>
  152.1069  134.9302  160.0567 H   0  0  0  0  0  0  0  0  0  0  0  0  # atno 6907 bound_to 6896
  152.0495  133.4008  159.4379 H   0  0  0  0  0  0  0  0  0  0  0  0  # atno 6908 bound_to 6896
  150.6841  134.3245  159.4844 H   0  0  0  0  0  0  0  0  0  0  0  0  # atno 6909 bound_to 6896
  145.1769  140.8952  143.3502 H   0  0  0  0  0  0  0  0  0  0  0  0  # atno 7974 bound_to 7965
  156.0163  140.3345  155.6992 H   0  0  0  0  0  0  0  0  0  0  0  0  # atno 8008 bound_to 7997
  155.6086  140.0663  157.2730 H   0  0  0  0  0  0  0  0  0  0  0  0  # atno 8009 bound_to 7997
  154.4299  140.1797  156.1236 H   0  0  0  0  0  0  0  0  0  0  0  0  # atno 8010 bound_to 7997
  139.7905  143.7973  152.2649 H   0  0  0  0  0  0  0  0  0  0  0  0  # atno 10167 bound_to 10162
  157.6951  131.0305  150.3314 H   0  0  0  0  0  0  0  0  0  0  0  0  # atno 10718 bound_to 10713
  153.0974  135.4830  154.8804 H   0  0  0  0  0  0  0  0  0  0  0  0  # atno 10763 bound_to 10752
  154.7340  135.3066  154.8845 H   0  0  0  0  0  0  0  0  0  0  0  0  # atno 10764 bound_to 10752
  153.9473  135.6827  153.4797 H   0  0  0  0  0  0  0  0  0  0  0  0  # atno 10765 bound_to 10752
  139.8787  134.8912  156.4048 H   0  0  0  0  0  0  0  0  0  0  0  0  # atno 11005 bound_to 11000
  145.0176  139.3453  143.6089 LP  0  0  0  0  0  0  0  0  0  0  0  0  # atno 17320 bound_to 7965
  146.3459  139.9463  142.8734 LP  0  0  0  0  0  0  0  0  0  0  0  0  # atno 17321 bound_to 7965
  139.8063  144.7354  150.9757 LP  0  0  0  0  0  0  0  0  0  0  0  0  # atno 17342 bound_to 10162
  140.7820  143.4295  151.0717 LP  0  0  0  0  0  0  0  0  0  0  0  0  # atno 17343 bound_to 10162
  156.3787  130.3876  149.7118 LP  0  0  0  0  0  0  0  0  0  0  0  0  # atno 17370 bound_to 10713
  156.4508  130.7906  151.2927 LP  0  0  0  0  0  0  0  0  0  0  0  0  # atno 17371 bound_to 10713
  140.9241  133.7624  155.9943 LP  0  0  0  0  0  0  0  0  0  0  0  0  # atno 17394 bound_to 11000
  140.8406  134.3071  157.5315 LP  0  0  0  0  0  0  0  0  0  0  0  0  # atno 17395 bound_to 11000

$$$$
