AV-unprocessed.smi:2985|AV-procd|sdf|11380|dock1
  -GOLD-   2272016303D 1   1.00000     0.00000
 Structure written by MMmdl.
 34 35  0  0  0  0  0  0  0  0  2 V2000
  153.3922  138.6915  154.4381 C   0  0  0  0  0  0  0  0  0  0  0  0
  152.9590  139.3435  155.6187 O   0  0  0  0  0  0  0  0  0  0  0  0
  151.7347  138.8228  156.1105 C   0  0  0  0  0  0  0  0  0  0  0  0
  151.3540  139.5265  157.4211 C   0  0  0  0  0  0  0  0  0  0  0  0
  151.1769  140.9758  157.2445 N   0  0  0  0  0  0  0  0  0  0  0  0
  150.4869  141.6706  156.2975 C   0  0  0  0  0  0  0  0  0  0  0  0
  149.5836  140.9940  154.9466 S   0  0  0  0  0  0  0  0  0  0  0  0
  147.9003  141.6248  155.1772 C   0  0  0  0  0  0  0  0  0  0  0  0
  146.9105  141.0181  154.1872 C   0  0  0  0  0  0  0  0  0  0  0  0
  145.6328  141.3897  154.2998 N   0  0  0  0  0  0  0  0  0  0  0  0
  147.2926  140.2215  153.3332 O   0  0  0  0  0  0  0  0  0  0  0  0
  150.6134  142.9959  156.5780 N   0  3  0  0  0  0  0  0  0  0  0  0
  151.3962  143.1556  157.7226 C   0  0  0  0  0  0  0  0  0  0  0  0
  151.8018  144.3046  158.3947 C   0  0  0  0  0  0  0  0  0  0  0  0
  152.5969  144.1179  159.5443 C   0  0  0  0  0  0  0  0  0  0  0  0
  152.9584  142.8285  159.9858 C   0  0  0  0  0  0  0  0  0  0  0  0
  152.5432  141.6708  159.2958 C   0  0  0  0  0  0  0  0  0  0  0  0
  151.7593  141.8628  158.1581 C   0  0  0  0  0  0  0  0  0  0  0  0
  154.3332  139.1276  154.1031 H   0  0  0  0  0  0  0  0  0  0  0  0
  152.6636  138.8058  153.6345 H   0  0  0  0  0  0  0  0  0  0  0  0
  153.5577  137.6275  154.6125 H   0  0  0  0  0  0  0  0  0  0  0  0
  150.9443  138.9680  155.3728 H   0  0  0  0  0  0  0  0  0  0  0  0
  151.8282  137.7489  156.2804 H   0  0  0  0  0  0  0  0  0  0  0  0
  150.4448  139.1013  157.8461 H   0  0  0  0  0  0  0  0  0  0  0  0
  152.1371  139.3737  158.1632 H   0  0  0  0  0  0  0  0  0  0  0  0
  147.5790  141.4056  156.1960 H   0  0  0  0  0  0  0  0  0  0  0  0
  147.9016  142.7098  155.0724 H   0  0  0  0  0  0  0  0  0  0  0  0
  144.9388  141.0135  153.6702 H   0  0  0  0  0  0  0  0  0  0  0  0
  145.3643  142.0456  155.0192 H   0  0  0  0  0  0  0  0  0  0  0  0
  151.5233  145.2935  158.0606 H   0  0  0  0  0  0  0  0  0  0  0  0
  152.9341  144.9806  160.1005 H   0  0  0  0  0  0  0  0  0  0  0  0
  153.5654  142.7242  160.8735 H   0  0  0  0  0  0  0  0  0  0  0  0
  152.8216  140.6886  159.6476 H   0  0  0  0  0  0  0  0  0  0  0  0
  150.1931  143.7332  156.0269 H   0  0  0  0  0  0  0  0  0  0  0  0
  1  2  1  0  0  0  0
  1 19  1  0  0  0  0
  1 20  1  0  0  0  0
  1 21  1  0  0  0  0
  2  3  1  0  0  0  0
  3  4  1  0  0  0  0
  3 22  1  0  0  0  0
  3 23  1  0  0  0  0
  4  5  1  0  0  0  0
  4 24  1  0  0  0  0
  4 25  1  0  0  0  0
  5 18  1  0  0  0  0
  5  6  1  0  0  0  0
  6  7  1  0  0  0  0
  6 12  2  0  0  0  0
  7  8  1  0  0  0  0
  8  9  1  0  0  0  0
  8 26  1  0  0  0  0
  8 27  1  0  0  0  0
  9 10  1  0  0  0  0
  9 11  2  0  0  0  0
 10 28  1  0  0  0  0
 10 29  1  0  0  0  0
 12 13  1  0  0  0  0
 12 34  1  0  0  0  0
 13 18  2  0  0  0  0
 13 14  1  0  0  0  0
 14 15  2  0  0  0  0
 14 30  1  0  0  0  0
 15 16  1  0  0  0  0
 15 31  1  0  0  0  0
 16 17  2  0  0  0  0
 16 32  1  0  0  0  0
 17 18  1  0  0  0  0
 17 33  1  0  0  0  0
M  CHG  1  12   1
M  END
> <s_m_source_file>
AV-unprocessed.smi

> <i_m_source_file_index>
2985

> <i_lp_mmshare_version>
43012

> <i_f3d_flags>
0

> <s_epik_input>
W2NIXTFbY0hdW2NIXVtjSF1jKGMxMiluKFtDSDJdW0NIMl1PW0NIM10pYyhuMilTW0NIMl1DKD1PKVtOSDJd

> <s_epik_cmdline>
J2VwaWtfcHl0aG9uJywgJy1waCcsICc3LjAnLCAnLXRuJywgJzgnLCAnLW1hJywgJzIwMCcsICctbWV0YWxfYmluZGluZycsICctaW1hZScsICc8aW5maWxlLm1hZT4nLCAnLW9tYWUnLCAnPG91dGZpbGUubWFlPic=

> <r_epik_Ionization_Penalty>
1.83623

> <r_epik_Ionization_Penalty_Charging>
1.83623

> <r_epik_Ionization_Penalty_Neutral>
3.318e-07

> <r_epik_State_Penalty>
1.95261

> <r_epik_Charging_Adjusted_Penalty>
3.78884

> <i_epik_Tot_Q>
1

> <i_epik_Tot_abs_Q>
1

> <r_epik_Metal_State_Penalty>
1.97924

> <b_epik_Metal_Only>
0

> <s_lp_Force_Field>
OPLS_2005

> <r_lp_Energy>
8.01345

> <b_lp_Chiralities_Consistent>
1

> <s_lp_Variant>
AV-unprocessed.smi:2985-2

> <Gold.Version>
5.8.1

> <Gold.Id.Protein>
6NUR|6NUR_protein|mol2

> <Gold.PLP.Fitness>
52.8755

> <Gold.PLP.PLP>
-41.2489

> <Gold.PLP.part.hbond>
-3.0000

> <Gold.PLP.part.metal>
0.0000

> <Gold.PLP.part.buried>
-5.7236

> <Gold.PLP.part.nonpolar>
-33.6567

> <Gold.PLP.part.repulsive>
0.2512

> <Gold.PLP.ligand.clash>
0.0000

> <Gold.PLP.ligand.torsion>
0.1733

> <Gold.PLP.Chemscore.Hbond>
3.9840

> <Gold.PLP.Chemscore.CHOScore>
0.0000

> <Gold.PLP.Chemscore.Metal>
0.0000

> <Gold.Chemscore.Hbonds>
donor molecule, donor type, donor heavy atom, donor atom, acceptor molecule, acceptor atom, score
      L1  H    10    28       P1 10175  1.00
      L1  H    12    34       P1  8028  2.00
      P1  H  7997  8010       L1     2  1.00

> <Gold.PLP.Chemscore.Internal.Correction>
0.0213

> <Gold.Rescore>
     Score         DG    S(hbond)    S(metal)    S(lipo)     H(rot)  DE(clash)    DE(int)     intcor
     19.08     -19.40       2.79        0.00      99.57       2.75       0.02       0.30       ----

> <Gold.Chemscore.Fitness>
19.0813

> <Gold.Chemscore.DG>
-19.4010

> <Gold.Chemscore.ZeroCoef>
-5.4800

> <Gold.Chemscore.Hbond>
2.7906

> <Gold.Chemscore.Metal>
0.0000

> <Gold.Chemscore.Lipo>
99.5719

> <Gold.Chemscore.Internal_Hbond>
0.0000

> <Gold.Chemscore.DEClash>
0.0199

> <Gold.Chemscore.DEInternal>
0.2998

> <Gold.Chemscore.Rot>
2.7537

> <Gold.Chemscore.Internal.Correction>
   9.000000E+99

> <Gold.Chemscore.Hbonds>
donor molecule, donor type, donor heavy atom, donor atom, acceptor molecule, acceptor atom, score
      L1  H    10    28       P1 10175  0.74
      L1  H    12    34       P1  8028  0.95
      P1  H  7997  8010       L1     2  0.67

> <Gold.Chemscore.Hbond.Weighted>
-9.3207

> <Gold.Chemscore.Metal.Weighted>
-0.0000

> <Gold.Chemscore.Lipo.Weighted>
-11.6499

> <Gold.Chemscore.Internal_Hbond.Weighted>
0.0000

> <Gold.Chemscore.DEClash.Weighted>
0.0199

> <Gold.Chemscore.DEInternal.Weighted>
0.2998

> <Gold.Chemscore.Rot.Weighted>
7.0496

> <Gold.Chemscore.Internal.Correction.Weighted>
   9.000000E+99

> <Gold.Protein.RotatedTorsions>
[ 6907 6896 6895 6894 ] final   73.92 input  -60.11 | X-H torsion
[ 7974 7965 7964 7962 ] final -121.91 input  175.53 | X-H torsion
[ 8008 7997 7996 7995 ] final   70.51 input   59.86 | X-H torsion
[ 10167 10162 10161 10158 ] final  152.50 input  -65.29 | X-H torsion
[ 10718 10713 10712 10709 ] final  134.23 input   66.30 | X-H torsion
[ 10763 10752 10751 10750 ] final   93.91 input  -60.55 | X-H torsion
[ 11005 11000 10999 10996 ] final -138.66 input  -57.11 | X-H torsion

> <Gold.Protein.ActiveResidues>
 VAL166  LYS551  ARG553  GLY616  TRP617  ASP618  TYR619  PRO620  LYS621  CYS622 
 ASP623  PHE694  ASN695  SER759  ASP760  ASP761  ALA762  ILE779  LEU786  VAL792 
 PHE793  MET794  SER795  GLU796  ALA797  LYS798  CYS799  TRP800  GLU811  SER814 

> <Gold.Protein.RotatedAtoms>
  152.4949  134.4349  159.9524 H   0  0  0  0  0  0  0  0  0  0  0  0  # atno 6907 bound_to 6896
  151.4330  133.3659  159.2779 H   0  0  0  0  0  0  0  0  0  0  0  0  # atno 6908 bound_to 6896
  150.9141  134.8582  159.7505 H   0  0  0  0  0  0  0  0  0  0  0  0  # atno 6909 bound_to 6896
  145.0352  140.8100  143.4299 H   0  0  0  0  0  0  0  0  0  0  0  0  # atno 7974 bound_to 7965
  155.7399  140.3490  155.5099 H   0  0  0  0  0  0  0  0  0  0  0  0  # atno 8008 bound_to 7997
  155.9104  140.1049  157.1305 H   0  0  0  0  0  0  0  0  0  0  0  0  # atno 8009 bound_to 7997
  154.4055  140.1269  156.4537 H   0  0  0  0  0  0  0  0  0  0  0  0  # atno 8010 bound_to 7997
  139.4832  144.5352  151.7656 H   0  0  0  0  0  0  0  0  0  0  0  0  # atno 10167 bound_to 10162
  157.4693  131.1079  150.9822 H   0  0  0  0  0  0  0  0  0  0  0  0  # atno 10718 bound_to 10713
  153.2356  135.4308  155.0643 H   0  0  0  0  0  0  0  0  0  0  0  0  # atno 10763 bound_to 10752
  154.8317  135.3390  154.6723 H   0  0  0  0  0  0  0  0  0  0  0  0  # atno 10764 bound_to 10752
  153.7149  135.7020  153.5084 H   0  0  0  0  0  0  0  0  0  0  0  0  # atno 10765 bound_to 10752
  140.8594  134.2187  157.4716 H   0  0  0  0  0  0  0  0  0  0  0  0  # atno 11005 bound_to 11000
  145.1718  139.2400  143.5338 LP  0  0  0  0  0  0  0  0  0  0  0  0  # atno 17320 bound_to 7965
  146.3503  140.1471  142.8593 LP  0  0  0  0  0  0  0  0  0  0  0  0  # atno 17321 bound_to 7965
  140.4884  144.1346  150.5945 LP  0  0  0  0  0  0  0  0  0  0  0  0  # atno 17342 bound_to 10162
  140.4199  143.2616  151.9729 LP  0  0  0  0  0  0  0  0  0  0  0  0  # atno 17343 bound_to 10162
  157.0592  130.5819  149.5383 LP  0  0  0  0  0  0  0  0  0  0  0  0  # atno 17370 bound_to 10713
  156.0066  130.5153  150.7849 LP  0  0  0  0  0  0  0  0  0  0  0  0  # atno 17371 bound_to 10713
  139.8706  134.9722  156.4765 LP  0  0  0  0  0  0  0  0  0  0  0  0  # atno 17394 bound_to 11000
  140.8700  133.7996  155.9354 LP  0  0  0  0  0  0  0  0  0  0  0  0  # atno 17395 bound_to 11000

$$$$
