AV-unprocessed.smi:2089|AV-procd|sdf|8529|dock1
  -GOLD-   2272011243D 1   1.00000     0.00000
 Structure written by MMmdl.
 39 40  0  0  0  0  0  0  0  0  1 V2000
  147.1095  142.2161  157.4312 C   0  0  0  0  0  0  0  0  0  0  0  0
  146.9269  140.4068  157.1558 S   0  0  0  0  0  0  0  0  0  0  0  0
  147.6617  139.6809  158.2030 O   0  0  0  0  0  0  0  0  0  0  0  0
  145.5022  140.1204  156.9283 O   0  0  0  0  0  0  0  0  0  0  0  0
  147.7618  140.1584  155.6582 N   0  0  0  0  0  0  0  0  0  0  0  0
  147.0739  139.4134  154.5944 C   0  0  0  0  0  0  0  0  0  0  0  0
  147.0568  140.3438  153.3861 C   0  0  0  0  0  0  0  0  0  0  0  0
  148.3450  141.1355  153.5470 C   0  0  0  0  0  0  0  0  0  0  0  0
  148.4749  141.3064  155.0700 C   0  0  2  0  0  0  0  0  0  0  0  0
  149.9305  141.4278  155.5382 C   0  0  0  0  0  0  0  0  0  0  0  0
  150.7571  140.5670  155.2340 O   0  0  0  0  0  0  0  0  0  0  0  0
  150.2267  142.4917  156.2981 N   0  0  0  0  0  0  0  0  0  0  0  0
  151.5435  142.7597  156.8582 C   0  0  0  0  0  0  0  0  0  0  0  0
  151.5162  144.0192  157.7348 C   0  0  0  0  0  0  0  0  0  0  0  0
  152.0298  143.7507  159.1366 C   0  0  0  0  0  0  0  0  0  0  0  0
  151.8825  144.7157  160.1557 C   0  0  0  0  0  0  0  0  0  0  0  0
  152.3648  144.4105  161.4432 C   0  0  0  0  0  0  0  0  0  0  0  0
  152.9714  143.1584  161.6613 C   0  0  0  0  0  0  0  0  0  0  0  0
  153.0702  142.2639  160.5771 C   0  0  0  0  0  0  0  0  0  0  0  0
  152.6115  142.5468  159.3386 N   0  0  0  0  0  0  0  0  0  0  0  0
  146.5804  142.4978  158.3414 H   0  0  0  0  0  0  0  0  0  0  0  0
  146.6866  142.7571  156.5850 H   0  0  0  0  0  0  0  0  0  0  0  0
  148.1639  142.4708  157.5350 H   0  0  0  0  0  0  0  0  0  0  0  0
  147.6454  138.5108  154.3763 H   0  0  0  0  0  0  0  0  0  0  0  0
  146.0685  139.1142  154.8912 H   0  0  0  0  0  0  0  0  0  0  0  0
  147.0028  139.8073  152.4386 H   0  0  0  0  0  0  0  0  0  0  0  0
  146.1984  141.0141  153.4461 H   0  0  0  0  0  0  0  0  0  0  0  0
  149.1765  140.5652  153.1297 H   0  0  0  0  0  0  0  0  0  0  0  0
  148.3033  142.0918  153.0244 H   0  0  0  0  0  0  0  0  0  0  0  0
  147.9312  142.2114  155.3487 H   0  0  0  0  0  0  0  0  0  0  0  0
  149.4890  143.1455  156.5171 H   0  0  0  0  0  0  0  0  0  0  0  0
  151.8636  141.8999  157.4490 H   0  0  0  0  0  0  0  0  0  0  0  0
  152.2646  142.8827  156.0483 H   0  0  0  0  0  0  0  0  0  0  0  0
  152.1222  144.8048  157.2810 H   0  0  0  0  0  0  0  0  0  0  0  0
  150.4998  144.4111  157.7938 H   0  0  0  0  0  0  0  0  0  0  0  0
  151.4084  145.6660  159.9583 H   0  0  0  0  0  0  0  0  0  0  0  0
  152.2699  145.1228  162.2492 H   0  0  0  0  0  0  0  0  0  0  0  0
  153.3510  142.8894  162.6358 H   0  0  0  0  0  0  0  0  0  0  0  0
  153.5288  141.2949  160.7081 H   0  0  0  0  0  0  0  0  0  0  0  0
  1  2  1  0  0  0  0
  1 21  1  0  0  0  0
  1 22  1  0  0  0  0
  1 23  1  0  0  0  0
  2  3  2  0  0  0  0
  2  4  2  0  0  0  0
  2  5  1  0  0  0  0
  5  9  1  0  0  0  0
  5  6  1  0  0  0  0
  6  7  1  0  0  0  0
  6 24  1  0  0  0  0
  6 25  1  0  0  0  0
  7  8  1  0  0  0  0
  7 26  1  0  0  0  0
  7 27  1  0  0  0  0
  8  9  1  0  0  0  0
  8 28  1  0  0  0  0
  8 29  1  0  0  0  0
  9 10  1  0  0  0  0
  9 30  1  0  0  0  0
 10 11  2  0  0  0  0
 10 12  1  0  0  0  0
 12 13  1  0  0  0  0
 12 31  1  0  0  0  0
 13 14  1  0  0  0  0
 13 32  1  0  0  0  0
 13 33  1  0  0  0  0
 14 15  1  0  0  0  0
 14 34  1  0  0  0  0
 14 35  1  0  0  0  0
 15 20  1  0  0  0  0
 15 16  2  0  0  0  0
 16 17  1  0  0  0  0
 16 36  1  0  0  0  0
 17 18  2  0  0  0  0
 17 37  1  0  0  0  0
 18 19  1  0  0  0  0
 18 38  1  0  0  0  0
 19 20  2  0  0  0  0
 19 39  1  0  0  0  0
M  END
> <s_m_source_file>
AV-unprocessed.smi

> <i_m_source_file_index>
2089

> <i_lp_mmshare_version>
43012

> <i_f3d_flags>
0

> <s_epik_input>
W0NIM11TKD1PKSg9TylOMVtDSDJdW0NIMl1bQ0gyXVtDQEhdMUMoPU8pW05IXVtDSDJdW0NIMl1jMltjSF1bY0hdW2NIXVtjSF1uMg==

> <s_epik_cmdline>
J2VwaWtfcHl0aG9uJywgJy1waCcsICc3LjAnLCAnLXRuJywgJzgnLCAnLW1hJywgJzIwMCcsICctbWV0YWxfYmluZGluZycsICctaW1hZScsICc8aW5maWxlLm1hZT4nLCAnLW9tYWUnLCAnPG91dGZpbGUubWFlPic=

> <r_epik_Ionization_Penalty>
0.0244371

> <r_epik_Ionization_Penalty_Charging>
0

> <r_epik_Ionization_Penalty_Neutral>
0.0244371

> <r_epik_State_Penalty>
0.0198365

> <r_epik_Charging_Adjusted_Penalty>
0.0198365

> <i_epik_Tot_Q>
0

> <i_epik_Tot_abs_Q>
0

> <r_epik_Metal_State_Penalty>
0.0190441

> <b_epik_Metal_Only>
0

> <s_lp_Force_Field>
OPLS_2005

> <r_lp_Energy>
5.6995

> <b_lp_Chiralities_Consistent>
1

> <s_lp_Variant>
AV-unprocessed.smi:2089-2

> <Gold.Version>
5.8.1

> <Gold.Id.Protein>
6NUR|6NUR_protein|mol2

> <Gold.PLP.Fitness>
43.4277

> <Gold.PLP.PLP>
-39.6314

> <Gold.PLP.part.hbond>
-3.0000

> <Gold.PLP.part.metal>
0.0000

> <Gold.PLP.part.buried>
-3.8168

> <Gold.PLP.part.nonpolar>
-32.7534

> <Gold.PLP.part.repulsive>
0.1747

> <Gold.PLP.ligand.clash>
0.0000

> <Gold.PLP.ligand.torsion>
0.7687

> <Gold.PLP.Chemscore.Hbond>
1.5840

> <Gold.PLP.Chemscore.CHOScore>
0.0000

> <Gold.PLP.Chemscore.Metal>
0.0000

> <Gold.Chemscore.Hbonds>
donor molecule, donor type, donor heavy atom, donor atom, acceptor molecule, acceptor atom, score
      L1  H    12    31       P1  8028  0.66
      P1  H  7989  7998       L1    11  0.96

> <Gold.PLP.Chemscore.Internal.Correction>
0.5816

> <Gold.Rescore>
     Score         DG    S(hbond)    S(metal)    S(lipo)     H(rot)  DE(clash)    DE(int)     intcor
     16.35     -18.30       1.42        0.00     110.53       1.90       1.14       0.82       ----

> <Gold.Chemscore.Fitness>
16.3451

> <Gold.Chemscore.DG>
-18.3044

> <Gold.Chemscore.ZeroCoef>
-5.4800

> <Gold.Chemscore.Hbond>
1.4231

> <Gold.Chemscore.Metal>
0.0000

> <Gold.Chemscore.Lipo>
110.5346

> <Gold.Chemscore.Internal_Hbond>
0.0000

> <Gold.Chemscore.DEClash>
1.1364

> <Gold.Chemscore.DEInternal>
0.8230

> <Gold.Chemscore.Rot>
1.8990

> <Gold.Chemscore.Internal.Correction>
   9.000000E+99

> <Gold.Chemscore.Hbonds>
donor molecule, donor type, donor heavy atom, donor atom, acceptor molecule, acceptor atom, score
      L1  H    12    31       P1  8028  0.66
      P1  H  7989  7998       L1    11  0.80

> <Gold.Chemscore.Hbond.Weighted>
-4.7532

> <Gold.Chemscore.Metal.Weighted>
-0.0000

> <Gold.Chemscore.Lipo.Weighted>
-12.9326

> <Gold.Chemscore.Internal_Hbond.Weighted>
0.0000

> <Gold.Chemscore.DEClash.Weighted>
1.1364

> <Gold.Chemscore.DEInternal.Weighted>
0.8230

> <Gold.Chemscore.Rot.Weighted>
4.8613

> <Gold.Chemscore.Internal.Correction.Weighted>
   9.000000E+99

> <Gold.Protein.RotatedTorsions>
[ 6907 6896 6895 6894 ] final   44.57 input  -60.11 | X-H torsion
[ 7974 7965 7964 7962 ] final  -87.28 input  175.53 | X-H torsion
[ 8008 7997 7996 7995 ] final   79.02 input   59.86 | X-H torsion
[ 10167 10162 10161 10158 ] final  150.26 input  -65.29 | X-H torsion
[ 10718 10713 10712 10709 ] final  -39.68 input   66.30 | X-H torsion
[ 10763 10752 10751 10750 ] final  129.54 input  -60.55 | X-H torsion
[ 11005 11000 10999 10996 ] final   37.07 input  -57.11 | X-H torsion

> <Gold.Protein.ActiveResidues>
 VAL166  LYS551  ARG553  GLY616  TRP617  ASP618  TYR619  PRO620  LYS621  CYS622 
 ASP623  PHE694  ASN695  SER759  ASP760  ASP761  ALA762  ILE779  LEU786  VAL792 
 PHE793  MET794  SER795  GLU796  ALA797  LYS798  CYS799  TRP800  GLU811  SER814 

> <Gold.Protein.RotatedAtoms>
  152.2341  134.8293  160.0469 H   0  0  0  0  0  0  0  0  0  0  0  0  # atno 6907 bound_to 6896
  151.9032  133.3538  159.3846 H   0  0  0  0  0  0  0  0  0  0  0  0  # atno 6908 bound_to 6896
  150.7034  134.4733  159.5480 H   0  0  0  0  0  0  0  0  0  0  0  0  # atno 6909 bound_to 6896
  145.4686  140.9560  143.1929 H   0  0  0  0  0  0  0  0  0  0  0  0  # atno 7974 bound_to 7965
  155.8638  140.3452  155.5774 H   0  0  0  0  0  0  0  0  0  0  0  0  # atno 8008 bound_to 7997
  155.7903  140.0871  157.2031 H   0  0  0  0  0  0  0  0  0  0  0  0  # atno 8009 bound_to 7997
  154.4013  140.1484  156.3143 H   0  0  0  0  0  0  0  0  0  0  0  0  # atno 8010 bound_to 7997
  139.4852  144.5536  151.7357 H   0  0  0  0  0  0  0  0  0  0  0  0  # atno 10167 bound_to 10162
  156.2898  130.4227  149.8251 H   0  0  0  0  0  0  0  0  0  0  0  0  # atno 10718 bound_to 10713
  153.7435  135.3220  155.3308 H   0  0  0  0  0  0  0  0  0  0  0  0  # atno 10763 bound_to 10752
  154.8287  135.4550  154.1003 H   0  0  0  0  0  0  0  0  0  0  0  0  # atno 10764 bound_to 10752
  153.2185  135.6945  153.8111 H   0  0  0  0  0  0  0  0  0  0  0  0  # atno 10765 bound_to 10752
  140.2262  134.3581  155.7983 H   0  0  0  0  0  0  0  0  0  0  0  0  # atno 11005 bound_to 11000
  144.7959  139.6236  143.7093 LP  0  0  0  0  0  0  0  0  0  0  0  0  # atno 17320 bound_to 7965
  146.2410  139.6001  142.9491 LP  0  0  0  0  0  0  0  0  0  0  0  0  # atno 17321 bound_to 7965
  140.5094  144.1048  150.5991 LP  0  0  0  0  0  0  0  0  0  0  0  0  # atno 17342 bound_to 10162
  140.3968  143.2724  151.9995 LP  0  0  0  0  0  0  0  0  0  0  0  0  # atno 17343 bound_to 10162
  156.5668  130.8407  151.3345 LP  0  0  0  0  0  0  0  0  0  0  0  0  # atno 17370 bound_to 10713
  157.7339  130.9737  150.2001 LP  0  0  0  0  0  0  0  0  0  0  0  0  # atno 17371 bound_to 10713
  141.2220  133.7220  156.8657 LP  0  0  0  0  0  0  0  0  0  0  0  0  # atno 17394 bound_to 11000
  140.1797  134.9042  157.2934 LP  0  0  0  0  0  0  0  0  0  0  0  0  # atno 17395 bound_to 11000

$$$$
