AV-unprocessed.smi:1268|AV-procd|sdf|5326|dock1
  -GOLD-   22720 4453D 1   1.00000     0.00000
 Structure written by MMmdl.
 39 40  0  0  0  0  0  0  0  0  3 V2000
  148.9486  141.8089  154.3503 O   0  0  0  0  0  0  0  0  0  0  0  0
  149.2640  140.6211  154.4581 C   0  0  0  0  0  0  0  0  0  0  0  0
  148.4222  139.6663  154.0372 N   0  0  0  0  0  0  0  0  0  0  0  0
  147.1144  139.8914  153.4296 C   0  0  0  0  0  0  0  0  0  0  0  0
  146.6727  138.6962  152.5599 C   0  0  1  0  0  0  0  0  0  0  0  0
  147.6818  138.4528  151.5995 O   0  0  0  0  0  0  0  0  0  0  0  0
  146.5093  137.4149  153.4005 C   0  0  0  0  0  0  0  0  0  0  0  0
  146.3647  136.1993  152.5592 N   0  3  0  0  0  0  0  0  0  0  0  0
  145.2483  136.2919  151.5795 C   0  0  0  0  0  0  0  0  0  0  0  0
  145.2280  135.0700  150.6456 C   0  0  0  0  0  0  0  0  0  0  0  0
  145.1399  133.7657  151.4482 C   0  0  0  0  0  0  0  0  0  0  0  0
  146.2765  133.7066  152.4771 C   0  0  0  0  0  0  0  0  0  0  0  0
  146.2777  134.9579  153.3713 C   0  0  0  0  0  0  0  0  0  0  0  0
  150.4197  140.1409  154.9683 N   0  5  0  0  0  0  0  0  0  0  0  0
  150.7779  140.4480  156.2258 C   0  0  0  0  0  0  0  0  0  0  0  0
  151.8572  139.9308  156.8237 N   0  0  0  0  0  0  0  0  0  0  0  0
  152.0440  140.3921  158.1281 C   0  0  0  0  0  0  0  0  0  0  0  0
  151.0883  141.2870  158.5302 C   0  0  0  0  0  0  0  0  0  0  0  0
  149.9191  141.5799  157.2746 S   0  0  0  0  0  0  0  0  0  0  0  0
  148.7166  138.7071  154.1497 H   0  0  0  0  0  0  0  0  0  0  0  0
  146.3821  140.1029  154.2097 H   0  0  0  0  0  0  0  0  0  0  0  0
  147.1749  140.7971  152.8236 H   0  0  0  0  0  0  0  0  0  0  0  0
  145.7416  138.9308  152.0454 H   0  0  0  0  0  0  0  0  0  0  0  0
  148.4146  139.0198  151.7899 H   0  0  0  0  0  0  0  0  0  0  0  0
  147.3774  137.3171  154.0549 H   0  0  0  0  0  0  0  0  0  0  0  0
  145.6428  137.4951  154.0590 H   0  0  0  0  0  0  0  0  0  0  0  0
  144.3001  136.3693  152.1138 H   0  0  0  0  0  0  0  0  0  0  0  0
  145.3419  137.1941  150.9763 H   0  0  0  0  0  0  0  0  0  0  0  0
  144.3859  135.1409  149.9565 H   0  0  0  0  0  0  0  0  0  0  0  0
  146.1301  135.0637  150.0321 H   0  0  0  0  0  0  0  0  0  0  0  0
  144.1770  133.7094  151.9578 H   0  0  0  0  0  0  0  0  0  0  0  0
  145.1911  132.9062  150.7791 H   0  0  0  0  0  0  0  0  0  0  0  0
  146.1777  132.8099  153.0896 H   0  0  0  0  0  0  0  0  0  0  0  0
  147.2341  133.6246  151.9609 H   0  0  0  0  0  0  0  0  0  0  0  0
  147.1259  134.9047  154.0551 H   0  0  0  0  0  0  0  0  0  0  0  0
  145.3758  134.9854  153.9849 H   0  0  0  0  0  0  0  0  0  0  0  0
  152.8867  140.0308  158.6985 H   0  0  0  0  0  0  0  0  0  0  0  0
  151.0011  141.7900  159.4812 H   0  0  0  0  0  0  0  0  0  0  0  0
  147.2205  136.1277  152.0270 H   0  0  0  0  0  0  0  0  0  0  0  0
  1  2  2  0  0  0  0
  2  3  1  0  0  0  0
  2 14  1  0  0  0  0
  3  4  1  0  0  0  0
  3 20  1  0  0  0  0
  4  5  1  0  0  0  0
  4 21  1  0  0  0  0
  4 22  1  0  0  0  0
  5  6  1  0  0  0  0
  5  7  1  0  0  0  0
  5 23  1  0  0  0  0
  6 24  1  0  0  0  0
  7  8  1  0  0  0  0
  7 25  1  0  0  0  0
  7 26  1  0  0  0  0
  8 13  1  0  0  0  0
  8  9  1  0  0  0  0
  8 39  1  0  0  0  0
  9 10  1  0  0  0  0
  9 27  1  0  0  0  0
  9 28  1  0  0  0  0
 10 11  1  0  0  0  0
 10 29  1  0  0  0  0
 10 30  1  0  0  0  0
 11 12  1  0  0  0  0
 11 31  1  0  0  0  0
 11 32  1  0  0  0  0
 12 13  1  0  0  0  0
 12 33  1  0  0  0  0
 12 34  1  0  0  0  0
 13 35  1  0  0  0  0
 13 36  1  0  0  0  0
 14 15  1  0  0  0  0
 15 19  1  0  0  0  0
 15 16  2  0  0  0  0
 16 17  1  0  0  0  0
 17 18  2  0  0  0  0
 17 37  1  0  0  0  0
 18 19  1  0  0  0  0
 18 38  1  0  0  0  0
M  CHG  1   8   1
M  CHG  1  14  -1
M  END
> <s_m_source_file>
AV-unprocessed.smi

> <i_m_source_file_index>
1268

> <i_lp_mmshare_version>
43012

> <i_f3d_flags>
0

> <s_epik_input>
czFbY0hdW2NIXW5jMVtOSF1DKD1PKVtOSF1bQ0gyXVtDQEhdKFtPSF0pW0NIMl1OMltDSDJdW0NIMl1bQ0gyXVtDSDJdW0NIMl0y

> <s_epik_cmdline>
J2VwaWtfcHl0aG9uJywgJy1waCcsICc3LjAnLCAnLXRuJywgJzgnLCAnLW1hJywgJzIwMCcsICctbWV0YWxfYmluZGluZycsICctaW1hZScsICc8aW5maWxlLm1hZT4nLCAnLW9tYWUnLCAnPG91dGZpbGUubWFlPic=

> <r_lp_tautomer_probability>
0.999

> <r_epik_Ionization_Penalty>
6.36291

> <r_epik_Ionization_Penalty_Charging>
5.4816

> <r_epik_Ionization_Penalty_Neutral>
0.881305

> <r_epik_State_Penalty>
5.4805

> <r_epik_Charging_Adjusted_Penalty>
10.9621

> <i_epik_Tot_Q>
0

> <i_epik_Tot_abs_Q>
2

> <r_epik_Metal_State_Penalty>
1.48871

> <b_epik_Metal_Only>
1

> <s_lp_Force_Field>
OPLS_2005

> <r_lp_Energy>
8.43067

> <b_lp_Chiralities_Consistent>
1

> <s_lp_Variant>
AV-unprocessed.smi:1268-4

> <Gold.Version>
5.8.1

> <Gold.Id.Protein>
6NUR|6NUR_protein|mol2

> <Gold.PLP.Fitness>
49.0784

> <Gold.PLP.PLP>
-34.6022

> <Gold.PLP.part.hbond>
-6.9707

> <Gold.PLP.part.metal>
0.0000

> <Gold.PLP.part.buried>
-2.3046

> <Gold.PLP.part.nonpolar>
-24.5249

> <Gold.PLP.part.repulsive>
0.4607

> <Gold.PLP.ligand.clash>
0.0000

> <Gold.PLP.ligand.torsion>
0.7884

> <Gold.PLP.Chemscore.Hbond>
5.2615

> <Gold.PLP.Chemscore.CHOScore>
0.0000

> <Gold.PLP.Chemscore.Metal>
0.0000

> <Gold.Chemscore.Hbonds>
donor molecule, donor type, donor heavy atom, donor atom, acceptor molecule, acceptor atom, score
      L1  H     6    24       P1  7957  0.90
      L1  H     8    39       P1  7948  2.00
      P1  H  7954  7966       L1     6  0.95
      P1  H  7989  7998       L1    14  0.78
      P1  H  8011  8017       L1     1  0.20

> <Gold.PLP.Chemscore.Internal.Correction>
0.2686

> <Gold.Rescore>
     Score         DG    S(hbond)    S(metal)    S(lipo)     H(rot)  DE(clash)    DE(int)     intcor
     13.92     -15.24       2.80        0.00      57.78       2.48       0.34       0.97       ----

> <Gold.Chemscore.Fitness>
13.9193

> <Gold.Chemscore.DG>
-15.2365

> <Gold.Chemscore.ZeroCoef>
-5.4800

> <Gold.Chemscore.Hbond>
2.8007

> <Gold.Chemscore.Metal>
0.0000

> <Gold.Chemscore.Lipo>
57.7753

> <Gold.Chemscore.Internal_Hbond>
0.0000

> <Gold.Chemscore.DEClash>
0.3448

> <Gold.Chemscore.DEInternal>
0.9724

> <Gold.Chemscore.Rot>
2.4834

> <Gold.Chemscore.Internal.Correction>
   9.000000E+99

> <Gold.Chemscore.Hbonds>
donor molecule, donor type, donor heavy atom, donor atom, acceptor molecule, acceptor atom, score
      L1  H     6    24       P1  7957  0.80
      L1  H     8    39       P1  7948  0.98
      P1  H  7954  7966       L1     6  0.20
      P1  H  7989  7998       L1    14  0.10
      P1  H  8011  8017       L1     1  0.10

> <Gold.Chemscore.Hbond.Weighted>
-9.3543

> <Gold.Chemscore.Metal.Weighted>
-0.0000

> <Gold.Chemscore.Lipo.Weighted>
-6.7597

> <Gold.Chemscore.Internal_Hbond.Weighted>
0.0000

> <Gold.Chemscore.DEClash.Weighted>
0.3448

> <Gold.Chemscore.DEInternal.Weighted>
0.9724

> <Gold.Chemscore.Rot.Weighted>
6.3575

> <Gold.Chemscore.Internal.Correction.Weighted>
   9.000000E+99

> <Gold.Protein.RotatedTorsions>
[ 6907 6896 6895 6894 ] final   86.16 input  -60.11 | X-H torsion
[ 7974 7965 7964 7962 ] final  -83.34 input  175.53 | X-H torsion
[ 8008 7997 7996 7995 ] final  -38.06 input   59.86 | X-H torsion
[ 10167 10162 10161 10158 ] final  144.95 input  -65.29 | X-H torsion
[ 10718 10713 10712 10709 ] final   14.11 input   66.30 | X-H torsion
[ 10763 10752 10751 10750 ] final  123.58 input  -60.55 | X-H torsion
[ 11005 11000 10999 10996 ] final  -65.40 input  -57.11 | X-H torsion

> <Gold.Protein.ActiveResidues>
 VAL166  LYS551  ARG553  GLY616  TRP617  ASP618  TYR619  PRO620  LYS621  CYS622 
 ASP623  PHE694  ASN695  SER759  ASP760  ASP761  ALA762  ILE779  LEU786  VAL792 
 PHE793  MET794  SER795  GLU796  ALA797  LYS798  CYS799  TRP800  GLU811  SER814 

> <Gold.Protein.RotatedAtoms>
  152.5389  134.2473  159.8885 H   0  0  0  0  0  0  0  0  0  0  0  0  # atno 6907 bound_to 6896
  151.2438  133.4379  159.2616 H   0  0  0  0  0  0  0  0  0  0  0  0  # atno 6908 bound_to 6896
  151.0602  134.9745  159.8312 H   0  0  0  0  0  0  0  0  0  0  0  0  # atno 6909 bound_to 6896
  145.5213  140.9531  143.1654 H   0  0  0  0  0  0  0  0  0  0  0  0  # atno 7974 bound_to 7965
  154.4043  140.1588  156.2638 H   0  0  0  0  0  0  0  0  0  0  0  0  # atno 8008 bound_to 7997
  155.9013  140.3433  155.6006 H   0  0  0  0  0  0  0  0  0  0  0  0  # atno 8009 bound_to 7997
  155.7445  140.0797  157.2221 H   0  0  0  0  0  0  0  0  0  0  0  0  # atno 8010 bound_to 7997
  139.4936  144.5936  151.6629 H   0  0  0  0  0  0  0  0  0  0  0  0  # atno 10167 bound_to 10162
  157.0344  130.6206  149.5740 H   0  0  0  0  0  0  0  0  0  0  0  0  # atno 10718 bound_to 10713
  153.6478  135.3368  155.3091 H   0  0  0  0  0  0  0  0  0  0  0  0  # atno 10763 bound_to 10752
  154.8545  135.4333  154.1936 H   0  0  0  0  0  0  0  0  0  0  0  0  # atno 10764 bound_to 10752
  153.2871  135.7014  153.7403 H   0  0  0  0  0  0  0  0  0  0  0  0  # atno 10765 bound_to 10752
  141.1453  133.6681  156.5981 H   0  0  0  0  0  0  0  0  0  0  0  0  # atno 11005 bound_to 11000
  144.7675  139.6812  143.7209 LP  0  0  0  0  0  0  0  0  0  0  0  0  # atno 17320 bound_to 7965
  146.2104  139.5457  142.9685 LP  0  0  0  0  0  0  0  0  0  0  0  0  # atno 17321 bound_to 7965
  140.5569  144.0333  150.6152 LP  0  0  0  0  0  0  0  0  0  0  0  0  # atno 17342 bound_to 10162
  140.3406  143.3022  152.0592 LP  0  0  0  0  0  0  0  0  0  0  0  0  # atno 17343 bound_to 10162
  156.0059  130.5145  150.7826 LP  0  0  0  0  0  0  0  0  0  0  0  0  # atno 17370 bound_to 10713
  157.5153  131.0928  151.0147 LP  0  0  0  0  0  0  0  0  0  0  0  0  # atno 17371 bound_to 10713
  140.3710  134.7605  157.4598 LP  0  0  0  0  0  0  0  0  0  0  0  0  # atno 17394 bound_to 11000
  140.0710  134.5862  155.8642 LP  0  0  0  0  0  0  0  0  0  0  0  0  # atno 17395 bound_to 11000

$$$$
