AV-unprocessed.smi:109|AV-procd|sdf|1043|dock1
  -GOLD-   2262018 73D 1   1.00000     0.00000
 Structure written by MMmdl.
 58 61  0  0  0  0  0  0  0  0  1 V2000
  142.7336  132.9492  157.3001 O   0  0  0  0  0  0  0  0  0  0  0  0
  143.3398  132.4882  158.4883 C   0  0  0  0  0  0  0  0  0  0  0  0
  144.8109  132.9352  158.5316 C   0  0  0  0  0  0  0  0  0  0  0  0
  145.0125  134.4274  158.8947 C   0  0  2  0  0  0  0  0  0  0  0  0
  146.0372  135.0067  158.0233 N   0  0  0  0  0  0  0  0  0  0  0  0
  146.0573  134.7789  156.6910 C   0  0  0  0  0  0  0  0  0  0  0  0
  146.8535  133.8241  156.1436 N   0  0  0  0  0  0  0  0  0  0  0  0
  146.8593  133.6348  154.8208 C   0  0  0  0  0  0  0  0  0  0  0  0
  146.1564  134.2746  153.8832 N   0  0  0  0  0  0  0  0  0  0  0  0
  145.3493  135.2303  154.4291 C   0  0  0  0  0  0  0  0  0  0  0  0
  145.2471  135.5431  155.8127 C   0  0  0  0  0  0  0  0  0  0  0  0
  144.3350  136.5731  155.9950 N   0  0  0  0  0  0  0  0  0  0  0  0
  143.9270  136.8503  154.7860 C   0  0  0  0  0  0  0  0  0  0  0  0
  144.4786  136.0801  153.7804 N   0  0  0  0  0  0  0  0  0  0  0  0
  144.2741  136.1388  152.2925 C   0  0  2  0  0  0  0  0  0  0  0  0
  143.5695  135.0015  151.9109 O   0  0  0  0  0  0  0  0  0  0  0  0
  144.4871  133.9498  151.6499 C   0  0  1  0  0  0  0  0  0  0  0  0
  143.8135  132.8923  150.7627 C   0  0  0  0  0  0  0  0  0  0  0  0
  143.5134  133.4346  149.4947 O   0  0  0  0  0  0  0  0  0  0  0  0
  145.6872  134.6654  151.0051 C   0  0  2  0  0  0  0  0  0  0  0  0
  146.8951  134.0556  151.4155 O   0  0  0  0  0  0  0  0  0  0  0  0
  145.6073  136.1052  151.5267 C   0  0  1  0  0  0  0  0  0  0  0  0
  145.5981  137.0258  150.4545 O   0  0  0  0  0  0  0  0  0  0  0  0
  145.4112  134.6513  160.3826 C   0  0  0  0  0  0  0  0  0  0  0  0
  145.6294  136.1449  160.7337 C   0  0  0  0  0  0  0  0  0  0  0  0
  146.0541  136.3503  162.1975 C   0  0  0  0  0  0  0  0  0  0  0  0
  147.3124  135.5429  162.5379 C   0  0  0  0  0  0  0  0  0  0  0  0
  147.1018  134.0581  162.2204 C   0  0  0  0  0  0  0  0  0  0  0  0
  146.6912  133.8575  160.7535 C   0  0  0  0  0  0  0  0  0  0  0  0
  143.6947  137.0480  152.1280 H   0  0  0  0  0  0  0  0  0  0  0  0
  144.7624  133.5061  152.6081 H   0  0  0  0  0  0  0  0  0  0  0  0
  145.6151  134.6388  149.9165 H   0  0  0  0  0  0  0  0  0  0  0  0
  146.4340  136.3725  152.1863 H   0  0  0  0  0  0  0  0  0  0  0  0
  142.8850  132.3116  156.6195 H   0  0  0  0  0  0  0  0  0  0  0  0
  142.7805  132.8824  159.3368 H   0  0  0  0  0  0  0  0  0  0  0  0
  143.2677  131.4009  158.5235 H   0  0  0  0  0  0  0  0  0  0  0  0
  145.3078  132.3036  159.2658 H   0  0  0  0  0  0  0  0  0  0  0  0
  145.2877  132.7242  157.5734 H   0  0  0  0  0  0  0  0  0  0  0  0
  144.0597  134.9369  158.7514 H   0  0  0  0  0  0  0  0  0  0  0  0
  146.6298  135.6991  158.4584 H   0  0  0  0  0  0  0  0  0  0  0  0
  147.5210  132.8598  154.4629 H   0  0  0  0  0  0  0  0  0  0  0  0
  143.2073  137.6341  154.6047 H   0  0  0  0  0  0  0  0  0  0  0  0
  144.4837  132.0444  150.6190 H   0  0  0  0  0  0  0  0  0  0  0  0
  142.9038  132.5095  151.2262 H   0  0  0  0  0  0  0  0  0  0  0  0
  142.6173  133.7345  149.5000 H   0  0  0  0  0  0  0  0  0  0  0  0
  147.5680  134.7169  151.4600 H   0  0  0  0  0  0  0  0  0  0  0  0
  144.7508  137.4437  150.4253 H   0  0  0  0  0  0  0  0  0  0  0  0
  144.5970  134.2799  161.0073 H   0  0  0  0  0  0  0  0  0  0  0  0
  146.3848  136.5710  160.0719 H   0  0  0  0  0  0  0  0  0  0  0  0
  144.7191  136.7205  160.5765 H   0  0  0  0  0  0  0  0  0  0  0  0
  146.2322  137.4094  162.3861 H   0  0  0  0  0  0  0  0  0  0  0  0
  145.2393  136.0519  162.8584 H   0  0  0  0  0  0  0  0  0  0  0  0
  148.1608  135.9246  161.9683 H   0  0  0  0  0  0  0  0  0  0  0  0
  147.5631  135.6683  163.5917 H   0  0  0  0  0  0  0  0  0  0  0  0
  148.0153  133.5008  162.4296 H   0  0  0  0  0  0  0  0  0  0  0  0
  146.3321  133.6476  162.8752 H   0  0  0  0  0  0  0  0  0  0  0  0
  146.5491  132.7898  160.5861 H   0  0  0  0  0  0  0  0  0  0  0  0
  147.5120  134.1614  160.1022 H   0  0  0  0  0  0  0  0  0  0  0  0
  1  2  1  0  0  0  0
  1 34  1  0  0  0  0
  2  3  1  0  0  0  0
  2 35  1  0  0  0  0
  2 36  1  0  0  0  0
  3  4  1  0  0  0  0
  3 37  1  0  0  0  0
  3 38  1  0  0  0  0
  4  5  1  0  0  0  0
  4 24  1  0  0  0  0
  4 39  1  0  0  0  0
  5  6  1  0  0  0  0
  5 40  1  0  0  0  0
  6 11  1  0  0  0  0
  6  7  2  0  0  0  0
  7  8  1  0  0  0  0
  8  9  2  0  0  0  0
  8 41  1  0  0  0  0
  9 10  1  0  0  0  0
 10 14  1  0  0  0  0
 10 11  2  0  0  0  0
 11 12  1  0  0  0  0
 12 13  2  0  0  0  0
 13 14  1  0  0  0  0
 13 42  1  0  0  0  0
 14 15  1  0  0  0  0
 15 30  1  0  0  0  0
 15 22  1  0  0  0  0
 15 16  1  0  0  0  0
 16 17  1  0  0  0  0
 17 31  1  0  0  0  0
 17 18  1  0  0  0  0
 17 20  1  0  0  0  0
 18 19  1  0  0  0  0
 18 43  1  0  0  0  0
 18 44  1  0  0  0  0
 19 45  1  0  0  0  0
 20 32  1  0  0  0  0
 20 21  1  0  0  0  0
 20 22  1  0  0  0  0
 21 46  1  0  0  0  0
 22 33  1  0  0  0  0
 22 23  1  0  0  0  0
 23 47  1  0  0  0  0
 24 29  1  0  0  0  0
 24 25  1  0  0  0  0
 24 48  1  0  0  0  0
 25 26  1  0  0  0  0
 25 49  1  0  0  0  0
 25 50  1  0  0  0  0
 26 27  1  0  0  0  0
 26 51  1  0  0  0  0
 26 52  1  0  0  0  0
 27 28  1  0  0  0  0
 27 53  1  0  0  0  0
 27 54  1  0  0  0  0
 28 29  1  0  0  0  0
 28 55  1  0  0  0  0
 28 56  1  0  0  0  0
 29 57  1  0  0  0  0
 29 58  1  0  0  0  0
M  END
> <s_m_source_file>
AV-unprocessed.smi

> <i_m_source_file_index>
109

> <i_lp_mmshare_version>
43012

> <i_f3d_flags>
0

> <s_epik_input>
W0NIMl0xW0NIMl1bQ0gyXVtDSDJdW0NIMl1bQ0hdMVtDQEhdKFtDSDJdW0NIMl1bT0hdKVtOSF1jKG5bY0hdbjIpYyhjMjMpbltjSF1uM1tDQEBIXTRPW0NASF0oW0NIMl1bT0hdKVtDQEBIXShbT0hdKVtDQEhdNFtPSF0=

> <s_epik_cmdline>
J2VwaWtfcHl0aG9uJywgJy1waCcsICc3LjAnLCAnLXRuJywgJzgnLCAnLW1hJywgJzIwMCcsICctbWV0YWxfYmluZGluZycsICctaW1hZScsICc8aW5maWxlLm1hZT4nLCAnLW9tYWUnLCAnPG91dGZpbGUubWFlPic=

> <r_lp_tautomer_probability>
1

> <r_epik_Ionization_Penalty>
0.000793976

> <r_epik_Ionization_Penalty_Charging>
0

> <r_epik_Ionization_Penalty_Neutral>
0.000793976

> <r_epik_State_Penalty>
-0

> <r_epik_Charging_Adjusted_Penalty>
0

> <i_epik_Tot_Q>
0

> <i_epik_Tot_abs_Q>
0

> <r_epik_Metal_State_Penalty>
-0

> <b_epik_Metal_Only>
0

> <s_epik_Chemistry_Notes>
This compound contains an acetal/aminal-like group ( X-CH(R)-Y where X, Y are N, S, or O) that may be acid/base labile, releasing an aldehyde.

> <s_lp_Force_Field>
OPLS_2005

> <r_lp_Energy>
47.5794

> <b_lp_Chiralities_Consistent>
1

> <s_lp_Variant>
AV-unprocessed.smi:109-13

> <Gold.Version>
5.8.1

> <Gold.Id.Protein>
6NUR|6NUR_protein|mol2

> <Gold.PLP.Fitness>
44.8857

> <Gold.PLP.PLP>
-33.6121

> <Gold.PLP.part.hbond>
-4.5921

> <Gold.PLP.part.metal>
0.0000

> <Gold.PLP.part.buried>
-6.8914

> <Gold.PLP.part.nonpolar>
-22.1458

> <Gold.PLP.part.repulsive>
0.2643

> <Gold.PLP.ligand.clash>
0.0000

> <Gold.PLP.ligand.torsion>
1.8622

> <Gold.PLP.Chemscore.Hbond>
4.8953

> <Gold.PLP.Chemscore.CHOScore>
0.0000

> <Gold.PLP.Chemscore.Metal>
0.0000

> <Gold.Chemscore.Hbonds>
donor molecule, donor type, donor heavy atom, donor atom, acceptor molecule, acceptor atom, score
      L1  H     1    34       P1 10957  1.00
      L1  H    19    45       P1 10186  1.00
      L1  H    21    46       P1  7948  1.00
      L1  H    23    47       P1 10171  0.93
      P1  H 11000 11005       L1     1  1.00

> <Gold.PLP.Chemscore.Internal.Correction>
0.3123

> <Gold.Rescore>
     Score         DG    S(hbond)    S(metal)    S(lipo)     H(rot)  DE(clash)    DE(int)     intcor
      8.62     -14.20       4.52        0.00      65.12       5.47       0.18       5.40       ----

> <Gold.Chemscore.Fitness>
8.6204

> <Gold.Chemscore.DG>
-14.2040

> <Gold.Chemscore.ZeroCoef>
-5.4800

> <Gold.Chemscore.Hbond>
4.5205

> <Gold.Chemscore.Metal>
0.0000

> <Gold.Chemscore.Lipo>
65.1205

> <Gold.Chemscore.Internal_Hbond>
0.0000

> <Gold.Chemscore.DEClash>
0.1792

> <Gold.Chemscore.DEInternal>
5.4044

> <Gold.Chemscore.Rot>
5.4662

> <Gold.Chemscore.Internal.Correction>
   9.000000E+99

> <Gold.Chemscore.Hbonds>
donor molecule, donor type, donor heavy atom, donor atom, acceptor molecule, acceptor atom, score
      L1  H     1    34       P1 10957  0.94
      L1  H    19    45       P1 10186  1.00
      L1  H    21    46       P1  7948  0.24
      L1  H    23    47       P1 10171  0.86
      P1  H 11000 11005       L1     1  0.40

> <Gold.Chemscore.Hbond.Weighted>
-15.0984

> <Gold.Chemscore.Metal.Weighted>
-0.0000

> <Gold.Chemscore.Lipo.Weighted>
-7.6191

> <Gold.Chemscore.Internal_Hbond.Weighted>
0.0000

> <Gold.Chemscore.DEClash.Weighted>
0.1792

> <Gold.Chemscore.DEInternal.Weighted>
5.4044

> <Gold.Chemscore.Rot.Weighted>
13.9935

> <Gold.Chemscore.Internal.Correction.Weighted>
   9.000000E+99

> <Gold.Protein.RotatedTorsions>
[ 6907 6896 6895 6894 ] final  -51.14 input  -60.11 | X-H torsion
[ 7974 7965 7964 7962 ] final -145.99 input  175.53 | X-H torsion
[ 8008 7997 7996 7995 ] final  -90.34 input   59.86 | X-H torsion
[ 10167 10162 10161 10158 ] final   90.56 input  -65.29 | X-H torsion
[ 10718 10713 10712 10709 ] final  -61.26 input   66.30 | X-H torsion
[ 10763 10752 10751 10750 ] final  112.00 input  -60.55 | X-H torsion
[ 11005 11000 10999 10996 ] final  -78.36 input  -57.11 | X-H torsion

> <Gold.Protein.ActiveResidues>
 VAL166  LYS551  ARG553  GLY616  TRP617  ASP618  TYR619  PRO620  LYS621  CYS622 
 ASP623  PHE694  ASN695  SER759  ASP760  ASP761  ALA762  ILE779  LEU786  VAL792 
 PHE793  MET794  SER795  GLU796  ALA797  LYS798  CYS799  TRP800  GLU811  SER814 

> <Gold.Protein.RotatedAtoms>
  150.8640  134.7999  159.7104 H   0  0  0  0  0  0  0  0  0  0  0  0  # atno 6907 bound_to 6896
  152.4668  134.5054  159.9747 H   0  0  0  0  0  0  0  0  0  0  0  0  # atno 6908 bound_to 6896
  151.5153  133.3438  159.2927 H   0  0  0  0  0  0  0  0  0  0  0  0  # atno 6909 bound_to 6896
  144.8189  140.5513  143.5591 H   0  0  0  0  0  0  0  0  0  0  0  0  # atno 7974 bound_to 7965
  154.6974  140.0531  157.0424 H   0  0  0  0  0  0  0  0  0  0  0  0  # atno 8008 bound_to 7997
  155.0732  140.3202  155.4605 H   0  0  0  0  0  0  0  0  0  0  0  0  # atno 8009 bound_to 7997
  156.2749  140.2078  156.5859 H   0  0  0  0  0  0  0  0  0  0  0  0  # atno 8010 bound_to 7997
  139.8461  144.6617  150.9225 H   0  0  0  0  0  0  0  0  0  0  0  0  # atno 10167 bound_to 10162
  156.0934  130.4196  150.0968 H   0  0  0  0  0  0  0  0  0  0  0  0  # atno 10718 bound_to 10713
  153.4715  135.3699  155.2393 H   0  0  0  0  0  0  0  0  0  0  0  0  # atno 10763 bound_to 10752
  154.8757  135.3932  154.3806 H   0  0  0  0  0  0  0  0  0  0  0  0  # atno 10764 bound_to 10752
  153.4396  135.7084  153.6242 H   0  0  0  0  0  0  0  0  0  0  0  0  # atno 10765 bound_to 10752
  141.1664  133.7060  156.7960 H   0  0  0  0  0  0  0  0  0  0  0  0  # atno 11005 bound_to 11000
  145.5150  139.1478  143.3584 LP  0  0  0  0  0  0  0  0  0  0  0  0  # atno 17320 bound_to 7965
  146.2494  140.5290  142.8900 LP  0  0  0  0  0  0  0  0  0  0  0  0  # atno 17321 bound_to 7965
  140.7793  143.3869  151.1378 LP  0  0  0  0  0  0  0  0  0  0  0  0  # atno 17342 bound_to 10162
  139.7511  143.8777  152.3077 LP  0  0  0  0  0  0  0  0  0  0  0  0  # atno 17343 bound_to 10162
  156.8973  130.9608  151.3581 LP  0  0  0  0  0  0  0  0  0  0  0  0  # atno 17370 bound_to 10713
  157.6089  130.8568  149.8920 LP  0  0  0  0  0  0  0  0  0  0  0  0  # atno 17371 bound_to 10713
  140.2291  134.8699  157.3457 LP  0  0  0  0  0  0  0  0  0  0  0  0  # atno 17394 bound_to 11000
  140.1910  134.4372  155.7716 LP  0  0  0  0  0  0  0  0  0  0  0  0  # atno 17395 bound_to 11000

$$$$
