AV-unprocessed.smi:261|AV-procd|sdf|1998|dock1
  -GOLD-   2262021193D 1   1.00000     0.00000
 Structure written by MMmdl.
 51 54  0  0  0  0  0  0  0  0  1 V2000
  148.4689  132.3593  153.0854 C   0  0  0  0  0  0  0  0  0  0  0  0
  148.7164  133.0981  154.2709 O   0  0  0  0  0  0  0  0  0  0  0  0
  150.0075  133.6930  154.3215 C   0  0  2  0  0  0  0  0  0  0  0  0
  150.9261  132.9926  155.3324 C   0  0  0  0  0  0  0  0  0  0  0  0
  150.5791  133.6239  156.6901 C   0  0  2  0  0  0  0  0  0  0  0  0
  149.4786  132.8282  157.4248 C   0  0  0  0  0  0  0  0  0  0  0  0
  148.9648  131.7418  156.8380 N   0  0  0  0  0  0  0  0  0  0  0  0
  149.0857  133.2090  158.5253 O   0  0  0  0  0  0  0  0  0  0  0  0
  150.1970  134.9880  156.3228 N   0  0  0  0  0  0  0  0  0  0  0  0
  150.1645  136.0549  157.1696 C   0  0  0  0  0  0  0  0  0  0  0  0
  149.9000  135.8138  158.4812 N   0  0  0  0  0  0  0  0  0  0  0  0
  149.8587  136.8122  159.3663 C   0  0  0  0  0  0  0  0  0  0  0  0
  150.0515  138.1147  159.1613 N   0  0  0  0  0  0  0  0  0  0  0  0
  150.3199  138.3730  157.8500 C   0  0  0  0  0  0  0  0  0  0  0  0
  150.3902  137.4154  156.7956 C   0  0  0  0  0  0  0  0  0  0  0  0
  150.6746  138.0704  155.6022 N   0  0  0  0  0  0  0  0  0  0  0  0
  150.7686  139.3286  155.9299 C   0  0  0  0  0  0  0  0  0  0  0  0
  150.5829  139.6004  157.2651 N   0  0  0  0  0  0  0  0  0  0  0  0
  150.6362  140.9038  157.9133 C   0  0  0  0  0  0  0  0  0  0  0  0
  151.0802  142.0546  156.9776 C   0  0  1  0  0  0  0  0  0  0  0  0
  150.0129  142.3487  156.0973 O   0  0  0  0  0  0  0  0  0  0  0  0
  151.4629  143.3595  157.7063 C   0  0  1  0  0  0  0  0  0  0  0  0
  150.3538  143.9466  158.5830 C   0  0  0  0  0  0  0  0  0  0  0  0
  151.1089  144.7798  159.6047 C   0  0  0  0  0  0  0  0  0  0  0  0
  152.5308  144.2183  159.5530 C   0  0  0  0  0  0  0  0  0  0  0  0
  152.4505  143.0914  158.6915 O   0  0  0  0  0  0  0  0  0  0  0  0
  149.8606  135.1021  154.9066 C   0  0  0  0  0  0  0  0  0  0  0  0
  150.4447  133.7328  153.3224 H   0  0  0  0  0  0  0  0  0  0  0  0
  151.4787  133.6249  157.3051 H   0  0  0  0  0  0  0  0  0  0  0  0
  147.4613  131.9456  153.1206 H   0  0  0  0  0  0  0  0  0  0  0  0
  149.1647  131.5286  152.9695 H   0  0  0  0  0  0  0  0  0  0  0  0
  148.5370  132.9973  152.2035 H   0  0  0  0  0  0  0  0  0  0  0  0
  150.8441  131.9056  155.3205 H   0  0  0  0  0  0  0  0  0  0  0  0
  151.9629  133.2292  155.0896 H   0  0  0  0  0  0  0  0  0  0  0  0
  148.2388  131.2162  157.3029 H   0  0  0  0  0  0  0  0  0  0  0  0
  149.2988  131.4561  155.9292 H   0  0  0  0  0  0  0  0  0  0  0  0
  149.6428  136.5254  160.3848 H   0  0  0  0  0  0  0  0  0  0  0  0
  150.9779  140.0920  155.1965 H   0  0  0  0  0  0  0  0  0  0  0  0
  149.6563  141.1164  158.3416 H   0  0  0  0  0  0  0  0  0  0  0  0
  151.3212  140.8333  158.7591 H   0  0  0  0  0  0  0  0  0  0  0  0
  151.9284  141.7128  156.3836 H   0  0  0  0  0  0  0  0  0  0  0  0
  149.8160  143.2708  156.1604 H   0  0  0  0  0  0  0  0  0  0  0  0
  151.8332  144.1132  157.0082 H   0  0  0  0  0  0  0  0  0  0  0  0
  149.6238  144.5319  158.0261 H   0  0  0  0  0  0  0  0  0  0  0  0
  149.8181  143.1446  159.0932 H   0  0  0  0  0  0  0  0  0  0  0  0
  151.1071  145.8357  159.3313 H   0  0  0  0  0  0  0  0  0  0  0  0
  150.6664  144.6870  160.5969 H   0  0  0  0  0  0  0  0  0  0  0  0
  153.2191  144.9505  159.1284 H   0  0  0  0  0  0  0  0  0  0  0  0
  152.9031  143.9293  160.5361 H   0  0  0  0  0  0  0  0  0  0  0  0
  150.5702  135.7807  154.4307 H   0  0  0  0  0  0  0  0  0  0  0  0
  148.8565  135.5011  154.7544 H   0  0  0  0  0  0  0  0  0  0  0  0
  1  2  1  0  0  0  0
  1 30  1  0  0  0  0
  1 31  1  0  0  0  0
  1 32  1  0  0  0  0
  2  3  1  0  0  0  0
  3 28  1  0  0  0  0
  3 27  1  0  0  0  0
  3  4  1  0  0  0  0
  4  5  1  0  0  0  0
  4 33  1  0  0  0  0
  4 34  1  0  0  0  0
  5 29  1  0  0  0  0
  5  6  1  0  0  0  0
  5  9  1  0  0  0  0
  6  7  1  0  0  0  0
  6  8  2  0  0  0  0
  7 35  1  0  0  0  0
  7 36  1  0  0  0  0
  9 10  1  0  0  0  0
  9 27  1  0  0  0  0
 10 15  1  0  0  0  0
 10 11  2  0  0  0  0
 11 12  1  0  0  0  0
 12 13  2  0  0  0  0
 12 37  1  0  0  0  0
 13 14  1  0  0  0  0
 14 18  1  0  0  0  0
 14 15  2  0  0  0  0
 15 16  1  0  0  0  0
 16 17  2  0  0  0  0
 17 18  1  0  0  0  0
 17 38  1  0  0  0  0
 18 19  1  0  0  0  0
 19 20  1  0  0  0  0
 19 39  1  0  0  0  0
 19 40  1  0  0  0  0
 20 21  1  0  0  0  0
 20 22  1  0  0  0  0
 20 41  1  0  0  0  0
 21 42  1  0  0  0  0
 22 26  1  0  0  0  0
 22 23  1  0  0  0  0
 22 43  1  0  0  0  0
 23 24  1  0  0  0  0
 23 44  1  0  0  0  0
 23 45  1  0  0  0  0
 24 25  1  0  0  0  0
 24 46  1  0  0  0  0
 24 47  1  0  0  0  0
 25 26  1  0  0  0  0
 25 48  1  0  0  0  0
 25 49  1  0  0  0  0
 27 50  1  0  0  0  0
 27 51  1  0  0  0  0
M  END
> <s_m_source_file>
AV-unprocessed.smi

> <i_m_source_file_index>
261

> <i_lp_mmshare_version>
43012

> <i_f3d_flags>
0

> <s_epik_input>
W0NIM11PW0NASF0xW0NIMl1bQ0BASF0oQyg9TylbTkgyXSlOKFtDSDJdMSljKG5bY0hdbjIpYyhjMjMpbltjSF1uM1tDSDJdW0NASF0oW09IXSlbQ0BASF00W0NIMl1bQ0gyXVtDSDJdTzQ=

> <s_epik_cmdline>
J2VwaWtfcHl0aG9uJywgJy1waCcsICc3LjAnLCAnLXRuJywgJzgnLCAnLW1hJywgJzIwMCcsICctbWV0YWxfYmluZGluZycsICctaW1hZScsICc8aW5maWxlLm1hZT4nLCAnLW9tYWUnLCAnPG91dGZpbGUubWFlPic=

> <r_lp_tautomer_probability>
1

> <r_epik_Ionization_Penalty>
0.000713824

> <r_epik_Ionization_Penalty_Charging>
0

> <r_epik_Ionization_Penalty_Neutral>
0.000713824

> <r_epik_State_Penalty>
0.000402132

> <r_epik_Charging_Adjusted_Penalty>
0.000402132

> <i_epik_Tot_Q>
0

> <i_epik_Tot_abs_Q>
0

> <r_epik_Metal_State_Penalty>
-0

> <b_epik_Metal_Only>
0

> <s_lp_Force_Field>
OPLS_2005

> <r_lp_Energy>
45.1221

> <b_lp_Chiralities_Consistent>
1

> <s_lp_Variant>
AV-unprocessed.smi:261-16

> <Gold.Version>
5.8.1

> <Gold.Id.Protein>
6NUR|6NUR_protein|mol2

> <Gold.PLP.Fitness>
42.9462

> <Gold.PLP.PLP>
-39.0808

> <Gold.PLP.part.hbond>
-4.0000

> <Gold.PLP.part.metal>
0.0000

> <Gold.PLP.part.buried>
-7.8311

> <Gold.PLP.part.nonpolar>
-28.8749

> <Gold.PLP.part.repulsive>
0.1289

> <Gold.PLP.ligand.clash>
0.0000

> <Gold.PLP.ligand.torsion>
1.1441

> <Gold.PLP.Chemscore.Hbond>
2.0000

> <Gold.PLP.Chemscore.CHOScore>
0.0000

> <Gold.PLP.Chemscore.Metal>
0.0000

> <Gold.Chemscore.Hbonds>
donor molecule, donor type, donor heavy atom, donor atom, acceptor molecule, acceptor atom, score
      L1  H    21    42       P1  8028  1.00
      P1  H  6896  6908       L1     8  1.00

> <Gold.PLP.Chemscore.Internal.Correction>
0.1535

> <Gold.Rescore>
     Score         DG    S(hbond)    S(metal)    S(lipo)     H(rot)  DE(clash)    DE(int)     intcor
     10.63     -13.48       1.80        0.00      86.58       3.18       0.09       2.76       ----

> <Gold.Chemscore.Fitness>
10.6307

> <Gold.Chemscore.DG>
-13.4823

> <Gold.Chemscore.ZeroCoef>
-5.4800

> <Gold.Chemscore.Hbond>
1.8026

> <Gold.Chemscore.Metal>
0.0000

> <Gold.Chemscore.Lipo>
86.5836

> <Gold.Chemscore.Internal_Hbond>
0.0000

> <Gold.Chemscore.DEClash>
0.0904

> <Gold.Chemscore.DEInternal>
2.7612

> <Gold.Chemscore.Rot>
3.1831

> <Gold.Chemscore.Internal.Correction>
   9.000000E+99

> <Gold.Chemscore.Hbonds>
donor molecule, donor type, donor heavy atom, donor atom, acceptor molecule, acceptor atom, score
      L1  H    21    42       P1  8028  0.96
      P1  H  6896  6908       L1     8  0.48

> <Gold.Chemscore.Hbond.Weighted>
-6.0206

> <Gold.Chemscore.Metal.Weighted>
-0.0000

> <Gold.Chemscore.Lipo.Weighted>
-10.1303

> <Gold.Chemscore.Internal_Hbond.Weighted>
0.0000

> <Gold.Chemscore.DEClash.Weighted>
0.0904

> <Gold.Chemscore.DEInternal.Weighted>
2.7612

> <Gold.Chemscore.Rot.Weighted>
8.1486

> <Gold.Chemscore.Internal.Correction.Weighted>
   9.000000E+99

> <Gold.Protein.RotatedTorsions>
[ 6907 6896 6895 6894 ] final  138.69 input  -60.11 | X-H torsion
[ 7974 7965 7964 7962 ] final  -78.24 input  175.53 | X-H torsion
[ 8008 7997 7996 7995 ] final   37.39 input   59.86 | X-H torsion
[ 10167 10162 10161 10158 ] final  -20.34 input  -65.29 | X-H torsion
[ 10718 10713 10712 10709 ] final -130.74 input   66.30 | X-H torsion
[ 10763 10752 10751 10750 ] final  -25.37 input  -60.55 | X-H torsion
[ 11005 11000 10999 10996 ] final  160.45 input  -57.11 | X-H torsion

> <Gold.Protein.ActiveResidues>
 VAL166  LYS551  ARG553  GLY616  TRP617  ASP618  TYR619  PRO620  LYS621  CYS622 
 ASP623  PHE694  ASN695  SER759  ASP760  ASP761  ALA762  ILE779  LEU786  VAL792 
 PHE793  MET794  SER795  GLU796  ALA797  LYS798  CYS799  TRP800  GLU811  SER814 

> <Gold.Protein.RotatedAtoms>
  152.2637  133.5320  159.5396 H   0  0  0  0  0  0  0  0  0  0  0  0  # atno 6907 bound_to 6896
  150.7134  134.0794  159.3901 H   0  0  0  0  0  0  0  0  0  0  0  0  # atno 6908 bound_to 6896
  151.8711  135.0489  160.0530 H   0  0  0  0  0  0  0  0  0  0  0  0  # atno 6909 bound_to 6896
  145.5891  140.9433  143.1302 H   0  0  0  0  0  0  0  0  0  0  0  0  # atno 7974 bound_to 7965
  155.2030  140.3317  155.4340 H   0  0  0  0  0  0  0  0  0  0  0  0  # atno 8008 bound_to 7997
  156.2399  140.1890  156.7065 H   0  0  0  0  0  0  0  0  0  0  0  0  # atno 8009 bound_to 7997
  154.6129  140.0606  156.9502 H   0  0  0  0  0  0  0  0  0  0  0  0  # atno 8010 bound_to 7997
  140.7275  143.4732  151.0218 H   0  0  0  0  0  0  0  0  0  0  0  0  # atno 10167 bound_to 10162
  156.2174  130.6957  151.0718 H   0  0  0  0  0  0  0  0  0  0  0  0  # atno 10718 bound_to 10713
  153.6987  135.6957  153.5069 H   0  0  0  0  0  0  0  0  0  0  0  0  # atno 10763 bound_to 10752
  153.2358  135.4322  155.0644 H   0  0  0  0  0  0  0  0  0  0  0  0  # atno 10764 bound_to 10752
  154.8351  135.3495  154.6527 H   0  0  0  0  0  0  0  0  0  0  0  0  # atno 10765 bound_to 10752
  140.2060  134.8302  157.3070 H   0  0  0  0  0  0  0  0  0  0  0  0  # atno 11005 bound_to 11000
  144.7359  139.7587  143.7329 LP  0  0  0  0  0  0  0  0  0  0  0  0  # atno 17320 bound_to 7965
  146.1660  139.4791  142.9958 LP  0  0  0  0  0  0  0  0  0  0  0  0  # atno 17321 bound_to 7965
  139.8425  143.7544  152.3180 LP  0  0  0  0  0  0  0  0  0  0  0  0  # atno 17342 bound_to 10162
  139.7698  144.7480  151.0241 LP  0  0  0  0  0  0  0  0  0  0  0  0  # atno 17343 bound_to 10162
  157.7070  131.0752  150.6632 LP  0  0  0  0  0  0  0  0  0  0  0  0  # atno 17370 bound_to 10713
  156.6694  130.4535  149.5662 LP  0  0  0  0  0  0  0  0  0  0  0  0  # atno 17371 bound_to 10713
  140.2002  134.4264  155.7667 LP  0  0  0  0  0  0  0  0  0  0  0  0  # atno 17394 bound_to 11000
  141.2227  133.7068  156.8171 LP  0  0  0  0  0  0  0  0  0  0  0  0  # atno 17395 bound_to 11000

$$$$
