AV-unprocessed.smi:2710|AV-procd|sdf|10466|dock9
  -GOLD-   2272014503D 1   1.00000     0.00000
 Structure written by MMmdl.
 53 54  0  0  0  0  0  0  0  0  2 V2000
  144.2605  142.1443  157.2083 C   0  0  0  0  0  0  0  0  0  0  0  0
  143.8624  141.7398  155.7791 C   0  0  0  0  0  0  0  0  0  0  0  0
  145.0055  141.7499  154.8200 N   0  3  2  0  0  0  0  0  0  0  0  0
  146.0267  140.7210  155.1688 C   0  0  0  0  0  0  0  0  0  0  0  0
  147.1361  140.6260  154.1111 C   0  0  0  0  0  0  0  0  0  0  0  0
  147.8274  141.9796  153.8900 C   0  0  2  0  0  0  0  0  0  0  0  0
  148.6359  142.3824  155.0410 N   0  0  0  0  0  0  0  0  0  0  0  0
  149.5872  141.6336  155.6173 C   0  0  0  0  0  0  0  0  0  0  0  0
  149.8719  140.4982  155.2397 O   0  0  0  0  0  0  0  0  0  0  0  0
  150.1662  142.2879  156.6387 N   0  0  0  0  0  0  0  0  0  0  0  0
  151.2057  141.8558  157.5077 C   0  0  0  0  0  0  0  0  0  0  0  0
  152.0675  140.7538  157.2866 C   0  0  0  0  0  0  0  0  0  0  0  0
  153.0290  140.4176  158.1724 N   0  0  0  0  0  0  0  0  0  0  0  0
  153.1285  141.1415  159.2945 C   0  0  0  0  0  0  0  0  0  0  0  0
  154.3188  140.8385  160.2217 C   0  0  0  0  0  0  0  0  0  0  0  0
  154.3983  139.3294  160.5523 C   0  0  0  0  0  0  0  0  0  0  0  0
  154.1707  141.6439  161.5256 C   0  0  0  0  0  0  0  0  0  0  0  0
  155.6603  141.1974  159.5400 C   0  0  0  0  0  0  0  0  0  0  0  0
  152.3937  142.2250  159.5770 N   0  0  0  0  0  0  0  0  0  0  0  0
  151.4277  142.5720  158.7013 C   0  0  0  0  0  0  0  0  0  0  0  0
  146.7629  143.0396  153.5754 C   0  0  0  0  0  0  0  0  0  0  0  0
  145.6318  143.0998  154.6292 C   0  0  1  0  0  0  0  0  0  0  0  0
  144.6234  144.1868  154.2019 C   0  0  0  0  0  0  0  0  0  0  0  0
  143.4343  141.9652  157.8968 H   0  0  0  0  0  0  0  0  0  0  0  0
  144.5106  143.2015  157.2887 H   0  0  0  0  0  0  0  0  0  0  0  0
  145.1127  141.5632  157.5616 H   0  0  0  0  0  0  0  0  0  0  0  0
  143.4448  140.7394  155.8642 H   0  0  0  0  0  0  0  0  0  0  0  0
  143.0601  142.3803  155.4104 H   0  0  0  0  0  0  0  0  0  0  0  0
  146.4548  140.9490  156.1462 H   0  0  0  0  0  0  0  0  0  0  0  0
  145.5700  139.7365  155.2519 H   0  0  0  0  0  0  0  0  0  0  0  0
  147.8628  139.8651  154.3985 H   0  0  0  0  0  0  0  0  0  0  0  0
  146.7027  140.2852  153.1700 H   0  0  0  0  0  0  0  0  0  0  0  0
  148.4904  141.9002  153.0262 H   0  0  0  0  0  0  0  0  0  0  0  0
  148.4729  143.3066  155.4132 H   0  0  0  0  0  0  0  0  0  0  0  0
  149.8208  143.2193  156.8178 H   0  0  0  0  0  0  0  0  0  0  0  0
  152.0166  140.1276  156.4108 H   0  0  0  0  0  0  0  0  0  0  0  0
  155.2694  139.1034  161.1686 H   0  0  0  0  0  0  0  0  0  0  0  0
  154.4735  138.7275  159.6458 H   0  0  0  0  0  0  0  0  0  0  0  0
  153.5243  138.9854  161.1063 H   0  0  0  0  0  0  0  0  0  0  0  0
  153.2490  141.3845  162.0478 H   0  0  0  0  0  0  0  0  0  0  0  0
  154.1452  142.7161  161.3275 H   0  0  0  0  0  0  0  0  0  0  0  0
  155.0003  141.4546  162.2074 H   0  0  0  0  0  0  0  0  0  0  0  0
  156.5097  140.9428  160.1750 H   0  0  0  0  0  0  0  0  0  0  0  0
  155.7375  142.2639  159.3258 H   0  0  0  0  0  0  0  0  0  0  0  0
  155.7835  140.6613  158.5981 H   0  0  0  0  0  0  0  0  0  0  0  0
  150.8305  143.4355  158.9555 H   0  0  0  0  0  0  0  0  0  0  0  0
  147.2408  144.0156  153.4777 H   0  0  0  0  0  0  0  0  0  0  0  0
  146.3286  142.8212  152.5985 H   0  0  0  0  0  0  0  0  0  0  0  0
  146.0655  143.4045  155.5831 H   0  0  0  0  0  0  0  0  0  0  0  0
  145.1386  145.1034  153.9125 H   0  0  0  0  0  0  0  0  0  0  0  0
  143.9470  144.4669  155.0085 H   0  0  0  0  0  0  0  0  0  0  0  0
  144.0265  143.8648  153.3479 H   0  0  0  0  0  0  0  0  0  0  0  0
  144.6233  141.4878  153.9223 H   0  0  0  0  0  0  0  0  0  0  0  0
  1  2  1  0  0  0  0
  1 24  1  0  0  0  0
  1 25  1  0  0  0  0
  1 26  1  0  0  0  0
  2  3  1  0  0  0  0
  2 27  1  0  0  0  0
  2 28  1  0  0  0  0
  3 22  1  0  0  0  0
  3  4  1  0  0  0  0
  3 53  1  0  0  0  0
  4  5  1  0  0  0  0
  4 29  1  0  0  0  0
  4 30  1  0  0  0  0
  5  6  1  0  0  0  0
  5 31  1  0  0  0  0
  5 32  1  0  0  0  0
  6  7  1  0  0  0  0
  6 21  1  0  0  0  0
  6 33  1  0  0  0  0
  7  8  1  0  0  0  0
  7 34  1  0  0  0  0
  8  9  2  0  0  0  0
  8 10  1  0  0  0  0
 10 11  1  0  0  0  0
 10 35  1  0  0  0  0
 11 20  1  0  0  0  0
 11 12  2  0  0  0  0
 12 13  1  0  0  0  0
 12 36  1  0  0  0  0
 13 14  2  0  0  0  0
 14 15  1  0  0  0  0
 14 19  1  0  0  0  0
 15 16  1  0  0  0  0
 15 17  1  0  0  0  0
 15 18  1  0  0  0  0
 16 37  1  0  0  0  0
 16 38  1  0  0  0  0
 16 39  1  0  0  0  0
 17 40  1  0  0  0  0
 17 41  1  0  0  0  0
 17 42  1  0  0  0  0
 18 43  1  0  0  0  0
 18 44  1  0  0  0  0
 18 45  1  0  0  0  0
 19 20  2  0  0  0  0
 20 46  1  0  0  0  0
 21 22  1  0  0  0  0
 21 47  1  0  0  0  0
 21 48  1  0  0  0  0
 22 23  1  0  0  0  0
 22 49  1  0  0  0  0
 23 50  1  0  0  0  0
 23 51  1  0  0  0  0
 23 52  1  0  0  0  0
M  CHG  1   3   1
M  END
> <s_m_source_file>
AV-unprocessed.smi

> <i_m_source_file_index>
2710

> <i_lp_mmshare_version>
43012

> <i_f3d_flags>
0

> <s_epik_input>
W0NIM11bQ0gyXU4xW0NIMl1bQ0gyXVtDQEhdKFtDSDJdW0NASF0xW0NIM10pW05IXUMoPU8pW05IXWMyW2NIXW5jKEMoW0NIM10pKFtDSDNdKVtDSDNdKW5bY0hdMg==

> <s_epik_cmdline>
J2VwaWtfcHl0aG9uJywgJy1waCcsICc3LjAnLCAnLXRuJywgJzgnLCAnLW1hJywgJzIwMCcsICctbWV0YWxfYmluZGluZycsICctaW1hZScsICc8aW5maWxlLm1hZT4nLCAnLW9tYWUnLCAnPG91dGZpbGUubWFlPic=

> <r_lp_tautomer_probability>
1

> <r_epik_Ionization_Penalty>
0.00396003

> <r_epik_Ionization_Penalty_Charging>
0.0039379

> <r_epik_Ionization_Penalty_Neutral>
2.21316e-05

> <r_epik_State_Penalty>
0.00281651

> <r_epik_Charging_Adjusted_Penalty>
0.00675441

> <i_epik_Tot_Q>
1

> <i_epik_Tot_abs_Q>
1

> <r_epik_Metal_State_Penalty>
-0

> <b_epik_Metal_Only>
0

> <s_lp_Force_Field>
OPLS_2005

> <r_lp_Energy>
19.072

> <b_lp_Chiralities_Consistent>
1

> <s_lp_Variant>
AV-unprocessed.smi:2710-3

> <Gold.Version>
5.8.1

> <Gold.Id.Protein>
6NUR|6NUR_protein|mol2

> <Gold.PLP.Fitness>
48.1289

> <Gold.PLP.PLP>
-37.0553

> <Gold.PLP.part.hbond>
-3.8143

> <Gold.PLP.part.metal>
0.0000

> <Gold.PLP.part.buried>
-4.9389

> <Gold.PLP.part.nonpolar>
-27.3502

> <Gold.PLP.part.repulsive>
0.2816

> <Gold.PLP.ligand.clash>
0.0000

> <Gold.PLP.ligand.torsion>
0.4696

> <Gold.PLP.Chemscore.Hbond>
3.9525

> <Gold.PLP.Chemscore.CHOScore>
0.0000

> <Gold.PLP.Chemscore.Metal>
0.0000

> <Gold.Chemscore.Hbonds>
donor molecule, donor type, donor heavy atom, donor atom, acceptor molecule, acceptor atom, score
      L1  H     3    53       P1 10175  1.90
      L1  H     7    34       P1  8028  0.86
      L1  H    10    35       P1  8028  0.57
      P1  H  7997  8010       L1    13  0.83

> <Gold.PLP.Chemscore.Internal.Correction>
0.1552

> <Gold.Rescore>
     Score         DG    S(hbond)    S(metal)    S(lipo)     H(rot)  DE(clash)    DE(int)     intcor
     16.42     -19.51       2.06        0.00      89.62       1.31       0.27       2.82       ----

> <Gold.Chemscore.Fitness>
16.4152

> <Gold.Chemscore.DG>
-19.5051

> <Gold.Chemscore.ZeroCoef>
-5.4800

> <Gold.Chemscore.Hbond>
2.0624

> <Gold.Chemscore.Metal>
0.0000

> <Gold.Chemscore.Lipo>
89.6207

> <Gold.Chemscore.Internal_Hbond>
0.0000

> <Gold.Chemscore.DEClash>
0.2746

> <Gold.Chemscore.DEInternal>
2.8153

> <Gold.Chemscore.Rot>
1.3081

> <Gold.Chemscore.Internal.Correction>
   9.000000E+99

> <Gold.Chemscore.Hbonds>
donor molecule, donor type, donor heavy atom, donor atom, acceptor molecule, acceptor atom, score
      L1  H     3    53       P1 10175  0.21
      L1  H     7    34       P1  8028  0.81
      L1  H    10    35       P1  8028  0.57
      P1  H  7989  7998       L1     9  0.01
      P1  H  7997  8010       L1    13  0.35

> <Gold.Chemscore.Hbond.Weighted>
-6.8883

> <Gold.Chemscore.Metal.Weighted>
-0.0000

> <Gold.Chemscore.Lipo.Weighted>
-10.4856

> <Gold.Chemscore.Internal_Hbond.Weighted>
0.0000

> <Gold.Chemscore.DEClash.Weighted>
0.2746

> <Gold.Chemscore.DEInternal.Weighted>
2.8153

> <Gold.Chemscore.Rot.Weighted>
3.3488

> <Gold.Chemscore.Internal.Correction.Weighted>
   9.000000E+99

> <Gold.Protein.RotatedTorsions>
[ 6907 6896 6895 6894 ] final  103.67 input  -60.11 | X-H torsion
[ 7974 7965 7964 7962 ] final  -95.64 input  175.53 | X-H torsion
[ 8008 7997 7996 7995 ] final   32.33 input   59.86 | X-H torsion
[ 10167 10162 10161 10158 ] final   74.18 input  -65.29 | X-H torsion
[ 10718 10713 10712 10709 ] final  -51.70 input   66.30 | X-H torsion
[ 10763 10752 10751 10750 ] final -145.93 input  -60.55 | X-H torsion
[ 11005 11000 10999 10996 ] final  -32.04 input  -57.11 | X-H torsion

> <Gold.Protein.ActiveResidues>
 VAL166  LYS551  ARG553  GLY616  TRP617  ASP618  TYR619  PRO620  LYS621  CYS622 
 ASP623  PHE694  ASN695  SER759  ASP760  ASP761  ALA762  ILE779  LEU786  VAL792 
 PHE793  MET794  SER795  GLU796  ALA797  LYS798  CYS799  TRP800  GLU811  SER814 

> <Gold.Protein.RotatedAtoms>
  152.5288  133.9792  159.7798 H   0  0  0  0  0  0  0  0  0  0  0  0  # atno 6907 bound_to 6896
  151.0049  133.6013  159.2697 H   0  0  0  0  0  0  0  0  0  0  0  0  # atno 6908 bound_to 6896
  151.3108  135.0800  159.9325 H   0  0  0  0  0  0  0  0  0  0  0  0  # atno 6909 bound_to 6896
  145.3574  140.9486  143.2520 H   0  0  0  0  0  0  0  0  0  0  0  0  # atno 7974 bound_to 7965
  155.1208  140.3248  155.4498 H   0  0  0  0  0  0  0  0  0  0  0  0  # atno 8008 bound_to 7997
  156.2663  140.2027  156.6278 H   0  0  0  0  0  0  0  0  0  0  0  0  # atno 8009 bound_to 7997
  154.6685  140.0539  157.0127 H   0  0  0  0  0  0  0  0  0  0  0  0  # atno 8010 bound_to 7997
  140.0164  144.5574  150.7616 H   0  0  0  0  0  0  0  0  0  0  0  0  # atno 10167 bound_to 10162
  156.1686  130.4149  149.9681 H   0  0  0  0  0  0  0  0  0  0  0  0  # atno 10718 bound_to 10713
  154.8360  135.3400  154.6582 H   0  0  0  0  0  0  0  0  0  0  0  0  # atno 10763 bound_to 10752
  153.7197  135.6959  153.5020 H   0  0  0  0  0  0  0  0  0  0  0  0  # atno 10764 bound_to 10752
  153.2391  135.4390  155.0631 H   0  0  0  0  0  0  0  0  0  0  0  0  # atno 10765 bound_to 10752
  140.9519  133.7216  156.1233 H   0  0  0  0  0  0  0  0  0  0  0  0  # atno 11005 bound_to 11000
  144.8672  139.5091  143.6785 LP  0  0  0  0  0  0  0  0  0  0  0  0  # atno 17320 bound_to 7965
  146.2942  139.7228  142.9139 LP  0  0  0  0  0  0  0  0  0  0  0  0  # atno 17321 bound_to 7965
  140.7360  143.2748  151.3776 LP  0  0  0  0  0  0  0  0  0  0  0  0  # atno 17342 bound_to 10162
  139.6169  144.0984  152.2354 LP  0  0  0  0  0  0  0  0  0  0  0  0  # atno 17343 bound_to 10162
  156.7489  130.9107  151.3636 LP  0  0  0  0  0  0  0  0  0  0  0  0  # atno 17370 bound_to 10713
  157.6786  130.9118  150.0212 LP  0  0  0  0  0  0  0  0  0  0  0  0  # atno 17371 bound_to 10713
  140.7590  134.3960  157.5529 LP  0  0  0  0  0  0  0  0  0  0  0  0  # atno 17394 bound_to 11000
  139.8850  134.8949  156.2669 LP  0  0  0  0  0  0  0  0  0  0  0  0  # atno 17395 bound_to 11000

$$$$
