AV-unprocessed.smi:212|AV-procd|sdf|1622|dock10
  -GOLD-   2262019563D 1   1.00000     0.00000
 Structure written by MMmdl.
 65 68  0  0  0  0  0  0  0  0  2 V2000
  148.1146  131.2509  154.2800 C   0  0  0  0  0  0  0  0  0  0  0  0
  148.5351  132.6685  153.8568 C   0  0  1  0  0  0  0  0  0  0  0  0
  148.2714  132.9322  152.3584 C   0  0  0  0  0  0  0  0  0  0  0  0
  146.8214  133.0939  152.0735 N   0  3  2  0  0  0  0  0  0  0  0  0
  146.5221  133.2335  150.6237 C   0  0  0  0  0  0  0  0  0  0  0  0
  145.0556  132.8811  150.2796 C   0  0  0  0  0  0  0  0  0  0  0  0
  144.7055  131.4882  150.8292 C   0  0  0  0  0  0  0  0  0  0  0  0
  144.0621  133.9300  150.8131 C   0  0  0  0  0  0  0  0  0  0  0  0
  144.9109  132.8056  148.8753 O   0  0  0  0  0  0  0  0  0  0  0  0
  146.2029  134.1576  152.9061 C   0  0  0  0  0  0  0  0  0  0  0  0
  146.4560  133.9043  154.4033 C   0  0  0  0  0  0  0  0  0  0  0  0
  147.8788  133.6920  154.6735 N   0  0  0  0  0  0  0  0  0  0  0  0
  148.6453  134.7598  155.0183 C   0  0  0  0  0  0  0  0  0  0  0  0
  149.9963  134.7006  154.8751 N   0  0  0  0  0  0  0  0  0  0  0  0
  150.7593  135.7414  155.2209 C   0  0  0  0  0  0  0  0  0  0  0  0
  150.3843  136.9215  155.7164 N   0  0  0  0  0  0  0  0  0  0  0  0
  149.0296  136.9935  155.8528 C   0  0  0  0  0  0  0  0  0  0  0  0
  148.0954  135.9674  155.5349 C   0  0  0  0  0  0  0  0  0  0  0  0
  146.8034  136.4052  155.8028 N   0  0  0  0  0  0  0  0  0  0  0  0
  146.9646  137.6192  156.2547 C   0  0  0  0  0  0  0  0  0  0  0  0
  148.2687  138.0566  156.3064 N   0  0  0  0  0  0  0  0  0  0  0  0
  148.7288  139.3608  156.7526 C   0  0  0  0  0  0  0  0  0  0  0  0
  149.5812  140.1071  155.6962 C   0  0  1  0  0  0  0  0  0  0  0  0
  148.7614  140.3376  154.4042 C   0  0  0  0  0  0  0  0  0  0  0  0
  149.5972  140.7889  153.3586 O   0  0  0  0  0  0  0  0  0  0  0  0
  150.2380  141.4021  156.2548 C   0  0  2  0  0  0  0  0  0  0  0  0
  151.4440  141.1946  157.1683 C   0  0  0  0  0  0  0  0  0  0  0  0
  151.3376  142.3630  158.1382 C   0  0  0  0  0  0  0  0  0  0  0  0
  149.9392  142.4638  158.3442 O   0  0  0  0  0  0  0  0  0  0  0  0
  149.3060  142.3074  157.0806 C   0  0  0  0  0  0  0  0  0  0  0  0
  148.6559  130.4974  153.7077 H   0  0  0  0  0  0  0  0  0  0  0  0
  147.0497  131.0751  154.1277 H   0  0  0  0  0  0  0  0  0  0  0  0
  148.3335  131.0797  155.3345 H   0  0  0  0  0  0  0  0  0  0  0  0
  149.6145  132.7236  153.9980 H   0  0  0  0  0  0  0  0  0  0  0  0
  148.7932  133.8390  152.0479 H   0  0  0  0  0  0  0  0  0  0  0  0
  148.6803  132.1148  151.7630 H   0  0  0  0  0  0  0  0  0  0  0  0
  146.7675  134.2409  150.2829 H   0  0  0  0  0  0  0  0  0  0  0  0
  147.1724  132.5708  150.0505 H   0  0  0  0  0  0  0  0  0  0  0  0
  144.7853  131.4616  151.9166 H   0  0  0  0  0  0  0  0  0  0  0  0
  145.3739  130.7225  150.4328 H   0  0  0  0  0  0  0  0  0  0  0  0
  143.6863  131.2001  150.5691 H   0  0  0  0  0  0  0  0  0  0  0  0
  144.1470  134.0366  151.8951 H   0  0  0  0  0  0  0  0  0  0  0  0
  143.0320  133.6485  150.5912 H   0  0  0  0  0  0  0  0  0  0  0  0
  144.2302  134.9126  150.3706 H   0  0  0  0  0  0  0  0  0  0  0  0
  145.2616  133.5960  148.4924 H   0  0  0  0  0  0  0  0  0  0  0  0
  146.6110  135.1260  152.6134 H   0  0  0  0  0  0  0  0  0  0  0  0
  145.1295  134.2031  152.7240 H   0  0  0  0  0  0  0  0  0  0  0  0
  146.0614  134.7253  155.0034 H   0  0  0  0  0  0  0  0  0  0  0  0
  145.9090  133.0171  154.7223 H   0  0  0  0  0  0  0  0  0  0  0  0
  151.8221  135.6105  155.0796 H   0  0  0  0  0  0  0  0  0  0  0  0
  146.1311  138.2376  156.5555 H   0  0  0  0  0  0  0  0  0  0  0  0
  147.8492  139.9489  157.0170 H   0  0  0  0  0  0  0  0  0  0  0  0
  149.2996  139.2341  157.6731 H   0  0  0  0  0  0  0  0  0  0  0  0
  150.4102  139.4483  155.4321 H   0  0  0  0  0  0  0  0  0  0  0  0
  148.2660  139.4219  154.0815 H   0  0  0  0  0  0  0  0  0  0  0  0
  147.9825  141.0850  154.5489 H   0  0  0  0  0  0  0  0  0  0  0  0
  149.4797  140.2195  152.6133 H   0  0  0  0  0  0  0  0  0  0  0  0
  150.5685  142.0144  155.4152 H   0  0  0  0  0  0  0  0  0  0  0  0
  151.3717  140.2617  157.7256 H   0  0  0  0  0  0  0  0  0  0  0  0
  152.3901  141.1870  156.6276 H   0  0  0  0  0  0  0  0  0  0  0  0
  151.8732  142.1884  159.0714 H   0  0  0  0  0  0  0  0  0  0  0  0
  151.7130  143.2837  157.6881 H   0  0  0  0  0  0  0  0  0  0  0  0
  149.2132  143.2862  156.6073 H   0  0  0  0  0  0  0  0  0  0  0  0
  148.2983  141.9109  157.2017 H   0  0  0  0  0  0  0  0  0  0  0  0
  146.3905  132.2260  152.3585 H   0  0  0  0  0  0  0  0  0  0  0  0
  1  2  1  0  0  0  0
  1 31  1  0  0  0  0
  1 32  1  0  0  0  0
  1 33  1  0  0  0  0
  2 12  1  0  0  0  0
  2  3  1  0  0  0  0
  2 34  1  0  0  0  0
  3  4  1  0  0  0  0
  3 35  1  0  0  0  0
  3 36  1  0  0  0  0
  4  5  1  0  0  0  0
  4 10  1  0  0  0  0
  4 65  1  0  0  0  0
  5  6  1  0  0  0  0
  5 37  1  0  0  0  0
  5 38  1  0  0  0  0
  6  7  1  0  0  0  0
  6  8  1  0  0  0  0
  6  9  1  0  0  0  0
  7 39  1  0  0  0  0
  7 40  1  0  0  0  0
  7 41  1  0  0  0  0
  8 42  1  0  0  0  0
  8 43  1  0  0  0  0
  8 44  1  0  0  0  0
  9 45  1  0  0  0  0
 10 11  1  0  0  0  0
 10 46  1  0  0  0  0
 10 47  1  0  0  0  0
 11 12  1  0  0  0  0
 11 48  1  0  0  0  0
 11 49  1  0  0  0  0
 12 13  1  0  0  0  0
 13 18  1  0  0  0  0
 13 14  2  0  0  0  0
 14 15  1  0  0  0  0
 15 16  2  0  0  0  0
 15 50  1  0  0  0  0
 16 17  1  0  0  0  0
 17 21  1  0  0  0  0
 17 18  2  0  0  0  0
 18 19  1  0  0  0  0
 19 20  2  0  0  0  0
 20 21  1  0  0  0  0
 20 51  1  0  0  0  0
 21 22  1  0  0  0  0
 22 23  1  0  0  0  0
 22 52  1  0  0  0  0
 22 53  1  0  0  0  0
 23 24  1  0  0  0  0
 23 26  1  0  0  0  0
 23 54  1  0  0  0  0
 24 25  1  0  0  0  0
 24 55  1  0  0  0  0
 24 56  1  0  0  0  0
 25 57  1  0  0  0  0
 26 30  1  0  0  0  0
 26 27  1  0  0  0  0
 26 58  1  0  0  0  0
 27 28  1  0  0  0  0
 27 59  1  0  0  0  0
 27 60  1  0  0  0  0
 28 29  1  0  0  0  0
 28 61  1  0  0  0  0
 28 62  1  0  0  0  0
 29 30  1  0  0  0  0
 30 63  1  0  0  0  0
 30 64  1  0  0  0  0
M  CHG  1   4   1
M  END
> <s_m_source_file>
AV-unprocessed.smi

> <i_m_source_file_index>
212

> <i_lp_mmshare_version>
43012

> <i_f3d_flags>
0

> <s_epik_input>
W0NIM11bQ0BASF0xW0NIMl1OKFtDSDJdQyhbQ0gzXSkoW0NIM10pW09IXSlbQ0gyXVtDSDJdTjFjKG5bY0hdbjIpYyhjMjMpbltjSF1uM1tDSDJdW0NASF0oW0NIMl1bT0hdKVtDQEBIXTRbQ0gyXVtDSDJdT1tDSDJdNA==

> <s_epik_cmdline>
J2VwaWtfcHl0aG9uJywgJy1waCcsICc3LjAnLCAnLXRuJywgJzgnLCAnLW1hJywgJzIwMCcsICctbWV0YWxfYmluZGluZycsICctaW1hZScsICc8aW5maWxlLm1hZT4nLCAnLW9tYWUnLCAnPG91dGZpbGUubWFlPic=

> <r_lp_tautomer_probability>
1

> <r_epik_Ionization_Penalty>
0.00182193

> <r_epik_Ionization_Penalty_Charging>
0.00173996

> <r_epik_Ionization_Penalty_Neutral>
8.19718e-05

> <r_epik_State_Penalty>
-0

> <r_epik_Charging_Adjusted_Penalty>
0.00173996

> <i_epik_Tot_Q>
1

> <i_epik_Tot_abs_Q>
1

> <r_epik_Metal_State_Penalty>
-0

> <b_epik_Metal_Only>
0

> <s_lp_Force_Field>
OPLS_2005

> <r_lp_Energy>
60.7413

> <b_lp_Chiralities_Consistent>
1

> <s_lp_Variant>
AV-unprocessed.smi:212-6

> <Gold.Version>
5.8.1

> <Gold.Id.Protein>
6NUR|6NUR_protein|mol2

> <Gold.PLP.Fitness>
45.9776

> <Gold.PLP.PLP>
-37.7623

> <Gold.PLP.part.hbond>
-3.7434

> <Gold.PLP.part.metal>
0.0000

> <Gold.PLP.part.buried>
-3.0236

> <Gold.PLP.part.nonpolar>
-30.2586

> <Gold.PLP.part.repulsive>
0.3383

> <Gold.PLP.ligand.clash>
0.0000

> <Gold.PLP.ligand.torsion>
0.7303

> <Gold.PLP.Chemscore.Hbond>
2.8780

> <Gold.PLP.Chemscore.CHOScore>
0.0000

> <Gold.PLP.Chemscore.Metal>
0.0000

> <Gold.Chemscore.Hbonds>
donor molecule, donor type, donor heavy atom, donor atom, acceptor molecule, acceptor atom, score
      L1  H     9    45       P1  7921  1.00
      L1  H    25    57       P1  7957  0.80
      P1  H  7989  7998       L1    25  0.29
      P1  H  8011  8017       L1    25  0.75

> <Gold.PLP.Chemscore.Internal.Correction>
1.0418

> <Gold.Rescore>
     Score         DG    S(hbond)    S(metal)    S(lipo)     H(rot)  DE(clash)    DE(int)     intcor
     13.18     -15.53       2.35        0.00      93.22       3.40       0.19       2.16       ----

> <Gold.Chemscore.Fitness>
13.1828

> <Gold.Chemscore.DG>
-15.5336

> <Gold.Chemscore.ZeroCoef>
-5.4800

> <Gold.Chemscore.Hbond>
2.3495

> <Gold.Chemscore.Metal>
0.0000

> <Gold.Chemscore.Lipo>
93.2204

> <Gold.Chemscore.Internal_Hbond>
0.0000

> <Gold.Chemscore.DEClash>
0.1929

> <Gold.Chemscore.DEInternal>
2.1579

> <Gold.Chemscore.Rot>
3.3986

> <Gold.Chemscore.Internal.Correction>
   9.000000E+99

> <Gold.Chemscore.Hbonds>
donor molecule, donor type, donor heavy atom, donor atom, acceptor molecule, acceptor atom, score
      L1  H     9    45       P1  7921  0.60
      L1  H    25    57       P1  7957  0.75
      P1  H  7989  7998       L1    25  0.09
      P1  H  8011  8017       L1    25  0.09

> <Gold.Chemscore.Hbond.Weighted>
-7.8473

> <Gold.Chemscore.Metal.Weighted>
-0.0000

> <Gold.Chemscore.Lipo.Weighted>
-10.9068

> <Gold.Chemscore.Internal_Hbond.Weighted>
0.0000

> <Gold.Chemscore.DEClash.Weighted>
0.1929

> <Gold.Chemscore.DEInternal.Weighted>
2.1579

> <Gold.Chemscore.Rot.Weighted>
8.7005

> <Gold.Chemscore.Internal.Correction.Weighted>
   9.000000E+99

> <Gold.Protein.RotatedTorsions>
[ 6907 6896 6895 6894 ] final    5.99 input  -60.11 | X-H torsion
[ 7974 7965 7964 7962 ] final   52.77 input  175.53 | X-H torsion
[ 8008 7997 7996 7995 ] final  118.91 input   59.86 | X-H torsion
[ 10167 10162 10161 10158 ] final  -37.76 input  -65.29 | X-H torsion
[ 10718 10713 10712 10709 ] final -142.36 input   66.30 | X-H torsion
[ 10763 10752 10751 10750 ] final   66.60 input  -60.55 | X-H torsion
[ 11005 11000 10999 10996 ] final  -64.44 input  -57.11 | X-H torsion

> <Gold.Protein.ActiveResidues>
 VAL166  LYS551  ARG553  GLY616  TRP617  ASP618  TYR619  PRO620  LYS621  CYS622 
 ASP623  PHE694  ASN695  SER759  ASP760  ASP761  ALA762  ILE779  LEU786  VAL792 
 PHE793  MET794  SER795  GLU796  ALA797  LYS798  CYS799  TRP800  GLU811  SER814 

> <Gold.Protein.RotatedAtoms>
  151.6665  135.0982  160.0189 H   0  0  0  0  0  0  0  0  0  0  0  0  # atno 6907 bound_to 6896
  152.3916  133.6683  159.6251 H   0  0  0  0  0  0  0  0  0  0  0  0  # atno 6908 bound_to 6896
  150.7831  133.8861  159.3341 H   0  0  0  0  0  0  0  0  0  0  0  0  # atno 6909 bound_to 6896
  145.9779  139.4213  143.0150 H   0  0  0  0  0  0  0  0  0  0  0  0  # atno 7974 bound_to 7965
  156.2570  140.2864  156.0909 H   0  0  0  0  0  0  0  0  0  0  0  0  # atno 8008 bound_to 7997
  155.1464  140.0396  157.2828 H   0  0  0  0  0  0  0  0  0  0  0  0  # atno 8009 bound_to 7997
  154.6492  140.2540  155.7239 H   0  0  0  0  0  0  0  0  0  0  0  0  # atno 8010 bound_to 7997
  140.7110  143.3321  151.2545 H   0  0  0  0  0  0  0  0  0  0  0  0  # atno 10167 bound_to 10162
  156.3449  130.7657  151.1800 H   0  0  0  0  0  0  0  0  0  0  0  0  # atno 10718 bound_to 10713
  153.0147  135.5314  154.6849 H   0  0  0  0  0  0  0  0  0  0  0  0  # atno 10763 bound_to 10752
  154.5999  135.2867  155.0549 H   0  0  0  0  0  0  0  0  0  0  0  0  # atno 10764 bound_to 10752
  154.1610  135.6547  153.5038 H   0  0  0  0  0  0  0  0  0  0  0  0  # atno 10765 bound_to 10752
  141.1425  133.6666  156.5834 H   0  0  0  0  0  0  0  0  0  0  0  0  # atno 11005 bound_to 11000
  145.7811  140.9856  143.1098 LP  0  0  0  0  0  0  0  0  0  0  0  0  # atno 17320 bound_to 7965
  144.6854  139.9566  143.7479 LP  0  0  0  0  0  0  0  0  0  0  0  0  # atno 17321 bound_to 7965
  139.6806  143.9861  152.2806 LP  0  0  0  0  0  0  0  0  0  0  0  0  # atno 17342 bound_to 10162
  139.9490  144.6633  150.8191 LP  0  0  0  0  0  0  0  0  0  0  0  0  # atno 17343 bound_to 10162
  157.7452  131.0444  150.4790 LP  0  0  0  0  0  0  0  0  0  0  0  0  # atno 17370 bound_to 10713
  156.4976  130.4110  149.6371 LP  0  0  0  0  0  0  0  0  0  0  0  0  # atno 17371 bound_to 10713
  140.3820  134.7515  157.4667 LP  0  0  0  0  0  0  0  0  0  0  0  0  # atno 17394 bound_to 11000
  140.0630  134.5968  155.8727 LP  0  0  0  0  0  0  0  0  0  0  0  0  # atno 17395 bound_to 11000

$$$$
