AV-unprocessed.smi:2013|AV-procd|sdf|8158|dock7
  -GOLD-   2272010403D 1   1.00000     0.00000
 Structure written by MMmdl.
 51 52  0  0  0  0  0  0  0  0  2 V2000
  145.8188  132.2497  150.0956 C   0  0  0  0  0  0  0  0  0  0  0  0
  145.8373  133.1150  151.3673 C   0  0  0  0  0  0  0  0  0  0  0  0
  145.5555  134.5895  151.0301 C   0  0  0  0  0  0  0  0  0  0  0  0
  147.1107  132.9547  152.2472 C   0  0  1  0  0  0  0  0  0  0  0  0
  147.1364  133.8438  153.5205 C   0  0  0  0  0  0  0  0  0  0  0  0
  148.4537  134.4065  153.7926 N   0  0  0  0  0  0  0  0  0  0  0  0
  149.2760  134.0143  154.7773 C   0  0  0  0  0  0  0  0  0  0  0  0
  148.9984  133.1149  155.5699 O   0  0  0  0  0  0  0  0  0  0  0  0
  150.6166  134.7480  154.8888 C   0  0  0  0  0  0  0  0  0  0  0  0
  150.4688  136.0799  155.4895 N   0  0  0  0  0  0  0  0  0  0  0  0
  150.4829  137.1947  154.6707 C   0  0  0  0  0  0  0  0  0  0  0  0
  150.3604  138.4593  155.1293 C   0  0  0  0  0  0  0  0  0  0  0  0
  150.2033  138.7243  156.5535 C   0  0  0  0  0  0  0  0  0  0  0  0
  150.0867  139.8566  157.0242 O   0  0  0  0  0  0  0  0  0  0  0  0
  150.1937  137.5705  157.3698 N   0  0  0  0  0  0  0  0  0  0  0  0
  150.0372  137.7930  158.7925 C   0  0  0  0  0  0  0  0  0  0  0  0
  150.3192  136.2474  156.8846 C   0  0  0  0  0  0  0  0  0  0  0  0
  150.3056  135.2657  157.6308 O   0  0  0  0  0  0  0  0  0  0  0  0
  147.4141  131.5142  152.5173 N   0  3  0  0  0  0  0  0  0  0  0  0
  148.4988  131.3138  153.5092 C   0  0  0  0  0  0  0  0  0  0  0  0
  148.8755  129.8243  153.5953 C   0  0  0  0  0  0  0  0  0  0  0  0
  147.7248  129.0478  153.9064 O   0  0  0  0  0  0  0  0  0  0  0  0
  146.7113  129.1734  152.9164 C   0  0  0  0  0  0  0  0  0  0  0  0
  146.2566  130.6391  152.8421 C   0  0  0  0  0  0  0  0  0  0  0  0
  146.5613  132.5816  149.3706 H   0  0  0  0  0  0  0  0  0  0  0  0
  144.8462  132.3080  149.6060 H   0  0  0  0  0  0  0  0  0  0  0  0
  146.0028  131.1990  150.3175 H   0  0  0  0  0  0  0  0  0  0  0  0
  144.9884  132.7884  151.9688 H   0  0  0  0  0  0  0  0  0  0  0  0
  146.3268  135.0102  150.3846 H   0  0  0  0  0  0  0  0  0  0  0  0
  145.5066  135.1995  151.9325 H   0  0  0  0  0  0  0  0  0  0  0  0
  144.6011  134.6964  150.5136 H   0  0  0  0  0  0  0  0  0  0  0  0
  147.9202  133.3279  151.6180 H   0  0  0  0  0  0  0  0  0  0  0  0
  146.4497  134.6846  153.4284 H   0  0  0  0  0  0  0  0  0  0  0  0
  146.8045  133.2713  154.3885 H   0  0  0  0  0  0  0  0  0  0  0  0
  148.7634  135.1574  153.1913 H   0  0  0  0  0  0  0  0  0  0  0  0
  151.2991  134.1492  155.4941 H   0  0  0  0  0  0  0  0  0  0  0  0
  151.0809  134.8051  153.9029 H   0  0  0  0  0  0  0  0  0  0  0  0
  150.6000  137.0485  153.6066 H   0  0  0  0  0  0  0  0  0  0  0  0
  150.3798  139.2856  154.4338 H   0  0  0  0  0  0  0  0  0  0  0  0
  150.0878  136.8589  159.3506 H   0  0  0  0  0  0  0  0  0  0  0  0
  149.0629  138.2625  158.9387 H   0  0  0  0  0  0  0  0  0  0  0  0
  150.8474  138.4519  159.1101 H   0  0  0  0  0  0  0  0  0  0  0  0
  149.3809  131.8883  153.2234 H   0  0  0  0  0  0  0  0  0  0  0  0
  148.1768  131.6807  154.4850 H   0  0  0  0  0  0  0  0  0  0  0  0
  149.3145  129.4816  152.6569 H   0  0  0  0  0  0  0  0  0  0  0  0
  149.6249  129.6706  154.3719 H   0  0  0  0  0  0  0  0  0  0  0  0
  147.0796  128.8279  151.9490 H   0  0  0  0  0  0  0  0  0  0  0  0
  145.8720  128.5321  153.1873 H   0  0  0  0  0  0  0  0  0  0  0  0
  145.8249  130.9236  153.8026 H   0  0  0  0  0  0  0  0  0  0  0  0
  145.4700  130.7400  152.0964 H   0  0  0  0  0  0  0  0  0  0  0  0
  147.7904  131.1643  151.6477 H   0  0  0  0  0  0  0  0  0  0  0  0
  1  2  1  0  0  0  0
  1 25  1  0  0  0  0
  1 26  1  0  0  0  0
  1 27  1  0  0  0  0
  2  3  1  0  0  0  0
  2  4  1  0  0  0  0
  2 28  1  0  0  0  0
  3 29  1  0  0  0  0
  3 30  1  0  0  0  0
  3 31  1  0  0  0  0
  4  5  1  0  0  0  0
  4 19  1  0  0  0  0
  4 32  1  0  0  0  0
  5  6  1  0  0  0  0
  5 33  1  0  0  0  0
  5 34  1  0  0  0  0
  6  7  1  0  0  0  0
  6 35  1  0  0  0  0
  7  8  2  0  0  0  0
  7  9  1  0  0  0  0
  9 10  1  0  0  0  0
  9 36  1  0  0  0  0
  9 37  1  0  0  0  0
 10 17  1  0  0  0  0
 10 11  1  0  0  0  0
 11 12  2  0  0  0  0
 11 38  1  0  0  0  0
 12 13  1  0  0  0  0
 12 39  1  0  0  0  0
 13 14  2  0  0  0  0
 13 15  1  0  0  0  0
 15 16  1  0  0  0  0
 15 17  1  0  0  0  0
 16 40  1  0  0  0  0
 16 41  1  0  0  0  0
 16 42  1  0  0  0  0
 17 18  2  0  0  0  0
 19 24  1  0  0  0  0
 19 20  1  0  0  0  0
 19 51  1  0  0  0  0
 20 21  1  0  0  0  0
 20 43  1  0  0  0  0
 20 44  1  0  0  0  0
 21 22  1  0  0  0  0
 21 45  1  0  0  0  0
 21 46  1  0  0  0  0
 22 23  1  0  0  0  0
 23 24  1  0  0  0  0
 23 47  1  0  0  0  0
 23 48  1  0  0  0  0
 24 49  1  0  0  0  0
 24 50  1  0  0  0  0
M  CHG  1  19   1
M  END
> <s_m_source_file>
AV-unprocessed.smi

> <i_m_source_file_index>
2013

> <i_lp_mmshare_version>
43012

> <i_f3d_flags>
0

> <s_epik_input>
W0NIMl0xW0NIMl1PW0NIMl1bQ0gyXU4xW0NASF0oW0NIXShbQ0gzXSlbQ0gzXSlbQ0gyXVtOSF1DKD1PKVtDSDJdbjJbY0hdW2NIXWMoPU8pbihbQ0gzXSljMj1P

> <s_epik_cmdline>
J2VwaWtfcHl0aG9uJywgJy1waCcsICc3LjAnLCAnLXRuJywgJzgnLCAnLW1hJywgJzIwMCcsICctbWV0YWxfYmluZGluZycsICctaW1hZScsICc8aW5maWxlLm1hZT4nLCAnLW9tYWUnLCAnPG91dGZpbGUubWFlPic=

> <r_lp_tautomer_probability>
1

> <r_epik_Ionization_Penalty>
0.370738

> <r_epik_Ionization_Penalty_Charging>
0.370738

> <r_epik_Ionization_Penalty_Neutral>
8.1827e-08

> <r_epik_State_Penalty>
0.368162

> <r_epik_Charging_Adjusted_Penalty>
0.7389

> <i_epik_Tot_Q>
1

> <i_epik_Tot_abs_Q>
1

> <r_epik_Metal_State_Penalty>
0.368194

> <b_epik_Metal_Only>
0

> <s_lp_Force_Field>
OPLS_2005

> <r_lp_Energy>
35.5949

> <b_lp_Chiralities_Consistent>
1

> <s_lp_Variant>
AV-unprocessed.smi:2013-2

> <Gold.Version>
5.8.1

> <Gold.Id.Protein>
6NUR|6NUR_protein|mol2

> <Gold.PLP.Fitness>
44.2523

> <Gold.PLP.PLP>
-34.8373

> <Gold.PLP.part.hbond>
-3.0000

> <Gold.PLP.part.metal>
0.0000

> <Gold.PLP.part.buried>
-6.0050

> <Gold.PLP.part.nonpolar>
-26.4944

> <Gold.PLP.part.repulsive>
0.0747

> <Gold.PLP.ligand.clash>
0.0000

> <Gold.PLP.ligand.torsion>
1.4131

> <Gold.PLP.Chemscore.Hbond>
2.7680

> <Gold.PLP.Chemscore.CHOScore>
1.1654

> <Gold.PLP.Chemscore.Metal>
0.0000

> <Gold.Chemscore.Hbonds>
donor molecule, donor type, donor heavy atom, donor atom, acceptor molecule, acceptor atom, score
      L1  H     6    35       P1  7948  1.00
      L1  H    19    51       P1 10747  1.00
      P1  H  6896  6908       L1    18  0.64
      L1  C    11    38       P1  7948  0.49
      L1  C    11    38       P1  7949  0.60

> <Gold.PLP.Chemscore.Internal.Correction>
0.4409

> <Gold.Rescore>
     Score         DG    S(hbond)    S(metal)    S(lipo)     H(rot)  DE(clash)    DE(int)     intcor
     15.19     -17.70       2.72        0.00      76.66       2.28       0.07       2.44       ----

> <Gold.Chemscore.Fitness>
15.1941

> <Gold.Chemscore.DG>
-17.7039

> <Gold.Chemscore.ZeroCoef>
-5.4800

> <Gold.Chemscore.Hbond>
2.7232

> <Gold.Chemscore.Metal>
0.0000

> <Gold.Chemscore.Lipo>
76.6578

> <Gold.Chemscore.Internal_Hbond>
0.0000

> <Gold.Chemscore.DEClash>
0.0677

> <Gold.Chemscore.DEInternal>
2.4421

> <Gold.Chemscore.Rot>
2.2814

> <Gold.Chemscore.Internal.Correction>
   9.000000E+99

> <Gold.Chemscore.Hbonds>
donor molecule, donor type, donor heavy atom, donor atom, acceptor molecule, acceptor atom, score
      L1  H     6    35       P1  7948  0.60
      L1  H    19    51       P1 10747  1.00
      P1  H  6896  6908       L1    18  0.61

> <Gold.Chemscore.Hbond.Weighted>
-9.0954

> <Gold.Chemscore.Metal.Weighted>
-0.0000

> <Gold.Chemscore.Lipo.Weighted>
-8.9690

> <Gold.Chemscore.Internal_Hbond.Weighted>
0.0000

> <Gold.Chemscore.DEClash.Weighted>
0.0677

> <Gold.Chemscore.DEInternal.Weighted>
2.4421

> <Gold.Chemscore.Rot.Weighted>
5.8404

> <Gold.Chemscore.Internal.Correction.Weighted>
   9.000000E+99

> <Gold.Protein.RotatedTorsions>
[ 6907 6896 6895 6894 ] final  162.05 input  -60.11 | X-H torsion
[ 7974 7965 7964 7962 ] final  -86.78 input  175.53 | X-H torsion
[ 8008 7997 7996 7995 ] final  126.92 input   59.86 | X-H torsion
[ 10167 10162 10161 10158 ] final  158.55 input  -65.29 | X-H torsion
[ 10718 10713 10712 10709 ] final  113.85 input   66.30 | X-H torsion
[ 10763 10752 10751 10750 ] final -131.16 input  -60.55 | X-H torsion
[ 11005 11000 10999 10996 ] final -123.48 input  -57.11 | X-H torsion

> <Gold.Protein.ActiveResidues>
 VAL166  LYS551  ARG553  GLY616  TRP617  ASP618  TYR619  PRO620  LYS621  CYS622 
 ASP623  PHE694  ASN695  SER759  ASP760  ASP761  ALA762  ILE779  LEU786  VAL792 
 PHE793  MET794  SER795  GLU796  ALA797  LYS798  CYS799  TRP800  GLU811  SER814 

> <Gold.Protein.RotatedAtoms>
  151.9464  133.3653  159.3983 H   0  0  0  0  0  0  0  0  0  0  0  0  # atno 6907 bound_to 6896
  150.6989  134.4386  159.5291 H   0  0  0  0  0  0  0  0  0  0  0  0  # atno 6908 bound_to 6896
  152.2052  134.8552  160.0554 H   0  0  0  0  0  0  0  0  0  0  0  0  # atno 6909 bound_to 6896
  145.4753  140.9558  143.1894 H   0  0  0  0  0  0  0  0  0  0  0  0  # atno 7974 bound_to 7965
  156.2877  140.2681  156.2189 H   0  0  0  0  0  0  0  0  0  0  0  0  # atno 8008 bound_to 7997
  155.0188  140.0386  157.2447 H   0  0  0  0  0  0  0  0  0  0  0  0  # atno 8009 bound_to 7997
  154.7454  140.2733  155.6343 H   0  0  0  0  0  0  0  0  0  0  0  0  # atno 8010 bound_to 7997
  139.4827  144.4813  151.8439 H   0  0  0  0  0  0  0  0  0  0  0  0  # atno 10167 bound_to 10162
  157.6315  131.0990  150.7101 H   0  0  0  0  0  0  0  0  0  0  0  0  # atno 10718 bound_to 10713
  154.8752  135.3839  154.4201 H   0  0  0  0  0  0  0  0  0  0  0  0  # atno 10763 bound_to 10752
  153.4906  135.7030  153.5891 H   0  0  0  0  0  0  0  0  0  0  0  0  # atno 10764 bound_to 10752
  153.4267  135.3888  155.2112 H   0  0  0  0  0  0  0  0  0  0  0  0  # atno 10765 bound_to 10752
  140.9916  134.0531  157.3648 H   0  0  0  0  0  0  0  0  0  0  0  0  # atno 11005 bound_to 11000
  144.7921  139.6307  143.7109 LP  0  0  0  0  0  0  0  0  0  0  0  0  # atno 17320 bound_to 7965
  146.2373  139.5930  142.9515 LP  0  0  0  0  0  0  0  0  0  0  0  0  # atno 17321 bound_to 7965
  140.4290  144.2141  150.5887 LP  0  0  0  0  0  0  0  0  0  0  0  0  # atno 17342 bound_to 10162
  140.4798  143.2383  151.8971 LP  0  0  0  0  0  0  0  0  0  0  0  0  # atno 17343 bound_to 10162
  156.7439  130.4747  149.5471 LP  0  0  0  0  0  0  0  0  0  0  0  0  # atno 17370 bound_to 10713
  156.1522  130.6317  151.0610 LP  0  0  0  0  0  0  0  0  0  0  0  0  # atno 17371 bound_to 10713
  139.8995  135.0159  156.7197 LP  0  0  0  0  0  0  0  0  0  0  0  0  # atno 17394 bound_to 11000
  140.7031  133.9288  155.8037 LP  0  0  0  0  0  0  0  0  0  0  0  0  # atno 17395 bound_to 11000

$$$$
