AV-unprocessed.smi:394|AV-procd|sdf|2485|dock2
  -GOLD-   2262022423D 1   1.00000     0.00000
 Structure written by MMmdl.
 30 31  0  0  0  0  0  0  0  0  1 V2000
  153.2110  138.6977  154.8440 C   0  0  0  0  0  0  0  0  0  0  0  0
  152.5353  139.0304  156.0882 N   0  0  0  0  0  0  0  0  0  0  0  0
  151.4833  139.8599  156.1820 C   0  0  0  0  0  0  0  0  0  0  0  0
  150.9903  140.4177  155.2024 O   0  0  0  0  0  0  0  0  0  0  0  0
  150.8749  140.1198  157.5723 C   0  0  0  0  0  0  0  0  0  0  0  0
  151.6612  141.0229  158.4450 N   0  0  0  0  0  0  0  0  0  0  0  0
  152.9828  140.6477  158.7989 C   0  0  0  0  0  0  0  0  0  0  0  0
  153.4817  139.6043  158.3744 O   0  0  0  0  0  0  0  0  0  0  0  0
  153.6855  141.5758  159.6821 C   0  0  0  0  0  0  0  0  0  0  0  0
  154.9984  141.2101  160.1001 C   0  0  0  0  0  0  0  0  0  0  0  0
  156.0737  140.9238  160.4181 N   0  0  0  0  0  0  0  0  0  0  0  0
  153.1063  142.7260  160.0835 C   0  0  0  0  0  0  0  0  0  0  0  0
  151.8429  143.0996  159.6806 N   0  0  0  0  0  0  0  0  0  0  0  0
  151.1924  144.2549  160.2318 C   0  0  0  0  0  0  0  0  0  0  0  0
  150.4988  145.2512  159.3230 C   0  0  0  0  0  0  0  0  0  0  0  0
  151.7986  145.6210  159.9950 C   0  0  0  0  0  0  0  0  0  0  0  0
  151.0651  142.2298  158.8857 C   0  0  0  0  0  0  0  0  0  0  0  0
  149.9029  142.5105  158.5823 O   0  0  0  0  0  0  0  0  0  0  0  0
  154.0200  137.9935  155.0378 H   0  0  0  0  0  0  0  0  0  0  0  0
  153.6383  139.5898  154.3844 H   0  0  0  0  0  0  0  0  0  0  0  0
  152.5196  138.2374  154.1371 H   0  0  0  0  0  0  0  0  0  0  0  0
  152.8895  138.6073  156.9337 H   0  0  0  0  0  0  0  0  0  0  0  0
  149.8634  140.5036  157.4305 H   0  0  0  0  0  0  0  0  0  0  0  0
  150.7161  139.1540  158.0543 H   0  0  0  0  0  0  0  0  0  0  0  0
  153.6546  143.3860  160.7407 H   0  0  0  0  0  0  0  0  0  0  0  0
  150.7316  144.1049  161.2068 H   0  0  0  0  0  0  0  0  0  0  0  0
  150.5276  145.0779  158.2488 H   0  0  0  0  0  0  0  0  0  0  0  0
  149.5890  145.7178  159.6947 H   0  0  0  0  0  0  0  0  0  0  0  0
  151.7550  146.3372  160.8130 H   0  0  0  0  0  0  0  0  0  0  0  0
  152.6824  145.6888  159.3637 H   0  0  0  0  0  0  0  0  0  0  0  0
  1  2  1  0  0  0  0
  1 19  1  0  0  0  0
  1 20  1  0  0  0  0
  1 21  1  0  0  0  0
  2  3  1  0  0  0  0
  2 22  1  0  0  0  0
  3  4  2  0  0  0  0
  3  5  1  0  0  0  0
  5  6  1  0  0  0  0
  5 23  1  0  0  0  0
  5 24  1  0  0  0  0
  6 17  1  0  0  0  0
  6  7  1  0  0  0  0
  7  8  2  0  0  0  0
  7  9  1  0  0  0  0
  9 10  1  0  0  0  0
  9 12  2  0  0  0  0
 10 11  3  0  0  0  0
 12 13  1  0  0  0  0
 12 25  1  0  0  0  0
 13 14  1  0  0  0  0
 13 17  1  0  0  0  0
 14 16  1  0  0  0  0
 14 15  1  0  0  0  0
 14 26  1  0  0  0  0
 15 16  1  0  0  0  0
 15 27  1  0  0  0  0
 15 28  1  0  0  0  0
 16 29  1  0  0  0  0
 16 30  1  0  0  0  0
 17 18  2  0  0  0  0
M  END
> <s_m_source_file>
AV-unprocessed.smi

> <i_m_source_file_index>
394

> <i_lp_mmshare_version>
43012

> <i_f3d_flags>
0

> <s_epik_input>
W0NIM11bTkhdQyg9TylbQ0gyXW4xYyg9TyljKEMjTilbY0hdbihjMT1PKVtDSF0yW0NIMl1bQ0gyXTI=

> <s_epik_cmdline>
J2VwaWtfcHl0aG9uJywgJy1waCcsICc3LjAnLCAnLXRuJywgJzgnLCAnLW1hJywgJzIwMCcsICctbWV0YWxfYmluZGluZycsICctaW1hZScsICc8aW5maWxlLm1hZT4nLCAnLW9tYWUnLCAnPG91dGZpbGUubWFlPic=

> <r_lp_tautomer_probability>
1

> <r_epik_Ionization_Penalty>
1.93483e-08

> <r_epik_Ionization_Penalty_Charging>
8.13451e-11

> <r_epik_Ionization_Penalty_Neutral>
1.9267e-08

> <r_epik_State_Penalty>
-0

> <r_epik_Charging_Adjusted_Penalty>
8.13451e-11

> <i_epik_Tot_Q>
0

> <i_epik_Tot_abs_Q>
0

> <r_epik_Metal_State_Penalty>
-0

> <b_epik_Metal_Only>
0

> <s_lp_Force_Field>
OPLS_2005

> <r_lp_Energy>
29.0516

> <b_lp_Chiralities_Consistent>
1

> <s_lp_Variant>
AV-unprocessed.smi:394-1

> <Gold.Version>
5.8.1

> <Gold.Id.Protein>
6NUR|6NUR_protein|mol2

> <Gold.PLP.Fitness>
46.4462

> <Gold.PLP.PLP>
-40.8933

> <Gold.PLP.part.hbond>
-3.0000

> <Gold.PLP.part.metal>
0.0000

> <Gold.PLP.part.buried>
-5.4358

> <Gold.PLP.part.nonpolar>
-32.2726

> <Gold.PLP.part.repulsive>
0.3376

> <Gold.PLP.ligand.clash>
0.0000

> <Gold.PLP.ligand.torsion>
0.3127

> <Gold.PLP.Chemscore.Hbond>
1.9920

> <Gold.PLP.Chemscore.CHOScore>
0.0000

> <Gold.PLP.Chemscore.Metal>
0.0000

> <Gold.Chemscore.Hbonds>
donor molecule, donor type, donor heavy atom, donor atom, acceptor molecule, acceptor atom, score
      P1  H  7989  7998       L1     4  1.00
      P1  H  7997  8008       L1     8  1.00

> <Gold.PLP.Chemscore.Internal.Correction>
0.2023

> <Gold.Rescore>
     Score         DG    S(hbond)    S(metal)    S(lipo)     H(rot)  DE(clash)    DE(int)     intcor
      9.82     -14.45       1.68        0.00      66.51       1.73       0.07       4.56       ----

> <Gold.Chemscore.Fitness>
9.8202

> <Gold.Chemscore.DG>
-14.4507

> <Gold.Chemscore.ZeroCoef>
-5.4800

> <Gold.Chemscore.Hbond>
1.6831

> <Gold.Chemscore.Metal>
0.0000

> <Gold.Chemscore.Lipo>
66.5052

> <Gold.Chemscore.Internal_Hbond>
0.0000

> <Gold.Chemscore.DEClash>
0.0683

> <Gold.Chemscore.DEInternal>
4.5622

> <Gold.Chemscore.Rot>
1.7313

> <Gold.Chemscore.Internal.Correction>
   9.000000E+99

> <Gold.Chemscore.Hbonds>
donor molecule, donor type, donor heavy atom, donor atom, acceptor molecule, acceptor atom, score
      P1  H  7989  7998       L1     4  0.95
      P1  H  7997  8008       L1     8  0.69

> <Gold.Chemscore.Hbond.Weighted>
-5.6217

> <Gold.Chemscore.Metal.Weighted>
-0.0000

> <Gold.Chemscore.Lipo.Weighted>
-7.7811

> <Gold.Chemscore.Internal_Hbond.Weighted>
0.0000

> <Gold.Chemscore.DEClash.Weighted>
0.0683

> <Gold.Chemscore.DEInternal.Weighted>
4.5622

> <Gold.Chemscore.Rot.Weighted>
4.4320

> <Gold.Chemscore.Internal.Correction.Weighted>
   9.000000E+99

> <Gold.Protein.RotatedTorsions>
[ 6907 6896 6895 6894 ] final   15.39 input  -60.11 | X-H torsion
[ 7974 7965 7964 7962 ] final   33.92 input  175.53 | X-H torsion
[ 8008 7997 7996 7995 ] final -103.09 input   59.86 | X-H torsion
[ 10167 10162 10161 10158 ] final  176.25 input  -65.29 | X-H torsion
[ 10718 10713 10712 10709 ] final -178.09 input   66.30 | X-H torsion
[ 10763 10752 10751 10750 ] final -128.68 input  -60.55 | X-H torsion
[ 11005 11000 10999 10996 ] final   86.40 input  -57.11 | X-H torsion

> <Gold.Protein.ActiveResidues>
 VAL166  LYS551  ARG553  GLY616  TRP617  ASP618  TYR619  PRO620  LYS621  CYS622 
 ASP623  PHE694  ASN695  SER759  ASP760  ASP761  ALA762  ILE779  LEU786  VAL792 
 PHE793  MET794  SER795  GLU796  ALA797  LYS798  CYS799  TRP800  GLU811  SER814 

> <Gold.Protein.RotatedAtoms>
  151.8173  135.0662  160.0420 H   0  0  0  0  0  0  0  0  0  0  0  0  # atno 6907 bound_to 6896
  152.2977  133.5619  159.5606 H   0  0  0  0  0  0  0  0  0  0  0  0  # atno 6908 bound_to 6896
  150.7258  134.0253  159.3757 H   0  0  0  0  0  0  0  0  0  0  0  0  # atno 6909 bound_to 6896
  146.1388  139.6335  142.9177 H   0  0  0  0  0  0  0  0  0  0  0  0  # atno 7974 bound_to 7965
  154.8659  140.0425  157.1694 H   0  0  0  0  0  0  0  0  0  0  0  0  # atno 8008 bound_to 7997
  154.8790  140.2970  155.5415 H   0  0  0  0  0  0  0  0  0  0  0  0  # atno 8009 bound_to 7997
  156.2999  140.2415  156.3790 H   0  0  0  0  0  0  0  0  0  0  0  0  # atno 8010 bound_to 7997
  139.5207  144.2937  152.0441 H   0  0  0  0  0  0  0  0  0  0  0  0  # atno 10167 bound_to 10162
  156.8391  130.9680  151.3101 H   0  0  0  0  0  0  0  0  0  0  0  0  # atno 10718 bound_to 10713
  154.8757  135.3920  154.3796 H   0  0  0  0  0  0  0  0  0  0  0  0  # atno 10763 bound_to 10752
  153.4545  135.7028  153.6093 H   0  0  0  0  0  0  0  0  0  0  0  0  # atno 10764 bound_to 10752
  153.4619  135.3810  155.2311 H   0  0  0  0  0  0  0  0  0  0  0  0  # atno 10765 bound_to 10752
  139.8946  134.8352  156.2715 H   0  0  0  0  0  0  0  0  0  0  0  0  # atno 11005 bound_to 11000
  145.5095  141.0436  143.2496 LP  0  0  0  0  0  0  0  0  0  0  0  0  # atno 17320 bound_to 7965
  144.7769  139.6610  143.7171 LP  0  0  0  0  0  0  0  0  0  0  0  0  # atno 17321 bound_to 7965
  140.2387  144.4292  150.6269 LP  0  0  0  0  0  0  0  0  0  0  0  0  # atno 17342 bound_to 10162
  140.6305  143.2187  151.6505 LP  0  0  0  0  0  0  0  0  0  0  0  0  # atno 17343 bound_to 10162
  157.6365  130.8771  149.9369 LP  0  0  0  0  0  0  0  0  0  0  0  0  # atno 17370 bound_to 10713
  156.0890  130.3665  150.0431 LP  0  0  0  0  0  0  0  0  0  0  0  0  # atno 17371 bound_to 10713
  141.0098  133.7102  156.1093 LP  0  0  0  0  0  0  0  0  0  0  0  0  # atno 17394 bound_to 11000
  140.7383  134.4178  157.5558 LP  0  0  0  0  0  0  0  0  0  0  0  0  # atno 17395 bound_to 11000

$$$$
