AV-unprocessed.smi:1191|AV-procd|sdf|4986|dock1
  -GOLD-   22720 3583D 1   1.00000     0.00000
 Structure written by MMmdl.
 47 48  0  0  0  0  0  0  0  0  2 V2000
  150.8811  142.1285  156.6415 C   0  0  0  0  0  0  0  0  0  0  0  0
  150.3478  141.0788  155.7116 C   0  0  0  0  0  0  0  0  0  0  0  0
  149.0226  140.9312  155.2150 C   0  0  0  0  0  0  0  0  0  0  0  0
  149.0826  139.8251  154.4149 C   0  0  0  0  0  0  0  0  0  0  0  0
  148.0160  139.1608  153.6076 C   0  0  0  0  0  0  0  0  0  0  0  0
  150.3874  139.3667  154.4615 N   0  0  0  0  0  0  0  0  0  0  0  0
  150.9850  138.2263  153.7842 C   0  0  0  0  0  0  0  0  0  0  0  0
  150.9312  136.9735  154.6597 C   0  0  0  0  0  0  0  0  0  0  0  0
  151.6874  136.8617  155.6243 O   0  0  0  0  0  0  0  0  0  0  0  0
  150.0294  136.0408  154.3163 N   0  0  0  0  0  0  0  0  0  0  0  0
  149.8024  134.7923  155.0325 C   0  0  0  0  0  0  0  0  0  0  0  0
  149.5241  133.6299  154.0606 C   0  0  0  0  0  0  0  0  0  0  0  0
  148.2792  133.8383  153.2803 N   0  3  1  0  0  0  0  0  0  0  0  0
  148.0050  132.7186  152.3433 C   0  0  0  0  0  0  0  0  0  0  0  0
  146.8058  133.0378  151.4367 C   0  0  0  0  0  0  0  0  0  0  0  0
  145.5608  133.3804  152.2674 C   0  0  0  0  0  0  0  0  0  0  0  0
  145.8575  134.4958  153.2872 C   0  0  2  0  0  0  0  0  0  0  0  0
  145.9797  135.8844  152.6356 C   0  0  0  0  0  0  0  0  0  0  0  0
  147.0972  134.1394  154.1331 C   0  0  0  0  0  0  0  0  0  0  0  0
  151.1606  140.1403  155.2552 N   0  0  0  0  0  0  0  0  0  0  0  0
  150.0853  142.7855  156.9927 H   0  0  0  0  0  0  0  0  0  0  0  0
  151.6281  142.7485  156.1454 H   0  0  0  0  0  0  0  0  0  0  0  0
  151.3488  141.6777  157.5172 H   0  0  0  0  0  0  0  0  0  0  0  0
  148.1574  141.5454  155.4161 H   0  0  0  0  0  0  0  0  0  0  0  0
  147.0666  139.6871  153.7088 H   0  0  0  0  0  0  0  0  0  0  0  0
  147.8642  138.1319  153.9346 H   0  0  0  0  0  0  0  0  0  0  0  0
  148.2796  139.1467  152.5500 H   0  0  0  0  0  0  0  0  0  0  0  0
  150.4609  138.0450  152.8443 H   0  0  0  0  0  0  0  0  0  0  0  0
  152.0183  138.4631  153.5289 H   0  0  0  0  0  0  0  0  0  0  0  0
  149.4501  136.2196  153.5082 H   0  0  0  0  0  0  0  0  0  0  0  0
  150.6914  134.5967  155.6307 H   0  0  0  0  0  0  0  0  0  0  0  0
  148.9752  134.9109  155.7347 H   0  0  0  0  0  0  0  0  0  0  0  0
  150.3665  133.5511  153.3720 H   0  0  0  0  0  0  0  0  0  0  0  0
  149.4751  132.6788  154.5932 H   0  0  0  0  0  0  0  0  0  0  0  0
  148.8802  132.5341  151.7189 H   0  0  0  0  0  0  0  0  0  0  0  0
  147.8196  131.8045  152.9096 H   0  0  0  0  0  0  0  0  0  0  0  0
  147.0546  133.8695  150.7768 H   0  0  0  0  0  0  0  0  0  0  0  0
  146.5949  132.1871  150.7882 H   0  0  0  0  0  0  0  0  0  0  0  0
  144.7358  133.6666  151.6142 H   0  0  0  0  0  0  0  0  0  0  0  0
  145.2326  132.4864  152.7995 H   0  0  0  0  0  0  0  0  0  0  0  0
  145.0045  134.5496  153.9650 H   0  0  0  0  0  0  0  0  0  0  0  0
  146.8273  135.9420  151.9527 H   0  0  0  0  0  0  0  0  0  0  0  0
  146.1136  136.6596  153.3907 H   0  0  0  0  0  0  0  0  0  0  0  0
  145.0807  136.1321  152.0702 H   0  0  0  0  0  0  0  0  0  0  0  0
  146.8794  133.2704  154.7564 H   0  0  0  0  0  0  0  0  0  0  0  0
  147.3140  134.9602  154.8161 H   0  0  0  0  0  0  0  0  0  0  0  0
  148.4407  134.6511  152.7025 H   0  0  0  0  0  0  0  0  0  0  0  0
  1  2  1  0  0  0  0
  1 21  1  0  0  0  0
  1 22  1  0  0  0  0
  1 23  1  0  0  0  0
  2 20  2  0  0  0  0
  2  3  1  0  0  0  0
  3  4  2  0  0  0  0
  3 24  1  0  0  0  0
  4  5  1  0  0  0  0
  4  6  1  0  0  0  0
  5 25  1  0  0  0  0
  5 26  1  0  0  0  0
  5 27  1  0  0  0  0
  6  7  1  0  0  0  0
  6 20  1  0  0  0  0
  7  8  1  0  0  0  0
  7 28  1  0  0  0  0
  7 29  1  0  0  0  0
  8  9  2  0  0  0  0
  8 10  1  0  0  0  0
 10 11  1  0  0  0  0
 10 30  1  0  0  0  0
 11 12  1  0  0  0  0
 11 31  1  0  0  0  0
 11 32  1  0  0  0  0
 12 13  1  0  0  0  0
 12 33  1  0  0  0  0
 12 34  1  0  0  0  0
 13 19  1  0  0  0  0
 13 14  1  0  0  0  0
 13 47  1  0  0  0  0
 14 15  1  0  0  0  0
 14 35  1  0  0  0  0
 14 36  1  0  0  0  0
 15 16  1  0  0  0  0
 15 37  1  0  0  0  0
 15 38  1  0  0  0  0
 16 17  1  0  0  0  0
 16 39  1  0  0  0  0
 16 40  1  0  0  0  0
 17 18  1  0  0  0  0
 17 19  1  0  0  0  0
 17 41  1  0  0  0  0
 18 42  1  0  0  0  0
 18 43  1  0  0  0  0
 18 44  1  0  0  0  0
 19 45  1  0  0  0  0
 19 46  1  0  0  0  0
M  CHG  1  13   1
M  END
> <s_m_source_file>
AV-unprocessed.smi

> <i_m_source_file_index>
1191

> <i_lp_mmshare_version>
43012

> <i_f3d_flags>
0

> <s_epik_input>
W0NIM11jMVtjSF1jKFtDSDNdKW4objEpW0NIMl1DKD1PKVtOSF1bQ0gyXVtDSDJdTjJbQ0gyXVtDSDJdW0NIMl1bQ0BASF0oW0NIM10pW0NIMl0y

> <s_epik_cmdline>
J2VwaWtfcHl0aG9uJywgJy1waCcsICc3LjAnLCAnLXRuJywgJzgnLCAnLW1hJywgJzIwMCcsICctbWV0YWxfYmluZGluZycsICctaW1hZScsICc8aW5maWxlLm1hZT4nLCAnLW9tYWUnLCAnPG91dGZpbGUubWFlPic=

> <r_lp_tautomer_probability>
1

> <r_epik_Ionization_Penalty>
0.00249932

> <r_epik_Ionization_Penalty_Charging>
0.00230623

> <r_epik_Ionization_Penalty_Neutral>
0.000193092

> <r_epik_State_Penalty>
-0

> <r_epik_Charging_Adjusted_Penalty>
0.00230623

> <i_epik_Tot_Q>
1

> <i_epik_Tot_abs_Q>
1

> <r_epik_Metal_State_Penalty>
-0

> <b_epik_Metal_Only>
0

> <s_lp_Force_Field>
OPLS_2005

> <r_lp_Energy>
16.3649

> <b_lp_Chiralities_Consistent>
1

> <s_lp_Variant>
AV-unprocessed.smi:1191-3

> <Gold.Version>
5.8.1

> <Gold.Id.Protein>
6NUR|6NUR_protein|mol2

> <Gold.PLP.Fitness>
46.5339

> <Gold.PLP.PLP>
-35.9554

> <Gold.PLP.part.hbond>
-4.7296

> <Gold.PLP.part.metal>
0.0000

> <Gold.PLP.part.buried>
-2.4388

> <Gold.PLP.part.nonpolar>
-28.4539

> <Gold.PLP.part.repulsive>
0.1354

> <Gold.PLP.ligand.clash>
0.0000

> <Gold.PLP.ligand.torsion>
0.7118

> <Gold.PLP.Chemscore.Hbond>
3.9913

> <Gold.PLP.Chemscore.CHOScore>
0.0000

> <Gold.PLP.Chemscore.Metal>
0.0000

> <Gold.Chemscore.Hbonds>
donor molecule, donor type, donor heavy atom, donor atom, acceptor molecule, acceptor atom, score
      L1  H    10    30       P1  7948  1.00
      L1  H    13    47       P1  7948  2.00
      P1  H 10752 10764       L1     9  0.95

> <Gold.PLP.Chemscore.Internal.Correction>
0.0285

> <Gold.Rescore>
     Score         DG    S(hbond)    S(metal)    S(lipo)     H(rot)  DE(clash)    DE(int)     intcor
     16.86     -17.68       2.36        0.00      73.25       1.67       0.05       0.76       ----

> <Gold.Chemscore.Fitness>
16.8593

> <Gold.Chemscore.DG>
-17.6765

> <Gold.Chemscore.ZeroCoef>
-5.4800

> <Gold.Chemscore.Hbond>
2.3622

> <Gold.Chemscore.Metal>
0.0000

> <Gold.Chemscore.Lipo>
73.2541

> <Gold.Chemscore.Internal_Hbond>
0.0000

> <Gold.Chemscore.DEClash>
0.0545

> <Gold.Chemscore.DEInternal>
0.7628

> <Gold.Chemscore.Rot>
1.6657

> <Gold.Chemscore.Internal.Correction>
   9.000000E+99

> <Gold.Chemscore.Hbonds>
donor molecule, donor type, donor heavy atom, donor atom, acceptor molecule, acceptor atom, score
      L1  H    10    30       P1  7948  0.65
      L1  H    13    47       P1  7948  0.26
      P1  H 10752 10764       L1     9  0.20

> <Gold.Chemscore.Hbond.Weighted>
-7.8899

> <Gold.Chemscore.Metal.Weighted>
-0.0000

> <Gold.Chemscore.Lipo.Weighted>
-8.5707

> <Gold.Chemscore.Internal_Hbond.Weighted>
0.0000

> <Gold.Chemscore.DEClash.Weighted>
0.0545

> <Gold.Chemscore.DEInternal.Weighted>
0.7628

> <Gold.Chemscore.Rot.Weighted>
4.2641

> <Gold.Chemscore.Internal.Correction.Weighted>
   9.000000E+99

> <Gold.Protein.RotatedTorsions>
[ 6907 6896 6895 6894 ] final   83.05 input  -60.11 | X-H torsion
[ 7974 7965 7964 7962 ] final  -78.71 input  175.53 | X-H torsion
[ 8008 7997 7996 7995 ] final  -16.56 input   59.86 | X-H torsion
[ 10167 10162 10161 10158 ] final  104.56 input  -65.29 | X-H torsion
[ 10718 10713 10712 10709 ] final   11.80 input   66.30 | X-H torsion
[ 10763 10752 10751 10750 ] final  -45.30 input  -60.55 | X-H torsion
[ 11005 11000 10999 10996 ] final   21.06 input  -57.11 | X-H torsion

> <Gold.Protein.ActiveResidues>
 VAL166  LYS551  ARG553  GLY616  TRP617  ASP618  TYR619  PRO620  LYS621  CYS622 
 ASP623  PHE694  ASN695  SER759  ASP760  ASP761  ALA762  ILE779  LEU786  VAL792 
 PHE793  MET794  SER795  GLU796  ALA797  LYS798  CYS799  TRP800  GLU811  SER814 

> <Gold.Protein.RotatedAtoms>
  152.5316  134.2956  159.9058 H   0  0  0  0  0  0  0  0  0  0  0  0  # atno 6907 bound_to 6896
  151.2907  133.4160  159.2640 H   0  0  0  0  0  0  0  0  0  0  0  0  # atno 6908 bound_to 6896
  151.0203  134.9480  159.8113 H   0  0  0  0  0  0  0  0  0  0  0  0  # atno 6909 bound_to 6896
  145.5829  140.9445  143.1334 H   0  0  0  0  0  0  0  0  0  0  0  0  # atno 7974 bound_to 7965
  154.5044  140.2166  155.9282 H   0  0  0  0  0  0  0  0  0  0  0  0  # atno 8008 bound_to 7997
  156.1474  140.3168  155.8560 H   0  0  0  0  0  0  0  0  0  0  0  0  # atno 8009 bound_to 7997
  155.4004  140.0484  157.3027 H   0  0  0  0  0  0  0  0  0  0  0  0  # atno 8010 bound_to 7997
  139.7167  144.7067  151.0938 H   0  0  0  0  0  0  0  0  0  0  0  0  # atno 10167 bound_to 10162
  157.0008  130.6079  149.5696 H   0  0  0  0  0  0  0  0  0  0  0  0  # atno 10718 bound_to 10713
  154.0263  135.6662  153.4777 H   0  0  0  0  0  0  0  0  0  0  0  0  # atno 10763 bound_to 10752
  153.0559  135.5056  154.7975 H   0  0  0  0  0  0  0  0  0  0  0  0  # atno 10764 bound_to 10752
  154.6906  135.3061  154.9450 H   0  0  0  0  0  0  0  0  0  0  0  0  # atno 10765 bound_to 10752
  140.3957  134.1772  155.7663 H   0  0  0  0  0  0  0  0  0  0  0  0  # atno 11005 bound_to 11000
  144.7386  139.7514  143.7319 LP  0  0  0  0  0  0  0  0  0  0  0  0  # atno 17320 bound_to 7965
  146.1703  139.4851  142.9931 LP  0  0  0  0  0  0  0  0  0  0  0  0  # atno 17321 bound_to 7965
  140.7745  143.5220  150.9525 LP  0  0  0  0  0  0  0  0  0  0  0  0  # atno 17342 bound_to 10162
  139.8906  143.6958  152.3145 LP  0  0  0  0  0  0  0  0  0  0  0  0  # atno 17343 bound_to 10162
  156.0172  130.5266  150.8169 LP  0  0  0  0  0  0  0  0  0  0  0  0  # atno 17370 bound_to 10713
  157.5391  131.0940  150.9851 LP  0  0  0  0  0  0  0  0  0  0  0  0  # atno 17371 bound_to 10713
  141.1875  133.8280  157.1030 LP  0  0  0  0  0  0  0  0  0  0  0  0  # atno 17394 bound_to 11000
  140.0373  134.9871  157.0896 LP  0  0  0  0  0  0  0  0  0  0  0  0  # atno 17395 bound_to 11000

$$$$
