AV-unprocessed.smi:445|AV-procd|sdf|2591|dock7
  -GOLD-   2262022583D 1   1.00000     0.00000
 Structure written by MMmdl.
 44 45  0  0  0  0  0  0  0  0  3 V2000
  144.5007  136.2586  151.5255 C   0  0  0  0  0  0  0  0  0  0  0  0
  144.4835  134.8422  150.9251 C   0  0  2  0  0  0  0  0  0  0  0  0
  143.3528  133.9836  151.5295 C   0  0  0  0  0  0  0  0  0  0  0  0
  143.2979  132.5881  150.8873 C   0  0  0  0  0  0  0  0  0  0  0  0
  144.6489  131.8661  151.0017 C   0  0  0  0  0  0  0  0  0  0  0  0
  145.7856  132.7133  150.4034 C   0  0  0  0  0  0  0  0  0  0  0  0
  145.8532  134.1231  151.0247 C   0  0  2  0  0  0  0  0  0  0  0  0
  146.3190  134.0328  152.4101 N   0  0  0  0  0  0  0  0  0  0  0  0
  147.3292  133.2727  152.8600 C   0  0  0  0  0  0  0  0  0  0  0  0
  148.0161  132.5545  152.1322 O   0  0  0  0  0  0  0  0  0  0  0  0
  147.6154  133.3653  154.3654 C   0  0  0  0  0  0  0  0  0  0  0  0
  148.6646  132.4320  154.8147 N   0  0  0  0  0  0  0  0  0  0  0  0
  149.7091  132.9826  155.5786 C   0  0  0  0  0  0  0  0  0  0  0  0
  150.7298  132.2387  156.0395 C   0  0  0  0  0  0  0  0  0  0  0  0
  151.7963  132.8299  156.8191 N   0  3  0  0  0  0  0  0  0  0  0  0
  152.0466  134.0215  156.6680 O   0  0  0  0  0  0  0  0  0  0  0  0
  152.4196  132.1249  157.6070 O   0  5  0  0  0  0  0  0  0  0  0  0
  150.7311  130.8243  155.7276 C   0  0  0  0  0  0  0  0  0  0  0  0
  149.7359  130.2716  154.9878 C   0  0  0  0  0  0  0  0  0  0  0  0
  149.6973  128.8323  154.6446 C   0  0  0  0  0  0  0  0  0  0  0  0
  150.7903  128.1494  155.0076 N   0  0  0  0  0  0  0  0  0  0  0  0
  148.7856  128.2311  154.0766 O   0  0  0  0  0  0  0  0  0  0  0  0
  148.6126  131.1049  154.4787 C   0  0  0  0  0  0  0  0  0  0  0  0
  147.6748  130.6826  153.7967 O   0  0  0  0  0  0  0  0  0  0  0  0
  144.6525  136.2391  152.6050 H   0  0  0  0  0  0  0  0  0  0  0  0
  143.5585  136.7737  151.3365 H   0  0  0  0  0  0  0  0  0  0  0  0
  145.2979  136.8597  151.0875 H   0  0  0  0  0  0  0  0  0  0  0  0
  144.2637  134.9584  149.8628 H   0  0  0  0  0  0  0  0  0  0  0  0
  143.4942  133.8848  152.6066 H   0  0  0  0  0  0  0  0  0  0  0  0
  142.3930  134.4828  151.3920 H   0  0  0  0  0  0  0  0  0  0  0  0
  142.5170  131.9919  151.3600 H   0  0  0  0  0  0  0  0  0  0  0  0
  143.0217  132.6809  149.8363 H   0  0  0  0  0  0  0  0  0  0  0  0
  144.8608  131.6490  152.0492 H   0  0  0  0  0  0  0  0  0  0  0  0
  144.5987  130.9029  150.4934 H   0  0  0  0  0  0  0  0  0  0  0  0
  146.7399  132.1998  150.5281 H   0  0  0  0  0  0  0  0  0  0  0  0
  145.6308  132.8049  149.3276 H   0  0  0  0  0  0  0  0  0  0  0  0
  146.5744  134.6956  150.4389 H   0  0  0  0  0  0  0  0  0  0  0  0
  145.8215  134.5950  153.0856 H   0  0  0  0  0  0  0  0  0  0  0  0
  147.8924  134.3956  154.5924 H   0  0  0  0  0  0  0  0  0  0  0  0
  146.6927  133.1943  154.9236 H   0  0  0  0  0  0  0  0  0  0  0  0
  149.6250  134.0458  155.7527 H   0  0  0  0  0  0  0  0  0  0  0  0
  151.5474  130.2250  156.1017 H   0  0  0  0  0  0  0  0  0  0  0  0
  150.8569  127.1601  154.8186 H   0  0  0  0  0  0  0  0  0  0  0  0
  151.5464  128.6301  155.4738 H   0  0  0  0  0  0  0  0  0  0  0  0
  1  2  1  0  0  0  0
  1 25  1  0  0  0  0
  1 26  1  0  0  0  0
  1 27  1  0  0  0  0
  2  7  1  0  0  0  0
  2  3  1  0  0  0  0
  2 28  1  0  0  0  0
  3  4  1  0  0  0  0
  3 29  1  0  0  0  0
  3 30  1  0  0  0  0
  4  5  1  0  0  0  0
  4 31  1  0  0  0  0
  4 32  1  0  0  0  0
  5  6  1  0  0  0  0
  5 33  1  0  0  0  0
  5 34  1  0  0  0  0
  6  7  1  0  0  0  0
  6 35  1  0  0  0  0
  6 36  1  0  0  0  0
  7  8  1  0  0  0  0
  7 37  1  0  0  0  0
  8  9  1  0  0  0  0
  8 38  1  0  0  0  0
  9 10  2  0  0  0  0
  9 11  1  0  0  0  0
 11 12  1  0  0  0  0
 11 39  1  0  0  0  0
 11 40  1  0  0  0  0
 12 23  1  0  0  0  0
 12 13  1  0  0  0  0
 13 14  2  0  0  0  0
 13 41  1  0  0  0  0
 14 15  1  0  0  0  0
 14 18  1  0  0  0  0
 15 16  2  0  0  0  0
 15 17  1  0  0  0  0
 18 19  2  0  0  0  0
 18 42  1  0  0  0  0
 19 20  1  0  0  0  0
 19 23  1  0  0  0  0
 20 21  1  0  0  0  0
 20 22  2  0  0  0  0
 21 43  1  0  0  0  0
 21 44  1  0  0  0  0
 23 24  2  0  0  0  0
M  CHG  1  15   1
M  CHG  1  17  -1
M  END
> <s_m_source_file>
AV-unprocessed.smi

> <i_m_source_file_index>
445

> <i_lp_mmshare_version>
43012

> <i_f3d_flags>
0

> <s_epik_input>
W0NIM11bQ0BASF0xW0NIMl1bQ0gyXVtDSDJdW0NIMl1bQ0BIXTFbTkhdQyg9TylbQ0gyXW4yW2NIXWMoW04rXSg9TylbTy1dKVtjSF1jKGMyPU8pQyg9TylbTkgyXQ==

> <s_epik_cmdline>
J2VwaWtfcHl0aG9uJywgJy1waCcsICc3LjAnLCAnLXRuJywgJzgnLCAnLW1hJywgJzIwMCcsICctbWV0YWxfYmluZGluZycsICctaW1hZScsICc8aW5maWxlLm1hZT4nLCAnLW9tYWUnLCAnPG91dGZpbGUubWFlPic=

> <r_lp_tautomer_probability>
1

> <r_epik_Ionization_Penalty>
2.81321e-06

> <r_epik_Ionization_Penalty_Charging>
2.43777e-12

> <r_epik_Ionization_Penalty_Neutral>
2.81321e-06

> <r_epik_State_Penalty>
-0

> <r_epik_Charging_Adjusted_Penalty>
2.43777e-12

> <i_epik_Tot_Q>
0

> <i_epik_Tot_abs_Q>
2

> <r_epik_Metal_State_Penalty>
-0

> <b_epik_Metal_Only>
0

> <s_lp_Force_Field>
OPLS_2005

> <r_lp_Energy>
27.547

> <b_lp_Chiralities_Consistent>
1

> <s_lp_Variant>
AV-unprocessed.smi:445-3

> <Gold.Version>
5.8.1

> <Gold.Id.Protein>
6NUR|6NUR_protein|mol2

> <Gold.PLP.Fitness>
41.3809

> <Gold.PLP.PLP>
-36.8379

> <Gold.PLP.part.hbond>
-2.7365

> <Gold.PLP.part.metal>
0.0000

> <Gold.PLP.part.buried>
-4.6175

> <Gold.PLP.part.nonpolar>
-30.6854

> <Gold.PLP.part.repulsive>
2.3704

> <Gold.PLP.ligand.clash>
0.0000

> <Gold.PLP.ligand.torsion>
0.6011

> <Gold.PLP.Chemscore.Hbond>
1.9040

> <Gold.PLP.Chemscore.CHOScore>
0.0000

> <Gold.PLP.Chemscore.Metal>
0.0000

> <Gold.Chemscore.Hbonds>
donor molecule, donor type, donor heavy atom, donor atom, acceptor molecule, acceptor atom, score
      P1  H  6896  6907       L1    17  0.47
      P1  H 10752 10764       L1    16  0.12

> <Gold.PLP.Chemscore.Internal.Correction>
0.0332

> <Gold.Rescore>
     Score         DG    S(hbond)    S(metal)    S(lipo)     H(rot)  DE(clash)    DE(int)     intcor
      7.11     -14.89       1.49        0.00      75.38       1.71       1.67       6.11       ----

> <Gold.Chemscore.Fitness>
7.1076

> <Gold.Chemscore.DG>
-14.8863

> <Gold.Chemscore.ZeroCoef>
-5.4800

> <Gold.Chemscore.Hbond>
1.4881

> <Gold.Chemscore.Metal>
0.0000

> <Gold.Chemscore.Lipo>
75.3792

> <Gold.Chemscore.Internal_Hbond>
0.0000

> <Gold.Chemscore.DEClash>
1.6713

> <Gold.Chemscore.DEInternal>
6.1074

> <Gold.Chemscore.Rot>
1.7123

> <Gold.Chemscore.Internal.Correction>
   9.000000E+99

> <Gold.Chemscore.Hbonds>
donor molecule, donor type, donor heavy atom, donor atom, acceptor molecule, acceptor atom, score
      P1  H  6896  6907       L1    17  0.07
      P1  H 10752 10764       L1    16  0.13

> <Gold.Chemscore.Hbond.Weighted>
-4.9704

> <Gold.Chemscore.Metal.Weighted>
-0.0000

> <Gold.Chemscore.Lipo.Weighted>
-8.8194

> <Gold.Chemscore.Internal_Hbond.Weighted>
0.0000

> <Gold.Chemscore.DEClash.Weighted>
1.6713

> <Gold.Chemscore.DEInternal.Weighted>
6.1074

> <Gold.Chemscore.Rot.Weighted>
4.3835

> <Gold.Chemscore.Internal.Correction.Weighted>
   9.000000E+99

> <Gold.Protein.RotatedTorsions>
[ 6907 6896 6895 6894 ] final  151.79 input  -60.11 | X-H torsion
[ 7974 7965 7964 7962 ] final   90.85 input  175.53 | X-H torsion
[ 8008 7997 7996 7995 ] final  177.40 input   59.86 | X-H torsion
[ 10167 10162 10161 10158 ] final  151.05 input  -65.29 | X-H torsion
[ 10718 10713 10712 10709 ] final  -13.90 input   66.30 | X-H torsion
[ 10763 10752 10751 10750 ] final  -12.67 input  -60.55 | X-H torsion
[ 11005 11000 10999 10996 ] final   29.10 input  -57.11 | X-H torsion

> <Gold.Protein.ActiveResidues>
 VAL166  LYS551  ARG553  GLY616  TRP617  ASP618  TYR619  PRO620  LYS621  CYS622 
 ASP623  PHE694  ASN695  SER759  ASP760  ASP761  ALA762  ILE779  LEU786  VAL792 
 PHE793  MET794  SER795  GLU796  ALA797  LYS798  CYS799  TRP800  GLU811  SER814 

> <Gold.Protein.RotatedAtoms>
  152.0958  133.4224  159.4564 H   0  0  0  0  0  0  0  0  0  0  0  0  # atno 6907 bound_to 6896
  150.6863  134.2819  159.4640 H   0  0  0  0  0  0  0  0  0  0  0  0  # atno 6908 bound_to 6896
  152.0674  134.9555  160.0625 H   0  0  0  0  0  0  0  0  0  0  0  0  # atno 6909 bound_to 6896
  145.5135  139.2277  143.2711 H   0  0  0  0  0  0  0  0  0  0  0  0  # atno 7974 bound_to 7965
  156.0661  140.1359  156.9884 H   0  0  0  0  0  0  0  0  0  0  0  0  # atno 8008 bound_to 7997
  154.4507  140.0981  156.6660 H   0  0  0  0  0  0  0  0  0  0  0  0  # atno 8009 bound_to 7997
  155.5301  140.3458  155.4427 H   0  0  0  0  0  0  0  0  0  0  0  0  # atno 8010 bound_to 7997
  139.4844  144.5473  151.7463 H   0  0  0  0  0  0  0  0  0  0  0  0  # atno 10167 bound_to 10162
  156.6236  130.4882  149.6155 H   0  0  0  0  0  0  0  0  0  0  0  0  # atno 10718 bound_to 10713
  153.5019  135.7017  153.5827 H   0  0  0  0  0  0  0  0  0  0  0  0  # atno 10763 bound_to 10752
  153.3955  135.3885  155.1952 H   0  0  0  0  0  0  0  0  0  0  0  0  # atno 10764 bound_to 10752
  154.8710  135.3868  154.4490 H   0  0  0  0  0  0  0  0  0  0  0  0  # atno 10765 bound_to 10752
  140.3085  134.2676  155.7739 H   0  0  0  0  0  0  0  0  0  0  0  0  # atno 11005 bound_to 11000
  146.2151  140.5944  142.9042 LP  0  0  0  0  0  0  0  0  0  0  0  0  # atno 17320 bound_to 7965
  144.7714  140.5646  143.6667 LP  0  0  0  0  0  0  0  0  0  0  0  0  # atno 17321 bound_to 7965
  140.5021  144.1153  150.5973 LP  0  0  0  0  0  0  0  0  0  0  0  0  # atno 17342 bound_to 10162
  140.4050  143.2685  151.9902 LP  0  0  0  0  0  0  0  0  0  0  0  0  # atno 17343 bound_to 10162
  156.2292  130.6784  151.1446 LP  0  0  0  0  0  0  0  0  0  0  0  0  # atno 17370 bound_to 10713
  157.7220  131.0675  150.6093 LP  0  0  0  0  0  0  0  0  0  0  0  0  # atno 17371 bound_to 10713
  141.2113  133.7693  156.9872 LP  0  0  0  0  0  0  0  0  0  0  0  0  # atno 17394 bound_to 11000
  140.1046  134.9514  157.1974 LP  0  0  0  0  0  0  0  0  0  0  0  0  # atno 17395 bound_to 11000

$$$$
