AV-unprocessed.smi:2379|AV-procd|sdf|9451|dock6
  -GOLD-   2272013 83D 1   1.00000     0.00000
 Structure written by MMmdl.
 53 55  0  0  0  0  0  0  0  0  2 V2000
  153.4895  140.9508  160.0622 C   0  0  0  0  0  0  0  0  0  0  0  0
  152.6985  142.1564  159.5996 C   0  0  0  0  0  0  0  0  0  0  0  0
  152.8505  143.4062  160.2296 C   0  0  0  0  0  0  0  0  0  0  0  0
  152.0855  144.4887  159.7524 C   0  0  0  0  0  0  0  0  0  0  0  0
  152.1972  145.8603  160.3844 C   0  0  0  0  0  0  0  0  0  0  0  0
  151.2173  144.3806  158.7239 N   0  0  0  0  0  0  0  0  0  0  0  0
  151.0623  143.1813  158.1103 C   0  0  0  0  0  0  0  0  0  0  0  0
  150.1769  142.9617  157.0219 N   0  0  0  0  0  0  0  0  0  0  0  0
  149.5964  141.8098  156.6422 C   0  0  0  0  0  0  0  0  0  0  0  0
  149.7426  140.7194  157.1953 O   0  0  0  0  0  0  0  0  0  0  0  0
  148.8138  141.9926  155.5685 N   0  0  0  0  0  0  0  0  0  0  0  0
  148.0283  140.9506  154.9136 C   0  0  2  0  0  0  0  0  0  0  0  0
  148.9659  139.8694  154.3510 C   0  0  0  0  0  0  0  0  0  0  0  0
  148.1863  138.8079  153.5565 C   0  0  0  0  0  0  0  0  0  0  0  0
  147.3929  139.4327  152.4670 N   0  3  1  0  0  0  0  0  0  0  0  0
  146.7508  138.4378  151.5698 C   0  0  0  0  0  0  0  0  0  0  0  0
  146.0805  137.3006  152.3639 C   0  0  2  0  0  0  0  0  0  0  0  0
  145.6233  136.1108  151.5413 C   0  0  0  0  0  0  0  0  0  0  0  0
  144.6046  135.4497  152.4660 C   0  0  0  0  0  0  0  0  0  0  0  0
  144.0583  136.4983  153.2610 O   0  0  0  0  0  0  0  0  0  0  0  0
  144.7619  137.7117  153.0182 C   0  0  0  0  0  0  0  0  0  0  0  0
  146.4384  140.4389  153.0002 C   0  0  0  0  0  0  0  0  0  0  0  0
  147.1769  141.5425  153.7743 C   0  0  0  0  0  0  0  0  0  0  0  0
  151.7906  142.0446  158.5273 C   0  0  0  0  0  0  0  0  0  0  0  0
  154.2530  141.2330  160.7880 H   0  0  0  0  0  0  0  0  0  0  0  0
  153.9849  140.4737  159.2162 H   0  0  0  0  0  0  0  0  0  0  0  0
  152.8261  140.2223  160.5287 H   0  0  0  0  0  0  0  0  0  0  0  0
  153.5342  143.5320  161.0567 H   0  0  0  0  0  0  0  0  0  0  0  0
  153.0031  145.8932  161.1180 H   0  0  0  0  0  0  0  0  0  0  0  0
  151.2660  146.1205  160.8882 H   0  0  0  0  0  0  0  0  0  0  0  0
  152.3996  146.6153  159.6242 H   0  0  0  0  0  0  0  0  0  0  0  0
  149.9547  143.7795  156.4741 H   0  0  0  0  0  0  0  0  0  0  0  0
  148.7554  142.9218  155.1780 H   0  0  0  0  0  0  0  0  0  0  0  0
  147.3683  140.4839  155.6478 H   0  0  0  0  0  0  0  0  0  0  0  0
  149.7129  140.3277  153.7008 H   0  0  0  0  0  0  0  0  0  0  0  0
  149.5153  139.3911  155.1627 H   0  0  0  0  0  0  0  0  0  0  0  0
  148.8928  138.0924  153.1339 H   0  0  0  0  0  0  0  0  0  0  0  0
  147.5235  138.2489  154.2190 H   0  0  0  0  0  0  0  0  0  0  0  0
  145.9754  138.9275  150.9784 H   0  0  0  0  0  0  0  0  0  0  0  0
  147.4675  138.0465  150.8457 H   0  0  0  0  0  0  0  0  0  0  0  0
  146.7565  136.9524  153.1470 H   0  0  0  0  0  0  0  0  0  0  0  0
  145.1321  136.4452  150.6261 H   0  0  0  0  0  0  0  0  0  0  0  0
  146.4362  135.4373  151.2677 H   0  0  0  0  0  0  0  0  0  0  0  0
  143.8263  134.9217  151.9143 H   0  0  0  0  0  0  0  0  0  0  0  0
  145.0959  134.7344  153.1271 H   0  0  0  0  0  0  0  0  0  0  0  0
  144.9095  138.2760  153.9393 H   0  0  0  0  0  0  0  0  0  0  0  0
  144.1672  138.3241  152.3385 H   0  0  0  0  0  0  0  0  0  0  0  0
  145.8720  140.8897  152.1862 H   0  0  0  0  0  0  0  0  0  0  0  0
  145.7136  139.9470  153.6512 H   0  0  0  0  0  0  0  0  0  0  0  0
  146.4530  142.2541  154.1737 H   0  0  0  0  0  0  0  0  0  0  0  0
  147.8128  142.1028  153.0871 H   0  0  0  0  0  0  0  0  0  0  0  0
  151.6574  141.0940  158.0308 H   0  0  0  0  0  0  0  0  0  0  0  0
  148.0573  139.9348  151.8956 H   0  0  0  0  0  0  0  0  0  0  0  0
  1  2  1  0  0  0  0
  1 25  1  0  0  0  0
  1 26  1  0  0  0  0
  1 27  1  0  0  0  0
  2 24  1  0  0  0  0
  2  3  2  0  0  0  0
  3  4  1  0  0  0  0
  3 28  1  0  0  0  0
  4  5  1  0  0  0  0
  4  6  2  0  0  0  0
  5 29  1  0  0  0  0
  5 30  1  0  0  0  0
  5 31  1  0  0  0  0
  6  7  1  0  0  0  0
  7  8  1  0  0  0  0
  7 24  2  0  0  0  0
  8  9  1  0  0  0  0
  8 32  1  0  0  0  0
  9 10  2  0  0  0  0
  9 11  1  0  0  0  0
 11 12  1  0  0  0  0
 11 33  1  0  0  0  0
 12 23  1  0  0  0  0
 12 13  1  0  0  0  0
 12 34  1  0  0  0  0
 13 14  1  0  0  0  0
 13 35  1  0  0  0  0
 13 36  1  0  0  0  0
 14 15  1  0  0  0  0
 14 37  1  0  0  0  0
 14 38  1  0  0  0  0
 15 16  1  0  0  0  0
 15 22  1  0  0  0  0
 15 53  1  0  0  0  0
 16 17  1  0  0  0  0
 16 39  1  0  0  0  0
 16 40  1  0  0  0  0
 17 21  1  0  0  0  0
 17 18  1  0  0  0  0
 17 41  1  0  0  0  0
 18 19  1  0  0  0  0
 18 42  1  0  0  0  0
 18 43  1  0  0  0  0
 19 20  1  0  0  0  0
 19 44  1  0  0  0  0
 19 45  1  0  0  0  0
 20 21  1  0  0  0  0
 21 46  1  0  0  0  0
 21 47  1  0  0  0  0
 22 23  1  0  0  0  0
 22 48  1  0  0  0  0
 22 49  1  0  0  0  0
 23 50  1  0  0  0  0
 23 51  1  0  0  0  0
 24 52  1  0  0  0  0
M  CHG  1  15   1
M  END
> <s_m_source_file>
AV-unprocessed.smi

> <i_m_source_file_index>
2379

> <i_lp_mmshare_version>
43012

> <i_f3d_flags>
0

> <s_epik_input>
W0NIM11jMVtjSF1jKFtDSDNdKW5jKFtjSF0xKVtOSF1DKD1PKVtOSF1bQ0hdMltDSDJdW0NIMl1OKFtDSDJdW0NIMl0yKVtDSDJdW0NAQEhdM1tDSDJdW0NIMl1PW0NIMl0z

> <s_epik_cmdline>
J2VwaWtfcHl0aG9uJywgJy1waCcsICc3LjAnLCAnLXRuJywgJzgnLCAnLW1hJywgJzIwMCcsICctbWV0YWxfYmluZGluZycsICctaW1hZScsICc8aW5maWxlLm1hZT4nLCAnLW9tYWUnLCAnPG91dGZpbGUubWFlPic=

> <r_epik_Ionization_Penalty>
0.00766556

> <r_epik_Ionization_Penalty_Charging>
0.00747775

> <r_epik_Ionization_Penalty_Neutral>
0.00018781

> <r_epik_State_Penalty>
0.00558817

> <r_epik_Charging_Adjusted_Penalty>
0.0130659

> <i_epik_Tot_Q>
1

> <i_epik_Tot_abs_Q>
1

> <r_epik_Metal_State_Penalty>
-0

> <b_epik_Metal_Only>
0

> <s_lp_Force_Field>
OPLS_2005

> <r_lp_Energy>
36.075

> <b_lp_Chiralities_Consistent>
1

> <s_lp_Variant>
AV-unprocessed.smi:2379-1

> <Gold.Version>
5.8.1

> <Gold.Id.Protein>
6NUR|6NUR_protein|mol2

> <Gold.PLP.Fitness>
49.1855

> <Gold.PLP.PLP>
-41.3168

> <Gold.PLP.part.hbond>
-3.0000

> <Gold.PLP.part.metal>
0.0000

> <Gold.PLP.part.buried>
2.5288

> <Gold.PLP.part.nonpolar>
-42.1775

> <Gold.PLP.part.repulsive>
0.4423

> <Gold.PLP.ligand.clash>
0.0000

> <Gold.PLP.ligand.torsion>
0.4043

> <Gold.PLP.Chemscore.Hbond>
2.8800

> <Gold.PLP.Chemscore.CHOScore>
0.0000

> <Gold.PLP.Chemscore.Metal>
0.0000

> <Gold.Chemscore.Hbonds>
donor molecule, donor type, donor heavy atom, donor atom, acceptor molecule, acceptor atom, score
      L1  H     8    32       P1  8028  1.00
      L1  H    11    33       P1  8028  0.85
      L1  H    15    53       P1  7957  1.00

> <Gold.PLP.Chemscore.Internal.Correction>
0.0373

> <Gold.Rescore>
     Score         DG    S(hbond)    S(metal)    S(lipo)     H(rot)  DE(clash)    DE(int)     intcor
     21.73     -25.71       2.78        0.00     123.74       1.37       2.09       1.90       ----

> <Gold.Chemscore.Fitness>
21.7312

> <Gold.Chemscore.DG>
-25.7137

> <Gold.Chemscore.ZeroCoef>
-5.4800

> <Gold.Chemscore.Hbond>
2.7753

> <Gold.Chemscore.Metal>
0.0000

> <Gold.Chemscore.Lipo>
123.7426

> <Gold.Chemscore.Internal_Hbond>
0.0000

> <Gold.Chemscore.DEClash>
2.0858

> <Gold.Chemscore.DEInternal>
1.8967

> <Gold.Chemscore.Rot>
1.3725

> <Gold.Chemscore.Internal.Correction>
   9.000000E+99

> <Gold.Chemscore.Hbonds>
donor molecule, donor type, donor heavy atom, donor atom, acceptor molecule, acceptor atom, score
      L1  H     8    32       P1  8028  0.96
      L1  H    11    33       P1  8028  0.85
      L1  H    15    53       P1  7957  0.95

> <Gold.Chemscore.Hbond.Weighted>
-9.2694

> <Gold.Chemscore.Metal.Weighted>
-0.0000

> <Gold.Chemscore.Lipo.Weighted>
-14.4779

> <Gold.Chemscore.Internal_Hbond.Weighted>
0.0000

> <Gold.Chemscore.DEClash.Weighted>
2.0858

> <Gold.Chemscore.DEInternal.Weighted>
1.8967

> <Gold.Chemscore.Rot.Weighted>
3.5136

> <Gold.Chemscore.Internal.Correction.Weighted>
   9.000000E+99

> <Gold.Protein.RotatedTorsions>
[ 6907 6896 6895 6894 ] final   15.08 input  -60.11 | X-H torsion
[ 7974 7965 7964 7962 ] final -143.67 input  175.53 | X-H torsion
[ 8008 7997 7996 7995 ] final -175.17 input   59.86 | X-H torsion
[ 10167 10162 10161 10158 ] final  120.33 input  -65.29 | X-H torsion
[ 10718 10713 10712 10709 ] final  -79.75 input   66.30 | X-H torsion
[ 10763 10752 10751 10750 ] final  -97.23 input  -60.55 | X-H torsion
[ 11005 11000 10999 10996 ] final   54.88 input  -57.11 | X-H torsion

> <Gold.Protein.ActiveResidues>
 VAL166  LYS551  ARG553  GLY616  TRP617  ASP618  TYR619  PRO620  LYS621  CYS622 
 ASP623  PHE694  ASN695  SER759  ASP760  ASP761  ALA762  ILE779  LEU786  VAL792 
 PHE793  MET794  SER795  GLU796  ALA797  LYS798  CYS799  TRP800  GLU811  SER814 

> <Gold.Protein.RotatedAtoms>
  151.8124  135.0677  160.0414 H   0  0  0  0  0  0  0  0  0  0  0  0  # atno 6907 bound_to 6896
  152.3011  133.5652  159.5627 H   0  0  0  0  0  0  0  0  0  0  0  0  # atno 6908 bound_to 6896
  150.7274  134.0206  159.3742 H   0  0  0  0  0  0  0  0  0  0  0  0  # atno 6909 bound_to 6896
  144.8353  140.5806  143.5488 H   0  0  0  0  0  0  0  0  0  0  0  0  # atno 7974 bound_to 7965
  155.9792  140.1178  157.0742 H   0  0  0  0  0  0  0  0  0  0  0  0  # atno 8008 bound_to 7997
  154.4178  140.1148  156.5480 H   0  0  0  0  0  0  0  0  0  0  0  0  # atno 8009 bound_to 7997
  155.6493  140.3473  155.4745 H   0  0  0  0  0  0  0  0  0  0  0  0  # atno 8010 bound_to 7997
  139.5989  144.7050  151.3110 H   0  0  0  0  0  0  0  0  0  0  0  0  # atno 10167 bound_to 10162
  156.0085  130.4554  150.3695 H   0  0  0  0  0  0  0  0  0  0  0  0  # atno 10718 bound_to 10713
  154.7309  135.5054  153.8963 H   0  0  0  0  0  0  0  0  0  0  0  0  # atno 10763 bound_to 10752
  153.0949  135.6669  153.9791 H   0  0  0  0  0  0  0  0  0  0  0  0  # atno 10764 bound_to 10752
  153.9592  135.3049  155.3414 H   0  0  0  0  0  0  0  0  0  0  0  0  # atno 10765 bound_to 10752
  140.0651  134.5548  155.9108 H   0  0  0  0  0  0  0  0  0  0  0  0  # atno 11005 bound_to 11000
  145.4809  139.1495  143.3762 LP  0  0  0  0  0  0  0  0  0  0  0  0  # atno 17320 bound_to 7965
  146.2652  140.4945  142.8837 LP  0  0  0  0  0  0  0  0  0  0  0  0  # atno 17321 bound_to 7965
  140.7234  143.7073  150.7797 LP  0  0  0  0  0  0  0  0  0  0  0  0  # atno 17342 bound_to 10162
  140.0645  143.5122  152.2611 LP  0  0  0  0  0  0  0  0  0  0  0  0  # atno 17343 bound_to 10162
  157.1780  131.0385  151.2762 LP  0  0  0  0  0  0  0  0  0  0  0  0  # atno 17370 bound_to 10713
  157.4171  130.7417  149.6884 LP  0  0  0  0  0  0  0  0  0  0  0  0  # atno 17371 bound_to 10713
  141.1989  133.6604  156.5817 LP  0  0  0  0  0  0  0  0  0  0  0  0  # atno 17394 bound_to 11000
  140.3711  134.7605  157.4599 LP  0  0  0  0  0  0  0  0  0  0  0  0  # atno 17395 bound_to 11000

$$$$
