AV-unprocessed.smi:808|AV-procd|sdf|3804|dock8
  -GOLD-   22720 1243D 1   1.00000     0.00000
 Structure written by MMmdl.
 34 35  0  0  0  0  0  0  0  0  2 V2000
  150.7990  140.6091  155.3548 O   0  0  0  0  0  0  0  0  0  0  0  0
  150.0334  141.5725  155.3816 C   0  0  0  0  0  0  0  0  0  0  0  0
  148.7783  141.5749  154.5036 C   0  0  0  0  0  0  0  0  0  0  0  0
  147.5739  141.8133  155.2812 N   0  0  0  0  0  0  0  0  0  0  0  0
  147.4226  141.7625  156.6543 C   0  0  0  0  0  0  0  0  0  0  0  0
  146.1084  142.0386  156.8816 C   0  0  0  0  0  0  0  0  0  0  0  0
  145.4261  142.0969  158.2114 C   0  0  0  0  0  0  0  0  0  0  0  0
  146.1120  141.9130  159.2407 O   0  0  0  0  0  0  0  0  0  0  0  0
  144.1972  142.3289  158.2400 O   0  5  0  0  0  0  0  0  0  0  0  0
  145.5137  142.2552  155.6117 C   0  0  0  0  0  0  0  0  0  0  0  0
  146.4114  142.1165  154.6454 N   0  0  0  0  0  0  0  0  0  0  0  0
  150.2407  142.6595  156.1425 N   0  0  0  0  0  0  0  0  0  0  0  0
  151.3519  142.8488  157.0684 C   0  0  0  0  0  0  0  0  0  0  0  0
  151.0423  142.1255  158.3928 C   0  0  0  0  0  0  0  0  0  0  0  0
  152.1564  142.3464  159.4286 C   0  0  0  0  0  0  0  0  0  0  0  0
  152.4066  143.8438  159.6667 C   0  0  0  0  0  0  0  0  0  0  0  0
  152.7210  144.5696  158.3491 C   0  0  0  0  0  0  0  0  0  0  0  0
  151.6093  144.3504  157.3102 C   0  0  0  0  0  0  0  0  0  0  0  0
  148.8681  142.3517  153.7435 H   0  0  0  0  0  0  0  0  0  0  0  0
  148.6825  140.6224  153.9800 H   0  0  0  0  0  0  0  0  0  0  0  0
  148.2362  141.5339  157.3268 H   0  0  0  0  0  0  0  0  0  0  0  0
  144.4909  142.4983  155.3635 H   0  0  0  0  0  0  0  0  0  0  0  0
  149.5582  143.4023  156.0965 H   0  0  0  0  0  0  0  0  0  0  0  0
  152.2511  142.4005  156.6412 H   0  0  0  0  0  0  0  0  0  0  0  0
  150.0960  142.4855  158.7990 H   0  0  0  0  0  0  0  0  0  0  0  0
  150.9141  141.0571  158.2141 H   0  0  0  0  0  0  0  0  0  0  0  0
  151.8920  141.8593  160.3676 H   0  0  0  0  0  0  0  0  0  0  0  0
  153.0760  141.8725  159.0829 H   0  0  0  0  0  0  0  0  0  0  0  0
  151.5274  144.2925  160.1309 H   0  0  0  0  0  0  0  0  0  0  0  0
  153.2295  143.9761  160.3698 H   0  0  0  0  0  0  0  0  0  0  0  0
  152.8514  145.6363  158.5335 H   0  0  0  0  0  0  0  0  0  0  0  0
  153.6691  144.2070  157.9500 H   0  0  0  0  0  0  0  0  0  0  0  0
  151.8820  144.8419  156.3757 H   0  0  0  0  0  0  0  0  0  0  0  0
  150.6930  144.8311  157.6558 H   0  0  0  0  0  0  0  0  0  0  0  0
  1  2  2  0  0  0  0
  2  3  1  0  0  0  0
  2 12  1  0  0  0  0
  3  4  1  0  0  0  0
  3 19  1  0  0  0  0
  3 20  1  0  0  0  0
  4 11  1  0  0  0  0
  4  5  1  0  0  0  0
  5  6  2  0  0  0  0
  5 21  1  0  0  0  0
  6  7  1  0  0  0  0
  6 10  1  0  0  0  0
  7  8  2  0  0  0  0
  7  9  1  0  0  0  0
 10 11  2  0  0  0  0
 10 22  1  0  0  0  0
 12 13  1  0  0  0  0
 12 23  1  0  0  0  0
 13 18  1  0  0  0  0
 13 14  1  0  0  0  0
 13 24  1  0  0  0  0
 14 15  1  0  0  0  0
 14 25  1  0  0  0  0
 14 26  1  0  0  0  0
 15 16  1  0  0  0  0
 15 27  1  0  0  0  0
 15 28  1  0  0  0  0
 16 17  1  0  0  0  0
 16 29  1  0  0  0  0
 16 30  1  0  0  0  0
 17 18  1  0  0  0  0
 17 31  1  0  0  0  0
 17 32  1  0  0  0  0
 18 33  1  0  0  0  0
 18 34  1  0  0  0  0
M  CHG  1   9  -1
M  END
> <s_m_source_file>
AV-unprocessed.smi

> <i_m_source_file_index>
808

> <i_lp_mmshare_version>
43012

> <i_f3d_flags>
0

> <s_epik_input>
Tz1DKFtPSF0pYyhbY0hdbjEpW2NIXW4xW0NIMl1DKD1PKVtOSF1bQ0hdMltDSDJdW0NIMl1bQ0gyXVtDSDJdW0NIMl0y

> <s_epik_cmdline>
J2VwaWtfcHl0aG9uJywgJy1waCcsICc3LjAnLCAnLXRuJywgJzgnLCAnLW1hJywgJzIwMCcsICctbWV0YWxfYmluZGluZycsICctaW1hZScsICc8aW5maWxlLm1hZT4nLCAnLW9tYWUnLCAnPG91dGZpbGUubWFlPic=

> <r_epik_Ionization_Penalty>
0.00097052

> <r_epik_Ionization_Penalty_Charging>
0.000938868

> <r_epik_Ionization_Penalty_Neutral>
3.16514e-05

> <r_epik_State_Penalty>
0.000609423

> <r_epik_Charging_Adjusted_Penalty>
0.00154829

> <i_epik_Tot_Q>
-1

> <i_epik_Tot_abs_Q>
1

> <r_epik_Metal_State_Penalty>
-0

> <b_epik_Metal_Only>
0

> <s_lp_Force_Field>
OPLS_2005

> <r_lp_Energy>
12.0504

> <b_lp_Chiralities_Consistent>
1

> <s_lp_Variant>
AV-unprocessed.smi:808-1

> <Gold.Version>
5.8.1

> <Gold.Id.Protein>
6NUR|6NUR_protein|mol2

> <Gold.PLP.Fitness>
45.1549

> <Gold.PLP.PLP>
-34.3686

> <Gold.PLP.part.hbond>
-2.9765

> <Gold.PLP.part.metal>
0.0000

> <Gold.PLP.part.buried>
-3.5639

> <Gold.PLP.part.nonpolar>
-28.0460

> <Gold.PLP.part.repulsive>
0.3344

> <Gold.PLP.ligand.clash>
0.0000

> <Gold.PLP.ligand.torsion>
0.5091

> <Gold.PLP.Chemscore.Hbond>
3.9280

> <Gold.PLP.Chemscore.CHOScore>
0.0000

> <Gold.PLP.Chemscore.Metal>
0.0000

> <Gold.Chemscore.Hbonds>
donor molecule, donor type, donor heavy atom, donor atom, acceptor molecule, acceptor atom, score
      L1  H    12    23       P1  8028  1.00
      P1  H  6934  6946       L1     8  2.00
      P1  H  7989  7998       L1     1  0.85

> <Gold.PLP.Chemscore.Internal.Correction>
0.0204

> <Gold.Rescore>
     Score         DG    S(hbond)    S(metal)    S(lipo)     H(rot)  DE(clash)    DE(int)     intcor
     17.76     -18.61       2.28        0.00      81.81       1.59       0.03       0.82       ----

> <Gold.Chemscore.Fitness>
17.7562

> <Gold.Chemscore.DG>
-18.6081

> <Gold.Chemscore.ZeroCoef>
-5.4800

> <Gold.Chemscore.Hbond>
2.2839

> <Gold.Chemscore.Metal>
0.0000

> <Gold.Chemscore.Lipo>
81.8065

> <Gold.Chemscore.Internal_Hbond>
0.0000

> <Gold.Chemscore.DEClash>
0.0331

> <Gold.Chemscore.DEInternal>
0.8189

> <Gold.Chemscore.Rot>
1.5904

> <Gold.Chemscore.Internal.Correction>
   9.000000E+99

> <Gold.Chemscore.Hbonds>
donor molecule, donor type, donor heavy atom, donor atom, acceptor molecule, acceptor atom, score
      L1  H    12    23       P1  8028  0.94
      P1  H  6934  6946       L1     8  0.93
      P1  H  7989  7998       L1     1  0.18

> <Gold.Chemscore.Hbond.Weighted>
-7.6282

> <Gold.Chemscore.Metal.Weighted>
-0.0000

> <Gold.Chemscore.Lipo.Weighted>
-9.5714

> <Gold.Chemscore.Internal_Hbond.Weighted>
0.0000

> <Gold.Chemscore.DEClash.Weighted>
0.0331

> <Gold.Chemscore.DEInternal.Weighted>
0.8189

> <Gold.Chemscore.Rot.Weighted>
4.0714

> <Gold.Chemscore.Internal.Correction.Weighted>
   9.000000E+99

> <Gold.Protein.RotatedTorsions>
[ 6907 6896 6895 6894 ] final   70.73 input  -60.11 | X-H torsion
[ 7974 7965 7964 7962 ] final -169.66 input  175.53 | X-H torsion
[ 8008 7997 7996 7995 ] final   32.67 input   59.86 | X-H torsion
[ 10167 10162 10161 10158 ] final -104.13 input  -65.29 | X-H torsion
[ 10718 10713 10712 10709 ] final   -1.09 input   66.30 | X-H torsion
[ 10763 10752 10751 10750 ] final  -43.13 input  -60.55 | X-H torsion
[ 11005 11000 10999 10996 ] final   72.75 input  -57.11 | X-H torsion

> <Gold.Protein.ActiveResidues>
 VAL166  LYS551  ARG553  GLY616  TRP617  ASP618  TYR619  PRO620  LYS621  CYS622 
 ASP623  PHE694  ASN695  SER759  ASP760  ASP761  ALA762  ILE779  LEU786  VAL792 
 PHE793  MET794  SER795  GLU796  ALA797  LYS798  CYS799  TRP800  GLU811  SER814 

> <Gold.Protein.RotatedAtoms>
  152.4767  134.4825  159.9669 H   0  0  0  0  0  0  0  0  0  0  0  0  # atno 6907 bound_to 6896
  151.4839  133.3534  159.2850 H   0  0  0  0  0  0  0  0  0  0  0  0  # atno 6908 bound_to 6896
  150.8811  134.8228  159.7287 H   0  0  0  0  0  0  0  0  0  0  0  0  # atno 6909 bound_to 6896
  144.7182  140.2188  143.6318 H   0  0  0  0  0  0  0  0  0  0  0  0  # atno 7974 bound_to 7965
  155.1263  140.3253  155.4485 H   0  0  0  0  0  0  0  0  0  0  0  0  # atno 8008 bound_to 7997
  156.2648  140.2018  156.6332 H   0  0  0  0  0  0  0  0  0  0  0  0  # atno 8009 bound_to 7997
  154.6646  140.0543  157.0086 H   0  0  0  0  0  0  0  0  0  0  0  0  # atno 8010 bound_to 7997
  140.2125  143.3735  152.1038 H   0  0  0  0  0  0  0  0  0  0  0  0  # atno 10167 bound_to 10162
  156.8107  130.5423  149.5709 H   0  0  0  0  0  0  0  0  0  0  0  0  # atno 10718 bound_to 10713
  153.9905  135.6706  153.4754 H   0  0  0  0  0  0  0  0  0  0  0  0  # atno 10763 bound_to 10752
  153.0707  135.4976  154.8294 H   0  0  0  0  0  0  0  0  0  0  0  0  # atno 10764 bound_to 10752
  154.7111  135.3097  154.9157 H   0  0  0  0  0  0  0  0  0  0  0  0  # atno 10765 bound_to 10752
  139.9475  134.7287  156.0943 H   0  0  0  0  0  0  0  0  0  0  0  0  # atno 11005 bound_to 11000
  145.8521  139.2180  143.1766 LP  0  0  0  0  0  0  0  0  0  0  0  0  # atno 17320 bound_to 7965
  146.0251  140.8311  142.9904 LP  0  0  0  0  0  0  0  0  0  0  0  0  # atno 17321 bound_to 7965
  139.5174  144.6992  151.5544 LP  0  0  0  0  0  0  0  0  0  0  0  0  # atno 17342 bound_to 10162
  140.6313  143.9071  150.6608 LP  0  0  0  0  0  0  0  0  0  0  0  0  # atno 17343 bound_to 10162
  156.1046  130.5995  150.9950 LP  0  0  0  0  0  0  0  0  0  0  0  0  # atno 17370 bound_to 10713
  157.6507  131.0897  150.8057 LP  0  0  0  0  0  0  0  0  0  0  0  0  # atno 17371 bound_to 10713
  141.1129  133.6637  156.3023 LP  0  0  0  0  0  0  0  0  0  0  0  0  # atno 17394 bound_to 11000
  140.5799  134.5756  157.5477 LP  0  0  0  0  0  0  0  0  0  0  0  0  # atno 17395 bound_to 11000

$$$$
