AV-unprocessed.smi:2497|AV-procd|sdf|9829|dock3
  -GOLD-   2272013463D 1   1.00000     0.00000
 Structure written by MMmdl.
 47 48  0  0  0  0  0  0  0  0  1 V2000
  152.8534  142.3035  159.0166 C   0  0  0  0  0  0  0  0  0  0  0  0
  151.9442  143.2775  158.2478 C   0  0  0  0  0  0  0  0  0  0  0  0
  151.1658  144.1678  159.2283 C   0  0  0  0  0  0  0  0  0  0  0  0
  150.9796  142.5482  157.2915 C   0  0  0  0  0  0  0  0  0  0  0  0
  151.6546  141.4813  156.4123 C   0  0  0  0  0  0  0  0  0  0  0  0
  150.6770  140.7313  155.6489 N   0  0  0  0  0  0  0  0  0  0  0  0
  149.5199  141.1880  155.0512 C   0  0  0  0  0  0  0  0  0  0  0  0
  148.9132  140.1166  154.4601 C   0  0  0  0  0  0  0  0  0  0  0  0
  149.7917  139.0346  154.7673 C   0  0  0  0  0  0  0  0  0  0  0  0
  149.6228  137.6846  154.3676 N   0  0  0  0  0  0  0  0  0  0  0  0
  149.7265  136.5763  155.1193 C   0  0  0  0  0  0  0  0  0  0  0  0
  150.0204  136.5573  156.3141 O   0  0  0  0  0  0  0  0  0  0  0  0
  149.4771  135.4774  154.3870 N   0  0  0  0  0  0  0  0  0  0  0  0
  149.4903  134.0697  154.8126 C   0  0  0  0  0  0  0  0  0  0  0  0
  150.7969  133.7692  155.5781 C   0  0  0  0  0  0  0  0  0  0  0  0
  148.2541  133.7144  155.6750 C   0  0  0  0  0  0  0  0  0  0  0  0
  146.9463  133.7967  154.8681 C   0  0  0  0  0  0  0  0  0  0  0  0
  147.0205  132.9313  153.7415 O   0  0  0  0  0  0  0  0  0  0  0  0
  148.0618  133.2853  152.8391 C   0  0  0  0  0  0  0  0  0  0  0  0
  149.4291  133.1920  153.5435 C   0  0  0  0  0  0  0  0  0  0  0  0
  150.8501  139.4045  155.4668 N   0  0  0  0  0  0  0  0  0  0  0  0
  152.2682  141.5979  159.6073 H   0  0  0  0  0  0  0  0  0  0  0  0
  153.5117  142.8404  159.7002 H   0  0  0  0  0  0  0  0  0  0  0  0
  153.4903  141.7287  158.3449 H   0  0  0  0  0  0  0  0  0  0  0  0
  152.5808  143.9329  157.6520 H   0  0  0  0  0  0  0  0  0  0  0  0
  150.4977  143.5765  159.8554 H   0  0  0  0  0  0  0  0  0  0  0  0
  150.5605  144.9032  158.6977 H   0  0  0  0  0  0  0  0  0  0  0  0
  151.8422  144.7144  159.8860 H   0  0  0  0  0  0  0  0  0  0  0  0
  150.1682  142.0974  157.8651 H   0  0  0  0  0  0  0  0  0  0  0  0
  150.5107  143.2822  156.6342 H   0  0  0  0  0  0  0  0  0  0  0  0
  152.3532  141.9477  155.7167 H   0  0  0  0  0  0  0  0  0  0  0  0
  152.2293  140.7794  157.0166 H   0  0  0  0  0  0  0  0  0  0  0  0
  149.2273  142.2267  155.0967 H   0  0  0  0  0  0  0  0  0  0  0  0
  147.9902  140.1221  153.9000 H   0  0  0  0  0  0  0  0  0  0  0  0
  149.4309  137.5463  153.3864 H   0  0  0  0  0  0  0  0  0  0  0  0
  149.2499  135.6293  153.4152 H   0  0  0  0  0  0  0  0  0  0  0  0
  150.8779  132.7089  155.8201 H   0  0  0  0  0  0  0  0  0  0  0  0
  150.8543  134.3157  156.5194 H   0  0  0  0  0  0  0  0  0  0  0  0
  151.6733  134.0365  154.9865 H   0  0  0  0  0  0  0  0  0  0  0  0
  148.3604  132.6963  156.0520 H   0  0  0  0  0  0  0  0  0  0  0  0
  148.1870  134.3470  156.5596 H   0  0  0  0  0  0  0  0  0  0  0  0
  146.1053  133.4896  155.4897 H   0  0  0  0  0  0  0  0  0  0  0  0
  146.7434  134.8191  154.5461 H   0  0  0  0  0  0  0  0  0  0  0  0
  148.0332  132.6024  151.9899 H   0  0  0  0  0  0  0  0  0  0  0  0
  147.8883  134.2869  152.4428 H   0  0  0  0  0  0  0  0  0  0  0  0
  150.2244  133.4666  152.8492 H   0  0  0  0  0  0  0  0  0  0  0  0
  149.6076  132.1494  153.8107 H   0  0  0  0  0  0  0  0  0  0  0  0
  1  2  1  0  0  0  0
  1 22  1  0  0  0  0
  1 23  1  0  0  0  0
  1 24  1  0  0  0  0
  2  3  1  0  0  0  0
  2  4  1  0  0  0  0
  2 25  1  0  0  0  0
  3 26  1  0  0  0  0
  3 27  1  0  0  0  0
  3 28  1  0  0  0  0
  4  5  1  0  0  0  0
  4 29  1  0  0  0  0
  4 30  1  0  0  0  0
  5  6  1  0  0  0  0
  5 31  1  0  0  0  0
  5 32  1  0  0  0  0
  6 21  1  0  0  0  0
  6  7  1  0  0  0  0
  7  8  2  0  0  0  0
  7 33  1  0  0  0  0
  8  9  1  0  0  0  0
  8 34  1  0  0  0  0
  9 10  1  0  0  0  0
  9 21  2  0  0  0  0
 10 11  1  0  0  0  0
 10 35  1  0  0  0  0
 11 12  2  0  0  0  0
 11 13  1  0  0  0  0
 13 14  1  0  0  0  0
 13 36  1  0  0  0  0
 14 20  1  0  0  0  0
 14 15  1  0  0  0  0
 14 16  1  0  0  0  0
 15 37  1  0  0  0  0
 15 38  1  0  0  0  0
 15 39  1  0  0  0  0
 16 17  1  0  0  0  0
 16 40  1  0  0  0  0
 16 41  1  0  0  0  0
 17 18  1  0  0  0  0
 17 42  1  0  0  0  0
 17 43  1  0  0  0  0
 18 19  1  0  0  0  0
 19 20  1  0  0  0  0
 19 44  1  0  0  0  0
 19 45  1  0  0  0  0
 20 46  1  0  0  0  0
 20 47  1  0  0  0  0
M  END
> <s_m_source_file>
AV-unprocessed.smi

> <i_m_source_file_index>
2497

> <i_lp_mmshare_version>
43012

> <i_f3d_flags>
0

> <s_epik_input>
W0NIM11bQ0hdKFtDSDNdKVtDSDJdW0NIMl1uMVtjSF1bY0hdYyhuMSlbTkhdQyg9TylbTkhdQzIoW0NIM10pW0NIMl1bQ0gyXU9bQ0gyXVtDSDJdMg==

> <s_epik_cmdline>
J2VwaWtfcHl0aG9uJywgJy1waCcsICc3LjAnLCAnLXRuJywgJzgnLCAnLW1hJywgJzIwMCcsICctbWV0YWxfYmluZGluZycsICctaW1hZScsICc8aW5maWxlLm1hZT4nLCAnLW9tYWUnLCAnPG91dGZpbGUubWFlPic=

> <r_lp_tautomer_probability>
1

> <r_epik_Ionization_Penalty>
3.57775e-05

> <r_epik_Ionization_Penalty_Charging>
0

> <r_epik_Ionization_Penalty_Neutral>
3.57775e-05

> <r_epik_State_Penalty>
-0

> <r_epik_Charging_Adjusted_Penalty>
0

> <i_epik_Tot_Q>
0

> <i_epik_Tot_abs_Q>
0

> <r_epik_Metal_State_Penalty>
-0

> <b_epik_Metal_Only>
0

> <s_lp_Force_Field>
OPLS_2005

> <r_lp_Energy>
13.1227

> <b_lp_Chiralities_Consistent>
1

> <s_lp_Variant>
AV-unprocessed.smi:2497-1

> <Gold.Version>
5.8.1

> <Gold.Id.Protein>
6NUR|6NUR_protein|mol2

> <Gold.PLP.Fitness>
43.4442

> <Gold.PLP.PLP>
-36.5672

> <Gold.PLP.part.hbond>
-2.0000

> <Gold.PLP.part.metal>
0.0000

> <Gold.PLP.part.buried>
-3.6617

> <Gold.PLP.part.nonpolar>
-29.9474

> <Gold.PLP.part.repulsive>
0.1598

> <Gold.PLP.ligand.clash>
0.0000

> <Gold.PLP.ligand.torsion>
0.9891

> <Gold.PLP.Chemscore.Hbond>
1.9350

> <Gold.PLP.Chemscore.CHOScore>
0.9883

> <Gold.PLP.Chemscore.Metal>
0.0000

> <Gold.Chemscore.Hbonds>
donor molecule, donor type, donor heavy atom, donor atom, acceptor molecule, acceptor atom, score
      L1  H    10    35       P1  7948  0.95
      L1  H    13    36       P1  7948  1.00
      L1  C     7    33       P1  8028  0.90

> <Gold.PLP.Chemscore.Internal.Correction>
0.0855

> <Gold.Rescore>
     Score         DG    S(hbond)    S(metal)    S(lipo)     H(rot)  DE(clash)    DE(int)     intcor
     15.08     -17.83       1.80        0.00      86.22       1.47       0.18       2.57       ----

> <Gold.Chemscore.Fitness>
15.0810

> <Gold.Chemscore.DG>
-17.8254

> <Gold.Chemscore.ZeroCoef>
-5.4800

> <Gold.Chemscore.Hbond>
1.8027

> <Gold.Chemscore.Metal>
0.0000

> <Gold.Chemscore.Lipo>
86.2154

> <Gold.Chemscore.Internal_Hbond>
0.0000

> <Gold.Chemscore.DEClash>
0.1778

> <Gold.Chemscore.DEInternal>
2.5666

> <Gold.Chemscore.Rot>
1.4698

> <Gold.Chemscore.Internal.Correction>
   9.000000E+99

> <Gold.Chemscore.Hbonds>
donor molecule, donor type, donor heavy atom, donor atom, acceptor molecule, acceptor atom, score
      L1  H    10    35       P1  7948  0.81
      L1  H    13    36       P1  7948  0.45

> <Gold.Chemscore.Hbond.Weighted>
-6.0209

> <Gold.Chemscore.Metal.Weighted>
-0.0000

> <Gold.Chemscore.Lipo.Weighted>
-10.0872

> <Gold.Chemscore.Internal_Hbond.Weighted>
0.0000

> <Gold.Chemscore.DEClash.Weighted>
0.1778

> <Gold.Chemscore.DEInternal.Weighted>
2.5666

> <Gold.Chemscore.Rot.Weighted>
3.7628

> <Gold.Chemscore.Internal.Correction.Weighted>
   9.000000E+99

> <Gold.Protein.RotatedTorsions>
[ 6907 6896 6895 6894 ] final   30.78 input  -60.11 | X-H torsion
[ 7974 7965 7964 7962 ] final  -51.52 input  175.53 | X-H torsion
[ 8008 7997 7996 7995 ] final  -23.35 input   59.86 | X-H torsion
[ 10167 10162 10161 10158 ] final -173.06 input  -65.29 | X-H torsion
[ 10718 10713 10712 10709 ] final -158.43 input   66.30 | X-H torsion
[ 10763 10752 10751 10750 ] final -131.73 input  -60.55 | X-H torsion
[ 11005 11000 10999 10996 ] final -114.51 input  -57.11 | X-H torsion

> <Gold.Protein.ActiveResidues>
 VAL166  LYS551  ARG553  GLY616  TRP617  ASP618  TYR619  PRO620  LYS621  CYS622 
 ASP623  PHE694  ASN695  SER759  ASP760  ASP761  ALA762  ILE779  LEU786  VAL792 
 PHE793  MET794  SER795  GLU796  ALA797  LYS798  CYS799  TRP800  GLU811  SER814 

> <Gold.Protein.RotatedAtoms>
  152.0508  134.9654  160.0574 H   0  0  0  0  0  0  0  0  0  0  0  0  # atno 6907 bound_to 6896
  152.1056  133.4268  159.4615 H   0  0  0  0  0  0  0  0  0  0  0  0  # atno 6908 bound_to 6896
  150.6841  134.2628  159.4599 H   0  0  0  0  0  0  0  0  0  0  0  0  # atno 6909 bound_to 6896
  145.9181  140.7858  142.9661 H   0  0  0  0  0  0  0  0  0  0  0  0  # atno 7974 bound_to 7965
  154.4590  140.1983  156.0297 H   0  0  0  0  0  0  0  0  0  0  0  0  # atno 8008 bound_to 7997
  156.0803  140.3272  155.7658 H   0  0  0  0  0  0  0  0  0  0  0  0  # atno 8009 bound_to 7997
  155.5122  140.0562  157.2912 H   0  0  0  0  0  0  0  0  0  0  0  0  # atno 8010 bound_to 7997
  139.5709  144.1643  152.1383 H   0  0  0  0  0  0  0  0  0  0  0  0  # atno 10167 bound_to 10162
  156.5540  130.8618  151.2789 H   0  0  0  0  0  0  0  0  0  0  0  0  # atno 10718 bound_to 10713
  154.8749  135.3821  154.4293 H   0  0  0  0  0  0  0  0  0  0  0  0  # atno 10763 bound_to 10752
  153.4989  135.7030  153.5848 H   0  0  0  0  0  0  0  0  0  0  0  0  # atno 10764 bound_to 10752
  153.4188  135.3906  155.2065 H   0  0  0  0  0  0  0  0  0  0  0  0  # atno 10765 bound_to 10752
  141.0547  133.9631  157.2774 H   0  0  0  0  0  0  0  0  0  0  0  0  # atno 11005 bound_to 11000
  144.6750  140.1931  143.7394 LP  0  0  0  0  0  0  0  0  0  0  0  0  # atno 17320 bound_to 7965
  145.8586  139.2211  143.1730 LP  0  0  0  0  0  0  0  0  0  0  0  0  # atno 17321 bound_to 7965
  140.1176  144.5402  150.6884 LP  0  0  0  0  0  0  0  0  0  0  0  0  # atno 17342 bound_to 10162
  140.6994  143.2424  151.4909 LP  0  0  0  0  0  0  0  0  0  0  0  0  # atno 17343 bound_to 10162
  157.7382  130.9809  150.2237 LP  0  0  0  0  0  0  0  0  0  0  0  0  # atno 17370 bound_to 10713
  156.2859  130.3739  149.7889 LP  0  0  0  0  0  0  0  0  0  0  0  0  # atno 17371 bound_to 10713
  139.9380  135.0194  156.8618 LP  0  0  0  0  0  0  0  0  0  0  0  0  # atno 17394 bound_to 11000
  140.5986  134.0193  155.7528 LP  0  0  0  0  0  0  0  0  0  0  0  0  # atno 17395 bound_to 11000

$$$$
