AV-unprocessed.smi:1410|AV-procd|sdf|5737|dock6
  -GOLD-   22720 5373D 1   1.00000     0.00000
 Structure written by MMmdl.
 40 41  0  0  0  0  0  0  0  0  4 V2000
  142.2676  132.6744  148.3751 N   0  5  0  0  0  0  0  0  0  0  0  0
  143.5257  132.4688  148.8091 C   0  0  0  0  0  0  0  0  0  0  0  0
  144.5182  132.1849  148.1416 O   0  0  0  0  0  0  0  0  0  0  0  0
  143.6488  132.5979  150.3312 C   0  0  0  0  0  0  0  0  0  0  0  0
  144.5877  133.6939  150.6783 N   0  3  2  0  0  0  0  0  0  0  0  0
  144.9610  133.7103  152.1184 C   0  0  0  0  0  0  0  0  0  0  0  0
  146.0361  134.7724  152.3996 C   0  0  0  0  0  0  0  0  0  0  0  0
  145.5685  136.1661  151.9519 C   0  0  1  0  0  0  0  0  0  0  0  0
  146.6383  137.1377  152.1606 N   0  0  0  0  0  0  0  0  0  0  0  0
  146.5596  138.2133  152.9572 C   0  0  0  0  0  0  0  0  0  0  0  0
  145.5487  138.5162  153.5905 O   0  0  0  0  0  0  0  0  0  0  0  0
  147.7091  138.9105  152.9506 N   0  0  0  0  0  0  0  0  0  0  0  0
  148.0371  140.0810  153.6879 C   0  0  0  0  0  0  0  0  0  0  0  0
  147.0490  141.0847  153.7967 C   0  0  0  0  0  0  0  0  0  0  0  0
  147.3367  142.2700  154.5040 C   0  0  0  0  0  0  0  0  0  0  0  0
  148.5543  142.4416  155.0618 N   0  3  0  0  0  0  0  0  0  0  0  0
  149.5352  141.5182  154.9716 C   0  0  0  0  0  0  0  0  0  0  0  0
  149.3063  140.3129  154.2770 C   0  0  0  0  0  0  0  0  0  0  0  0
  145.1494  136.1170  150.4714 C   0  0  0  0  0  0  0  0  0  0  0  0
  144.0977  135.0212  150.2271 C   0  0  0  0  0  0  0  0  0  0  0  0
  141.6258  133.2193  148.9638 H   0  0  0  0  0  0  0  0  0  0  0  0
  142.6516  132.8274  150.7092 H   0  0  0  0  0  0  0  0  0  0  0  0
  143.9551  131.6662  150.8122 H   0  0  0  0  0  0  0  0  0  0  0  0
  144.0736  133.9046  152.7230 H   0  0  0  0  0  0  0  0  0  0  0  0
  145.3403  132.7347  152.4228 H   0  0  0  0  0  0  0  0  0  0  0  0
  146.2744  134.7807  153.4639 H   0  0  0  0  0  0  0  0  0  0  0  0
  146.9559  134.5015  151.8785 H   0  0  0  0  0  0  0  0  0  0  0  0
  144.7047  136.4469  152.5578 H   0  0  0  0  0  0  0  0  0  0  0  0
  147.5055  136.9690  151.6718 H   0  0  0  0  0  0  0  0  0  0  0  0
  148.4187  138.5909  152.3076 H   0  0  0  0  0  0  0  0  0  0  0  0
  146.0751  140.9495  153.3487 H   0  0  0  0  0  0  0  0  0  0  0  0
  146.6350  143.0803  154.6374 H   0  0  0  0  0  0  0  0  0  0  0  0
  150.4706  141.7718  155.4486 H   0  0  0  0  0  0  0  0  0  0  0  0
  150.1113  139.5981  154.1991 H   0  0  0  0  0  0  0  0  0  0  0  0
  144.7493  137.0827  150.1597 H   0  0  0  0  0  0  0  0  0  0  0  0
  146.0217  135.9267  149.8440 H   0  0  0  0  0  0  0  0  0  0  0  0
  143.8611  134.9850  149.1631 H   0  0  0  0  0  0  0  0  0  0  0  0
  143.1716  135.2644  150.7505 H   0  0  0  0  0  0  0  0  0  0  0  0
  145.4319  133.5067  150.1558 H   0  0  0  0  0  0  0  0  0  0  0  0
  148.7429  143.3073  155.5681 H   0  0  0  0  0  0  0  0  0  0  0  0
  1  2  1  0  0  0  0
  1 21  1  0  0  0  0
  2  3  2  0  0  0  0
  2  4  1  0  0  0  0
  4  5  1  0  0  0  0
  4 22  1  0  0  0  0
  4 23  1  0  0  0  0
  5 20  1  0  0  0  0
  5  6  1  0  0  0  0
  5 39  1  0  0  0  0
  6  7  1  0  0  0  0
  6 24  1  0  0  0  0
  6 25  1  0  0  0  0
  7  8  1  0  0  0  0
  7 26  1  0  0  0  0
  7 27  1  0  0  0  0
  8  9  1  0  0  0  0
  8 19  1  0  0  0  0
  8 28  1  0  0  0  0
  9 10  1  0  0  0  0
  9 29  1  0  0  0  0
 10 11  2  0  0  0  0
 10 12  1  0  0  0  0
 12 13  1  0  0  0  0
 12 30  1  0  0  0  0
 13 18  1  0  0  0  0
 13 14  2  0  0  0  0
 14 15  1  0  0  0  0
 14 31  1  0  0  0  0
 15 16  2  0  0  0  0
 15 32  1  0  0  0  0
 16 17  1  0  0  0  0
 16 40  1  0  0  0  0
 17 18  2  0  0  0  0
 17 33  1  0  0  0  0
 18 34  1  0  0  0  0
 19 20  1  0  0  0  0
 19 35  1  0  0  0  0
 19 36  1  0  0  0  0
 20 37  1  0  0  0  0
 20 38  1  0  0  0  0
M  CHG  1   1  -1
M  CHG  1   5   1
M  CHG  1  16   1
M  END
> <s_m_source_file>
AV-unprocessed.smi

> <i_m_source_file_index>
1410

> <i_lp_mmshare_version>
43012

> <i_f3d_flags>
0

> <s_epik_input>
W05IMl1DKD1PKVtDSDJdTjFbQ0gyXVtDSDJdW0NIXShbQ0gyXVtDSDJdMSlbTkhdQyg9TylbTkhdYzJbY0hdW2NIXW5bY0hdW2NIXTI=

> <s_epik_cmdline>
J2VwaWtfcHl0aG9uJywgJy1waCcsICc3LjAnLCAnLXRuJywgJzgnLCAnLW1hJywgJzIwMCcsICctbWV0YWxfYmluZGluZycsICctaW1hZScsICc8aW5maWxlLm1hZT4nLCAnLW9tYWUnLCAnPG91dGZpbGUubWFlPic=

> <r_epik_Ionization_Penalty>
6.84067

> <r_epik_Ionization_Penalty_Charging>
6.84065

> <r_epik_Ionization_Penalty_Neutral>
1.84563e-05

> <r_epik_State_Penalty>
7.68217

> <r_epik_Charging_Adjusted_Penalty>
14.5228

> <i_epik_Tot_Q>
1

> <i_epik_Tot_abs_Q>
3

> <r_epik_Metal_State_Penalty>
3.74331

> <b_epik_Metal_Only>
1

> <s_lp_Force_Field>
OPLS_2005

> <r_lp_Energy>
19.1226

> <b_lp_Chiralities_Consistent>
1

> <s_lp_Variant>
AV-unprocessed.smi:1410-9

> <Gold.Version>
5.8.1

> <Gold.Id.Protein>
6NUR|6NUR_protein|mol2

> <Gold.PLP.Fitness>
48.5738

> <Gold.PLP.PLP>
-37.1833

> <Gold.PLP.part.hbond>
-8.4366

> <Gold.PLP.part.metal>
0.0000

> <Gold.PLP.part.buried>
1.5257

> <Gold.PLP.part.nonpolar>
-32.0660

> <Gold.PLP.part.repulsive>
1.1833

> <Gold.PLP.ligand.clash>
0.0000

> <Gold.PLP.ligand.torsion>
0.3564

> <Gold.PLP.Chemscore.Hbond>
4.0274

> <Gold.PLP.Chemscore.CHOScore>
0.0000

> <Gold.PLP.Chemscore.Metal>
0.0000

> <Gold.Chemscore.Hbonds>
donor molecule, donor type, donor heavy atom, donor atom, acceptor molecule, acceptor atom, score
      L1  H     1    21       P1 10186  0.80
      L1  H     9    29       P1  7948  0.86
      L1  H    12    30       P1  7957  0.27
      L1  H    16    40       P1  8028  1.43

> <Gold.PLP.Chemscore.Internal.Correction>
0.0212

> <Gold.Rescore>
     Score         DG    S(hbond)    S(metal)    S(lipo)     H(rot)  DE(clash)    DE(int)     intcor
     15.34     -17.71       2.73        0.00      69.46       1.96       0.82       1.55       ----

> <Gold.Chemscore.Fitness>
15.3380

> <Gold.Chemscore.DG>
-17.7063

> <Gold.Chemscore.ZeroCoef>
-5.4800

> <Gold.Chemscore.Hbond>
2.7308

> <Gold.Chemscore.Metal>
0.0000

> <Gold.Chemscore.Lipo>
69.4553

> <Gold.Chemscore.Internal_Hbond>
0.0000

> <Gold.Chemscore.DEClash>
0.8161

> <Gold.Chemscore.DEInternal>
1.5522

> <Gold.Chemscore.Rot>
1.9612

> <Gold.Chemscore.Internal.Correction>
   9.000000E+99

> <Gold.Chemscore.Hbonds>
donor molecule, donor type, donor heavy atom, donor atom, acceptor molecule, acceptor atom, score
      L1  H     1    21       P1 10186  0.78
      L1  H     9    29       P1  7948  0.84
      L1  H    12    30       P1  7957  0.25
      L1  H    16    40       P1  8028  0.68
      P1  H  7918  7932       L1     3  0.01

> <Gold.Chemscore.Hbond.Weighted>
-9.1208

> <Gold.Chemscore.Metal.Weighted>
-0.0000

> <Gold.Chemscore.Lipo.Weighted>
-8.1263

> <Gold.Chemscore.Internal_Hbond.Weighted>
0.0000

> <Gold.Chemscore.DEClash.Weighted>
0.8161

> <Gold.Chemscore.DEInternal.Weighted>
1.5522

> <Gold.Chemscore.Rot.Weighted>
5.0208

> <Gold.Chemscore.Internal.Correction.Weighted>
   9.000000E+99

> <Gold.Protein.RotatedTorsions>
[ 6907 6896 6895 6894 ] final  146.23 input  -60.11 | X-H torsion
[ 7974 7965 7964 7962 ] final   -5.43 input  175.53 | X-H torsion
[ 8008 7997 7996 7995 ] final   44.76 input   59.86 | X-H torsion
[ 10167 10162 10161 10158 ] final   26.62 input  -65.29 | X-H torsion
[ 10718 10713 10712 10709 ] final   25.71 input   66.30 | X-H torsion
[ 10763 10752 10751 10750 ] final   67.13 input  -60.55 | X-H torsion
[ 11005 11000 10999 10996 ] final   24.43 input  -57.11 | X-H torsion

> <Gold.Protein.ActiveResidues>
 VAL166  LYS551  ARG553  GLY616  TRP617  ASP618  TYR619  PRO620  LYS621  CYS622 
 ASP623  PHE694  ASN695  SER759  ASP760  ASP761  ALA762  ILE779  LEU786  VAL792 
 PHE793  MET794  SER795  GLU796  ALA797  LYS798  CYS799  TRP800  GLU811  SER814 

> <Gold.Protein.RotatedAtoms>
  152.1706  133.4641  159.4906 H   0  0  0  0  0  0  0  0  0  0  0  0  # atno 6907 bound_to 6896
  150.6919  134.1958  159.4312 H   0  0  0  0  0  0  0  0  0  0  0  0  # atno 6908 bound_to 6896
  151.9864  135.0001  160.0610 H   0  0  0  0  0  0  0  0  0  0  0  0  # atno 6909 bound_to 6896
  146.2353  140.2020  142.8334 H   0  0  0  0  0  0  0  0  0  0  0  0  # atno 7974 bound_to 7965
  155.3247  140.3399  155.4240 H   0  0  0  0  0  0  0  0  0  0  0  0  # atno 8008 bound_to 7997
  156.1891  140.1691  156.8163 H   0  0  0  0  0  0  0  0  0  0  0  0  # atno 8009 bound_to 7997
  154.5421  140.0722  156.8511 H   0  0  0  0  0  0  0  0  0  0  0  0  # atno 8010 bound_to 7997
  140.5008  144.0319  150.6332 H   0  0  0  0  0  0  0  0  0  0  0  0  # atno 10167 bound_to 10162
  157.1970  130.6872  149.6173 H   0  0  0  0  0  0  0  0  0  0  0  0  # atno 10718 bound_to 10713
  153.0172  135.5295  154.6932 H   0  0  0  0  0  0  0  0  0  0  0  0  # atno 10763 bound_to 10752
  154.6061  135.2873  155.0485 H   0  0  0  0  0  0  0  0  0  0  0  0  # atno 10764 bound_to 10752
  154.1524  135.6561  153.5019 H   0  0  0  0  0  0  0  0  0  0  0  0  # atno 10765 bound_to 10752
  140.3588  134.2148  155.7674 H   0  0  0  0  0  0  0  0  0  0  0  0  # atno 11005 bound_to 11000
  144.9775  140.8427  143.5418 LP  0  0  0  0  0  0  0  0  0  0  0  0  # atno 17320 bound_to 7965
  145.2009  139.2253  143.5193 LP  0  0  0  0  0  0  0  0  0  0  0  0  # atno 17321 bound_to 7965
  140.3614  143.2906  152.0379 LP  0  0  0  0  0  0  0  0  0  0  0  0  # atno 17342 bound_to 10162
  139.4871  144.6300  151.7089 LP  0  0  0  0  0  0  0  0  0  0  0  0  # atno 17343 bound_to 10162
  155.9705  130.4595  150.6040 LP  0  0  0  0  0  0  0  0  0  0  0  0  # atno 17370 bound_to 10713
  157.3805  131.0780  151.1481 LP  0  0  0  0  0  0  0  0  0  0  0  0  # atno 17371 bound_to 10713
  141.1990  133.8022  157.0556 LP  0  0  0  0  0  0  0  0  0  0  0  0  # atno 17394 bound_to 11000
  140.0643  134.9737  157.1359 LP  0  0  0  0  0  0  0  0  0  0  0  0  # atno 17395 bound_to 11000

$$$$
