AV-unprocessed.smi:2631|AV-procd|sdf|10249|dock5
  -GOLD-   2272014263D 1   1.00000     0.00000
 Structure written by MMmdl.
 34 35  0  0  0  0  0  0  0  0  2 V2000
  148.2292  135.9581  160.5384 C   0  0  0  0  0  0  0  0  0  0  0  0
  148.8897  135.5303  159.3613 O   0  0  0  0  0  0  0  0  0  0  0  0
  148.0870  135.6759  158.2016 C   0  0  0  0  0  0  0  0  0  0  0  0
  148.7787  135.0117  156.9988 C   0  0  0  0  0  0  0  0  0  0  0  0
  149.9008  135.8292  156.4895 N   0  0  0  0  0  0  0  0  0  0  0  0
  149.6207  137.1012  155.9233 C   0  0  0  0  0  0  0  0  0  0  0  0
  148.3140  137.5556  155.8482 N   0  0  0  0  0  0  0  0  0  0  0  0
  150.6406  137.8625  155.4672 C   0  0  0  0  0  0  0  0  0  0  0  0
  150.4915  139.4857  154.7548 S   0  0  0  0  0  0  0  0  0  0  0  0
  150.9255  140.4926  156.1349 C   0  0  0  0  0  0  0  0  0  0  0  0
  150.2751  141.7259  156.3374 C   0  0  0  0  0  0  0  0  0  0  0  0
  150.6155  142.5250  157.4462 C   0  0  0  0  0  0  0  0  0  0  0  0
  151.6055  142.0915  158.3506 C   0  0  0  0  0  0  0  0  0  0  0  0
  152.0195  143.0699  159.7099 Cl  0  0  0  0  0  0  0  0  0  0  0  0
  152.2573  140.8592  158.1448 C   0  0  0  0  0  0  0  0  0  0  0  0
  151.9184  140.0594  157.0361 C   0  0  0  0  0  0  0  0  0  0  0  0
  152.0213  137.3818  155.5475 C   0  0  0  0  0  0  0  0  0  0  0  0
  152.9599  138.0584  155.1248 O   0  0  0  0  0  0  0  0  0  0  0  0
  152.2081  136.1577  156.1118 N   0  5  0  0  0  0  0  0  0  0  0  0
  151.1915  135.3778  156.5872 C   0  0  0  0  0  0  0  0  0  0  0  0
  151.4092  134.2799  157.1012 O   0  0  0  0  0  0  0  0  0  0  0  0
  148.8885  135.8255  161.3963 H   0  0  0  0  0  0  0  0  0  0  0  0
  147.3235  135.3770  160.7161 H   0  0  0  0  0  0  0  0  0  0  0  0
  147.9634  137.0143  160.4787 H   0  0  0  0  0  0  0  0  0  0  0  0
  147.1200  135.2006  158.3717 H   0  0  0  0  0  0  0  0  0  0  0  0
  147.8967  136.7312  158.0006 H   0  0  0  0  0  0  0  0  0  0  0  0
  149.0938  134.0036  157.2721 H   0  0  0  0  0  0  0  0  0  0  0  0
  148.0501  134.8446  156.2054 H   0  0  0  0  0  0  0  0  0  0  0  0
  147.5422  137.0011  156.1893 H   0  0  0  0  0  0  0  0  0  0  0  0
  148.0990  138.5037  155.5758 H   0  0  0  0  0  0  0  0  0  0  0  0
  149.5140  142.0589  155.6473 H   0  0  0  0  0  0  0  0  0  0  0  0
  150.1151  143.4694  157.6026 H   0  0  0  0  0  0  0  0  0  0  0  0
  153.0161  140.5247  158.8368 H   0  0  0  0  0  0  0  0  0  0  0  0
  152.4170  139.1134  156.8827 H   0  0  0  0  0  0  0  0  0  0  0  0
  1  2  1  0  0  0  0
  1 22  1  0  0  0  0
  1 23  1  0  0  0  0
  1 24  1  0  0  0  0
  2  3  1  0  0  0  0
  3  4  1  0  0  0  0
  3 25  1  0  0  0  0
  3 26  1  0  0  0  0
  4  5  1  0  0  0  0
  4 27  1  0  0  0  0
  4 28  1  0  0  0  0
  5 20  1  0  0  0  0
  5  6  1  0  0  0  0
  6  7  1  0  0  0  0
  6  8  2  0  0  0  0
  7 29  1  0  0  0  0
  7 30  1  0  0  0  0
  8  9  1  0  0  0  0
  8 17  1  0  0  0  0
  9 10  1  0  0  0  0
 10 16  1  0  0  0  0
 10 11  2  0  0  0  0
 11 12  1  0  0  0  0
 11 31  1  0  0  0  0
 12 13  2  0  0  0  0
 12 32  1  0  0  0  0
 13 14  1  0  0  0  0
 13 15  1  0  0  0  0
 15 16  2  0  0  0  0
 15 33  1  0  0  0  0
 16 34  1  0  0  0  0
 17 18  2  0  0  0  0
 17 19  1  0  0  0  0
 19 20  1  0  0  0  0
 20 21  2  0  0  0  0
M  CHG  1  19  -1
M  END
> <s_m_source_file>
AV-unprocessed.smi

> <i_m_source_file_index>
2631

> <i_lp_mmshare_version>
43012

> <i_f3d_flags>
0

> <s_epik_input>
W0NIM11PW0NIMl1bQ0gyXW4xYyhbTkgyXSljKGMoPU8pW25IXWMxPU8pU2MyW2NIXVtjSF1jKENsKVtjSF1bY0hdMg==

> <s_epik_cmdline>
J2VwaWtfcHl0aG9uJywgJy1waCcsICc3LjAnLCAnLXRuJywgJzgnLCAnLW1hJywgJzIwMCcsICctbWV0YWxfYmluZGluZycsICctaW1hZScsICc8aW5maWxlLm1hZT4nLCAnLW9tYWUnLCAnPG91dGZpbGUubWFlPic=

> <r_lp_tautomer_probability>
1

> <r_epik_Ionization_Penalty>
5.35309

> <r_epik_Ionization_Penalty_Charging>
0.0281434

> <r_epik_Ionization_Penalty_Neutral>
5.32495

> <r_epik_State_Penalty>
5.32488

> <r_epik_Charging_Adjusted_Penalty>
5.35302

> <i_epik_Tot_Q>
-1

> <i_epik_Tot_abs_Q>
1

> <r_epik_Metal_State_Penalty>
1.30191

> <b_epik_Metal_Only>
1

> <s_epik_Chemistry_Notes>
This compound has an imine and may undergo hydrolysis.

> <s_lp_Force_Field>
OPLS_2005

> <r_lp_Energy>
29.1443

> <b_lp_Chiralities_Consistent>
1

> <s_lp_Variant>
AV-unprocessed.smi:2631-2

> <Gold.Version>
5.8.1

> <Gold.Id.Protein>
6NUR|6NUR_protein|mol2

> <Gold.PLP.Fitness>
37.9368

> <Gold.PLP.PLP>
-30.3461

> <Gold.PLP.part.hbond>
-3.8844

> <Gold.PLP.part.metal>
0.0000

> <Gold.PLP.part.buried>
-2.6456

> <Gold.PLP.part.nonpolar>
-24.9514

> <Gold.PLP.part.repulsive>
0.0432

> <Gold.PLP.ligand.clash>
0.0000

> <Gold.PLP.ligand.torsion>
0.7269

> <Gold.PLP.Chemscore.Hbond>
3.0000

> <Gold.PLP.Chemscore.CHOScore>
0.0000

> <Gold.PLP.Chemscore.Metal>
0.0000

> <Gold.Chemscore.Hbonds>
donor molecule, donor type, donor heavy atom, donor atom, acceptor molecule, acceptor atom, score
      P1  H  6896  6907       L1     2  0.98
      P1  H 10752 10764       L1    19  2.00

> <Gold.PLP.Chemscore.Internal.Correction>
0.0445

> <Gold.Rescore>
     Score         DG    S(hbond)    S(metal)    S(lipo)     H(rot)  DE(clash)    DE(int)     intcor
     13.91     -14.75       1.60        0.00      77.91       2.02       0.03       0.82       ----

> <Gold.Chemscore.Fitness>
13.9066

> <Gold.Chemscore.DG>
-14.7470

> <Gold.Chemscore.ZeroCoef>
-5.4800

> <Gold.Chemscore.Hbond>
1.5962

> <Gold.Chemscore.Metal>
0.0000

> <Gold.Chemscore.Lipo>
77.9088

> <Gold.Chemscore.Internal_Hbond>
0.0000

> <Gold.Chemscore.DEClash>
0.0251

> <Gold.Chemscore.DEInternal>
0.8153

> <Gold.Chemscore.Rot>
2.0234

> <Gold.Chemscore.Internal.Correction>
   9.000000E+99

> <Gold.Chemscore.Hbonds>
donor molecule, donor type, donor heavy atom, donor atom, acceptor molecule, acceptor atom, score
      P1  H  6896  6907       L1     2  0.88
      P1  H 10752 10764       L1    19  0.55

> <Gold.Chemscore.Hbond.Weighted>
-5.3314

> <Gold.Chemscore.Metal.Weighted>
-0.0000

> <Gold.Chemscore.Lipo.Weighted>
-9.1153

> <Gold.Chemscore.Internal_Hbond.Weighted>
0.0000

> <Gold.Chemscore.DEClash.Weighted>
0.0251

> <Gold.Chemscore.DEInternal.Weighted>
0.8153

> <Gold.Chemscore.Rot.Weighted>
5.1798

> <Gold.Chemscore.Internal.Correction.Weighted>
   9.000000E+99

> <Gold.Protein.RotatedTorsions>
[ 6907 6896 6895 6894 ] final  -75.48 input  -60.11 | X-H torsion
[ 7974 7965 7964 7962 ] final  -47.57 input  175.53 | X-H torsion
[ 8008 7997 7996 7995 ] final  -86.84 input   59.86 | X-H torsion
[ 10167 10162 10161 10158 ] final -156.99 input  -65.29 | X-H torsion
[ 10718 10713 10712 10709 ] final  112.20 input   66.30 | X-H torsion
[ 10763 10752 10751 10750 ] final  -11.44 input  -60.55 | X-H torsion
[ 11005 11000 10999 10996 ] final -136.73 input  -57.11 | X-H torsion

> <Gold.Protein.ActiveResidues>
 VAL166  LYS551  ARG553  GLY616  TRP617  ASP618  TYR619  PRO620  LYS621  CYS622 
 ASP623  PHE694  ASN695  SER759  ASP760  ASP761  ALA762  ILE779  LEU786  VAL792 
 PHE793  MET794  SER795  GLU796  ALA797  LYS798  CYS799  TRP800  GLU811  SER814 

> <Gold.Protein.RotatedAtoms>
  150.7057  134.4715  159.5427 H   0  0  0  0  0  0  0  0  0  0  0  0  # atno 6907 bound_to 6896
  152.2370  134.8263  160.0475 H   0  0  0  0  0  0  0  0  0  0  0  0  # atno 6908 bound_to 6896
  151.9059  133.3514  159.3883 H   0  0  0  0  0  0  0  0  0  0  0  0  # atno 6909 bound_to 6896
  145.9602  140.7487  142.9461 H   0  0  0  0  0  0  0  0  0  0  0  0  # atno 7974 bound_to 7965
  154.6565  140.0573  157.0014 H   0  0  0  0  0  0  0  0  0  0  0  0  # atno 8008 bound_to 7997
  155.1293  140.3255  155.4459 H   0  0  0  0  0  0  0  0  0  0  0  0  # atno 8009 bound_to 7997
  156.2599  140.1983  156.6412 H   0  0  0  0  0  0  0  0  0  0  0  0  # atno 8010 bound_to 7997
  139.6806  143.9588  152.2334 H   0  0  0  0  0  0  0  0  0  0  0  0  # atno 10167 bound_to 10162
  157.6405  131.0963  150.6860 H   0  0  0  0  0  0  0  0  0  0  0  0  # atno 10718 bound_to 10713
  153.4838  135.7017  153.5923 H   0  0  0  0  0  0  0  0  0  0  0  0  # atno 10763 bound_to 10752
  153.4124  135.3845  155.2059 H   0  0  0  0  0  0  0  0  0  0  0  0  # atno 10764 bound_to 10752
  154.8720  135.3908  154.4291 H   0  0  0  0  0  0  0  0  0  0  0  0  # atno 10765 bound_to 10752
  140.8777  134.1971  157.4611 H   0  0  0  0  0  0  0  0  0  0  0  0  # atno 11005 bound_to 11000
  144.6813  140.2578  143.7323 LP  0  0  0  0  0  0  0  0  0  0  0  0  # atno 17320 bound_to 7965
  145.8051  139.1980  143.2026 LP  0  0  0  0  0  0  0  0  0  0  0  0  # atno 17321 bound_to 7965
  139.9377  144.6701  150.8298 LP  0  0  0  0  0  0  0  0  0  0  0  0  # atno 17342 bound_to 10162
  140.7651  143.3265  151.2503 LP  0  0  0  0  0  0  0  0  0  0  0  0  # atno 17343 bound_to 10162
  156.7184  130.4673  149.5529 LP  0  0  0  0  0  0  0  0  0  0  0  0  # atno 17370 bound_to 10713
  156.1682  130.6419  151.0804 LP  0  0  0  0  0  0  0  0  0  0  0  0  # atno 17371 bound_to 10713
  139.8717  134.9803  156.5071 LP  0  0  0  0  0  0  0  0  0  0  0  0  # atno 17394 bound_to 11000
  140.8498  133.8140  155.9157 LP  0  0  0  0  0  0  0  0  0  0  0  0  # atno 17395 bound_to 11000

$$$$
