AV-unprocessed.smi:2098|AV-procd|sdf|8568|dock9
  -GOLD-   2272011293D 1   1.00000     0.00000
 Structure written by MMmdl.
 37 39  0  0  0  0  0  0  0  0  2 V2000
  155.9091  140.8270  160.7446 O   0  0  0  0  0  0  0  0  0  0  0  0
  154.8749  140.2834  161.5410 C   0  0  1  0  0  0  0  0  0  0  0  0
  155.4144  140.0577  162.9605 C   0  0  0  0  0  0  0  0  0  0  0  0
  155.7438  141.3171  163.5319 O   0  0  0  0  0  0  0  0  0  0  0  0
  155.6670  141.4524  164.9013 C   0  0  0  0  0  0  0  0  0  0  0  0
  155.9001  140.2948  165.6728 C   0  0  0  0  0  0  0  0  0  0  0  0
  155.8379  140.3408  167.0789 C   0  0  0  0  0  0  0  0  0  0  0  0
  155.5428  141.5523  167.7303 C   0  0  0  0  0  0  0  0  0  0  0  0
  155.4813  141.5984  169.0821 F   0  0  0  0  0  0  0  0  0  0  0  0
  155.3117  142.7159  166.9737 C   0  0  0  0  0  0  0  0  0  0  0  0
  155.3725  142.6697  165.5672 C   0  0  0  0  0  0  0  0  0  0  0  0
  153.6525  141.2235  161.5171 C   0  0  0  0  0  0  0  0  0  0  0  0
  153.0309  141.3154  160.1899 N   0  0  0  0  0  0  0  0  0  0  0  0
  152.8242  140.3535  159.2500 C   0  0  0  0  0  0  0  0  0  0  0  0
  152.2052  140.9421  158.1889 N   0  3  0  0  0  0  0  0  0  0  0  0
  152.0160  142.3004  158.4542 C   0  0  0  0  0  0  0  0  0  0  0  0
  151.4362  143.3075  157.6888 C   0  0  0  0  0  0  0  0  0  0  0  0
  151.4015  144.5964  158.2609 C   0  0  0  0  0  0  0  0  0  0  0  0
  151.9302  144.8457  159.5443 C   0  0  0  0  0  0  0  0  0  0  0  0
  152.5169  143.8175  160.3110 C   0  0  0  0  0  0  0  0  0  0  0  0
  152.5459  142.5466  159.7383 C   0  0  0  0  0  0  0  0  0  0  0  0
  156.7039  140.3445  160.9139 H   0  0  0  0  0  0  0  0  0  0  0  0
  154.6062  139.3184  161.1099 H   0  0  0  0  0  0  0  0  0  0  0  0
  154.6508  139.5717  163.5704 H   0  0  0  0  0  0  0  0  0  0  0  0
  156.2895  139.4060  162.9293 H   0  0  0  0  0  0  0  0  0  0  0  0
  156.1267  139.3602  165.1808 H   0  0  0  0  0  0  0  0  0  0  0  0
  156.0163  139.4462  167.6572 H   0  0  0  0  0  0  0  0  0  0  0  0
  155.0867  143.6472  167.4723 H   0  0  0  0  0  0  0  0  0  0  0  0
  155.1904  143.5833  165.0223 H   0  0  0  0  0  0  0  0  0  0  0  0
  152.8919  140.8974  162.2275 H   0  0  0  0  0  0  0  0  0  0  0  0
  153.9416  142.2323  161.8152 H   0  0  0  0  0  0  0  0  0  0  0  0
  153.0982  139.3117  159.3321 H   0  0  0  0  0  0  0  0  0  0  0  0
  151.0304  143.1197  156.7055 H   0  0  0  0  0  0  0  0  0  0  0  0
  150.9601  145.4104  157.7042 H   0  0  0  0  0  0  0  0  0  0  0  0
  151.8849  145.8462  159.9494 H   0  0  0  0  0  0  0  0  0  0  0  0
  152.9183  144.0169  161.2938 H   0  0  0  0  0  0  0  0  0  0  0  0
  151.9323  140.4503  157.3477 H   0  0  0  0  0  0  0  0  0  0  0  0
  1  2  1  0  0  0  0
  1 22  1  0  0  0  0
  2  3  1  0  0  0  0
  2 12  1  0  0  0  0
  2 23  1  0  0  0  0
  3  4  1  0  0  0  0
  3 24  1  0  0  0  0
  3 25  1  0  0  0  0
  4  5  1  0  0  0  0
  5 11  1  0  0  0  0
  5  6  2  0  0  0  0
  6  7  1  0  0  0  0
  6 26  1  0  0  0  0
  7  8  2  0  0  0  0
  7 27  1  0  0  0  0
  8  9  1  0  0  0  0
  8 10  1  0  0  0  0
 10 11  2  0  0  0  0
 10 28  1  0  0  0  0
 11 29  1  0  0  0  0
 12 13  1  0  0  0  0
 12 30  1  0  0  0  0
 12 31  1  0  0  0  0
 13 21  1  0  0  0  0
 13 14  1  0  0  0  0
 14 15  2  0  0  0  0
 14 32  1  0  0  0  0
 15 16  1  0  0  0  0
 15 37  1  0  0  0  0
 16 21  2  0  0  0  0
 16 17  1  0  0  0  0
 17 18  2  0  0  0  0
 17 33  1  0  0  0  0
 18 19  1  0  0  0  0
 18 34  1  0  0  0  0
 19 20  2  0  0  0  0
 19 35  1  0  0  0  0
 20 21  1  0  0  0  0
 20 36  1  0  0  0  0
M  CHG  1  15   1
M  END
> <s_m_source_file>
AV-unprocessed.smi

> <i_m_source_file_index>
2098

> <i_lp_mmshare_version>
43012

> <i_f3d_flags>
0

> <s_epik_input>
W2NIXTFbY0hdW2NIXVtjSF1jKGMxMiluKFtjSF1uMilbQ0gyXVtDQEhdKFtPSF0pW0NIMl1PYzNbY0hdW2NIXWMoRilbY0hdW2NIXTM=

> <s_epik_cmdline>
J2VwaWtfcHl0aG9uJywgJy1waCcsICc3LjAnLCAnLXRuJywgJzgnLCAnLW1hJywgJzIwMCcsICctbWV0YWxfYmluZGluZycsICctaW1hZScsICc8aW5maWxlLm1hZT4nLCAnLW9tYWUnLCAnPG91dGZpbGUubWFlPic=

> <r_lp_tautomer_probability>
1

> <r_epik_Ionization_Penalty>
1.3832

> <r_epik_Ionization_Penalty_Charging>
1.38319

> <r_epik_Ionization_Penalty_Neutral>
2.3993e-06

> <r_epik_State_Penalty>
1.46389

> <r_epik_Charging_Adjusted_Penalty>
2.84709

> <i_epik_Tot_Q>
1

> <i_epik_Tot_abs_Q>
1

> <r_epik_Metal_State_Penalty>
5.50438

> <b_epik_Metal_Only>
0

> <s_lp_Force_Field>
OPLS_2005

> <r_lp_Energy>
18.1934

> <b_lp_Chiralities_Consistent>
1

> <s_lp_Variant>
AV-unprocessed.smi:2098-4

> <Gold.Version>
5.8.1

> <Gold.Id.Protein>
6NUR|6NUR_protein|mol2

> <Gold.PLP.Fitness>
51.3040

> <Gold.PLP.PLP>
-53.0206

> <Gold.PLP.part.hbond>
-2.0000

> <Gold.PLP.part.metal>
0.0000

> <Gold.PLP.part.buried>
-7.1035

> <Gold.PLP.part.nonpolar>
-44.7611

> <Gold.PLP.part.repulsive>
0.0887

> <Gold.PLP.ligand.clash>
0.0000

> <Gold.PLP.ligand.torsion>
0.8792

> <Gold.PLP.Chemscore.Hbond>
0.0000

> <Gold.PLP.Chemscore.CHOScore>
0.0000

> <Gold.PLP.Chemscore.Metal>
0.0000

> <Gold.PLP.Chemscore.Internal.Correction>
0.0418

> <Gold.Rescore>
     Score         DG    S(hbond)    S(metal)    S(lipo)     H(rot)  DE(clash)    DE(int)     intcor
     12.91     -15.01       0.00        0.00     135.23       2.46       1.22       0.88       ----

> <Gold.Chemscore.Fitness>
12.9086

> <Gold.Chemscore.DG>
-15.0080

> <Gold.Chemscore.ZeroCoef>
-5.4800

> <Gold.Chemscore.Hbond>
0.0000

> <Gold.Chemscore.Metal>
0.0000

> <Gold.Chemscore.Lipo>
135.2274

> <Gold.Chemscore.Internal_Hbond>
0.0000

> <Gold.Chemscore.DEClash>
1.2182

> <Gold.Chemscore.DEInternal>
0.8812

> <Gold.Chemscore.Rot>
2.4584

> <Gold.Chemscore.Internal.Correction>
   9.000000E+99

> <Gold.Chemscore.Hbond.Weighted>
-0.0000

> <Gold.Chemscore.Metal.Weighted>
-0.0000

> <Gold.Chemscore.Lipo.Weighted>
-15.8216

> <Gold.Chemscore.Internal_Hbond.Weighted>
0.0000

> <Gold.Chemscore.DEClash.Weighted>
1.2182

> <Gold.Chemscore.DEInternal.Weighted>
0.8812

> <Gold.Chemscore.Rot.Weighted>
6.2936

> <Gold.Chemscore.Internal.Correction.Weighted>
   9.000000E+99

> <Gold.Protein.RotatedTorsions>
[ 6907 6896 6895 6894 ] final -131.56 input  -60.11 | X-H torsion
[ 7974 7965 7964 7962 ] final  -90.00 input  175.53 | X-H torsion
[ 8008 7997 7996 7995 ] final   79.11 input   59.86 | X-H torsion
[ 10167 10162 10161 10158 ] final   27.56 input  -65.29 | X-H torsion
[ 10718 10713 10712 10709 ] final  -66.77 input   66.30 | X-H torsion
[ 10763 10752 10751 10750 ] final  157.99 input  -60.55 | X-H torsion
[ 11005 11000 10999 10996 ] final -120.58 input  -57.11 | X-H torsion

> <Gold.Protein.ActiveResidues>
 VAL166  LYS551  ARG553  GLY616  TRP617  ASP618  TYR619  PRO620  LYS621  CYS622 
 ASP623  PHE694  ASN695  SER759  ASP760  ASP761  ALA762  ILE779  LEU786  VAL792 
 PHE793  MET794  SER795  GLU796  ALA797  LYS798  CYS799  TRP800  GLU811  SER814 

> <Gold.Protein.RotatedAtoms>
  150.9524  133.6535  159.2769 H   0  0  0  0  0  0  0  0  0  0  0  0  # atno 6907 bound_to 6896
  151.3886  135.0951  159.9529 H   0  0  0  0  0  0  0  0  0  0  0  0  # atno 6908 bound_to 6896
  152.5115  133.9043  159.7511 H   0  0  0  0  0  0  0  0  0  0  0  0  # atno 6909 bound_to 6896
  145.4323  140.9556  143.2121 H   0  0  0  0  0  0  0  0  0  0  0  0  # atno 7974 bound_to 7965
  155.8652  140.3452  155.5783 H   0  0  0  0  0  0  0  0  0  0  0  0  # atno 8008 bound_to 7997
  155.7889  140.0869  157.2039 H   0  0  0  0  0  0  0  0  0  0  0  0  # atno 8009 bound_to 7997
  154.4014  140.1487  156.3127 H   0  0  0  0  0  0  0  0  0  0  0  0  # atno 8010 bound_to 7997
  140.4928  144.0440  150.6303 H   0  0  0  0  0  0  0  0  0  0  0  0  # atno 10167 bound_to 10162
  156.0594  130.4267  150.1757 H   0  0  0  0  0  0  0  0  0  0  0  0  # atno 10718 bound_to 10713
  154.2090  135.2787  155.2965 H   0  0  0  0  0  0  0  0  0  0  0  0  # atno 10763 bound_to 10752
  154.5794  135.5594  153.7174 H   0  0  0  0  0  0  0  0  0  0  0  0  # atno 10764 bound_to 10752
  153.0069  135.6341  154.2228 H   0  0  0  0  0  0  0  0  0  0  0  0  # atno 10765 bound_to 10752
  141.0133  134.0233  157.3384 H   0  0  0  0  0  0  0  0  0  0  0  0  # atno 11005 bound_to 11000
  144.8175  139.5851  143.7002 LP  0  0  0  0  0  0  0  0  0  0  0  0  # atno 17320 bound_to 7965
  146.2600  139.6389  142.9368 LP  0  0  0  0  0  0  0  0  0  0  0  0  # atno 17321 bound_to 7965
  140.3714  143.2852  152.0274 LP  0  0  0  0  0  0  0  0  0  0  0  0  # atno 17342 bound_to 10162
  139.4855  144.6227  151.7224 LP  0  0  0  0  0  0  0  0  0  0  0  0  # atno 17343 bound_to 10162
  156.9827  130.9869  151.3433 LP  0  0  0  0  0  0  0  0  0  0  0  0  # atno 17370 bound_to 10713
  157.5591  130.8233  149.8242 LP  0  0  0  0  0  0  0  0  0  0  0  0  # atno 17371 bound_to 10713
  139.9102  135.0188  156.7659 LP  0  0  0  0  0  0  0  0  0  0  0  0  # atno 17394 bound_to 11000
  140.6697  133.9570  155.7850 LP  0  0  0  0  0  0  0  0  0  0  0  0  # atno 17395 bound_to 11000

$$$$
