AV-unprocessed.smi:1433|AV-procd|sdf|5838|dock10
  -GOLD-   22720 5503D 1   1.00000     0.00000
 Structure written by MMmdl.
 44 45  0  0  0  0  0  0  0  0  1 V2000
  151.8028  137.8378  154.5206 C   0  0  0  0  0  0  0  0  0  0  0  0
  151.0263  139.1572  154.4572 C   0  0  1  0  0  0  0  0  0  0  0  0
  149.5093  138.9317  154.3141 C   0  0  0  0  0  0  0  0  0  0  0  0
  148.7407  140.1812  154.3261 N   0  0  0  0  0  0  0  0  0  0  0  0
  147.2800  139.9559  154.2180 C   0  0  1  0  0  0  0  0  0  0  0  0
  146.4611  141.2633  154.3685 C   0  0  0  0  0  0  0  0  0  0  0  0
  146.8605  139.2454  152.8969 C   0  0  0  0  0  0  0  0  0  0  0  0
  146.9225  137.7880  152.9677 N   0  0  0  0  0  0  0  0  0  0  0  0
  145.9141  136.9892  153.3501 C   0  0  0  0  0  0  0  0  0  0  0  0
  144.8072  137.4076  153.6895 O   0  0  0  0  0  0  0  0  0  0  0  0
  146.1954  135.4864  153.3502 C   0  0  0  0  0  0  0  0  0  0  0  0
  145.3904  134.8050  152.3528 N   0  0  0  0  0  0  0  0  0  0  0  0
  144.4782  133.7869  152.5382 C   0  0  0  0  0  0  0  0  0  0  0  0
  143.9713  133.4665  151.3113 C   0  0  0  0  0  0  0  0  0  0  0  0
  144.6462  134.3523  150.4253 C   0  0  0  0  0  0  0  0  0  0  0  0
  145.4945  135.1526  151.0512 N   0  0  0  0  0  0  0  0  0  0  0  0
  149.1040  140.9227  155.5390 C   0  0  0  0  0  0  0  0  0  0  0  0
  150.6225  141.1422  155.6800 C   0  0  1  0  0  0  0  0  0  0  0  0
  150.9870  141.8431  156.9931 C   0  0  0  0  0  0  0  0  0  0  0  0
  151.2802  139.8821  155.6534 O   0  0  0  0  0  0  0  0  0  0  0  0
  151.6507  137.2498  153.6153 H   0  0  0  0  0  0  0  0  0  0  0  0
  151.4854  137.2329  155.3702 H   0  0  0  0  0  0  0  0  0  0  0  0
  152.8728  138.0201  154.6226 H   0  0  0  0  0  0  0  0  0  0  0  0
  151.3912  139.7367  153.6074 H   0  0  0  0  0  0  0  0  0  0  0  0
  149.3598  138.3994  153.3771 H   0  0  0  0  0  0  0  0  0  0  0  0
  149.1590  138.2759  155.1128 H   0  0  0  0  0  0  0  0  0  0  0  0
  146.9848  139.3028  155.0406 H   0  0  0  0  0  0  0  0  0  0  0  0
  145.3915  141.1017  154.2417 H   0  0  0  0  0  0  0  0  0  0  0  0
  146.7691  142.0078  153.6339 H   0  0  0  0  0  0  0  0  0  0  0  0
  146.5629  141.7033  155.3594 H   0  0  0  0  0  0  0  0  0  0  0  0
  145.8416  139.5286  152.6308 H   0  0  0  0  0  0  0  0  0  0  0  0
  147.4911  139.5387  152.0584 H   0  0  0  0  0  0  0  0  0  0  0  0
  147.7986  137.3562  152.7111 H   0  0  0  0  0  0  0  0  0  0  0  0
  147.2492  135.3127  153.1291 H   0  0  0  0  0  0  0  0  0  0  0  0
  146.0004  135.0556  154.3341 H   0  0  0  0  0  0  0  0  0  0  0  0
  144.2699  133.3799  153.5169 H   0  0  0  0  0  0  0  0  0  0  0  0
  143.2328  132.7130  151.0814 H   0  0  0  0  0  0  0  0  0  0  0  0
  144.5454  134.4368  149.3535 H   0  0  0  0  0  0  0  0  0  0  0  0
  148.6390  141.9069  155.5384 H   0  0  0  0  0  0  0  0  0  0  0  0
  148.7295  140.3956  156.4179 H   0  0  0  0  0  0  0  0  0  0  0  0
  150.9829  141.7496  154.8479 H   0  0  0  0  0  0  0  0  0  0  0  0
  150.5145  142.8234  157.0606 H   0  0  0  0  0  0  0  0  0  0  0  0
  152.0648  141.9877  157.0703 H   0  0  0  0  0  0  0  0  0  0  0  0
  150.6673  141.2566  157.8550 H   0  0  0  0  0  0  0  0  0  0  0  0
  1  2  1  0  0  0  0
  1 21  1  0  0  0  0
  1 22  1  0  0  0  0
  1 23  1  0  0  0  0
  2 20  1  0  0  0  0
  2  3  1  0  0  0  0
  2 24  1  0  0  0  0
  3  4  1  0  0  0  0
  3 25  1  0  0  0  0
  3 26  1  0  0  0  0
  4  5  1  0  0  0  0
  4 17  1  0  0  0  0
  5  6  1  0  0  0  0
  5  7  1  0  0  0  0
  5 27  1  0  0  0  0
  6 28  1  0  0  0  0
  6 29  1  0  0  0  0
  6 30  1  0  0  0  0
  7  8  1  0  0  0  0
  7 31  1  0  0  0  0
  7 32  1  0  0  0  0
  8  9  1  0  0  0  0
  8 33  1  0  0  0  0
  9 10  2  0  0  0  0
  9 11  1  0  0  0  0
 11 12  1  0  0  0  0
 11 34  1  0  0  0  0
 11 35  1  0  0  0  0
 12 16  1  0  0  0  0
 12 13  1  0  0  0  0
 13 14  2  0  0  0  0
 13 36  1  0  0  0  0
 14 15  1  0  0  0  0
 14 37  1  0  0  0  0
 15 16  2  0  0  0  0
 15 38  1  0  0  0  0
 17 18  1  0  0  0  0
 17 39  1  0  0  0  0
 17 40  1  0  0  0  0
 18 19  1  0  0  0  0
 18 20  1  0  0  0  0
 18 41  1  0  0  0  0
 19 42  1  0  0  0  0
 19 43  1  0  0  0  0
 19 44  1  0  0  0  0
M  END
> <s_m_source_file>
AV-unprocessed.smi

> <i_m_source_file_index>
1433

> <i_lp_mmshare_version>
43012

> <i_f3d_flags>
0

> <s_epik_input>
W0NIM11bQ0BASF0xW0NIMl1OKFtDSDJdW0NASF0oTzEpW0NIM10pW0NASF0oW0NIM10pW0NIMl1bTkhdQyg9TylbQ0gyXW4yW2NIXVtjSF1bY0hdbjI=

> <s_epik_cmdline>
J2VwaWtfcHl0aG9uJywgJy1waCcsICc3LjAnLCAnLXRuJywgJzgnLCAnLW1hJywgJzIwMCcsICctbWV0YWxfYmluZGluZycsICctaW1hZScsICc8aW5maWxlLm1hZT4nLCAnLW9tYWUnLCAnPG91dGZpbGUubWFlPic=

> <r_lp_tautomer_probability>
1

> <r_epik_Ionization_Penalty>
0.196927

> <r_epik_Ionization_Penalty_Charging>
0

> <r_epik_Ionization_Penalty_Neutral>
0.196927

> <r_epik_State_Penalty>
0.186684

> <r_epik_Charging_Adjusted_Penalty>
0.186684

> <i_epik_Tot_Q>
0

> <i_epik_Tot_abs_Q>
0

> <r_epik_Metal_State_Penalty>
0.186682

> <b_epik_Metal_Only>
0

> <s_lp_Force_Field>
OPLS_2005

> <r_lp_Energy>
27.7845

> <b_lp_Chiralities_Consistent>
1

> <s_lp_Variant>
AV-unprocessed.smi:1433-4

> <Gold.Version>
5.8.1

> <Gold.Id.Protein>
6NUR|6NUR_protein|mol2

> <Gold.PLP.Fitness>
39.1947

> <Gold.PLP.PLP>
-31.5170

> <Gold.PLP.part.hbond>
-1.0000

> <Gold.PLP.part.metal>
0.0000

> <Gold.PLP.part.buried>
-4.7221

> <Gold.PLP.part.nonpolar>
-26.9778

> <Gold.PLP.part.repulsive>
0.5321

> <Gold.PLP.ligand.clash>
0.0000

> <Gold.PLP.ligand.torsion>
0.6153

> <Gold.PLP.Chemscore.Hbond>
1.0000

> <Gold.PLP.Chemscore.CHOScore>
1.9474

> <Gold.PLP.Chemscore.Metal>
0.0000

> <Gold.Chemscore.Hbonds>
donor molecule, donor type, donor heavy atom, donor atom, acceptor molecule, acceptor atom, score
      L1  H     8    33       P1  7948  1.00
      L1  C    13    36       P1 10957  0.82
      L1  C    15    38       P1  7921  1.00

> <Gold.PLP.Chemscore.Internal.Correction>
0.0660

> <Gold.Rescore>
     Score         DG    S(hbond)    S(metal)    S(lipo)     H(rot)  DE(clash)    DE(int)     intcor
     13.16     -13.86       0.99        0.00      82.73       1.80       0.08       0.62       ----

> <Gold.Chemscore.Fitness>
13.1634

> <Gold.Chemscore.DG>
-13.8607

> <Gold.Chemscore.ZeroCoef>
-5.4800

> <Gold.Chemscore.Hbond>
0.9937

> <Gold.Chemscore.Metal>
0.0000

> <Gold.Chemscore.Lipo>
82.7304

> <Gold.Chemscore.Internal_Hbond>
0.0000

> <Gold.Chemscore.DEClash>
0.0755

> <Gold.Chemscore.DEInternal>
0.6218

> <Gold.Chemscore.Rot>
1.8038

> <Gold.Chemscore.Internal.Correction>
   9.000000E+99

> <Gold.Chemscore.Hbonds>
donor molecule, donor type, donor heavy atom, donor atom, acceptor molecule, acceptor atom, score
      L1  H     8    33       P1  7948  0.99

> <Gold.Chemscore.Hbond.Weighted>
-3.3190

> <Gold.Chemscore.Metal.Weighted>
-0.0000

> <Gold.Chemscore.Lipo.Weighted>
-9.6795

> <Gold.Chemscore.Internal_Hbond.Weighted>
0.0000

> <Gold.Chemscore.DEClash.Weighted>
0.0755

> <Gold.Chemscore.DEInternal.Weighted>
0.6218

> <Gold.Chemscore.Rot.Weighted>
4.6178

> <Gold.Chemscore.Internal.Correction.Weighted>
   9.000000E+99

> <Gold.Protein.RotatedTorsions>
[ 6907 6896 6895 6894 ] final  169.10 input  -60.11 | X-H torsion
[ 7974 7965 7964 7962 ] final   94.17 input  175.53 | X-H torsion
[ 8008 7997 7996 7995 ] final  -63.48 input   59.86 | X-H torsion
[ 10167 10162 10161 10158 ] final -171.97 input  -65.29 | X-H torsion
[ 10718 10713 10712 10709 ] final -149.59 input   66.30 | X-H torsion
[ 10763 10752 10751 10750 ] final  -48.54 input  -60.55 | X-H torsion
[ 11005 11000 10999 10996 ] final   98.13 input  -57.11 | X-H torsion

> <Gold.Protein.ActiveResidues>
 VAL166  LYS551  ARG553  GLY616  TRP617  ASP618  TYR619  PRO620  LYS621  CYS622 
 ASP623  PHE694  ASN695  SER759  ASP760  ASP761  ALA762  ILE779  LEU786  VAL792 
 PHE793  MET794  SER795  GLU796  ALA797  LYS798  CYS799  TRP800  GLU811  SER814 

> <Gold.Protein.RotatedAtoms>
  151.8372  133.3418  159.3631 H   0  0  0  0  0  0  0  0  0  0  0  0  # atno 6907 bound_to 6896
  150.7246  134.5426  159.5764 H   0  0  0  0  0  0  0  0  0  0  0  0  # atno 6908 bound_to 6896
  152.2892  134.7742  160.0432 H   0  0  0  0  0  0  0  0  0  0  0  0  # atno 6909 bound_to 6896
  145.4691  139.2283  143.2945 H   0  0  0  0  0  0  0  0  0  0  0  0  # atno 7974 bound_to 7965
  154.4557  140.0974  156.6749 H   0  0  0  0  0  0  0  0  0  0  0  0  # atno 8008 bound_to 7997
  155.5146  140.3477  155.4376 H   0  0  0  0  0  0  0  0  0  0  0  0  # atno 8009 bound_to 7997
  156.0772  140.1364  156.9746 H   0  0  0  0  0  0  0  0  0  0  0  0  # atno 8010 bound_to 7997
  139.5771  144.1507  152.1466 H   0  0  0  0  0  0  0  0  0  0  0  0  # atno 10167 bound_to 10162
  156.4351  130.8094  151.2322 H   0  0  0  0  0  0  0  0  0  0  0  0  # atno 10718 bound_to 10713
  154.0795  135.6593  153.4836 H   0  0  0  0  0  0  0  0  0  0  0  0  # atno 10763 bound_to 10752
  153.0361  135.5176  154.7488 H   0  0  0  0  0  0  0  0  0  0  0  0  # atno 10764 bound_to 10752
  154.6578  135.3010  154.9873 H   0  0  0  0  0  0  0  0  0  0  0  0  # atno 10765 bound_to 10752
  139.8773  134.9034  156.4411 H   0  0  0  0  0  0  0  0  0  0  0  0  # atno 11005 bound_to 11000
  146.2407  140.5467  142.8935 LP  0  0  0  0  0  0  0  0  0  0  0  0  # atno 17320 bound_to 7965
  144.7956  140.6116  143.6512 LP  0  0  0  0  0  0  0  0  0  0  0  0  # atno 17321 bound_to 7965
  140.1052  144.5505  150.6962 LP  0  0  0  0  0  0  0  0  0  0  0  0  # atno 17342 bound_to 10162
  140.7053  143.2463  151.4744 LP  0  0  0  0  0  0  0  0  0  0  0  0  # atno 17343 bound_to 10162
  157.7507  131.0186  150.3633 LP  0  0  0  0  0  0  0  0  0  0  0  0  # atno 17370 bound_to 10713
  156.3978  130.3910  149.6982 LP  0  0  0  0  0  0  0  0  0  0  0  0  # atno 17371 bound_to 10713
  140.8999  133.7787  155.9668 LP  0  0  0  0  0  0  0  0  0  0  0  0  # atno 17394 bound_to 11000
  140.8662  134.2781  157.5212 LP  0  0  0  0  0  0  0  0  0  0  0  0  # atno 17395 bound_to 11000

$$$$
