AV-unprocessed.smi:2731|AV-procd|sdf|10530|dock9
  -GOLD-   2272014573D 1   1.00000     0.00000
 Structure written by MMmdl.
 45 46  0  0  0  0  0  0  0  0  1 V2000
  152.2151  138.2807  154.4366 C   0  0  0  0  0  0  0  0  0  0  0  0
  150.7953  138.7439  154.5909 C   0  0  0  0  0  0  0  0  0  0  0  0
  150.4980  140.0027  154.3158 N   0  0  0  0  0  0  0  0  0  0  0  0
  149.1778  140.1077  154.5651 N   0  0  0  0  0  0  0  0  0  0  0  0
  148.5147  141.3799  154.3532 C   0  0  0  0  0  0  0  0  0  0  0  0
  148.6403  138.9129  155.0034 C   0  0  0  0  0  0  0  0  0  0  0  0
  147.1952  138.7728  155.3602 C   0  0  0  0  0  0  0  0  0  0  0  0
  149.6602  137.9987  155.0270 C   0  0  0  0  0  0  0  0  0  0  0  0
  149.6148  136.5457  155.4386 C   0  0  0  0  0  0  0  0  0  0  0  0
  148.2508  135.8789  155.1718 C   0  0  0  0  0  0  0  0  0  0  0  0
  148.2915  134.9877  154.0144 N   0  0  0  0  0  0  0  0  0  0  0  0
  147.9258  133.6963  154.0180 C   0  0  0  0  0  0  0  0  0  0  0  0
  147.5807  133.0956  155.0367 O   0  0  0  0  0  0  0  0  0  0  0  0
  147.9458  132.9874  152.6577 C   0  0  0  0  0  0  0  0  0  0  0  0
  146.5951  132.7449  152.1342 N   0  0  0  0  0  0  0  0  0  0  0  0
  146.1982  131.3460  151.9313 C   0  0  0  0  0  0  0  0  0  0  0  0
  145.5946  131.1518  150.5303 C   0  0  0  0  0  0  0  0  0  0  0  0
  144.4588  132.1529  150.2371 C   0  0  0  0  0  0  0  0  0  0  0  0
  144.3891  133.3444  151.2190 C   0  0  0  0  0  0  0  0  0  0  0  0
  145.7602  133.7480  151.7770 C   0  0  0  0  0  0  0  0  0  0  0  0
  146.0402  134.9412  151.8900 O   0  0  0  0  0  0  0  0  0  0  0  0
  152.8180  138.5874  155.2915 H   0  0  0  0  0  0  0  0  0  0  0  0
  152.6728  138.6959  153.5381 H   0  0  0  0  0  0  0  0  0  0  0  0
  152.2735  137.1950  154.3629 H   0  0  0  0  0  0  0  0  0  0  0  0
  147.9915  141.6804  155.2612 H   0  0  0  0  0  0  0  0  0  0  0  0
  147.7934  141.2846  153.5410 H   0  0  0  0  0  0  0  0  0  0  0  0
  149.2391  142.1540  154.0946 H   0  0  0  0  0  0  0  0  0  0  0  0
  147.0179  137.8717  155.9467 H   0  0  0  0  0  0  0  0  0  0  0  0
  146.5803  138.7179  154.4619 H   0  0  0  0  0  0  0  0  0  0  0  0
  146.8529  139.6198  155.9546 H   0  0  0  0  0  0  0  0  0  0  0  0
  150.3868  135.9772  154.9202 H   0  0  0  0  0  0  0  0  0  0  0  0
  149.8534  136.4426  156.4973 H   0  0  0  0  0  0  0  0  0  0  0  0
  147.9479  135.2998  156.0444 H   0  0  0  0  0  0  0  0  0  0  0  0
  147.4846  136.6446  155.0398 H   0  0  0  0  0  0  0  0  0  0  0  0
  148.5711  135.3975  153.1351 H   0  0  0  0  0  0  0  0  0  0  0  0
  148.5013  133.5943  151.9408 H   0  0  0  0  0  0  0  0  0  0  0  0
  148.5075  132.0568  152.7539 H   0  0  0  0  0  0  0  0  0  0  0  0
  147.0515  130.6783  152.0544 H   0  0  0  0  0  0  0  0  0  0  0  0
  145.4736  131.0682  152.6979 H   0  0  0  0  0  0  0  0  0  0  0  0
  146.3867  131.2898  149.7928 H   0  0  0  0  0  0  0  0  0  0  0  0
  145.2409  130.1284  150.4039 H   0  0  0  0  0  0  0  0  0  0  0  0
  144.5622  132.5223  149.2161 H   0  0  0  0  0  0  0  0  0  0  0  0
  143.5032  131.6281  150.2646 H   0  0  0  0  0  0  0  0  0  0  0  0
  143.9085  134.1991  150.7414 H   0  0  0  0  0  0  0  0  0  0  0  0
  143.7629  133.0757  152.0704 H   0  0  0  0  0  0  0  0  0  0  0  0
  1  2  1  0  0  0  0
  1 22  1  0  0  0  0
  1 23  1  0  0  0  0
  1 24  1  0  0  0  0
  2  8  1  0  0  0  0
  2  3  2  0  0  0  0
  3  4  1  0  0  0  0
  4  5  1  0  0  0  0
  4  6  1  0  0  0  0
  5 25  1  0  0  0  0
  5 26  1  0  0  0  0
  5 27  1  0  0  0  0
  6  7  1  0  0  0  0
  6  8  2  0  0  0  0
  7 28  1  0  0  0  0
  7 29  1  0  0  0  0
  7 30  1  0  0  0  0
  8  9  1  0  0  0  0
  9 10  1  0  0  0  0
  9 31  1  0  0  0  0
  9 32  1  0  0  0  0
 10 11  1  0  0  0  0
 10 33  1  0  0  0  0
 10 34  1  0  0  0  0
 11 12  1  0  0  0  0
 11 35  1  0  0  0  0
 12 13  2  0  0  0  0
 12 14  1  0  0  0  0
 14 15  1  0  0  0  0
 14 36  1  0  0  0  0
 14 37  1  0  0  0  0
 15 20  1  0  0  0  0
 15 16  1  0  0  0  0
 16 17  1  0  0  0  0
 16 38  1  0  0  0  0
 16 39  1  0  0  0  0
 17 18  1  0  0  0  0
 17 40  1  0  0  0  0
 17 41  1  0  0  0  0
 18 19  1  0  0  0  0
 18 42  1  0  0  0  0
 18 43  1  0  0  0  0
 19 20  1  0  0  0  0
 19 44  1  0  0  0  0
 19 45  1  0  0  0  0
 20 21  2  0  0  0  0
M  END
> <s_m_source_file>
AV-unprocessed.smi

> <i_m_source_file_index>
2731

> <i_lp_mmshare_version>
43012

> <i_f3d_flags>
0

> <s_epik_input>
W0NIM11jMW5uKFtDSDNdKWMoW0NIM10pYzFbQ0gyXVtDSDJdW05IXUMoPU8pW0NIMl1OMltDSDJdW0NIMl1bQ0gyXVtDSDJdQzI9Tw==

> <s_epik_cmdline>
J2VwaWtfcHl0aG9uJywgJy1waCcsICc3LjAnLCAnLXRuJywgJzgnLCAnLW1hJywgJzIwMCcsICctbWV0YWxfYmluZGluZycsICctaW1hZScsICc8aW5maWxlLm1hZT4nLCAnLW9tYWUnLCAnPG91dGZpbGUubWFlPic=

> <r_lp_tautomer_probability>
1

> <r_epik_Ionization_Penalty>
0.0111965

> <r_epik_Ionization_Penalty_Charging>
0

> <r_epik_Ionization_Penalty_Neutral>
0.0111965

> <r_epik_State_Penalty>
0.00860379

> <r_epik_Charging_Adjusted_Penalty>
0.00860379

> <i_epik_Tot_Q>
0

> <i_epik_Tot_abs_Q>
0

> <r_epik_Metal_State_Penalty>
0.00844338

> <b_epik_Metal_Only>
0

> <s_lp_Force_Field>
OPLS_2005

> <r_lp_Energy>
7.02137

> <b_lp_Chiralities_Consistent>
1

> <s_lp_Variant>
AV-unprocessed.smi:2731-1

> <Gold.Version>
5.8.1

> <Gold.Id.Protein>
6NUR|6NUR_protein|mol2

> <Gold.PLP.Fitness>
40.5810

> <Gold.PLP.PLP>
-36.2965

> <Gold.PLP.part.hbond>
-2.0000

> <Gold.PLP.part.metal>
0.0000

> <Gold.PLP.part.buried>
-6.3903

> <Gold.PLP.part.nonpolar>
-29.4591

> <Gold.PLP.part.repulsive>
0.3042

> <Gold.PLP.ligand.clash>
0.0000

> <Gold.PLP.ligand.torsion>
0.8717

> <Gold.PLP.Chemscore.Hbond>
2.0000

> <Gold.PLP.Chemscore.CHOScore>
0.0000

> <Gold.PLP.Chemscore.Metal>
0.0000

> <Gold.Chemscore.Hbonds>
donor molecule, donor type, donor heavy atom, donor atom, acceptor molecule, acceptor atom, score
      L1  H    11    35       P1  7948  1.00
      P1  H  7989  7998       L1     3  1.00

> <Gold.PLP.Chemscore.Internal.Correction>
0.0279

> <Gold.Rescore>
     Score         DG    S(hbond)    S(metal)    S(lipo)     H(rot)  DE(clash)    DE(int)     intcor
     16.07     -16.97       1.97        0.00      81.02       1.78       0.12       0.79       ----

> <Gold.Chemscore.Fitness>
16.0657

> <Gold.Chemscore.DG>
-16.9748

> <Gold.Chemscore.ZeroCoef>
-5.4800

> <Gold.Chemscore.Hbond>
1.9652

> <Gold.Chemscore.Metal>
0.0000

> <Gold.Chemscore.Lipo>
81.0182

> <Gold.Chemscore.Internal_Hbond>
0.0000

> <Gold.Chemscore.DEClash>
0.1191

> <Gold.Chemscore.DEInternal>
0.7900

> <Gold.Chemscore.Rot>
1.7767

> <Gold.Chemscore.Internal.Correction>
   9.000000E+99

> <Gold.Chemscore.Hbonds>
donor molecule, donor type, donor heavy atom, donor atom, acceptor molecule, acceptor atom, score
      L1  H    11    35       P1  7948  0.88
      P1  H  7989  7998       L1     3  0.94

> <Gold.Chemscore.Hbond.Weighted>
-6.5639

> <Gold.Chemscore.Metal.Weighted>
-0.0000

> <Gold.Chemscore.Lipo.Weighted>
-9.4791

> <Gold.Chemscore.Internal_Hbond.Weighted>
0.0000

> <Gold.Chemscore.DEClash.Weighted>
0.1191

> <Gold.Chemscore.DEInternal.Weighted>
0.7900

> <Gold.Chemscore.Rot.Weighted>
4.5483

> <Gold.Chemscore.Internal.Correction.Weighted>
   9.000000E+99

> <Gold.Protein.RotatedTorsions>
[ 6907 6896 6895 6894 ] final  162.40 input  -60.11 | X-H torsion
[ 7974 7965 7964 7962 ] final   57.00 input  175.53 | X-H torsion
[ 8008 7997 7996 7995 ] final  -39.17 input   59.86 | X-H torsion
[ 10167 10162 10161 10158 ] final   50.88 input  -65.29 | X-H torsion
[ 10718 10713 10712 10709 ] final  -90.42 input   66.30 | X-H torsion
[ 10763 10752 10751 10750 ] final  -98.27 input  -60.55 | X-H torsion
[ 11005 11000 10999 10996 ] final -100.50 input  -57.11 | X-H torsion

> <Gold.Protein.ActiveResidues>
 VAL166  LYS551  ARG553  GLY616  TRP617  ASP618  TYR619  PRO620  LYS621  CYS622 
 ASP623  PHE694  ASN695  SER759  ASP760  ASP761  ALA762  ILE779  LEU786  VAL792 
 PHE793  MET794  SER795  GLU796  ALA797  LYS798  CYS799  TRP800  GLU811  SER814 

> <Gold.Protein.RotatedAtoms>
  151.9411  133.3638  159.3965 H   0  0  0  0  0  0  0  0  0  0  0  0  # atno 6907 bound_to 6896
  150.6998  134.4438  159.5314 H   0  0  0  0  0  0  0  0  0  0  0  0  # atno 6908 bound_to 6896
  152.2095  134.8514  160.0549 H   0  0  0  0  0  0  0  0  0  0  0  0  # atno 6909 bound_to 6896
  145.9337  139.3829  143.0405 H   0  0  0  0  0  0  0  0  0  0  0  0  # atno 7974 bound_to 7965
  154.4026  140.1558  156.2820 H   0  0  0  0  0  0  0  0  0  0  0  0  # atno 8008 bound_to 7997
  155.8861  140.3441  155.5900 H   0  0  0  0  0  0  0  0  0  0  0  0  # atno 8009 bound_to 7997
  155.7612  140.0818  157.2145 H   0  0  0  0  0  0  0  0  0  0  0  0  # atno 8010 bound_to 7997
  140.2678  144.3300  150.6299 H   0  0  0  0  0  0  0  0  0  0  0  0  # atno 10167 bound_to 10162
  155.9988  130.4909  150.5320 H   0  0  0  0  0  0  0  0  0  0  0  0  # atno 10718 bound_to 10713
  154.7400  135.5016  153.9106 H   0  0  0  0  0  0  0  0  0  0  0  0  # atno 10763 bound_to 10752
  153.1033  135.6691  153.9641 H   0  0  0  0  0  0  0  0  0  0  0  0  # atno 10764 bound_to 10752
  153.9420  135.3066  155.3421 H   0  0  0  0  0  0  0  0  0  0  0  0  # atno 10765 bound_to 10752
  141.1268  133.8404  157.1111 H   0  0  0  0  0  0  0  0  0  0  0  0  # atno 11005 bound_to 11000
  145.8392  140.9590  143.0808 LP  0  0  0  0  0  0  0  0  0  0  0  0  # atno 17320 bound_to 7965
  144.6768  140.0262  143.7483 LP  0  0  0  0  0  0  0  0  0  0  0  0  # atno 17321 bound_to 7965
  140.5914  143.2168  151.7245 LP  0  0  0  0  0  0  0  0  0  0  0  0  # atno 17342 bound_to 10162
  139.4998  144.3933  152.0258 LP  0  0  0  0  0  0  0  0  0  0  0  0  # atno 17343 bound_to 10162
  157.3268  131.0692  151.1891 LP  0  0  0  0  0  0  0  0  0  0  0  0  # atno 17370 bound_to 10713
  157.2785  130.6738  149.6054 LP  0  0  0  0  0  0  0  0  0  0  0  0  # atno 17371 bound_to 10713
  140.0275  134.9917  157.0714 LP  0  0  0  0  0  0  0  0  0  0  0  0  # atno 17394 bound_to 11000
  140.4339  134.1751  155.7169 LP  0  0  0  0  0  0  0  0  0  0  0  0  # atno 17395 bound_to 11000

$$$$
