AV-unprocessed.smi:3075|AV-procd|sdf|11724|dock3
  -GOLD-   2272017123D 1   1.00000     0.00000
 Structure written by MMmdl.
 29 30  0  0  0  0  0  0  0  0  1 V2000
  149.4635  142.9097  157.6025 N   0  0  0  0  0  0  0  0  0  0  0  0
  150.1422  141.6742  157.2637 C   0  0  0  0  0  0  0  0  0  0  0  0
  151.4189  141.4671  158.0653 C   0  0  0  0  0  0  0  0  0  0  0  0
  151.8287  142.4721  158.9671 C   0  0  0  0  0  0  0  0  0  0  0  0
  153.0191  142.3002  159.6960 C   0  0  0  0  0  0  0  0  0  0  0  0
  153.7600  141.1227  159.4908 C   0  0  0  0  0  0  0  0  0  0  0  0
  153.3815  140.1520  158.6341 N   0  0  0  0  0  0  0  0  0  0  0  0
  152.2326  140.3092  157.9309 C   0  0  0  0  0  0  0  0  0  0  0  0
  151.8541  139.2627  157.0694 N   0  0  0  0  0  0  0  0  0  0  0  0
  151.8729  139.5464  155.6377 C   0  0  0  0  0  0  0  0  0  0  0  0
  151.2459  138.3738  154.8645 C   0  0  0  0  0  0  0  0  0  0  0  0
  151.9352  137.1686  155.1856 O   0  0  0  0  0  0  0  0  0  0  0  0
  151.8540  136.8583  156.5739 C   0  0  0  0  0  0  0  0  0  0  0  0
  152.4885  137.9922  157.3977 C   0  0  0  0  0  0  0  0  0  0  0  0
  149.3694  143.4771  156.7723 H   0  0  0  0  0  0  0  0  0  0  0  0
  148.5222  142.7010  157.9033 H   0  0  0  0  0  0  0  0  0  0  0  0
  149.4527  140.8395  157.3868 H   0  0  0  0  0  0  0  0  0  0  0  0
  150.3989  141.7035  156.2044 H   0  0  0  0  0  0  0  0  0  0  0  0
  151.2381  143.3673  159.0968 H   0  0  0  0  0  0  0  0  0  0  0  0
  153.3568  143.0532  160.3925 H   0  0  0  0  0  0  0  0  0  0  0  0
  154.6803  140.9542  160.0303 H   0  0  0  0  0  0  0  0  0  0  0  0
  151.3237  140.4667  155.4350 H   0  0  0  0  0  0  0  0  0  0  0  0
  152.9000  139.6983  155.3027 H   0  0  0  0  0  0  0  0  0  0  0  0
  150.1854  138.2734  155.1018 H   0  0  0  0  0  0  0  0  0  0  0  0
  151.3177  138.5496  153.7911 H   0  0  0  0  0  0  0  0  0  0  0  0
  150.8127  136.7049  156.8625 H   0  0  0  0  0  0  0  0  0  0  0  0
  152.3777  135.9204  156.7600 H   0  0  0  0  0  0  0  0  0  0  0  0
  153.5556  138.0592  157.1811 H   0  0  0  0  0  0  0  0  0  0  0  0
  152.3929  137.7768  158.4615 H   0  0  0  0  0  0  0  0  0  0  0  0
  1  2  1  0  0  0  0
  1 15  1  0  0  0  0
  1 16  1  0  0  0  0
  2  3  1  0  0  0  0
  2 17  1  0  0  0  0
  2 18  1  0  0  0  0
  3  8  1  0  0  0  0
  3  4  2  0  0  0  0
  4  5  1  0  0  0  0
  4 19  1  0  0  0  0
  5  6  2  0  0  0  0
  5 20  1  0  0  0  0
  6  7  1  0  0  0  0
  6 21  1  0  0  0  0
  7  8  2  0  0  0  0
  8  9  1  0  0  0  0
  9 14  1  0  0  0  0
  9 10  1  0  0  0  0
 10 11  1  0  0  0  0
 10 22  1  0  0  0  0
 10 23  1  0  0  0  0
 11 12  1  0  0  0  0
 11 24  1  0  0  0  0
 11 25  1  0  0  0  0
 12 13  1  0  0  0  0
 13 14  1  0  0  0  0
 13 26  1  0  0  0  0
 13 27  1  0  0  0  0
 14 28  1  0  0  0  0
 14 29  1  0  0  0  0
M  END
> <s_m_source_file>
AV-unprocessed.smi

> <i_m_source_file_index>
3075

> <i_lp_mmshare_version>
43012

> <i_f3d_flags>
0

> <s_epik_input>
W05IMl1bQ0gyXWMxW2NIXVtjSF1bY0hdbmMxTjJbQ0gyXVtDSDJdT1tDSDJdW0NIMl0y

> <s_epik_cmdline>
J2VwaWtfcHl0aG9uJywgJy1waCcsICc3LjAnLCAnLXRuJywgJzgnLCAnLW1hJywgJzIwMCcsICctbWV0YWxfYmluZGluZycsICctaW1hZScsICc8aW5maWxlLm1hZT4nLCAnLW9tYWUnLCAnPG91dGZpbGUubWFlPic=

> <r_lp_tautomer_probability>
1

> <r_epik_Ionization_Penalty>
1.38161

> <r_epik_Ionization_Penalty_Charging>
0

> <r_epik_Ionization_Penalty_Neutral>
1.38161

> <r_epik_State_Penalty>
1.45585

> <r_epik_Charging_Adjusted_Penalty>
1.45585

> <i_epik_Tot_Q>
0

> <i_epik_Tot_abs_Q>
0

> <r_epik_Metal_State_Penalty>
1.45048

> <b_epik_Metal_Only>
0

> <s_lp_Force_Field>
OPLS_2005

> <r_lp_Energy>
18.9945

> <b_lp_Chiralities_Consistent>
1

> <s_lp_Variant>
AV-unprocessed.smi:3075-2

> <Gold.Version>
5.8.1

> <Gold.Id.Protein>
6NUR|6NUR_protein|mol2

> <Gold.PLP.Fitness>
33.2011

> <Gold.PLP.PLP>
-25.0058

> <Gold.PLP.part.hbond>
-3.0000

> <Gold.PLP.part.metal>
0.0000

> <Gold.PLP.part.buried>
-3.6266

> <Gold.PLP.part.nonpolar>
-18.7035

> <Gold.PLP.part.repulsive>
0.0715

> <Gold.PLP.ligand.clash>
0.0000

> <Gold.PLP.ligand.torsion>
0.3471

> <Gold.PLP.Chemscore.Hbond>
2.9040

> <Gold.PLP.Chemscore.CHOScore>
0.0000

> <Gold.PLP.Chemscore.Metal>
0.0000

> <Gold.Chemscore.Hbonds>
donor molecule, donor type, donor heavy atom, donor atom, acceptor molecule, acceptor atom, score
      L1  H     1    15       P1  8028  1.00
      P1  H  7997  8009       L1     7  0.94
      P1  H 10752 10765       L1    12  0.83

> <Gold.PLP.Chemscore.Internal.Correction>
0.1774

> <Gold.Rescore>
     Score         DG    S(hbond)    S(metal)    S(lipo)     H(rot)  DE(clash)    DE(int)     intcor
     16.33     -16.86       2.12        0.00      65.01       1.29       0.19       0.34       ----

> <Gold.Chemscore.Fitness>
16.3290

> <Gold.Chemscore.DG>
-16.8622

> <Gold.Chemscore.ZeroCoef>
-5.4800

> <Gold.Chemscore.Hbond>
2.1174

> <Gold.Chemscore.Metal>
0.0000

> <Gold.Chemscore.Lipo>
65.0093

> <Gold.Chemscore.Internal_Hbond>
0.0000

> <Gold.Chemscore.DEClash>
0.1906

> <Gold.Chemscore.DEInternal>
0.3427

> <Gold.Chemscore.Rot>
1.2875

> <Gold.Chemscore.Internal.Correction>
   9.000000E+99

> <Gold.Chemscore.Hbonds>
donor molecule, donor type, donor heavy atom, donor atom, acceptor molecule, acceptor atom, score
      L1  H     1    15       P1  8028  0.98
      P1  H  7997  8009       L1     7  0.21
      P1  H 10752 10765       L1    12  0.13

> <Gold.Chemscore.Hbond.Weighted>
-7.0722

> <Gold.Chemscore.Metal.Weighted>
-0.0000

> <Gold.Chemscore.Lipo.Weighted>
-7.6061

> <Gold.Chemscore.Internal_Hbond.Weighted>
0.0000

> <Gold.Chemscore.DEClash.Weighted>
0.1906

> <Gold.Chemscore.DEInternal.Weighted>
0.3427

> <Gold.Chemscore.Rot.Weighted>
3.2961

> <Gold.Chemscore.Internal.Correction.Weighted>
   9.000000E+99

> <Gold.Protein.RotatedTorsions>
[ 6907 6896 6895 6894 ] final  120.39 input  -60.11 | X-H torsion
[ 7974 7965 7964 7962 ] final -104.44 input  175.53 | X-H torsion
[ 8008 7997 7996 7995 ] final  139.50 input   59.86 | X-H torsion
[ 10167 10162 10161 10158 ] final   81.85 input  -65.29 | X-H torsion
[ 10718 10713 10712 10709 ] final  -90.25 input   66.30 | X-H torsion
[ 10763 10752 10751 10750 ] final -177.05 input  -60.55 | X-H torsion
[ 11005 11000 10999 10996 ] final  -54.63 input  -57.11 | X-H torsion

> <Gold.Protein.ActiveResidues>
 VAL166  LYS551  ARG553  GLY616  TRP617  ASP618  TYR619  PRO620  LYS621  CYS622 
 ASP623  PHE694  ASN695  SER759  ASP760  ASP761  ALA762  ILE779  LEU786  VAL792 
 PHE793  MET794  SER795  GLU796  ALA797  LYS798  CYS799  TRP800  GLU811  SER814 

> <Gold.Protein.RotatedAtoms>
  152.4402  133.7433  159.6653 H   0  0  0  0  0  0  0  0  0  0  0  0  # atno 6907 bound_to 6896
  150.8291  133.8111  159.3112 H   0  0  0  0  0  0  0  0  0  0  0  0  # atno 6908 bound_to 6896
  151.5770  135.1062  160.0060 H   0  0  0  0  0  0  0  0  0  0  0  0  # atno 6909 bound_to 6896
  145.2431  140.9212  143.3138 H   0  0  0  0  0  0  0  0  0  0  0  0  # atno 7974 bound_to 7965
  156.2989  140.2366  156.4247 H   0  0  0  0  0  0  0  0  0  0  0  0  # atno 8008 bound_to 7997
  154.8324  140.0432  157.1506 H   0  0  0  0  0  0  0  0  0  0  0  0  # atno 8009 bound_to 7997
  154.9193  140.3001  155.5228 H   0  0  0  0  0  0  0  0  0  0  0  0  # atno 8010 bound_to 7997
  139.9349  144.6128  150.8308 H   0  0  0  0  0  0  0  0  0  0  0  0  # atno 10167 bound_to 10162
  155.9987  130.4902  150.5294 H   0  0  0  0  0  0  0  0  0  0  0  0  # atno 10718 bound_to 10713
  154.5648  135.2823  155.0884 H   0  0  0  0  0  0  0  0  0  0  0  0  # atno 10763 bound_to 10752
  154.2279  135.6379  153.5169 H   0  0  0  0  0  0  0  0  0  0  0  0  # atno 10764 bound_to 10752
  153.0040  135.5530  154.6253 H   0  0  0  0  0  0  0  0  0  0  0  0  # atno 10765 bound_to 10752
  141.1035  133.6615  156.4348 H   0  0  0  0  0  0  0  0  0  0  0  0  # atno 11005 bound_to 11000
  144.9571  139.4020  143.6374 LP  0  0  0  0  0  0  0  0  0  0  0  0  # atno 17320 bound_to 7965
  146.3323  139.8606  142.8857 LP  0  0  0  0  0  0  0  0  0  0  0  0  # atno 17321 bound_to 7965
  140.7627  143.3205  151.2633 LP  0  0  0  0  0  0  0  0  0  0  0  0  # atno 17342 bound_to 10162
  139.6752  143.9951  152.2776 LP  0  0  0  0  0  0  0  0  0  0  0  0  # atno 17343 bound_to 10162
  157.3245  131.0688  151.1907 LP  0  0  0  0  0  0  0  0  0  0  0  0  # atno 17370 bound_to 10713
  157.2809  130.6749  149.6065 LP  0  0  0  0  0  0  0  0  0  0  0  0  # atno 17371 bound_to 10713
  140.4962  134.6528  157.5230 LP  0  0  0  0  0  0  0  0  0  0  0  0  # atno 17394 bound_to 11000
  139.9895  134.7007  155.9714 LP  0  0  0  0  0  0  0  0  0  0  0  0  # atno 17395 bound_to 11000

$$$$
