AV-unprocessed.smi:1774|AV-procd|sdf|7170|dock5
  -GOLD-   22720 8413D 1   1.00000     0.00000
 Structure written by MMmdl.
 46 47  0  0  0  0  0  0  0  0  2 V2000
  146.6859  132.1052  153.1960 C   0  0  0  0  0  0  0  0  0  0  0  0
  145.9410  132.4822  151.9256 C   0  0  0  0  0  0  0  0  0  0  0  0
  145.2123  131.4919  151.2327 C   0  0  0  0  0  0  0  0  0  0  0  0
  144.5236  131.8425  150.0589 C   0  0  0  0  0  0  0  0  0  0  0  0
  144.5932  133.1773  149.6247 C   0  0  0  0  0  0  0  0  0  0  0  0
  145.2875  134.1298  150.2802 N   0  0  0  0  0  0  0  0  0  0  0  0
  145.9570  133.8083  151.4157 C   0  0  0  0  0  0  0  0  0  0  0  0
  146.7132  134.7604  152.1560 N   0  0  0  0  0  0  0  0  0  0  0  0
  146.3319  135.4816  153.2250 C   0  0  0  0  0  0  0  0  0  0  0  0
  145.2332  135.4157  153.7775 O   0  0  0  0  0  0  0  0  0  0  0  0
  147.3112  136.3013  153.6344 N   0  0  0  0  0  0  0  0  0  0  0  0
  147.2188  137.1986  154.7804 C   0  0  0  0  0  0  0  0  0  0  0  0
  148.6126  137.5918  155.3088 C   0  0  0  0  0  0  0  0  0  0  0  0
  149.5417  137.9916  154.2190 N   0  3  1  0  0  0  0  0  0  0  0  0
  149.3057  139.3668  153.7155 C   0  0  0  0  0  0  0  0  0  0  0  0
  149.8794  140.4241  154.6811 C   0  0  2  0  0  0  0  0  0  0  0  0
  149.7227  141.8472  154.1348 C   0  0  0  0  0  0  0  0  0  0  0  0
  151.2681  140.1729  154.8666 O   0  0  0  0  0  0  0  0  0  0  0  0
  151.5272  138.9014  155.4524 C   0  0  2  0  0  0  0  0  0  0  0  0
  153.0394  138.7769  155.6675 C   0  0  0  0  0  0  0  0  0  0  0  0
  150.9827  137.7949  154.5234 C   0  0  0  0  0  0  0  0  0  0  0  0
  146.5435  131.0528  153.4430 H   0  0  0  0  0  0  0  0  0  0  0  0
  146.3287  132.6981  154.0385 H   0  0  0  0  0  0  0  0  0  0  0  0
  147.7556  132.2801  153.0767 H   0  0  0  0  0  0  0  0  0  0  0  0
  145.1793  130.4745  151.5937 H   0  0  0  0  0  0  0  0  0  0  0  0
  143.9567  131.1080  149.5060 H   0  0  0  0  0  0  0  0  0  0  0  0
  144.0791  133.4894  148.7278 H   0  0  0  0  0  0  0  0  0  0  0  0
  147.6564  134.9086  151.8286 H   0  0  0  0  0  0  0  0  0  0  0  0
  148.1848  136.2936  153.1278 H   0  0  0  0  0  0  0  0  0  0  0  0
  146.6351  138.0737  154.4942 H   0  0  0  0  0  0  0  0  0  0  0  0
  146.6540  136.6920  155.5634 H   0  0  0  0  0  0  0  0  0  0  0  0
  148.4850  138.4326  155.9923 H   0  0  0  0  0  0  0  0  0  0  0  0
  149.0476  136.7862  155.8998 H   0  0  0  0  0  0  0  0  0  0  0  0
  149.7920  139.4612  152.7433 H   0  0  0  0  0  0  0  0  0  0  0  0
  148.2422  139.5336  153.5409 H   0  0  0  0  0  0  0  0  0  0  0  0
  149.3706  140.3690  155.6449 H   0  0  0  0  0  0  0  0  0  0  0  0
  148.6722  142.0966  153.9833 H   0  0  0  0  0  0  0  0  0  0  0  0
  150.2357  141.9625  153.1795 H   0  0  0  0  0  0  0  0  0  0  0  0
  150.1409  142.5782  154.8273 H   0  0  0  0  0  0  0  0  0  0  0  0
  151.0419  138.8506  156.4281 H   0  0  0  0  0  0  0  0  0  0  0  0
  153.2931  137.8199  156.1243 H   0  0  0  0  0  0  0  0  0  0  0  0
  153.4057  139.5658  156.3251 H   0  0  0  0  0  0  0  0  0  0  0  0
  153.5813  138.8518  154.7241 H   0  0  0  0  0  0  0  0  0  0  0  0
  151.1661  136.8101  154.9509 H   0  0  0  0  0  0  0  0  0  0  0  0
  151.5282  137.8178  153.5790 H   0  0  0  0  0  0  0  0  0  0  0  0
  149.3235  137.3754  153.4490 H   0  0  0  0  0  0  0  0  0  0  0  0
  1  2  1  0  0  0  0
  1 22  1  0  0  0  0
  1 23  1  0  0  0  0
  1 24  1  0  0  0  0
  2  7  1  0  0  0  0
  2  3  2  0  0  0  0
  3  4  1  0  0  0  0
  3 25  1  0  0  0  0
  4  5  2  0  0  0  0
  4 26  1  0  0  0  0
  5  6  1  0  0  0  0
  5 27  1  0  0  0  0
  6  7  2  0  0  0  0
  7  8  1  0  0  0  0
  8  9  1  0  0  0  0
  8 28  1  0  0  0  0
  9 10  2  0  0  0  0
  9 11  1  0  0  0  0
 11 12  1  0  0  0  0
 11 29  1  0  0  0  0
 12 13  1  0  0  0  0
 12 30  1  0  0  0  0
 12 31  1  0  0  0  0
 13 14  1  0  0  0  0
 13 32  1  0  0  0  0
 13 33  1  0  0  0  0
 14 21  1  0  0  0  0
 14 15  1  0  0  0  0
 14 46  1  0  0  0  0
 15 16  1  0  0  0  0
 15 34  1  0  0  0  0
 15 35  1  0  0  0  0
 16 17  1  0  0  0  0
 16 18  1  0  0  0  0
 16 36  1  0  0  0  0
 17 37  1  0  0  0  0
 17 38  1  0  0  0  0
 17 39  1  0  0  0  0
 18 19  1  0  0  0  0
 19 20  1  0  0  0  0
 19 21  1  0  0  0  0
 19 40  1  0  0  0  0
 20 41  1  0  0  0  0
 20 42  1  0  0  0  0
 20 43  1  0  0  0  0
 21 44  1  0  0  0  0
 21 45  1  0  0  0  0
M  CHG  1  14   1
M  END
> <s_m_source_file>
AV-unprocessed.smi

> <i_m_source_file_index>
1774

> <i_lp_mmshare_version>
43012

> <i_f3d_flags>
0

> <s_epik_input>
W0NIM11jMVtjSF1bY0hdW2NIXW5jMVtOSF1DKD1PKVtOSF1bQ0gyXVtDSDJdTjJbQ0gyXVtDQEBIXShbQ0gzXSlPW0NAQEhdKFtDSDNdKVtDSDJdMg==

> <s_epik_cmdline>
J2VwaWtfcHl0aG9uJywgJy1waCcsICc3LjAnLCAnLXRuJywgJzgnLCAnLW1hJywgJzIwMCcsICctbWV0YWxfYmluZGluZycsICctaW1hZScsICc8aW5maWxlLm1hZT4nLCAnLW9tYWUnLCAnPG91dGZpbGUubWFlPic=

> <r_epik_Ionization_Penalty>
0.602573

> <r_epik_Ionization_Penalty_Charging>
0.602531

> <r_epik_Ionization_Penalty_Neutral>
4.21996e-05

> <r_epik_State_Penalty>
0.617039

> <r_epik_Charging_Adjusted_Penalty>
1.21957

> <i_epik_Tot_Q>
1

> <i_epik_Tot_abs_Q>
1

> <r_epik_Metal_State_Penalty>
0.617042

> <b_epik_Metal_Only>
0

> <s_lp_Force_Field>
OPLS_2005

> <r_lp_Energy>
17.7689

> <b_lp_Chiralities_Consistent>
1

> <s_lp_Variant>
AV-unprocessed.smi:1774-7

> <Gold.Version>
5.8.1

> <Gold.Id.Protein>
6NUR|6NUR_protein|mol2

> <Gold.PLP.Fitness>
51.5233

> <Gold.PLP.PLP>
-35.9881

> <Gold.PLP.part.hbond>
-4.0000

> <Gold.PLP.part.metal>
0.0000

> <Gold.PLP.part.buried>
-0.8677

> <Gold.PLP.part.nonpolar>
-30.8322

> <Gold.PLP.part.repulsive>
0.2955

> <Gold.PLP.ligand.clash>
0.0000

> <Gold.PLP.ligand.torsion>
1.1678

> <Gold.PLP.Chemscore.Hbond>
4.9440

> <Gold.PLP.Chemscore.CHOScore>
1.0000

> <Gold.PLP.Chemscore.Metal>
0.0000

> <Gold.Chemscore.Hbonds>
donor molecule, donor type, donor heavy atom, donor atom, acceptor molecule, acceptor atom, score
      L1  H     8    28       P1  7948  0.82
      L1  H    11    29       P1  7948  0.88
      L1  H    14    46       P1  7948  2.00
      P1  H  7989  7998       L1    18  0.65
      L1  C     5    27       P1  7921  0.23

> <Gold.PLP.Chemscore.Internal.Correction>
0.0387

> <Gold.Rescore>
     Score         DG    S(hbond)    S(metal)    S(lipo)     H(rot)  DE(clash)    DE(int)     intcor
     22.27     -24.02       3.53        0.00      90.33       1.49       0.66       1.09       ----

> <Gold.Chemscore.Fitness>
22.2720

> <Gold.Chemscore.DG>
-24.0199

> <Gold.Chemscore.ZeroCoef>
-5.4800

> <Gold.Chemscore.Hbond>
3.5323

> <Gold.Chemscore.Metal>
0.0000

> <Gold.Chemscore.Lipo>
90.3261

> <Gold.Chemscore.Internal_Hbond>
0.0000

> <Gold.Chemscore.DEClash>
0.6592

> <Gold.Chemscore.DEInternal>
1.0887

> <Gold.Chemscore.Rot>
1.4946

> <Gold.Chemscore.Internal.Correction>
   9.000000E+99

> <Gold.Chemscore.Hbonds>
donor molecule, donor type, donor heavy atom, donor atom, acceptor molecule, acceptor atom, score
      L1  H     8    28       P1  7948  0.53
      L1  H    11    29       P1  7948  0.82
      L1  H    14    46       P1  7948  0.96
      P1  H  7989  7998       L1    18  0.05

> <Gold.Chemscore.Hbond.Weighted>
-11.7978

> <Gold.Chemscore.Metal.Weighted>
-0.0000

> <Gold.Chemscore.Lipo.Weighted>
-10.5681

> <Gold.Chemscore.Internal_Hbond.Weighted>
0.0000

> <Gold.Chemscore.DEClash.Weighted>
0.6592

> <Gold.Chemscore.DEInternal.Weighted>
1.0887

> <Gold.Chemscore.Rot.Weighted>
3.8261

> <Gold.Chemscore.Internal.Correction.Weighted>
   9.000000E+99

> <Gold.Protein.RotatedTorsions>
[ 6907 6896 6895 6894 ] final  135.93 input  -60.11 | X-H torsion
[ 7974 7965 7964 7962 ] final  -64.46 input  175.53 | X-H torsion
[ 8008 7997 7996 7995 ] final -106.74 input   59.86 | X-H torsion
[ 10167 10162 10161 10158 ] final -105.96 input  -65.29 | X-H torsion
[ 10718 10713 10712 10709 ] final  -60.34 input   66.30 | X-H torsion
[ 10763 10752 10751 10750 ] final  119.08 input  -60.55 | X-H torsion
[ 11005 11000 10999 10996 ] final  -45.70 input  -57.11 | X-H torsion

> <Gold.Protein.ActiveResidues>
 VAL166  LYS551  ARG553  GLY616  TRP617  ASP618  TYR619  PRO620  LYS621  CYS622 
 ASP623  PHE694  ASN695  SER759  ASP760  ASP761  ALA762  ILE779  LEU786  VAL792 
 PHE793  MET794  SER795  GLU796  ALA797  LYS798  CYS799  TRP800  GLU811  SER814 

> <Gold.Protein.RotatedAtoms>
  152.2950  133.5598  159.5581 H   0  0  0  0  0  0  0  0  0  0  0  0  # atno 6907 bound_to 6896
  150.7252  134.0374  159.3763 H   0  0  0  0  0  0  0  0  0  0  0  0  # atno 6908 bound_to 6896
  151.8278  135.0631  160.0484 H   0  0  0  0  0  0  0  0  0  0  0  0  # atno 6909 bound_to 6896
  145.7665  140.8835  143.0402 H   0  0  0  0  0  0  0  0  0  0  0  0  # atno 7974 bound_to 7965
  154.9191  140.0408  157.1988 H   0  0  0  0  0  0  0  0  0  0  0  0  # atno 8008 bound_to 7997
  154.8272  140.2893  155.5725 H   0  0  0  0  0  0  0  0  0  0  0  0  # atno 8009 bound_to 7997
  156.2984  140.2507  156.3190 H   0  0  0  0  0  0  0  0  0  0  0  0  # atno 8010 bound_to 7997
  140.1929  143.3878  152.1192 H   0  0  0  0  0  0  0  0  0  0  0  0  # atno 10167 bound_to 10162
  156.0997  130.4188  150.0840 H   0  0  0  0  0  0  0  0  0  0  0  0  # atno 10718 bound_to 10713
  153.5775  135.3490  155.2862 H   0  0  0  0  0  0  0  0  0  0  0  0  # atno 10763 bound_to 10752
  154.8673  135.4174  154.2657 H   0  0  0  0  0  0  0  0  0  0  0  0  # atno 10764 bound_to 10752
  153.3436  135.7051  153.6917 H   0  0  0  0  0  0  0  0  0  0  0  0  # atno 10765 bound_to 10752
  141.0532  133.6735  156.3050 H   0  0  0  0  0  0  0  0  0  0  0  0  # atno 11005 bound_to 11000
  144.6820  139.9795  143.7483 LP  0  0  0  0  0  0  0  0  0  0  0  0  # atno 17320 bound_to 7965
  146.0213  139.3253  143.0811 LP  0  0  0  0  0  0  0  0  0  0  0  0  # atno 17321 bound_to 7965
  139.5249  144.7089  151.5269 LP  0  0  0  0  0  0  0  0  0  0  0  0  # atno 17342 bound_to 10162
  140.6444  143.8825  150.6722 LP  0  0  0  0  0  0  0  0  0  0  0  0  # atno 17343 bound_to 10162
  156.8830  130.9563  151.3597 LP  0  0  0  0  0  0  0  0  0  0  0  0  # atno 17370 bound_to 10713
  157.6165  130.8623  149.9038 LP  0  0  0  0  0  0  0  0  0  0  0  0  # atno 17371 bound_to 10713
  140.6015  134.5550  157.5518 LP  0  0  0  0  0  0  0  0  0  0  0  0  # atno 17394 bound_to 11000
  139.9368  134.7861  156.0783 LP  0  0  0  0  0  0  0  0  0  0  0  0  # atno 17395 bound_to 11000

$$$$
