AV-unprocessed.smi:3287|AV-procd|sdf|12597|dock6
  -GOLD-   2272018523D 1   1.00000     0.00000
 Structure written by MMmdl.
 43 44  0  0  0  0  0  0  0  0  2 V2000
  151.3017  141.4972  156.5590 C   0  0  0  0  0  0  0  0  0  0  0  0
  150.5180  140.8421  155.4098 C   0  0  1  0  0  0  0  0  0  0  0  0
  150.8205  139.3356  155.2951 C   0  0  0  0  0  0  0  0  0  0  0  0
  150.1023  138.7036  154.0919 C   0  0  0  0  0  0  0  0  0  0  0  0
  148.5801  138.9521  154.1398 C   0  0  2  0  0  0  0  0  0  0  0  0
  147.8961  138.4120  152.9433 N   0  3  0  0  0  0  0  0  0  0  0  0
  146.4181  138.3928  153.0046 C   0  0  0  0  0  0  0  0  0  0  0  0
  145.8121  137.7315  151.7545 C   0  0  1  0  0  0  0  0  0  0  0  0
  146.5487  138.1376  150.6169 O   0  0  0  0  0  0  0  0  0  0  0  0
  145.7774  136.2174  151.8971 C   0  0  0  0  0  0  0  0  0  0  0  0
  146.1654  135.5849  153.0987 C   0  0  0  0  0  0  0  0  0  0  0  0
  146.1062  134.1787  153.1702 C   0  0  0  0  0  0  0  0  0  0  0  0
  145.6919  133.4017  152.1468 N   0  0  0  0  0  0  0  0  0  0  0  0
  145.3187  134.0114  151.0018 C   0  0  0  0  0  0  0  0  0  0  0  0
  145.3413  135.4096  150.8262 C   0  0  0  0  0  0  0  0  0  0  0  0
  148.2893  140.4617  154.2628 C   0  0  0  0  0  0  0  0  0  0  0  0
  148.9932  141.1126  155.4724 C   0  0  1  0  0  0  0  0  0  0  0  0
  148.3311  140.7058  156.8045 C   0  0  0  0  0  0  0  0  0  0  0  0
  151.0717  141.0373  157.5204 H   0  0  0  0  0  0  0  0  0  0  0  0
  151.0770  142.5615  156.6328 H   0  0  0  0  0  0  0  0  0  0  0  0
  152.3764  141.4001  156.4015 H   0  0  0  0  0  0  0  0  0  0  0  0
  150.8817  141.3079  154.4923 H   0  0  0  0  0  0  0  0  0  0  0  0
  151.8953  139.1807  155.1939 H   0  0  0  0  0  0  0  0  0  0  0  0
  150.5265  138.8220  156.2110 H   0  0  0  0  0  0  0  0  0  0  0  0
  150.5145  139.1136  153.1685 H   0  0  0  0  0  0  0  0  0  0  0  0
  150.3186  137.6355  154.0794 H   0  0  0  0  0  0  0  0  0  0  0  0
  148.1640  138.4487  155.0134 H   0  0  0  0  0  0  0  0  0  0  0  0
  148.1577  138.9894  152.1570 H   0  0  0  0  0  0  0  0  0  0  0  0
  146.0866  137.8677  153.9007 H   0  0  0  0  0  0  0  0  0  0  0  0
  146.0573  139.4194  153.0823 H   0  0  0  0  0  0  0  0  0  0  0  0
  144.7891  138.0861  151.6202 H   0  0  0  0  0  0  0  0  0  0  0  0
  145.9413  138.4500  149.9628 H   0  0  0  0  0  0  0  0  0  0  0  0
  146.5017  136.1588  153.9498 H   0  0  0  0  0  0  0  0  0  0  0  0
  146.3977  133.6648  154.0743 H   0  0  0  0  0  0  0  0  0  0  0  0
  144.9904  133.3658  150.2005 H   0  0  0  0  0  0  0  0  0  0  0  0
  145.0297  135.8461  149.8886 H   0  0  0  0  0  0  0  0  0  0  0  0
  148.6195  140.9650  153.3525 H   0  0  0  0  0  0  0  0  0  0  0  0
  147.2139  140.6329  154.3246 H   0  0  0  0  0  0  0  0  0  0  0  0
  148.8501  142.1901  155.3787 H   0  0  0  0  0  0  0  0  0  0  0  0
  148.4753  139.6502  157.0327 H   0  0  0  0  0  0  0  0  0  0  0  0
  147.2570  140.8915  156.7768 H   0  0  0  0  0  0  0  0  0  0  0  0
  148.7292  141.2818  157.6397 H   0  0  0  0  0  0  0  0  0  0  0  0
  148.2261  137.4729  152.7709 H   0  0  0  0  0  0  0  0  0  0  0  0
  1  2  1  0  0  0  0
  1 19  1  0  0  0  0
  1 20  1  0  0  0  0
  1 21  1  0  0  0  0
  2 17  1  0  0  0  0
  2  3  1  0  0  0  0
  2 22  1  0  0  0  0
  3  4  1  0  0  0  0
  3 23  1  0  0  0  0
  3 24  1  0  0  0  0
  4  5  1  0  0  0  0
  4 25  1  0  0  0  0
  4 26  1  0  0  0  0
  5  6  1  0  0  0  0
  5 16  1  0  0  0  0
  5 27  1  0  0  0  0
  6  7  1  0  0  0  0
  6 28  1  0  0  0  0
  6 43  1  0  0  0  0
  7  8  1  0  0  0  0
  7 29  1  0  0  0  0
  7 30  1  0  0  0  0
  8  9  1  0  0  0  0
  8 10  1  0  0  0  0
  8 31  1  0  0  0  0
  9 32  1  0  0  0  0
 10 15  1  0  0  0  0
 10 11  2  0  0  0  0
 11 12  1  0  0  0  0
 11 33  1  0  0  0  0
 12 13  2  0  0  0  0
 12 34  1  0  0  0  0
 13 14  1  0  0  0  0
 14 15  2  0  0  0  0
 14 35  1  0  0  0  0
 15 36  1  0  0  0  0
 16 17  1  0  0  0  0
 16 37  1  0  0  0  0
 16 38  1  0  0  0  0
 17 18  1  0  0  0  0
 17 39  1  0  0  0  0
 18 40  1  0  0  0  0
 18 41  1  0  0  0  0
 18 42  1  0  0  0  0
M  CHG  1   6   1
M  END
> <s_m_source_file>
AV-unprocessed.smi

> <i_m_source_file_index>
3287

> <i_lp_mmshare_version>
43012

> <i_f3d_flags>
0

> <s_epik_input>
W0NIM11bQ0BASF0xW0NIMl1bQ0gyXVtDQEhdKFtDSDJdW0NASF0xW0NIM10pW05IXVtDSDJdW0NASF0oW09IXSljMltjSF1bY0hdbltjSF1bY0hdMg==

> <s_epik_cmdline>
J2VwaWtfcHl0aG9uJywgJy1waCcsICc3LjAnLCAnLXRuJywgJzgnLCAnLW1hJywgJzIwMCcsICctbWV0YWxfYmluZGluZycsICctaW1hZScsICc8aW5maWxlLm1hZT4nLCAnLW9tYWUnLCAnPG91dGZpbGUubWFlPic=

> <r_lp_tautomer_probability>
1

> <r_epik_Ionization_Penalty>
0.00537262

> <r_epik_Ionization_Penalty_Charging>
0.00321624

> <r_epik_Ionization_Penalty_Neutral>
0.00215638

> <r_epik_State_Penalty>
-0

> <r_epik_Charging_Adjusted_Penalty>
0.00321624

> <i_epik_Tot_Q>
1

> <i_epik_Tot_abs_Q>
1

> <r_epik_Metal_State_Penalty>
-0

> <b_epik_Metal_Only>
0

> <s_lp_Force_Field>
OPLS_2005

> <r_lp_Energy>
18.2577

> <b_lp_Chiralities_Consistent>
1

> <s_lp_Variant>
AV-unprocessed.smi:3287-8

> <Gold.Version>
5.8.1

> <Gold.Id.Protein>
6NUR|6NUR_protein|mol2

> <Gold.PLP.Fitness>
45.7295

> <Gold.PLP.PLP>
-32.4078

> <Gold.PLP.part.hbond>
-4.2278

> <Gold.PLP.part.metal>
0.0000

> <Gold.PLP.part.buried>
-0.8678

> <Gold.PLP.part.nonpolar>
-27.6478

> <Gold.PLP.part.repulsive>
0.1531

> <Gold.PLP.ligand.clash>
0.0000

> <Gold.PLP.ligand.torsion>
0.3290

> <Gold.PLP.Chemscore.Hbond>
4.6537

> <Gold.PLP.Chemscore.CHOScore>
0.0000

> <Gold.PLP.Chemscore.Metal>
0.0000

> <Gold.Chemscore.Hbonds>
donor molecule, donor type, donor heavy atom, donor atom, acceptor molecule, acceptor atom, score
      L1  H     6    28       P1  7957  0.99
      L1  H     6    43       P1  7948  2.00
      L1  H     9    32       P1 10171  0.69
      P1  H  7954  7966       L1     9  0.96

> <Gold.PLP.Chemscore.Internal.Correction>
0.0187

> <Gold.Rescore>
     Score         DG    S(hbond)    S(metal)    S(lipo)     H(rot)  DE(clash)    DE(int)     intcor
     20.90     -22.10       3.52        0.00      83.35       1.90       0.89       0.32       ----

> <Gold.Chemscore.Fitness>
20.8966

> <Gold.Chemscore.DG>
-22.1021

> <Gold.Chemscore.ZeroCoef>
-5.4800

> <Gold.Chemscore.Hbond>
3.5158

> <Gold.Chemscore.Metal>
0.0000

> <Gold.Chemscore.Lipo>
83.3537

> <Gold.Chemscore.Internal_Hbond>
0.0000

> <Gold.Chemscore.DEClash>
0.8902

> <Gold.Chemscore.DEInternal>
0.3153

> <Gold.Chemscore.Rot>
1.9035

> <Gold.Chemscore.Internal.Correction>
   9.000000E+99

> <Gold.Chemscore.Hbonds>
donor molecule, donor type, donor heavy atom, donor atom, acceptor molecule, acceptor atom, score
      L1  H     6    28       P1  7957  0.88
      L1  H     6    43       P1  7948  0.98
      L1  H     9    32       P1 10171  0.66
      P1  H  7954  7966       L1     9  0.69

> <Gold.Chemscore.Hbond.Weighted>
-11.7426

> <Gold.Chemscore.Metal.Weighted>
-0.0000

> <Gold.Chemscore.Lipo.Weighted>
-9.7524

> <Gold.Chemscore.Internal_Hbond.Weighted>
0.0000

> <Gold.Chemscore.DEClash.Weighted>
0.8902

> <Gold.Chemscore.DEInternal.Weighted>
0.3153

> <Gold.Chemscore.Rot.Weighted>
4.8729

> <Gold.Chemscore.Internal.Correction.Weighted>
   9.000000E+99

> <Gold.Protein.RotatedTorsions>
[ 6907 6896 6895 6894 ] final  -12.88 input  -60.11 | X-H torsion
[ 7974 7965 7964 7962 ] final  -70.61 input  175.53 | X-H torsion
[ 8008 7997 7996 7995 ] final  -62.84 input   59.86 | X-H torsion
[ 10167 10162 10161 10158 ] final  -63.67 input  -65.29 | X-H torsion
[ 10718 10713 10712 10709 ] final   99.74 input   66.30 | X-H torsion
[ 10763 10752 10751 10750 ] final    7.78 input  -60.55 | X-H torsion
[ 11005 11000 10999 10996 ] final  137.88 input  -57.11 | X-H torsion

> <Gold.Protein.ActiveResidues>
 VAL166  LYS551  ARG553  GLY616  TRP617  ASP618  TYR619  PRO620  LYS621  CYS622 
 ASP623  PHE694  ASN695  SER759  ASP760  ASP761  ALA762  ILE779  LEU786  VAL792 
 PHE793  MET794  SER795  GLU796  ALA797  LYS798  CYS799  TRP800  GLU811  SER814 

> <Gold.Protein.RotatedAtoms>
  151.3636  135.0909  159.9442 H   0  0  0  0  0  0  0  0  0  0  0  0  # atno 6907 bound_to 6896
  152.5155  133.9234  159.7556 H   0  0  0  0  0  0  0  0  0  0  0  0  # atno 6908 bound_to 6896
  150.9633  133.6367  159.2780 H   0  0  0  0  0  0  0  0  0  0  0  0  # atno 6909 bound_to 6896
  145.6888  140.9161  143.0793 H   0  0  0  0  0  0  0  0  0  0  0  0  # atno 7974 bound_to 7965
  154.4522  140.0987  156.6650 H   0  0  0  0  0  0  0  0  0  0  0  0  # atno 8008 bound_to 7997
  155.5251  140.3480  155.4396 H   0  0  0  0  0  0  0  0  0  0  0  0  # atno 8009 bound_to 7997
  156.0703  140.1348  156.9825 H   0  0  0  0  0  0  0  0  0  0  0  0  # atno 8010 bound_to 7997
  140.5855  143.2333  151.6252 H   0  0  0  0  0  0  0  0  0  0  0  0  # atno 10167 bound_to 10162
  157.6869  131.0678  150.4994 H   0  0  0  0  0  0  0  0  0  0  0  0  # atno 10718 bound_to 10713
  153.2324  135.6894  153.7875 H   0  0  0  0  0  0  0  0  0  0  0  0  # atno 10763 bound_to 10752
  153.7034  135.3294  155.3231 H   0  0  0  0  0  0  0  0  0  0  0  0  # atno 10764 bound_to 10752
  154.8320  135.4573  154.1215 H   0  0  0  0  0  0  0  0  0  0  0  0  # atno 10765 bound_to 10752
  140.0145  134.9424  157.0347 H   0  0  0  0  0  0  0  0  0  0  0  0  # atno 11005 bound_to 11000
  144.7003  139.8794  143.7446 LP  0  0  0  0  0  0  0  0  0  0  0  0  # atno 17320 bound_to 7965
  146.0900  139.3890  143.0411 LP  0  0  0  0  0  0  0  0  0  0  0  0  # atno 17321 bound_to 7965
  139.5195  144.3252  152.0875 LP  0  0  0  0  0  0  0  0  0  0  0  0  # atno 17342 bound_to 10162
  140.2408  144.4271  150.6261 LP  0  0  0  0  0  0  0  0  0  0  0  0  # atno 17343 bound_to 10162
  156.5316  130.4186  149.6198 LP  0  0  0  0  0  0  0  0  0  0  0  0  # atno 17370 bound_to 10713
  156.3064  130.7205  151.2088 LP  0  0  0  0  0  0  0  0  0  0  0  0  # atno 17371 bound_to 10713
  140.4495  134.1597  155.7180 LP  0  0  0  0  0  0  0  0  0  0  0  0  # atno 17394 bound_to 11000
  141.1733  133.8564  157.1501 LP  0  0  0  0  0  0  0  0  0  0  0  0  # atno 17395 bound_to 11000

$$$$
