AV-unprocessed.smi:1219|AV-procd|sdf|5112|dock6
  -GOLD-   22720 4173D 1   1.00000     0.00000
 Structure written by MMmdl.
 43 44  0  0  0  0  0  0  0  0  2 V2000
  150.8125  140.7445  156.0973 O   0  0  0  0  0  0  0  0  0  0  0  0
  150.2472  141.8367  156.0393 C   0  0  0  0  0  0  0  0  0  0  0  0
  149.3564  142.1550  155.0893 N   0  0  0  0  0  0  0  0  0  0  0  0
  148.9604  141.2857  153.9860 C   0  0  0  0  0  0  0  0  0  0  0  0
  147.4502  140.9680  154.0057 C   0  0  2  0  0  0  0  0  0  0  0  0
  147.1321  140.2304  152.8418 O   0  0  0  0  0  0  0  0  0  0  0  0
  146.6039  142.2574  153.9669 C   0  0  0  0  0  0  0  0  0  0  0  0
  145.2392  142.0680  154.5236 N   0  3  0  0  0  0  0  0  0  0  0  0
  144.5801  143.3605  154.8457 C   0  0  0  0  0  0  0  0  0  0  0  0
  143.1205  143.1485  155.2808 C   0  0  0  0  0  0  0  0  0  0  0  0
  143.0356  142.1844  156.4707 C   0  0  0  0  0  0  0  0  0  0  0  0
  143.7505  140.8703  156.1309 C   0  0  0  0  0  0  0  0  0  0  0  0
  145.1973  141.1299  155.6777 C   0  0  0  0  0  0  0  0  0  0  0  0
  150.4300  142.8554  156.8977 N   0  0  0  0  0  0  0  0  0  0  0  0
  151.3036  142.9144  158.0161 C   0  0  0  0  0  0  0  0  0  0  0  0
  151.6129  144.2180  158.4659 C   0  0  0  0  0  0  0  0  0  0  0  0
  152.4756  144.3847  159.5666 C   0  0  0  0  0  0  0  0  0  0  0  0
  153.0064  143.2421  160.1909 C   0  0  0  0  0  0  0  0  0  0  0  0
  152.6461  141.9808  159.6820 C   0  0  0  0  0  0  0  0  0  0  0  0
  151.8199  141.8187  158.6269 N   0  0  0  0  0  0  0  0  0  0  0  0
  148.9400  143.0743  155.1167 H   0  0  0  0  0  0  0  0  0  0  0  0
  149.2032  141.8361  153.0767 H   0  0  0  0  0  0  0  0  0  0  0  0
  149.5657  140.3775  153.9560 H   0  0  0  0  0  0  0  0  0  0  0  0
  147.2100  140.3771  154.8892 H   0  0  0  0  0  0  0  0  0  0  0  0
  147.9383  139.9350  152.4434 H   0  0  0  0  0  0  0  0  0  0  0  0
  147.1016  143.0621  154.5103 H   0  0  0  0  0  0  0  0  0  0  0  0
  146.5359  142.5912  152.9300 H   0  0  0  0  0  0  0  0  0  0  0  0
  145.1392  143.8687  155.6331 H   0  0  0  0  0  0  0  0  0  0  0  0
  144.5987  144.0126  153.9716 H   0  0  0  0  0  0  0  0  0  0  0  0
  142.6668  144.1046  155.5433 H   0  0  0  0  0  0  0  0  0  0  0  0
  142.5435  142.7515  154.4444 H   0  0  0  0  0  0  0  0  0  0  0  0
  143.4958  142.6393  157.3489 H   0  0  0  0  0  0  0  0  0  0  0  0
  141.9934  141.9922  156.7276 H   0  0  0  0  0  0  0  0  0  0  0  0
  143.7441  140.2090  156.9979 H   0  0  0  0  0  0  0  0  0  0  0  0
  143.2070  140.3501  155.3410 H   0  0  0  0  0  0  0  0  0  0  0  0
  145.6584  140.1791  155.4134 H   0  0  0  0  0  0  0  0  0  0  0  0
  145.7787  141.5423  156.5039 H   0  0  0  0  0  0  0  0  0  0  0  0
  149.8945  143.6926  156.7223 H   0  0  0  0  0  0  0  0  0  0  0  0
  151.1970  145.0854  157.9741 H   0  0  0  0  0  0  0  0  0  0  0  0
  152.7260  145.3724  159.9242 H   0  0  0  0  0  0  0  0  0  0  0  0
  153.6717  143.3295  161.0372 H   0  0  0  0  0  0  0  0  0  0  0  0
  153.0321  141.0782  160.1321 H   0  0  0  0  0  0  0  0  0  0  0  0
  144.6926  141.6515  153.7825 H   0  0  0  0  0  0  0  0  0  0  0  0
  1  2  2  0  0  0  0
  2  3  1  0  0  0  0
  2 14  1  0  0  0  0
  3  4  1  0  0  0  0
  3 21  1  0  0  0  0
  4  5  1  0  0  0  0
  4 22  1  0  0  0  0
  4 23  1  0  0  0  0
  5  6  1  0  0  0  0
  5  7  1  0  0  0  0
  5 24  1  0  0  0  0
  6 25  1  0  0  0  0
  7  8  1  0  0  0  0
  7 26  1  0  0  0  0
  7 27  1  0  0  0  0
  8 13  1  0  0  0  0
  8  9  1  0  0  0  0
  8 43  1  0  0  0  0
  9 10  1  0  0  0  0
  9 28  1  0  0  0  0
  9 29  1  0  0  0  0
 10 11  1  0  0  0  0
 10 30  1  0  0  0  0
 10 31  1  0  0  0  0
 11 12  1  0  0  0  0
 11 32  1  0  0  0  0
 11 33  1  0  0  0  0
 12 13  1  0  0  0  0
 12 34  1  0  0  0  0
 12 35  1  0  0  0  0
 13 36  1  0  0  0  0
 13 37  1  0  0  0  0
 14 15  1  0  0  0  0
 14 38  1  0  0  0  0
 15 20  1  0  0  0  0
 15 16  2  0  0  0  0
 16 17  1  0  0  0  0
 16 39  1  0  0  0  0
 17 18  2  0  0  0  0
 17 40  1  0  0  0  0
 18 19  1  0  0  0  0
 18 41  1  0  0  0  0
 19 20  2  0  0  0  0
 19 42  1  0  0  0  0
M  CHG  1   8   1
M  END
> <s_m_source_file>
AV-unprocessed.smi

> <i_m_source_file_index>
1219

> <i_lp_mmshare_version>
43012

> <i_f3d_flags>
0

> <s_epik_input>
bjFbY0hdW2NIXVtjSF1bY0hdYzFbTkhdQyg9TylbTkhdW0NIMl1bQ0BIXShbT0hdKVtDSDJdTjJbQ0gyXVtDSDJdW0NIMl1bQ0gyXVtDSDJdMg==

> <s_epik_cmdline>
J2VwaWtfcHl0aG9uJywgJy1waCcsICc3LjAnLCAnLXRuJywgJzgnLCAnLW1hJywgJzIwMCcsICctbWV0YWxfYmluZGluZycsICctaW1hZScsICc8aW5maWxlLm1hZT4nLCAnLW9tYWUnLCAnPG91dGZpbGUubWFlPic=

> <r_epik_Ionization_Penalty>
0.00510026

> <r_epik_Ionization_Penalty_Charging>
0.00506051

> <r_epik_Ionization_Penalty_Neutral>
3.97538e-05

> <r_epik_State_Penalty>
0.00368188

> <r_epik_Charging_Adjusted_Penalty>
0.0087424

> <i_epik_Tot_Q>
1

> <i_epik_Tot_abs_Q>
1

> <r_epik_Metal_State_Penalty>
-0

> <b_epik_Metal_Only>
0

> <s_lp_Force_Field>
OPLS_2005

> <r_lp_Energy>
20.5821

> <b_lp_Chiralities_Consistent>
1

> <s_lp_Variant>
AV-unprocessed.smi:1219-1

> <Gold.Version>
5.8.1

> <Gold.Id.Protein>
6NUR|6NUR_protein|mol2

> <Gold.PLP.Fitness>
51.4675

> <Gold.PLP.PLP>
-37.5432

> <Gold.PLP.part.hbond>
-4.0000

> <Gold.PLP.part.metal>
0.0000

> <Gold.PLP.part.buried>
-3.9843

> <Gold.PLP.part.nonpolar>
-30.4863

> <Gold.PLP.part.repulsive>
0.2709

> <Gold.PLP.ligand.clash>
0.0000

> <Gold.PLP.ligand.torsion>
0.5544

> <Gold.PLP.Chemscore.Hbond>
5.0000

> <Gold.PLP.Chemscore.CHOScore>
0.0000

> <Gold.PLP.Chemscore.Metal>
0.0000

> <Gold.Chemscore.Hbonds>
donor molecule, donor type, donor heavy atom, donor atom, acceptor molecule, acceptor atom, score
      L1  H     3    21       P1  8028  1.00
      L1  H     6    25       P1  7957  0.84
      L1  H     8    43       P1 10175  1.40
      L1  H    14    38       P1  8028  1.00

> <Gold.PLP.Chemscore.Internal.Correction>
0.0330

> <Gold.Rescore>
     Score         DG    S(hbond)    S(metal)    S(lipo)     H(rot)  DE(clash)    DE(int)     intcor
     18.84     -21.05       3.78        0.00      77.72       2.41       0.46       1.75       ----

> <Gold.Chemscore.Fitness>
18.8402

> <Gold.Chemscore.DG>
-21.0497

> <Gold.Chemscore.ZeroCoef>
-5.4800

> <Gold.Chemscore.Hbond>
3.7836

> <Gold.Chemscore.Metal>
0.0000

> <Gold.Chemscore.Lipo>
77.7249

> <Gold.Chemscore.Internal_Hbond>
0.0000

> <Gold.Chemscore.DEClash>
0.4551

> <Gold.Chemscore.DEInternal>
1.7544

> <Gold.Chemscore.Rot>
2.4067

> <Gold.Chemscore.Internal.Correction>
   9.000000E+99

> <Gold.Chemscore.Hbonds>
donor molecule, donor type, donor heavy atom, donor atom, acceptor molecule, acceptor atom, score
      L1  H     3    21       P1  8028  0.98
      L1  H     6    25       P1  7957  0.81
      L1  H     8    43       P1 10175  0.07
      L1  H    14    38       P1  8028  0.96

> <Gold.Chemscore.Hbond.Weighted>
-12.6371

> <Gold.Chemscore.Metal.Weighted>
-0.0000

> <Gold.Chemscore.Lipo.Weighted>
-9.0938

> <Gold.Chemscore.Internal_Hbond.Weighted>
0.0000

> <Gold.Chemscore.DEClash.Weighted>
0.4551

> <Gold.Chemscore.DEInternal.Weighted>
1.7544

> <Gold.Chemscore.Rot.Weighted>
6.1612

> <Gold.Chemscore.Internal.Correction.Weighted>
   9.000000E+99

> <Gold.Protein.RotatedTorsions>
[ 6907 6896 6895 6894 ] final -110.79 input  -60.11 | X-H torsion
[ 7974 7965 7964 7962 ] final   73.93 input  175.53 | X-H torsion
[ 8008 7997 7996 7995 ] final   49.99 input   59.86 | X-H torsion
[ 10167 10162 10161 10158 ] final  -44.07 input  -65.29 | X-H torsion
[ 10718 10713 10712 10709 ] final -113.92 input   66.30 | X-H torsion
[ 10763 10752 10751 10750 ] final  -60.48 input  -60.55 | X-H torsion
[ 11005 11000 10999 10996 ] final  161.65 input  -57.11 | X-H torsion

> <Gold.Protein.ActiveResidues>
 VAL166  LYS551  ARG553  GLY616  TRP617  ASP618  TYR619  PRO620  LYS621  CYS622 
 ASP623  PHE694  ASN695  SER759  ASP760  ASP761  ALA762  ILE779  LEU786  VAL792 
 PHE793  MET794  SER795  GLU796  ALA797  LYS798  CYS799  TRP800  GLU811  SER814 

> <Gold.Protein.RotatedAtoms>
  150.7648  133.9330  159.3432 H   0  0  0  0  0  0  0  0  0  0  0  0  # atno 6907 bound_to 6896
  151.7231  135.0888  160.0297 H   0  0  0  0  0  0  0  0  0  0  0  0  # atno 6908 bound_to 6896
  152.3637  133.6292  159.6070 H   0  0  0  0  0  0  0  0  0  0  0  0  # atno 6909 bound_to 6896
  145.7346  139.2697  143.1521 H   0  0  0  0  0  0  0  0  0  0  0  0  # atno 7974 bound_to 7965
  155.4114  140.3442  155.4264 H   0  0  0  0  0  0  0  0  0  0  0  0  # atno 8008 bound_to 7997
  156.1447  140.1552  156.8898 H   0  0  0  0  0  0  0  0  0  0  0  0  # atno 8009 bound_to 7997
  154.5000  140.0817  156.7759 H   0  0  0  0  0  0  0  0  0  0  0  0  # atno 8010 bound_to 7997
  140.6911  143.2949  151.3442 H   0  0  0  0  0  0  0  0  0  0  0  0  # atno 10167 bound_to 10162
  156.0797  130.5999  150.8707 H   0  0  0  0  0  0  0  0  0  0  0  0  # atno 10718 bound_to 10713
  154.2699  135.6292  153.5306 H   0  0  0  0  0  0  0  0  0  0  0  0  # atno 10763 bound_to 10752
  152.9882  135.5608  154.5611 H   0  0  0  0  0  0  0  0  0  0  0  0  # atno 10764 bound_to 10752
  154.5179  135.2881  155.1263 H   0  0  0  0  0  0  0  0  0  0  0  0  # atno 10765 bound_to 10752
  140.2179  134.8218  157.3189 H   0  0  0  0  0  0  0  0  0  0  0  0  # atno 11005 bound_to 11000
  146.0505  140.8074  142.9784 LP  0  0  0  0  0  0  0  0  0  0  0  0  # atno 17320 bound_to 7965
  144.6884  140.3045  143.7258 LP  0  0  0  0  0  0  0  0  0  0  0  0  # atno 17321 bound_to 7965
  139.6314  144.0713  152.2479 LP  0  0  0  0  0  0  0  0  0  0  0  0  # atno 17342 bound_to 10162
  140.0189  144.6168  150.7583 LP  0  0  0  0  0  0  0  0  0  0  0  0  # atno 17343 bound_to 10162
  157.5908  131.0944  150.9121 LP  0  0  0  0  0  0  0  0  0  0  0  0  # atno 17370 bound_to 10713
  156.9297  130.5345  149.5279 LP  0  0  0  0  0  0  0  0  0  0  0  0  # atno 17371 bound_to 10713
  140.1881  134.4406  155.7732 LP  0  0  0  0  0  0  0  0  0  0  0  0  # atno 17394 bound_to 11000
  141.2224  133.7014  156.7981 LP  0  0  0  0  0  0  0  0  0  0  0  0  # atno 17395 bound_to 11000

$$$$
