AV-unprocessed.smi:1778|AV-procd|sdf|7180|dock10
  -GOLD-   22720 8423D 1   1.00000     0.00000
 Structure written by MMmdl.
 34 35  0  0  0  0  0  0  0  0  1 V2000
  145.1419  130.7590  151.2509 C   0  0  0  0  0  0  0  0  0  0  0  0
  144.9037  132.2419  151.2592 C   0  0  0  0  0  0  0  0  0  0  0  0
  143.6618  132.6955  151.2422 N   0  0  0  0  0  0  0  0  0  0  0  0
  143.7622  134.0901  151.2418 O   0  0  0  0  0  0  0  0  0  0  0  0
  145.0773  134.4255  151.2575 C   0  0  0  0  0  0  0  0  0  0  0  0
  145.4003  135.8813  151.2513 C   0  0  0  0  0  0  0  0  0  0  0  0
  145.8570  133.3020  151.2698 C   0  0  0  0  0  0  0  0  0  0  0  0
  147.3616  133.2095  151.2827 C   0  0  0  0  0  0  0  0  0  0  0  0
  147.8445  132.8799  152.6947 C   0  0  0  0  0  0  0  0  0  0  0  0
  147.6386  131.7644  153.1720 O   0  0  0  0  0  0  0  0  0  0  0  0
  148.4834  133.8604  153.3511 N   0  0  0  0  0  0  0  0  0  0  0  0
  149.0030  133.7619  154.7102 C   0  0  1  0  0  0  0  0  0  0  0  0
  150.1286  132.7141  154.8268 C   0  0  0  0  0  0  0  0  0  0  0  0
  150.8684  132.9340  156.1519 C   0  0  0  0  0  0  0  0  0  0  0  0
  150.7667  134.7310  156.4989 S   0  0  0  0  0  0  0  0  0  0  0  0
  150.1300  134.9287  157.8099 O   0  0  0  0  0  0  0  0  0  0  0  0
  152.0523  135.3689  156.1778 O   0  0  0  0  0  0  0  0  0  0  0  0
  149.5631  135.1144  155.1717 C   0  0  0  0  0  0  0  0  0  0  0  0
  145.0304  130.3533  150.2454 H   0  0  0  0  0  0  0  0  0  0  0  0
  144.4360  130.2403  151.9002 H   0  0  0  0  0  0  0  0  0  0  0  0
  146.1456  130.5134  151.5969 H   0  0  0  0  0  0  0  0  0  0  0  0
  145.9433  136.1503  150.3451 H   0  0  0  0  0  0  0  0  0  0  0  0
  146.0219  136.1422  152.1075 H   0  0  0  0  0  0  0  0  0  0  0  0
  144.4945  136.4866  151.2953 H   0  0  0  0  0  0  0  0  0  0  0  0
  147.7161  132.4377  150.5984 H   0  0  0  0  0  0  0  0  0  0  0  0
  147.8258  134.1387  150.9509 H   0  0  0  0  0  0  0  0  0  0  0  0
  148.6083  134.7430  152.8768 H   0  0  0  0  0  0  0  0  0  0  0  0
  148.1973  133.4817  155.3918 H   0  0  0  0  0  0  0  0  0  0  0  0
  149.7472  131.6954  154.7480 H   0  0  0  0  0  0  0  0  0  0  0  0
  150.8344  132.8533  154.0066 H   0  0  0  0  0  0  0  0  0  0  0  0
  150.3684  132.4063  156.9644 H   0  0  0  0  0  0  0  0  0  0  0  0
  151.9098  132.6136  156.1171 H   0  0  0  0  0  0  0  0  0  0  0  0
  150.1059  135.6152  154.3692 H   0  0  0  0  0  0  0  0  0  0  0  0
  148.7932  135.7900  155.5451 H   0  0  0  0  0  0  0  0  0  0  0  0
  1  2  1  0  0  0  0
  1 19  1  0  0  0  0
  1 20  1  0  0  0  0
  1 21  1  0  0  0  0
  2  7  1  0  0  0  0
  2  3  2  0  0  0  0
  3  4  1  0  0  0  0
  4  5  1  0  0  0  0
  5  6  1  0  0  0  0
  5  7  2  0  0  0  0
  6 22  1  0  0  0  0
  6 23  1  0  0  0  0
  6 24  1  0  0  0  0
  7  8  1  0  0  0  0
  8  9  1  0  0  0  0
  8 25  1  0  0  0  0
  8 26  1  0  0  0  0
  9 10  2  0  0  0  0
  9 11  1  0  0  0  0
 11 12  1  0  0  0  0
 11 27  1  0  0  0  0
 12 18  1  0  0  0  0
 12 13  1  0  0  0  0
 12 28  1  0  0  0  0
 13 14  1  0  0  0  0
 13 29  1  0  0  0  0
 13 30  1  0  0  0  0
 14 15  1  0  0  0  0
 14 31  1  0  0  0  0
 14 32  1  0  0  0  0
 15 16  2  0  0  0  0
 15 17  2  0  0  0  0
 15 18  1  0  0  0  0
 18 33  1  0  0  0  0
 18 34  1  0  0  0  0
M  END
> <s_m_source_file>
AV-unprocessed.smi

> <i_m_source_file_index>
1778

> <i_lp_mmshare_version>
43012

> <i_f3d_flags>
0

> <s_epik_input>
W0NIM11jMW5vYyhbQ0gzXSljMVtDSDJdQyg9TylbTkhdW0NAQEhdKFtDSDJdMilbQ0gyXVtDSDJdUzIoPU8pPU8=

> <s_epik_cmdline>
J2VwaWtfcHl0aG9uJywgJy1waCcsICc3LjAnLCAnLXRuJywgJzgnLCAnLW1hJywgJzIwMCcsICctbWV0YWxfYmluZGluZycsICctaW1hZScsICc8aW5maWxlLm1hZT4nLCAnLW9tYWUnLCAnPG91dGZpbGUubWFlPic=

> <r_lp_tautomer_probability>
1

> <r_epik_Ionization_Penalty>
1.26334e-07

> <r_epik_Ionization_Penalty_Charging>
0

> <r_epik_Ionization_Penalty_Neutral>
1.26334e-07

> <r_epik_State_Penalty>
-0

> <r_epik_Charging_Adjusted_Penalty>
0

> <i_epik_Tot_Q>
0

> <i_epik_Tot_abs_Q>
0

> <r_epik_Metal_State_Penalty>
-0

> <b_epik_Metal_Only>
0

> <s_lp_Force_Field>
OPLS_2005

> <r_lp_Energy>
-2.84578

> <b_lp_Chiralities_Consistent>
1

> <s_lp_Variant>
AV-unprocessed.smi:1778-2

> <Gold.Version>
5.8.1

> <Gold.Id.Protein>
6NUR|6NUR_protein|mol2

> <Gold.PLP.Fitness>
37.3253

> <Gold.PLP.PLP>
-29.1184

> <Gold.PLP.part.hbond>
-3.0000

> <Gold.PLP.part.metal>
0.0000

> <Gold.PLP.part.buried>
-4.8752

> <Gold.PLP.part.nonpolar>
-21.8785

> <Gold.PLP.part.repulsive>
0.4823

> <Gold.PLP.ligand.clash>
0.0000

> <Gold.PLP.ligand.torsion>
0.3614

> <Gold.PLP.Chemscore.Hbond>
2.9760

> <Gold.PLP.Chemscore.CHOScore>
0.0000

> <Gold.PLP.Chemscore.Metal>
0.0000

> <Gold.Chemscore.Hbonds>
donor molecule, donor type, donor heavy atom, donor atom, acceptor molecule, acceptor atom, score
      L1  H    11    27       P1  7948  1.00
      P1  H  6896  6908       L1    16  0.74
      P1  H 10752 10763       L1    17  1.00

> <Gold.PLP.Chemscore.Internal.Correction>
0.0017

> <Gold.Rescore>
     Score         DG    S(hbond)    S(metal)    S(lipo)     H(rot)  DE(clash)    DE(int)     intcor
     17.55     -17.89       2.78        0.00      59.65       1.51       0.08       0.26       ----

> <Gold.Chemscore.Fitness>
17.5541

> <Gold.Chemscore.DG>
-17.8919

> <Gold.Chemscore.ZeroCoef>
-5.4800

> <Gold.Chemscore.Hbond>
2.7804

> <Gold.Chemscore.Metal>
0.0000

> <Gold.Chemscore.Lipo>
59.6456

> <Gold.Chemscore.Internal_Hbond>
0.0000

> <Gold.Chemscore.DEClash>
0.0815

> <Gold.Chemscore.DEInternal>
0.2563

> <Gold.Chemscore.Rot>
1.5051

> <Gold.Chemscore.Internal.Correction>
   9.000000E+99

> <Gold.Chemscore.Hbonds>
donor molecule, donor type, donor heavy atom, donor atom, acceptor molecule, acceptor atom, score
      L1  H    11    27       P1  7948  0.26
      P1  H  6896  6908       L1    16  0.74
      P1  H 10752 10763       L1    17  0.96

> <Gold.Chemscore.Hbond.Weighted>
-9.2865

> <Gold.Chemscore.Metal.Weighted>
-0.0000

> <Gold.Chemscore.Lipo.Weighted>
-6.9785

> <Gold.Chemscore.Internal_Hbond.Weighted>
0.0000

> <Gold.Chemscore.DEClash.Weighted>
0.0815

> <Gold.Chemscore.DEInternal.Weighted>
0.2563

> <Gold.Chemscore.Rot.Weighted>
3.8531

> <Gold.Chemscore.Internal.Correction.Weighted>
   9.000000E+99

> <Gold.Protein.RotatedTorsions>
[ 6907 6896 6895 6894 ] final  164.30 input  -60.11 | X-H torsion
[ 7974 7965 7964 7962 ] final   23.78 input  175.53 | X-H torsion
[ 8008 7997 7996 7995 ] final  -28.65 input   59.86 | X-H torsion
[ 10167 10162 10161 10158 ] final  171.68 input  -65.29 | X-H torsion
[ 10718 10713 10712 10709 ] final  119.39 input   66.30 | X-H torsion
[ 10763 10752 10751 10750 ] final   95.17 input  -60.55 | X-H torsion
[ 11005 11000 10999 10996 ] final -123.72 input  -57.11 | X-H torsion

> <Gold.Protein.ActiveResidues>
 VAL166  LYS551  ARG553  GLY616  TRP617  ASP618  TYR619  PRO620  LYS621  CYS622 
 ASP623  PHE694  ASN695  SER759  ASP760  ASP761  ALA762  ILE779  LEU786  VAL792 
 PHE793  MET794  SER795  GLU796  ALA797  LYS798  CYS799  TRP800  GLU811  SER814 

> <Gold.Protein.RotatedAtoms>
  151.9119  133.3563  159.3866 H   0  0  0  0  0  0  0  0  0  0  0  0  # atno 6907 bound_to 6896
  150.7056  134.4723  159.5440 H   0  0  0  0  0  0  0  0  0  0  0  0  # atno 6908 bound_to 6896
  152.2330  134.8303  160.0522 H   0  0  0  0  0  0  0  0  0  0  0  0  # atno 6909 bound_to 6896
  146.1968  139.7696  142.8791 H   0  0  0  0  0  0  0  0  0  0  0  0  # atno 7974 bound_to 7965
  154.4323  140.1839  156.1123 H   0  0  0  0  0  0  0  0  0  0  0  0  # atno 8008 bound_to 7997
  156.0208  140.3341  155.7011 H   0  0  0  0  0  0  0  0  0  0  0  0  # atno 8009 bound_to 7997
  155.5979  140.0637  157.2732 H   0  0  0  0  0  0  0  0  0  0  0  0  # atno 8010 bound_to 7997
  139.5054  144.3458  151.9972 H   0  0  0  0  0  0  0  0  0  0  0  0  # atno 10167 bound_to 10162
  157.5964  131.1057  150.7890 H   0  0  0  0  0  0  0  0  0  0  0  0  # atno 10718 bound_to 10713
  153.2501  135.4263  155.0789 H   0  0  0  0  0  0  0  0  0  0  0  0  # atno 10763 bound_to 10752
  154.8378  135.3424  154.6525 H   0  0  0  0  0  0  0  0  0  0  0  0  # atno 10764 bound_to 10752
  153.6946  135.7032  153.5137 H   0  0  0  0  0  0  0  0  0  0  0  0  # atno 10765 bound_to 10752
  140.9897  134.0556  157.3669 H   0  0  0  0  0  0  0  0  0  0  0  0  # atno 11005 bound_to 11000
  145.3616  141.0327  143.3281 LP  0  0  0  0  0  0  0  0  0  0  0  0  # atno 17320 bound_to 7965
  144.8598  139.5195  143.6818 LP  0  0  0  0  0  0  0  0  0  0  0  0  # atno 17321 bound_to 7965
  140.2896  144.3769  150.6093 LP  0  0  0  0  0  0  0  0  0  0  0  0  # atno 17342 bound_to 10162
  140.5957  143.2167  151.7169 LP  0  0  0  0  0  0  0  0  0  0  0  0  # atno 17343 bound_to 10162
  156.8300  130.5012  149.5333 LP  0  0  0  0  0  0  0  0  0  0  0  0  # atno 17370 bound_to 10713
  156.1028  130.5982  150.9922 LP  0  0  0  0  0  0  0  0  0  0  0  0  # atno 17371 bound_to 10713
  139.8986  135.0155  156.7159 LP  0  0  0  0  0  0  0  0  0  0  0  0  # atno 17394 bound_to 11000
  140.7059  133.9265  155.8053 LP  0  0  0  0  0  0  0  0  0  0  0  0  # atno 17395 bound_to 11000

$$$$
