AV-unprocessed.smi:37|AV-procd|sdf|312|dock5
  -GOLD-   2262016133D 1   1.00000     0.00000
 Structure written by MMmdl.
 44 45  0  0  0  0  0  0  0  0  1 V2000
  148.5216  132.3449  153.2339 C   0  0  0  0  0  0  0  0  0  0  0  0
  148.7795  133.6356  154.0232 C   0  0  0  0  0  0  0  0  0  0  0  0
  147.9028  133.7353  155.2697 C   0  0  0  0  0  0  0  0  0  0  0  0
  147.8149  132.8029  156.0686 O   0  0  0  0  0  0  0  0  0  0  0  0
  147.2819  134.9208  155.3721 O   0  0  0  0  0  0  0  0  0  0  0  0
  146.5611  135.2356  156.5514 C   0  0  0  0  0  0  0  0  0  0  0  0
  147.4816  135.0713  157.7671 C   0  0  1  0  0  0  0  0  0  0  0  0
  148.8181  135.3421  157.3484 O   0  0  0  0  0  0  0  0  0  0  0  0
  149.3776  136.3134  158.1725 C   0  0  1  0  0  0  0  0  0  0  0  0
  150.4236  137.1123  157.4233 N   0  0  0  0  0  0  0  0  0  0  0  0
  150.0754  137.7331  156.2320 C   0  0  0  0  0  0  0  0  0  0  0  0
  150.9384  138.4834  155.5073 C   0  0  0  0  0  0  0  0  0  0  0  0
  150.5259  139.0454  154.3584 F   0  0  0  0  0  0  0  0  0  0  0  0
  152.3101  138.6873  155.9621 C   0  0  0  0  0  0  0  0  0  0  0  0
  153.1657  139.3458  155.3743 O   0  0  0  0  0  0  0  0  0  0  0  0
  152.6144  138.0603  157.1734 N   0  0  0  0  0  0  0  0  0  0  0  0
  151.7337  137.2877  157.9328 C   0  0  0  0  0  0  0  0  0  0  0  0
  152.1166  136.8024  158.9962 O   0  0  0  0  0  0  0  0  0  0  0  0
  148.2307  137.1285  158.7874 C   0  0  1  0  0  0  0  0  0  0  0  0
  147.5257  138.6107  157.6509 Br  0  0  0  0  0  0  0  0  0  0  0  0
  147.1590  136.0557  158.9074 C   0  0  2  0  0  0  0  0  0  0  0  0
  147.2757  135.3652  160.1468 O   0  0  0  0  0  0  0  0  0  0  0  0
  147.2884  136.0462  161.3081 C   0  0  0  0  0  0  0  0  0  0  0  0
  147.3532  137.2698  161.4267 O   0  0  0  0  0  0  0  0  0  0  0  0
  147.2327  135.1307  162.5290 C   0  0  0  0  0  0  0  0  0  0  0  0
  146.0307  134.1774  162.4851 C   0  0  0  0  0  0  0  0  0  0  0  0
  153.5500  138.1808  157.5331 H   0  0  0  0  0  0  0  0  0  0  0  0
  149.1975  132.2750  152.3817 H   0  0  0  0  0  0  0  0  0  0  0  0
  147.5020  132.3085  152.8487 H   0  0  0  0  0  0  0  0  0  0  0  0
  148.6794  131.4619  153.8541 H   0  0  0  0  0  0  0  0  0  0  0  0
  149.8260  133.6809  154.3254 H   0  0  0  0  0  0  0  0  0  0  0  0
  148.5947  134.5042  153.3908 H   0  0  0  0  0  0  0  0  0  0  0  0
  146.2087  136.2660  156.4894 H   0  0  0  0  0  0  0  0  0  0  0  0
  145.6826  134.5962  156.6452 H   0  0  0  0  0  0  0  0  0  0  0  0
  147.4306  134.0385  158.1153 H   0  0  0  0  0  0  0  0  0  0  0  0
  149.9268  135.7701  158.9439 H   0  0  0  0  0  0  0  0  0  0  0  0
  149.0720  137.6101  155.8500 H   0  0  0  0  0  0  0  0  0  0  0  0
  148.5327  137.5614  159.7415 H   0  0  0  0  0  0  0  0  0  0  0  0
  146.1540  136.4693  158.8076 H   0  0  0  0  0  0  0  0  0  0  0  0
  148.1607  134.5615  162.5854 H   0  0  0  0  0  0  0  0  0  0  0  0
  147.1835  135.7456  163.4281 H   0  0  0  0  0  0  0  0  0  0  0  0
  145.9927  133.5670  163.3874 H   0  0  0  0  0  0  0  0  0  0  0  0
  146.0871  133.5004  161.6320 H   0  0  0  0  0  0  0  0  0  0  0  0
  145.0909  134.7268  162.4181 H   0  0  0  0  0  0  0  0  0  0  0  0
  1  2  1  0  0  0  0
  1 28  1  0  0  0  0
  1 29  1  0  0  0  0
  1 30  1  0  0  0  0
  2  3  1  0  0  0  0
  2 31  1  0  0  0  0
  2 32  1  0  0  0  0
  3  4  2  0  0  0  0
  3  5  1  0  0  0  0
  5  6  1  0  0  0  0
  6  7  1  0  0  0  0
  6 33  1  0  0  0  0
  6 34  1  0  0  0  0
  7 21  1  0  0  0  0
  7  8  1  0  0  0  0
  7 35  1  0  0  0  0
  8  9  1  0  0  0  0
  9 10  1  0  0  0  0
  9 19  1  0  0  0  0
  9 36  1  0  0  0  0
 10 17  1  0  0  0  0
 10 11  1  0  0  0  0
 11 12  2  0  0  0  0
 11 37  1  0  0  0  0
 12 13  1  0  0  0  0
 12 14  1  0  0  0  0
 14 15  2  0  0  0  0
 14 16  1  0  0  0  0
 16 27  1  0  0  0  0
 16 17  1  0  0  0  0
 17 18  2  0  0  0  0
 19 20  1  0  0  0  0
 19 21  1  0  0  0  0
 19 38  1  0  0  0  0
 21 22  1  0  0  0  0
 21 39  1  0  0  0  0
 22 23  1  0  0  0  0
 23 24  2  0  0  0  0
 23 25  1  0  0  0  0
 25 26  1  0  0  0  0
 25 40  1  0  0  0  0
 25 41  1  0  0  0  0
 26 42  1  0  0  0  0
 26 43  1  0  0  0  0
 26 44  1  0  0  0  0
M  END
> <s_m_source_file>
AV-unprocessed.smi

> <i_m_source_file_index>
37

> <i_lp_mmshare_version>
43012

> <i_f3d_flags>
0

> <s_epik_input>
W0NIM11bQ0gyXUMoPU8pT1tDSDJdW0NAQEhdMU9bQ0BASF0objJbY0hdYyhGKWMoPU8pW25IXWMyPU8pW0NAQEhdKEJyKVtDQEhdMU9DKD1PKVtDSDJdW0NIM10=

> <s_epik_cmdline>
J2VwaWtfcHl0aG9uJywgJy1waCcsICc3LjAnLCAnLXRuJywgJzgnLCAnLW1hJywgJzIwMCcsICctbWV0YWxfYmluZGluZycsICctaW1hZScsICc8aW5maWxlLm1hZT4nLCAnLW9tYWUnLCAnPG91dGZpbGUubWFlPic=

> <r_lp_tautomer_probability>
0.999537

> <r_epik_Ionization_Penalty>
0.104106

> <r_epik_Ionization_Penalty_Charging>
0.104106

> <r_epik_Ionization_Penalty_Neutral>
3.94675e-16

> <r_epik_State_Penalty>
0.0940182

> <r_epik_Charging_Adjusted_Penalty>
0.198124

> <i_epik_Tot_Q>
0

> <i_epik_Tot_abs_Q>
0

> <r_epik_Metal_State_Penalty>
3.05314

> <b_epik_Metal_Only>
0

> <s_epik_Chemistry_Notes>
This compound has an ester and may undergo hydrolysis at high or low pH. This compound contains an acetal/aminal-like group ( X-CH(R)-Y where X, Y are N, S, or O) that may be acid/base labile, releasing an aldehyde.

> <s_lp_Force_Field>
OPLS_2005

> <r_lp_Energy>
23.0288

> <b_lp_Chiralities_Consistent>
1

> <s_lp_Variant>
AV-unprocessed.smi:37-10

> <Gold.Version>
5.8.1

> <Gold.Id.Protein>
6NUR|6NUR_protein|mol2

> <Gold.PLP.Fitness>
43.1505

> <Gold.PLP.PLP>
-33.5735

> <Gold.PLP.part.hbond>
-3.9578

> <Gold.PLP.part.metal>
0.0000

> <Gold.PLP.part.buried>
-4.9523

> <Gold.PLP.part.nonpolar>
-24.7339

> <Gold.PLP.part.repulsive>
0.1700

> <Gold.PLP.ligand.clash>
0.0000

> <Gold.PLP.ligand.torsion>
0.8337

> <Gold.PLP.Chemscore.Hbond>
3.6880

> <Gold.PLP.Chemscore.CHOScore>
0.0000

> <Gold.PLP.Chemscore.Metal>
0.0000

> <Gold.Chemscore.Hbonds>
donor molecule, donor type, donor heavy atom, donor atom, acceptor molecule, acceptor atom, score
      P1  H  6896  6908       L1    18  0.88
      P1  H  6931  6943       L1    24  0.85
      P1  H  6934  6947       L1    24  0.93
      P1  H  7997  8009       L1    15  1.00

> <Gold.PLP.Chemscore.Internal.Correction>
0.1804

> <Gold.Rescore>
     Score         DG    S(hbond)    S(metal)    S(lipo)     H(rot)  DE(clash)    DE(int)     intcor
      9.08     -14.55       3.66        0.00      45.94       3.33       0.02       5.45       ----

> <Gold.Chemscore.Fitness>
9.0822

> <Gold.Chemscore.DG>
-14.5540

> <Gold.Chemscore.ZeroCoef>
-5.4800

> <Gold.Chemscore.Hbond>
3.6599

> <Gold.Chemscore.Metal>
0.0000

> <Gold.Chemscore.Lipo>
45.9440

> <Gold.Chemscore.Internal_Hbond>
0.0000

> <Gold.Chemscore.DEClash>
0.0199

> <Gold.Chemscore.DEInternal>
5.4518

> <Gold.Chemscore.Rot>
3.3303

> <Gold.Chemscore.Internal.Correction>
   9.000000E+99

> <Gold.Chemscore.Hbonds>
donor molecule, donor type, donor heavy atom, donor atom, acceptor molecule, acceptor atom, score
      P1  H  6896  6908       L1    18  0.84
      P1  H  6931  6943       L1    24  0.81
      P1  H  6934  6947       L1    24  0.91
      P1  H  7997  8009       L1    15  0.99

> <Gold.Chemscore.Hbond.Weighted>
-12.2241

> <Gold.Chemscore.Metal.Weighted>
-0.0000

> <Gold.Chemscore.Lipo.Weighted>
-5.3754

> <Gold.Chemscore.Internal_Hbond.Weighted>
0.0000

> <Gold.Chemscore.DEClash.Weighted>
0.0199

> <Gold.Chemscore.DEInternal.Weighted>
5.4518

> <Gold.Chemscore.Rot.Weighted>
8.5256

> <Gold.Chemscore.Internal.Correction.Weighted>
   9.000000E+99

> <Gold.Protein.RotatedTorsions>
[ 6907 6896 6895 6894 ] final -104.41 input  -60.11 | X-H torsion
[ 7974 7965 7964 7962 ] final  176.85 input  175.53 | X-H torsion
[ 8008 7997 7996 7995 ] final -142.96 input   59.86 | X-H torsion
[ 10167 10162 10161 10158 ] final  151.45 input  -65.29 | X-H torsion
[ 10718 10713 10712 10709 ] final -130.77 input   66.30 | X-H torsion
[ 10763 10752 10751 10750 ] final  -38.96 input  -60.55 | X-H torsion
[ 11005 11000 10999 10996 ] final -102.94 input  -57.11 | X-H torsion

> <Gold.Protein.ActiveResidues>
 VAL166  LYS551  ARG553  GLY616  TRP617  ASP618  TYR619  PRO620  LYS621  CYS622 
 ASP623  PHE694  ASN695  SER759  ASP760  ASP761  ALA762  ILE779  LEU786  VAL792 
 PHE793  MET794  SER795  GLU796  ALA797  LYS798  CYS799  TRP800  GLU811  SER814 

> <Gold.Protein.RotatedAtoms>
  150.7286  134.0281  159.3723 H   0  0  0  0  0  0  0  0  0  0  0  0  # atno 6907 bound_to 6896
  151.8249  135.0638  160.0439 H   0  0  0  0  0  0  0  0  0  0  0  0  # atno 6908 bound_to 6896
  152.2976  133.5587  159.5634 H   0  0  0  0  0  0  0  0  0  0  0  0  # atno 6909 bound_to 6896
  144.7178  140.0159  143.6440 H   0  0  0  0  0  0  0  0  0  0  0  0  # atno 7974 bound_to 7965
  155.5028  140.0577  157.2936 H   0  0  0  0  0  0  0  0  0  0  0  0  # atno 8008 bound_to 7997
  154.4581  140.1983  156.0272 H   0  0  0  0  0  0  0  0  0  0  0  0  # atno 8009 bound_to 7997
  156.0837  140.3243  155.7731 H   0  0  0  0  0  0  0  0  0  0  0  0  # atno 8010 bound_to 7997
  139.4840  144.5440  151.7516 H   0  0  0  0  0  0  0  0  0  0  0  0  # atno 10167 bound_to 10162
  156.2178  130.6959  151.0722 H   0  0  0  0  0  0  0  0  0  0  0  0  # atno 10718 bound_to 10713
  153.9215  135.6782  153.4747 H   0  0  0  0  0  0  0  0  0  0  0  0  # atno 10763 bound_to 10752
  153.1026  135.4821  154.8891 H   0  0  0  0  0  0  0  0  0  0  0  0  # atno 10764 bound_to 10752
  154.7475  135.3176  154.8574 H   0  0  0  0  0  0  0  0  0  0  0  0  # atno 10765 bound_to 10752
  141.1168  133.8599  157.1423 H   0  0  0  0  0  0  0  0  0  0  0  0  # atno 11005 bound_to 11000
  146.0221  139.3260  143.0807 LP  0  0  0  0  0  0  0  0  0  0  0  0  # atno 17320 bound_to 7965
  145.8556  140.9504  143.0727 LP  0  0  0  0  0  0  0  0  0  0  0  0  # atno 17321 bound_to 7965
  140.4983  144.1207  150.5965 LP  0  0  0  0  0  0  0  0  0  0  0  0  # atno 17342 bound_to 10162
  140.4091  143.2665  151.9854 LP  0  0  0  0  0  0  0  0  0  0  0  0  # atno 17343 bound_to 10162
  157.7072  131.0751  150.6627 LP  0  0  0  0  0  0  0  0  0  0  0  0  # atno 17370 bound_to 10713
  156.6689  130.4533  149.5663 LP  0  0  0  0  0  0  0  0  0  0  0  0  # atno 17371 bound_to 10713
  140.0095  134.9994  157.0365 LP  0  0  0  0  0  0  0  0  0  0  0  0  # atno 17394 bound_to 11000
  140.4624  134.1471  155.7193 LP  0  0  0  0  0  0  0  0  0  0  0  0  # atno 17395 bound_to 11000

$$$$
