AV-unprocessed.smi:3181|AV-procd|sdf|12135|dock10
  -GOLD-   2272017573D 1   1.00000     0.00000
 Structure written by MMmdl.
 42 43  0  0  0  0  0  0  0  0  2 V2000
  149.0370  141.6004  154.3454 C   0  0  0  0  0  0  0  0  0  0  0  0
  149.9545  141.2757  155.5358 C   0  0  2  0  0  0  0  0  0  0  0  0
  149.8897  139.7937  155.9577 C   0  0  0  0  0  0  0  0  0  0  0  0
  150.9088  138.9786  155.3226 N   0  0  0  0  0  0  0  0  0  0  0  0
  150.9543  137.6653  155.0917 C   0  0  0  0  0  0  0  0  0  0  0  0
  152.0641  137.2671  154.4863 N   0  0  0  0  0  0  0  0  0  0  0  0
  152.7065  138.4677  154.3729 C   0  0  0  0  0  0  0  0  0  0  0  0
  152.0573  139.5254  154.8605 N   0  0  0  0  0  0  0  0  0  0  0  0
  149.6027  142.1372  156.6874 N   0  3  0  0  0  0  0  0  0  0  0  0
  150.7273  142.5249  157.5680 C   0  0  2  0  0  0  0  0  0  0  0  0
  151.2699  141.2846  158.2997 C   0  0  0  0  0  0  0  0  0  0  0  0
  152.4099  141.6470  159.2646 C   0  0  0  0  0  0  0  0  0  0  0  0
  151.9708  142.7230  160.2770 C   0  0  1  0  0  0  0  0  0  0  0  0
  153.0758  143.0301  161.3009 C   0  0  0  0  0  0  0  0  0  0  0  0
  151.4235  143.9866  159.5650 C   0  0  1  0  0  0  0  0  0  0  0  0
  152.5048  144.8400  158.8716 C   0  0  0  0  0  0  0  0  0  0  0  0
  150.2918  143.5995  158.5896 C   0  0  0  0  0  0  0  0  0  0  0  0
  149.3215  141.0387  153.4554 H   0  0  0  0  0  0  0  0  0  0  0  0
  149.0905  142.6588  154.0881 H   0  0  0  0  0  0  0  0  0  0  0  0
  147.9964  141.3647  154.5699 H   0  0  0  0  0  0  0  0  0  0  0  0
  150.9785  141.4897  155.2262 H   0  0  0  0  0  0  0  0  0  0  0  0
  150.0077  139.7026  157.0385 H   0  0  0  0  0  0  0  0  0  0  0  0
  148.9132  139.3725  155.7137 H   0  0  0  0  0  0  0  0  0  0  0  0
  150.1600  136.9874  155.3681 H   0  0  0  0  0  0  0  0  0  0  0  0
  153.6816  138.5651  153.9184 H   0  0  0  0  0  0  0  0  0  0  0  0
  149.1606  142.9780  156.3444 H   0  0  0  0  0  0  0  0  0  0  0  0
  151.5256  142.9175  156.9363 H   0  0  0  0  0  0  0  0  0  0  0  0
  150.4657  140.8035  158.8587 H   0  0  0  0  0  0  0  0  0  0  0  0
  151.6246  140.5488  157.5770 H   0  0  0  0  0  0  0  0  0  0  0  0
  152.7311  140.7499  159.7950 H   0  0  0  0  0  0  0  0  0  0  0  0
  153.2770  141.9910  158.6997 H   0  0  0  0  0  0  0  0  0  0  0  0
  151.1406  142.3010  160.8459 H   0  0  0  0  0  0  0  0  0  0  0  0
  153.9889  143.3795  160.8189 H   0  0  0  0  0  0  0  0  0  0  0  0
  153.3322  142.1394  161.8750 H   0  0  0  0  0  0  0  0  0  0  0  0
  152.7551  143.7945  162.0091 H   0  0  0  0  0  0  0  0  0  0  0  0
  150.9768  144.6235  160.3299 H   0  0  0  0  0  0  0  0  0  0  0  0
  153.0623  144.2746  158.1256 H   0  0  0  0  0  0  0  0  0  0  0  0
  153.2225  145.2359  159.5898 H   0  0  0  0  0  0  0  0  0  0  0  0
  152.0591  145.6974  158.3668 H   0  0  0  0  0  0  0  0  0  0  0  0
  149.9298  144.4932  158.0806 H   0  0  0  0  0  0  0  0  0  0  0  0
  149.4442  143.2223  159.1643 H   0  0  0  0  0  0  0  0  0  0  0  0
  148.9304  141.6325  157.2472 H   0  0  0  0  0  0  0  0  0  0  0  0
  1  2  1  0  0  0  0
  1 18  1  0  0  0  0
  1 19  1  0  0  0  0
  1 20  1  0  0  0  0
  2  3  1  0  0  0  0
  2  9  1  0  0  0  0
  2 21  1  0  0  0  0
  3  4  1  0  0  0  0
  3 22  1  0  0  0  0
  3 23  1  0  0  0  0
  4  8  1  0  0  0  0
  4  5  1  0  0  0  0
  5  6  2  0  0  0  0
  5 24  1  0  0  0  0
  6  7  1  0  0  0  0
  7  8  2  0  0  0  0
  7 25  1  0  0  0  0
  9 10  1  0  0  0  0
  9 26  1  0  0  0  0
  9 42  1  0  0  0  0
 10 17  1  0  0  0  0
 10 11  1  0  0  0  0
 10 27  1  0  0  0  0
 11 12  1  0  0  0  0
 11 28  1  0  0  0  0
 11 29  1  0  0  0  0
 12 13  1  0  0  0  0
 12 30  1  0  0  0  0
 12 31  1  0  0  0  0
 13 14  1  0  0  0  0
 13 15  1  0  0  0  0
 13 32  1  0  0  0  0
 14 33  1  0  0  0  0
 14 34  1  0  0  0  0
 14 35  1  0  0  0  0
 15 16  1  0  0  0  0
 15 17  1  0  0  0  0
 15 36  1  0  0  0  0
 16 37  1  0  0  0  0
 16 38  1  0  0  0  0
 16 39  1  0  0  0  0
 17 40  1  0  0  0  0
 17 41  1  0  0  0  0
M  CHG  1   9   1
M  END
> <s_m_source_file>
AV-unprocessed.smi

> <i_m_source_file_index>
3181

> <i_lp_mmshare_version>
43012

> <i_f3d_flags>
0

> <s_epik_input>
bjFbY0hdbltjSF1uMVtDSDJdW0NAQEhdKFtDSDNdKVtOSF1bQ0BASF0yW0NIMl1bQ0gyXVtDQEBIXShbQ0gzXSlbQ0BASF0oW0NIM10pW0NIMl0y

> <s_epik_cmdline>
J2VwaWtfcHl0aG9uJywgJy1waCcsICc3LjAnLCAnLXRuJywgJzgnLCAnLW1hJywgJzIwMCcsICctbWV0YWxfYmluZGluZycsICctaW1hZScsICc8aW5maWxlLm1hZT4nLCAnLW9tYWUnLCAnPG91dGZpbGUubWFlPic=

> <r_lp_tautomer_probability>
1

> <r_epik_Ionization_Penalty>
0.000617007

> <r_epik_Ionization_Penalty_Charging>
0.000616215

> <r_epik_Ionization_Penalty_Neutral>
7.92544e-07

> <r_epik_State_Penalty>
0.000388807

> <r_epik_Charging_Adjusted_Penalty>
0.00100502

> <i_epik_Tot_Q>
1

> <i_epik_Tot_abs_Q>
1

> <r_epik_Metal_State_Penalty>
-0

> <b_epik_Metal_Only>
0

> <s_lp_Force_Field>
OPLS_2005

> <r_lp_Energy>
21.1585

> <b_lp_Chiralities_Consistent>
1

> <s_lp_Variant>
AV-unprocessed.smi:3181-1

> <Gold.Version>
5.8.1

> <Gold.Id.Protein>
6NUR|6NUR_protein|mol2

> <Gold.PLP.Fitness>
47.8623

> <Gold.PLP.PLP>
-38.8905

> <Gold.PLP.part.hbond>
-3.0000

> <Gold.PLP.part.metal>
0.0000

> <Gold.PLP.part.buried>
-5.6858

> <Gold.PLP.part.nonpolar>
-31.3993

> <Gold.PLP.part.repulsive>
0.1902

> <Gold.PLP.ligand.clash>
0.0000

> <Gold.PLP.ligand.torsion>
1.2153

> <Gold.PLP.Chemscore.Hbond>
3.7920

> <Gold.PLP.Chemscore.CHOScore>
0.0000

> <Gold.PLP.Chemscore.Metal>
0.0000

> <Gold.Chemscore.Hbonds>
donor molecule, donor type, donor heavy atom, donor atom, acceptor molecule, acceptor atom, score
      L1  H     9    26       P1  8028  2.00
      P1  H  7989  7998       L1     8  0.90
      P1  H 10752 10765       L1     6  0.91

> <Gold.PLP.Chemscore.Internal.Correction>
0.0265

> <Gold.Rescore>
     Score         DG    S(hbond)    S(metal)    S(lipo)     H(rot)  DE(clash)    DE(int)     intcor
     18.85     -20.26       2.68        0.00      96.13       2.11       0.31       1.11       ----

> <Gold.Chemscore.Fitness>
18.8469

> <Gold.Chemscore.DG>
-20.2617

> <Gold.Chemscore.ZeroCoef>
-5.4800

> <Gold.Chemscore.Hbond>
2.6752

> <Gold.Chemscore.Metal>
0.0000

> <Gold.Chemscore.Lipo>
96.1263

> <Gold.Chemscore.Internal_Hbond>
0.0000

> <Gold.Chemscore.DEClash>
0.3082

> <Gold.Chemscore.DEInternal>
1.1066

> <Gold.Chemscore.Rot>
2.1095

> <Gold.Chemscore.Internal.Correction>
   9.000000E+99

> <Gold.Chemscore.Hbonds>
donor molecule, donor type, donor heavy atom, donor atom, acceptor molecule, acceptor atom, score
      L1  H     9    26       P1  8028  1.00
      P1  H  7989  7998       L1     8  0.56
      P1  H 10752 10765       L1     6  0.87

> <Gold.Chemscore.Hbond.Weighted>
-8.9352

> <Gold.Chemscore.Metal.Weighted>
-0.0000

> <Gold.Chemscore.Lipo.Weighted>
-11.2468

> <Gold.Chemscore.Internal_Hbond.Weighted>
0.0000

> <Gold.Chemscore.DEClash.Weighted>
0.3082

> <Gold.Chemscore.DEInternal.Weighted>
1.1066

> <Gold.Chemscore.Rot.Weighted>
5.4003

> <Gold.Chemscore.Internal.Correction.Weighted>
   9.000000E+99

> <Gold.Protein.RotatedTorsions>
[ 6907 6896 6895 6894 ] final   15.89 input  -60.11 | X-H torsion
[ 7974 7965 7964 7962 ] final -150.79 input  175.53 | X-H torsion
[ 8008 7997 7996 7995 ] final   96.10 input   59.86 | X-H torsion
[ 10167 10162 10161 10158 ] final  147.08 input  -65.29 | X-H torsion
[ 10718 10713 10712 10709 ] final  -88.11 input   66.30 | X-H torsion
[ 10763 10752 10751 10750 ] final  163.67 input  -60.55 | X-H torsion
[ 11005 11000 10999 10996 ] final  174.18 input  -57.11 | X-H torsion

> <Gold.Protein.ActiveResidues>
 VAL166  LYS551  ARG553  GLY616  TRP617  ASP618  TYR619  PRO620  LYS621  CYS622 
 ASP623  PHE694  ASN695  SER759  ASP760  ASP761  ALA762  ILE779  LEU786  VAL792 
 PHE793  MET794  SER795  GLU796  ALA797  LYS798  CYS799  TRP800  GLU811  SER814 

> <Gold.Protein.RotatedAtoms>
  151.8253  135.0639  160.0429 H   0  0  0  0  0  0  0  0  0  0  0  0  # atno 6907 bound_to 6896
  152.2921  133.5567  159.5572 H   0  0  0  0  0  0  0  0  0  0  0  0  # atno 6908 bound_to 6896
  150.7235  134.0330  159.3782 H   0  0  0  0  0  0  0  0  0  0  0  0  # atno 6909 bound_to 6896
  144.7887  140.4884  143.5788 H   0  0  0  0  0  0  0  0  0  0  0  0  # atno 7974 bound_to 7965
  156.0760  140.3277  155.7634 H   0  0  0  0  0  0  0  0  0  0  0  0  # atno 8008 bound_to 7997
  155.5229  140.0586  157.2921 H   0  0  0  0  0  0  0  0  0  0  0  0  # atno 8009 bound_to 7997
  154.4556  140.1941  156.0408 H   0  0  0  0  0  0  0  0  0  0  0  0  # atno 8010 bound_to 7997
  139.4896  144.5782  151.6924 H   0  0  0  0  0  0  0  0  0  0  0  0  # atno 10167 bound_to 10162
  155.9984  130.4824  150.4969 H   0  0  0  0  0  0  0  0  0  0  0  0  # atno 10718 bound_to 10713
  154.2972  135.2760  155.2628 H   0  0  0  0  0  0  0  0  0  0  0  0  # atno 10763 bound_to 10752
  154.5080  135.5790  153.6586 H   0  0  0  0  0  0  0  0  0  0  0  0  # atno 10764 bound_to 10752
  152.9905  135.6174  154.3140 H   0  0  0  0  0  0  0  0  0  0  0  0  # atno 10765 bound_to 10752
  140.3485  134.7215  157.4251 H   0  0  0  0  0  0  0  0  0  0  0  0  # atno 11005 bound_to 11000
  145.5853  139.1491  143.3212 LP  0  0  0  0  0  0  0  0  0  0  0  0  # atno 17320 bound_to 7965
  146.2130  140.5981  142.9051 LP  0  0  0  0  0  0  0  0  0  0  0  0  # atno 17321 bound_to 7965
  140.5382  144.0621  150.6078 LP  0  0  0  0  0  0  0  0  0  0  0  0  # atno 17342 bound_to 10162
  140.3635  143.2895  152.0358 LP  0  0  0  0  0  0  0  0  0  0  0  0  # atno 17343 bound_to 10162
  157.2958  131.0635  151.2102 LP  0  0  0  0  0  0  0  0  0  0  0  0  # atno 17370 bound_to 10713
  157.3099  130.6884  149.6210 LP  0  0  0  0  0  0  0  0  0  0  0  0  # atno 17371 bound_to 10713
  140.0722  134.5846  155.8629 LP  0  0  0  0  0  0  0  0  0  0  0  0  # atno 17394 bound_to 11000
  141.2019  133.6621  156.5975 LP  0  0  0  0  0  0  0  0  0  0  0  0  # atno 17395 bound_to 11000

$$$$
