AV-unprocessed.smi:169|AV-procd|sdf|1404|dock9
  -GOLD-   2262019153D 1   1.00000     0.00000
 Structure written by MMmdl.
 56 60  0  0  0  0  0  0  0  0  2 V2000
  153.0303  142.2783  160.2639 C   0  0  0  0  0  0  0  0  0  0  0  0
  151.6242  142.6396  159.7521 C   0  0  0  0  0  0  0  0  0  0  0  0
  151.1250  141.7509  158.6701 N   0  3  2  0  0  0  0  0  0  0  0  0
  151.3807  140.3088  158.9144 C   0  0  0  0  0  0  0  0  0  0  0  0
  150.1847  139.4435  158.4740 C   0  0  0  0  0  0  0  0  0  0  0  0
  149.8530  139.4634  156.9668 C   0  0  2  0  0  0  0  0  0  0  0  0
  151.0047  138.9724  156.0828 C   0  0  0  0  0  0  0  0  0  0  0  0
  151.7340  140.2487  155.6471 C   0  0  0  0  0  0  0  0  0  0  0  0
  150.8597  141.4192  156.1424 C   0  0  2  0  0  0  0  0  0  0  0  0
  151.4968  142.2191  157.3063 C   0  0  0  0  0  0  0  0  0  0  0  0
  149.5760  140.8198  156.5000 N   0  0  0  0  0  0  0  0  0  0  0  0
  148.5580  141.0669  155.6358 C   0  0  0  0  0  0  0  0  0  0  0  0
  148.6364  140.6702  154.3382 N   0  0  0  0  0  0  0  0  0  0  0  0
  147.6335  140.9266  153.4927 C   0  0  0  0  0  0  0  0  0  0  0  0
  146.4815  141.5562  153.7316 N   0  0  0  0  0  0  0  0  0  0  0  0
  146.3969  141.9572  155.0323 C   0  0  0  0  0  0  0  0  0  0  0  0
  147.3782  141.7503  156.0416 C   0  0  0  0  0  0  0  0  0  0  0  0
  146.9368  142.2777  157.2489 N   0  0  0  0  0  0  0  0  0  0  0  0
  145.7635  142.7749  156.9669 C   0  0  0  0  0  0  0  0  0  0  0  0
  145.3669  142.6422  155.6543 N   0  0  0  0  0  0  0  0  0  0  0  0
  144.1161  143.0991  155.0646 C   0  0  0  0  0  0  0  0  0  0  0  0
  143.8823  144.6278  155.1383 C   0  0  0  0  0  0  0  0  0  0  0  0
  144.5900  145.2762  153.9405 C   0  0  0  0  0  0  0  0  0  0  0  0
  143.9941  144.8879  152.7191 O   0  0  0  0  0  0  0  0  0  0  0  0
  142.4259  145.0724  155.3564 C   0  0  0  0  0  0  0  0  0  0  0  0
  142.6577  145.3224  156.7586 O   0  0  0  0  0  0  0  0  0  0  0  0
  144.0774  145.3190  156.4995 C   0  0  0  0  0  0  0  0  0  0  0  0
  153.3166  142.9399  161.0818 H   0  0  0  0  0  0  0  0  0  0  0  0
  153.7873  142.3837  159.4875 H   0  0  0  0  0  0  0  0  0  0  0  0
  153.0755  141.2571  160.6429 H   0  0  0  0  0  0  0  0  0  0  0  0
  150.9173  142.6064  160.5823 H   0  0  0  0  0  0  0  0  0  0  0  0
  151.6173  143.6712  159.3978 H   0  0  0  0  0  0  0  0  0  0  0  0
  152.3109  139.9929  158.4415 H   0  0  0  0  0  0  0  0  0  0  0  0
  151.5193  140.1410  159.9833 H   0  0  0  0  0  0  0  0  0  0  0  0
  150.3723  138.4122  158.7745 H   0  0  0  0  0  0  0  0  0  0  0  0
  149.3001  139.7533  159.0322 H   0  0  0  0  0  0  0  0  0  0  0  0
  148.9929  138.8074  156.8300 H   0  0  0  0  0  0  0  0  0  0  0  0
  151.6585  138.2635  156.5919 H   0  0  0  0  0  0  0  0  0  0  0  0
  150.6018  138.4688  155.2029 H   0  0  0  0  0  0  0  0  0  0  0  0
  152.7472  140.2865  156.0476 H   0  0  0  0  0  0  0  0  0  0  0  0
  151.8208  140.2708  154.5602 H   0  0  0  0  0  0  0  0  0  0  0  0
  150.7483  142.1060  155.3015 H   0  0  0  0  0  0  0  0  0  0  0  0
  151.1502  143.2500  157.2237 H   0  0  0  0  0  0  0  0  0  0  0  0
  152.5793  142.2607  157.1869 H   0  0  0  0  0  0  0  0  0  0  0  0
  147.7752  140.5796  152.4797 H   0  0  0  0  0  0  0  0  0  0  0  0
  145.1520  143.2557  157.7163 H   0  0  0  0  0  0  0  0  0  0  0  0
  144.0998  142.7527  154.0308 H   0  0  0  0  0  0  0  0  0  0  0  0
  143.3035  142.5705  155.5645 H   0  0  0  0  0  0  0  0  0  0  0  0
  144.5723  146.3642  154.0145 H   0  0  0  0  0  0  0  0  0  0  0  0
  145.6404  144.9858  153.9036 H   0  0  0  0  0  0  0  0  0  0  0  0
  143.5184  144.0832  152.8575 H   0  0  0  0  0  0  0  0  0  0  0  0
  142.1565  145.9876  154.8263 H   0  0  0  0  0  0  0  0  0  0  0  0
  141.6813  144.2984  155.1773 H   0  0  0  0  0  0  0  0  0  0  0  0
  144.6435  144.7448  157.2311 H   0  0  0  0  0  0  0  0  0  0  0  0
  144.4734  146.3333  156.4240 H   0  0  0  0  0  0  0  0  0  0  0  0
  150.1200  141.8437  158.7139 H   0  0  0  0  0  0  0  0  0  0  0  0
  1  2  1  0  0  0  0
  1 28  1  0  0  0  0
  1 29  1  0  0  0  0
  1 30  1  0  0  0  0
  2  3  1  0  0  0  0
  2 31  1  0  0  0  0
  2 32  1  0  0  0  0
  3 10  1  0  0  0  0
  3  4  1  0  0  0  0
  3 56  1  0  0  0  0
  4  5  1  0  0  0  0
  4 33  1  0  0  0  0
  4 34  1  0  0  0  0
  5  6  1  0  0  0  0
  5 35  1  0  0  0  0
  5 36  1  0  0  0  0
  6 11  1  0  0  0  0
  6  7  1  0  0  0  0
  6 37  1  0  0  0  0
  7  8  1  0  0  0  0
  7 38  1  0  0  0  0
  7 39  1  0  0  0  0
  8  9  1  0  0  0  0
  8 40  1  0  0  0  0
  8 41  1  0  0  0  0
  9 10  1  0  0  0  0
  9 11  1  0  0  0  0
  9 42  1  0  0  0  0
 10 43  1  0  0  0  0
 10 44  1  0  0  0  0
 11 12  1  0  0  0  0
 12 17  1  0  0  0  0
 12 13  2  0  0  0  0
 13 14  1  0  0  0  0
 14 15  2  0  0  0  0
 14 45  1  0  0  0  0
 15 16  1  0  0  0  0
 16 20  1  0  0  0  0
 16 17  2  0  0  0  0
 17 18  1  0  0  0  0
 18 19  2  0  0  0  0
 19 20  1  0  0  0  0
 19 46  1  0  0  0  0
 20 21  1  0  0  0  0
 21 22  1  0  0  0  0
 21 47  1  0  0  0  0
 21 48  1  0  0  0  0
 22 27  1  0  0  0  0
 22 23  1  0  0  0  0
 22 25  1  0  0  0  0
 23 24  1  0  0  0  0
 23 49  1  0  0  0  0
 23 50  1  0  0  0  0
 24 51  1  0  0  0  0
 25 26  1  0  0  0  0
 25 52  1  0  0  0  0
 25 53  1  0  0  0  0
 26 27  1  0  0  0  0
 27 54  1  0  0  0  0
 27 55  1  0  0  0  0
M  CHG  1   3   1
M  END
> <s_m_source_file>
AV-unprocessed.smi

> <i_m_source_file_index>
169

> <i_lp_mmshare_version>
43012

> <i_f3d_flags>
0

> <s_epik_input>
W0NASF0xMltDSDJdW0NIMl1OKFtDSDJdW0NIM10pW0NIMl1bQ0BIXShbQ0gyXVtDSDJdMSlOMmMobltjSF1uMyljKGMzNCluW2NIXW40W0NIMl1DNShbQ0gyXVtPSF0pW0NIMl1PW0NIMl01

> <s_epik_cmdline>
J2VwaWtfcHl0aG9uJywgJy1waCcsICc3LjAnLCAnLXRuJywgJzgnLCAnLW1hJywgJzIwMCcsICctbWV0YWxfYmluZGluZycsICctaW1hZScsICc8aW5maWxlLm1hZT4nLCAnLW9tYWUnLCAnPG91dGZpbGUubWFlPic=

> <r_lp_tautomer_probability>
1

> <r_epik_Ionization_Penalty>
0.00274162

> <r_epik_Ionization_Penalty_Charging>
0.00243722

> <r_epik_Ionization_Penalty_Neutral>
0.000304399

> <r_epik_State_Penalty>
-0

> <r_epik_Charging_Adjusted_Penalty>
0.00243722

> <i_epik_Tot_Q>
1

> <i_epik_Tot_abs_Q>
1

> <r_epik_Metal_State_Penalty>
-0

> <b_epik_Metal_Only>
0

> <s_lp_Force_Field>
OPLS_2005

> <r_lp_Energy>
74.1365

> <b_lp_Chiralities_Consistent>
1

> <s_lp_Variant>
AV-unprocessed.smi:169-7

> <Gold.Version>
5.8.1

> <Gold.Id.Protein>
6NUR|6NUR_protein|mol2

> <Gold.PLP.Fitness>
42.3738

> <Gold.PLP.PLP>
-37.6297

> <Gold.PLP.part.hbond>
-2.0000

> <Gold.PLP.part.metal>
0.0000

> <Gold.PLP.part.buried>
-7.3507

> <Gold.PLP.part.nonpolar>
-29.3188

> <Gold.PLP.part.repulsive>
0.6448

> <Gold.PLP.ligand.clash>
0.0000

> <Gold.PLP.ligand.torsion>
0.8787

> <Gold.PLP.Chemscore.Hbond>
0.9920

> <Gold.PLP.Chemscore.CHOScore>
1.0000

> <Gold.PLP.Chemscore.Metal>
0.0000

> <Gold.Chemscore.Hbonds>
donor molecule, donor type, donor heavy atom, donor atom, acceptor molecule, acceptor atom, score
      L1  H    24    51       P1 10174  0.96
      L1  C    14    45       P1  7957  1.00

> <Gold.PLP.Chemscore.Internal.Correction>
0.5255

> <Gold.Rescore>
     Score         DG    S(hbond)    S(metal)    S(lipo)     H(rot)  DE(clash)    DE(int)     intcor
      9.93     -12.24       0.85        0.00      90.83       2.62       1.51       0.81       ----

> <Gold.Chemscore.Fitness>
9.9255

> <Gold.Chemscore.DG>
-12.2409

> <Gold.Chemscore.ZeroCoef>
-5.4800

> <Gold.Chemscore.Hbond>
0.8516

> <Gold.Chemscore.Metal>
0.0000

> <Gold.Chemscore.Lipo>
90.8265

> <Gold.Chemscore.Internal_Hbond>
0.0000

> <Gold.Chemscore.DEClash>
1.5062

> <Gold.Chemscore.DEInternal>
0.8092

> <Gold.Chemscore.Rot>
2.6212

> <Gold.Chemscore.Internal.Correction>
   9.000000E+99

> <Gold.Chemscore.Hbonds>
donor molecule, donor type, donor heavy atom, donor atom, acceptor molecule, acceptor atom, score
      L1  H    24    51       P1 10174  0.90

> <Gold.Chemscore.Hbond.Weighted>
-2.8444

> <Gold.Chemscore.Metal.Weighted>
-0.0000

> <Gold.Chemscore.Lipo.Weighted>
-10.6267

> <Gold.Chemscore.Internal_Hbond.Weighted>
0.0000

> <Gold.Chemscore.DEClash.Weighted>
1.5062

> <Gold.Chemscore.DEInternal.Weighted>
0.8092

> <Gold.Chemscore.Rot.Weighted>
6.7102

> <Gold.Chemscore.Internal.Correction.Weighted>
   9.000000E+99

> <Gold.Protein.RotatedTorsions>
[ 6907 6896 6895 6894 ] final -169.86 input  -60.11 | X-H torsion
[ 7974 7965 7964 7962 ] final  140.20 input  175.53 | X-H torsion
[ 8008 7997 7996 7995 ] final -153.63 input   59.86 | X-H torsion
[ 10167 10162 10161 10158 ] final   16.14 input  -65.29 | X-H torsion
[ 10718 10713 10712 10709 ] final  149.00 input   66.30 | X-H torsion
[ 10763 10752 10751 10750 ] final   -8.92 input  -60.55 | X-H torsion
[ 11005 11000 10999 10996 ] final  145.05 input  -57.11 | X-H torsion

> <Gold.Protein.ActiveResidues>
 VAL166  LYS551  ARG553  GLY616  TRP617  ASP618  TYR619  PRO620  LYS621  CYS622 
 ASP623  PHE694  ASN695  SER759  ASP760  ASP761  ALA762  ILE779  LEU786  VAL792 
 PHE793  MET794  SER795  GLU796  ALA797  LYS798  CYS799  TRP800  GLU811  SER814 

> <Gold.Protein.RotatedAtoms>
  151.4984  133.3509  159.2864 H   0  0  0  0  0  0  0  0  0  0  0  0  # atno 6907 bound_to 6896
  150.8789  134.8178  159.7221 H   0  0  0  0  0  0  0  0  0  0  0  0  # atno 6908 bound_to 6896
  152.4749  134.4879  159.9738 H   0  0  0  0  0  0  0  0  0  0  0  0  # atno 6909 bound_to 6896
  144.9208  139.5170  143.5664 H   0  0  0  0  0  0  0  0  0  0  0  0  # atno 7974 bound_to 7965
  155.6737  140.0736  157.2510 H   0  0  0  0  0  0  0  0  0  0  0  0  # atno 8008 bound_to 7997
  154.4118  140.1694  156.1959 H   0  0  0  0  0  0  0  0  0  0  0  0  # atno 8009 bound_to 7997
  155.9594  140.3371  155.6480 H   0  0  0  0  0  0  0  0  0  0  0  0  # atno 8010 bound_to 7997
  140.5818  143.8966  150.6796 H   0  0  0  0  0  0  0  0  0  0  0  0  # atno 10167 bound_to 10162
  157.3015  131.0871  151.1386 H   0  0  0  0  0  0  0  0  0  0  0  0  # atno 10718 bound_to 10713
  153.4474  135.7014  153.6130 H   0  0  0  0  0  0  0  0  0  0  0  0  # atno 10763 bound_to 10752
  153.4479  135.3765  155.2267 H   0  0  0  0  0  0  0  0  0  0  0  0  # atno 10764 bound_to 10752
  154.8728  135.3990  154.3882 H   0  0  0  0  0  0  0  0  0  0  0  0  # atno 10765 bound_to 10752
  140.0681  134.9167  157.1299 H   0  0  0  0  0  0  0  0  0  0  0  0  # atno 11005 bound_to 11000
  146.3204  139.8086  142.8950 LP  0  0  0  0  0  0  0  0  0  0  0  0  # atno 17320 bound_to 7965
  145.3299  141.0264  143.3452 LP  0  0  0  0  0  0  0  0  0  0  0  0  # atno 17321 bound_to 7965
  140.2467  143.3623  152.1441 LP  0  0  0  0  0  0  0  0  0  0  0  0  # atno 17342 bound_to 10162
  139.5174  144.6991  151.5544 LP  0  0  0  0  0  0  0  0  0  0  0  0  # atno 17343 bound_to 10162
  157.2743  130.6719  149.6034 LP  0  0  0  0  0  0  0  0  0  0  0  0  # atno 17370 bound_to 10713
  155.9672  130.4469  150.5560 LP  0  0  0  0  0  0  0  0  0  0  0  0  # atno 17371 bound_to 10713
  140.3668  134.2433  155.7181 LP  0  0  0  0  0  0  0  0  0  0  0  0  # atno 17394 bound_to 11000
  141.2001  133.7996  157.0506 LP  0  0  0  0  0  0  0  0  0  0  0  0  # atno 17395 bound_to 11000

$$$$
