AV-unprocessed.smi:2979|AV-procd|sdf|11370|dock10
  -GOLD-   2272016293D 1   1.00000     0.00000
 Structure written by MMmdl.
 35 36  0  0  0  0  0  0  0  0  1 V2000
  154.2974  138.0740  158.6008 C   0  0  0  0  0  0  0  0  0  0  0  0
  154.5354  139.4589  158.7778 O   0  0  0  0  0  0  0  0  0  0  0  0
  153.6233  140.0556  159.6857 C   0  0  0  0  0  0  0  0  0  0  0  0
  152.2009  139.9908  159.1113 C   0  0  0  0  0  0  0  0  0  0  0  0
  151.8009  141.2312  158.4584 N   0  0  0  0  0  0  0  0  0  0  0  0
  151.3045  141.4117  157.2066 C   0  0  0  0  0  0  0  0  0  0  0  0
  151.0482  140.2794  156.2566 C   0  0  0  0  0  0  0  0  0  0  0  0
  149.6580  140.3585  155.6069 C   0  0  0  0  0  0  0  0  0  0  0  0
  149.5097  141.5791  154.6900 C   0  0  0  0  0  0  0  0  0  0  0  0
  149.0571  141.1706  153.4174 O   0  0  0  0  0  0  0  0  0  0  0  0
  151.0409  142.6735  156.8648 N   0  0  0  0  0  0  0  0  0  0  0  0
  151.3835  143.3767  158.0022 C   0  0  0  0  0  0  0  0  0  0  0  0
  151.3272  144.7621  158.2757 C   0  0  0  0  0  0  0  0  0  0  0  0
  151.7338  145.2589  159.5312 C   0  0  0  0  0  0  0  0  0  0  0  0
  152.2007  144.3793  160.5291 C   0  0  0  0  0  0  0  0  0  0  0  0
  152.2659  142.9956  160.2764 C   0  0  0  0  0  0  0  0  0  0  0  0
  151.8603  142.5039  159.0205 C   0  0  0  0  0  0  0  0  0  0  0  0
  155.0178  137.6667  157.8915 H   0  0  0  0  0  0  0  0  0  0  0  0
  153.2964  137.8925  158.2074 H   0  0  0  0  0  0  0  0  0  0  0  0
  154.4083  137.5325  159.5412 H   0  0  0  0  0  0  0  0  0  0  0  0
  153.6578  139.5361  160.6443 H   0  0  0  0  0  0  0  0  0  0  0  0
  153.9055  141.0912  159.8746 H   0  0  0  0  0  0  0  0  0  0  0  0
  152.1430  139.1822  158.3825 H   0  0  0  0  0  0  0  0  0  0  0  0
  151.4783  139.7405  159.8876 H   0  0  0  0  0  0  0  0  0  0  0  0
  151.8153  140.3037  155.4816 H   0  0  0  0  0  0  0  0  0  0  0  0
  151.1681  139.3228  156.7620 H   0  0  0  0  0  0  0  0  0  0  0  0
  149.4676  139.4506  155.0338 H   0  0  0  0  0  0  0  0  0  0  0  0
  148.8950  140.3923  156.3859 H   0  0  0  0  0  0  0  0  0  0  0  0
  148.7984  142.2914  155.1088 H   0  0  0  0  0  0  0  0  0  0  0  0
  150.4638  142.0949  154.5779 H   0  0  0  0  0  0  0  0  0  0  0  0
  149.5626  140.4203  153.1447 H   0  0  0  0  0  0  0  0  0  0  0  0
  150.9691  145.4434  157.5181 H   0  0  0  0  0  0  0  0  0  0  0  0
  151.6857  146.3195  159.7300 H   0  0  0  0  0  0  0  0  0  0  0  0
  152.5082  144.7674  161.4892 H   0  0  0  0  0  0  0  0  0  0  0  0
  152.6205  142.3209  161.0412 H   0  0  0  0  0  0  0  0  0  0  0  0
  1  2  1  0  0  0  0
  1 18  1  0  0  0  0
  1 19  1  0  0  0  0
  1 20  1  0  0  0  0
  2  3  1  0  0  0  0
  3  4  1  0  0  0  0
  3 21  1  0  0  0  0
  3 22  1  0  0  0  0
  4  5  1  0  0  0  0
  4 23  1  0  0  0  0
  4 24  1  0  0  0  0
  5 17  1  0  0  0  0
  5  6  1  0  0  0  0
  6  7  1  0  0  0  0
  6 11  2  0  0  0  0
  7  8  1  0  0  0  0
  7 25  1  0  0  0  0
  7 26  1  0  0  0  0
  8  9  1  0  0  0  0
  8 27  1  0  0  0  0
  8 28  1  0  0  0  0
  9 10  1  0  0  0  0
  9 29  1  0  0  0  0
  9 30  1  0  0  0  0
 10 31  1  0  0  0  0
 11 12  1  0  0  0  0
 12 17  2  0  0  0  0
 12 13  1  0  0  0  0
 13 14  2  0  0  0  0
 13 32  1  0  0  0  0
 14 15  1  0  0  0  0
 14 33  1  0  0  0  0
 15 16  2  0  0  0  0
 15 34  1  0  0  0  0
 16 17  1  0  0  0  0
 16 35  1  0  0  0  0
M  END
> <s_m_source_file>
AV-unprocessed.smi

> <i_m_source_file_index>
2979

> <i_lp_mmshare_version>
43012

> <i_f3d_flags>
0

> <s_epik_input>
W2NIXTFbY0hdW2NIXVtjSF1jKGMxMiluKFtDSDJdW0NIMl1PW0NIM10pYyhuMilbQ0gyXVtDSDJdW0NIMl1bT0hd

> <s_epik_cmdline>
J2VwaWtfcHl0aG9uJywgJy1waCcsICc3LjAnLCAnLXRuJywgJzgnLCAnLW1hJywgJzIwMCcsICctbWV0YWxfYmluZGluZycsICctaW1hZScsICc8aW5maWxlLm1hZT4nLCAnLW9tYWUnLCAnPG91dGZpbGUubWFlPic=

> <r_epik_Ionization_Penalty>
0.183246

> <r_epik_Ionization_Penalty_Charging>
0

> <r_epik_Ionization_Penalty_Neutral>
0.183246

> <r_epik_State_Penalty>
0.172781

> <r_epik_Charging_Adjusted_Penalty>
0.172781

> <i_epik_Tot_Q>
0

> <i_epik_Tot_abs_Q>
0

> <r_epik_Metal_State_Penalty>
0.000200578

> <b_epik_Metal_Only>
0

> <s_lp_Force_Field>
OPLS_2005

> <r_lp_Energy>
6.05289

> <b_lp_Chiralities_Consistent>
1

> <s_lp_Variant>
AV-unprocessed.smi:2979-1

> <Gold.Version>
5.8.1

> <Gold.Id.Protein>
6NUR|6NUR_protein|mol2

> <Gold.PLP.Fitness>
45.3676

> <Gold.PLP.PLP>
-40.1163

> <Gold.PLP.part.hbond>
-3.9155

> <Gold.PLP.part.metal>
0.0000

> <Gold.PLP.part.buried>
-4.8191

> <Gold.PLP.part.nonpolar>
-31.5832

> <Gold.PLP.part.repulsive>
0.1171

> <Gold.PLP.ligand.clash>
0.0000

> <Gold.PLP.ligand.torsion>
0.8232

> <Gold.PLP.Chemscore.Hbond>
2.2915

> <Gold.PLP.Chemscore.CHOScore>
0.0000

> <Gold.PLP.Chemscore.Metal>
0.0000

> <Gold.Chemscore.Hbonds>
donor molecule, donor type, donor heavy atom, donor atom, acceptor molecule, acceptor atom, score
      L1  H    10    31       P1  7957  0.32
      P1  H  7997  8008       L1     2  1.00
      P1  H  8011  8017       L1    10  0.95

> <Gold.PLP.Chemscore.Internal.Correction>
0.0233

> <Gold.Rescore>
     Score         DG    S(hbond)    S(metal)    S(lipo)     H(rot)  DE(clash)    DE(int)     intcor
     14.39     -16.66       1.50        0.00     106.34       2.45       0.23       2.03       ----

> <Gold.Chemscore.Fitness>
14.3931

> <Gold.Chemscore.DG>
-16.6575

> <Gold.Chemscore.ZeroCoef>
-5.4800

> <Gold.Chemscore.Hbond>
1.4974

> <Gold.Chemscore.Metal>
0.0000

> <Gold.Chemscore.Lipo>
106.3367

> <Gold.Chemscore.Internal_Hbond>
0.0000

> <Gold.Chemscore.DEClash>
0.2300

> <Gold.Chemscore.DEInternal>
2.0344

> <Gold.Chemscore.Rot>
2.4474

> <Gold.Chemscore.Internal.Correction>
   9.000000E+99

> <Gold.Chemscore.Hbonds>
donor molecule, donor type, donor heavy atom, donor atom, acceptor molecule, acceptor atom, score
      L1  H    10    31       P1  7957  0.30
      P1  H  7997  8008       L1     2  0.55
      P1  H  8011  8017       L1    10  0.07

> <Gold.Chemscore.Hbond.Weighted>
-5.0014

> <Gold.Chemscore.Metal.Weighted>
-0.0000

> <Gold.Chemscore.Lipo.Weighted>
-12.4414

> <Gold.Chemscore.Internal_Hbond.Weighted>
0.0000

> <Gold.Chemscore.DEClash.Weighted>
0.2300

> <Gold.Chemscore.DEInternal.Weighted>
2.0344

> <Gold.Chemscore.Rot.Weighted>
6.2654

> <Gold.Chemscore.Internal.Correction.Weighted>
   9.000000E+99

> <Gold.Protein.RotatedTorsions>
[ 6907 6896 6895 6894 ] final -160.88 input  -60.11 | X-H torsion
[ 7974 7965 7964 7962 ] final -161.00 input  175.53 | X-H torsion
[ 8008 7997 7996 7995 ] final -122.30 input   59.86 | X-H torsion
[ 10167 10162 10161 10158 ] final -117.18 input  -65.29 | X-H torsion
[ 10718 10713 10712 10709 ] final -114.13 input   66.30 | X-H torsion
[ 10763 10752 10751 10750 ] final  155.18 input  -60.55 | X-H torsion
[ 11005 11000 10999 10996 ] final   15.89 input  -57.11 | X-H torsion

> <Gold.Protein.ActiveResidues>
 VAL166  LYS551  ARG553  GLY616  TRP617  ASP618  TYR619  PRO620  LYS621  CYS622 
 ASP623  PHE694  ASN695  SER759  ASP760  ASP761  ALA762  ILE779  LEU786  VAL792 
 PHE793  MET794  SER795  GLU796  ALA797  LYS798  CYS799  TRP800  GLU811  SER814 

> <Gold.Protein.RotatedAtoms>
  151.3560  133.3907  159.2684 H   0  0  0  0  0  0  0  0  0  0  0  0  # atno 6907 bound_to 6896
  150.9763  134.9128  159.7828 H   0  0  0  0  0  0  0  0  0  0  0  0  # atno 6908 bound_to 6896
  152.5202  134.3523  159.9308 H   0  0  0  0  0  0  0  0  0  0  0  0  # atno 6909 bound_to 6896
  144.7406  140.3461  143.6125 H   0  0  0  0  0  0  0  0  0  0  0  0  # atno 7974 bound_to 7965
  155.1620  140.0406  157.2844 H   0  0  0  0  0  0  0  0  0  0  0  0  # atno 8008 bound_to 7997
  154.6329  140.2528  155.7385 H   0  0  0  0  0  0  0  0  0  0  0  0  # atno 8009 bound_to 7997
  156.2494  140.2871  156.0689 H   0  0  0  0  0  0  0  0  0  0  0  0  # atno 8010 bound_to 7997
  140.0711  143.4876  152.1979 H   0  0  0  0  0  0  0  0  0  0  0  0  # atno 10167 bound_to 10162
  156.0810  130.6010  150.8734 H   0  0  0  0  0  0  0  0  0  0  0  0  # atno 10718 bound_to 10713
  154.1643  135.2808  155.3100 H   0  0  0  0  0  0  0  0  0  0  0  0  # atno 10763 bound_to 10752
  154.6123  135.5494  153.7490 H   0  0  0  0  0  0  0  0  0  0  0  0  # atno 10764 bound_to 10752
  153.0183  135.6418  154.1784 H   0  0  0  0  0  0  0  0  0  0  0  0  # atno 10765 bound_to 10752
  140.4532  134.1203  155.7705 H   0  0  0  0  0  0  0  0  0  0  0  0  # atno 11005 bound_to 11000
  145.7325  139.1740  143.2422 LP  0  0  0  0  0  0  0  0  0  0  0  0  # atno 17320 bound_to 7965
  146.1196  140.7326  142.9464 LP  0  0  0  0  0  0  0  0  0  0  0  0  # atno 17321 bound_to 7965
  139.5835  144.7521  151.3579 LP  0  0  0  0  0  0  0  0  0  0  0  0  # atno 17342 bound_to 10162
  140.7125  143.7353  150.7593 LP  0  0  0  0  0  0  0  0  0  0  0  0  # atno 17343 bound_to 10162
  157.5927  131.0944  150.9092 LP  0  0  0  0  0  0  0  0  0  0  0  0  # atno 17370 bound_to 10713
  156.9264  130.5334  149.5279 LP  0  0  0  0  0  0  0  0  0  0  0  0  # atno 17371 bound_to 10713
  141.1655  133.8712  157.1727 LP  0  0  0  0  0  0  0  0  0  0  0  0  # atno 17394 bound_to 11000
  139.9993  135.0034  157.0154 LP  0  0  0  0  0  0  0  0  0  0  0  0  # atno 17395 bound_to 11000

$$$$
