AV-unprocessed.smi:2220|AV-procd|sdf|8978|dock1
  -GOLD-   2272012193D 1   1.00000     0.00000
 Structure written by MMmdl.
 39 40  0  0  0  0  0  0  0  0  2 V2000
  145.3137  130.7591  151.0309 C   0  0  0  0  0  0  0  0  0  0  0  0
  144.8803  132.1461  150.8420 N   0  0  0  0  0  0  0  0  0  0  0  0
  143.6884  132.4491  150.3121 C   0  0  0  0  0  0  0  0  0  0  0  0
  143.6061  133.7811  150.2785 N   0  3  0  0  0  0  0  0  0  0  0  0
  144.7485  134.3341  150.7883 C   0  0  0  0  0  0  0  0  0  0  0  0
  145.5707  133.2966  151.1534 C   0  0  0  0  0  0  0  0  0  0  0  0
  146.9329  133.3120  151.7702 C   0  0  0  0  0  0  0  0  0  0  0  0
  146.8687  133.6065  153.2783 C   0  0  0  0  0  0  0  0  0  0  0  0
  148.0927  134.2411  153.7519 N   0  0  0  0  0  0  0  0  0  0  0  0
  148.7649  133.8868  154.8585 C   0  0  0  0  0  0  0  0  0  0  0  0
  148.4043  132.9728  155.6009 O   0  0  0  0  0  0  0  0  0  0  0  0
  150.0347  134.6878  155.1751 C   0  0  0  0  0  0  0  0  0  0  0  0
  150.7116  134.1635  156.4588 C   0  0  0  0  0  0  0  0  0  0  0  0
  151.9870  134.9594  156.7791 C   0  0  0  0  0  0  0  0  0  0  0  0
  151.6966  136.4663  156.8846 C   0  0  0  0  0  0  0  0  0  0  0  0
  150.9286  136.6956  157.9509 F   0  0  0  0  0  0  0  0  0  0  0  0
  152.8453  137.1215  157.0512 F   0  0  0  0  0  0  0  0  0  0  0  0
  150.9922  136.9984  155.6247 C   0  0  0  0  0  0  0  0  0  0  0  0
  149.7215  136.1929  155.3087 C   0  0  0  0  0  0  0  0  0  0  0  0
  144.5755  130.0736  150.6124 H   0  0  0  0  0  0  0  0  0  0  0  0
  145.4260  130.5604  152.0967 H   0  0  0  0  0  0  0  0  0  0  0  0
  146.2681  130.6083  150.5261 H   0  0  0  0  0  0  0  0  0  0  0  0
  142.9376  131.7559  149.9764 H   0  0  0  0  0  0  0  0  0  0  0  0
  144.8905  135.4031  150.8562 H   0  0  0  0  0  0  0  0  0  0  0  0
  147.4261  132.3565  151.5891 H   0  0  0  0  0  0  0  0  0  0  0  0
  147.5319  134.0692  151.2627 H   0  0  0  0  0  0  0  0  0  0  0  0
  146.0084  134.2376  153.5089 H   0  0  0  0  0  0  0  0  0  0  0  0
  146.7323  132.6816  153.8384 H   0  0  0  0  0  0  0  0  0  0  0  0
  148.4594  135.0012  153.1970 H   0  0  0  0  0  0  0  0  0  0  0  0
  150.7341  134.5607  154.3465 H   0  0  0  0  0  0  0  0  0  0  0  0
  150.0238  134.2327  157.3030 H   0  0  0  0  0  0  0  0  0  0  0  0
  150.9598  133.1070  156.3497 H   0  0  0  0  0  0  0  0  0  0  0  0
  152.4301  134.5965  157.7072 H   0  0  0  0  0  0  0  0  0  0  0  0
  152.7259  134.7848  155.9958 H   0  0  0  0  0  0  0  0  0  0  0  0
  150.7440  138.0528  155.7504 H   0  0  0  0  0  0  0  0  0  0  0  0
  151.6741  136.9415  154.7752 H   0  0  0  0  0  0  0  0  0  0  0  0
  149.2726  136.5679  154.3879 H   0  0  0  0  0  0  0  0  0  0  0  0
  148.9871  136.3572  156.0986 H   0  0  0  0  0  0  0  0  0  0  0  0
  142.8128  134.3026  149.9273 H   0  0  0  0  0  0  0  0  0  0  0  0
  1  2  1  0  0  0  0
  1 20  1  0  0  0  0
  1 21  1  0  0  0  0
  1 22  1  0  0  0  0
  2  6  1  0  0  0  0
  2  3  1  0  0  0  0
  3  4  2  0  0  0  0
  3 23  1  0  0  0  0
  4  5  1  0  0  0  0
  4 39  1  0  0  0  0
  5  6  2  0  0  0  0
  5 24  1  0  0  0  0
  6  7  1  0  0  0  0
  7  8  1  0  0  0  0
  7 25  1  0  0  0  0
  7 26  1  0  0  0  0
  8  9  1  0  0  0  0
  8 27  1  0  0  0  0
  8 28  1  0  0  0  0
  9 10  1  0  0  0  0
  9 29  1  0  0  0  0
 10 11  2  0  0  0  0
 10 12  1  0  0  0  0
 12 19  1  0  0  0  0
 12 13  1  0  0  0  0
 12 30  1  0  0  0  0
 13 14  1  0  0  0  0
 13 31  1  0  0  0  0
 13 32  1  0  0  0  0
 14 15  1  0  0  0  0
 14 33  1  0  0  0  0
 14 34  1  0  0  0  0
 15 16  1  0  0  0  0
 15 17  1  0  0  0  0
 15 18  1  0  0  0  0
 18 19  1  0  0  0  0
 18 35  1  0  0  0  0
 18 36  1  0  0  0  0
 19 37  1  0  0  0  0
 19 38  1  0  0  0  0
M  CHG  1   4   1
M  END
> <s_m_source_file>
AV-unprocessed.smi

> <i_m_source_file_index>
2220

> <i_lp_mmshare_version>
43012

> <i_f3d_flags>
0

> <s_epik_input>
W0NIM11uMVtjSF1uW2NIXWMxW0NIMl1bQ0gyXVtOSF1DKD1PKVtDSF0oW0NIMl1bQ0gyXTIpW0NIMl1bQ0gyXUMyKEYpRg==

> <s_epik_cmdline>
J2VwaWtfcHl0aG9uJywgJy1waCcsICc3LjAnLCAnLXRuJywgJzgnLCAnLW1hJywgJzIwMCcsICctbWV0YWxfYmluZGluZycsICctaW1hZScsICc8aW5maWxlLm1hZT4nLCAnLW9tYWUnLCAnPG91dGZpbGUubWFlPic=

> <r_lp_tautomer_probability>
1

> <r_epik_Ionization_Penalty>
0.15432

> <r_epik_Ionization_Penalty_Charging>
0

> <r_epik_Ionization_Penalty_Neutral>
0.15432

> <r_epik_State_Penalty>
0.143614

> <r_epik_Charging_Adjusted_Penalty>
0.143614

> <i_epik_Tot_Q>
1

> <i_epik_Tot_abs_Q>
1

> <r_epik_Metal_State_Penalty>
0.465047

> <b_epik_Metal_Only>
0

> <s_lp_Force_Field>
OPLS_2005

> <r_lp_Energy>
11.3937

> <b_lp_Chiralities_Consistent>
1

> <s_lp_Variant>
AV-unprocessed.smi:2220-1

> <Gold.Version>
5.8.1

> <Gold.Id.Protein>
6NUR|6NUR_protein|mol2

> <Gold.PLP.Fitness>
40.7117

> <Gold.PLP.PLP>
-29.6827

> <Gold.PLP.part.hbond>
-2.0000

> <Gold.PLP.part.metal>
0.0000

> <Gold.PLP.part.buried>
-4.0705

> <Gold.PLP.part.nonpolar>
-23.8621

> <Gold.PLP.part.repulsive>
0.0400

> <Gold.PLP.ligand.clash>
0.0000

> <Gold.PLP.ligand.torsion>
0.4983

> <Gold.PLP.Chemscore.Hbond>
3.0000

> <Gold.PLP.Chemscore.CHOScore>
1.0000

> <Gold.PLP.Chemscore.Metal>
0.0000

> <Gold.Chemscore.Hbonds>
donor molecule, donor type, donor heavy atom, donor atom, acceptor molecule, acceptor atom, score
      L1  H     4    39       P1 10186  2.00
      L1  H     9    29       P1  7948  1.00
      L1  C     3    23       P1 10952  0.89

> <Gold.PLP.Chemscore.Internal.Correction>
0.0257

> <Gold.Rescore>
     Score         DG    S(hbond)    S(metal)    S(lipo)     H(rot)  DE(clash)    DE(int)     intcor
     13.68     -14.20       1.97        0.00      59.18       1.87       0.10       0.42       ----

> <Gold.Chemscore.Fitness>
13.6804

> <Gold.Chemscore.DG>
-14.1978

> <Gold.Chemscore.ZeroCoef>
-5.4800

> <Gold.Chemscore.Hbond>
1.9683

> <Gold.Chemscore.Metal>
0.0000

> <Gold.Chemscore.Lipo>
59.1765

> <Gold.Chemscore.Internal_Hbond>
0.0000

> <Gold.Chemscore.DEClash>
0.0961

> <Gold.Chemscore.DEInternal>
0.4213

> <Gold.Chemscore.Rot>
1.8672

> <Gold.Chemscore.Internal.Correction>
   9.000000E+99

> <Gold.Chemscore.Hbonds>
donor molecule, donor type, donor heavy atom, donor atom, acceptor molecule, acceptor atom, score
      L1  H     4    39       P1 10186  0.92
      L1  H     9    29       P1  7948  0.78

> <Gold.Chemscore.Hbond.Weighted>
-6.5741

> <Gold.Chemscore.Metal.Weighted>
-0.0000

> <Gold.Chemscore.Lipo.Weighted>
-6.9236

> <Gold.Chemscore.Internal_Hbond.Weighted>
0.0000

> <Gold.Chemscore.DEClash.Weighted>
0.0961

> <Gold.Chemscore.DEInternal.Weighted>
0.4213

> <Gold.Chemscore.Rot.Weighted>
4.7800

> <Gold.Chemscore.Internal.Correction.Weighted>
   9.000000E+99

> <Gold.Protein.RotatedTorsions>
[ 6907 6896 6895 6894 ] final   96.48 input  -60.11 | X-H torsion
[ 7974 7965 7964 7962 ] final  -63.50 input  175.53 | X-H torsion
[ 8008 7997 7996 7995 ] final   55.16 input   59.86 | X-H torsion
[ 10167 10162 10161 10158 ] final   47.29 input  -65.29 | X-H torsion
[ 10718 10713 10712 10709 ] final  167.19 input   66.30 | X-H torsion
[ 10763 10752 10751 10750 ] final  118.58 input  -60.55 | X-H torsion
[ 11005 11000 10999 10996 ] final  -86.87 input  -57.11 | X-H torsion

> <Gold.Protein.ActiveResidues>
 VAL166  LYS551  ARG553  GLY616  TRP617  ASP618  TYR619  PRO620  LYS621  CYS622 
 ASP623  PHE694  ASN695  SER759  ASP760  ASP761  ALA762  ILE779  LEU786  VAL792 
 PHE793  MET794  SER795  GLU796  ALA797  LYS798  CYS799  TRP800  GLU811  SER814 

> <Gold.Protein.RotatedAtoms>
  152.5434  134.0879  159.8263 H   0  0  0  0  0  0  0  0  0  0  0  0  # atno 6907 bound_to 6896
  151.0973  133.5263  159.2619 H   0  0  0  0  0  0  0  0  0  0  0  0  # atno 6908 bound_to 6896
  151.2031  135.0460  159.8935 H   0  0  0  0  0  0  0  0  0  0  0  0  # atno 6909 bound_to 6896
  145.7783  140.8776  143.0344 H   0  0  0  0  0  0  0  0  0  0  0  0  # atno 7974 bound_to 7965
  155.4966  140.3473  155.4364 H   0  0  0  0  0  0  0  0  0  0  0  0  # atno 8008 bound_to 7997
  156.0941  140.1418  156.9581 H   0  0  0  0  0  0  0  0  0  0  0  0  # atno 8009 bound_to 7997
  154.4653  140.0920  156.6981 H   0  0  0  0  0  0  0  0  0  0  0  0  # atno 8010 bound_to 7997
  140.3051  144.2887  150.6211 H   0  0  0  0  0  0  0  0  0  0  0  0  # atno 10167 bound_to 10162
  157.0550  131.0324  151.2667 H   0  0  0  0  0  0  0  0  0  0  0  0  # atno 10718 bound_to 10713
  153.5699  135.3504  155.2833 H   0  0  0  0  0  0  0  0  0  0  0  0  # atno 10763 bound_to 10752
  154.8683  135.4157  154.2737 H   0  0  0  0  0  0  0  0  0  0  0  0  # atno 10764 bound_to 10752
  153.3500  135.7054  153.6866 H   0  0  0  0  0  0  0  0  0  0  0  0  # atno 10765 bound_to 10752
  141.1624  133.7479  156.9224 H   0  0  0  0  0  0  0  0  0  0  0  0  # atno 11005 bound_to 11000
  144.6801  139.9952  143.7484 LP  0  0  0  0  0  0  0  0  0  0  0  0  # atno 17320 bound_to 7965
  146.0100  139.3162  143.0876 LP  0  0  0  0  0  0  0  0  0  0  0  0  # atno 17321 bound_to 7965
  140.5617  143.2191  151.7754 LP  0  0  0  0  0  0  0  0  0  0  0  0  # atno 17342 bound_to 10162
  139.4906  144.4339  151.9841 LP  0  0  0  0  0  0  0  0  0  0  0  0  # atno 17343 bound_to 10162
  157.5000  130.7874  149.7595 LP  0  0  0  0  0  0  0  0  0  0  0  0  # atno 17370 bound_to 10713
  155.9996  130.3888  150.2659 LP  0  0  0  0  0  0  0  0  0  0  0  0  # atno 17371 bound_to 10713
  140.1442  134.9273  157.2508 LP  0  0  0  0  0  0  0  0  0  0  0  0  # atno 17394 bound_to 11000
  140.2800  134.3361  155.7346 LP  0  0  0  0  0  0  0  0  0  0  0  0  # atno 17395 bound_to 11000

$$$$
