AV-unprocessed.smi:1053|AV-procd|sdf|4621|dock9
  -GOLD-   22720 3123D 1   1.00000     0.00000
 Structure written by MMmdl.
 37 38  0  0  0  0  0  0  0  0  1 V2000
  146.2382  142.2858  154.5542 C   0  0  0  0  0  0  0  0  0  0  0  0
  147.0475  141.2000  153.8303 C   0  0  0  0  0  0  0  0  0  0  0  0
  148.1259  140.6065  154.6190 N   0  0  0  0  0  0  0  0  0  0  0  0
  148.8423  139.5615  153.8922 C   0  0  0  0  0  0  0  0  0  0  0  0
  149.9942  138.9739  154.7245 C   0  0  0  0  0  0  0  0  0  0  0  0
  150.8754  140.0191  155.1211 O   0  0  0  0  0  0  0  0  0  0  0  0
  150.2287  141.0325  155.8877 C   0  0  1  0  0  0  0  0  0  0  0  0
  151.2669  142.1006  156.2555 C   0  0  0  0  0  0  0  0  0  0  0  0
  150.7980  142.9624  157.3302 N   0  0  0  0  0  0  0  0  0  0  0  0
  151.4065  143.0595  158.5671 C   0  0  0  0  0  0  0  0  0  0  0  0
  151.0181  144.0415  159.3889 N   0  0  0  0  0  0  0  0  0  0  0  0
  151.6266  144.1117  160.5921 C   0  0  0  0  0  0  0  0  0  0  0  0
  152.6261  143.1950  160.9731 C   0  0  0  0  0  0  0  0  0  0  0  0
  152.9556  142.1990  160.0266 C   0  0  0  0  0  0  0  0  0  0  0  0
  154.0172  141.1439  160.2993 C   0  0  0  0  0  0  0  0  0  0  0  0
  154.4386  141.1887  161.5638 F   0  0  0  0  0  0  0  0  0  0  0  0
  153.5180  139.9304  160.0635 F   0  0  0  0  0  0  0  0  0  0  0  0
  155.0634  141.3427  159.4974 F   0  0  0  0  0  0  0  0  0  0  0  0
  152.3397  142.1401  158.8227 N   0  0  0  0  0  0  0  0  0  0  0  0
  149.0802  141.6243  155.0460 C   0  0  0  0  0  0  0  0  0  0  0  0
  145.5293  142.7539  153.8711 H   0  0  0  0  0  0  0  0  0  0  0  0
  146.8901  143.0692  154.9416 H   0  0  0  0  0  0  0  0  0  0  0  0
  145.6641  141.8799  155.3867 H   0  0  0  0  0  0  0  0  0  0  0  0
  146.3735  140.4191  153.4752 H   0  0  0  0  0  0  0  0  0  0  0  0
  147.4760  141.6548  152.9362 H   0  0  0  0  0  0  0  0  0  0  0  0
  148.1623  138.7553  153.6187 H   0  0  0  0  0  0  0  0  0  0  0  0
  149.2415  139.9652  152.9605 H   0  0  0  0  0  0  0  0  0  0  0  0
  149.6107  138.4567  155.6053 H   0  0  0  0  0  0  0  0  0  0  0  0
  150.5500  138.2414  154.1392 H   0  0  0  0  0  0  0  0  0  0  0  0
  149.8186  140.5946  156.8001 H   0  0  0  0  0  0  0  0  0  0  0  0
  152.2074  141.6310  156.5465 H   0  0  0  0  0  0  0  0  0  0  0  0
  151.4747  142.7227  155.3841 H   0  0  0  0  0  0  0  0  0  0  0  0
  149.9509  143.4924  157.1852 H   0  0  0  0  0  0  0  0  0  0  0  0
  151.3143  144.9045  161.2554 H   0  0  0  0  0  0  0  0  0  0  0  0
  153.1078  143.2594  161.9374 H   0  0  0  0  0  0  0  0  0  0  0  0
  149.4946  142.1301  154.1723 H   0  0  0  0  0  0  0  0  0  0  0  0
  148.5646  142.3877  155.6301 H   0  0  0  0  0  0  0  0  0  0  0  0
  1  2  1  0  0  0  0
  1 21  1  0  0  0  0
  1 22  1  0  0  0  0
  1 23  1  0  0  0  0
  2  3  1  0  0  0  0
  2 24  1  0  0  0  0
  2 25  1  0  0  0  0
  3 20  1  0  0  0  0
  3  4  1  0  0  0  0
  4  5  1  0  0  0  0
  4 26  1  0  0  0  0
  4 27  1  0  0  0  0
  5  6  1  0  0  0  0
  5 28  1  0  0  0  0
  5 29  1  0  0  0  0
  6  7  1  0  0  0  0
  7  8  1  0  0  0  0
  7 20  1  0  0  0  0
  7 30  1  0  0  0  0
  8  9  1  0  0  0  0
  8 31  1  0  0  0  0
  8 32  1  0  0  0  0
  9 10  1  0  0  0  0
  9 33  1  0  0  0  0
 10 19  1  0  0  0  0
 10 11  2  0  0  0  0
 11 12  1  0  0  0  0
 12 13  2  0  0  0  0
 12 34  1  0  0  0  0
 13 14  1  0  0  0  0
 13 35  1  0  0  0  0
 14 15  1  0  0  0  0
 14 19  2  0  0  0  0
 15 16  1  0  0  0  0
 15 17  1  0  0  0  0
 15 18  1  0  0  0  0
 20 36  1  0  0  0  0
 20 37  1  0  0  0  0
M  END
> <s_m_source_file>
AV-unprocessed.smi

> <i_m_source_file_index>
1053

> <i_lp_mmshare_version>
43012

> <i_f3d_flags>
0

> <s_epik_input>
W0NIM11bQ0gyXU4xW0NIMl1bQ0gyXU9bQ0BIXShbQ0gyXTEpW0NIMl1bTkhdYzJuW2NIXVtjSF1jKG4yKUMoRikoRilG

> <s_epik_cmdline>
J2VwaWtfcHl0aG9uJywgJy1waCcsICc3LjAnLCAnLXRuJywgJzgnLCAnLW1hJywgJzIwMCcsICctbWV0YWxfYmluZGluZycsICctaW1hZScsICc8aW5maWxlLm1hZT4nLCAnLW9tYWUnLCAnPG91dGZpbGUubWFlPic=

> <r_lp_tautomer_probability>
1

> <r_epik_Ionization_Penalty>
0.797829

> <r_epik_Ionization_Penalty_Charging>
0

> <r_epik_Ionization_Penalty_Neutral>
0.797829

> <r_epik_State_Penalty>
0.828842

> <r_epik_Charging_Adjusted_Penalty>
0.828842

> <i_epik_Tot_Q>
0

> <i_epik_Tot_abs_Q>
0

> <r_epik_Metal_State_Penalty>
0.828842

> <b_epik_Metal_Only>
0

> <s_lp_Force_Field>
OPLS_2005

> <r_lp_Energy>
17.4925

> <b_lp_Chiralities_Consistent>
1

> <s_lp_Variant>
AV-unprocessed.smi:1053-5

> <Gold.Version>
5.8.1

> <Gold.Id.Protein>
6NUR|6NUR_protein|mol2

> <Gold.PLP.Fitness>
47.0562

> <Gold.PLP.PLP>
-41.7135

> <Gold.PLP.part.hbond>
-2.0000

> <Gold.PLP.part.metal>
0.0000

> <Gold.PLP.part.buried>
-4.1029

> <Gold.PLP.part.nonpolar>
-35.3823

> <Gold.PLP.part.repulsive>
0.2813

> <Gold.PLP.ligand.clash>
0.0000

> <Gold.PLP.ligand.torsion>
0.3351

> <Gold.PLP.Chemscore.Hbond>
2.0000

> <Gold.PLP.Chemscore.CHOScore>
0.0000

> <Gold.PLP.Chemscore.Metal>
0.0000

> <Gold.Chemscore.Hbonds>
donor molecule, donor type, donor heavy atom, donor atom, acceptor molecule, acceptor atom, score
      L1  H     9    33       P1  8028  0.45
      P1  H  7989  7998       L1     6  1.00

> <Gold.PLP.Chemscore.Internal.Correction>
0.0129

> <Gold.Rescore>
     Score         DG    S(hbond)    S(metal)    S(lipo)     H(rot)  DE(clash)    DE(int)     intcor
     15.53     -16.26       1.12        0.00      93.36       1.52       0.29       0.44       ----

> <Gold.Chemscore.Fitness>
15.5342

> <Gold.Chemscore.DG>
-16.2591

> <Gold.Chemscore.ZeroCoef>
-5.4800

> <Gold.Chemscore.Hbond>
1.1226

> <Gold.Chemscore.Metal>
0.0000

> <Gold.Chemscore.Lipo>
93.3577

> <Gold.Chemscore.Internal_Hbond>
0.0000

> <Gold.Chemscore.DEClash>
0.2895

> <Gold.Chemscore.DEInternal>
0.4355

> <Gold.Chemscore.Rot>
1.5208

> <Gold.Chemscore.Internal.Correction>
   9.000000E+99

> <Gold.Chemscore.Hbonds>
donor molecule, donor type, donor heavy atom, donor atom, acceptor molecule, acceptor atom, score
      L1  H     9    33       P1  8028  0.44
      P1  H  7989  7998       L1     6  0.44

> <Gold.Chemscore.Hbond.Weighted>
-3.7495

> <Gold.Chemscore.Metal.Weighted>
-0.0000

> <Gold.Chemscore.Lipo.Weighted>
-10.9229

> <Gold.Chemscore.Internal_Hbond.Weighted>
0.0000

> <Gold.Chemscore.DEClash.Weighted>
0.2895

> <Gold.Chemscore.DEInternal.Weighted>
0.4355

> <Gold.Chemscore.Rot.Weighted>
3.8932

> <Gold.Chemscore.Internal.Correction.Weighted>
   9.000000E+99

> <Gold.Protein.RotatedTorsions>
[ 6907 6896 6895 6894 ] final  121.85 input  -60.11 | X-H torsion
[ 7974 7965 7964 7962 ] final   76.65 input  175.53 | X-H torsion
[ 8008 7997 7996 7995 ] final  152.09 input   59.86 | X-H torsion
[ 10167 10162 10161 10158 ] final  139.27 input  -65.29 | X-H torsion
[ 10718 10713 10712 10709 ] final  -54.70 input   66.30 | X-H torsion
[ 10763 10752 10751 10750 ] final  -27.67 input  -60.55 | X-H torsion
[ 11005 11000 10999 10996 ] final   76.50 input  -57.11 | X-H torsion

> <Gold.Protein.ActiveResidues>
 VAL166  LYS551  ARG553  GLY616  TRP617  ASP618  TYR619  PRO620  LYS621  CYS622 
 ASP623  PHE694  ASN695  SER759  ASP760  ASP761  ALA762  ILE779  LEU786  VAL792 
 PHE793  MET794  SER795  GLU796  ALA797  LYS798  CYS799  TRP800  GLU811  SER814 

> <Gold.Protein.RotatedAtoms>
  152.4290  133.7244  159.6551 H   0  0  0  0  0  0  0  0  0  0  0  0  # atno 6907 bound_to 6896
  150.8168  133.8313  159.3163 H   0  0  0  0  0  0  0  0  0  0  0  0  # atno 6908 bound_to 6896
  151.6007  135.1049  160.0111 H   0  0  0  0  0  0  0  0  0  0  0  0  # atno 6909 bound_to 6896
  145.7001  139.2580  143.1710 H   0  0  0  0  0  0  0  0  0  0  0  0  # atno 7974 bound_to 7965
  156.2645  140.2030  156.6279 H   0  0  0  0  0  0  0  0  0  0  0  0  # atno 8008 bound_to 7997
  154.6706  140.0550  157.0186 H   0  0  0  0  0  0  0  0  0  0  0  0  # atno 8009 bound_to 7997
  155.1142  140.3218  155.4516 H   0  0  0  0  0  0  0  0  0  0  0  0  # atno 8010 bound_to 7997
  139.5084  144.6305  151.5830 H   0  0  0  0  0  0  0  0  0  0  0  0  # atno 10167 bound_to 10162
  156.1429  130.4154  150.0073 H   0  0  0  0  0  0  0  0  0  0  0  0  # atno 10718 bound_to 10713
  153.7359  135.6936  153.4978 H   0  0  0  0  0  0  0  0  0  0  0  0  # atno 10763 bound_to 10752
  153.2103  135.4405  155.0371 H   0  0  0  0  0  0  0  0  0  0  0  0  # atno 10764 bound_to 10752
  154.8237  135.3435  154.6887 H   0  0  0  0  0  0  0  0  0  0  0  0  # atno 10765 bound_to 10752
  139.9295  134.7606  156.1404 H   0  0  0  0  0  0  0  0  0  0  0  0  # atno 11005 bound_to 11000
  146.0805  140.7769  142.9644 LP  0  0  0  0  0  0  0  0  0  0  0  0  # atno 17320 bound_to 7965
  144.6971  140.3482  143.7187 LP  0  0  0  0  0  0  0  0  0  0  0  0  # atno 17321 bound_to 7965
  140.6036  143.9565  150.6403 LP  0  0  0  0  0  0  0  0  0  0  0  0  # atno 17342 bound_to 10162
  140.2785  143.3406  152.1173 LP  0  0  0  0  0  0  0  0  0  0  0  0  # atno 17343 bound_to 10162
  156.7953  130.9271  151.3646 LP  0  0  0  0  0  0  0  0  0  0  0  0  # atno 17370 bound_to 10713
  157.6591  130.8950  149.9792 LP  0  0  0  0  0  0  0  0  0  0  0  0  # atno 17371 bound_to 10713
  141.0875  133.6728  156.2468 LP  0  0  0  0  0  0  0  0  0  0  0  0  # atno 17394 bound_to 11000
  140.6241  134.5331  157.5551 LP  0  0  0  0  0  0  0  0  0  0  0  0  # atno 17395 bound_to 11000

$$$$
