AV-unprocessed.smi:3321|AV-procd|sdf|12771|dock10
  -GOLD-   2272019113D 1   1.00000     0.00000
 Structure written by MMmdl.
 40 41  0  0  0  0  0  0  0  0  1 V2000
  151.5024  138.9780  158.0398 C   0  0  0  0  0  0  0  0  0  0  0  0
  152.2584  140.1026  157.3151 C   0  0  2  0  0  0  0  0  0  0  0  0
  152.2424  141.3212  158.1465 N   0  0  0  0  0  0  0  0  0  0  0  0
  152.8364  141.1363  159.4665 C   0  0  0  0  0  0  0  0  0  0  0  0
  153.6828  142.3663  159.8216 C   0  0  0  0  0  0  0  0  0  0  0  0
  152.9208  143.5921  159.6829 N   0  0  0  0  0  0  0  0  0  0  0  0
  152.6519  144.3087  158.5359 C   0  0  0  0  0  0  0  0  0  0  0  0
  151.9082  145.3944  158.9008 C   0  0  0  0  0  0  0  0  0  0  0  0
  151.7733  145.2532  160.3106 C   0  0  0  0  0  0  0  0  0  0  0  0
  152.3813  144.1739  160.7759 N   0  0  0  0  0  0  0  0  0  0  0  0
  151.6641  140.3130  155.9020 C   0  0  0  0  0  0  0  0  0  0  0  0
  152.4027  140.1315  154.9317 O   0  0  0  0  0  0  0  0  0  0  0  0
  150.3659  140.6800  155.7535 N   0  0  0  0  0  0  0  0  0  0  0  0
  149.7031  140.7115  154.4428 C   0  0  0  0  0  0  0  0  0  0  0  0
  148.7162  139.5304  154.3701 C   0  0  0  0  0  0  0  0  0  0  0  0
  147.7125  139.5706  155.5404 C   0  0  0  0  0  0  0  0  0  0  0  0
  148.4178  139.7615  156.8982 C   0  0  0  0  0  0  0  0  0  0  0  0
  149.4043  140.9408  156.8329 C   0  0  0  0  0  0  0  0  0  0  0  0
  151.5282  138.0473  157.4718 H   0  0  0  0  0  0  0  0  0  0  0  0
  150.4553  139.2392  158.2000 H   0  0  0  0  0  0  0  0  0  0  0  0
  151.9453  138.7751  159.0153 H   0  0  0  0  0  0  0  0  0  0  0  0
  153.3049  139.8132  157.2349 H   0  0  0  0  0  0  0  0  0  0  0  0
  152.6815  142.0986  157.6740 H   0  0  0  0  0  0  0  0  0  0  0  0
  152.0484  140.9982  160.2084 H   0  0  0  0  0  0  0  0  0  0  0  0
  153.4651  140.2460  159.4895 H   0  0  0  0  0  0  0  0  0  0  0  0
  154.0422  142.2985  160.8495 H   0  0  0  0  0  0  0  0  0  0  0  0
  154.5639  142.4271  159.1805 H   0  0  0  0  0  0  0  0  0  0  0  0
  153.0093  143.9910  157.5673 H   0  0  0  0  0  0  0  0  0  0  0  0
  151.5207  146.1716  158.2590 H   0  0  0  0  0  0  0  0  0  0  0  0
  151.2560  145.8990  161.0050 H   0  0  0  0  0  0  0  0  0  0  0  0
  149.1709  141.6562  154.3235 H   0  0  0  0  0  0  0  0  0  0  0  0
  150.4032  140.6610  153.6080 H   0  0  0  0  0  0  0  0  0  0  0  0
  148.1826  139.5437  153.4193 H   0  0  0  0  0  0  0  0  0  0  0  0
  149.2725  138.5923  154.3996 H   0  0  0  0  0  0  0  0  0  0  0  0
  147.0191  140.3976  155.3827 H   0  0  0  0  0  0  0  0  0  0  0  0
  147.1097  138.6622  155.5524 H   0  0  0  0  0  0  0  0  0  0  0  0
  147.6790  139.9303  157.6821 H   0  0  0  0  0  0  0  0  0  0  0  0
  148.9543  138.8503  157.1667 H   0  0  0  0  0  0  0  0  0  0  0  0
  149.8630  141.1203  157.8031 H   0  0  0  0  0  0  0  0  0  0  0  0
  148.8609  141.8608  156.6126 H   0  0  0  0  0  0  0  0  0  0  0  0
  1  2  1  0  0  0  0
  1 19  1  0  0  0  0
  1 20  1  0  0  0  0
  1 21  1  0  0  0  0
  2  3  1  0  0  0  0
  2 11  1  0  0  0  0
  2 22  1  0  0  0  0
  3  4  1  0  0  0  0
  3 23  1  0  0  0  0
  4  5  1  0  0  0  0
  4 24  1  0  0  0  0
  4 25  1  0  0  0  0
  5  6  1  0  0  0  0
  5 26  1  0  0  0  0
  5 27  1  0  0  0  0
  6 10  1  0  0  0  0
  6  7  1  0  0  0  0
  7  8  2  0  0  0  0
  7 28  1  0  0  0  0
  8  9  1  0  0  0  0
  8 29  1  0  0  0  0
  9 10  2  0  0  0  0
  9 30  1  0  0  0  0
 11 12  2  0  0  0  0
 11 13  1  0  0  0  0
 13 18  1  0  0  0  0
 13 14  1  0  0  0  0
 14 15  1  0  0  0  0
 14 31  1  0  0  0  0
 14 32  1  0  0  0  0
 15 16  1  0  0  0  0
 15 33  1  0  0  0  0
 15 34  1  0  0  0  0
 16 17  1  0  0  0  0
 16 35  1  0  0  0  0
 16 36  1  0  0  0  0
 17 18  1  0  0  0  0
 17 37  1  0  0  0  0
 17 38  1  0  0  0  0
 18 39  1  0  0  0  0
 18 40  1  0  0  0  0
M  END
> <s_m_source_file>
AV-unprocessed.smi

> <i_m_source_file_index>
3321

> <i_lp_mmshare_version>
43012

> <i_f3d_flags>
0

> <s_epik_input>
W0NIMl0xW0NIMl1bQ0gyXVtDSDJdW0NIMl1OMUMoPU8pW0NASF0oW0NIM10pW05IXVtDSDJdW0NIMl1uMltjSF1bY0hdW2NIXW4y

> <s_epik_cmdline>
J2VwaWtfcHl0aG9uJywgJy1waCcsICc3LjAnLCAnLXRuJywgJzgnLCAnLW1hJywgJzIwMCcsICctbWV0YWxfYmluZGluZycsICctaW1hZScsICc8aW5maWxlLm1hZT4nLCAnLW9tYWUnLCAnPG91dGZpbGUubWFlPic=

> <r_lp_tautomer_probability>
1

> <r_epik_Ionization_Penalty>
0.736446

> <r_epik_Ionization_Penalty_Charging>
0

> <r_epik_Ionization_Penalty_Neutral>
0.736446

> <r_epik_State_Penalty>
0.761204

> <r_epik_Charging_Adjusted_Penalty>
0.761204

> <i_epik_Tot_Q>
0

> <i_epik_Tot_abs_Q>
0

> <r_epik_Metal_State_Penalty>
0.760551

> <b_epik_Metal_Only>
0

> <s_lp_Force_Field>
OPLS_2005

> <r_lp_Energy>
27.234

> <b_lp_Chiralities_Consistent>
1

> <s_lp_Variant>
AV-unprocessed.smi:3321-3

> <Gold.Version>
5.8.1

> <Gold.Id.Protein>
6NUR|6NUR_protein|mol2

> <Gold.PLP.Fitness>
42.9158

> <Gold.PLP.PLP>
-39.9501

> <Gold.PLP.part.hbond>
-1.7740

> <Gold.PLP.part.metal>
0.0000

> <Gold.PLP.part.buried>
-2.8935

> <Gold.PLP.part.nonpolar>
-35.7868

> <Gold.PLP.part.repulsive>
0.1188

> <Gold.PLP.ligand.clash>
0.0000

> <Gold.PLP.ligand.torsion>
0.6220

> <Gold.PLP.Chemscore.Hbond>
1.3820

> <Gold.PLP.Chemscore.CHOScore>
0.0000

> <Gold.PLP.Chemscore.Metal>
0.0000

> <Gold.Chemscore.Hbonds>
donor molecule, donor type, donor heavy atom, donor atom, acceptor molecule, acceptor atom, score
      P1  H  7989  7998       L1    12  0.58
      P1  H  7997  8010       L1    12  0.42

> <Gold.PLP.Chemscore.Internal.Correction>
0.0636

> <Gold.Rescore>
     Score         DG    S(hbond)    S(metal)    S(lipo)     H(rot)  DE(clash)    DE(int)     intcor
     13.19     -14.40       0.99        0.00      85.67       1.73       0.36       0.86       ----

> <Gold.Chemscore.Fitness>
13.1851

> <Gold.Chemscore.DG>
-14.4025

> <Gold.Chemscore.ZeroCoef>
-5.4800

> <Gold.Chemscore.Hbond>
0.9945

> <Gold.Chemscore.Metal>
0.0000

> <Gold.Chemscore.Lipo>
85.6731

> <Gold.Chemscore.Internal_Hbond>
0.0000

> <Gold.Chemscore.DEClash>
0.3597

> <Gold.Chemscore.DEInternal>
0.8577

> <Gold.Chemscore.Rot>
1.7277

> <Gold.Chemscore.Internal.Correction>
   9.000000E+99

> <Gold.Chemscore.Hbonds>
donor molecule, donor type, donor heavy atom, donor atom, acceptor molecule, acceptor atom, score
      P1  H  7989  7998       L1    12  0.43
      P1  H  7997  8010       L1    12  0.11

> <Gold.Chemscore.Hbond.Weighted>
-3.3216

> <Gold.Chemscore.Metal.Weighted>
-0.0000

> <Gold.Chemscore.Lipo.Weighted>
-10.0237

> <Gold.Chemscore.Internal_Hbond.Weighted>
0.0000

> <Gold.Chemscore.DEClash.Weighted>
0.3597

> <Gold.Chemscore.DEInternal.Weighted>
0.8577

> <Gold.Chemscore.Rot.Weighted>
4.4228

> <Gold.Chemscore.Internal.Correction.Weighted>
   9.000000E+99

> <Gold.Protein.RotatedTorsions>
[ 6907 6896 6895 6894 ] final  167.30 input  -60.11 | X-H torsion
[ 7974 7965 7964 7962 ] final   36.85 input  175.53 | X-H torsion
[ 8008 7997 7996 7995 ] final   99.75 input   59.86 | X-H torsion
[ 10167 10162 10161 10158 ] final -140.46 input  -65.29 | X-H torsion
[ 10718 10713 10712 10709 ] final   -4.64 input   66.30 | X-H torsion
[ 10763 10752 10751 10750 ] final -139.77 input  -60.55 | X-H torsion
[ 11005 11000 10999 10996 ] final  126.20 input  -57.11 | X-H torsion

> <Gold.Protein.ActiveResidues>
 VAL166  LYS551  ARG553  GLY616  TRP617  ASP618  TYR619  PRO620  LYS621  CYS622 
 ASP623  PHE694  ASN695  SER759  ASP760  ASP761  ALA762  ILE779  LEU786  VAL792 
 PHE793  MET794  SER795  GLU796  ALA797  LYS798  CYS799  TRP800  GLU811  SER814 

> <Gold.Protein.RotatedAtoms>
  151.8655  133.3465  159.3717 H   0  0  0  0  0  0  0  0  0  0  0  0  # atno 6907 bound_to 6896
  150.7167  134.5164  159.5642 H   0  0  0  0  0  0  0  0  0  0  0  0  # atno 6908 bound_to 6896
  152.2686  134.7957  160.0469 H   0  0  0  0  0  0  0  0  0  0  0  0  # atno 6909 bound_to 6896
  146.1181  139.5967  142.9308 H   0  0  0  0  0  0  0  0  0  0  0  0  # atno 7974 bound_to 7965
  156.1136  140.3224  155.8107 H   0  0  0  0  0  0  0  0  0  0  0  0  # atno 8008 bound_to 7997
  155.4630  140.0541  157.3006 H   0  0  0  0  0  0  0  0  0  0  0  0  # atno 8009 bound_to 7997
  154.4777  140.2039  155.9852 H   0  0  0  0  0  0  0  0  0  0  0  0  # atno 8010 bound_to 7997
  139.8279  143.7486  152.2666 H   0  0  0  0  0  0  0  0  0  0  0  0  # atno 10167 bound_to 10162
  156.7584  130.5261  149.5790 H   0  0  0  0  0  0  0  0  0  0  0  0  # atno 10718 bound_to 10713
  154.8599  135.3573  154.5600 H   0  0  0  0  0  0  0  0  0  0  0  0  # atno 10763 bound_to 10752
  153.6215  135.7006  153.5313 H   0  0  0  0  0  0  0  0  0  0  0  0  # atno 10764 bound_to 10752
  153.3125  135.4174  155.1308 H   0  0  0  0  0  0  0  0  0  0  0  0  # atno 10765 bound_to 10752
  139.9444  134.9631  156.8671 H   0  0  0  0  0  0  0  0  0  0  0  0  # atno 11005 bound_to 11000
  145.5524  141.0412  143.2271 LP  0  0  0  0  0  0  0  0  0  0  0  0  # atno 17320 bound_to 7965
  144.7572  139.7046  143.7249 LP  0  0  0  0  0  0  0  0  0  0  0  0  # atno 17321 bound_to 7965
  139.7684  144.7484  151.0260 LP  0  0  0  0  0  0  0  0  0  0  0  0  # atno 17342 bound_to 10162
  140.7809  143.4672  151.0196 LP  0  0  0  0  0  0  0  0  0  0  0  0  # atno 17343 bound_to 10162
  156.1355  130.6208  151.0395 LP  0  0  0  0  0  0  0  0  0  0  0  0  # atno 17370 bound_to 10713
  157.6746  131.0853  150.7527 LP  0  0  0  0  0  0  0  0  0  0  0  0  # atno 17371 bound_to 10713
  140.5871  134.0297  155.7485 LP  0  0  0  0  0  0  0  0  0  0  0  0  # atno 17394 bound_to 11000
  141.1090  133.9647  157.2945 LP  0  0  0  0  0  0  0  0  0  0  0  0  # atno 17395 bound_to 11000

$$$$
