AV-unprocessed.smi:342|AV-procd|sdf|2384|dock4
  -GOLD-   2262022313D 1   1.00000     0.00000
 Structure written by MMmdl.
 41 43  0  0  0  0  0  0  0  0  1 V2000
  150.8182  136.9177  160.1043 O   0  0  0  0  0  0  0  0  0  0  0  0
  151.6100  137.6342  159.1801 C   0  0  2  0  0  0  0  0  0  0  0  0
  151.3287  137.0834  157.7649 C   0  0  0  0  0  0  0  0  0  0  0  0
  151.6780  137.9783  156.6611 N   0  0  0  0  0  0  0  0  0  0  0  0
  151.2296  137.4744  155.3632 C   0  0  0  0  0  0  0  0  0  0  0  0
  151.5707  138.4465  154.2201 C   0  0  0  0  0  0  0  0  0  0  0  0
  151.0059  139.7247  154.4915 O   0  0  0  0  0  0  0  0  0  0  0  0
  151.4558  140.2711  155.7265 C   0  0  0  0  0  0  0  0  0  0  0  0
  151.1078  139.3051  156.8717 C   0  0  0  0  0  0  0  0  0  0  0  0
  153.0831  137.4933  159.6160 C   0  0  0  0  0  0  0  0  0  0  0  0
  153.5528  138.6305  160.3985 N   0  0  0  0  0  0  0  0  0  0  0  0
  154.4020  138.6393  161.4603 C   0  0  0  0  0  0  0  0  0  0  0  0
  155.0072  137.3823  162.0227 C   0  0  0  0  0  0  0  0  0  0  0  0
  155.6890  136.7211  161.0861 F   0  0  0  0  0  0  0  0  0  0  0  0
  155.8518  137.6708  163.0129 F   0  0  0  0  0  0  0  0  0  0  0  0
  154.0621  136.5651  162.4865 F   0  0  0  0  0  0  0  0  0  0  0  0
  154.6572  139.8419  161.9812 N   0  0  0  0  0  0  0  0  0  0  0  0
  153.8987  140.6862  161.1964 C   0  0  0  0  0  0  0  0  0  0  0  0
  153.7405  142.0896  161.2462 C   0  0  0  0  0  0  0  0  0  0  0  0
  152.8929  142.7453  160.3296 C   0  0  0  0  0  0  0  0  0  0  0  0
  152.1899  142.0079  159.3551 C   0  0  0  0  0  0  0  0  0  0  0  0
  152.3337  140.6087  159.2889 C   0  0  0  0  0  0  0  0  0  0  0  0
  153.1868  139.9592  160.2018 C   0  0  0  0  0  0  0  0  0  0  0  0
  149.9761  137.3432  160.1655 H   0  0  0  0  0  0  0  0  0  0  0  0
  151.3313  138.6836  159.2482 H   0  0  0  0  0  0  0  0  0  0  0  0
  151.8581  136.1404  157.6238 H   0  0  0  0  0  0  0  0  0  0  0  0
  150.2679  136.8351  157.7073 H   0  0  0  0  0  0  0  0  0  0  0  0
  151.6906  136.5126  155.1440 H   0  0  0  0  0  0  0  0  0  0  0  0
  150.1515  137.3064  155.3831 H   0  0  0  0  0  0  0  0  0  0  0  0
  152.6514  138.5369  154.1003 H   0  0  0  0  0  0  0  0  0  0  0  0
  151.1737  138.0751  153.2753 H   0  0  0  0  0  0  0  0  0  0  0  0
  152.5313  140.4500  155.6845 H   0  0  0  0  0  0  0  0  0  0  0  0
  150.9758  141.2367  155.8855 H   0  0  0  0  0  0  0  0  0  0  0  0
  150.0228  139.2319  156.9624 H   0  0  0  0  0  0  0  0  0  0  0  0
  151.4717  139.7194  157.8125 H   0  0  0  0  0  0  0  0  0  0  0  0
  153.2074  136.5959  160.2236 H   0  0  0  0  0  0  0  0  0  0  0  0
  153.7196  137.3569  158.7432 H   0  0  0  0  0  0  0  0  0  0  0  0
  154.2714  142.6626  161.9920 H   0  0  0  0  0  0  0  0  0  0  0  0
  152.7795  143.8185  160.3760 H   0  0  0  0  0  0  0  0  0  0  0  0
  151.5397  142.5171  158.6588 H   0  0  0  0  0  0  0  0  0  0  0  0
  151.7929  140.0436  158.5448 H   0  0  0  0  0  0  0  0  0  0  0  0
  1  2  1  0  0  0  0
  1 24  1  0  0  0  0
  2  3  1  0  0  0  0
  2 10  1  0  0  0  0
  2 25  1  0  0  0  0
  3  4  1  0  0  0  0
  3 26  1  0  0  0  0
  3 27  1  0  0  0  0
  4  9  1  0  0  0  0
  4  5  1  0  0  0  0
  5  6  1  0  0  0  0
  5 28  1  0  0  0  0
  5 29  1  0  0  0  0
  6  7  1  0  0  0  0
  6 30  1  0  0  0  0
  6 31  1  0  0  0  0
  7  8  1  0  0  0  0
  8  9  1  0  0  0  0
  8 32  1  0  0  0  0
  8 33  1  0  0  0  0
  9 34  1  0  0  0  0
  9 35  1  0  0  0  0
 10 11  1  0  0  0  0
 10 36  1  0  0  0  0
 10 37  1  0  0  0  0
 11 23  1  0  0  0  0
 11 12  1  0  0  0  0
 12 13  1  0  0  0  0
 12 17  2  0  0  0  0
 13 14  1  0  0  0  0
 13 15  1  0  0  0  0
 13 16  1  0  0  0  0
 17 18  1  0  0  0  0
 18 23  2  0  0  0  0
 18 19  1  0  0  0  0
 19 20  2  0  0  0  0
 19 38  1  0  0  0  0
 20 21  1  0  0  0  0
 20 39  1  0  0  0  0
 21 22  2  0  0  0  0
 21 40  1  0  0  0  0
 22 23  1  0  0  0  0
 22 41  1  0  0  0  0
M  END
> <s_m_source_file>
AV-unprocessed.smi

> <i_m_source_file_index>
342

> <i_lp_mmshare_version>
43012

> <i_f3d_flags>
0

> <s_epik_input>
W2NIXTFbY0hdW2NIXVtjSF1jKGMxMiluKGMobjIpQyhGKShGKUYpW0NIMl1bQ0BIXShbT0hdKVtDSDJdTjNbQ0gyXVtDSDJdT1tDSDJdW0NIMl0z

> <s_epik_cmdline>
J2VwaWtfcHl0aG9uJywgJy1waCcsICc3LjAnLCAnLXRuJywgJzgnLCAnLW1hJywgJzIwMCcsICctbWV0YWxfYmluZGluZycsICctaW1hZScsICc8aW5maWxlLm1hZT4nLCAnLW9tYWUnLCAnPG91dGZpbGUubWFlPic=

> <r_epik_Ionization_Penalty>
0.263195

> <r_epik_Ionization_Penalty_Charging>
0

> <r_epik_Ionization_Penalty_Neutral>
0.263195

> <r_epik_State_Penalty>
0.254683

> <r_epik_Charging_Adjusted_Penalty>
0.254683

> <i_epik_Tot_Q>
0

> <i_epik_Tot_abs_Q>
0

> <r_epik_Metal_State_Penalty>
0.254691

> <b_epik_Metal_Only>
0

> <s_lp_Force_Field>
OPLS_2005

> <r_lp_Energy>
34.5918

> <b_lp_Chiralities_Consistent>
1

> <s_lp_Variant>
AV-unprocessed.smi:342-1

> <Gold.Version>
5.8.1

> <Gold.Id.Protein>
6NUR|6NUR_protein|mol2

> <Gold.PLP.Fitness>
40.6231

> <Gold.PLP.PLP>
-37.0366

> <Gold.PLP.part.hbond>
-2.8329

> <Gold.PLP.part.metal>
0.0000

> <Gold.PLP.part.buried>
-2.6156

> <Gold.PLP.part.nonpolar>
-31.9791

> <Gold.PLP.part.repulsive>
0.1139

> <Gold.PLP.ligand.clash>
0.0000

> <Gold.PLP.ligand.torsion>
1.1082

> <Gold.PLP.Chemscore.Hbond>
1.9000

> <Gold.PLP.Chemscore.CHOScore>
0.0000

> <Gold.PLP.Chemscore.Metal>
0.0000

> <Gold.Chemscore.Hbonds>
donor molecule, donor type, donor heavy atom, donor atom, acceptor molecule, acceptor atom, score
      P1  H  6896  6908       L1     1  1.00
      P1  H  7989  7998       L1     7  0.90

> <Gold.PLP.Chemscore.Internal.Correction>
0.1029

> <Gold.Rescore>
     Score         DG    S(hbond)    S(metal)    S(lipo)     H(rot)  DE(clash)    DE(int)     intcor
     13.32     -14.63       0.96        0.00      99.79       2.24       0.44       0.88       ----

> <Gold.Chemscore.Fitness>
13.3199

> <Gold.Chemscore.DG>
-14.6348

> <Gold.Chemscore.ZeroCoef>
-5.4800

> <Gold.Chemscore.Hbond>
0.9639

> <Gold.Chemscore.Metal>
0.0000

> <Gold.Chemscore.Lipo>
99.7898

> <Gold.Chemscore.Internal_Hbond>
0.0000

> <Gold.Chemscore.DEClash>
0.4372

> <Gold.Chemscore.DEInternal>
0.8777

> <Gold.Chemscore.Rot>
2.2421

> <Gold.Chemscore.Internal.Correction>
   9.000000E+99

> <Gold.Chemscore.Hbonds>
donor molecule, donor type, donor heavy atom, donor atom, acceptor molecule, acceptor atom, score
      P1  H  6896  6908       L1     1  0.65
      P1  H  7989  7998       L1     7  0.14

> <Gold.Chemscore.Hbond.Weighted>
-3.2193

> <Gold.Chemscore.Metal.Weighted>
-0.0000

> <Gold.Chemscore.Lipo.Weighted>
-11.6754

> <Gold.Chemscore.Internal_Hbond.Weighted>
0.0000

> <Gold.Chemscore.DEClash.Weighted>
0.4372

> <Gold.Chemscore.DEInternal.Weighted>
0.8777

> <Gold.Chemscore.Rot.Weighted>
5.7399

> <Gold.Chemscore.Internal.Correction.Weighted>
   9.000000E+99

> <Gold.Protein.RotatedTorsions>
[ 6907 6896 6895 6894 ] final -145.59 input  -60.11 | X-H torsion
[ 7974 7965 7964 7962 ] final  103.67 input  175.53 | X-H torsion
[ 8008 7997 7996 7995 ] final -153.03 input   59.86 | X-H torsion
[ 10167 10162 10161 10158 ] final -133.58 input  -65.29 | X-H torsion
[ 10718 10713 10712 10709 ] final  136.52 input   66.30 | X-H torsion
[ 10763 10752 10751 10750 ] final  -33.77 input  -60.55 | X-H torsion
[ 11005 11000 10999 10996 ] final -164.69 input  -57.11 | X-H torsion

> <Gold.Protein.ActiveResidues>
 VAL166  LYS551  ARG553  GLY616  TRP617  ASP618  TYR619  PRO620  LYS621  CYS622 
 ASP623  PHE694  ASN695  SER759  ASP760  ASP761  ALA762  ILE779  LEU786  VAL792 
 PHE793  MET794  SER795  GLU796  ALA797  LYS798  CYS799  TRP800  GLU811  SER814 

> <Gold.Protein.RotatedAtoms>
  151.1299  133.5044  159.2599 H   0  0  0  0  0  0  0  0  0  0  0  0  # atno 6907 bound_to 6896
  151.1769  135.0343  159.8786 H   0  0  0  0  0  0  0  0  0  0  0  0  # atno 6908 bound_to 6896
  152.5459  134.1155  159.8430 H   0  0  0  0  0  0  0  0  0  0  0  0  # atno 6909 bound_to 6896
  145.3428  139.2458  143.3600 H   0  0  0  0  0  0  0  0  0  0  0  0  # atno 7974 bound_to 7965
  155.6644  140.0726  157.2542 H   0  0  0  0  0  0  0  0  0  0  0  0  # atno 8008 bound_to 7997
  154.4136  140.1710  156.1862 H   0  0  0  0  0  0  0  0  0  0  0  0  # atno 8009 bound_to 7997
  155.9670  140.3365  155.6544 H   0  0  0  0  0  0  0  0  0  0  0  0  # atno 8010 bound_to 7997
  139.8968  143.6655  152.2602 H   0  0  0  0  0  0  0  0  0  0  0  0  # atno 10167 bound_to 10162
  157.4458  131.1061  151.0091 H   0  0  0  0  0  0  0  0  0  0  0  0  # atno 10718 bound_to 10713
  153.8358  135.6862  153.4809 H   0  0  0  0  0  0  0  0  0  0  0  0  # atno 10763 bound_to 10752
  153.1483  135.4628  154.9598 H   0  0  0  0  0  0  0  0  0  0  0  0  # atno 10764 bound_to 10752
  154.7867  135.3287  154.7816 H   0  0  0  0  0  0  0  0  0  0  0  0  # atno 10765 bound_to 10752
  140.5841  134.5112  157.5183 H   0  0  0  0  0  0  0  0  0  0  0  0  # atno 11005 bound_to 11000
  146.3000  140.4029  142.8707 LP  0  0  0  0  0  0  0  0  0  0  0  0  # atno 17320 bound_to 7965
  144.8777  140.7358  143.6006 LP  0  0  0  0  0  0  0  0  0  0  0  0  # atno 17321 bound_to 7965
  139.7060  144.7628  151.1192 LP  0  0  0  0  0  0  0  0  0  0  0  0  # atno 17342 bound_to 10162
  140.7715  143.5394  150.9331 LP  0  0  0  0  0  0  0  0  0  0  0  0  # atno 17343 bound_to 10162
  157.0938  130.5953  149.5445 LP  0  0  0  0  0  0  0  0  0  0  0  0  # atno 17370 bound_to 10713
  155.9967  130.5036  150.7505 LP  0  0  0  0  0  0  0  0  0  0  0  0  # atno 17371 bound_to 10713
  139.9304  134.7975  156.0948 LP  0  0  0  0  0  0  0  0  0  0  0  0  # atno 17394 bound_to 11000
  141.0977  133.6689  156.2683 LP  0  0  0  0  0  0  0  0  0  0  0  0  # atno 17395 bound_to 11000

$$$$
