AV-unprocessed.smi:101|AV-procd|sdf|927|dock5
  -GOLD-   2262017443D 1   1.00000     0.00000
 Structure written by MMmdl.
 44 46  0  0  0  0  0  0  0  0  1 V2000
  145.1083  136.6868  155.5711 C   0  0  0  0  0  0  0  0  0  0  0  0
  145.6024  137.3127  154.2776 C   0  0  0  0  0  0  0  0  0  0  0  0
  146.5430  138.2911  154.2558 C   0  0  0  0  0  0  0  0  0  0  0  0
  147.0102  138.8856  153.0923 N   0  0  0  0  0  0  0  0  0  0  0  0
  148.0611  139.9735  153.1477 C   0  0  2  0  0  0  0  0  0  0  0  0
  149.1088  139.5295  153.9536 O   0  0  0  0  0  0  0  0  0  0  0  0
  149.5997  140.6202  154.7219 C   0  0  2  0  0  0  0  0  0  0  0  0
  150.3905  140.1237  155.9403 C   0  0  0  0  0  0  0  0  0  0  0  0
  150.8509  141.2434  156.6786 O   0  0  0  0  0  0  0  0  0  0  0  0
  151.8506  141.0991  157.5695 C   0  0  0  0  0  0  0  0  0  0  0  0
  152.5870  140.1113  157.6137 O   0  0  0  0  0  0  0  0  0  0  0  0
  151.9724  142.2597  158.4982 C   0  0  0  0  0  0  0  0  0  0  0  0
  152.4984  142.0569  159.7953 C   0  0  0  0  0  0  0  0  0  0  0  0
  152.6260  143.1335  160.6942 C   0  0  0  0  0  0  0  0  0  0  0  0
  152.2295  144.4268  160.3068 C   0  0  0  0  0  0  0  0  0  0  0  0
  151.7060  144.6422  159.0187 C   0  0  0  0  0  0  0  0  0  0  0  0
  151.5773  143.5666  158.1184 C   0  0  0  0  0  0  0  0  0  0  0  0
  148.3409  141.4415  155.0313 C   0  0  2  0  0  0  0  0  0  0  0  0
  147.6604  140.9240  156.1630 O   0  0  0  0  0  0  0  0  0  0  0  0
  147.5372  141.3013  153.7396 C   0  0  2  0  0  0  0  0  0  0  0  0
  146.1344  141.3822  153.9324 O   0  0  0  0  0  0  0  0  0  0  0  0
  146.4872  138.4763  151.8479 C   0  0  0  0  0  0  0  0  0  0  0  0
  146.8348  138.9708  150.7761 O   0  0  0  0  0  0  0  0  0  0  0  0
  145.5256  137.4674  151.8692 N   0  0  0  0  0  0  0  0  0  0  0  0
  145.0323  136.8368  153.0142 C   0  0  0  0  0  0  0  0  0  0  0  0
  144.1819  135.9553  152.9034 O   0  0  0  0  0  0  0  0  0  0  0  0
  145.1489  137.1702  150.9810 H   0  0  0  0  0  0  0  0  0  0  0  0
  145.5948  137.1243  156.4434 H   0  0  0  0  0  0  0  0  0  0  0  0
  145.3097  135.6151  155.5777 H   0  0  0  0  0  0  0  0  0  0  0  0
  144.0332  136.8349  155.6793 H   0  0  0  0  0  0  0  0  0  0  0  0
  146.9470  138.6280  155.1989 H   0  0  0  0  0  0  0  0  0  0  0  0
  148.4569  140.0974  152.1385 H   0  0  0  0  0  0  0  0  0  0  0  0
  150.2506  141.2185  154.0811 H   0  0  0  0  0  0  0  0  0  0  0  0
  149.7462  139.5186  156.5795 H   0  0  0  0  0  0  0  0  0  0  0  0
  151.2298  139.5003  155.6279 H   0  0  0  0  0  0  0  0  0  0  0  0
  152.8102  141.0731  160.1157 H   0  0  0  0  0  0  0  0  0  0  0  0
  153.0287  142.9661  161.6822 H   0  0  0  0  0  0  0  0  0  0  0  0
  152.3271  145.2521  160.9965 H   0  0  0  0  0  0  0  0  0  0  0  0
  151.4022  145.6346  158.7195 H   0  0  0  0  0  0  0  0  0  0  0  0
  151.1725  143.7672  157.1372 H   0  0  0  0  0  0  0  0  0  0  0  0
  148.5854  142.4841  155.2376 H   0  0  0  0  0  0  0  0  0  0  0  0
  147.9859  141.3576  156.9370 H   0  0  0  0  0  0  0  0  0  0  0  0
  147.8319  142.0953  153.0520 H   0  0  0  0  0  0  0  0  0  0  0  0
  145.7057  140.9923  153.1864 H   0  0  0  0  0  0  0  0  0  0  0  0
  1  2  1  0  0  0  0
  1 28  1  0  0  0  0
  1 29  1  0  0  0  0
  1 30  1  0  0  0  0
  2 25  1  0  0  0  0
  2  3  2  0  0  0  0
  3  4  1  0  0  0  0
  3 31  1  0  0  0  0
  4  5  1  0  0  0  0
  4 22  1  0  0  0  0
  5 20  1  0  0  0  0
  5  6  1  0  0  0  0
  5 32  1  0  0  0  0
  6  7  1  0  0  0  0
  7  8  1  0  0  0  0
  7 18  1  0  0  0  0
  7 33  1  0  0  0  0
  8  9  1  0  0  0  0
  8 34  1  0  0  0  0
  8 35  1  0  0  0  0
  9 10  1  0  0  0  0
 10 11  2  0  0  0  0
 10 12  1  0  0  0  0
 12 17  1  0  0  0  0
 12 13  2  0  0  0  0
 13 14  1  0  0  0  0
 13 36  1  0  0  0  0
 14 15  2  0  0  0  0
 14 37  1  0  0  0  0
 15 16  1  0  0  0  0
 15 38  1  0  0  0  0
 16 17  2  0  0  0  0
 16 39  1  0  0  0  0
 17 40  1  0  0  0  0
 18 19  1  0  0  0  0
 18 20  1  0  0  0  0
 18 41  1  0  0  0  0
 19 42  1  0  0  0  0
 20 21  1  0  0  0  0
 20 43  1  0  0  0  0
 21 44  1  0  0  0  0
 22 23  2  0  0  0  0
 22 24  1  0  0  0  0
 24 27  1  0  0  0  0
 24 25  1  0  0  0  0
 25 26  2  0  0  0  0
M  END
> <s_m_source_file>
AV-unprocessed.smi

> <i_m_source_file_index>
101

> <i_lp_mmshare_version>
43012

> <i_f3d_flags>
0

> <s_epik_input>
Tz1jMVtuSF1jKD1PKW4oW2NIXWMxW0NIM10pW0NAQEhdMk9bQ0BIXShbQ0BASF0oW09IXSlbQ0BIXTJbT0hdKVtDSDJdT0MoPU8pYzNbY0hdW2NIXVtjSF1bY0hdW2NIXTM=

> <s_epik_cmdline>
J2VwaWtfcHl0aG9uJywgJy1waCcsICc3LjAnLCAnLXRuJywgJzgnLCAnLW1hJywgJzIwMCcsICctbWV0YWxfYmluZGluZycsICctaW1hZScsICc8aW5maWxlLm1hZT4nLCAnLW9tYWUnLCAnPG91dGZpbGUubWFlPic=

> <r_lp_tautomer_probability>
0.999537

> <r_epik_Ionization_Penalty>
0.00263537

> <r_epik_Ionization_Penalty_Charging>
0.00263428

> <r_epik_Ionization_Penalty_Neutral>
1.09111e-06

> <r_epik_State_Penalty>
0.00183335

> <r_epik_Charging_Adjusted_Penalty>
0.00446763

> <i_epik_Tot_Q>
0

> <i_epik_Tot_abs_Q>
0

> <r_epik_Metal_State_Penalty>
1.00528

> <b_epik_Metal_Only>
0

> <s_epik_Chemistry_Notes>
This compound has an ester and may undergo hydrolysis at high or low pH. This compound contains an acetal/aminal-like group ( X-CH(R)-Y where X, Y are N, S, or O) that may be acid/base labile, releasing an aldehyde.

> <s_lp_Force_Field>
OPLS_2005

> <r_lp_Energy>
42.5315

> <b_lp_Chiralities_Consistent>
1

> <s_lp_Variant>
AV-unprocessed.smi:101-15

> <Gold.Version>
5.8.1

> <Gold.Id.Protein>
6NUR|6NUR_protein|mol2

> <Gold.PLP.Fitness>
48.6643

> <Gold.PLP.PLP>
-42.8969

> <Gold.PLP.part.hbond>
-4.0000

> <Gold.PLP.part.metal>
0.0000

> <Gold.PLP.part.buried>
-3.1861

> <Gold.PLP.part.nonpolar>
-39.0589

> <Gold.PLP.part.repulsive>
2.9034

> <Gold.PLP.ligand.clash>
0.0000

> <Gold.PLP.ligand.torsion>
0.8000

> <Gold.PLP.Chemscore.Hbond>
2.4141

> <Gold.PLP.Chemscore.CHOScore>
0.0000

> <Gold.PLP.Chemscore.Metal>
0.0000

> <Gold.Chemscore.Hbonds>
donor molecule, donor type, donor heavy atom, donor atom, acceptor molecule, acceptor atom, score
      L1  H    21    44       P1 10175  0.47
      L1  H    24    27       P1 10171  0.19
      P1  H  7954  7966       L1    23  0.74
      P1  H  7997  8009       L1    11  1.00

> <Gold.PLP.Chemscore.Internal.Correction>
0.1252

> <Gold.Rescore>
     Score         DG    S(hbond)    S(metal)    S(lipo)     H(rot)  DE(clash)    DE(int)     intcor
     13.91     -16.38       2.38        0.00      97.74       3.32       1.59       0.88       ----

> <Gold.Chemscore.Fitness>
13.9076

> <Gold.Chemscore.DG>
-16.3796

> <Gold.Chemscore.ZeroCoef>
-5.4800

> <Gold.Chemscore.Hbond>
2.3822

> <Gold.Chemscore.Metal>
0.0000

> <Gold.Chemscore.Lipo>
97.7371

> <Gold.Chemscore.Internal_Hbond>
0.0000

> <Gold.Chemscore.DEClash>
1.5916

> <Gold.Chemscore.DEInternal>
0.8804

> <Gold.Chemscore.Rot>
3.3172

> <Gold.Chemscore.Internal.Correction>
   9.000000E+99

> <Gold.Chemscore.Hbonds>
donor molecule, donor type, donor heavy atom, donor atom, acceptor molecule, acceptor atom, score
      L1  H    21    44       P1 10175  0.21
      L1  H    24    27       P1 10171  0.18
      P1  H  7954  7966       L1    23  0.60
      P1  H  7997  8009       L1    11  0.91

> <Gold.Chemscore.Hbond.Weighted>
-7.9564

> <Gold.Chemscore.Metal.Weighted>
-0.0000

> <Gold.Chemscore.Lipo.Weighted>
-11.4352

> <Gold.Chemscore.Internal_Hbond.Weighted>
0.0000

> <Gold.Chemscore.DEClash.Weighted>
1.5916

> <Gold.Chemscore.DEInternal.Weighted>
0.8804

> <Gold.Chemscore.Rot.Weighted>
8.4920

> <Gold.Chemscore.Internal.Correction.Weighted>
   9.000000E+99

> <Gold.Protein.RotatedTorsions>
[ 6907 6896 6895 6894 ] final -154.63 input  -60.11 | X-H torsion
[ 7974 7965 7964 7962 ] final  100.87 input  175.53 | X-H torsion
[ 8008 7997 7996 7995 ] final  175.34 input   59.86 | X-H torsion
[ 10167 10162 10161 10158 ] final -114.03 input  -65.29 | X-H torsion
[ 10718 10713 10712 10709 ] final  -19.21 input   66.30 | X-H torsion
[ 10763 10752 10751 10750 ] final   15.47 input  -60.55 | X-H torsion
[ 11005 11000 10999 10996 ] final -144.24 input  -57.11 | X-H torsion

> <Gold.Protein.ActiveResidues>
 VAL166  LYS551  ARG553  GLY616  TRP617  ASP618  TYR619  PRO620  LYS621  CYS622 
 ASP623  PHE694  ASN695  SER759  ASP760  ASP761  ALA762  ILE779  LEU786  VAL792 
 PHE793  MET794  SER795  GLU796  ALA797  LYS798  CYS799  TRP800  GLU811  SER814 

> <Gold.Protein.RotatedAtoms>
  151.2604  133.4305  159.2615 H   0  0  0  0  0  0  0  0  0  0  0  0  # atno 6907 bound_to 6896
  151.0536  134.9690  159.8234 H   0  0  0  0  0  0  0  0  0  0  0  0  # atno 6908 bound_to 6896
  152.5387  134.2557  159.8968 H   0  0  0  0  0  0  0  0  0  0  0  0  # atno 6909 bound_to 6896
  145.3798  139.2382  143.3409 H   0  0  0  0  0  0  0  0  0  0  0  0  # atno 7974 bound_to 7965
  156.0881  140.1411  156.9627 H   0  0  0  0  0  0  0  0  0  0  0  0  # atno 8008 bound_to 7997
  154.4625  140.0938  156.6979 H   0  0  0  0  0  0  0  0  0  0  0  0  # atno 8009 bound_to 7997
  155.4965  140.3449  155.4366 H   0  0  0  0  0  0  0  0  0  0  0  0  # atno 8010 bound_to 7997
  140.1054  143.4575  152.1786 H   0  0  0  0  0  0  0  0  0  0  0  0  # atno 10167 bound_to 10162
  156.5488  130.4696  149.6462 H   0  0  0  0  0  0  0  0  0  0  0  0  # atno 10718 bound_to 10713
  153.1522  135.6780  153.8865 H   0  0  0  0  0  0  0  0  0  0  0  0  # atno 10763 bound_to 10752
  153.8287  135.3120  155.3418 H   0  0  0  0  0  0  0  0  0  0  0  0  # atno 10764 bound_to 10752
  154.7871  135.4856  154.0056 H   0  0  0  0  0  0  0  0  0  0  0  0  # atno 10765 bound_to 10752
  140.8044  134.2818  157.4966 H   0  0  0  0  0  0  0  0  0  0  0  0  # atno 11005 bound_to 11000
  146.2847  140.4464  142.8762 LP  0  0  0  0  0  0  0  0  0  0  0  0  # atno 17320 bound_to 7965
  144.8516  140.7009  143.6165 LP  0  0  0  0  0  0  0  0  0  0  0  0  # atno 17321 bound_to 7965
  139.5648  144.7428  151.4053 LP  0  0  0  0  0  0  0  0  0  0  0  0  # atno 17342 bound_to 10162
  140.6955  143.7760  150.7320 LP  0  0  0  0  0  0  0  0  0  0  0  0  # atno 17343 bound_to 10162
  156.2904  130.7121  151.1968 LP  0  0  0  0  0  0  0  0  0  0  0  0  # atno 17370 bound_to 10713
  157.7391  131.0532  150.5250 LP  0  0  0  0  0  0  0  0  0  0  0  0  # atno 17371 bound_to 10713
  139.8719  134.9448  156.3891 LP  0  0  0  0  0  0  0  0  0  0  0  0  # atno 17394 bound_to 11000
  140.9262  133.7611  155.9967 LP  0  0  0  0  0  0  0  0  0  0  0  0  # atno 17395 bound_to 11000

$$$$
