AV-unprocessed.smi:98|AV-procd|sdf|863|dock10
  -GOLD-   2262017313D 1   1.00000     0.00000
 Structure written by MMmdl.
 56 59  0  0  0  0  0  0  0  0  1 V2000
  151.8808  137.0550  159.4353 O   0  0  0  0  0  0  0  0  0  0  0  0
  151.3091  137.4924  158.4361 C   0  0  0  0  0  0  0  0  0  0  0  0
  152.1041  138.2151  157.3366 C   0  0  0  0  0  0  0  0  0  0  0  0
  151.7118  139.6300  157.1536 N   0  0  0  0  0  0  0  0  0  0  0  0
  150.7041  139.9339  156.2045 C   0  0  0  0  0  0  0  0  0  0  0  0
  150.1774  139.0498  155.5274 O   0  0  0  0  0  0  0  0  0  0  0  0
  150.3381  141.3418  156.1034 C   0  0  0  0  0  0  0  0  0  0  0  0
  149.3792  141.7207  155.2416 F   0  0  0  0  0  0  0  0  0  0  0  0
  150.9453  142.2732  156.8670 C   0  0  0  0  0  0  0  0  0  0  0  0
  151.9432  141.9677  157.7713 N   0  0  0  0  0  0  0  0  0  0  0  0
  152.5360  143.0714  158.6163 C   0  0  2  0  0  0  0  0  0  0  0  0
  152.2677  142.9052  160.1240 C   0  0  0  0  0  0  0  0  0  0  0  0
  151.5376  144.1892  160.4828 C   0  0  0  0  0  0  0  0  0  0  0  0
  151.9366  145.1339  159.3546 C   0  0  0  0  0  0  0  0  0  0  0  0
  151.9796  144.2862  158.2175 O   0  0  0  0  0  0  0  0  0  0  0  0
  152.3275  140.6195  157.9575 C   0  0  0  0  0  0  0  0  0  0  0  0
  153.1699  140.3106  158.8016 O   0  0  0  0  0  0  0  0  0  0  0  0
  149.9848  137.4024  158.2143 N   0  0  0  0  0  0  0  0  0  0  0  0
  148.9815  136.8159  159.0326 C   0  0  0  0  0  0  0  0  0  0  0  0
  149.2613  136.7040  160.4114 C   0  0  0  0  0  0  0  0  0  0  0  0
  148.3137  136.1481  161.2920 C   0  0  0  0  0  0  0  0  0  0  0  0
  147.0694  135.7161  160.7933 C   0  0  0  0  0  0  0  0  0  0  0  0
  145.8617  135.0059  161.9078 S   0  0  0  0  0  0  0  0  0  0  0  0
  144.9327  134.1818  161.1185 O   0  0  0  0  0  0  0  0  0  0  0  0
  146.5769  134.4148  163.0498 O   0  0  0  0  0  0  0  0  0  0  0  0
  144.9810  136.3890  162.4901 N   0  0  0  0  0  0  0  0  0  0  0  0
  143.5708  136.2399  162.8899 C   0  0  0  0  0  0  0  0  0  0  0  0
  142.6261  136.7726  161.7979 C   0  0  0  0  0  0  0  0  0  0  0  0
  142.9734  138.1085  161.4624 O   0  0  0  0  0  0  0  0  0  0  0  0
  144.2879  138.1948  160.9314 C   0  0  0  0  0  0  0  0  0  0  0  0
  145.3129  137.7315  161.9819 C   0  0  0  0  0  0  0  0  0  0  0  0
  146.7734  135.8275  159.4210 C   0  0  0  0  0  0  0  0  0  0  0  0
  147.7232  136.3848  158.5436 C   0  0  0  0  0  0  0  0  0  0  0  0
  153.1665  138.1253  157.5680 H   0  0  0  0  0  0  0  0  0  0  0  0
  151.9914  137.6630  156.4019 H   0  0  0  0  0  0  0  0  0  0  0  0
  150.6328  143.3015  156.7578 H   0  0  0  0  0  0  0  0  0  0  0  0
  153.6046  143.0778  158.3965 H   0  0  0  0  0  0  0  0  0  0  0  0
  151.6905  142.0085  160.3516 H   0  0  0  0  0  0  0  0  0  0  0  0
  153.2253  142.8398  160.6415 H   0  0  0  0  0  0  0  0  0  0  0  0
  150.4598  144.0259  160.4662 H   0  0  0  0  0  0  0  0  0  0  0  0
  151.8048  144.5697  161.4688 H   0  0  0  0  0  0  0  0  0  0  0  0
  151.2303  145.9534  159.2206 H   0  0  0  0  0  0  0  0  0  0  0  0
  152.9269  145.5561  159.5327 H   0  0  0  0  0  0  0  0  0  0  0  0
  149.6462  137.8782  157.3906 H   0  0  0  0  0  0  0  0  0  0  0  0
  150.2114  137.0409  160.8005 H   0  0  0  0  0  0  0  0  0  0  0  0
  148.5422  136.0647  162.3442 H   0  0  0  0  0  0  0  0  0  0  0  0
  143.3440  135.1993  163.1203 H   0  0  0  0  0  0  0  0  0  0  0  0
  143.4137  136.8035  163.8100 H   0  0  0  0  0  0  0  0  0  0  0  0
  142.6550  136.1464  160.9064 H   0  0  0  0  0  0  0  0  0  0  0  0
  141.5971  136.7570  162.1571 H   0  0  0  0  0  0  0  0  0  0  0  0
  144.3602  137.6042  160.0182 H   0  0  0  0  0  0  0  0  0  0  0  0
  144.4852  139.2296  160.6512 H   0  0  0  0  0  0  0  0  0  0  0  0
  145.3085  138.4266  162.8221 H   0  0  0  0  0  0  0  0  0  0  0  0
  146.3213  137.7486  161.5696 H   0  0  0  0  0  0  0  0  0  0  0  0
  145.8171  135.5016  159.0392 H   0  0  0  0  0  0  0  0  0  0  0  0
  147.4578  136.4827  157.5025 H   0  0  0  0  0  0  0  0  0  0  0  0
  1  2  2  0  0  0  0
  2  3  1  0  0  0  0
  2 18  1  0  0  0  0
  3  4  1  0  0  0  0
  3 34  1  0  0  0  0
  3 35  1  0  0  0  0
  4 16  1  0  0  0  0
  4  5  1  0  0  0  0
  5  6  2  0  0  0  0
  5  7  1  0  0  0  0
  7  8  1  0  0  0  0
  7  9  2  0  0  0  0
  9 10  1  0  0  0  0
  9 36  1  0  0  0  0
 10 11  1  0  0  0  0
 10 16  1  0  0  0  0
 11 15  1  0  0  0  0
 11 12  1  0  0  0  0
 11 37  1  0  0  0  0
 12 13  1  0  0  0  0
 12 38  1  0  0  0  0
 12 39  1  0  0  0  0
 13 14  1  0  0  0  0
 13 40  1  0  0  0  0
 13 41  1  0  0  0  0
 14 15  1  0  0  0  0
 14 42  1  0  0  0  0
 14 43  1  0  0  0  0
 16 17  2  0  0  0  0
 18 19  1  0  0  0  0
 18 44  1  0  0  0  0
 19 33  1  0  0  0  0
 19 20  2  0  0  0  0
 20 21  1  0  0  0  0
 20 45  1  0  0  0  0
 21 22  2  0  0  0  0
 21 46  1  0  0  0  0
 22 23  1  0  0  0  0
 22 32  1  0  0  0  0
 23 24  2  0  0  0  0
 23 25  2  0  0  0  0
 23 26  1  0  0  0  0
 26 31  1  0  0  0  0
 26 27  1  0  0  0  0
 27 28  1  0  0  0  0
 27 47  1  0  0  0  0
 27 48  1  0  0  0  0
 28 29  1  0  0  0  0
 28 49  1  0  0  0  0
 28 50  1  0  0  0  0
 29 30  1  0  0  0  0
 30 31  1  0  0  0  0
 30 51  1  0  0  0  0
 30 52  1  0  0  0  0
 31 53  1  0  0  0  0
 31 54  1  0  0  0  0
 32 33  2  0  0  0  0
 32 55  1  0  0  0  0
 33 56  1  0  0  0  0
M  END
> <s_m_source_file>
AV-unprocessed.smi

> <i_m_source_file_index>
98

> <i_lp_mmshare_version>
43012

> <i_f3d_flags>
0

> <s_epik_input>
TzFbQ0gyXVtDSDJdW0NIMl1bQ0BIXTFuKGMyPU8pW2NIXWMoRiljKD1PKW4yW0NIMl1DKD1PKVtOSF1jM1tjSF1bY0hdYyhbY0hdW2NIXTMpUyg9TykoPU8pTjRbQ0gyXVtDSDJdT1tDSDJdW0NIMl00

> <s_epik_cmdline>
J2VwaWtfcHl0aG9uJywgJy1waCcsICc3LjAnLCAnLXRuJywgJzgnLCAnLW1hJywgJzIwMCcsICctbWV0YWxfYmluZGluZycsICctaW1hZScsICc8aW5maWxlLm1hZT4nLCAnLW9tYWUnLCAnPG91dGZpbGUubWFlPic=

> <r_lp_tautomer_probability>
1

> <r_epik_Ionization_Penalty>
1.9271e-06

> <r_epik_Ionization_Penalty_Charging>
3.88729e-08

> <r_epik_Ionization_Penalty_Neutral>
1.88823e-06

> <r_epik_State_Penalty>
-0

> <r_epik_Charging_Adjusted_Penalty>
3.88729e-08

> <i_epik_Tot_Q>
0

> <i_epik_Tot_abs_Q>
0

> <r_epik_Metal_State_Penalty>
-0

> <b_epik_Metal_Only>
0

> <s_epik_Chemistry_Notes>
This compound contains an acetal/aminal-like group ( X-CH(R)-Y where X, Y are N, S, or O) that may be acid/base labile, releasing an aldehyde.

> <s_lp_Force_Field>
OPLS_2005

> <r_lp_Energy>
27.1293

> <b_lp_Chiralities_Consistent>
1

> <s_lp_Variant>
AV-unprocessed.smi:98-1

> <Gold.Version>
5.8.1

> <Gold.Id.Protein>
6NUR|6NUR_protein|mol2

> <Gold.PLP.Fitness>
56.0396

> <Gold.PLP.PLP>
-50.8796

> <Gold.PLP.part.hbond>
-3.4311

> <Gold.PLP.part.metal>
0.0000

> <Gold.PLP.part.buried>
-7.4962

> <Gold.PLP.part.nonpolar>
-40.4495

> <Gold.PLP.part.repulsive>
0.2372

> <Gold.PLP.ligand.clash>
0.0000

> <Gold.PLP.ligand.torsion>
2.7199

> <Gold.PLP.Chemscore.Hbond>
1.1582

> <Gold.PLP.Chemscore.CHOScore>
1.0000

> <Gold.PLP.Chemscore.Metal>
0.0000

> <Gold.Chemscore.Hbonds>
donor molecule, donor type, donor heavy atom, donor atom, acceptor molecule, acceptor atom, score
      P1  H  6896  6908       L1     1  0.97
      P1  H  7997  8010       L1    17  0.18
      L1  C     9    36       P1  8028  1.00

> <Gold.PLP.Chemscore.Internal.Correction>
4.1252

> <Gold.Rescore>
     Score         DG    S(hbond)    S(metal)    S(lipo)     H(rot)  DE(clash)    DE(int)     intcor
     10.08     -14.99       0.91        0.00      91.80       1.67       0.05       4.86       ----

> <Gold.Chemscore.Fitness>
10.0779

> <Gold.Chemscore.DG>
-14.9862

> <Gold.Chemscore.ZeroCoef>
-5.4800

> <Gold.Chemscore.Hbond>
0.9137

> <Gold.Chemscore.Metal>
0.0000

> <Gold.Chemscore.Lipo>
91.8022

> <Gold.Chemscore.Internal_Hbond>
0.0000

> <Gold.Chemscore.DEClash>
0.0520

> <Gold.Chemscore.DEInternal>
4.8563

> <Gold.Chemscore.Rot>
1.6744

> <Gold.Chemscore.Internal.Correction>
   9.000000E+99

> <Gold.Chemscore.Hbonds>
donor molecule, donor type, donor heavy atom, donor atom, acceptor molecule, acceptor atom, score
      P1  H  6896  6908       L1     1  0.76
      P1  H  7997  8010       L1    17  0.02

> <Gold.Chemscore.Hbond.Weighted>
-3.0518

> <Gold.Chemscore.Metal.Weighted>
-0.0000

> <Gold.Chemscore.Lipo.Weighted>
-10.7409

> <Gold.Chemscore.Internal_Hbond.Weighted>
0.0000

> <Gold.Chemscore.DEClash.Weighted>
0.0520

> <Gold.Chemscore.DEInternal.Weighted>
4.8563

> <Gold.Chemscore.Rot.Weighted>
4.2865

> <Gold.Chemscore.Internal.Correction.Weighted>
   9.000000E+99

> <Gold.Protein.RotatedTorsions>
[ 6907 6896 6895 6894 ] final -135.78 input  -60.11 | X-H torsion
[ 7974 7965 7964 7962 ] final  -55.98 input  175.53 | X-H torsion
[ 8008 7997 7996 7995 ] final   16.57 input   59.86 | X-H torsion
[ 10167 10162 10161 10158 ] final -159.38 input  -65.29 | X-H torsion
[ 10718 10713 10712 10709 ] final   64.52 input   66.30 | X-H torsion
[ 10763 10752 10751 10750 ] final  -19.24 input  -60.55 | X-H torsion
[ 11005 11000 10999 10996 ] final -109.83 input  -57.11 | X-H torsion

> <Gold.Protein.ActiveResidues>
 VAL166  LYS551  ARG553  GLY616  TRP617  ASP618  TYR619  PRO620  LYS621  CYS622 
 ASP623  PHE694  ASN695  SER759  ASP760  ASP761  ALA762  ILE779  LEU786  VAL792 
 PHE793  MET794  SER795  GLU796  ALA797  LYS798  CYS799  TRP800  GLU811  SER814 

> <Gold.Protein.RotatedAtoms>
  151.0021  133.6046  159.2693 H   0  0  0  0  0  0  0  0  0  0  0  0  # atno 6907 bound_to 6896
  151.3229  135.0822  159.9321 H   0  0  0  0  0  0  0  0  0  0  0  0  # atno 6908 bound_to 6896
  152.5276  133.9665  159.7796 H   0  0  0  0  0  0  0  0  0  0  0  0  # atno 6909 bound_to 6896
  145.8680  140.8237  142.9903 H   0  0  0  0  0  0  0  0  0  0  0  0  # atno 7974 bound_to 7965
  154.8789  140.2970  155.5437 H   0  0  0  0  0  0  0  0  0  0  0  0  # atno 8008 bound_to 7997
  156.3022  140.2446  156.3723 H   0  0  0  0  0  0  0  0  0  0  0  0  # atno 8009 bound_to 7997
  154.8738  140.0400  157.1729 H   0  0  0  0  0  0  0  0  0  0  0  0  # atno 8010 bound_to 7997
  139.6619  143.9897  152.2231 H   0  0  0  0  0  0  0  0  0  0  0  0  # atno 10167 bound_to 10162
  157.6045  130.9164  149.9856 H   0  0  0  0  0  0  0  0  0  0  0  0  # atno 10718 bound_to 10713
  153.6017  135.6999  153.5381 H   0  0  0  0  0  0  0  0  0  0  0  0  # atno 10763 bound_to 10752
  153.3091  135.4106  155.1320 H   0  0  0  0  0  0  0  0  0  0  0  0  # atno 10764 bound_to 10752
  154.8581  135.3667  154.5553 H   0  0  0  0  0  0  0  0  0  0  0  0  # atno 10765 bound_to 10752
  141.0826  133.9194  157.2256 H   0  0  0  0  0  0  0  0  0  0  0  0  # atno 11005 bound_to 11000
  144.6726  140.1195  143.7450 LP  0  0  0  0  0  0  0  0  0  0  0  0  # atno 17320 bound_to 7965
  145.9171  139.2522  143.1403 LP  0  0  0  0  0  0  0  0  0  0  0  0  # atno 17321 bound_to 7965
  139.9638  144.6540  150.8054 LP  0  0  0  0  0  0  0  0  0  0  0  0  # atno 17342 bound_to 10162
  140.7583  143.3105  151.2856 LP  0  0  0  0  0  0  0  0  0  0  0  0  # atno 17343 bound_to 10162
  156.1127  130.3649  150.0021 LP  0  0  0  0  0  0  0  0  0  0  0  0  # atno 17370 bound_to 10713
  156.8117  130.9327  151.3644 LP  0  0  0  0  0  0  0  0  0  0  0  0  # atno 17371 bound_to 10713
  139.9641  135.0146  156.9340 LP  0  0  0  0  0  0  0  0  0  0  0  0  # atno 17394 bound_to 11000
  140.5435  134.0697  155.7348 LP  0  0  0  0  0  0  0  0  0  0  0  0  # atno 17395 bound_to 11000

$$$$
