AV-unprocessed.smi:438|AV-procd|sdf|2565|dock5
  -GOLD-   2262022533D 1   1.00000     0.00000
 Structure written by MMmdl.
 48 49  0  0  0  0  0  0  0  0  1 V2000
  146.0276  136.6464  153.4600 C   0  0  0  0  0  0  0  0  0  0  0  0
  144.7613  136.0302  154.0274 C   0  0  0  0  0  0  0  0  0  0  0  0
  144.7686  135.7953  155.4082 N   0  0  0  0  0  0  0  0  0  0  0  0
  143.7321  135.2756  155.9838 C   0  0  0  0  0  0  0  0  0  0  0  0
  143.4669  134.8821  157.7353 S   0  0  0  0  0  0  0  0  0  0  0  0
  143.4564  136.5399  158.4756 C   0  0  0  0  0  0  0  0  0  0  0  0
  143.4019  136.4850  159.9987 C   0  0  0  0  0  0  0  0  0  0  0  0
  142.4419  136.9636  160.6017 O   0  0  0  0  0  0  0  0  0  0  0  0
  144.4477  135.9038  160.6056 N   0  0  0  0  0  0  0  0  0  0  0  0
  144.6443  135.7892  162.0502 C   0  0  2  0  0  0  0  0  0  0  0  0
  145.6076  136.8843  162.5583 C   0  0  0  0  0  0  0  0  0  0  0  0
  147.0490  136.6597  162.0687 C   0  0  0  0  0  0  0  0  0  0  0  0
  147.5540  135.2606  162.4520 C   0  0  0  0  0  0  0  0  0  0  0  0
  146.6091  134.1624  161.9381 C   0  0  0  0  0  0  0  0  0  0  0  0
  145.1624  134.3800  162.4303 C   0  0  2  0  0  0  0  0  0  0  0  0
  144.2279  133.2532  161.9571 C   0  0  0  0  0  0  0  0  0  0  0  0
  142.6027  134.9380  155.2374 N   0  0  0  0  0  0  0  0  0  0  0  0
  142.4971  135.1209  153.9026 C   0  0  0  0  0  0  0  0  0  0  0  0
  141.4712  134.7950  153.3078 O   0  0  0  0  0  0  0  0  0  0  0  0
  143.6798  135.7176  153.2598 C   0  0  0  0  0  0  0  0  0  0  0  0
  143.6164  135.9765  151.7570 C   0  0  0  0  0  0  0  0  0  0  0  0
  144.7437  135.2632  150.9967 C   0  0  0  0  0  0  0  0  0  0  0  0
  144.8727  135.8161  149.7050 O   0  0  0  0  0  0  0  0  0  0  0  0
  146.3991  136.0589  152.6201 H   0  0  0  0  0  0  0  0  0  0  0  0
  146.8178  136.6893  154.2107 H   0  0  0  0  0  0  0  0  0  0  0  0
  145.8356  137.6631  153.1166 H   0  0  0  0  0  0  0  0  0  0  0  0
  142.5918  137.0958  158.1112 H   0  0  0  0  0  0  0  0  0  0  0  0
  144.3473  137.0817  158.1554 H   0  0  0  0  0  0  0  0  0  0  0  0
  145.1850  135.5368  160.0213 H   0  0  0  0  0  0  0  0  0  0  0  0
  143.6777  135.9317  162.5370 H   0  0  0  0  0  0  0  0  0  0  0  0
  145.2603  137.8720  162.2527 H   0  0  0  0  0  0  0  0  0  0  0  0
  145.5992  136.8884  163.6488 H   0  0  0  0  0  0  0  0  0  0  0  0
  147.0954  136.7827  160.9858 H   0  0  0  0  0  0  0  0  0  0  0  0
  147.7064  137.4196  162.4917 H   0  0  0  0  0  0  0  0  0  0  0  0
  148.5565  135.1050  162.0524 H   0  0  0  0  0  0  0  0  0  0  0  0
  147.6402  135.1888  163.5371 H   0  0  0  0  0  0  0  0  0  0  0  0
  146.6338  134.1418  160.8477 H   0  0  0  0  0  0  0  0  0  0  0  0
  146.9720  133.1889  162.2696 H   0  0  0  0  0  0  0  0  0  0  0  0
  145.1826  134.3311  163.5202 H   0  0  0  0  0  0  0  0  0  0  0  0
  144.1935  133.1843  160.8694 H   0  0  0  0  0  0  0  0  0  0  0  0
  143.2101  133.4132  162.3134 H   0  0  0  0  0  0  0  0  0  0  0  0
  144.5601  132.2866  162.3366 H   0  0  0  0  0  0  0  0  0  0  0  0
  141.8134  134.5297  155.7167 H   0  0  0  0  0  0  0  0  0  0  0  0
  143.6619  137.0468  151.5566 H   0  0  0  0  0  0  0  0  0  0  0  0
  142.6457  135.6567  151.3752 H   0  0  0  0  0  0  0  0  0  0  0  0
  145.6919  135.3690  151.5246 H   0  0  0  0  0  0  0  0  0  0  0  0
  144.5372  134.1964  150.9055 H   0  0  0  0  0  0  0  0  0  0  0  0
  144.5355  136.6989  149.7207 H   0  0  0  0  0  0  0  0  0  0  0  0
  1 24  1  0  0  0  0
  1 25  1  0  0  0  0
  1 26  1  0  0  0  0
  1  2  1  0  0  0  0
  2 20  2  0  0  0  0
  2  3  1  0  0  0  0
  3  4  2  0  0  0  0
  4  5  1  0  0  0  0
  4 17  1  0  0  0  0
  5  6  1  0  0  0  0
  6  7  1  0  0  0  0
  6 27  1  0  0  0  0
  6 28  1  0  0  0  0
  7  8  2  0  0  0  0
  7  9  1  0  0  0  0
  9 10  1  0  0  0  0
  9 29  1  0  0  0  0
 10 15  1  0  0  0  0
 10 11  1  0  0  0  0
 10 30  1  0  0  0  0
 11 12  1  0  0  0  0
 11 31  1  0  0  0  0
 11 32  1  0  0  0  0
 12 13  1  0  0  0  0
 12 33  1  0  0  0  0
 12 34  1  0  0  0  0
 13 14  1  0  0  0  0
 13 35  1  0  0  0  0
 13 36  1  0  0  0  0
 14 15  1  0  0  0  0
 14 37  1  0  0  0  0
 14 38  1  0  0  0  0
 15 16  1  0  0  0  0
 15 39  1  0  0  0  0
 16 40  1  0  0  0  0
 16 41  1  0  0  0  0
 16 42  1  0  0  0  0
 17 43  1  0  0  0  0
 17 18  1  0  0  0  0
 18 19  2  0  0  0  0
 18 20  1  0  0  0  0
 20 21  1  0  0  0  0
 21 22  1  0  0  0  0
 21 44  1  0  0  0  0
 21 45  1  0  0  0  0
 22 23  1  0  0  0  0
 22 46  1  0  0  0  0
 22 47  1  0  0  0  0
 23 48  1  0  0  0  0
M  END
> <s_m_source_file>
AV-unprocessed.smi

> <i_m_source_file_index>
438

> <i_lp_mmshare_version>
43012

> <i_f3d_flags>
0

> <s_epik_input>
W09IXVtDSDJdW0NIMl1jMWMoW09IXSluYyhuYzFbQ0gzXSlTW0NIMl1DKD1PKVtOSF1bQ0BASF0yW0NIMl1bQ0gyXVtDSDJdW0NIMl1bQ0BIXTJbQ0gzXQ==

> <s_epik_cmdline>
J2VwaWtfcHl0aG9uJywgJy1waCcsICc3LjAnLCAnLXRuJywgJzgnLCAnLW1hJywgJzIwMCcsICctbWV0YWxfYmluZGluZycsICctaW1hZScsICc8aW5maWxlLm1hZT4nLCAnLW9tYWUnLCAnPG91dGZpbGUubWFlPic=

> <r_lp_tautomer_probability>
0.660323

> <r_epik_Ionization_Penalty>
0.00860626

> <r_epik_Ionization_Penalty_Charging>
0.00860522

> <r_epik_Ionization_Penalty_Neutral>
1.04215e-06

> <r_epik_State_Penalty>
0.156825

> <r_epik_Charging_Adjusted_Penalty>
0.16543

> <i_epik_Tot_Q>
0

> <i_epik_Tot_abs_Q>
0

> <r_epik_Metal_State_Penalty>
0.752038

> <b_epik_Metal_Only>
0

> <s_lp_Force_Field>
OPLS_2005

> <r_lp_Energy>
12.4019

> <b_lp_Chiralities_Consistent>
1

> <s_lp_Variant>
AV-unprocessed.smi:438-3

> <Gold.Version>
5.8.1

> <Gold.Id.Protein>
6NUR|6NUR_protein|mol2

> <Gold.PLP.Fitness>
39.5079

> <Gold.PLP.PLP>
-34.2672

> <Gold.PLP.part.hbond>
-3.5162

> <Gold.PLP.part.metal>
0.0000

> <Gold.PLP.part.buried>
-5.6705

> <Gold.PLP.part.nonpolar>
-24.4378

> <Gold.PLP.part.repulsive>
0.2449

> <Gold.PLP.ligand.clash>
0.0000

> <Gold.PLP.ligand.torsion>
0.3908

> <Gold.PLP.Chemscore.Hbond>
2.0000

> <Gold.PLP.Chemscore.CHOScore>
0.0000

> <Gold.PLP.Chemscore.Metal>
0.0000

> <Gold.Chemscore.Hbonds>
donor molecule, donor type, donor heavy atom, donor atom, acceptor molecule, acceptor atom, score
      L1  H    17    43       P1 11000  1.00
      L1  H    23    48       P1 10171  1.00

> <Gold.PLP.Chemscore.Internal.Correction>
0.0222

> <Gold.Rescore>
     Score         DG    S(hbond)    S(metal)    S(lipo)     H(rot)  DE(clash)    DE(int)     intcor
     12.34     -12.71       1.86        0.00      71.37       2.86       0.01       0.36       ----

> <Gold.Chemscore.Fitness>
12.3387

> <Gold.Chemscore.DG>
-12.7140

> <Gold.Chemscore.ZeroCoef>
-5.4800

> <Gold.Chemscore.Hbond>
1.8613

> <Gold.Chemscore.Metal>
0.0000

> <Gold.Chemscore.Lipo>
71.3700

> <Gold.Chemscore.Internal_Hbond>
0.0000

> <Gold.Chemscore.DEClash>
0.0144

> <Gold.Chemscore.DEInternal>
0.3609

> <Gold.Chemscore.Rot>
2.8645

> <Gold.Chemscore.Internal.Correction>
   9.000000E+99

> <Gold.Chemscore.Hbonds>
donor molecule, donor type, donor heavy atom, donor atom, acceptor molecule, acceptor atom, score
      L1  H    17    43       P1 11000  0.50
      L1  H    23    48       P1 10171  0.98

> <Gold.Chemscore.Hbond.Weighted>
-6.2168

> <Gold.Chemscore.Metal.Weighted>
-0.0000

> <Gold.Chemscore.Lipo.Weighted>
-8.3503

> <Gold.Chemscore.Internal_Hbond.Weighted>
0.0000

> <Gold.Chemscore.DEClash.Weighted>
0.0144

> <Gold.Chemscore.DEInternal.Weighted>
0.3609

> <Gold.Chemscore.Rot.Weighted>
7.3331

> <Gold.Chemscore.Internal.Correction.Weighted>
   9.000000E+99

> <Gold.Protein.RotatedTorsions>
[ 6907 6896 6895 6894 ] final   53.31 input  -60.11 | X-H torsion
[ 7974 7965 7964 7962 ] final   67.52 input  175.53 | X-H torsion
[ 8008 7997 7996 7995 ] final -141.11 input   59.86 | X-H torsion
[ 10167 10162 10161 10158 ] final  -20.41 input  -65.29 | X-H torsion
[ 10718 10713 10712 10709 ] final  116.22 input   66.30 | X-H torsion
[ 10763 10752 10751 10750 ] final -110.29 input  -60.55 | X-H torsion
[ 11005 11000 10999 10996 ] final  149.06 input  -57.11 | X-H torsion

> <Gold.Protein.ActiveResidues>
 VAL166  LYS551  ARG553  GLY616  TRP617  ASP618  TYR619  PRO620  LYS621  CYS622 
 ASP623  PHE694  ASN695  SER759  ASP760  ASP761  ALA762  ILE779  LEU786  VAL792 
 PHE793  MET794  SER795  GLU796  ALA797  LYS798  CYS799  TRP800  GLU811  SER814 

> <Gold.Protein.RotatedAtoms>
  152.3324  134.7242  160.0285 H   0  0  0  0  0  0  0  0  0  0  0  0  # atno 6907 bound_to 6896
  151.7654  133.3331  159.3437 H   0  0  0  0  0  0  0  0  0  0  0  0  # atno 6908 bound_to 6896
  150.7431  134.5999  159.6076 H   0  0  0  0  0  0  0  0  0  0  0  0  # atno 6909 bound_to 6896
  145.8137  139.3046  143.1084 H   0  0  0  0  0  0  0  0  0  0  0  0  # atno 7974 bound_to 7965
  155.4724  140.0554  157.2978 H   0  0  0  0  0  0  0  0  0  0  0  0  # atno 8008 bound_to 7997
  154.4693  140.2033  155.9990 H   0  0  0  0  0  0  0  0  0  0  0  0  # atno 8009 bound_to 7997
  156.1028  140.3216  155.7970 H   0  0  0  0  0  0  0  0  0  0  0  0  # atno 8010 bound_to 7997
  140.7276  143.4725  151.0227 H   0  0  0  0  0  0  0  0  0  0  0  0  # atno 10167 bound_to 10162
  157.6174  131.1022  150.7441 H   0  0  0  0  0  0  0  0  0  0  0  0  # atno 10718 bound_to 10713
  154.8240  135.4569  154.0863 H   0  0  0  0  0  0  0  0  0  0  0  0  # atno 10763 bound_to 10752
  153.2192  135.6892  153.8026 H   0  0  0  0  0  0  0  0  0  0  0  0  # atno 10764 bound_to 10752
  153.7449  135.3307  155.3287 H   0  0  0  0  0  0  0  0  0  0  0  0  # atno 10765 bound_to 10752
  140.1012  134.8982  157.1799 H   0  0  0  0  0  0  0  0  0  0  0  0  # atno 11005 bound_to 11000
  145.9750  140.8729  143.0143 LP  0  0  0  0  0  0  0  0  0  0  0  0  # atno 17320 bound_to 7965
  144.6754  140.1999  143.7388 LP  0  0  0  0  0  0  0  0  0  0  0  0  # atno 17321 bound_to 7965
  139.8418  143.7554  152.3180 LP  0  0  0  0  0  0  0  0  0  0  0  0  # atno 17342 bound_to 10162
  139.7705  144.7478  151.0231 LP  0  0  0  0  0  0  0  0  0  0  0  0  # atno 17343 bound_to 10162
  156.7806  130.4858  149.5402 LP  0  0  0  0  0  0  0  0  0  0  0  0  # atno 17370 bound_to 10713
  156.1303  130.6173  151.0323 LP  0  0  0  0  0  0  0  0  0  0  0  0  # atno 17371 bound_to 10713
  140.3217  134.2909  155.7245 LP  0  0  0  0  0  0  0  0  0  0  0  0  # atno 17394 bound_to 11000
  141.2106  133.7714  156.9920 LP  0  0  0  0  0  0  0  0  0  0  0  0  # atno 17395 bound_to 11000

$$$$
