AV-unprocessed.smi:1278|AV-procd|sdf|5348|dock9
  -GOLD-   22720 4483D 1   1.00000     0.00000
 Structure written by MMmdl.
 39 40  0  0  0  0  0  0  0  0  2 V2000
  146.1109  132.1693  149.5508 C   0  0  0  0  0  0  0  0  0  0  0  0
  145.5077  132.3052  150.9601 C   0  0  1  0  0  0  0  0  0  0  0  0
  144.8347  131.0095  151.4497 C   0  0  0  0  0  0  0  0  0  0  0  0
  145.8775  129.9532  151.8416 C   0  0  0  0  0  0  0  0  0  0  0  0
  146.8888  130.5221  152.8493 C   0  0  0  0  0  0  0  0  0  0  0  0
  147.5420  131.7467  152.3194 N   0  3  2  0  0  0  0  0  0  0  0  0
  148.6340  132.2283  153.2019 C   0  0  0  0  0  0  0  0  0  0  0  0
  148.1265  133.2025  154.2827 C   0  0  0  0  0  0  0  0  0  0  0  0
  148.7253  134.5242  154.1365 N   0  0  0  0  0  0  0  0  0  0  0  0
  149.6332  135.0485  154.9725 C   0  0  0  0  0  0  0  0  0  0  0  0
  150.0505  134.4596  155.9704 O   0  0  0  0  0  0  0  0  0  0  0  0
  150.0114  136.2769  154.5781 N   0  0  0  0  0  0  0  0  0  0  0  0
  150.9445  137.1480  155.1993 C   0  0  0  0  0  0  0  0  0  0  0  0
  151.9003  136.7488  156.0469 N   0  0  0  0  0  0  0  0  0  0  0  0
  152.6738  137.8182  156.5057 C   0  0  0  0  0  0  0  0  0  0  0  0
  152.2895  139.0329  155.9945 C   0  0  0  0  0  0  0  0  0  0  0  0
  150.9321  138.8818  154.9108 S   0  0  0  0  0  0  0  0  0  0  0  0
  146.5434  132.8003  151.9905 C   0  0  0  0  0  0  0  0  0  0  0  0
  146.9239  131.4438  149.5226 H   0  0  0  0  0  0  0  0  0  0  0  0
  146.5105  133.1226  149.2038 H   0  0  0  0  0  0  0  0  0  0  0  0
  145.3565  131.8502  148.8312 H   0  0  0  0  0  0  0  0  0  0  0  0
  144.7296  133.0663  150.8877 H   0  0  0  0  0  0  0  0  0  0  0  0
  144.2134  131.2339  152.3180 H   0  0  0  0  0  0  0  0  0  0  0  0
  144.1617  130.6140  150.6880 H   0  0  0  0  0  0  0  0  0  0  0  0
  145.3790  129.0825  152.2685 H   0  0  0  0  0  0  0  0  0  0  0  0
  146.4021  129.5987  150.9538 H   0  0  0  0  0  0  0  0  0  0  0  0
  146.3941  130.7516  153.7945 H   0  0  0  0  0  0  0  0  0  0  0  0
  147.6420  129.7623  153.0617 H   0  0  0  0  0  0  0  0  0  0  0  0
  149.1486  131.3787  153.6537 H   0  0  0  0  0  0  0  0  0  0  0  0
  149.3758  132.7480  152.5940 H   0  0  0  0  0  0  0  0  0  0  0  0
  147.0384  133.2816  154.2452 H   0  0  0  0  0  0  0  0  0  0  0  0
  148.3764  132.8428  155.2800 H   0  0  0  0  0  0  0  0  0  0  0  0
  148.4363  135.0730  153.3396 H   0  0  0  0  0  0  0  0  0  0  0  0
  149.5859  136.6302  153.7336 H   0  0  0  0  0  0  0  0  0  0  0  0
  153.4805  137.6237  157.1968 H   0  0  0  0  0  0  0  0  0  0  0  0
  152.7209  140.0035  156.1894 H   0  0  0  0  0  0  0  0  0  0  0  0
  147.0363  133.6911  151.6027 H   0  0  0  0  0  0  0  0  0  0  0  0
  146.0347  133.1045  152.9068 H   0  0  0  0  0  0  0  0  0  0  0  0
  147.9800  131.4739  151.4508 H   0  0  0  0  0  0  0  0  0  0  0  0
  1  2  1  0  0  0  0
  1 19  1  0  0  0  0
  1 20  1  0  0  0  0
  1 21  1  0  0  0  0
  2 18  1  0  0  0  0
  2  3  1  0  0  0  0
  2 22  1  0  0  0  0
  3  4  1  0  0  0  0
  3 23  1  0  0  0  0
  3 24  1  0  0  0  0
  4  5  1  0  0  0  0
  4 25  1  0  0  0  0
  4 26  1  0  0  0  0
  5  6  1  0  0  0  0
  5 27  1  0  0  0  0
  5 28  1  0  0  0  0
  6  7  1  0  0  0  0
  6 18  1  0  0  0  0
  6 39  1  0  0  0  0
  7  8  1  0  0  0  0
  7 29  1  0  0  0  0
  7 30  1  0  0  0  0
  8  9  1  0  0  0  0
  8 31  1  0  0  0  0
  8 32  1  0  0  0  0
  9 10  1  0  0  0  0
  9 33  1  0  0  0  0
 10 11  2  0  0  0  0
 10 12  1  0  0  0  0
 12 13  1  0  0  0  0
 12 34  1  0  0  0  0
 13 17  1  0  0  0  0
 13 14  2  0  0  0  0
 14 15  1  0  0  0  0
 15 16  2  0  0  0  0
 15 35  1  0  0  0  0
 16 17  1  0  0  0  0
 16 36  1  0  0  0  0
 18 37  1  0  0  0  0
 18 38  1  0  0  0  0
M  CHG  1   6   1
M  END
> <s_m_source_file>
AV-unprocessed.smi

> <i_m_source_file_index>
1278

> <i_lp_mmshare_version>
43012

> <i_f3d_flags>
0

> <s_epik_input>
W0NIM11bQ0BASF0xW0NIMl1bQ0gyXVtDSDJdTihbQ0gyXTEpW0NIMl1bQ0gyXVtOSF1DKD1PKVtOSF1jMm5bY0hdW2NIXXMy

> <s_epik_cmdline>
J2VwaWtfcHl0aG9uJywgJy1waCcsICc3LjAnLCAnLXRuJywgJzgnLCAnLW1hJywgJzIwMCcsICctbWV0YWxfYmluZGluZycsICctaW1hZScsICc8aW5maWxlLm1hZT4nLCAnLW9tYWUnLCAnPG91dGZpbGUubWFlPic=

> <r_lp_tautomer_probability>
0.999

> <r_epik_Ionization_Penalty>
0.00222194

> <r_epik_Ionization_Penalty_Charging>
0.00208169

> <r_epik_Ionization_Penalty_Neutral>
0.000140251

> <r_epik_State_Penalty>
0.00142585

> <r_epik_Charging_Adjusted_Penalty>
0.00350754

> <i_epik_Tot_Q>
1

> <i_epik_Tot_abs_Q>
1

> <r_epik_Metal_State_Penalty>
0.0570424

> <b_epik_Metal_Only>
0

> <s_lp_Force_Field>
OPLS_2005

> <r_lp_Energy>
16.7193

> <b_lp_Chiralities_Consistent>
1

> <s_lp_Variant>
AV-unprocessed.smi:1278-2

> <Gold.Version>
5.8.1

> <Gold.Id.Protein>
6NUR|6NUR_protein|mol2

> <Gold.PLP.Fitness>
45.9550

> <Gold.PLP.PLP>
-35.5739

> <Gold.PLP.part.hbond>
-4.7577

> <Gold.PLP.part.metal>
0.0000

> <Gold.PLP.part.buried>
-2.0719

> <Gold.PLP.part.nonpolar>
-28.6141

> <Gold.PLP.part.repulsive>
0.1199

> <Gold.PLP.ligand.clash>
0.0000

> <Gold.PLP.ligand.torsion>
0.8064

> <Gold.PLP.Chemscore.Hbond>
3.9920

> <Gold.PLP.Chemscore.CHOScore>
0.0000

> <Gold.PLP.Chemscore.Metal>
0.0000

> <Gold.Chemscore.Hbonds>
donor molecule, donor type, donor heavy atom, donor atom, acceptor molecule, acceptor atom, score
      L1  H     6    39       P1 10747  1.00
      L1  H     9    33       P1  7948  0.94
      L1  H    12    34       P1  7948  0.93
      P1  H 10752 10764       L1    14  0.99

> <Gold.PLP.Chemscore.Internal.Correction>
0.0178

> <Gold.Rescore>
     Score         DG    S(hbond)    S(metal)    S(lipo)     H(rot)  DE(clash)    DE(int)     intcor
     20.19     -22.26       3.29        0.00      84.62       1.60       0.05       2.02       ----

> <Gold.Chemscore.Fitness>
20.1908

> <Gold.Chemscore.DG>
-22.2590

> <Gold.Chemscore.ZeroCoef>
-5.4800

> <Gold.Chemscore.Hbond>
3.2857

> <Gold.Chemscore.Metal>
0.0000

> <Gold.Chemscore.Lipo>
84.6238

> <Gold.Chemscore.Internal_Hbond>
0.0000

> <Gold.Chemscore.DEClash>
0.0471

> <Gold.Chemscore.DEInternal>
2.0211

> <Gold.Chemscore.Rot>
1.6001

> <Gold.Chemscore.Internal.Correction>
   9.000000E+99

> <Gold.Chemscore.Hbonds>
donor molecule, donor type, donor heavy atom, donor atom, acceptor molecule, acceptor atom, score
      L1  H     6    39       P1 10747  1.00
      L1  H     9    33       P1  7948  0.80
      L1  H    12    34       P1  7948  0.65
      P1  H 10752 10764       L1    14  0.24

> <Gold.Chemscore.Hbond.Weighted>
-10.9743

> <Gold.Chemscore.Metal.Weighted>
-0.0000

> <Gold.Chemscore.Lipo.Weighted>
-9.9010

> <Gold.Chemscore.Internal_Hbond.Weighted>
0.0000

> <Gold.Chemscore.DEClash.Weighted>
0.0471

> <Gold.Chemscore.DEInternal.Weighted>
2.0211

> <Gold.Chemscore.Rot.Weighted>
4.0963

> <Gold.Chemscore.Internal.Correction.Weighted>
   9.000000E+99

> <Gold.Protein.RotatedTorsions>
[ 6907 6896 6895 6894 ] final  -76.41 input  -60.11 | X-H torsion
[ 7974 7965 7964 7962 ] final  148.59 input  175.53 | X-H torsion
[ 8008 7997 7996 7995 ] final  115.53 input   59.86 | X-H torsion
[ 10167 10162 10161 10158 ] final  -60.35 input  -65.29 | X-H torsion
[ 10718 10713 10712 10709 ] final  -58.71 input   66.30 | X-H torsion
[ 10763 10752 10751 10750 ] final  -43.95 input  -60.55 | X-H torsion
[ 11005 11000 10999 10996 ] final   23.27 input  -57.11 | X-H torsion

> <Gold.Protein.ActiveResidues>
 VAL166  LYS551  ARG553  GLY616  TRP617  ASP618  TYR619  PRO620  LYS621  CYS622 
 ASP623  PHE694  ASN695  SER759  ASP760  ASP761  ALA762  ILE779  LEU786  VAL792 
 PHE793  MET794  SER795  GLU796  ALA797  LYS798  CYS799  TRP800  GLU811  SER814 

> <Gold.Protein.RotatedAtoms>
  150.7028  134.4577  159.5365 H   0  0  0  0  0  0  0  0  0  0  0  0  # atno 6907 bound_to 6896
  152.2257  134.8367  160.0489 H   0  0  0  0  0  0  0  0  0  0  0  0  # atno 6908 bound_to 6896
  151.9201  133.3548  159.3931 H   0  0  0  0  0  0  0  0  0  0  0  0  # atno 6909 bound_to 6896
  144.8502  139.6173  143.5977 H   0  0  0  0  0  0  0  0  0  0  0  0  # atno 7974 bound_to 7965
  156.2387  140.2936  156.0383 H   0  0  0  0  0  0  0  0  0  0  0  0  # atno 8008 bound_to 7997
  155.2016  140.0410  157.2935 H   0  0  0  0  0  0  0  0  0  0  0  0  # atno 8009 bound_to 7997
  154.6126  140.2455  155.7656 H   0  0  0  0  0  0  0  0  0  0  0  0  # atno 8010 bound_to 7997
  140.6077  143.2378  151.5783 H   0  0  0  0  0  0  0  0  0  0  0  0  # atno 10167 bound_to 10162
  156.1115  130.4174  150.0615 H   0  0  0  0  0  0  0  0  0  0  0  0  # atno 10718 bound_to 10713
  154.0039  135.6690  153.4761 H   0  0  0  0  0  0  0  0  0  0  0  0  # atno 10763 bound_to 10752
  153.0650  135.5006  154.8176 H   0  0  0  0  0  0  0  0  0  0  0  0  # atno 10764 bound_to 10752
  154.7036  135.3083  154.9267 H   0  0  0  0  0  0  0  0  0  0  0  0  # atno 10765 bound_to 10752
  140.3715  134.2018  155.7666 H   0  0  0  0  0  0  0  0  0  0  0  0  # atno 11005 bound_to 11000
  146.2778  139.6798  142.9250 LP  0  0  0  0  0  0  0  0  0  0  0  0  # atno 17320 bound_to 7965
  145.4516  141.0428  143.2801 LP  0  0  0  0  0  0  0  0  0  0  0  0  # atno 17321 bound_to 7965
  139.5337  144.2842  152.1204 LP  0  0  0  0  0  0  0  0  0  0  0  0  # atno 17342 bound_to 10162
  140.2035  144.4634  150.6420 LP  0  0  0  0  0  0  0  0  0  0  0  0  # atno 17343 bound_to 10162
  156.8577  130.9481  151.3620 LP  0  0  0  0  0  0  0  0  0  0  0  0  # atno 17370 bound_to 10713
  157.6296  130.8719  149.9251 LP  0  0  0  0  0  0  0  0  0  0  0  0  # atno 17371 bound_to 10713
  141.1953  133.8109  157.0721 LP  0  0  0  0  0  0  0  0  0  0  0  0  # atno 17394 bound_to 11000
  140.0548  134.9786  157.1201 LP  0  0  0  0  0  0  0  0  0  0  0  0  # atno 17395 bound_to 11000

$$$$
