AV-unprocessed.smi:1349|AV-procd|sdf|5518|dock3
  -GOLD-   22720 5103D 1   1.00000     0.00000
 Structure written by MMmdl.
 42 44  0  0  0  0  0  0  0  0  1 V2000
  152.7615  139.5817  155.1676 O   0  0  0  0  0  0  0  0  0  0  0  0
  151.4526  139.8643  155.6167 C   0  0  0  0  0  0  0  0  0  0  0  0
  151.1897  139.2020  156.9770 C   0  0  0  0  0  0  0  0  0  0  0  0
  152.1960  139.6196  158.0628 C   0  0  0  0  0  0  0  0  0  0  0  0
  151.9857  141.0312  158.5308 C   0  0  0  0  0  0  0  0  0  0  0  0
  150.9801  141.7656  158.0513 N   0  0  0  0  0  0  0  0  0  0  0  0
  151.1410  142.9720  158.7014 C   0  0  0  0  0  0  0  0  0  0  0  0
  150.3953  144.1694  158.6136 C   0  0  0  0  0  0  0  0  0  0  0  0
  150.7545  145.2926  159.3871 C   0  0  0  0  0  0  0  0  0  0  0  0
  151.8616  145.2340  160.2581 C   0  0  0  0  0  0  0  0  0  0  0  0
  152.6165  144.0496  160.3617 C   0  0  0  0  0  0  0  0  0  0  0  0
  152.2542  142.9311  159.5865 C   0  0  0  0  0  0  0  0  0  0  0  0
  152.7711  141.6448  159.4571 N   0  0  0  0  0  0  0  0  0  0  0  0
  153.9159  141.1265  160.1962 C   0  0  0  0  0  0  0  0  0  0  0  0
  153.9077  141.5519  161.6706 C   0  0  0  0  0  0  0  0  0  0  0  0
  154.9244  140.8644  162.3875 O   0  0  0  0  0  0  0  0  0  0  0  0
  155.1221  141.1955  163.7119 C   0  0  0  0  0  0  0  0  0  0  0  0
  155.8118  140.2617  164.5133 C   0  0  0  0  0  0  0  0  0  0  0  0
  156.0561  140.5194  165.8759 C   0  0  0  0  0  0  0  0  0  0  0  0
  155.6118  141.7220  166.4548 C   0  0  0  0  0  0  0  0  0  0  0  0
  154.9231  142.6638  165.6684 C   0  0  0  0  0  0  0  0  0  0  0  0
  154.6778  142.4047  164.3056 C   0  0  0  0  0  0  0  0  0  0  0  0
  152.7410  138.7818  154.6648 H   0  0  0  0  0  0  0  0  0  0  0  0
  151.3448  140.9459  155.7019 H   0  0  0  0  0  0  0  0  0  0  0  0
  150.7303  139.5252  154.8734 H   0  0  0  0  0  0  0  0  0  0  0  0
  150.1737  139.4212  157.3041 H   0  0  0  0  0  0  0  0  0  0  0  0
  151.2351  138.1198  156.8502 H   0  0  0  0  0  0  0  0  0  0  0  0
  152.1007  138.9579  158.9244 H   0  0  0  0  0  0  0  0  0  0  0  0
  153.2086  139.4798  157.6928 H   0  0  0  0  0  0  0  0  0  0  0  0
  149.5457  144.2233  157.9491 H   0  0  0  0  0  0  0  0  0  0  0  0
  150.1778  146.2029  159.3115 H   0  0  0  0  0  0  0  0  0  0  0  0
  152.1311  146.0986  160.8471 H   0  0  0  0  0  0  0  0  0  0  0  0
  153.4647  144.0023  161.0282 H   0  0  0  0  0  0  0  0  0  0  0  0
  153.8870  140.0381  160.1389 H   0  0  0  0  0  0  0  0  0  0  0  0
  154.8462  141.4139  159.7101 H   0  0  0  0  0  0  0  0  0  0  0  0
  154.0593  142.6303  161.7384 H   0  0  0  0  0  0  0  0  0  0  0  0
  152.9317  141.3227  162.1008 H   0  0  0  0  0  0  0  0  0  0  0  0
  156.1562  139.3343  164.0819 H   0  0  0  0  0  0  0  0  0  0  0  0
  156.5842  139.7937  166.4765 H   0  0  0  0  0  0  0  0  0  0  0  0
  155.7985  141.9217  167.4998 H   0  0  0  0  0  0  0  0  0  0  0  0
  154.5818  143.5879  166.1109 H   0  0  0  0  0  0  0  0  0  0  0  0
  154.1463  143.1525  163.7375 H   0  0  0  0  0  0  0  0  0  0  0  0
  1  2  1  0  0  0  0
  1 23  1  0  0  0  0
  2  3  1  0  0  0  0
  2 24  1  0  0  0  0
  2 25  1  0  0  0  0
  3  4  1  0  0  0  0
  3 26  1  0  0  0  0
  3 27  1  0  0  0  0
  4  5  1  0  0  0  0
  4 28  1  0  0  0  0
  4 29  1  0  0  0  0
  5 13  1  0  0  0  0
  5  6  2  0  0  0  0
  6  7  1  0  0  0  0
  7 12  2  0  0  0  0
  7  8  1  0  0  0  0
  8  9  2  0  0  0  0
  8 30  1  0  0  0  0
  9 10  1  0  0  0  0
  9 31  1  0  0  0  0
 10 11  2  0  0  0  0
 10 32  1  0  0  0  0
 11 12  1  0  0  0  0
 11 33  1  0  0  0  0
 12 13  1  0  0  0  0
 13 14  1  0  0  0  0
 14 15  1  0  0  0  0
 14 34  1  0  0  0  0
 14 35  1  0  0  0  0
 15 16  1  0  0  0  0
 15 36  1  0  0  0  0
 15 37  1  0  0  0  0
 16 17  1  0  0  0  0
 17 22  1  0  0  0  0
 17 18  2  0  0  0  0
 18 19  1  0  0  0  0
 18 38  1  0  0  0  0
 19 20  2  0  0  0  0
 19 39  1  0  0  0  0
 20 21  1  0  0  0  0
 20 40  1  0  0  0  0
 21 22  2  0  0  0  0
 21 41  1  0  0  0  0
 22 42  1  0  0  0  0
M  END
> <s_m_source_file>
AV-unprocessed.smi

> <i_m_source_file_index>
1349

> <i_lp_mmshare_version>
43012

> <i_f3d_flags>
0

> <s_epik_input>
W09IXVtDSDJdW0NIMl1bQ0gyXWMobjEpbihjKGMxMilbY0hdW2NIXVtjSF1bY0hdMilbQ0gyXVtDSDJdT2MzW2NIXVtjSF1bY0hdW2NIXVtjSF0z

> <s_epik_cmdline>
J2VwaWtfcHl0aG9uJywgJy1waCcsICc3LjAnLCAnLXRuJywgJzgnLCAnLW1hJywgJzIwMCcsICctbWV0YWxfYmluZGluZycsICctaW1hZScsICc8aW5maWxlLm1hZT4nLCAnLW9tYWUnLCAnPG91dGZpbGUubWFlPic=

> <r_lp_tautomer_probability>
1

> <r_epik_Ionization_Penalty>
0.159315

> <r_epik_Ionization_Penalty_Charging>
0

> <r_epik_Ionization_Penalty_Neutral>
0.159315

> <r_epik_State_Penalty>
0.148622

> <r_epik_Charging_Adjusted_Penalty>
0.148622

> <i_epik_Tot_Q>
0

> <i_epik_Tot_abs_Q>
0

> <r_epik_Metal_State_Penalty>
0.0001689

> <b_epik_Metal_Only>
0

> <s_lp_Force_Field>
OPLS_2005

> <r_lp_Energy>
15.4549

> <b_lp_Chiralities_Consistent>
1

> <s_lp_Variant>
AV-unprocessed.smi:1349-1

> <Gold.Version>
5.8.1

> <Gold.Id.Protein>
6NUR|6NUR_protein|mol2

> <Gold.PLP.Fitness>
52.4534

> <Gold.PLP.PLP>
-50.4547

> <Gold.PLP.part.hbond>
-2.8803

> <Gold.PLP.part.metal>
0.0000

> <Gold.PLP.part.buried>
-3.2633

> <Gold.PLP.part.nonpolar>
-43.8871

> <Gold.PLP.part.repulsive>
0.0336

> <Gold.PLP.ligand.clash>
0.0000

> <Gold.PLP.ligand.torsion>
0.5913

> <Gold.PLP.Chemscore.Hbond>
1.0000

> <Gold.PLP.Chemscore.CHOScore>
0.0000

> <Gold.PLP.Chemscore.Metal>
0.0000

> <Gold.Chemscore.Hbonds>
donor molecule, donor type, donor heavy atom, donor atom, acceptor molecule, acceptor atom, score
      P1  H  7997  8009       L1     1  1.00

> <Gold.PLP.Chemscore.Internal.Correction>
0.1813

> <Gold.Rescore>
     Score         DG    S(hbond)    S(metal)    S(lipo)     H(rot)  DE(clash)    DE(int)     intcor
     18.63     -19.31       1.00        0.00     142.73       2.42       0.09       0.59       ----

> <Gold.Chemscore.Fitness>
18.6290

> <Gold.Chemscore.DG>
-19.3092

> <Gold.Chemscore.ZeroCoef>
-5.4800

> <Gold.Chemscore.Hbond>
0.9957

> <Gold.Chemscore.Metal>
0.0000

> <Gold.Chemscore.Lipo>
142.7269

> <Gold.Chemscore.Internal_Hbond>
0.0000

> <Gold.Chemscore.DEClash>
0.0891

> <Gold.Chemscore.DEInternal>
0.5911

> <Gold.Chemscore.Rot>
2.4201

> <Gold.Chemscore.Internal.Correction>
   9.000000E+99

> <Gold.Chemscore.Hbonds>
donor molecule, donor type, donor heavy atom, donor atom, acceptor molecule, acceptor atom, score
      P1  H  7997  8009       L1     1  0.98

> <Gold.Chemscore.Hbond.Weighted>
-3.3255

> <Gold.Chemscore.Metal.Weighted>
-0.0000

> <Gold.Chemscore.Lipo.Weighted>
-16.6990

> <Gold.Chemscore.Internal_Hbond.Weighted>
0.0000

> <Gold.Chemscore.DEClash.Weighted>
0.0891

> <Gold.Chemscore.DEInternal.Weighted>
0.5911

> <Gold.Chemscore.Rot.Weighted>
6.1954

> <Gold.Chemscore.Internal.Correction.Weighted>
   9.000000E+99

> <Gold.Protein.RotatedTorsions>
[ 6907 6896 6895 6894 ] final  179.61 input  -60.11 | X-H torsion
[ 7974 7965 7964 7962 ] final -147.07 input  175.53 | X-H torsion
[ 8008 7997 7996 7995 ] final -143.88 input   59.86 | X-H torsion
[ 10167 10162 10161 10158 ] final   20.67 input  -65.29 | X-H torsion
[ 10718 10713 10712 10709 ] final   96.99 input   66.30 | X-H torsion
[ 10763 10752 10751 10750 ] final   11.51 input  -60.55 | X-H torsion
[ 11005 11000 10999 10996 ] final  -22.17 input  -57.11 | X-H torsion

> <Gold.Protein.ActiveResidues>
 VAL166  LYS551  ARG553  GLY616  TRP617  ASP618  TYR619  PRO620  LYS621  CYS622 
 ASP623  PHE694  ASN695  SER759  ASP760  ASP761  ALA762  ILE779  LEU786  VAL792 
 PHE793  MET794  SER795  GLU796  ALA797  LYS798  CYS799  TRP800  GLU811  SER814 

> <Gold.Protein.RotatedAtoms>
  151.6689  133.3314  159.3191 H   0  0  0  0  0  0  0  0  0  0  0  0  # atno 6907 bound_to 6896
  150.7877  134.6879  159.6490 H   0  0  0  0  0  0  0  0  0  0  0  0  # atno 6908 bound_to 6896
  152.3950  134.6383  160.0145 H   0  0  0  0  0  0  0  0  0  0  0  0  # atno 6909 bound_to 6896
  144.8118  140.5375  143.5637 H   0  0  0  0  0  0  0  0  0  0  0  0  # atno 7974 bound_to 7965
  155.5178  140.0589  157.2912 H   0  0  0  0  0  0  0  0  0  0  0  0  # atno 8008 bound_to 7997
  154.4528  140.1958  156.0414 H   0  0  0  0  0  0  0  0  0  0  0  0  # atno 8009 bound_to 7997
  156.0739  140.3256  155.7614 H   0  0  0  0  0  0  0  0  0  0  0  0  # atno 8010 bound_to 7997
  140.5486  143.9550  150.6563 H   0  0  0  0  0  0  0  0  0  0  0  0  # atno 10167 bound_to 10162
  157.6919  131.0595  150.4576 H   0  0  0  0  0  0  0  0  0  0  0  0  # atno 10718 bound_to 10713
  153.1919  135.6843  153.8342 H   0  0  0  0  0  0  0  0  0  0  0  0  # atno 10763 bound_to 10752
  153.7638  135.3206  155.3342 H   0  0  0  0  0  0  0  0  0  0  0  0  # atno 10764 bound_to 10752
  154.8122  135.4710  154.0645 H   0  0  0  0  0  0  0  0  0  0  0  0  # atno 10765 bound_to 10752
  140.8632  133.7773  156.0099 H   0  0  0  0  0  0  0  0  0  0  0  0  # atno 11005 bound_to 11000
  145.5307  139.1475  143.3501 LP  0  0  0  0  0  0  0  0  0  0  0  0  # atno 17320 bound_to 7965
  146.2417  140.5448  142.8931 LP  0  0  0  0  0  0  0  0  0  0  0  0  # atno 17321 bound_to 7965
  140.2970  143.3286  152.1008 LP  0  0  0  0  0  0  0  0  0  0  0  0  # atno 17342 bound_to 10162
  139.5017  144.6720  151.6219 LP  0  0  0  0  0  0  0  0  0  0  0  0  # atno 17343 bound_to 10162
  156.4923  130.4098  149.6400 LP  0  0  0  0  0  0  0  0  0  0  0  0  # atno 17370 bound_to 10713
  156.3406  130.7380  151.2324 LP  0  0  0  0  0  0  0  0  0  0  0  0  # atno 17371 bound_to 10713
  140.8659  134.2785  157.5213 LP  0  0  0  0  0  0  0  0  0  0  0  0  # atno 17394 bound_to 11000
  139.8708  134.9542  156.4169 LP  0  0  0  0  0  0  0  0  0  0  0  0  # atno 17395 bound_to 11000

$$$$
