AV-unprocessed.smi:1111|AV-procd|sdf|4794|dock4
  -GOLD-   22720 3343D 1   1.00000     0.00000
 Structure written by MMmdl.
 33 34  0  0  0  0  0  0  0  0  2 V2000
  149.2365  131.1103  153.8925 C   0  0  0  0  0  0  0  0  0  0  0  0
  148.7600  132.4835  154.4120 C   0  0  1  0  0  0  0  0  0  0  0  0
  148.1608  133.2675  153.3231 N   0  0  0  0  0  0  0  0  0  0  0  0
  147.1827  132.9047  152.4745 C   0  0  0  0  0  0  0  0  0  0  0  0
  146.6114  131.8157  152.5052 O   0  0  0  0  0  0  0  0  0  0  0  0
  146.7807  133.9393  151.4237 C   0  0  0  0  0  0  0  0  0  0  0  0
  145.7038  133.4342  150.5674 N   0  0  0  0  0  0  0  0  0  0  0  0
  145.7146  132.2972  149.8001 C   0  0  0  0  0  0  0  0  0  0  0  0
  144.4961  132.2364  149.1742 C   0  0  0  0  0  0  0  0  0  0  0  0
  143.7945  133.3389  149.5834 N   0  3  0  0  0  0  0  0  0  0  0  0
  144.5305  134.0665  150.4298 C   0  0  0  0  0  0  0  0  0  0  0  0
  147.6669  132.2879  155.4902 C   0  0  0  0  0  0  0  0  0  0  0  0
  147.4734  133.5915  156.2753 C   0  0  0  0  0  0  0  0  0  0  0  0
  149.1142  134.4009  156.3047 S   0  0  0  0  0  0  0  0  0  0  0  0
  148.9929  135.7402  155.7091 O   0  0  0  0  0  0  0  0  0  0  0  0
  149.7370  134.2103  157.6232 O   0  0  0  0  0  0  0  0  0  0  0  0
  149.9027  133.2672  155.0985 C   0  0  0  0  0  0  0  0  0  0  0  0
  149.5938  130.4817  154.7089 H   0  0  0  0  0  0  0  0  0  0  0  0
  150.0582  131.2035  153.1827 H   0  0  0  0  0  0  0  0  0  0  0  0
  148.4280  130.5726  153.3965 H   0  0  0  0  0  0  0  0  0  0  0  0
  148.5508  134.1897  153.1924 H   0  0  0  0  0  0  0  0  0  0  0  0
  146.4419  134.8621  151.8976 H   0  0  0  0  0  0  0  0  0  0  0  0
  147.6363  134.1910  150.7950 H   0  0  0  0  0  0  0  0  0  0  0  0
  146.5657  131.6329  149.7580 H   0  0  0  0  0  0  0  0  0  0  0  0
  144.0868  131.5109  148.4864 H   0  0  0  0  0  0  0  0  0  0  0  0
  144.2365  134.9849  150.9064 H   0  0  0  0  0  0  0  0  0  0  0  0
  146.7258  131.9355  155.0655 H   0  0  0  0  0  0  0  0  0  0  0  0
  147.9936  131.5192  156.1923 H   0  0  0  0  0  0  0  0  0  0  0  0
  146.7774  134.2569  155.7645 H   0  0  0  0  0  0  0  0  0  0  0  0
  147.1156  133.4269  157.2917 H   0  0  0  0  0  0  0  0  0  0  0  0
  150.5413  132.5906  155.6672 H   0  0  0  0  0  0  0  0  0  0  0  0
  150.5439  133.8301  154.4207 H   0  0  0  0  0  0  0  0  0  0  0  0
  142.8542  133.5725  149.2893 H   0  0  0  0  0  0  0  0  0  0  0  0
  1  2  1  0  0  0  0
  1 18  1  0  0  0  0
  1 19  1  0  0  0  0
  1 20  1  0  0  0  0
  2 17  1  0  0  0  0
  2  3  1  0  0  0  0
  2 12  1  0  0  0  0
  3  4  1  0  0  0  0
  3 21  1  0  0  0  0
  4  5  2  0  0  0  0
  4  6  1  0  0  0  0
  6  7  1  0  0  0  0
  6 22  1  0  0  0  0
  6 23  1  0  0  0  0
  7 11  1  0  0  0  0
  7  8  1  0  0  0  0
  8  9  2  0  0  0  0
  8 24  1  0  0  0  0
  9 10  1  0  0  0  0
  9 25  1  0  0  0  0
 10 11  2  0  0  0  0
 10 33  1  0  0  0  0
 11 26  1  0  0  0  0
 12 13  1  0  0  0  0
 12 27  1  0  0  0  0
 12 28  1  0  0  0  0
 13 14  1  0  0  0  0
 13 29  1  0  0  0  0
 13 30  1  0  0  0  0
 14 15  2  0  0  0  0
 14 16  2  0  0  0  0
 14 17  1  0  0  0  0
 17 31  1  0  0  0  0
 17 32  1  0  0  0  0
M  CHG  1  10   1
M  END
> <s_m_source_file>
AV-unprocessed.smi

> <i_m_source_file_index>
1111

> <i_lp_mmshare_version>
43012

> <i_f3d_flags>
0

> <s_epik_input>
Tz1TKD1PKShbQ0gyXTEpW0NIMl1bQ0gyXVtDQEBdMShbQ0gzXSlbTkhdQyg9TylbQ0gyXW4yW2NIXVtjSF1uW2NIXTI=

> <s_epik_cmdline>
J2VwaWtfcHl0aG9uJywgJy1waCcsICc3LjAnLCAnLXRuJywgJzgnLCAnLW1hJywgJzIwMCcsICctbWV0YWxfYmluZGluZycsICctaW1hZScsICc8aW5maWxlLm1hZT4nLCAnLW9tYWUnLCAnPG91dGZpbGUubWFlPic=

> <r_lp_tautomer_probability>
1

> <r_epik_Ionization_Penalty>
0.638881

> <r_epik_Ionization_Penalty_Charging>
0

> <r_epik_Ionization_Penalty_Neutral>
0.638881

> <r_epik_State_Penalty>
0.656385

> <r_epik_Charging_Adjusted_Penalty>
0.656385

> <i_epik_Tot_Q>
1

> <i_epik_Tot_abs_Q>
1

> <r_epik_Metal_State_Penalty>
0.832701

> <b_epik_Metal_Only>
0

> <s_lp_Force_Field>
OPLS_2005

> <r_lp_Energy>
7.94824

> <b_lp_Chiralities_Consistent>
1

> <s_lp_Variant>
AV-unprocessed.smi:1111-3

> <Gold.Version>
5.8.1

> <Gold.Id.Protein>
6NUR|6NUR_protein|mol2

> <Gold.PLP.Fitness>
37.7488

> <Gold.PLP.PLP>
-25.8853

> <Gold.PLP.part.hbond>
-2.0315

> <Gold.PLP.part.metal>
0.0000

> <Gold.PLP.part.buried>
-3.6078

> <Gold.PLP.part.nonpolar>
-20.3776

> <Gold.PLP.part.repulsive>
0.2877

> <Gold.PLP.ligand.clash>
0.0000

> <Gold.PLP.ligand.torsion>
0.0602

> <Gold.PLP.Chemscore.Hbond>
3.0749

> <Gold.PLP.Chemscore.CHOScore>
0.9141

> <Gold.PLP.Chemscore.Metal>
0.0000

> <Gold.Chemscore.Hbonds>
donor molecule, donor type, donor heavy atom, donor atom, acceptor molecule, acceptor atom, score
      L1  H     3    21       P1  7948  0.01
      L1  H    10    33       P1 10186  1.92
      P1  H  6896  6909       L1    16  1.00
      L1  C     8    24       P1 10747  0.91

> <Gold.PLP.Chemscore.Internal.Correction>
0.0169

> <Gold.Rescore>
     Score         DG    S(hbond)    S(metal)    S(lipo)     H(rot)  DE(clash)    DE(int)     intcor
     12.28     -13.40       1.99        0.00      49.77       1.78       0.00       1.11       ----

> <Gold.Chemscore.Fitness>
12.2849

> <Gold.Chemscore.DG>
-13.3976

> <Gold.Chemscore.ZeroCoef>
-5.4800

> <Gold.Chemscore.Hbond>
1.9904

> <Gold.Chemscore.Metal>
0.0000

> <Gold.Chemscore.Lipo>
49.7726

> <Gold.Chemscore.Internal_Hbond>
0.0000

> <Gold.Chemscore.DEClash>
0.0009

> <Gold.Chemscore.DEInternal>
1.1118

> <Gold.Chemscore.Rot>
1.7787

> <Gold.Chemscore.Internal.Correction>
   9.000000E+99

> <Gold.Chemscore.Hbonds>
donor molecule, donor type, donor heavy atom, donor atom, acceptor molecule, acceptor atom, score
      L1  H     3    21       P1  7948  0.01
      L1  H    10    33       P1 10186  0.89
      P1  H  6896  6909       L1    16  0.95

> <Gold.Chemscore.Hbond.Weighted>
-6.6478

> <Gold.Chemscore.Metal.Weighted>
-0.0000

> <Gold.Chemscore.Lipo.Weighted>
-5.8234

> <Gold.Chemscore.Internal_Hbond.Weighted>
0.0000

> <Gold.Chemscore.DEClash.Weighted>
0.0009

> <Gold.Chemscore.DEInternal.Weighted>
1.1118

> <Gold.Chemscore.Rot.Weighted>
4.5536

> <Gold.Chemscore.Internal.Correction.Weighted>
   9.000000E+99

> <Gold.Protein.RotatedTorsions>
[ 6907 6896 6895 6894 ] final    7.73 input  -60.11 | X-H torsion
[ 7974 7965 7964 7962 ] final   14.23 input  175.53 | X-H torsion
[ 8008 7997 7996 7995 ] final   44.25 input   59.86 | X-H torsion
[ 10167 10162 10161 10158 ] final   92.56 input  -65.29 | X-H torsion
[ 10718 10713 10712 10709 ] final   64.85 input   66.30 | X-H torsion
[ 10763 10752 10751 10750 ] final  173.56 input  -60.55 | X-H torsion
[ 11005 11000 10999 10996 ] final -110.67 input  -57.11 | X-H torsion

> <Gold.Protein.ActiveResidues>
 VAL166  LYS551  ARG553  GLY616  TRP617  ASP618  TYR619  PRO620  LYS621  CYS622 
 ASP623  PHE694  ASN695  SER759  ASP760  ASP761  ALA762  ILE779  LEU786  VAL792 
 PHE793  MET794  SER795  GLU796  ALA797  LYS798  CYS799  TRP800  GLU811  SER814 

> <Gold.Protein.RotatedAtoms>
  151.6946  135.0940  160.0239 H   0  0  0  0  0  0  0  0  0  0  0  0  # atno 6907 bound_to 6896
  152.3757  133.6474  159.6130 H   0  0  0  0  0  0  0  0  0  0  0  0  # atno 6908 bound_to 6896
  150.7708  133.9113  159.3411 H   0  0  0  0  0  0  0  0  0  0  0  0  # atno 6909 bound_to 6896
  146.2310  139.9072  142.8530 H   0  0  0  0  0  0  0  0  0  0  0  0  # atno 7974 bound_to 7965
  155.3161  140.3394  155.4242 H   0  0  0  0  0  0  0  0  0  0  0  0  # atno 8008 bound_to 7997
  156.1932  140.1705  156.8088 H   0  0  0  0  0  0  0  0  0  0  0  0  # atno 8009 bound_to 7997
  154.5467  140.0714  156.8584 H   0  0  0  0  0  0  0  0  0  0  0  0  # atno 8010 bound_to 7997
  139.8265  144.6707  150.9453 H   0  0  0  0  0  0  0  0  0  0  0  0  # atno 10167 bound_to 10162
  157.6067  130.9182  149.9900 H   0  0  0  0  0  0  0  0  0  0  0  0  # atno 10718 bound_to 10713
  154.4417  135.2762  155.1843 H   0  0  0  0  0  0  0  0  0  0  0  0  # atno 10763 bound_to 10752
  154.3706  135.6109  153.5741 H   0  0  0  0  0  0  0  0  0  0  0  0  # atno 10764 bound_to 10752
  152.9841  135.5856  154.4746 H   0  0  0  0  0  0  0  0  0  0  0  0  # atno 10765 bound_to 10752
  141.0778  133.9271  157.2352 H   0  0  0  0  0  0  0  0  0  0  0  0  # atno 11005 bound_to 11000
  145.2265  140.9956  143.4015 LP  0  0  0  0  0  0  0  0  0  0  0  0  # atno 17320 bound_to 7965
  144.9566  139.4025  143.6376 LP  0  0  0  0  0  0  0  0  0  0  0  0  # atno 17321 bound_to 7965
  140.7810  143.4042  151.1099 LP  0  0  0  0  0  0  0  0  0  0  0  0  # atno 17342 bound_to 10162
  139.7698  143.8510  152.3118 LP  0  0  0  0  0  0  0  0  0  0  0  0  # atno 17343 bound_to 10162
  156.1156  130.3648  149.9974 LP  0  0  0  0  0  0  0  0  0  0  0  0  # atno 17370 bound_to 10713
  156.8064  130.9309  151.3645 LP  0  0  0  0  0  0  0  0  0  0  0  0  # atno 17371 bound_to 10713
  139.9591  135.0158  156.9211 LP  0  0  0  0  0  0  0  0  0  0  0  0  # atno 17394 bound_to 11000
  140.5534  134.0605  155.7376 LP  0  0  0  0  0  0  0  0  0  0  0  0  # atno 17395 bound_to 11000

$$$$
