AV-unprocessed.smi:1703|AV-procd|sdf|6853|dock1
  -GOLD-   22720 8 33D 1   1.00000     0.00000
 Structure written by MMmdl.
 48 50  0  0  0  0  0  0  0  0  1 V2000
  147.8784  137.0767  158.6913 C   0  0  0  0  0  0  0  0  0  0  0  0
  149.2904  136.6496  159.1272 C   0  0  2  0  0  0  0  0  0  0  0  0
  150.2963  137.8179  159.1648 C   0  0  0  0  0  0  0  0  0  0  0  0
  150.7123  138.2496  157.8311 N   0  0  0  0  0  0  0  0  0  0  0  0
  151.6927  139.3362  157.8667 C   0  0  0  0  0  0  0  0  0  0  0  0
  151.2023  140.6582  158.4913 C   0  0  2  0  0  0  0  0  0  0  0  0
  150.1465  141.1698  157.7011 O   0  0  0  0  0  0  0  0  0  0  0  0
  152.3356  141.7007  158.5611 C   0  0  0  0  0  0  0  0  0  0  0  0
  152.1300  142.6945  159.6080 N   0  0  0  0  0  0  0  0  0  0  0  0
  151.3586  143.8121  159.5707 C   0  0  0  0  0  0  0  0  0  0  0  0
  150.5748  144.2043  158.3495 C   0  0  0  0  0  0  0  0  0  0  0  0
  151.3760  144.3940  157.2010 O   0  0  0  0  0  0  0  0  0  0  0  0
  151.3625  144.5515  160.6822 N   0  0  0  0  0  0  0  0  0  0  0  0
  152.2061  143.8476  161.5177 C   0  0  0  0  0  0  0  0  0  0  0  0
  152.6172  144.1144  162.8434 C   0  0  0  0  0  0  0  0  0  0  0  0
  153.5030  143.2396  163.5057 C   0  0  0  0  0  0  0  0  0  0  0  0
  153.9901  142.0889  162.8527 C   0  0  0  0  0  0  0  0  0  0  0  0
  153.5923  141.8043  161.5321 C   0  0  0  0  0  0  0  0  0  0  0  0
  152.7057  142.6797  160.8757 C   0  0  0  0  0  0  0  0  0  0  0  0
  151.2380  137.1000  157.1062 C   0  0  0  0  0  0  0  0  0  0  0  0
  150.2092  135.9595  157.0085 C   0  0  1  0  0  0  0  0  0  0  0  0
  150.7874  134.7198  156.3179 C   0  0  0  0  0  0  0  0  0  0  0  0
  149.7954  135.5842  158.3208 O   0  0  0  0  0  0  0  0  0  0  0  0
  147.4637  137.8073  159.3863 H   0  0  0  0  0  0  0  0  0  0  0  0
  147.2029  136.2215  158.6693 H   0  0  0  0  0  0  0  0  0  0  0  0
  147.8744  137.5321  157.7013 H   0  0  0  0  0  0  0  0  0  0  0  0
  149.2026  136.2515  160.1385 H   0  0  0  0  0  0  0  0  0  0  0  0
  149.8489  138.6429  159.7167 H   0  0  0  0  0  0  0  0  0  0  0  0
  151.1741  137.5074  159.7335 H   0  0  0  0  0  0  0  0  0  0  0  0
  152.5792  138.9945  158.4032 H   0  0  0  0  0  0  0  0  0  0  0  0
  152.0294  139.5501  156.8510 H   0  0  0  0  0  0  0  0  0  0  0  0
  150.8241  140.4924  159.4981 H   0  0  0  0  0  0  0  0  0  0  0  0
  150.2982  140.9251  156.8012 H   0  0  0  0  0  0  0  0  0  0  0  0
  153.2974  141.2137  158.7211 H   0  0  0  0  0  0  0  0  0  0  0  0
  152.4253  142.2165  157.6045 H   0  0  0  0  0  0  0  0  0  0  0  0
  149.8395  143.4273  158.1399 H   0  0  0  0  0  0  0  0  0  0  0  0
  150.0288  145.1298  158.5263 H   0  0  0  0  0  0  0  0  0  0  0  0
  150.8194  144.3656  156.4381 H   0  0  0  0  0  0  0  0  0  0  0  0
  152.2508  144.9944  163.3509 H   0  0  0  0  0  0  0  0  0  0  0  0
  153.8109  143.4528  164.5188 H   0  0  0  0  0  0  0  0  0  0  0  0
  154.6699  141.4250  163.3664 H   0  0  0  0  0  0  0  0  0  0  0  0
  153.9669  140.9243  161.0313 H   0  0  0  0  0  0  0  0  0  0  0  0
  151.5312  137.4019  156.0999 H   0  0  0  0  0  0  0  0  0  0  0  0
  152.1420  136.7360  157.5975 H   0  0  0  0  0  0  0  0  0  0  0  0
  149.3434  136.2975  156.4379 H   0  0  0  0  0  0  0  0  0  0  0  0
  151.1082  134.9500  155.3016 H   0  0  0  0  0  0  0  0  0  0  0  0
  150.0435  133.9249  156.2590 H   0  0  0  0  0  0  0  0  0  0  0  0
  151.6488  134.3304  156.8615 H   0  0  0  0  0  0  0  0  0  0  0  0
  1  2  1  0  0  0  0
  1 24  1  0  0  0  0
  1 25  1  0  0  0  0
  1 26  1  0  0  0  0
  2 23  1  0  0  0  0
  2  3  1  0  0  0  0
  2 27  1  0  0  0  0
  3  4  1  0  0  0  0
  3 28  1  0  0  0  0
  3 29  1  0  0  0  0
  4  5  1  0  0  0  0
  4 20  1  0  0  0  0
  5  6  1  0  0  0  0
  5 30  1  0  0  0  0
  5 31  1  0  0  0  0
  6  7  1  0  0  0  0
  6  8  1  0  0  0  0
  6 32  1  0  0  0  0
  7 33  1  0  0  0  0
  8  9  1  0  0  0  0
  8 34  1  0  0  0  0
  8 35  1  0  0  0  0
  9 19  1  0  0  0  0
  9 10  1  0  0  0  0
 10 11  1  0  0  0  0
 10 13  2  0  0  0  0
 11 12  1  0  0  0  0
 11 36  1  0  0  0  0
 11 37  1  0  0  0  0
 12 38  1  0  0  0  0
 13 14  1  0  0  0  0
 14 19  2  0  0  0  0
 14 15  1  0  0  0  0
 15 16  2  0  0  0  0
 15 39  1  0  0  0  0
 16 17  1  0  0  0  0
 16 40  1  0  0  0  0
 17 18  2  0  0  0  0
 17 41  1  0  0  0  0
 18 19  1  0  0  0  0
 18 42  1  0  0  0  0
 20 21  1  0  0  0  0
 20 43  1  0  0  0  0
 20 44  1  0  0  0  0
 21 22  1  0  0  0  0
 21 23  1  0  0  0  0
 21 45  1  0  0  0  0
 22 46  1  0  0  0  0
 22 47  1  0  0  0  0
 22 48  1  0  0  0  0
M  END
> <s_m_source_file>
AV-unprocessed.smi

> <i_m_source_file_index>
1703

> <i_lp_mmshare_version>
43012

> <i_f3d_flags>
0

> <s_epik_input>
W0NIM11bQ0BASF0xW0NIMl1OKFtDSDJdW0NASF0oTzEpW0NIM10pW0NIMl1bQ0BIXShbT0hdKVtDSDJdbihjKG4yKVtDSDJdW09IXSljKGMyMylbY0hdW2NIXVtjSF1bY0hdMw==

> <s_epik_cmdline>
J2VwaWtfcHl0aG9uJywgJy1waCcsICc3LjAnLCAnLXRuJywgJzgnLCAnLW1hJywgJzIwMCcsICctbWV0YWxfYmluZGluZycsICctaW1hZScsICc8aW5maWxlLm1hZT4nLCAnLW9tYWUnLCAnPG91dGZpbGUubWFlPic=

> <r_epik_Ionization_Penalty>
0.307685

> <r_epik_Ionization_Penalty_Charging>
0

> <r_epik_Ionization_Penalty_Neutral>
0.307685

> <r_epik_State_Penalty>
0.277856

> <r_epik_Charging_Adjusted_Penalty>
0.277856

> <i_epik_Tot_Q>
0

> <i_epik_Tot_abs_Q>
0

> <r_epik_Metal_State_Penalty>
0.238959

> <b_epik_Metal_Only>
0

> <s_lp_Force_Field>
OPLS_2005

> <r_lp_Energy>
33.4043

> <b_lp_Chiralities_Consistent>
1

> <s_lp_Variant>
AV-unprocessed.smi:1703-1

> <Gold.Version>
5.8.1

> <Gold.Id.Protein>
6NUR|6NUR_protein|mol2

> <Gold.PLP.Fitness>
47.5502

> <Gold.PLP.PLP>
-42.7995

> <Gold.PLP.part.hbond>
-2.0000

> <Gold.PLP.part.metal>
0.0000

> <Gold.PLP.part.buried>
-4.0522

> <Gold.PLP.part.nonpolar>
-37.1944

> <Gold.PLP.part.repulsive>
0.1500

> <Gold.PLP.ligand.clash>
0.0000

> <Gold.PLP.ligand.torsion>
0.5993

> <Gold.PLP.Chemscore.Hbond>
1.8960

> <Gold.PLP.Chemscore.CHOScore>
0.0000

> <Gold.PLP.Chemscore.Metal>
0.0000

> <Gold.Chemscore.Hbonds>
donor molecule, donor type, donor heavy atom, donor atom, acceptor molecule, acceptor atom, score
      L1  H    12    38       P1  8028  0.79
      P1  H  6896  6907       L1    23  0.83

> <Gold.PLP.Chemscore.Internal.Correction>
0.2613

> <Gold.Rescore>
     Score         DG    S(hbond)    S(metal)    S(lipo)     H(rot)  DE(clash)    DE(int)     intcor
     16.31     -17.21       1.72        0.00     114.14       2.88       0.26       0.65       ----

> <Gold.Chemscore.Fitness>
16.3087

> <Gold.Chemscore.DG>
-17.2146

> <Gold.Chemscore.ZeroCoef>
-5.4800

> <Gold.Chemscore.Hbond>
1.7209

> <Gold.Chemscore.Metal>
0.0000

> <Gold.Chemscore.Lipo>
114.1351

> <Gold.Chemscore.Internal_Hbond>
0.0000

> <Gold.Chemscore.DEClash>
0.2551

> <Gold.Chemscore.DEInternal>
0.6508

> <Gold.Chemscore.Rot>
2.8778

> <Gold.Chemscore.Internal.Correction>
   9.000000E+99

> <Gold.Chemscore.Hbonds>
donor molecule, donor type, donor heavy atom, donor atom, acceptor molecule, acceptor atom, score
      L1  H    12    38       P1  8028  0.75
      P1  H  6896  6907       L1    23  0.62

> <Gold.Chemscore.Hbond.Weighted>
-5.7478

> <Gold.Chemscore.Metal.Weighted>
-0.0000

> <Gold.Chemscore.Lipo.Weighted>
-13.3538

> <Gold.Chemscore.Internal_Hbond.Weighted>
0.0000

> <Gold.Chemscore.DEClash.Weighted>
0.2551

> <Gold.Chemscore.DEInternal.Weighted>
0.6508

> <Gold.Chemscore.Rot.Weighted>
7.3671

> <Gold.Chemscore.Internal.Correction.Weighted>
   9.000000E+99

> <Gold.Protein.RotatedTorsions>
[ 6907 6896 6895 6894 ] final  -89.72 input  -60.11 | X-H torsion
[ 7974 7965 7964 7962 ] final  100.20 input  175.53 | X-H torsion
[ 8008 7997 7996 7995 ] final  -19.34 input   59.86 | X-H torsion
[ 10167 10162 10161 10158 ] final -145.28 input  -65.29 | X-H torsion
[ 10718 10713 10712 10709 ] final  -73.23 input   66.30 | X-H torsion
[ 10763 10752 10751 10750 ] final    8.11 input  -60.55 | X-H torsion
[ 11005 11000 10999 10996 ] final   56.68 input  -57.11 | X-H torsion

> <Gold.Protein.ActiveResidues>
 VAL166  LYS551  ARG553  GLY616  TRP617  ASP618  TYR619  PRO620  LYS621  CYS622 
 ASP623  PHE694  ASN695  SER759  ASP760  ASP761  ALA762  ILE779  LEU786  VAL792 
 PHE793  MET794  SER795  GLU796  ALA797  LYS798  CYS799  TRP800  GLU811  SER814 

> <Gold.Protein.RotatedAtoms>
  150.6876  134.2544  159.4523 H   0  0  0  0  0  0  0  0  0  0  0  0  # atno 6907 bound_to 6896
  152.0479  134.9669  160.0584 H   0  0  0  0  0  0  0  0  0  0  0  0  # atno 6908 bound_to 6896
  152.1145  133.4284  159.4683 H   0  0  0  0  0  0  0  0  0  0  0  0  # atno 6909 bound_to 6896
  145.3888  139.2366  143.3363 H   0  0  0  0  0  0  0  0  0  0  0  0  # atno 7974 bound_to 7965
  154.4844  140.2091  155.9690 H   0  0  0  0  0  0  0  0  0  0  0  0  # atno 8008 bound_to 7997
  156.1213  140.3213  155.8182 H   0  0  0  0  0  0  0  0  0  0  0  0  # atno 8009 bound_to 7997
  155.4462  140.0513  157.2996 H   0  0  0  0  0  0  0  0  0  0  0  0  # atno 8010 bound_to 7997
  139.7820  143.8087  152.2640 H   0  0  0  0  0  0  0  0  0  0  0  0  # atno 10167 bound_to 10162
  156.0288  130.4389  150.2711 H   0  0  0  0  0  0  0  0  0  0  0  0  # atno 10718 bound_to 10713
  153.2287  135.6890  153.7915 H   0  0  0  0  0  0  0  0  0  0  0  0  # atno 10763 bound_to 10752
  153.7088  135.3285  155.3242 H   0  0  0  0  0  0  0  0  0  0  0  0  # atno 10764 bound_to 10752
  154.8304  135.4585  154.1163 H   0  0  0  0  0  0  0  0  0  0  0  0  # atno 10765 bound_to 10752
  140.0510  134.5737  155.9263 H   0  0  0  0  0  0  0  0  0  0  0  0  # atno 11005 bound_to 11000
  146.2807  140.4567  142.8777 LP  0  0  0  0  0  0  0  0  0  0  0  0  # atno 17320 bound_to 7965
  144.8455  140.6922  143.6202 LP  0  0  0  0  0  0  0  0  0  0  0  0  # atno 17321 bound_to 7965
  139.8153  144.7319  150.9644 LP  0  0  0  0  0  0  0  0  0  0  0  0  # atno 17342 bound_to 10162
  140.7818  143.4211  151.0840 LP  0  0  0  0  0  0  0  0  0  0  0  0  # atno 17343 bound_to 10162
  157.0814  131.0144  151.3155 LP  0  0  0  0  0  0  0  0  0  0  0  0  # atno 17370 bound_to 10713
  157.4924  130.7830  149.7521 LP  0  0  0  0  0  0  0  0  0  0  0  0  # atno 17371 bound_to 10713
  141.1930  133.6577  156.5529 LP  0  0  0  0  0  0  0  0  0  0  0  0  # atno 17394 bound_to 11000
  140.3917  134.7434  157.4726 LP  0  0  0  0  0  0  0  0  0  0  0  0  # atno 17395 bound_to 11000

$$$$
