AV-unprocessed.smi:3168|AV-procd|sdf|12101|dock9
  -GOLD-   2272017533D 1   1.00000     0.00000
 Structure written by MMmdl.
 33 34  0  0  0  0  0  0  0  0  1 V2000
  150.4980  137.9561  154.5199 C   0  0  0  0  0  0  0  0  0  0  0  0
  150.7024  139.4630  154.7794 C   0  0  2  0  0  0  0  0  0  0  0  0
  151.6782  139.7484  155.9346 C   0  0  0  0  0  0  0  0  0  0  0  0
  152.8677  139.4415  155.8454 O   0  0  0  0  0  0  0  0  0  0  0  0
  151.1579  140.3536  157.0147 N   0  0  0  0  0  0  0  0  0  0  0  0
  151.9057  140.7462  158.2033 C   0  0  0  0  0  0  0  0  0  0  0  0
  151.5087  142.1554  158.6715 C   0  0  1  0  0  0  0  0  0  0  0  0
  152.5783  142.8448  159.5155 C   0  0  0  0  0  0  0  0  0  0  0  0
  152.2055  144.2999  159.3466 C   0  0  0  0  0  0  0  0  0  0  0  0
  151.7594  144.3468  157.8870 C   0  0  0  0  0  0  0  0  0  0  0  0
  151.3153  143.0310  157.5636 O   0  0  0  0  0  0  0  0  0  0  0  0
  149.4353  140.1558  154.9879 N   0  0  0  0  0  0  0  0  0  0  0  0
  148.8520  141.1177  154.1876 C   0  0  0  0  0  0  0  0  0  0  0  0
  147.6899  141.5049  154.7907 C   0  0  0  0  0  0  0  0  0  0  0  0
  147.6476  140.7209  155.9768 C   0  0  0  0  0  0  0  0  0  0  0  0
  148.6941  139.9204  156.0959 N   0  0  0  0  0  0  0  0  0  0  0  0
  151.4459  137.4613  154.3049 H   0  0  0  0  0  0  0  0  0  0  0  0
  149.8450  137.7952  153.6617 H   0  0  0  0  0  0  0  0  0  0  0  0
  150.0485  137.4510  155.3759 H   0  0  0  0  0  0  0  0  0  0  0  0
  151.1531  139.8840  153.8793 H   0  0  0  0  0  0  0  0  0  0  0  0
  150.1719  140.5704  157.0059 H   0  0  0  0  0  0  0  0  0  0  0  0
  151.6788  140.0237  158.9876 H   0  0  0  0  0  0  0  0  0  0  0  0
  152.9817  140.6852  158.0316 H   0  0  0  0  0  0  0  0  0  0  0  0
  150.5775  142.1170  159.2395 H   0  0  0  0  0  0  0  0  0  0  0  0
  152.5743  142.5201  160.5563 H   0  0  0  0  0  0  0  0  0  0  0  0
  153.5719  142.6638  159.1025 H   0  0  0  0  0  0  0  0  0  0  0  0
  151.3702  144.5484  160.0027 H   0  0  0  0  0  0  0  0  0  0  0  0
  153.0264  144.9834  159.5646 H   0  0  0  0  0  0  0  0  0  0  0  0
  150.9718  145.0822  157.7220 H   0  0  0  0  0  0  0  0  0  0  0  0
  152.5978  144.5975  157.2363 H   0  0  0  0  0  0  0  0  0  0  0  0
  149.3083  141.4440  153.2645 H   0  0  0  0  0  0  0  0  0  0  0  0
  146.9799  142.2389  154.4397 H   0  0  0  0  0  0  0  0  0  0  0  0
  146.8949  140.7119  156.7514 H   0  0  0  0  0  0  0  0  0  0  0  0
  1  2  1  0  0  0  0
  1 17  1  0  0  0  0
  1 18  1  0  0  0  0
  1 19  1  0  0  0  0
  2  3  1  0  0  0  0
  2 12  1  0  0  0  0
  2 20  1  0  0  0  0
  3  4  2  0  0  0  0
  3  5  1  0  0  0  0
  5  6  1  0  0  0  0
  5 21  1  0  0  0  0
  6  7  1  0  0  0  0
  6 22  1  0  0  0  0
  6 23  1  0  0  0  0
  7 11  1  0  0  0  0
  7  8  1  0  0  0  0
  7 24  1  0  0  0  0
  8  9  1  0  0  0  0
  8 25  1  0  0  0  0
  8 26  1  0  0  0  0
  9 10  1  0  0  0  0
  9 27  1  0  0  0  0
  9 28  1  0  0  0  0
 10 11  1  0  0  0  0
 10 29  1  0  0  0  0
 10 30  1  0  0  0  0
 12 16  1  0  0  0  0
 12 13  1  0  0  0  0
 13 14  2  0  0  0  0
 13 31  1  0  0  0  0
 14 15  1  0  0  0  0
 14 32  1  0  0  0  0
 15 16  2  0  0  0  0
 15 33  1  0  0  0  0
M  END
> <s_m_source_file>
AV-unprocessed.smi

> <i_m_source_file_index>
3168

> <i_lp_mmshare_version>
43012

> <i_f3d_flags>
0

> <s_epik_input>
bjFbY0hdW2NIXVtjSF1uMVtDQEhdKFtDSDNdKUMoPU8pW05IXVtDSDJdW0NAQEhdMltDSDJdW0NIMl1bQ0gyXU8y

> <s_epik_cmdline>
J2VwaWtfcHl0aG9uJywgJy1waCcsICc3LjAnLCAnLXRuJywgJzgnLCAnLW1hJywgJzIwMCcsICctbWV0YWxfYmluZGluZycsICctaW1hZScsICc8aW5maWxlLm1hZT4nLCAnLW9tYWUnLCAnPG91dGZpbGUubWFlPic=

> <r_lp_tautomer_probability>
1

> <r_epik_Ionization_Penalty>
4.14877e-05

> <r_epik_Ionization_Penalty_Charging>
0

> <r_epik_Ionization_Penalty_Neutral>
4.14877e-05

> <r_epik_State_Penalty>
-0

> <r_epik_Charging_Adjusted_Penalty>
0

> <i_epik_Tot_Q>
0

> <i_epik_Tot_abs_Q>
0

> <r_epik_Metal_State_Penalty>
-0

> <b_epik_Metal_Only>
0

> <s_lp_Force_Field>
OPLS_2005

> <r_lp_Energy>
21.5397

> <b_lp_Chiralities_Consistent>
1

> <s_lp_Variant>
AV-unprocessed.smi:3168-3

> <Gold.Version>
5.8.1

> <Gold.Id.Protein>
6NUR|6NUR_protein|mol2

> <Gold.PLP.Fitness>
40.1272

> <Gold.PLP.PLP>
-35.1828

> <Gold.PLP.part.hbond>
-1.0000

> <Gold.PLP.part.metal>
0.0000

> <Gold.PLP.part.buried>
-3.1420

> <Gold.PLP.part.nonpolar>
-31.3505

> <Gold.PLP.part.repulsive>
0.1954

> <Gold.PLP.ligand.clash>
0.0000

> <Gold.PLP.ligand.torsion>
0.5255

> <Gold.PLP.Chemscore.Hbond>
1.0000

> <Gold.PLP.Chemscore.CHOScore>
0.9638

> <Gold.PLP.Chemscore.Metal>
0.0000

> <Gold.Chemscore.Hbonds>
donor molecule, donor type, donor heavy atom, donor atom, acceptor molecule, acceptor atom, score
      P1  H  7997  8010       L1     4  1.00
      L1  C    13    31       P1  7957  0.93

> <Gold.PLP.Chemscore.Internal.Correction>
0.1042

> <Gold.Rescore>
     Score         DG    S(hbond)    S(metal)    S(lipo)     H(rot)  DE(clash)    DE(int)     intcor
     12.93     -14.65       1.00        0.00      85.11       1.61       0.01       1.70       ----

> <Gold.Chemscore.Fitness>
12.9332

> <Gold.Chemscore.DG>
-14.6457

> <Gold.Chemscore.ZeroCoef>
-5.4800

> <Gold.Chemscore.Hbond>
0.9965

> <Gold.Chemscore.Metal>
0.0000

> <Gold.Chemscore.Lipo>
85.1065

> <Gold.Chemscore.Internal_Hbond>
0.0000

> <Gold.Chemscore.DEClash>
0.0098

> <Gold.Chemscore.DEInternal>
1.7027

> <Gold.Chemscore.Rot>
1.6094

> <Gold.Chemscore.Internal.Correction>
   9.000000E+99

> <Gold.Chemscore.Hbonds>
donor molecule, donor type, donor heavy atom, donor atom, acceptor molecule, acceptor atom, score
      P1  H  7997  8010       L1     4  1.00

> <Gold.Chemscore.Hbond.Weighted>
-3.3283

> <Gold.Chemscore.Metal.Weighted>
-0.0000

> <Gold.Chemscore.Lipo.Weighted>
-9.9575

> <Gold.Chemscore.Internal_Hbond.Weighted>
0.0000

> <Gold.Chemscore.DEClash.Weighted>
0.0098

> <Gold.Chemscore.DEInternal.Weighted>
1.7027

> <Gold.Chemscore.Rot.Weighted>
4.1201

> <Gold.Chemscore.Internal.Correction.Weighted>
   9.000000E+99

> <Gold.Protein.RotatedTorsions>
[ 6907 6896 6895 6894 ] final -105.08 input  -60.11 | X-H torsion
[ 7974 7965 7964 7962 ] final   41.49 input  175.53 | X-H torsion
[ 8008 7997 7996 7995 ] final   97.42 input   59.86 | X-H torsion
[ 10167 10162 10161 10158 ] final   80.85 input  -65.29 | X-H torsion
[ 10718 10713 10712 10709 ] final -133.49 input   66.30 | X-H torsion
[ 10763 10752 10751 10750 ] final   45.38 input  -60.55 | X-H torsion
[ 11005 11000 10999 10996 ] final  -77.90 input  -57.11 | X-H torsion

> <Gold.Protein.ActiveResidues>
 VAL166  LYS551  ARG553  GLY616  TRP617  ASP618  TYR619  PRO620  LYS621  CYS622 
 ASP623  PHE694  ASN695  SER759  ASP760  ASP761  ALA762  ILE779  LEU786  VAL792 
 PHE793  MET794  SER795  GLU796  ALA797  LYS798  CYS799  TRP800  GLU811  SER814 

> <Gold.Protein.RotatedAtoms>
  150.7319  134.0181  159.3691 H   0  0  0  0  0  0  0  0  0  0  0  0  # atno 6907 bound_to 6896
  151.8144  135.0669  160.0426 H   0  0  0  0  0  0  0  0  0  0  0  0  # atno 6908 bound_to 6896
  152.3049  133.5657  159.5679 H   0  0  0  0  0  0  0  0  0  0  0  0  # atno 6909 bound_to 6896
  146.0819  139.5409  142.9532 H   0  0  0  0  0  0  0  0  0  0  0  0  # atno 7974 bound_to 7965
  156.0899  140.3258  155.7802 H   0  0  0  0  0  0  0  0  0  0  0  0  # atno 8008 bound_to 7997
  155.5013  140.0569  157.2956 H   0  0  0  0  0  0  0  0  0  0  0  0  # atno 8009 bound_to 7997
  154.4631  140.1976  156.0206 H   0  0  0  0  0  0  0  0  0  0  0  0  # atno 8010 bound_to 7997
  139.9454  144.6062  150.8211 H   0  0  0  0  0  0  0  0  0  0  0  0  # atno 10167 bound_to 10162
  156.2454  130.7121  151.0999 H   0  0  0  0  0  0  0  0  0  0  0  0  # atno 10718 bound_to 10713
  152.9825  135.6041  154.3427 H   0  0  0  0  0  0  0  0  0  0  0  0  # atno 10763 bound_to 10752
  154.3122  135.2771  155.2562 H   0  0  0  0  0  0  0  0  0  0  0  0  # atno 10764 bound_to 10752
  154.4766  135.5928  153.6415 H   0  0  0  0  0  0  0  0  0  0  0  0  # atno 10765 bound_to 10752
  141.1662  133.7041  156.7890 H   0  0  0  0  0  0  0  0  0  0  0  0  # atno 11005 bound_to 11000
  145.6202  141.0324  143.1919 LP  0  0  0  0  0  0  0  0  0  0  0  0  # atno 17320 bound_to 7965
  144.7299  139.7759  143.7351 LP  0  0  0  0  0  0  0  0  0  0  0  0  # atno 17321 bound_to 7965
  140.7599  143.3138  151.2781 LP  0  0  0  0  0  0  0  0  0  0  0  0  # atno 17342 bound_to 10162
  139.6671  144.0086  152.2730 LP  0  0  0  0  0  0  0  0  0  0  0  0  # atno 17343 bound_to 10162
  157.7193  131.0691  150.6202 LP  0  0  0  0  0  0  0  0  0  0  0  0  # atno 17370 bound_to 10713
  156.6278  130.4423  149.5798 LP  0  0  0  0  0  0  0  0  0  0  0  0  # atno 17371 bound_to 10713
  140.2339  134.8665  157.3505 LP  0  0  0  0  0  0  0  0  0  0  0  0  # atno 17394 bound_to 11000
  140.1863  134.4427  155.7742 LP  0  0  0  0  0  0  0  0  0  0  0  0  # atno 17395 bound_to 11000

$$$$
