AV-unprocessed.smi:3282|AV-procd|sdf|12561|dock4
  -GOLD-   2272018483D 1   1.00000     0.00000
 Structure written by MMmdl.
 34 35  0  0  0  0  0  0  0  0  1 V2000
  145.4296  130.4792  151.5051 C   0  0  0  0  0  0  0  0  0  0  0  0
  145.6222  131.7979  150.7389 C   0  0  0  0  0  0  0  0  0  0  0  0
  144.4087  132.7399  150.8116 C   0  0  0  0  0  0  0  0  0  0  0  0
  143.3443  132.4115  150.2853 O   0  0  0  0  0  0  0  0  0  0  0  0
  144.5523  133.9152  151.4588 N   0  0  0  0  0  0  0  0  0  0  0  0
  143.5172  134.9352  151.6139 C   0  0  0  0  0  0  0  0  0  0  0  0
  144.2123  136.1494  152.2301 C   0  0  0  0  0  0  0  0  0  0  0  0
  145.4446  135.5772  152.9302 C   0  0  2  0  0  0  0  0  0  0  0  0
  146.5603  136.5173  152.9608 N   0  0  0  0  0  0  0  0  0  0  0  0
  146.5224  137.7308  153.5295 C   0  0  0  0  0  0  0  0  0  0  0  0
  145.5237  138.1893  154.0853 O   0  0  0  0  0  0  0  0  0  0  0  0
  147.7012  138.3640  153.4097 N   0  0  0  0  0  0  0  0  0  0  0  0
  148.0449  139.6484  153.9018 C   0  0  0  0  0  0  0  0  0  0  0  0
  147.2094  140.6643  154.1241 N   0  0  0  0  0  0  0  0  0  0  0  0
  148.0186  141.6845  154.6025 C   0  0  0  0  0  0  0  0  0  0  0  0
  149.3095  141.2233  154.6424 C   0  0  0  0  0  0  0  0  0  0  0  0
  149.3414  139.9282  154.1995 O   0  0  0  0  0  0  0  0  0  0  0  0
  145.7910  134.3273  152.1143 C   0  0  0  0  0  0  0  0  0  0  0  0
  146.3144  129.8490  151.4141 H   0  0  0  0  0  0  0  0  0  0  0  0
  144.5816  129.9132  151.1175 H   0  0  0  0  0  0  0  0  0  0  0  0
  145.2609  130.6561  152.5678 H   0  0  0  0  0  0  0  0  0  0  0  0
  146.4943  132.3181  151.1360 H   0  0  0  0  0  0  0  0  0  0  0  0
  145.8345  131.5709  149.6937 H   0  0  0  0  0  0  0  0  0  0  0  0
  143.0465  135.1950  150.6648 H   0  0  0  0  0  0  0  0  0  0  0  0
  142.7448  134.5600  152.2868 H   0  0  0  0  0  0  0  0  0  0  0  0
  144.5152  136.8291  151.4321 H   0  0  0  0  0  0  0  0  0  0  0  0
  143.5641  136.7053  152.9083 H   0  0  0  0  0  0  0  0  0  0  0  0
  145.1751  135.2710  153.9429 H   0  0  0  0  0  0  0  0  0  0  0  0
  147.4208  136.2183  152.5256 H   0  0  0  0  0  0  0  0  0  0  0  0
  148.4351  137.8724  152.9214 H   0  0  0  0  0  0  0  0  0  0  0  0
  147.6170  142.6491  154.8757 H   0  0  0  0  0  0  0  0  0  0  0  0
  150.2522  141.6582  154.9400 H   0  0  0  0  0  0  0  0  0  0  0  0
  146.1963  133.5406  152.7528 H   0  0  0  0  0  0  0  0  0  0  0  0
  146.5310  134.5483  151.3428 H   0  0  0  0  0  0  0  0  0  0  0  0
  1  2  1  0  0  0  0
  1 19  1  0  0  0  0
  1 20  1  0  0  0  0
  1 21  1  0  0  0  0
  2  3  1  0  0  0  0
  2 22  1  0  0  0  0
  2 23  1  0  0  0  0
  3  4  2  0  0  0  0
  3  5  1  0  0  0  0
  5 18  1  0  0  0  0
  5  6  1  0  0  0  0
  6  7  1  0  0  0  0
  6 24  1  0  0  0  0
  6 25  1  0  0  0  0
  7  8  1  0  0  0  0
  7 26  1  0  0  0  0
  7 27  1  0  0  0  0
  8  9  1  0  0  0  0
  8 18  1  0  0  0  0
  8 28  1  0  0  0  0
  9 10  1  0  0  0  0
  9 29  1  0  0  0  0
 10 11  2  0  0  0  0
 10 12  1  0  0  0  0
 12 13  1  0  0  0  0
 12 30  1  0  0  0  0
 13 17  1  0  0  0  0
 13 14  2  0  0  0  0
 14 15  1  0  0  0  0
 15 16  2  0  0  0  0
 15 31  1  0  0  0  0
 16 17  1  0  0  0  0
 16 32  1  0  0  0  0
 18 33  1  0  0  0  0
 18 34  1  0  0  0  0
M  END
> <s_m_source_file>
AV-unprocessed.smi

> <i_m_source_file_index>
3282

> <i_lp_mmshare_version>
43012

> <i_f3d_flags>
0

> <s_epik_input>
W0NIM11bQ0gyXUMoPU8pTjFbQ0gyXVtDSDJdW0NASF0oW0NIMl0xKVtOSF1DKD1PKVtOSF1jMm5bY0hdW2NIXW8y

> <s_epik_cmdline>
J2VwaWtfcHl0aG9uJywgJy1waCcsICc3LjAnLCAnLXRuJywgJzgnLCAnLW1hJywgJzIwMCcsICctbWV0YWxfYmluZGluZycsICctaW1hZScsICc8aW5maWxlLm1hZT4nLCAnLW9tYWUnLCAnPG91dGZpbGUubWFlPic=

> <r_lp_tautomer_probability>
0.785861

> <r_epik_Ionization_Penalty>
4.35681e-05

> <r_epik_Ionization_Penalty_Charging>
0

> <r_epik_Ionization_Penalty_Neutral>
4.35681e-05

> <r_epik_State_Penalty>
0.0212547

> <r_epik_Charging_Adjusted_Penalty>
0.0212547

> <i_epik_Tot_Q>
0

> <i_epik_Tot_abs_Q>
0

> <r_epik_Metal_State_Penalty>
0.00779955

> <b_epik_Metal_Only>
0

> <s_lp_Force_Field>
OPLS_2005

> <r_lp_Energy>
25.4049

> <b_lp_Chiralities_Consistent>
1

> <s_lp_Variant>
AV-unprocessed.smi:3282-2

> <Gold.Version>
5.8.1

> <Gold.Id.Protein>
6NUR|6NUR_protein|mol2

> <Gold.PLP.Fitness>
35.8339

> <Gold.PLP.PLP>
-27.4049

> <Gold.PLP.part.hbond>
-2.0000

> <Gold.PLP.part.metal>
0.0000

> <Gold.PLP.part.buried>
-5.6658

> <Gold.PLP.part.nonpolar>
-21.9428

> <Gold.PLP.part.repulsive>
1.3077

> <Gold.PLP.ligand.clash>
0.0000

> <Gold.PLP.ligand.torsion>
0.1986

> <Gold.PLP.Chemscore.Hbond>
1.9600

> <Gold.PLP.Chemscore.CHOScore>
0.9795

> <Gold.PLP.Chemscore.Metal>
0.0000

> <Gold.Chemscore.Hbonds>
donor molecule, donor type, donor heavy atom, donor atom, acceptor molecule, acceptor atom, score
      L1  H     9    29       P1  7948  1.00
      L1  H    12    30       P1  7948  0.96
      L1  C    15    31       P1  8028  0.98

> <Gold.PLP.Chemscore.Internal.Correction>
0.0077

> <Gold.Rescore>
     Score         DG    S(hbond)    S(metal)    S(lipo)     H(rot)  DE(clash)    DE(int)     intcor
     13.14     -14.41       1.93        0.00      49.97       1.32       0.01       1.26       ----

> <Gold.Chemscore.Fitness>
13.1418

> <Gold.Chemscore.DG>
-14.4072

> <Gold.Chemscore.ZeroCoef>
-5.4800

> <Gold.Chemscore.Hbond>
1.9340

> <Gold.Chemscore.Metal>
0.0000

> <Gold.Chemscore.Lipo>
49.9716

> <Gold.Chemscore.Internal_Hbond>
0.0000

> <Gold.Chemscore.DEClash>
0.0089

> <Gold.Chemscore.DEInternal>
1.2565

> <Gold.Chemscore.Rot>
1.3199

> <Gold.Chemscore.Internal.Correction>
   9.000000E+99

> <Gold.Chemscore.Hbonds>
donor molecule, donor type, donor heavy atom, donor atom, acceptor molecule, acceptor atom, score
      L1  H     9    29       P1  7948  1.00
      L1  H    12    30       P1  7948  0.89

> <Gold.Chemscore.Hbond.Weighted>
-6.4595

> <Gold.Chemscore.Metal.Weighted>
-0.0000

> <Gold.Chemscore.Lipo.Weighted>
-5.8467

> <Gold.Chemscore.Internal_Hbond.Weighted>
0.0000

> <Gold.Chemscore.DEClash.Weighted>
0.0089

> <Gold.Chemscore.DEInternal.Weighted>
1.2565

> <Gold.Chemscore.Rot.Weighted>
3.3789

> <Gold.Chemscore.Internal.Correction.Weighted>
   9.000000E+99

> <Gold.Protein.RotatedTorsions>
[ 6907 6896 6895 6894 ] final -115.52 input  -60.11 | X-H torsion
[ 7974 7965 7964 7962 ] final  -81.77 input  175.53 | X-H torsion
[ 8008 7997 7996 7995 ] final  149.17 input   59.86 | X-H torsion
[ 10167 10162 10161 10158 ] final  -61.72 input  -65.29 | X-H torsion
[ 10718 10713 10712 10709 ] final   26.49 input   66.30 | X-H torsion
[ 10763 10752 10751 10750 ] final  116.58 input  -60.55 | X-H torsion
[ 11005 11000 10999 10996 ] final   88.01 input  -57.11 | X-H torsion

> <Gold.Protein.ActiveResidues>
 VAL166  LYS551  ARG553  GLY616  TRP617  ASP618  TYR619  PRO620  LYS621  CYS622 
 ASP623  PHE694  ASN695  SER759  ASP760  ASP761  ALA762  ILE779  LEU786  VAL792 
 PHE793  MET794  SER795  GLU796  ALA797  LYS798  CYS799  TRP800  GLU811  SER814 

> <Gold.Protein.RotatedAtoms>
  150.7985  133.8646  159.3241 H   0  0  0  0  0  0  0  0  0  0  0  0  # atno 6907 bound_to 6896
  151.6465  135.1005  160.0161 H   0  0  0  0  0  0  0  0  0  0  0  0  # atno 6908 bound_to 6896
  152.4069  133.6864  159.6399 H   0  0  0  0  0  0  0  0  0  0  0  0  # atno 6909 bound_to 6896
  145.5422  140.9508  143.1545 H   0  0  0  0  0  0  0  0  0  0  0  0  # atno 7974 bound_to 7965
  156.2765  140.2109  156.5815 H   0  0  0  0  0  0  0  0  0  0  0  0  # atno 8008 bound_to 7997
  154.7055  140.0517  157.0523 H   0  0  0  0  0  0  0  0  0  0  0  0  # atno 8009 bound_to 7997
  155.0677  140.3173  155.4643 H   0  0  0  0  0  0  0  0  0  0  0  0  # atno 8010 bound_to 7997
  140.5987  143.2356  151.5978 H   0  0  0  0  0  0  0  0  0  0  0  0  # atno 10167 bound_to 10162
  157.2076  130.6919  149.6214 H   0  0  0  0  0  0  0  0  0  0  0  0  # atno 10718 bound_to 10713
  153.5393  135.3562  155.2711 H   0  0  0  0  0  0  0  0  0  0  0  0  # atno 10763 bound_to 10752
  154.8719  135.4087  154.3062 H   0  0  0  0  0  0  0  0  0  0  0  0  # atno 10764 bound_to 10752
  153.3766  135.7066  153.6665 H   0  0  0  0  0  0  0  0  0  0  0  0  # atno 10765 bound_to 10752
  139.8906  134.8460  156.2940 H   0  0  0  0  0  0  0  0  0  0  0  0  # atno 11005 bound_to 11000
  144.7571  139.7047  143.7249 LP  0  0  0  0  0  0  0  0  0  0  0  0  # atno 17320 bound_to 7965
  146.1973  139.5247  142.9766 LP  0  0  0  0  0  0  0  0  0  0  0  0  # atno 17321 bound_to 7965
  139.5276  144.3013  152.1071 LP  0  0  0  0  0  0  0  0  0  0  0  0  # atno 17342 bound_to 10162
  140.2190  144.4486  150.6350 LP  0  0  0  0  0  0  0  0  0  0  0  0  # atno 17343 bound_to 10162
  155.9694  130.4562  150.5916 LP  0  0  0  0  0  0  0  0  0  0  0  0  # atno 17370 bound_to 10713
  157.3705  131.0765  151.1562 LP  0  0  0  0  0  0  0  0  0  0  0  0  # atno 17371 bound_to 10713
  140.9957  133.7181  156.0883 LP  0  0  0  0  0  0  0  0  0  0  0  0  # atno 17394 bound_to 11000
  140.7565  134.3987  157.5533 LP  0  0  0  0  0  0  0  0  0  0  0  0  # atno 17395 bound_to 11000

$$$$
