AV-unprocessed.smi:66|AV-procd|sdf|626|dock5
  -GOLD-   2262016523D 1   1.00000     0.00000
 Structure written by MMmdl.
 27 29  0  0  0  0  0  0  0  0  3 V2000
  153.3970  138.5385  157.0424 O   0  0  0  0  0  0  0  0  0  0  0  0
  152.2201  138.9367  157.1841 C   0  0  0  0  0  0  0  0  0  0  0  0
  151.2360  138.2079  157.4422 O   0  5  0  0  0  0  0  0  0  0  0  0
  151.9739  140.4422  157.0064 C   0  0  1  0  0  0  0  0  0  0  0  0
  151.0036  140.7368  155.8531 C   0  0  0  0  0  0  0  0  0  0  0  0
  150.4008  142.0763  156.2653 C   0  0  1  0  0  0  0  0  0  0  0  0
  149.1601  142.3323  155.6408 O   0  0  0  0  0  0  0  0  0  0  0  0
  150.2862  141.9581  157.7868 C   0  0  0  0  0  0  0  0  0  0  0  0
  151.3645  141.0614  158.1867 N   0  0  0  0  0  0  0  0  0  0  0  0
  152.1138  141.3449  159.3509 C   0  0  0  0  0  0  0  0  0  0  0  0
  153.0922  140.4761  159.7144 N   0  0  0  0  0  0  0  0  0  0  0  0
  153.8006  140.7534  160.8144 C   0  0  0  0  0  0  0  0  0  0  0  0
  153.6594  141.8123  161.6170 N   0  0  0  0  0  0  0  0  0  0  0  0
  152.6886  142.6831  161.2734 C   0  0  0  0  0  0  0  0  0  0  0  0
  152.2698  143.8095  161.8275 N   0  5  0  0  0  0  0  0  0  0  0  0
  151.2476  144.2782  161.0671 C   0  0  0  0  0  0  0  0  0  0  0  0
  150.9627  143.4955  160.0064 N   0  0  0  0  0  0  0  0  0  0  0  0
  151.8854  142.4973  160.1485 C   0  0  0  0  0  0  0  0  0  0  0  0
  152.9213  140.9417  156.7978 H   0  0  0  0  0  0  0  0  0  0  0  0
  151.5019  140.7805  154.8844 H   0  0  0  0  0  0  0  0  0  0  0  0
  150.2204  139.9780  155.7954 H   0  0  0  0  0  0  0  0  0  0  0  0
  151.0995  142.8760  156.0153 H   0  0  0  0  0  0  0  0  0  0  0  0
  149.0698  143.2661  155.5303 H   0  0  0  0  0  0  0  0  0  0  0  0
  150.3508  142.9412  158.2549 H   0  0  0  0  0  0  0  0  0  0  0  0
  149.3392  141.5020  158.0787 H   0  0  0  0  0  0  0  0  0  0  0  0
  154.5745  140.0483  161.0788 H   0  0  0  0  0  0  0  0  0  0  0  0
  150.7503  145.1997  161.3430 H   0  0  0  0  0  0  0  0  0  0  0  0
  1  2  2  0  0  0  0
  2  3  1  0  0  0  0
  2  4  1  0  0  0  0
  4  5  1  0  0  0  0
  4 19  1  0  0  0  0
  4  9  1  0  0  0  0
  5  6  1  0  0  0  0
  5 20  1  0  0  0  0
  5 21  1  0  0  0  0
  6  7  1  0  0  0  0
  6  8  1  0  0  0  0
  6 22  1  0  0  0  0
  7 23  1  0  0  0  0
  8 24  1  0  0  0  0
  8 25  1  0  0  0  0
  8  9  1  0  0  0  0
  9 10  1  0  0  0  0
 10 11  1  0  0  0  0
 10 18  2  0  0  0  0
 11 12  2  0  0  0  0
 12 26  1  0  0  0  0
 12 13  1  0  0  0  0
 13 14  2  0  0  0  0
 14 15  1  0  0  0  0
 14 18  1  0  0  0  0
 15 16  1  0  0  0  0
 16 17  2  0  0  0  0
 16 27  1  0  0  0  0
 17 18  1  0  0  0  0
M  CHG  1   3  -1
M  CHG  1  15  -1
M  END
> <s_m_source_file>
AV-unprocessed.smi

> <i_m_source_file_index>
66

> <i_lp_mmshare_version>
43012

> <i_f3d_flags>
0

> <s_epik_input>
Tz1DKFtPSF0pW0NAQEhdMVtDSDJdW0NAQEhdKFtPSF0pW0NIMl1OMWMobltjSF1uMiljKGMyMylbbkhdW2NIXW4z

> <s_epik_cmdline>
J2VwaWtfcHl0aG9uJywgJy1waCcsICc3LjAnLCAnLXRuJywgJzgnLCAnLW1hJywgJzIwMCcsICctbWV0YWxfYmluZGluZycsICctaW1hZScsICc8aW5maWxlLm1hZT4nLCAnLW9tYWUnLCAnPG91dGZpbGUubWFlPic=

> <r_lp_tautomer_probability>
0.955585

> <r_epik_Ionization_Penalty>
7.65809

> <r_epik_Ionization_Penalty_Charging>
3.4974

> <r_epik_Ionization_Penalty_Neutral>
4.16069

> <r_epik_State_Penalty>
3.51624

> <r_epik_Charging_Adjusted_Penalty>
7.01364

> <i_epik_Tot_Q>
-2

> <i_epik_Tot_abs_Q>
2

> <r_epik_Metal_State_Penalty>
0.522662

> <b_epik_Metal_Only>
1

> <s_lp_Force_Field>
OPLS_2005

> <r_lp_Energy>
45.116

> <b_lp_Chiralities_Consistent>
1

> <s_lp_Variant>
AV-unprocessed.smi:66-10

> <Gold.Version>
5.8.1

> <Gold.Id.Protein>
6NUR|6NUR_protein|mol2

> <Gold.PLP.Fitness>
39.7475

> <Gold.PLP.PLP>
-31.0132

> <Gold.PLP.part.hbond>
-2.2914

> <Gold.PLP.part.metal>
0.0000

> <Gold.PLP.part.buried>
-4.6914

> <Gold.PLP.part.nonpolar>
-25.0466

> <Gold.PLP.part.repulsive>
0.2228

> <Gold.PLP.ligand.clash>
0.0000

> <Gold.PLP.ligand.torsion>
0.2674

> <Gold.PLP.Chemscore.Hbond>
3.0000

> <Gold.PLP.Chemscore.CHOScore>
0.0000

> <Gold.PLP.Chemscore.Metal>
0.0000

> <Gold.Chemscore.Hbonds>
donor molecule, donor type, donor heavy atom, donor atom, acceptor molecule, acceptor atom, score
      L1  H     7    23       P1  8028  0.84
      P1  H  7997  8008       L1     1  2.00

> <Gold.PLP.Chemscore.Internal.Correction>
0.2689

> <Gold.Rescore>
     Score         DG    S(hbond)    S(metal)    S(lipo)     H(rot)  DE(clash)    DE(int)     intcor
      8.67     -10.94       1.76        0.00      35.22       1.78       0.04       2.23       ----

> <Gold.Chemscore.Fitness>
8.6698

> <Gold.Chemscore.DG>
-10.9394

> <Gold.Chemscore.ZeroCoef>
-5.4800

> <Gold.Chemscore.Hbond>
1.7617

> <Gold.Chemscore.Metal>
0.0000

> <Gold.Chemscore.Lipo>
35.2178

> <Gold.Chemscore.Internal_Hbond>
0.0000

> <Gold.Chemscore.DEClash>
0.0373

> <Gold.Chemscore.DEInternal>
2.2324

> <Gold.Chemscore.Rot>
1.7754

> <Gold.Chemscore.Internal.Correction>
   9.000000E+99

> <Gold.Chemscore.Hbonds>
donor molecule, donor type, donor heavy atom, donor atom, acceptor molecule, acceptor atom, score
      L1  H     7    23       P1  8028  0.82
      P1  H  7997  8008       L1     1  0.58

> <Gold.Chemscore.Hbond.Weighted>
-5.8839

> <Gold.Chemscore.Metal.Weighted>
-0.0000

> <Gold.Chemscore.Lipo.Weighted>
-4.1205

> <Gold.Chemscore.Internal_Hbond.Weighted>
0.0000

> <Gold.Chemscore.DEClash.Weighted>
0.0373

> <Gold.Chemscore.DEInternal.Weighted>
2.2324

> <Gold.Chemscore.Rot.Weighted>
4.5451

> <Gold.Chemscore.Internal.Correction.Weighted>
   9.000000E+99

> <Gold.Protein.RotatedTorsions>
[ 6907 6896 6895 6894 ] final  161.74 input  -60.11 | X-H torsion
[ 7974 7965 7964 7962 ] final   26.71 input  175.53 | X-H torsion
[ 8008 7997 7996 7995 ] final  -69.17 input   59.86 | X-H torsion
[ 10167 10162 10161 10158 ] final  138.31 input  -65.29 | X-H torsion
[ 10718 10713 10712 10709 ] final  148.38 input   66.30 | X-H torsion
[ 10763 10752 10751 10750 ] final  113.95 input  -60.55 | X-H torsion
[ 11005 11000 10999 10996 ] final  -40.04 input  -57.11 | X-H torsion

> <Gold.Protein.ActiveResidues>
 VAL166  LYS551  ARG553  GLY616  TRP617  ASP618  TYR619  PRO620  LYS621  CYS622 
 ASP623  PHE694  ASN695  SER759  ASP760  ASP761  ALA762  ILE779  LEU786  VAL792 
 PHE793  MET794  SER795  GLU796  ALA797  LYS798  CYS799  TRP800  GLU811  SER814 

> <Gold.Protein.RotatedAtoms>
  151.9509  133.3666  159.3999 H   0  0  0  0  0  0  0  0  0  0  0  0  # atno 6907 bound_to 6896
  150.6981  134.4341  159.5271 H   0  0  0  0  0  0  0  0  0  0  0  0  # atno 6908 bound_to 6896
  152.2014  134.8584  160.0558 H   0  0  0  0  0  0  0  0  0  0  0  0  # atno 6909 bound_to 6896
  146.1823  139.7291  142.8891 H   0  0  0  0  0  0  0  0  0  0  0  0  # atno 7974 bound_to 7965
  154.4919  140.0858  156.7613 H   0  0  0  0  0  0  0  0  0  0  0  0  # atno 8008 bound_to 7997
  155.4209  140.3445  155.4253 H   0  0  0  0  0  0  0  0  0  0  0  0  # atno 8009 bound_to 7997
  156.1342  140.1510  156.9008 H   0  0  0  0  0  0  0  0  0  0  0  0  # atno 8010 bound_to 7997
  139.5115  144.6360  151.5694 H   0  0  0  0  0  0  0  0  0  0  0  0  # atno 10167 bound_to 10162
  157.3093  131.0885  151.1329 H   0  0  0  0  0  0  0  0  0  0  0  0  # atno 10718 bound_to 10713
  153.5001  135.3640  155.2535 H   0  0  0  0  0  0  0  0  0  0  0  0  # atno 10763 bound_to 10752
  154.8748  135.3998  154.3489 H   0  0  0  0  0  0  0  0  0  0  0  0  # atno 10764 bound_to 10752
  153.4123  135.7078  153.6417 H   0  0  0  0  0  0  0  0  0  0  0  0  # atno 10765 bound_to 10752
  141.0145  133.6892  156.2267 H   0  0  0  0  0  0  0  0  0  0  0  0  # atno 11005 bound_to 11000
  145.4040  141.0388  143.3054 LP  0  0  0  0  0  0  0  0  0  0  0  0  # atno 17320 bound_to 7965
  144.8336  139.5587  143.6932 LP  0  0  0  0  0  0  0  0  0  0  0  0  # atno 17321 bound_to 7965
  140.6110  143.9436  150.6453 LP  0  0  0  0  0  0  0  0  0  0  0  0  # atno 17342 bound_to 10162
  140.2679  143.3477  152.1264 LP  0  0  0  0  0  0  0  0  0  0  0  0  # atno 17343 bound_to 10162
  157.2657  130.6680  149.5995 LP  0  0  0  0  0  0  0  0  0  0  0  0  # atno 17370 bound_to 10713
  155.9676  130.4494  150.5659 LP  0  0  0  0  0  0  0  0  0  0  0  0  # atno 17371 bound_to 10713
  140.6677  134.4901  157.5586 LP  0  0  0  0  0  0  0  0  0  0  0  0  # atno 17394 bound_to 11000
  139.9109  134.8347  156.1532 LP  0  0  0  0  0  0  0  0  0  0  0  0  # atno 17395 bound_to 11000

$$$$
