AV-unprocessed.smi:767|AV-procd|sdf|3666|dock7
  -GOLD-   22720 1 73D 1   1.00000     0.00000
 Structure written by MMmdl.
 48 50  0  0  0  0  0  0  0  0  2 V2000
  154.5996  140.9434  161.0392 C   0  0  0  0  0  0  0  0  0  0  0  0
  153.5817  142.0201  160.7283 C   0  0  0  0  0  0  0  0  0  0  0  0
  153.1525  142.2957  159.4122 C   0  0  0  0  0  0  0  0  0  0  0  0
  152.2035  143.3168  159.1968 C   0  0  0  0  0  0  0  0  0  0  0  0
  151.7027  144.0408  160.3009 C   0  0  0  0  0  0  0  0  0  0  0  0
  150.6912  145.1517  160.0996 C   0  0  0  0  0  0  0  0  0  0  0  0
  149.3041  144.7712  160.6416 C   0  0  0  0  0  0  0  0  0  0  0  0
  148.3101  144.7051  159.5773 N   0  0  0  0  0  0  0  0  0  0  0  0
  147.3299  143.7946  159.5033 C   0  0  0  0  0  0  0  0  0  0  0  0
  147.1446  142.9121  160.3416 O   0  0  0  0  0  0  0  0  0  0  0  0
  146.5821  143.9543  158.4038 N   0  0  0  0  0  0  0  0  0  0  0  0
  145.4480  143.0974  158.0428 C   0  0  1  0  0  0  0  0  0  0  0  0
  144.2942  143.8786  157.4080 C   0  0  1  0  0  0  0  0  0  0  0  0
  143.8800  145.3041  157.3445 C   0  0  0  0  0  0  0  0  0  0  0  0
  143.4648  145.3186  155.8480 C   0  0  0  0  0  0  0  0  0  0  0  0
  143.9261  144.0597  155.2932 O   0  0  0  0  0  0  0  0  0  0  0  0
  145.0379  143.7207  156.0981 C   0  0  2  0  0  0  0  0  0  0  0  0
  145.5616  142.3729  156.6426 C   0  0  0  0  0  0  0  0  0  0  0  0
  146.9649  141.9754  156.1710 C   0  0  0  0  0  0  0  0  0  0  0  0
  144.6781  141.1321  156.4203 C   0  0  0  0  0  0  0  0  0  0  0  0
  152.1672  143.7204  161.5944 C   0  0  0  0  0  0  0  0  0  0  0  0
  153.0774  142.7356  161.7589 N   0  3  0  0  0  0  0  0  0  0  0  0
  154.9107  140.4231  160.1328 H   0  0  0  0  0  0  0  0  0  0  0  0
  154.1783  140.2084  161.7256 H   0  0  0  0  0  0  0  0  0  0  0  0
  155.4854  141.3798  161.5018 H   0  0  0  0  0  0  0  0  0  0  0  0
  153.5445  141.7353  158.5759 H   0  0  0  0  0  0  0  0  0  0  0  0
  151.8681  143.5420  158.1948 H   0  0  0  0  0  0  0  0  0  0  0  0
  151.0569  146.0543  160.5912 H   0  0  0  0  0  0  0  0  0  0  0  0
  150.6273  145.3863  159.0360 H   0  0  0  0  0  0  0  0  0  0  0  0
  149.3474  143.7948  161.1250 H   0  0  0  0  0  0  0  0  0  0  0  0
  148.9838  145.4818  161.4060 H   0  0  0  0  0  0  0  0  0  0  0  0
  148.3821  145.3906  158.8393 H   0  0  0  0  0  0  0  0  0  0  0  0
  146.8099  144.7065  157.7705 H   0  0  0  0  0  0  0  0  0  0  0  0
  145.1179  142.4372  158.8466 H   0  0  0  0  0  0  0  0  0  0  0  0
  143.3948  143.2602  157.4602 H   0  0  0  0  0  0  0  0  0  0  0  0
  143.0501  145.5358  158.0125 H   0  0  0  0  0  0  0  0  0  0  0  0
  144.7071  145.9860  157.5472 H   0  0  0  0  0  0  0  0  0  0  0  0
  142.3843  145.3968  155.7255 H   0  0  0  0  0  0  0  0  0  0  0  0
  143.9261  146.1570  155.3246 H   0  0  0  0  0  0  0  0  0  0  0  0
  145.8456  144.4457  155.9535 H   0  0  0  0  0  0  0  0  0  0  0  0
  146.9489  141.5693  155.1591 H   0  0  0  0  0  0  0  0  0  0  0  0
  147.4047  141.2200  156.8232 H   0  0  0  0  0  0  0  0  0  0  0  0
  147.6477  142.8250  156.1558 H   0  0  0  0  0  0  0  0  0  0  0  0
  144.5939  140.8932  155.3598 H   0  0  0  0  0  0  0  0  0  0  0  0
  143.6633  141.2466  156.7974 H   0  0  0  0  0  0  0  0  0  0  0  0
  145.0955  140.2566  156.9187 H   0  0  0  0  0  0  0  0  0  0  0  0
  151.8447  144.2209  162.4959 H   0  0  0  0  0  0  0  0  0  0  0  0
  153.3999  142.5237  162.7034 H   0  0  0  0  0  0  0  0  0  0  0  0
  1  2  1  0  0  0  0
  1 23  1  0  0  0  0
  1 24  1  0  0  0  0
  1 25  1  0  0  0  0
  2 22  1  0  0  0  0
  2  3  2  0  0  0  0
  3  4  1  0  0  0  0
  3 26  1  0  0  0  0
  4  5  2  0  0  0  0
  4 27  1  0  0  0  0
  5  6  1  0  0  0  0
  5 21  1  0  0  0  0
  6  7  1  0  0  0  0
  6 28  1  0  0  0  0
  6 29  1  0  0  0  0
  7  8  1  0  0  0  0
  7 30  1  0  0  0  0
  7 31  1  0  0  0  0
  8  9  1  0  0  0  0
  8 32  1  0  0  0  0
  9 10  2  0  0  0  0
  9 11  1  0  0  0  0
 11 12  1  0  0  0  0
 11 33  1  0  0  0  0
 12 18  1  0  0  0  0
 12 13  1  0  0  0  0
 12 34  1  0  0  0  0
 13 17  1  0  0  0  0
 13 14  1  0  0  0  0
 13 35  1  0  0  0  0
 14 15  1  0  0  0  0
 14 36  1  0  0  0  0
 14 37  1  0  0  0  0
 15 16  1  0  0  0  0
 15 38  1  0  0  0  0
 15 39  1  0  0  0  0
 16 17  1  0  0  0  0
 17 18  1  0  0  0  0
 17 40  1  0  0  0  0
 18 19  1  0  0  0  0
 18 20  1  0  0  0  0
 19 41  1  0  0  0  0
 19 42  1  0  0  0  0
 19 43  1  0  0  0  0
 20 44  1  0  0  0  0
 20 45  1  0  0  0  0
 20 46  1  0  0  0  0
 21 22  2  0  0  0  0
 21 47  1  0  0  0  0
 22 48  1  0  0  0  0
M  CHG  1  22   1
M  END
> <s_m_source_file>
AV-unprocessed.smi

> <i_m_source_file_index>
767

> <i_lp_mmshare_version>
43012

> <i_f3d_flags>
0

> <s_epik_input>
W0NIM11jMVtjSF1bY0hdYyhbY0hdbjEpW0NIMl1bQ0gyXVtOSF1DKD1PKVtOSF1bQ0BIXTJDKFtDSDNdKShbQ0gzXSlbQ0BIXShbQ0BASF0yMylPW0NIMl1bQ0gyXTM=

> <s_epik_cmdline>
J2VwaWtfcHl0aG9uJywgJy1waCcsICc3LjAnLCAnLXRuJywgJzgnLCAnLW1hJywgJzIwMCcsICctbWV0YWxfYmluZGluZycsICctaW1hZScsICc8aW5maWxlLm1hZT4nLCAnLW9tYWUnLCAnPG91dGZpbGUubWFlPic=

> <r_epik_Ionization_Penalty>
1.41853

> <r_epik_Ionization_Penalty_Charging>
1.41848

> <r_epik_Ionization_Penalty_Neutral>
5.17407e-05

> <r_epik_State_Penalty>
1.50205

> <r_epik_Charging_Adjusted_Penalty>
2.92053

> <i_epik_Tot_Q>
1

> <i_epik_Tot_abs_Q>
1

> <r_epik_Metal_State_Penalty>
1.5544

> <b_epik_Metal_Only>
0

> <s_lp_Force_Field>
OPLS_2005

> <r_lp_Energy>
64.9812

> <b_lp_Chiralities_Consistent>
1

> <s_lp_Variant>
AV-unprocessed.smi:767-10

> <Gold.Version>
5.8.1

> <Gold.Id.Protein>
6NUR|6NUR_protein|mol2

> <Gold.PLP.Fitness>
49.7671

> <Gold.PLP.PLP>
-40.1396

> <Gold.PLP.part.hbond>
-4.0000

> <Gold.PLP.part.metal>
0.0000

> <Gold.PLP.part.buried>
-5.0942

> <Gold.PLP.part.nonpolar>
-32.7093

> <Gold.PLP.part.repulsive>
0.3473

> <Gold.PLP.ligand.clash>
0.0000

> <Gold.PLP.ligand.torsion>
0.7764

> <Gold.PLP.Chemscore.Hbond>
3.6380

> <Gold.PLP.Chemscore.CHOScore>
0.0000

> <Gold.PLP.Chemscore.Metal>
0.0000

> <Gold.Chemscore.Hbonds>
donor molecule, donor type, donor heavy atom, donor atom, acceptor molecule, acceptor atom, score
      L1  H     8    32       P1  8029  0.99
      L1  H    11    33       P1  8029  1.00
      P1  H  6933  6944       L1    10  0.94
      P1  H  6934  6946       L1    10  0.66

> <Gold.PLP.Chemscore.Internal.Correction>
0.2662

> <Gold.Rescore>
     Score         DG    S(hbond)    S(metal)    S(lipo)     H(rot)  DE(clash)    DE(int)     intcor
     23.58     -24.28       3.19        0.00     102.83       1.52       0.02       0.67       ----

> <Gold.Chemscore.Fitness>
23.5842

> <Gold.Chemscore.DG>
-24.2788

> <Gold.Chemscore.ZeroCoef>
-5.4800

> <Gold.Chemscore.Hbond>
3.1939

> <Gold.Chemscore.Metal>
0.0000

> <Gold.Chemscore.Lipo>
102.8280

> <Gold.Chemscore.Internal_Hbond>
0.0000

> <Gold.Chemscore.DEClash>
0.0204

> <Gold.Chemscore.DEInternal>
0.6742

> <Gold.Chemscore.Rot>
1.5233

> <Gold.Chemscore.Internal.Correction>
   9.000000E+99

> <Gold.Chemscore.Hbonds>
donor molecule, donor type, donor heavy atom, donor atom, acceptor molecule, acceptor atom, score
      L1  H     8    32       P1  8029  0.94
      L1  H    11    33       P1  8029  0.29
      P1  H  6933  6944       L1    10  0.91
      P1  H  6934  6946       L1    10  0.64

> <Gold.Chemscore.Hbond.Weighted>
-10.6675

> <Gold.Chemscore.Metal.Weighted>
-0.0000

> <Gold.Chemscore.Lipo.Weighted>
-12.0309

> <Gold.Chemscore.Internal_Hbond.Weighted>
0.0000

> <Gold.Chemscore.DEClash.Weighted>
0.0204

> <Gold.Chemscore.DEInternal.Weighted>
0.6742

> <Gold.Chemscore.Rot.Weighted>
3.8995

> <Gold.Chemscore.Internal.Correction.Weighted>
   9.000000E+99

> <Gold.Protein.RotatedTorsions>
[ 6907 6896 6895 6894 ] final   86.20 input  -60.11 | X-H torsion
[ 7974 7965 7964 7962 ] final  104.60 input  175.53 | X-H torsion
[ 8008 7997 7996 7995 ] final -128.51 input   59.86 | X-H torsion
[ 10167 10162 10161 10158 ] final -151.76 input  -65.29 | X-H torsion
[ 10718 10713 10712 10709 ] final  -16.85 input   66.30 | X-H torsion
[ 10763 10752 10751 10750 ] final   95.15 input  -60.55 | X-H torsion
[ 11005 11000 10999 10996 ] final  -15.03 input  -57.11 | X-H torsion

> <Gold.Protein.ActiveResidues>
 VAL166  LYS551  ARG553  GLY616  TRP617  ASP618  TYR619  PRO620  LYS621  CYS622 
 ASP623  PHE694  ASN695  SER759  ASP760  ASP761  ALA762  ILE779  LEU786  VAL792 
 PHE793  MET794  SER795  GLU796  ALA797  LYS798  CYS799  TRP800  GLU811  SER814 

> <Gold.Protein.RotatedAtoms>
  152.5390  134.2467  159.8882 H   0  0  0  0  0  0  0  0  0  0  0  0  # atno 6907 bound_to 6896
  151.2433  133.4381  159.2616 H   0  0  0  0  0  0  0  0  0  0  0  0  # atno 6908 bound_to 6896
  151.0607  134.9748  159.8315 H   0  0  0  0  0  0  0  0  0  0  0  0  # atno 6909 bound_to 6896
  145.3306  139.2488  143.3663 H   0  0  0  0  0  0  0  0  0  0  0  0  # atno 7974 bound_to 7965
  155.2639  140.0437  157.3000 H   0  0  0  0  0  0  0  0  0  0  0  0  # atno 8008 bound_to 7997
  154.5694  140.2369  155.8184 H   0  0  0  0  0  0  0  0  0  0  0  0  # atno 8009 bound_to 7997
  156.2110  140.2998  155.9741 H   0  0  0  0  0  0  0  0  0  0  0  0  # atno 8010 bound_to 7997
  139.7239  143.8913  152.2513 H   0  0  0  0  0  0  0  0  0  0  0  0  # atno 10167 bound_to 10162
  156.5818  130.4776  149.6317 H   0  0  0  0  0  0  0  0  0  0  0  0  # atno 10718 bound_to 10713
  153.2499  135.4264  155.0786 H   0  0  0  0  0  0  0  0  0  0  0  0  # atno 10763 bound_to 10752
  154.8377  135.3423  154.6528 H   0  0  0  0  0  0  0  0  0  0  0  0  # atno 10764 bound_to 10752
  153.6949  135.7031  153.5136 H   0  0  0  0  0  0  0  0  0  0  0  0  # atno 10765 bound_to 10752
  140.7925  133.8277  155.9393 H   0  0  0  0  0  0  0  0  0  0  0  0  # atno 11005 bound_to 11000
  146.3047  140.3883  142.8691 LP  0  0  0  0  0  0  0  0  0  0  0  0  # atno 17320 bound_to 7965
  144.8867  140.7471  143.5952 LP  0  0  0  0  0  0  0  0  0  0  0  0  # atno 17321 bound_to 7965
  139.8817  144.7014  150.8870 LP  0  0  0  0  0  0  0  0  0  0  0  0  # atno 17342 bound_to 10162
  140.7759  143.3656  151.1746 LP  0  0  0  0  0  0  0  0  0  0  0  0  # atno 17343 bound_to 10162
  156.2625  130.6970  151.1743 LP  0  0  0  0  0  0  0  0  0  0  0  0  # atno 17370 bound_to 10713
  157.7324  131.0599  150.5627 LP  0  0  0  0  0  0  0  0  0  0  0  0  # atno 17371 bound_to 10713
  140.9376  134.1942  157.4821 LP  0  0  0  0  0  0  0  0  0  0  0  0  # atno 17394 bound_to 11000
  139.8730  134.9858  156.5299 LP  0  0  0  0  0  0  0  0  0  0  0  0  # atno 17395 bound_to 11000

$$$$
