AV-unprocessed.smi:1049|AV-procd|sdf|4610|dock5
  -GOLD-   22720 3103D 1   1.00000     0.00000
 Structure written by MMmdl.
 41 42  0  0  0  0  0  0  0  0  2 V2000
  142.6858  142.6161  161.2362 C   0  0  0  0  0  0  0  0  0  0  0  0
  144.1760  142.7643  160.9000 C   0  0  2  0  0  0  0  0  0  0  0  0
  144.9476  143.4608  162.0427 C   0  0  0  0  0  0  0  0  0  0  0  0
  146.4157  143.7375  161.6669 C   0  0  0  0  0  0  0  0  0  0  0  0
  146.5094  144.4450  160.3033 C   0  0  0  0  0  0  0  0  0  0  0  0
  145.8259  143.6154  159.2960 N   0  0  0  0  0  0  0  0  0  0  0  0
  146.4260  142.8264  158.3691 C   0  0  0  0  0  0  0  0  0  0  0  0
  145.8127  142.2578  157.4650 O   0  0  0  0  0  0  0  0  0  0  0  0
  147.7575  142.7114  158.5070 N   0  0  0  0  0  0  0  0  0  0  0  0
  148.6275  141.8869  157.6739 C   0  0  0  0  0  0  0  0  0  0  0  0
  150.0366  141.6874  158.2725 C   0  0  0  0  0  0  0  0  0  0  0  0
  150.8509  142.9426  158.3956 C   0  0  0  0  0  0  0  0  0  0  0  0
  150.7559  144.0002  157.5803 N   0  3  0  0  0  0  0  0  0  0  0  0
  151.6427  144.9726  157.9512 C   0  0  0  0  0  0  0  0  0  0  0  0
  152.3091  144.4892  159.0462 C   0  0  0  0  0  0  0  0  0  0  0  0
  151.8038  143.2386  159.2974 N   0  0  0  0  0  0  0  0  0  0  0  0
  152.2104  142.3503  160.3913 C   0  0  0  0  0  0  0  0  0  0  0  0
  153.4693  141.9483  160.2186 F   0  0  0  0  0  0  0  0  0  0  0  0
  152.0735  142.9591  161.5681 F   0  0  0  0  0  0  0  0  0  0  0  0
  144.3866  143.5254  159.5734 C   0  0  0  0  0  0  0  0  0  0  0  0
  142.2096  143.5888  161.3642 H   0  0  0  0  0  0  0  0  0  0  0  0
  142.5452  142.0523  162.1588 H   0  0  0  0  0  0  0  0  0  0  0  0
  142.1551  142.0886  160.4430 H   0  0  0  0  0  0  0  0  0  0  0  0
  144.5868  141.7606  160.7794 H   0  0  0  0  0  0  0  0  0  0  0  0
  144.4610  144.4082  162.2796 H   0  0  0  0  0  0  0  0  0  0  0  0
  144.9035  142.8585  162.9508 H   0  0  0  0  0  0  0  0  0  0  0  0
  146.8895  144.3445  162.4390 H   0  0  0  0  0  0  0  0  0  0  0  0
  146.9679  142.7982  161.6297 H   0  0  0  0  0  0  0  0  0  0  0  0
  146.0203  145.4189  160.3565 H   0  0  0  0  0  0  0  0  0  0  0  0
  147.5514  144.6611  160.0685 H   0  0  0  0  0  0  0  0  0  0  0  0
  148.1977  143.2236  159.2578 H   0  0  0  0  0  0  0  0  0  0  0  0
  148.1584  140.9218  157.4774 H   0  0  0  0  0  0  0  0  0  0  0  0
  148.7062  142.3868  156.7093 H   0  0  0  0  0  0  0  0  0  0  0  0
  149.9628  141.2716  159.2781 H   0  0  0  0  0  0  0  0  0  0  0  0
  150.6086  140.9721  157.6825 H   0  0  0  0  0  0  0  0  0  0  0  0
  151.7288  145.9112  157.4232 H   0  0  0  0  0  0  0  0  0  0  0  0
  153.0858  144.9333  159.6517 H   0  0  0  0  0  0  0  0  0  0  0  0
  151.5729  141.4656  160.3971 H   0  0  0  0  0  0  0  0  0  0  0  0
  143.8383  143.0377  158.7660 H   0  0  0  0  0  0  0  0  0  0  0  0
  143.9685  144.5309  159.6433 H   0  0  0  0  0  0  0  0  0  0  0  0
  150.1164  144.0661  156.7981 H   0  0  0  0  0  0  0  0  0  0  0  0
  1  2  1  0  0  0  0
  1 21  1  0  0  0  0
  1 22  1  0  0  0  0
  1 23  1  0  0  0  0
  2 20  1  0  0  0  0
  2  3  1  0  0  0  0
  2 24  1  0  0  0  0
  3  4  1  0  0  0  0
  3 25  1  0  0  0  0
  3 26  1  0  0  0  0
  4  5  1  0  0  0  0
  4 27  1  0  0  0  0
  4 28  1  0  0  0  0
  5  6  1  0  0  0  0
  5 29  1  0  0  0  0
  5 30  1  0  0  0  0
  6  7  1  0  0  0  0
  6 20  1  0  0  0  0
  7  8  2  0  0  0  0
  7  9  1  0  0  0  0
  9 10  1  0  0  0  0
  9 31  1  0  0  0  0
 10 11  1  0  0  0  0
 10 32  1  0  0  0  0
 10 33  1  0  0  0  0
 11 12  1  0  0  0  0
 11 34  1  0  0  0  0
 11 35  1  0  0  0  0
 12 16  1  0  0  0  0
 12 13  2  0  0  0  0
 13 14  1  0  0  0  0
 13 41  1  0  0  0  0
 14 15  2  0  0  0  0
 14 36  1  0  0  0  0
 15 16  1  0  0  0  0
 15 37  1  0  0  0  0
 16 17  1  0  0  0  0
 17 18  1  0  0  0  0
 17 19  1  0  0  0  0
 17 38  1  0  0  0  0
 20 39  1  0  0  0  0
 20 40  1  0  0  0  0
M  CHG  1  13   1
M  END
> <s_m_source_file>
AV-unprocessed.smi

> <i_m_source_file_index>
1049

> <i_lp_mmshare_version>
43012

> <i_f3d_flags>
0

> <s_epik_input>
W0NIM11bQ0BASF0xW0NIMl1bQ0gyXVtDSDJdTihbQ0gyXTEpQyg9TylbTkhdW0NIMl1bQ0gyXWMybltjSF1bY0hdbjJbQ0hdKEYpRg==

> <s_epik_cmdline>
J2VwaWtfcHl0aG9uJywgJy1waCcsICc3LjAnLCAnLXRuJywgJzgnLCAnLW1hJywgJzIwMCcsICctbWV0YWxfYmluZGluZycsICctaW1hZScsICc8aW5maWxlLm1hZT4nLCAnLW9tYWUnLCAnPG91dGZpbGUubWFlPic=

> <r_lp_tautomer_probability>
1

> <r_epik_Ionization_Penalty>
1.09766

> <r_epik_Ionization_Penalty_Charging>
0

> <r_epik_Ionization_Penalty_Neutral>
1.09766

> <r_epik_State_Penalty>
1.15444

> <r_epik_Charging_Adjusted_Penalty>
1.15444

> <i_epik_Tot_Q>
1

> <i_epik_Tot_abs_Q>
1

> <r_epik_Metal_State_Penalty>
1.24204

> <b_epik_Metal_Only>
0

> <s_lp_Force_Field>
OPLS_2005

> <r_lp_Energy>
36.2432

> <b_lp_Chiralities_Consistent>
1

> <s_lp_Variant>
AV-unprocessed.smi:1049-3

> <Gold.Version>
5.8.1

> <Gold.Id.Protein>
6NUR|6NUR_protein|mol2

> <Gold.PLP.Fitness>
50.0211

> <Gold.PLP.PLP>
-45.1734

> <Gold.PLP.part.hbond>
-1.0000

> <Gold.PLP.part.metal>
0.0000

> <Gold.PLP.part.buried>
-8.0703

> <Gold.PLP.part.nonpolar>
-36.7992

> <Gold.PLP.part.repulsive>
0.2461

> <Gold.PLP.ligand.clash>
0.0000

> <Gold.PLP.ligand.torsion>
0.6136

> <Gold.PLP.Chemscore.Hbond>
2.0000

> <Gold.PLP.Chemscore.CHOScore>
0.0000

> <Gold.PLP.Chemscore.Metal>
0.0000

> <Gold.Chemscore.Hbonds>
donor molecule, donor type, donor heavy atom, donor atom, acceptor molecule, acceptor atom, score
      L1  H    13    41       P1  8028  2.00

> <Gold.PLP.Chemscore.Internal.Correction>
0.0749

> <Gold.Rescore>
     Score         DG    S(hbond)    S(metal)    S(lipo)     H(rot)  DE(clash)    DE(int)     intcor
     13.45     -14.07       0.99        0.00      80.43       1.61       0.03       0.59       ----

> <Gold.Chemscore.Fitness>
13.4549

> <Gold.Chemscore.DG>
-14.0733

> <Gold.Chemscore.ZeroCoef>
-5.4800

> <Gold.Chemscore.Hbond>
0.9858

> <Gold.Chemscore.Metal>
0.0000

> <Gold.Chemscore.Lipo>
80.4265

> <Gold.Chemscore.Internal_Hbond>
0.0000

> <Gold.Chemscore.DEClash>
0.0270

> <Gold.Chemscore.DEInternal>
0.5914

> <Gold.Chemscore.Rot>
1.6051

> <Gold.Chemscore.Internal.Correction>
   9.000000E+99

> <Gold.Chemscore.Hbonds>
donor molecule, donor type, donor heavy atom, donor atom, acceptor molecule, acceptor atom, score
      L1  H    13    41       P1  8028  0.98

> <Gold.Chemscore.Hbond.Weighted>
-3.2926

> <Gold.Chemscore.Metal.Weighted>
-0.0000

> <Gold.Chemscore.Lipo.Weighted>
-9.4099

> <Gold.Chemscore.Internal_Hbond.Weighted>
0.0000

> <Gold.Chemscore.DEClash.Weighted>
0.0270

> <Gold.Chemscore.DEInternal.Weighted>
0.5914

> <Gold.Chemscore.Rot.Weighted>
4.1092

> <Gold.Chemscore.Internal.Correction.Weighted>
   9.000000E+99

> <Gold.Protein.RotatedTorsions>
[ 6907 6896 6895 6894 ] final  -52.57 input  -60.11 | X-H torsion
[ 7974 7965 7964 7962 ] final -169.68 input  175.53 | X-H torsion
[ 8008 7997 7996 7995 ] final   79.16 input   59.86 | X-H torsion
[ 10167 10162 10161 10158 ] final  161.83 input  -65.29 | X-H torsion
[ 10718 10713 10712 10709 ] final  117.07 input   66.30 | X-H torsion
[ 10763 10752 10751 10750 ] final  121.20 input  -60.55 | X-H torsion
[ 11005 11000 10999 10996 ] final -162.52 input  -57.11 | X-H torsion

> <Gold.Protein.ActiveResidues>
 VAL166  LYS551  ARG553  GLY616  TRP617  ASP618  TYR619  PRO620  LYS621  CYS622 
 ASP623  PHE694  ASN695  SER759  ASP760  ASP761  ALA762  ILE779  LEU786  VAL792 
 PHE793  MET794  SER795  GLU796  ALA797  LYS798  CYS799  TRP800  GLU811  SER814 

> <Gold.Protein.RotatedAtoms>
  150.8505  134.7829  159.7004 H   0  0  0  0  0  0  0  0  0  0  0  0  # atno 6907 bound_to 6896
  152.4571  134.5264  159.9807 H   0  0  0  0  0  0  0  0  0  0  0  0  # atno 6908 bound_to 6896
  151.5385  133.3398  159.2967 H   0  0  0  0  0  0  0  0  0  0  0  0  # atno 6909 bound_to 6896
  144.7181  140.2184  143.6319 H   0  0  0  0  0  0  0  0  0  0  0  0  # atno 7974 bound_to 7965
  155.8658  140.3451  155.5787 H   0  0  0  0  0  0  0  0  0  0  0  0  # atno 8008 bound_to 7997
  155.7883  140.0868  157.2042 H   0  0  0  0  0  0  0  0  0  0  0  0  # atno 8009 bound_to 7997
  154.4014  140.1488  156.3120 H   0  0  0  0  0  0  0  0  0  0  0  0  # atno 8010 bound_to 7997
  139.4853  144.4498  151.8845 H   0  0  0  0  0  0  0  0  0  0  0  0  # atno 10167 bound_to 10162
  157.6120  131.1033  150.7563 H   0  0  0  0  0  0  0  0  0  0  0  0  # atno 10718 bound_to 10713
  153.6103  135.3431  155.2976 H   0  0  0  0  0  0  0  0  0  0  0  0  # atno 10763 bound_to 10752
  154.8620  135.4248  154.2317 H   0  0  0  0  0  0  0  0  0  0  0  0  # atno 10764 bound_to 10752
  153.3166  135.7035  153.7140 H   0  0  0  0  0  0  0  0  0  0  0  0  # atno 10765 bound_to 10752
  140.6083  134.4875  157.5213 H   0  0  0  0  0  0  0  0  0  0  0  0  # atno 11005 bound_to 11000
  145.8524  139.2182  143.1764 LP  0  0  0  0  0  0  0  0  0  0  0  0  # atno 17320 bound_to 7965
  146.0248  140.8314  142.9905 LP  0  0  0  0  0  0  0  0  0  0  0  0  # atno 17321 bound_to 7965
  140.3954  144.2562  150.5896 LP  0  0  0  0  0  0  0  0  0  0  0  0  # atno 17342 bound_to 10162
  140.5107  143.2291  151.8540 LP  0  0  0  0  0  0  0  0  0  0  0  0  # atno 17343 bound_to 10162
  156.7938  130.4899  149.5380 LP  0  0  0  0  0  0  0  0  0  0  0  0  # atno 17370 bound_to 10713
  156.1227  130.6121  151.0217 LP  0  0  0  0  0  0  0  0  0  0  0  0  # atno 17371 bound_to 10713
  139.9203  134.8163  156.1233 LP  0  0  0  0  0  0  0  0  0  0  0  0  # atno 17394 bound_to 11000
  141.0825  133.6748  156.2367 LP  0  0  0  0  0  0  0  0  0  0  0  0  # atno 17395 bound_to 11000

$$$$
