AV-unprocessed.smi:1669|AV-procd|sdf|6686|dock9
  -GOLD-   22720 7413D 1   1.00000     0.00000
 Structure written by MMmdl.
 48 50  0  0  0  0  0  0  0  0  2 V2000
  146.2089  132.1835  155.0347 C   0  0  0  0  0  0  0  0  0  0  0  0
  146.7880  133.5123  154.7268 N   0  3  2  0  0  0  0  0  0  0  0  0
  147.0887  133.6854  153.2822 C   0  0  0  0  0  0  0  0  0  0  0  0
  145.9087  133.2997  152.4087 C   0  0  0  0  0  0  0  0  0  0  0  0
  144.6963  134.0148  152.5096 C   0  0  0  0  0  0  0  0  0  0  0  0
  143.5977  133.6624  151.7019 C   0  0  0  0  0  0  0  0  0  0  0  0
  143.7076  132.5949  150.7896 C   0  0  0  0  0  0  0  0  0  0  0  0
  144.9166  131.8801  150.6847 C   0  0  0  0  0  0  0  0  0  0  0  0
  146.0158  132.2321  151.4919 C   0  0  0  0  0  0  0  0  0  0  0  0
  147.9428  133.8338  155.6034 C   0  0  0  0  0  0  0  0  0  0  0  0
  147.5237  134.6449  156.8453 C   0  0  1  0  0  0  0  0  0  0  0  0
  146.2809  134.1528  157.3078 O   0  0  0  0  0  0  0  0  0  0  0  0
  148.5696  134.5433  157.9725 C   0  0  0  0  0  0  0  0  0  0  0  0
  148.2435  135.3881  159.1142 N   0  0  0  0  0  0  0  0  0  0  0  0
  148.2804  136.7423  159.2061 C   0  0  0  0  0  0  0  0  0  0  0  0
  148.6897  137.6143  158.0586 C   0  0  0  0  0  0  0  0  0  0  0  0
  148.5019  138.9874  158.3256 O   0  0  0  0  0  0  0  0  0  0  0  0
  147.9273  137.2522  160.3863 N   0  0  0  0  0  0  0  0  0  0  0  0
  147.6274  136.1267  161.1284 C   0  0  0  0  0  0  0  0  0  0  0  0
  147.1892  135.9968  162.4656 C   0  0  0  0  0  0  0  0  0  0  0  0
  146.9443  134.7214  163.0157 C   0  0  0  0  0  0  0  0  0  0  0  0
  147.1325  133.5602  162.2383 C   0  0  0  0  0  0  0  0  0  0  0  0
  147.5684  133.6672  160.9036 C   0  0  0  0  0  0  0  0  0  0  0  0
  147.8130  134.9427  160.3601 C   0  0  0  0  0  0  0  0  0  0  0  0
  146.9274  131.3880  154.8329 H   0  0  0  0  0  0  0  0  0  0  0  0
  145.3131  131.9939  154.4435 H   0  0  0  0  0  0  0  0  0  0  0  0
  145.9188  132.1233  156.0842 H   0  0  0  0  0  0  0  0  0  0  0  0
  147.3322  134.7244  153.0605 H   0  0  0  0  0  0  0  0  0  0  0  0
  147.9718  133.1047  153.0109 H   0  0  0  0  0  0  0  0  0  0  0  0
  144.6053  134.8345  153.2075 H   0  0  0  0  0  0  0  0  0  0  0  0
  142.6704  134.2106  151.7813 H   0  0  0  0  0  0  0  0  0  0  0  0
  142.8650  132.3252  150.1697 H   0  0  0  0  0  0  0  0  0  0  0  0
  145.0004  131.0620  149.9843 H   0  0  0  0  0  0  0  0  0  0  0  0
  146.9395  131.6785  151.4057 H   0  0  0  0  0  0  0  0  0  0  0  0
  148.4261  132.9147  155.9397 H   0  0  0  0  0  0  0  0  0  0  0  0
  148.6931  134.3741  155.0239 H   0  0  0  0  0  0  0  0  0  0  0  0
  147.3912  135.6949  156.5863 H   0  0  0  0  0  0  0  0  0  0  0  0
  146.3733  133.2304  157.4950 H   0  0  0  0  0  0  0  0  0  0  0  0
  148.6845  133.5095  158.2979 H   0  0  0  0  0  0  0  0  0  0  0  0
  149.5472  134.8502  157.5983 H   0  0  0  0  0  0  0  0  0  0  0  0
  149.7443  137.4458  157.8370 H   0  0  0  0  0  0  0  0  0  0  0  0
  148.1350  137.3363  157.1626 H   0  0  0  0  0  0  0  0  0  0  0  0
  147.6877  139.2619  157.9332 H   0  0  0  0  0  0  0  0  0  0  0  0
  147.0409  136.8800  163.0691 H   0  0  0  0  0  0  0  0  0  0  0  0
  146.6093  134.6338  164.0389 H   0  0  0  0  0  0  0  0  0  0  0  0
  146.9409  132.5877  162.6677 H   0  0  0  0  0  0  0  0  0  0  0  0
  147.7123  132.7795  160.3062 H   0  0  0  0  0  0  0  0  0  0  0  0
  146.0748  134.1898  154.9587 H   0  0  0  0  0  0  0  0  0  0  0  0
  1  2  1  0  0  0  0
  1 25  1  0  0  0  0
  1 26  1  0  0  0  0
  1 27  1  0  0  0  0
  2  3  1  0  0  0  0
  2 10  1  0  0  0  0
  2 48  1  0  0  0  0
  3  4  1  0  0  0  0
  3 28  1  0  0  0  0
  3 29  1  0  0  0  0
  4  9  1  0  0  0  0
  4  5  2  0  0  0  0
  5  6  1  0  0  0  0
  5 30  1  0  0  0  0
  6  7  2  0  0  0  0
  6 31  1  0  0  0  0
  7  8  1  0  0  0  0
  7 32  1  0  0  0  0
  8  9  2  0  0  0  0
  8 33  1  0  0  0  0
  9 34  1  0  0  0  0
 10 11  1  0  0  0  0
 10 35  1  0  0  0  0
 10 36  1  0  0  0  0
 11 12  1  0  0  0  0
 11 13  1  0  0  0  0
 11 37  1  0  0  0  0
 12 38  1  0  0  0  0
 13 14  1  0  0  0  0
 13 39  1  0  0  0  0
 13 40  1  0  0  0  0
 14 24  1  0  0  0  0
 14 15  1  0  0  0  0
 15 16  1  0  0  0  0
 15 18  2  0  0  0  0
 16 17  1  0  0  0  0
 16 41  1  0  0  0  0
 16 42  1  0  0  0  0
 17 43  1  0  0  0  0
 18 19  1  0  0  0  0
 19 24  2  0  0  0  0
 19 20  1  0  0  0  0
 20 21  2  0  0  0  0
 20 44  1  0  0  0  0
 21 22  1  0  0  0  0
 21 45  1  0  0  0  0
 22 23  2  0  0  0  0
 22 46  1  0  0  0  0
 23 24  1  0  0  0  0
 23 47  1  0  0  0  0
M  CHG  1   2   1
M  END
> <s_m_source_file>
AV-unprocessed.smi

> <i_m_source_file_index>
1669

> <i_lp_mmshare_version>
43012

> <i_f3d_flags>
0

> <s_epik_input>
W2NIXTFbY0hdW2NIXVtjSF1bY0hdYzFbQ0gyXU4oW0NIM10pW0NIMl1bQ0BIXShbT0hdKVtDSDJdbihjKG4yKVtDSDJdW09IXSljKGMyMylbY0hdW2NIXVtjSF1bY0hdMw==

> <s_epik_cmdline>
J2VwaWtfcHl0aG9uJywgJy1waCcsICc3LjAnLCAnLXRuJywgJzgnLCAnLW1hJywgJzIwMCcsICctbWV0YWxfYmluZGluZycsICctaW1hZScsICc8aW5maWxlLm1hZT4nLCAnLW9tYWUnLCAnPG91dGZpbGUubWFlPic=

> <r_epik_Ionization_Penalty>
0.0949884

> <r_epik_Ionization_Penalty_Charging>
0.0475377

> <r_epik_Ionization_Penalty_Neutral>
0.0474507

> <r_epik_State_Penalty>
0.078247

> <r_epik_Charging_Adjusted_Penalty>
0.125785

> <i_epik_Tot_Q>
1

> <i_epik_Tot_abs_Q>
1

> <r_epik_Metal_State_Penalty>
0.0403451

> <b_epik_Metal_Only>
0

> <s_lp_Force_Field>
OPLS_2005

> <r_lp_Energy>
16.6823

> <b_lp_Chiralities_Consistent>
1

> <s_lp_Variant>
AV-unprocessed.smi:1669-4

> <Gold.Version>
5.8.1

> <Gold.Id.Protein>
6NUR|6NUR_protein|mol2

> <Gold.PLP.Fitness>
42.5283

> <Gold.PLP.PLP>
-40.4589

> <Gold.PLP.part.hbond>
-2.8415

> <Gold.PLP.part.metal>
0.0000

> <Gold.PLP.part.buried>
-5.6596

> <Gold.PLP.part.nonpolar>
-32.9514

> <Gold.PLP.part.repulsive>
0.0000

> <Gold.PLP.ligand.clash>
0.0000

> <Gold.PLP.ligand.torsion>
0.9367

> <Gold.PLP.Chemscore.Hbond>
1.2209

> <Gold.PLP.Chemscore.CHOScore>
0.0000

> <Gold.PLP.Chemscore.Metal>
0.0000

> <Gold.Chemscore.Hbonds>
donor molecule, donor type, donor heavy atom, donor atom, acceptor molecule, acceptor atom, score
      P1  H  6931  6943       L1    18  0.47
      P1  H  6934  6947       L1    18  0.78

> <Gold.PLP.Chemscore.Internal.Correction>
0.2802

> <Gold.Rescore>
     Score         DG    S(hbond)    S(metal)    S(lipo)     H(rot)  DE(clash)    DE(int)     intcor
     12.07     -13.23       1.30        0.00      98.68       3.17       0.06       1.10       ----

> <Gold.Chemscore.Fitness>
12.0715

> <Gold.Chemscore.DG>
-13.2312

> <Gold.Chemscore.ZeroCoef>
-5.4800

> <Gold.Chemscore.Hbond>
1.2959

> <Gold.Chemscore.Metal>
0.0000

> <Gold.Chemscore.Lipo>
98.6822

> <Gold.Chemscore.Internal_Hbond>
0.0000

> <Gold.Chemscore.DEClash>
0.0595

> <Gold.Chemscore.DEInternal>
1.1002

> <Gold.Chemscore.Rot>
3.1731

> <Gold.Chemscore.Internal.Correction>
   9.000000E+99

> <Gold.Chemscore.Hbonds>
donor molecule, donor type, donor heavy atom, donor atom, acceptor molecule, acceptor atom, score
      P1  H  6931  6943       L1    18  0.08
      P1  H  6934  6947       L1    18  0.73

> <Gold.Chemscore.Hbond.Weighted>
-4.3284

> <Gold.Chemscore.Metal.Weighted>
-0.0000

> <Gold.Chemscore.Lipo.Weighted>
-11.5458

> <Gold.Chemscore.Internal_Hbond.Weighted>
0.0000

> <Gold.Chemscore.DEClash.Weighted>
0.0595

> <Gold.Chemscore.DEInternal.Weighted>
1.1002

> <Gold.Chemscore.Rot.Weighted>
8.1230

> <Gold.Chemscore.Internal.Correction.Weighted>
   9.000000E+99

> <Gold.Protein.RotatedTorsions>
[ 6907 6896 6895 6894 ] final   79.54 input  -60.11 | X-H torsion
[ 7974 7965 7964 7962 ] final -166.36 input  175.53 | X-H torsion
[ 8008 7997 7996 7995 ] final   43.12 input   59.86 | X-H torsion
[ 10167 10162 10161 10158 ] final -148.70 input  -65.29 | X-H torsion
[ 10718 10713 10712 10709 ] final  -96.88 input   66.30 | X-H torsion
[ 10763 10752 10751 10750 ] final   -4.56 input  -60.55 | X-H torsion
[ 11005 11000 10999 10996 ] final -116.29 input  -57.11 | X-H torsion

> <Gold.Protein.ActiveResidues>
 VAL166  LYS551  ARG553  GLY616  TRP617  ASP618  TYR619  PRO620  LYS621  CYS622 
 ASP623  PHE694  ASN695  SER759  ASP760  ASP761  ALA762  ILE779  LEU786  VAL792 
 PHE793  MET794  SER795  GLU796  ALA797  LYS798  CYS799  TRP800  GLU811  SER814 

> <Gold.Protein.RotatedAtoms>
  152.5202  134.3495  159.9245 H   0  0  0  0  0  0  0  0  0  0  0  0  # atno 6907 bound_to 6896
  151.3446  133.3943  159.2682 H   0  0  0  0  0  0  0  0  0  0  0  0  # atno 6908 bound_to 6896
  150.9776  134.9156  159.7883 H   0  0  0  0  0  0  0  0  0  0  0  0  # atno 6909 bound_to 6896
  144.7247  140.2677  143.6255 H   0  0  0  0  0  0  0  0  0  0  0  0  # atno 7974 bound_to 7965
  155.2974  140.3383  155.4249 H   0  0  0  0  0  0  0  0  0  0  0  0  # atno 8008 bound_to 7997
  156.2017  140.1735  156.7924 H   0  0  0  0  0  0  0  0  0  0  0  0  # atno 8009 bound_to 7997
  154.5568  140.0695  156.8740 H   0  0  0  0  0  0  0  0  0  0  0  0  # atno 8010 bound_to 7997
  139.7508  143.8522  152.2586 H   0  0  0  0  0  0  0  0  0  0  0  0  # atno 10167 bound_to 10162
  156.0071  130.5170  150.6291 H   0  0  0  0  0  0  0  0  0  0  0  0  # atno 10718 bound_to 10713
  153.3866  135.7000  153.6526 H   0  0  0  0  0  0  0  0  0  0  0  0  # atno 10763 bound_to 10752
  153.5116  135.3631  155.2589 H   0  0  0  0  0  0  0  0  0  0  0  0  # atno 10764 bound_to 10752
  154.8698  135.4136  154.3174 H   0  0  0  0  0  0  0  0  0  0  0  0  # atno 10765 bound_to 10752
  141.0431  133.9804  157.2961 H   0  0  0  0  0  0  0  0  0  0  0  0  # atno 11005 bound_to 11000
  145.8073  139.1988  143.2013 LP  0  0  0  0  0  0  0  0  0  0  0  0  # atno 17320 bound_to 7965
  146.0626  140.7955  142.9727 LP  0  0  0  0  0  0  0  0  0  0  0  0  # atno 17321 bound_to 7965
  139.8499  144.7169  150.9227 LP  0  0  0  0  0  0  0  0  0  0  0  0  # atno 17342 bound_to 10162
  140.7797  143.3908  151.1313 LP  0  0  0  0  0  0  0  0  0  0  0  0  # atno 17343 bound_to 10162
  157.4092  131.0821  151.1236 LP  0  0  0  0  0  0  0  0  0  0  0  0  # atno 17370 bound_to 10713
  157.1873  130.6336  149.5692 LP  0  0  0  0  0  0  0  0  0  0  0  0  # atno 17371 bound_to 10713
  139.9291  135.0200  156.8339 LP  0  0  0  0  0  0  0  0  0  0  0  0  # atno 17394 bound_to 11000
  140.6196  134.0006  155.7612 LP  0  0  0  0  0  0  0  0  0  0  0  0  # atno 17395 bound_to 11000

$$$$
