AV-unprocessed.smi:3328|AV-procd|sdf|12792|dock1
  -GOLD-   2272019143D 1   1.00000     0.00000
 Structure written by MMmdl.
 41 42  0  0  0  0  0  0  0  0  2 V2000
  145.1136  144.1229  154.2015 C   0  0  0  0  0  0  0  0  0  0  0  0
  146.0752  143.0115  154.5094 C   0  0  0  0  0  0  0  0  0  0  0  0
  145.9012  141.9316  155.4210 C   0  0  0  0  0  0  0  0  0  0  0  0
  146.9426  141.1162  155.4565 N   0  0  0  0  0  0  0  0  0  0  0  0
  147.8177  141.6480  154.5766 N   0  0  0  0  0  0  0  0  0  0  0  0
  149.0969  140.9992  154.3479 C   0  0  0  0  0  0  0  0  0  0  0  0
  149.8938  140.7995  155.6522 C   0  0  1  0  0  0  0  0  0  0  0  0
  151.0527  139.8120  155.4369 C   0  0  0  0  0  0  0  0  0  0  0  0
  150.3916  142.1021  156.1517 N   0  3  0  0  0  0  0  0  0  0  0  0
  150.5699  142.1950  157.6148 C   0  0  0  0  0  0  0  0  0  0  0  0
  151.7341  143.1349  157.9622 C   0  0  0  0  0  0  0  0  0  0  0  0
  152.1581  142.9725  159.3498 N   0  0  0  0  0  0  0  0  0  0  0  0
  152.0151  144.0584  160.3049 C   0  0  0  0  0  0  0  0  0  0  0  0
  152.3635  143.4375  161.6653 C   0  0  0  0  0  0  0  0  0  0  0  0
  153.0579  142.1084  161.3490 C   0  0  0  0  0  0  0  0  0  0  0  0
  152.7393  141.8899  159.8795 C   0  0  0  0  0  0  0  0  0  0  0  0
  152.9955  140.8429  159.2869 O   0  0  0  0  0  0  0  0  0  0  0  0
  147.3195  142.7918  153.9897 C   0  0  0  0  0  0  0  0  0  0  0  0
  144.2123  144.0600  154.8119 H   0  0  0  0  0  0  0  0  0  0  0  0
  144.7966  144.1033  153.1587 H   0  0  0  0  0  0  0  0  0  0  0  0
  145.5572  145.1015  154.3853 H   0  0  0  0  0  0  0  0  0  0  0  0
  145.0519  141.7164  156.0527 H   0  0  0  0  0  0  0  0  0  0  0  0
  148.9017  140.0351  153.8762 H   0  0  0  0  0  0  0  0  0  0  0  0
  149.6709  141.5853  153.6282 H   0  0  0  0  0  0  0  0  0  0  0  0
  149.2152  140.3798  156.3966 H   0  0  0  0  0  0  0  0  0  0  0  0
  150.6876  138.8620  155.0452 H   0  0  0  0  0  0  0  0  0  0  0  0
  151.5771  139.5934  156.3670 H   0  0  0  0  0  0  0  0  0  0  0  0
  151.7809  140.2040  154.7263 H   0  0  0  0  0  0  0  0  0  0  0  0
  151.2644  142.3206  155.6924 H   0  0  0  0  0  0  0  0  0  0  0  0
  149.6509  142.5681  158.0691 H   0  0  0  0  0  0  0  0  0  0  0  0
  150.7534  141.2008  158.0222 H   0  0  0  0  0  0  0  0  0  0  0  0
  152.5825  142.9467  157.3020 H   0  0  0  0  0  0  0  0  0  0  0  0
  151.4384  144.1718  157.7952 H   0  0  0  0  0  0  0  0  0  0  0  0
  152.7131  144.8569  160.0494 H   0  0  0  0  0  0  0  0  0  0  0  0
  151.0048  144.4690  160.2940 H   0  0  0  0  0  0  0  0  0  0  0  0
  152.9935  144.0977  162.2620 H   0  0  0  0  0  0  0  0  0  0  0  0
  151.4526  143.2508  162.2360 H   0  0  0  0  0  0  0  0  0  0  0  0
  154.1381  142.1835  161.4781 H   0  0  0  0  0  0  0  0  0  0  0  0
  152.6862  141.2900  161.9663 H   0  0  0  0  0  0  0  0  0  0  0  0
  147.8846  143.3492  153.2568 H   0  0  0  0  0  0  0  0  0  0  0  0
  149.7113  142.8013  155.8879 H   0  0  0  0  0  0  0  0  0  0  0  0
  1  2  1  0  0  0  0
  1 19  1  0  0  0  0
  1 20  1  0  0  0  0
  1 21  1  0  0  0  0
  2 18  2  0  0  0  0
  2  3  1  0  0  0  0
  3  4  2  0  0  0  0
  3 22  1  0  0  0  0
  4  5  1  0  0  0  0
  5  6  1  0  0  0  0
  5 18  1  0  0  0  0
  6  7  1  0  0  0  0
  6 23  1  0  0  0  0
  6 24  1  0  0  0  0
  7  8  1  0  0  0  0
  7  9  1  0  0  0  0
  7 25  1  0  0  0  0
  8 26  1  0  0  0  0
  8 27  1  0  0  0  0
  8 28  1  0  0  0  0
  9 10  1  0  0  0  0
  9 29  1  0  0  0  0
  9 41  1  0  0  0  0
 10 11  1  0  0  0  0
 10 30  1  0  0  0  0
 10 31  1  0  0  0  0
 11 12  1  0  0  0  0
 11 32  1  0  0  0  0
 11 33  1  0  0  0  0
 12 16  1  0  0  0  0
 12 13  1  0  0  0  0
 13 14  1  0  0  0  0
 13 34  1  0  0  0  0
 13 35  1  0  0  0  0
 14 15  1  0  0  0  0
 14 36  1  0  0  0  0
 14 37  1  0  0  0  0
 15 16  1  0  0  0  0
 15 38  1  0  0  0  0
 15 39  1  0  0  0  0
 16 17  2  0  0  0  0
 18 40  1  0  0  0  0
M  CHG  1   9   1
M  END
> <s_m_source_file>
AV-unprocessed.smi

> <i_m_source_file_index>
3328

> <i_lp_mmshare_version>
43012

> <i_f3d_flags>
0

> <s_epik_input>
W0NIM11jMVtjSF1ubihbY0hdMSlbQ0gyXVtDQEhdKFtDSDNdKVtOSF1bQ0gyXVtDSDJdTjJbQ0gyXVtDSDJdW0NIMl1DMj1P

> <s_epik_cmdline>
J2VwaWtfcHl0aG9uJywgJy1waCcsICc3LjAnLCAnLXRuJywgJzgnLCAnLW1hJywgJzIwMCcsICctbWV0YWxfYmluZGluZycsICctaW1hZScsICc8aW5maWxlLm1hZT4nLCAnLW9tYWUnLCAnPG91dGZpbGUubWFlPic=

> <r_lp_tautomer_probability>
1

> <r_epik_Ionization_Penalty>
0.00826719

> <r_epik_Ionization_Penalty_Charging>
0.00825899

> <r_epik_Ionization_Penalty_Neutral>
8.19932e-06

> <r_epik_State_Penalty>
0.00621436

> <r_epik_Charging_Adjusted_Penalty>
0.0144734

> <i_epik_Tot_Q>
1

> <i_epik_Tot_abs_Q>
1

> <r_epik_Metal_State_Penalty>
0.00621509

> <b_epik_Metal_Only>
0

> <s_lp_Force_Field>
OPLS_2005

> <r_lp_Energy>
19.1629

> <b_lp_Chiralities_Consistent>
1

> <s_lp_Variant>
AV-unprocessed.smi:3328-2

> <Gold.Version>
5.8.1

> <Gold.Id.Protein>
6NUR|6NUR_protein|mol2

> <Gold.PLP.Fitness>
52.2869

> <Gold.PLP.PLP>
-47.5327

> <Gold.PLP.part.hbond>
-1.0000

> <Gold.PLP.part.metal>
0.0000

> <Gold.PLP.part.buried>
-3.7879

> <Gold.PLP.part.nonpolar>
-42.8665

> <Gold.PLP.part.repulsive>
0.1736

> <Gold.PLP.ligand.clash>
0.0000

> <Gold.PLP.ligand.torsion>
0.7175

> <Gold.PLP.Chemscore.Hbond>
2.0000

> <Gold.PLP.Chemscore.CHOScore>
0.0000

> <Gold.PLP.Chemscore.Metal>
0.0000

> <Gold.Chemscore.Hbonds>
donor molecule, donor type, donor heavy atom, donor atom, acceptor molecule, acceptor atom, score
      L1  H     9    41       P1  8028  1.66
      L1  C    18    40       P1  8028  0.01

> <Gold.PLP.Chemscore.Internal.Correction>
0.1891

> <Gold.Rescore>
     Score         DG    S(hbond)    S(metal)    S(lipo)     H(rot)  DE(clash)    DE(int)     intcor
     13.60     -15.00       0.98        0.00      96.58       1.97       0.03       1.37       ----

> <Gold.Chemscore.Fitness>
13.6019

> <Gold.Chemscore.DG>
-15.0001

> <Gold.Chemscore.ZeroCoef>
-5.4800

> <Gold.Chemscore.Hbond>
0.9783

> <Gold.Chemscore.Metal>
0.0000

> <Gold.Chemscore.Lipo>
96.5766

> <Gold.Chemscore.Internal_Hbond>
0.0000

> <Gold.Chemscore.DEClash>
0.0329

> <Gold.Chemscore.DEInternal>
1.3653

> <Gold.Chemscore.Rot>
1.9714

> <Gold.Chemscore.Internal.Correction>
   9.000000E+99

> <Gold.Chemscore.Hbonds>
donor molecule, donor type, donor heavy atom, donor atom, acceptor molecule, acceptor atom, score
      L1  H     9    41       P1  8028  0.80

> <Gold.Chemscore.Hbond.Weighted>
-3.2674

> <Gold.Chemscore.Metal.Weighted>
-0.0000

> <Gold.Chemscore.Lipo.Weighted>
-11.2995

> <Gold.Chemscore.Internal_Hbond.Weighted>
0.0000

> <Gold.Chemscore.DEClash.Weighted>
0.0329

> <Gold.Chemscore.DEInternal.Weighted>
1.3653

> <Gold.Chemscore.Rot.Weighted>
5.0468

> <Gold.Chemscore.Internal.Correction.Weighted>
   9.000000E+99

> <Gold.Protein.RotatedTorsions>
[ 6907 6896 6895 6894 ] final  122.25 input  -60.11 | X-H torsion
[ 7974 7965 7964 7962 ] final -124.42 input  175.53 | X-H torsion
[ 8008 7997 7996 7995 ] final  112.15 input   59.86 | X-H torsion
[ 10167 10162 10161 10158 ] final  -65.97 input  -65.29 | X-H torsion
[ 10718 10713 10712 10709 ] final  -28.71 input   66.30 | X-H torsion
[ 10763 10752 10751 10750 ] final   -2.58 input  -60.55 | X-H torsion
[ 11005 11000 10999 10996 ] final -160.66 input  -57.11 | X-H torsion

> <Gold.Protein.ActiveResidues>
 VAL166  LYS551  ARG553  GLY616  TRP617  ASP618  TYR619  PRO620  LYS621  CYS622 
 ASP623  PHE694  ASN695  SER759  ASP760  ASP761  ALA762  ILE779  LEU786  VAL792 
 PHE793  MET794  SER795  GLU796  ALA797  LYS798  CYS799  TRP800  GLU811  SER814 

> <Gold.Protein.RotatedAtoms>
  152.4258  133.7192  159.6523 H   0  0  0  0  0  0  0  0  0  0  0  0  # atno 6907 bound_to 6896
  150.8134  133.8369  159.3177 H   0  0  0  0  0  0  0  0  0  0  0  0  # atno 6908 bound_to 6896
  151.6073  135.1045  160.0125 H   0  0  0  0  0  0  0  0  0  0  0  0  # atno 6909 bound_to 6896
  145.0083  140.7883  143.4454 H   0  0  0  0  0  0  0  0  0  0  0  0  # atno 7974 bound_to 7965
  156.2173  140.3005  155.9869 H   0  0  0  0  0  0  0  0  0  0  0  0  # atno 8008 bound_to 7997
  155.2572  140.0428  157.3010 H   0  0  0  0  0  0  0  0  0  0  0  0  # atno 8009 bound_to 7997
  154.5787  140.2369  155.8093 H   0  0  0  0  0  0  0  0  0  0  0  0  # atno 8010 bound_to 7997
  140.5691  143.2316  151.6574 H   0  0  0  0  0  0  0  0  0  0  0  0  # atno 10167 bound_to 10162
  156.4218  130.4428  149.7178 H   0  0  0  0  0  0  0  0  0  0  0  0  # atno 10718 bound_to 10713
  153.3599  135.6990  153.6721 H   0  0  0  0  0  0  0  0  0  0  0  0  # atno 10763 bound_to 10752
  153.5413  135.3572  155.2720 H   0  0  0  0  0  0  0  0  0  0  0  0  # atno 10764 bound_to 10752
  154.8666  135.4204  154.2854 H   0  0  0  0  0  0  0  0  0  0  0  0  # atno 10765 bound_to 10752
  140.6291  134.4670  157.5228 H   0  0  0  0  0  0  0  0  0  0  0  0  # atno 11005 bound_to 11000
  145.2058  139.2229  143.5169 LP  0  0  0  0  0  0  0  0  0  0  0  0  # atno 17320 bound_to 7965
  146.3465  140.1885  142.8589 LP  0  0  0  0  0  0  0  0  0  0  0  0  # atno 17321 bound_to 7965
  139.5108  144.3530  152.0634 LP  0  0  0  0  0  0  0  0  0  0  0  0  # atno 17342 bound_to 10162
  140.2665  144.4010  150.6166 LP  0  0  0  0  0  0  0  0  0  0  0  0  # atno 17343 bound_to 10162
  156.4116  130.7725  151.2738 LP  0  0  0  0  0  0  0  0  0  0  0  0  # atno 17370 bound_to 10713
  157.7508  131.0210  150.3730 LP  0  0  0  0  0  0  0  0  0  0  0  0  # atno 17371 bound_to 10713
  139.9123  134.8318  156.1485 LP  0  0  0  0  0  0  0  0  0  0  0  0  # atno 17394 bound_to 11000
  141.0688  133.6806  156.2099 LP  0  0  0  0  0  0  0  0  0  0  0  0  # atno 17395 bound_to 11000

$$$$
