AV-unprocessed.smi:2413|AV-procd|sdf|9535|dock3
  -GOLD-   2272013163D 1   1.00000     0.00000
 Structure written by MMmdl.
 45 46  0  0  0  0  0  0  0  0  1 V2000
  148.8081  141.0542  154.1796 C   0  0  0  0  0  0  0  0  0  0  0  0
  149.3707  139.6467  154.3464 C   0  0  0  0  0  0  0  0  0  0  0  0
  148.7109  138.6710  153.9898 O   0  0  0  0  0  0  0  0  0  0  0  0
  150.5930  139.5569  154.8912 N   0  0  0  0  0  0  0  0  0  0  0  0
  151.3049  138.3103  155.1512 C   0  0  0  0  0  0  0  0  0  0  0  0
  152.5432  138.5364  156.0351 C   0  0  1  0  0  0  0  0  0  0  0  0
  152.2233  139.4300  157.2487 C   0  0  0  0  0  0  0  0  0  0  0  0
  153.3781  139.5318  158.1377 N   0  0  0  0  0  0  0  0  0  0  0  0
  153.3762  140.5332  159.1357 C   0  0  0  0  0  0  0  0  0  0  0  0
  153.9720  140.3508  160.4085 C   0  0  0  0  0  0  0  0  0  0  0  0
  153.8759  141.4231  161.3159 C   0  0  0  0  0  0  0  0  0  0  0  0
  153.2529  142.5750  160.9949 N   0  0  0  0  0  0  0  0  0  0  0  0
  152.7519  142.6792  159.7585 C   0  0  0  0  0  0  0  0  0  0  0  0
  151.9130  143.9288  159.4399 C   0  0  0  0  0  0  0  0  0  0  0  0
  150.4680  143.5422  159.0446 C   0  0  0  0  0  0  0  0  0  0  0  0
  152.4960  144.6982  158.2314 C   0  0  0  0  0  0  0  0  0  0  0  0
  151.8811  144.8517  160.6717 C   0  0  0  0  0  0  0  0  0  0  0  0
  152.7576  141.7022  158.8431 N   0  0  0  0  0  0  0  0  0  0  0  0
  153.9732  138.2442  158.4963 C   0  0  0  0  0  0  0  0  0  0  0  0
  154.2132  137.3887  157.2420 C   0  0  0  0  0  0  0  0  0  0  0  0
  153.0038  137.2714  156.5022 O   0  0  0  0  0  0  0  0  0  0  0  0
  148.8766  141.6086  155.1162 H   0  0  0  0  0  0  0  0  0  0  0  0
  147.7602  141.0202  153.8797 H   0  0  0  0  0  0  0  0  0  0  0  0
  149.3652  141.5963  153.4151 H   0  0  0  0  0  0  0  0  0  0  0  0
  151.0578  140.4116  155.1606 H   0  0  0  0  0  0  0  0  0  0  0  0
  150.6297  137.5923  155.6200 H   0  0  0  0  0  0  0  0  0  0  0  0
  151.6008  137.8765  154.1955 H   0  0  0  0  0  0  0  0  0  0  0  0
  153.3265  139.0101  155.4398 H   0  0  0  0  0  0  0  0  0  0  0  0
  151.9413  140.4170  156.8817 H   0  0  0  0  0  0  0  0  0  0  0  0
  151.3759  139.0283  157.8062 H   0  0  0  0  0  0  0  0  0  0  0  0
  154.4827  139.4465  160.7010 H   0  0  0  0  0  0  0  0  0  0  0  0
  154.2965  141.3530  162.3080 H   0  0  0  0  0  0  0  0  0  0  0  0
  149.8816  144.4208  158.7730 H   0  0  0  0  0  0  0  0  0  0  0  0
  149.9380  143.0519  159.8623 H   0  0  0  0  0  0  0  0  0  0  0  0
  150.4573  142.8641  158.1904 H   0  0  0  0  0  0  0  0  0  0  0  0
  152.5564  144.0623  157.3473 H   0  0  0  0  0  0  0  0  0  0  0  0
  153.4975  145.0793  158.4340 H   0  0  0  0  0  0  0  0  0  0  0  0
  151.8788  145.5596  157.9736 H   0  0  0  0  0  0  0  0  0  0  0  0
  151.2930  145.7502  160.4820 H   0  0  0  0  0  0  0  0  0  0  0  0
  152.8853  145.1693  160.9542 H   0  0  0  0  0  0  0  0  0  0  0  0
  151.4423  144.3471  161.5331 H   0  0  0  0  0  0  0  0  0  0  0  0
  154.9235  138.3687  159.0153 H   0  0  0  0  0  0  0  0  0  0  0  0
  153.3007  137.7250  159.1803 H   0  0  0  0  0  0  0  0  0  0  0  0
  154.9956  137.8234  156.6176 H   0  0  0  0  0  0  0  0  0  0  0  0
  154.5523  136.3928  157.5275 H   0  0  0  0  0  0  0  0  0  0  0  0
  1  2  1  0  0  0  0
  1 22  1  0  0  0  0
  1 23  1  0  0  0  0
  1 24  1  0  0  0  0
  2  3  2  0  0  0  0
  2  4  1  0  0  0  0
  4  5  1  0  0  0  0
  4 25  1  0  0  0  0
  5  6  1  0  0  0  0
  5 26  1  0  0  0  0
  5 27  1  0  0  0  0
  6 21  1  0  0  0  0
  6  7  1  0  0  0  0
  6 28  1  0  0  0  0
  7  8  1  0  0  0  0
  7 29  1  0  0  0  0
  7 30  1  0  0  0  0
  8  9  1  0  0  0  0
  8 19  1  0  0  0  0
  9 18  1  0  0  0  0
  9 10  2  0  0  0  0
 10 11  1  0  0  0  0
 10 31  1  0  0  0  0
 11 12  2  0  0  0  0
 11 32  1  0  0  0  0
 12 13  1  0  0  0  0
 13 14  1  0  0  0  0
 13 18  2  0  0  0  0
 14 15  1  0  0  0  0
 14 16  1  0  0  0  0
 14 17  1  0  0  0  0
 15 33  1  0  0  0  0
 15 34  1  0  0  0  0
 15 35  1  0  0  0  0
 16 36  1  0  0  0  0
 16 37  1  0  0  0  0
 16 38  1  0  0  0  0
 17 39  1  0  0  0  0
 17 40  1  0  0  0  0
 17 41  1  0  0  0  0
 19 20  1  0  0  0  0
 19 42  1  0  0  0  0
 19 43  1  0  0  0  0
 20 21  1  0  0  0  0
 20 44  1  0  0  0  0
 20 45  1  0  0  0  0
M  END
> <s_m_source_file>
AV-unprocessed.smi

> <i_m_source_file_index>
2413

> <i_lp_mmshare_version>
43012

> <i_f3d_flags>
0

> <s_epik_input>
W0NIM11DKD1PKVtOSF1bQ0gyXVtDQEBIXTFbQ0gyXU4oW0NIMl1bQ0gyXU8xKWMyW2NIXVtjSF1uYyhuMilDKFtDSDNdKShbQ0gzXSlbQ0gzXQ==

> <s_epik_cmdline>
J2VwaWtfcHl0aG9uJywgJy1waCcsICc3LjAnLCAnLXRuJywgJzgnLCAnLW1hJywgJzIwMCcsICctbWV0YWxfYmluZGluZycsICctaW1hZScsICc8aW5maWxlLm1hZT4nLCAnLW9tYWUnLCAnPG91dGZpbGUubWFlPic=

> <r_lp_tautomer_probability>
1

> <r_epik_Ionization_Penalty>
0.0132021

> <r_epik_Ionization_Penalty_Charging>
0

> <r_epik_Ionization_Penalty_Neutral>
0.0132021

> <r_epik_State_Penalty>
0.0102452

> <r_epik_Charging_Adjusted_Penalty>
0.0102452

> <i_epik_Tot_Q>
0

> <i_epik_Tot_abs_Q>
0

> <r_epik_Metal_State_Penalty>
0.0100219

> <b_epik_Metal_Only>
0

> <s_lp_Force_Field>
OPLS_2005

> <r_lp_Energy>
8.35197

> <b_lp_Chiralities_Consistent>
1

> <s_lp_Variant>
AV-unprocessed.smi:2413-2

> <Gold.Version>
5.8.1

> <Gold.Id.Protein>
6NUR|6NUR_protein|mol2

> <Gold.PLP.Fitness>
45.5015

> <Gold.PLP.PLP>
-42.2090

> <Gold.PLP.part.hbond>
-1.8088

> <Gold.PLP.part.metal>
0.0000

> <Gold.PLP.part.buried>
-4.7593

> <Gold.PLP.part.nonpolar>
-36.3309

> <Gold.PLP.part.repulsive>
0.3403

> <Gold.PLP.ligand.clash>
0.0000

> <Gold.PLP.ligand.torsion>
0.6093

> <Gold.PLP.Chemscore.Hbond>
1.2940

> <Gold.PLP.Chemscore.CHOScore>
0.0000

> <Gold.PLP.Chemscore.Metal>
0.0000

> <Gold.Chemscore.Hbonds>
donor molecule, donor type, donor heavy atom, donor atom, acceptor molecule, acceptor atom, score
      P1  H  7997  8010       L1     8  0.90
      P1  H 10752 10765       L1    21  0.33

> <Gold.PLP.Chemscore.Internal.Correction>
0.6292

> <Gold.Rescore>
     Score         DG    S(hbond)    S(metal)    S(lipo)     H(rot)  DE(clash)    DE(int)     intcor
     12.99     -13.59       0.17        0.00     102.49       1.73       0.04       0.56       ----

> <Gold.Chemscore.Fitness>
12.9923

> <Gold.Chemscore.DG>
-13.5876

> <Gold.Chemscore.ZeroCoef>
-5.4800

> <Gold.Chemscore.Hbond>
0.1658

> <Gold.Chemscore.Metal>
0.0000

> <Gold.Chemscore.Lipo>
102.4872

> <Gold.Chemscore.Internal_Hbond>
0.0000

> <Gold.Chemscore.DEClash>
0.0366

> <Gold.Chemscore.DEInternal>
0.5588

> <Gold.Chemscore.Rot>
1.7332

> <Gold.Chemscore.Internal.Correction>
   9.000000E+99

> <Gold.Chemscore.Hbonds>
donor molecule, donor type, donor heavy atom, donor atom, acceptor molecule, acceptor atom, score
      P1  H  7997  8010       L1     8  0.02
      P1  H 10752 10765       L1    21  0.12

> <Gold.Chemscore.Hbond.Weighted>
-0.5536

> <Gold.Chemscore.Metal.Weighted>
-0.0000

> <Gold.Chemscore.Lipo.Weighted>
-11.9910

> <Gold.Chemscore.Internal_Hbond.Weighted>
0.0000

> <Gold.Chemscore.DEClash.Weighted>
0.0366

> <Gold.Chemscore.DEInternal.Weighted>
0.5588

> <Gold.Chemscore.Rot.Weighted>
4.4370

> <Gold.Chemscore.Internal.Correction.Weighted>
   9.000000E+99

> <Gold.Protein.RotatedTorsions>
[ 6907 6896 6895 6894 ] final  -95.36 input  -60.11 | X-H torsion
[ 7974 7965 7964 7962 ] final   88.49 input  175.53 | X-H torsion
[ 8008 7997 7996 7995 ] final   36.28 input   59.86 | X-H torsion
[ 10167 10162 10161 10158 ] final   89.48 input  -65.29 | X-H torsion
[ 10718 10713 10712 10709 ] final   10.84 input   66.30 | X-H torsion
[ 10763 10752 10751 10750 ] final -131.89 input  -60.55 | X-H torsion
[ 11005 11000 10999 10996 ] final   -8.92 input  -57.11 | X-H torsion

> <Gold.Protein.ActiveResidues>
 VAL166  LYS551  ARG553  GLY616  TRP617  ASP618  TYR619  PRO620  LYS621  CYS622 
 ASP623  PHE694  ASN695  SER759  ASP760  ASP761  ALA762  ILE779  LEU786  VAL792 
 PHE793  MET794  SER795  GLU796  ALA797  LYS798  CYS799  TRP800  GLU811  SER814 

> <Gold.Protein.RotatedAtoms>
  150.6962  134.1670  159.4197 H   0  0  0  0  0  0  0  0  0  0  0  0  # atno 6907 bound_to 6896
  151.9649  135.0103  160.0559 H   0  0  0  0  0  0  0  0  0  0  0  0  # atno 6908 bound_to 6896
  152.1894  133.4727  159.5036 H   0  0  0  0  0  0  0  0  0  0  0  0  # atno 6909 bound_to 6896
  145.5450  139.2291  143.2545 H   0  0  0  0  0  0  0  0  0  0  0  0  # atno 7974 bound_to 7965
  155.1848  140.3303  155.4369 H   0  0  0  0  0  0  0  0  0  0  0  0  # atno 8008 bound_to 7997
  156.2463  140.1920  156.6894 H   0  0  0  0  0  0  0  0  0  0  0  0  # atno 8009 bound_to 7997
  154.6246  140.0591  156.9644 H   0  0  0  0  0  0  0  0  0  0  0  0  # atno 8010 bound_to 7997
  139.8568  144.6565  150.9104 H   0  0  0  0  0  0  0  0  0  0  0  0  # atno 10167 bound_to 10162
  156.9869  130.6027  149.5682 H   0  0  0  0  0  0  0  0  0  0  0  0  # atno 10718 bound_to 10713
  154.8747  135.3815  154.4321 H   0  0  0  0  0  0  0  0  0  0  0  0  # atno 10763 bound_to 10752
  153.5014  135.7030  153.5835 H   0  0  0  0  0  0  0  0  0  0  0  0  # atno 10764 bound_to 10752
  153.4165  135.3912  155.2050 H   0  0  0  0  0  0  0  0  0  0  0  0  # atno 10765 bound_to 10752
  140.7286  133.8768  155.8875 H   0  0  0  0  0  0  0  0  0  0  0  0  # atno 11005 bound_to 11000
  146.1956  140.6271  142.9126 LP  0  0  0  0  0  0  0  0  0  0  0  0  # atno 17320 bound_to 7965
  144.7558  140.5303  143.6770 LP  0  0  0  0  0  0  0  0  0  0  0  0  # atno 17321 bound_to 7965
  140.7780  143.3779  151.1530 LP  0  0  0  0  0  0  0  0  0  0  0  0  # atno 17342 bound_to 10162
  139.7412  143.8922  152.3050 LP  0  0  0  0  0  0  0  0  0  0  0  0  # atno 17343 bound_to 10162
  156.0222  130.5317  150.8308 LP  0  0  0  0  0  0  0  0  0  0  0  0  # atno 17370 bound_to 10713
  157.5486  131.0943  150.9727 LP  0  0  0  0  0  0  0  0  0  0  0  0  # atno 17371 bound_to 10713
  140.9941  134.1239  157.4380 LP  0  0  0  0  0  0  0  0  0  0  0  0  # atno 17394 bound_to 11000
  139.8831  135.0049  156.6279 LP  0  0  0  0  0  0  0  0  0  0  0  0  # atno 17395 bound_to 11000

$$$$
