AV-unprocessed.smi:2528|AV-procd|sdf|9955|dock9
  -GOLD-   2272013593D 1   1.00000     0.00000
 Structure written by MMmdl.
 44 46  0  0  0  0  0  0  0  0  2 V2000
  152.8297  139.6782  157.4819 O   0  0  0  0  0  0  0  0  0  0  0  0
  151.8843  140.1416  156.8431 C   0  0  0  0  0  0  0  0  0  0  0  0
  151.2817  139.4847  155.8415 N   0  0  0  0  0  0  0  0  0  0  0  0
  151.6407  138.1458  155.3850 C   0  0  0  0  0  0  0  0  0  0  0  0
  150.4278  137.3843  154.8213 C   0  0  1  0  0  0  0  0  0  0  0  0
  150.6565  135.8621  154.8122 C   0  0  0  0  0  0  0  0  0  0  0  0
  149.4508  135.1613  154.3133 N   0  3  1  0  0  0  0  0  0  0  0  0
  149.6394  133.6905  154.2399 C   0  0  0  0  0  0  0  0  0  0  0  0
  148.4072  133.0061  153.6273 C   0  0  0  0  0  0  0  0  0  0  0  0
  147.1396  133.3602  154.4154 C   0  0  0  0  0  0  0  0  0  0  0  0
  146.9825  134.8845  154.5015 C   0  0  0  0  0  0  0  0  0  0  0  0
  148.2432  135.5446  155.0945 C   0  0  2  0  0  0  0  0  0  0  0  0
  148.1060  137.0798  155.1325 C   0  0  0  0  0  0  0  0  0  0  0  0
  149.2986  137.6620  155.6428 O   0  0  0  0  0  0  0  0  0  0  0  0
  151.3251  141.3480  157.0430 N   0  0  0  0  0  0  0  0  0  0  0  0
  151.6705  142.3263  158.0137 C   0  0  0  0  0  0  0  0  0  0  0  0
  151.3985  143.6621  157.6406 C   0  0  0  0  0  0  0  0  0  0  0  0
  151.7009  144.7068  158.5355 C   0  0  0  0  0  0  0  0  0  0  0  0
  152.2693  144.3890  159.7819 C   0  0  0  0  0  0  0  0  0  0  0  0
  152.5098  143.0338  160.0741 C   0  0  0  0  0  0  0  0  0  0  0  0
  152.2208  142.0308  159.2181 N   0  0  0  0  0  0  0  0  0  0  0  0
  150.5155  139.9380  155.3655 H   0  0  0  0  0  0  0  0  0  0  0  0
  152.4261  138.2194  154.6309 H   0  0  0  0  0  0  0  0  0  0  0  0
  152.0698  137.5993  156.2252 H   0  0  0  0  0  0  0  0  0  0  0  0
  150.2300  137.7221  153.8022 H   0  0  0  0  0  0  0  0  0  0  0  0
  151.5077  135.6182  154.1753 H   0  0  0  0  0  0  0  0  0  0  0  0
  150.8953  135.5095  155.8171 H   0  0  0  0  0  0  0  0  0  0  0  0
  150.5190  133.4647  153.6359 H   0  0  0  0  0  0  0  0  0  0  0  0
  149.8300  133.2950  155.2389 H   0  0  0  0  0  0  0  0  0  0  0  0
  148.2934  133.3174  152.5879 H   0  0  0  0  0  0  0  0  0  0  0  0
  148.5484  131.9250  153.6132 H   0  0  0  0  0  0  0  0  0  0  0  0
  146.2639  132.9171  153.9405 H   0  0  0  0  0  0  0  0  0  0  0  0
  147.1989  132.9382  155.4195 H   0  0  0  0  0  0  0  0  0  0  0  0
  146.7886  135.2858  153.5054 H   0  0  0  0  0  0  0  0  0  0  0  0
  146.1100  135.1304  155.1081 H   0  0  0  0  0  0  0  0  0  0  0  0
  148.3755  135.1873  156.1176 H   0  0  0  0  0  0  0  0  0  0  0  0
  147.8897  137.4816  154.1411 H   0  0  0  0  0  0  0  0  0  0  0  0
  147.2759  137.3670  155.7785 H   0  0  0  0  0  0  0  0  0  0  0  0
  150.5551  141.5920  156.4378 H   0  0  0  0  0  0  0  0  0  0  0  0
  150.9605  143.8895  156.6795 H   0  0  0  0  0  0  0  0  0  0  0  0
  151.4994  145.7340  158.2695 H   0  0  0  0  0  0  0  0  0  0  0  0
  152.5150  145.1626  160.4944 H   0  0  0  0  0  0  0  0  0  0  0  0
  152.9460  142.7470  161.0195 H   0  0  0  0  0  0  0  0  0  0  0  0
  149.2992  135.4824  153.3677 H   0  0  0  0  0  0  0  0  0  0  0  0
  1  2  2  0  0  0  0
  2  3  1  0  0  0  0
  2 15  1  0  0  0  0
  3  4  1  0  0  0  0
  3 22  1  0  0  0  0
  4  5  1  0  0  0  0
  4 23  1  0  0  0  0
  4 24  1  0  0  0  0
  5 14  1  0  0  0  0
  5  6  1  0  0  0  0
  5 25  1  0  0  0  0
  6  7  1  0  0  0  0
  6 26  1  0  0  0  0
  6 27  1  0  0  0  0
  7 12  1  0  0  0  0
  7  8  1  0  0  0  0
  7 44  1  0  0  0  0
  8  9  1  0  0  0  0
  8 28  1  0  0  0  0
  8 29  1  0  0  0  0
  9 10  1  0  0  0  0
  9 30  1  0  0  0  0
  9 31  1  0  0  0  0
 10 11  1  0  0  0  0
 10 32  1  0  0  0  0
 10 33  1  0  0  0  0
 11 12  1  0  0  0  0
 11 34  1  0  0  0  0
 11 35  1  0  0  0  0
 12 13  1  0  0  0  0
 12 36  1  0  0  0  0
 13 14  1  0  0  0  0
 13 37  1  0  0  0  0
 13 38  1  0  0  0  0
 15 16  1  0  0  0  0
 15 39  1  0  0  0  0
 16 21  1  0  0  0  0
 16 17  2  0  0  0  0
 17 18  1  0  0  0  0
 17 40  1  0  0  0  0
 18 19  2  0  0  0  0
 18 41  1  0  0  0  0
 19 20  1  0  0  0  0
 19 42  1  0  0  0  0
 20 21  2  0  0  0  0
 20 43  1  0  0  0  0
M  CHG  1   7   1
M  END
> <s_m_source_file>
AV-unprocessed.smi

> <i_m_source_file_index>
2528

> <i_lp_mmshare_version>
43012

> <i_f3d_flags>
0

> <s_epik_input>
bjFbY0hdW2NIXVtjSF1bY0hdYzFbTkhdQyg9TylbTkhdW0NIMl1bQ0BIXShbQ0gyXTIpT1tDSDJdW0NAQEhdKE4yMylbQ0gyXVtDSDJdW0NIMl1bQ0gyXTM=

> <s_epik_cmdline>
J2VwaWtfcHl0aG9uJywgJy1waCcsICc3LjAnLCAnLXRuJywgJzgnLCAnLW1hJywgJzIwMCcsICctbWV0YWxfYmluZGluZycsICctaW1hZScsICc8aW5maWxlLm1hZT4nLCAnLW9tYWUnLCAnPG91dGZpbGUubWFlPic=

> <r_epik_Ionization_Penalty>
0.0932337

> <r_epik_Ionization_Penalty_Charging>
0.0931942

> <r_epik_Ionization_Penalty_Neutral>
3.9565e-05

> <r_epik_State_Penalty>
0.0834605

> <r_epik_Charging_Adjusted_Penalty>
0.176655

> <i_epik_Tot_Q>
1

> <i_epik_Tot_abs_Q>
1

> <r_epik_Metal_State_Penalty>
0.0834607

> <b_epik_Metal_Only>
0

> <s_lp_Force_Field>
OPLS_2005

> <r_lp_Energy>
24.376

> <b_lp_Chiralities_Consistent>
1

> <s_lp_Variant>
AV-unprocessed.smi:2528-8

> <Gold.Version>
5.8.1

> <Gold.Id.Protein>
6NUR|6NUR_protein|mol2

> <Gold.PLP.Fitness>
43.7193

> <Gold.PLP.PLP>
-35.8185

> <Gold.PLP.part.hbond>
-2.0000

> <Gold.PLP.part.metal>
0.0000

> <Gold.PLP.part.buried>
-4.9955

> <Gold.PLP.part.nonpolar>
-30.2035

> <Gold.PLP.part.repulsive>
0.2841

> <Gold.PLP.ligand.clash>
0.0000

> <Gold.PLP.ligand.torsion>
0.5497

> <Gold.PLP.Chemscore.Hbond>
3.0000

> <Gold.PLP.Chemscore.CHOScore>
0.0000

> <Gold.PLP.Chemscore.Metal>
0.0000

> <Gold.Chemscore.Hbonds>
donor molecule, donor type, donor heavy atom, donor atom, acceptor molecule, acceptor atom, score
      L1  H     7    44       P1  7948  2.00
      P1  H  7997  8008       L1     1  1.00

> <Gold.PLP.Chemscore.Internal.Correction>
0.0002

> <Gold.Rescore>
     Score         DG    S(hbond)    S(metal)    S(lipo)     H(rot)  DE(clash)    DE(int)     intcor
     17.03     -18.63       1.90        0.00      86.30       1.29       0.00       1.60       ----

> <Gold.Chemscore.Fitness>
17.0320

> <Gold.Chemscore.DG>
-18.6286

> <Gold.Chemscore.ZeroCoef>
-5.4800

> <Gold.Chemscore.Hbond>
1.9002

> <Gold.Chemscore.Metal>
0.0000

> <Gold.Chemscore.Lipo>
86.2982

> <Gold.Chemscore.Internal_Hbond>
0.0000

> <Gold.Chemscore.DEClash>
0.0000

> <Gold.Chemscore.DEInternal>
1.5966

> <Gold.Chemscore.Rot>
1.2870

> <Gold.Chemscore.Internal.Correction>
   9.000000E+99

> <Gold.Chemscore.Hbonds>
donor molecule, donor type, donor heavy atom, donor atom, acceptor molecule, acceptor atom, score
      L1  H     7    44       P1  7948  0.26
      P1  H  7997  8008       L1     1  0.94

> <Gold.Chemscore.Hbond.Weighted>
-6.3466

> <Gold.Chemscore.Metal.Weighted>
-0.0000

> <Gold.Chemscore.Lipo.Weighted>
-10.0969

> <Gold.Chemscore.Internal_Hbond.Weighted>
0.0000

> <Gold.Chemscore.DEClash.Weighted>
0.0000

> <Gold.Chemscore.DEInternal.Weighted>
1.5966

> <Gold.Chemscore.Rot.Weighted>
3.2948

> <Gold.Chemscore.Internal.Correction.Weighted>
   9.000000E+99

> <Gold.Protein.RotatedTorsions>
[ 6907 6896 6895 6894 ] final  -74.13 input  -60.11 | X-H torsion
[ 7974 7965 7964 7962 ] final  -14.53 input  175.53 | X-H torsion
[ 8008 7997 7996 7995 ] final  -75.86 input   59.86 | X-H torsion
[ 10167 10162 10161 10158 ] final -131.61 input  -65.29 | X-H torsion
[ 10718 10713 10712 10709 ] final  124.52 input   66.30 | X-H torsion
[ 10763 10752 10751 10750 ] final   52.47 input  -60.55 | X-H torsion
[ 11005 11000 10999 10996 ] final  -34.81 input  -57.11 | X-H torsion

> <Gold.Protein.ActiveResidues>
 VAL166  LYS551  ARG553  GLY616  TRP617  ASP618  TYR619  PRO620  LYS621  CYS622 
 ASP623  PHE694  ASN695  SER759  ASP760  ASP761  ALA762  ILE779  LEU786  VAL792 
 PHE793  MET794  SER795  GLU796  ALA797  LYS798  CYS799  TRP800  GLU811  SER814 

> <Gold.Protein.RotatedAtoms>
  150.7104  134.4914  159.5517 H   0  0  0  0  0  0  0  0  0  0  0  0  # atno 6907 bound_to 6896
  152.2531  134.8109  160.0452 H   0  0  0  0  0  0  0  0  0  0  0  0  # atno 6908 bound_to 6896
  151.8850  133.3468  159.3816 H   0  0  0  0  0  0  0  0  0  0  0  0  # atno 6909 bound_to 6896
  146.2070  140.3362  142.8403 H   0  0  0  0  0  0  0  0  0  0  0  0  # atno 7974 bound_to 7965
  154.5453  140.0737  156.8579 H   0  0  0  0  0  0  0  0  0  0  0  0  # atno 8008 bound_to 7997
  155.3099  140.3389  155.4226 H   0  0  0  0  0  0  0  0  0  0  0  0  # atno 8009 bound_to 7997
  156.1913  140.1687  156.8073 H   0  0  0  0  0  0  0  0  0  0  0  0  # atno 8010 bound_to 7997
  139.9171  143.6426  152.2562 H   0  0  0  0  0  0  0  0  0  0  0  0  # atno 10167 bound_to 10162
  157.5578  131.1091  150.8591 H   0  0  0  0  0  0  0  0  0  0  0  0  # atno 10718 bound_to 10713
  152.9789  135.5811  154.4584 H   0  0  0  0  0  0  0  0  0  0  0  0  # atno 10763 bound_to 10752
  154.4164  135.2771  155.2006 H   0  0  0  0  0  0  0  0  0  0  0  0  # atno 10764 bound_to 10752
  154.3774  135.6154  153.5826 H   0  0  0  0  0  0  0  0  0  0  0  0  # atno 10765 bound_to 10752
  140.9746  133.7090  156.1581 H   0  0  0  0  0  0  0  0  0  0  0  0  # atno 11005 bound_to 11000
  144.8817  140.7409  143.5982 LP  0  0  0  0  0  0  0  0  0  0  0  0  # atno 17320 bound_to 7965
  145.3282  139.1767  143.4551 LP  0  0  0  0  0  0  0  0  0  0  0  0  # atno 17321 bound_to 7965
  139.6893  144.7648  151.1467 LP  0  0  0  0  0  0  0  0  0  0  0  0  # atno 17342 bound_to 10162
  140.7671  143.5612  150.9097 LP  0  0  0  0  0  0  0  0  0  0  0  0  # atno 17343 bound_to 10162
  156.9097  130.5276  149.5280 LP  0  0  0  0  0  0  0  0  0  0  0  0  # atno 17370 bound_to 10713
  156.0635  130.5683  150.9241 LP  0  0  0  0  0  0  0  0  0  0  0  0  # atno 17371 bound_to 10713
  140.7278  134.4288  157.5569 LP  0  0  0  0  0  0  0  0  0  0  0  0  # atno 17394 bound_to 11000
  139.8925  134.8752  156.2266 LP  0  0  0  0  0  0  0  0  0  0  0  0  # atno 17395 bound_to 11000

$$$$
