AV-unprocessed.smi:820|AV-procd|sdf|3837|dock7
  -GOLD-   22720 1283D 1   1.00000     0.00000
 Structure written by MMmdl.
 31 32  0  0  0  0  0  0  0  0  2 V2000
  152.2038  144.5194  158.9415 C   0  0  0  0  0  0  0  0  0  0  0  0
  151.8082  143.0734  159.2525 C   0  0  0  0  0  0  0  0  0  0  0  0
  153.2673  142.0315  159.5393 S   0  0  0  0  0  0  0  0  0  0  0  0
  153.7227  142.2159  161.2380 C   0  0  0  0  0  0  0  0  0  0  0  0
  153.0208  143.1082  162.0686 C   0  0  0  0  0  0  0  0  0  0  0  0
  153.4244  143.2172  163.4126 C   0  0  0  0  0  0  0  0  0  0  0  0
  154.5041  142.4384  163.8866 C   0  0  0  0  0  0  0  0  0  0  0  0
  154.9220  142.5213  165.1597 N   0  5  0  0  0  0  0  0  0  0  0  0
  155.3012  143.7139  165.6873 C   0  0  0  0  0  0  0  0  0  0  0  0
  155.2952  144.7784  165.0621 O   0  0  0  0  0  0  0  0  0  0  0  0
  155.7369  143.6761  167.0810 C   0  0  0  0  0  0  0  0  0  0  0  0
  155.9566  144.8296  167.7563 C   0  0  0  0  0  0  0  0  0  0  0  0
  156.4059  144.8820  169.0525 O   0  0  0  0  0  0  0  0  0  0  0  0
  156.8736  143.6416  169.5678 C   0  0  0  0  0  0  0  0  0  0  0  0
  155.9513  142.4980  169.1229 C   0  0  0  0  0  0  0  0  0  0  0  0
  155.8763  142.4542  167.7028 O   0  0  0  0  0  0  0  0  0  0  0  0
  155.1321  141.5809  162.9526 C   0  0  0  0  0  0  0  0  0  0  0  0
  154.7594  141.4630  161.6599 N   0  0  0  0  0  0  0  0  0  0  0  0
  151.3206  145.1348  158.7697 H   0  0  0  0  0  0  0  0  0  0  0  0
  152.8269  144.5731  158.0484 H   0  0  0  0  0  0  0  0  0  0  0  0
  152.7617  144.9602  159.7679 H   0  0  0  0  0  0  0  0  0  0  0  0
  151.1714  143.0441  160.1370 H   0  0  0  0  0  0  0  0  0  0  0  0
  151.2324  142.6591  158.4246 H   0  0  0  0  0  0  0  0  0  0  0  0
  152.1966  143.6937  161.6897 H   0  0  0  0  0  0  0  0  0  0  0  0
  152.9058  143.8943  164.0757 H   0  0  0  0  0  0  0  0  0  0  0  0
  155.8432  145.8199  167.3393 H   0  0  0  0  0  0  0  0  0  0  0  0
  157.8915  143.4678  169.2165 H   0  0  0  0  0  0  0  0  0  0  0  0
  156.9143  143.6988  170.6556 H   0  0  0  0  0  0  0  0  0  0  0  0
  156.3240  141.5418  169.4899 H   0  0  0  0  0  0  0  0  0  0  0  0
  154.9493  142.6323  169.5327 H   0  0  0  0  0  0  0  0  0  0  0  0
  155.9658  140.9636  163.2544 H   0  0  0  0  0  0  0  0  0  0  0  0
  1  2  1  0  0  0  0
  1 19  1  0  0  0  0
  1 20  1  0  0  0  0
  1 21  1  0  0  0  0
  2  3  1  0  0  0  0
  2 22  1  0  0  0  0
  2 23  1  0  0  0  0
  3  4  1  0  0  0  0
  4 18  1  0  0  0  0
  4  5  2  0  0  0  0
  5  6  1  0  0  0  0
  5 24  1  0  0  0  0
  6  7  2  0  0  0  0
  6 25  1  0  0  0  0
  7  8  1  0  0  0  0
  7 17  1  0  0  0  0
  8  9  1  0  0  0  0
  9 10  2  0  0  0  0
  9 11  1  0  0  0  0
 11 16  1  0  0  0  0
 11 12  2  0  0  0  0
 12 13  1  0  0  0  0
 12 26  1  0  0  0  0
 13 14  1  0  0  0  0
 14 15  1  0  0  0  0
 14 27  1  0  0  0  0
 14 28  1  0  0  0  0
 15 16  1  0  0  0  0
 15 29  1  0  0  0  0
 15 30  1  0  0  0  0
 17 18  2  0  0  0  0
 17 31  1  0  0  0  0
M  CHG  1   8  -1
M  END
> <s_m_source_file>
AV-unprocessed.smi

> <i_m_source_file_index>
820

> <i_lp_mmshare_version>
43012

> <i_f3d_flags>
0

> <s_epik_input>
W0NIM11bQ0gyXVNjMVtjSF1bY0hdYyhbY0hdbjEpW05IXUMoPU8pQzI9W0NIXU9bQ0gyXVtDSDJdTzI=

> <s_epik_cmdline>
J2VwaWtfcHl0aG9uJywgJy1waCcsICc3LjAnLCAnLXRuJywgJzgnLCAnLW1hJywgJzIwMCcsICctbWV0YWxfYmluZGluZycsICctaW1hZScsICc8aW5maWxlLm1hZT4nLCAnLW9tYWUnLCAnPG91dGZpbGUubWFlPic=

> <r_lp_tautomer_probability>
1

> <r_epik_Ionization_Penalty>
5.63505

> <r_epik_Ionization_Penalty_Charging>
5.63079

> <r_epik_Ionization_Penalty_Neutral>
0.00426194

> <r_epik_State_Penalty>
5.63074

> <r_epik_Charging_Adjusted_Penalty>
11.2615

> <i_epik_Tot_Q>
-1

> <i_epik_Tot_abs_Q>
1

> <r_epik_Metal_State_Penalty>
1.62037

> <b_epik_Metal_Only>
1

> <s_lp_Force_Field>
OPLS_2005

> <r_lp_Energy>
4.11082

> <b_lp_Chiralities_Consistent>
1

> <s_lp_Variant>
AV-unprocessed.smi:820-2

> <Gold.Version>
5.8.1

> <Gold.Id.Protein>
6NUR|6NUR_protein|mol2

> <Gold.PLP.Fitness>
40.8307

> <Gold.PLP.PLP>
-41.6610

> <Gold.PLP.part.hbond>
-2.2973

> <Gold.PLP.part.metal>
0.0000

> <Gold.PLP.part.buried>
-1.9845

> <Gold.PLP.part.nonpolar>
-35.9603

> <Gold.PLP.part.repulsive>
0.3598

> <Gold.PLP.ligand.clash>
0.0000

> <Gold.PLP.ligand.torsion>
0.7023

> <Gold.PLP.Chemscore.Hbond>
0.0000

> <Gold.PLP.Chemscore.CHOScore>
0.0000

> <Gold.PLP.Chemscore.Metal>
0.0000

> <Gold.PLP.Chemscore.Internal.Correction>
0.5742

> <Gold.Rescore>
     Score         DG    S(hbond)    S(metal)    S(lipo)     H(rot)  DE(clash)    DE(int)     intcor
     13.72     -15.78       0.00        0.00     112.68       1.13       0.20       1.86       ----

> <Gold.Chemscore.Fitness>
13.7193

> <Gold.Chemscore.DG>
-15.7768

> <Gold.Chemscore.ZeroCoef>
-5.4800

> <Gold.Chemscore.Hbond>
0.0000

> <Gold.Chemscore.Metal>
0.0000

> <Gold.Chemscore.Lipo>
112.6814

> <Gold.Chemscore.Internal_Hbond>
0.0000

> <Gold.Chemscore.DEClash>
0.1968

> <Gold.Chemscore.DEInternal>
1.8607

> <Gold.Chemscore.Rot>
1.1277

> <Gold.Chemscore.Internal.Correction>
   9.000000E+99

> <Gold.Chemscore.Hbond.Weighted>
-0.0000

> <Gold.Chemscore.Metal.Weighted>
-0.0000

> <Gold.Chemscore.Lipo.Weighted>
-13.1837

> <Gold.Chemscore.Internal_Hbond.Weighted>
0.0000

> <Gold.Chemscore.DEClash.Weighted>
0.1968

> <Gold.Chemscore.DEInternal.Weighted>
1.8607

> <Gold.Chemscore.Rot.Weighted>
2.8870

> <Gold.Chemscore.Internal.Correction.Weighted>
   9.000000E+99

> <Gold.Protein.RotatedTorsions>
[ 6907 6896 6895 6894 ] final -101.06 input  -60.11 | X-H torsion
[ 7974 7965 7964 7962 ] final -105.60 input  175.53 | X-H torsion
[ 8008 7997 7996 7995 ] final -113.60 input   59.86 | X-H torsion
[ 10167 10162 10161 10158 ] final  -10.85 input  -65.29 | X-H torsion
[ 10718 10713 10712 10709 ] final -172.42 input   66.30 | X-H torsion
[ 10763 10752 10751 10750 ] final  -29.88 input  -60.55 | X-H torsion
[ 11005 11000 10999 10996 ] final  106.76 input  -57.11 | X-H torsion

> <Gold.Protein.ActiveResidues>
 VAL166  LYS551  ARG553  GLY616  TRP617  ASP618  TYR619  PRO620  LYS621  CYS622 
 ASP623  PHE694  ASN695  SER759  ASP760  ASP761  ALA762  ILE779  LEU786  VAL792 
 PHE793  MET794  SER795  GLU796  ALA797  LYS798  CYS799  TRP800  GLU811  SER814 

> <Gold.Protein.RotatedAtoms>
  150.7140  134.0792  159.3891 H   0  0  0  0  0  0  0  0  0  0  0  0  # atno 6907 bound_to 6896
  151.8775  135.0464  160.0495 H   0  0  0  0  0  0  0  0  0  0  0  0  # atno 6908 bound_to 6896
  152.2594  133.5248  159.5409 H   0  0  0  0  0  0  0  0  0  0  0  0  # atno 6909 bound_to 6896
  145.2284  140.9161  143.3219 H   0  0  0  0  0  0  0  0  0  0  0  0  # atno 7974 bound_to 7965
  155.0232  140.0393  157.2445 H   0  0  0  0  0  0  0  0  0  0  0  0  # atno 8008 bound_to 7997
  154.7360  140.2740  155.6391 H   0  0  0  0  0  0  0  0  0  0  0  0  # atno 8009 bound_to 7997
  156.2853  140.2675  156.2074 H   0  0  0  0  0  0  0  0  0  0  0  0  # atno 8010 bound_to 7997
  140.7124  143.5703  150.9099 H   0  0  0  0  0  0  0  0  0  0  0  0  # atno 10167 bound_to 10162
  156.7553  130.9393  151.3116 H   0  0  0  0  0  0  0  0  0  0  0  0  # atno 10718 bound_to 10713
  153.7718  135.6912  153.4905 H   0  0  0  0  0  0  0  0  0  0  0  0  # atno 10763 bound_to 10752
  153.1869  135.4485  155.0099 H   0  0  0  0  0  0  0  0  0  0  0  0  # atno 10764 bound_to 10752
  154.8115  135.3379  154.7227 H   0  0  0  0  0  0  0  0  0  0  0  0  # atno 10765 bound_to 10752
  139.8818  134.9379  156.5715 H   0  0  0  0  0  0  0  0  0  0  0  0  # atno 11005 bound_to 11000
  144.9700  139.3890  143.6314 LP  0  0  0  0  0  0  0  0  0  0  0  0  # atno 17320 bound_to 7965
  146.3359  139.8793  142.8827 LP  0  0  0  0  0  0  0  0  0  0  0  0  # atno 17321 bound_to 7965
  139.9429  143.6361  152.3049 LP  0  0  0  0  0  0  0  0  0  0  0  0  # atno 17342 bound_to 10162
  139.6852  144.7652  151.1537 LP  0  0  0  0  0  0  0  0  0  0  0  0  # atno 17343 bound_to 10162
  157.6759  130.9094  150.0149 LP  0  0  0  0  0  0  0  0  0  0  0  0  # atno 17370 bound_to 10713
  156.1374  130.3642  149.9635 LP  0  0  0  0  0  0  0  0  0  0  0  0  # atno 17371 bound_to 10713
  140.8095  133.8441  155.8797 LP  0  0  0  0  0  0  0  0  0  0  0  0  # atno 17394 bound_to 11000
  140.9520  134.1767  157.4721 LP  0  0  0  0  0  0  0  0  0  0  0  0  # atno 17395 bound_to 11000

$$$$
