AV-unprocessed.smi:571|AV-procd|sdf|2964|dock2
  -GOLD-   2262023473D 1   1.00000     0.00000
 Structure written by MMmdl.
 44 45  0  0  0  0  0  0  0  0  2 V2000
  148.9158  134.9966  156.9119 C   0  0  0  0  0  0  0  0  0  0  0  0
  148.6089  135.1282  155.4140 C   0  0  1  0  0  0  0  0  0  0  0  0
  147.0952  135.3148  155.1639 C   0  0  0  0  0  0  0  0  0  0  0  0
  146.6474  134.7697  153.8564 N   0  3  0  0  0  0  0  0  0  0  0  0
  145.3300  135.3075  153.4300 C   0  0  0  0  0  0  0  0  0  0  0  0
  144.9791  134.8433  152.0062 C   0  0  0  0  0  0  0  0  0  0  0  0
  145.0050  133.3126  151.9031 C   0  0  0  0  0  0  0  0  0  0  0  0
  146.3591  132.7767  152.3863 C   0  0  0  0  0  0  0  0  0  0  0  0
  146.6782  133.2839  153.8023 C   0  0  0  0  0  0  0  0  0  0  0  0
  149.3770  136.2471  154.8689 N   0  0  0  0  0  0  0  0  0  0  0  0
  150.6984  136.4521  155.0135 C   0  0  0  0  0  0  0  0  0  0  0  0
  151.4299  135.6704  155.6195 O   0  0  0  0  0  0  0  0  0  0  0  0
  151.3169  137.7083  154.3764 C   0  0  0  0  0  0  0  0  0  0  0  0
  150.7970  138.9885  154.8899 N   0  0  0  0  0  0  0  0  0  0  0  0
  149.5414  139.4075  154.4065 C   0  0  0  0  0  0  0  0  0  0  0  0
  148.9738  140.5562  154.8068 C   0  0  0  0  0  0  0  0  0  0  0  0
  149.6866  141.3737  155.7598 C   0  0  0  0  0  0  0  0  0  0  0  0
  150.8857  140.9799  156.2324 C   0  0  0  0  0  0  0  0  0  0  0  0
  151.5066  139.7215  155.8032 C   0  0  0  0  0  0  0  0  0  0  0  0
  152.5926  139.3441  156.2431 O   0  0  0  0  0  0  0  0  0  0  0  0
  148.3849  134.1501  157.3481 H   0  0  0  0  0  0  0  0  0  0  0  0
  148.6216  135.8922  157.4606 H   0  0  0  0  0  0  0  0  0  0  0  0
  149.9813  134.8379  157.0823 H   0  0  0  0  0  0  0  0  0  0  0  0
  148.9393  134.2012  154.9436 H   0  0  0  0  0  0  0  0  0  0  0  0
  146.5115  134.8644  155.9681 H   0  0  0  0  0  0  0  0  0  0  0  0
  146.8806  136.3842  155.1980 H   0  0  0  0  0  0  0  0  0  0  0  0
  144.5593  134.9899  154.1342 H   0  0  0  0  0  0  0  0  0  0  0  0
  145.3518  136.3978  153.4517 H   0  0  0  0  0  0  0  0  0  0  0  0
  143.9957  135.2192  151.7227 H   0  0  0  0  0  0  0  0  0  0  0  0
  145.6901  135.2699  151.2973 H   0  0  0  0  0  0  0  0  0  0  0  0
  144.2031  132.8883  152.5086 H   0  0  0  0  0  0  0  0  0  0  0  0
  144.8202  133.0003  150.8749 H   0  0  0  0  0  0  0  0  0  0  0  0
  146.3536  131.6863  152.3728 H   0  0  0  0  0  0  0  0  0  0  0  0
  147.1457  133.0911  151.6989 H   0  0  0  0  0  0  0  0  0  0  0  0
  147.6601  132.9157  154.0976 H   0  0  0  0  0  0  0  0  0  0  0  0
  145.9612  132.8769  154.5168 H   0  0  0  0  0  0  0  0  0  0  0  0
  148.8532  136.9425  154.3565 H   0  0  0  0  0  0  0  0  0  0  0  0
  152.3999  137.6607  154.5029 H   0  0  0  0  0  0  0  0  0  0  0  0
  151.1605  137.6498  153.2983 H   0  0  0  0  0  0  0  0  0  0  0  0
  149.0736  138.7375  153.6995 H   0  0  0  0  0  0  0  0  0  0  0  0
  148.0098  140.8612  154.4268 H   0  0  0  0  0  0  0  0  0  0  0  0
  149.2568  142.3061  156.0951 H   0  0  0  0  0  0  0  0  0  0  0  0
  151.4044  141.6052  156.9444 H   0  0  0  0  0  0  0  0  0  0  0  0
  147.3155  135.0990  153.1739 H   0  0  0  0  0  0  0  0  0  0  0  0
  1  2  1  0  0  0  0
  1 21  1  0  0  0  0
  1 22  1  0  0  0  0
  1 23  1  0  0  0  0
  2  3  1  0  0  0  0
  2 10  1  0  0  0  0
  2 24  1  0  0  0  0
  3  4  1  0  0  0  0
  3 25  1  0  0  0  0
  3 26  1  0  0  0  0
  4  9  1  0  0  0  0
  4  5  1  0  0  0  0
  4 44  1  0  0  0  0
  5  6  1  0  0  0  0
  5 27  1  0  0  0  0
  5 28  1  0  0  0  0
  6  7  1  0  0  0  0
  6 29  1  0  0  0  0
  6 30  1  0  0  0  0
  7  8  1  0  0  0  0
  7 31  1  0  0  0  0
  7 32  1  0  0  0  0
  8  9  1  0  0  0  0
  8 33  1  0  0  0  0
  8 34  1  0  0  0  0
  9 35  1  0  0  0  0
  9 36  1  0  0  0  0
 10 11  1  0  0  0  0
 10 37  1  0  0  0  0
 11 12  2  0  0  0  0
 11 13  1  0  0  0  0
 13 14  1  0  0  0  0
 13 38  1  0  0  0  0
 13 39  1  0  0  0  0
 14 19  1  0  0  0  0
 14 15  1  0  0  0  0
 15 16  2  0  0  0  0
 15 40  1  0  0  0  0
 16 17  1  0  0  0  0
 16 41  1  0  0  0  0
 17 18  2  0  0  0  0
 17 42  1  0  0  0  0
 18 19  1  0  0  0  0
 18 43  1  0  0  0  0
 19 20  2  0  0  0  0
M  CHG  1   4   1
M  END
> <s_m_source_file>
AV-unprocessed.smi

> <i_m_source_file_index>
571

> <i_lp_mmshare_version>
43012

> <i_f3d_flags>
0

> <s_epik_input>
W0NIMl0xW0NIMl1bQ0gyXVtDSDJdW0NIMl1OMVtDSDJdW0NAQEhdKFtDSDNdKVtOSF1DKD1PKVtDSDJdbjJbY0hdW2NIXVtjSF1bY0hdYzI9Tw==

> <s_epik_cmdline>
J2VwaWtfcHl0aG9uJywgJy1waCcsICc3LjAnLCAnLXRuJywgJzgnLCAnLW1hJywgJzIwMCcsICctbWV0YWxfYmluZGluZycsICctaW1hZScsICc8aW5maWxlLm1hZT4nLCAnLW9tYWUnLCAnPG91dGZpbGUubWFlPic=

> <r_lp_tautomer_probability>
1

> <r_epik_Ionization_Penalty>
0.00237248

> <r_epik_Ionization_Penalty_Charging>
0.0023724

> <r_epik_Ionization_Penalty_Neutral>
8.2065e-08

> <r_epik_State_Penalty>
0.00163922

> <r_epik_Charging_Adjusted_Penalty>
0.00401161

> <i_epik_Tot_Q>
1

> <i_epik_Tot_abs_Q>
1

> <r_epik_Metal_State_Penalty>
-0

> <b_epik_Metal_Only>
0

> <s_lp_Force_Field>
OPLS_2005

> <r_lp_Energy>
32.4052

> <b_lp_Chiralities_Consistent>
1

> <s_lp_Variant>
AV-unprocessed.smi:571-2

> <Gold.Version>
5.8.1

> <Gold.Id.Protein>
6NUR|6NUR_protein|mol2

> <Gold.PLP.Fitness>
50.2741

> <Gold.PLP.PLP>
-37.0154

> <Gold.PLP.part.hbond>
-4.0000

> <Gold.PLP.part.metal>
0.0000

> <Gold.PLP.part.buried>
0.0030

> <Gold.PLP.part.nonpolar>
-31.4810

> <Gold.PLP.part.repulsive>
0.1068

> <Gold.PLP.ligand.clash>
0.0000

> <Gold.PLP.ligand.torsion>
0.7653

> <Gold.PLP.Chemscore.Hbond>
4.0000

> <Gold.PLP.Chemscore.CHOScore>
0.8876

> <Gold.PLP.Chemscore.Metal>
0.0000

> <Gold.Chemscore.Hbonds>
donor molecule, donor type, donor heavy atom, donor atom, acceptor molecule, acceptor atom, score
      L1  H     4    44       P1  7948  0.33
      P1  H  7997  8009       L1    20  1.00
      P1  H 10752 10763       L1    12  0.96
      L1  C    15    40       P1  7957  0.04

> <Gold.PLP.Chemscore.Internal.Correction>
0.1266

> <Gold.Rescore>
     Score         DG    S(hbond)    S(metal)    S(lipo)     H(rot)  DE(clash)    DE(int)     intcor
     16.44     -18.03       2.93        0.00      64.01       1.84       0.68       0.91       ----

> <Gold.Chemscore.Fitness>
16.4419

> <Gold.Chemscore.DG>
-18.0275

> <Gold.Chemscore.ZeroCoef>
-5.4800

> <Gold.Chemscore.Hbond>
2.9258

> <Gold.Chemscore.Metal>
0.0000

> <Gold.Chemscore.Lipo>
64.0093

> <Gold.Chemscore.Internal_Hbond>
0.0000

> <Gold.Chemscore.DEClash>
0.6778

> <Gold.Chemscore.DEInternal>
0.9078

> <Gold.Chemscore.Rot>
1.8413

> <Gold.Chemscore.Internal.Correction>
   9.000000E+99

> <Gold.Chemscore.Hbonds>
donor molecule, donor type, donor heavy atom, donor atom, acceptor molecule, acceptor atom, score
      L1  H     4    44       P1  7948  0.18
      P1  H  7997  8009       L1    20  1.00
      P1  H 10752 10763       L1    12  0.37

> <Gold.Chemscore.Hbond.Weighted>
-9.7721

> <Gold.Chemscore.Metal.Weighted>
-0.0000

> <Gold.Chemscore.Lipo.Weighted>
-7.4891

> <Gold.Chemscore.Internal_Hbond.Weighted>
0.0000

> <Gold.Chemscore.DEClash.Weighted>
0.6778

> <Gold.Chemscore.DEInternal.Weighted>
0.9078

> <Gold.Chemscore.Rot.Weighted>
4.7137

> <Gold.Chemscore.Internal.Correction.Weighted>
   9.000000E+99

> <Gold.Protein.RotatedTorsions>
[ 6907 6896 6895 6894 ] final   25.66 input  -60.11 | X-H torsion
[ 7974 7965 7964 7962 ] final -165.30 input  175.53 | X-H torsion
[ 8008 7997 7996 7995 ] final -172.74 input   59.86 | X-H torsion
[ 10167 10162 10161 10158 ] final  -47.03 input  -65.29 | X-H torsion
[ 10718 10713 10712 10709 ] final   34.12 input   66.30 | X-H torsion
[ 10763 10752 10751 10750 ] final   55.50 input  -60.55 | X-H torsion
[ 11005 11000 10999 10996 ] final   15.27 input  -57.11 | X-H torsion

> <Gold.Protein.ActiveResidues>
 VAL166  LYS551  ARG553  GLY616  TRP617  ASP618  TYR619  PRO620  LYS621  CYS622 
 ASP623  PHE694  ASN695  SER759  ASP760  ASP761  ALA762  ILE779  LEU786  VAL792 
 PHE793  MET794  SER795  GLU796  ALA797  LYS798  CYS799  TRP800  GLU811  SER814 

> <Gold.Protein.RotatedAtoms>
  151.9759  135.0053  160.0554 H   0  0  0  0  0  0  0  0  0  0  0  0  # atno 6907 bound_to 6896
  152.1740  133.4658  159.4932 H   0  0  0  0  0  0  0  0  0  0  0  0  # atno 6908 bound_to 6896
  150.6906  134.1834  159.4300 H   0  0  0  0  0  0  0  0  0  0  0  0  # atno 6909 bound_to 6896
  144.7274  140.2835  143.6232 H   0  0  0  0  0  0  0  0  0  0  0  0  # atno 7974 bound_to 7965
  155.9485  140.1122  157.0997 H   0  0  0  0  0  0  0  0  0  0  0  0  # atno 8008 bound_to 7997
  154.4104  140.1205  156.5087 H   0  0  0  0  0  0  0  0  0  0  0  0  # atno 8009 bound_to 7997
  155.6873  140.3473  155.4881 H   0  0  0  0  0  0  0  0  0  0  0  0  # atno 8010 bound_to 7997
  140.6792  143.2803  151.3867 H   0  0  0  0  0  0  0  0  0  0  0  0  # atno 10167 bound_to 10162
  157.3064  130.7377  149.6698 H   0  0  0  0  0  0  0  0  0  0  0  0  # atno 10718 bound_to 10713
  152.9818  135.5708  154.5077 H   0  0  0  0  0  0  0  0  0  0  0  0  # atno 10763 bound_to 10752
  154.4586  135.2781  155.1731 H   0  0  0  0  0  0  0  0  0  0  0  0  # atno 10764 bound_to 10752
  154.3329  135.6245  153.5613 H   0  0  0  0  0  0  0  0  0  0  0  0  # atno 10765 bound_to 10752
  140.4602  134.1135  155.7715 H   0  0  0  0  0  0  0  0  0  0  0  0  # atno 11005 bound_to 11000
  145.7926  139.1933  143.2094 LP  0  0  0  0  0  0  0  0  0  0  0  0  # atno 17320 bound_to 7965
  146.0743  140.7835  142.9673 LP  0  0  0  0  0  0  0  0  0  0  0  0  # atno 17321 bound_to 7965
  139.6104  144.1110  152.2293 LP  0  0  0  0  0  0  0  0  0  0  0  0  # atno 17342 bound_to 10162
  140.0522  144.5923  150.7327 LP  0  0  0  0  0  0  0  0  0  0  0  0  # atno 17343 bound_to 10162
  155.9675  130.4264  150.4699 LP  0  0  0  0  0  0  0  0  0  0  0  0  # atno 17370 bound_to 10713
  157.2689  131.0583  151.2272 LP  0  0  0  0  0  0  0  0  0  0  0  0  # atno 17371 bound_to 10713
  141.1625  133.8766  157.1809 LP  0  0  0  0  0  0  0  0  0  0  0  0  # atno 17394 bound_to 11000
  139.9950  135.0050  157.0062 LP  0  0  0  0  0  0  0  0  0  0  0  0  # atno 17395 bound_to 11000

$$$$
