AV-unprocessed.smi:2049|AV-procd|sdf|8322|dock7
  -GOLD-   2272010583D 1   1.00000     0.00000
 Structure written by MMmdl.
 51 53  0  0  0  0  0  0  0  0  2 V2000
  148.7676  134.1006  158.1874 O   0  0  0  0  0  0  0  0  0  0  0  0
  148.2624  135.2224  158.1718 C   0  0  0  0  0  0  0  0  0  0  0  0
  146.9399  135.4833  158.8999 C   0  0  0  0  0  0  0  0  0  0  0  0
  147.0927  135.3293  160.3549 N   0  0  0  0  0  0  0  0  0  0  0  0
  146.3260  134.3387  160.9912 C   0  0  0  0  0  0  0  0  0  0  0  0
  146.4017  134.1566  162.3174 C   0  0  0  0  0  0  0  0  0  0  0  0
  147.3190  135.0418  163.0472 C   0  0  0  0  0  0  0  0  0  0  0  0
  148.0185  135.9466  162.4703 N   0  0  0  0  0  0  0  0  0  0  0  0
  147.9370  136.1363  161.0783 C   0  0  0  0  0  0  0  0  0  0  0  0
  148.6026  137.0085  160.5182 O   0  0  0  0  0  0  0  0  0  0  0  0
  148.7950  136.2683  157.5241 N   0  0  0  0  0  0  0  0  0  0  0  0
  149.9631  136.2248  156.6469 C   0  0  0  0  0  0  0  0  0  0  0  0
  149.6416  136.6293  155.1672 C   0  0  0  0  0  0  0  0  0  0  0  0
  148.7398  135.5707  154.5659 N   0  3  0  0  0  0  0  0  0  0  0  0
  149.2354  134.1704  154.7000 C   0  0  0  0  0  0  0  0  0  0  0  0
  148.3713  133.2042  153.8774 C   0  0  0  0  0  0  0  0  0  0  0  0
  147.0308  133.2781  154.3371 O   0  0  0  0  0  0  0  0  0  0  0  0
  146.4856  134.5730  154.1361 C   0  0  0  0  0  0  0  0  0  0  0  0
  147.2916  135.6243  154.9213 C   0  0  0  0  0  0  0  0  0  0  0  0
  148.9604  138.0304  155.1510 C   0  0  0  0  0  0  0  0  0  0  0  0
  149.8798  139.1705  155.6325 C   0  0  0  0  0  0  0  0  0  0  0  0
  151.1856  139.2313  154.8285 C   0  0  0  0  0  0  0  0  0  0  0  0
  151.9095  137.8785  154.8358 C   0  0  0  0  0  0  0  0  0  0  0  0
  150.9712  136.7579  154.3513 C   0  0  0  0  0  0  0  0  0  0  0  0
  146.5999  136.4882  158.6453 H   0  0  0  0  0  0  0  0  0  0  0  0
  146.1611  134.8119  158.5328 H   0  0  0  0  0  0  0  0  0  0  0  0
  145.6840  133.7568  160.3459 H   0  0  0  0  0  0  0  0  0  0  0  0
  145.8390  133.4179  162.8691 H   0  0  0  0  0  0  0  0  0  0  0  0
  147.3667  134.8777  164.1268 H   0  0  0  0  0  0  0  0  0  0  0  0
  148.3196  137.1556  157.6011 H   0  0  0  0  0  0  0  0  0  0  0  0
  150.6977  136.9077  157.0717 H   0  0  0  0  0  0  0  0  0  0  0  0
  150.4447  135.2512  156.7196 H   0  0  0  0  0  0  0  0  0  0  0  0
  150.2656  134.0770  154.3622 H   0  0  0  0  0  0  0  0  0  0  0  0
  149.2103  133.8594  155.7449 H   0  0  0  0  0  0  0  0  0  0  0  0
  148.4264  133.4361  152.8123 H   0  0  0  0  0  0  0  0  0  0  0  0
  148.7295  132.1820  154.0011 H   0  0  0  0  0  0  0  0  0  0  0  0
  146.4722  134.8093  153.0712 H   0  0  0  0  0  0  0  0  0  0  0  0
  145.4477  134.5725  154.4698 H   0  0  0  0  0  0  0  0  0  0  0  0
  147.1623  135.4710  155.9930 H   0  0  0  0  0  0  0  0  0  0  0  0
  146.8518  136.5866  154.6680 H   0  0  0  0  0  0  0  0  0  0  0  0
  148.6227  138.2660  154.1414 H   0  0  0  0  0  0  0  0  0  0  0  0
  148.0676  138.0355  155.7762 H   0  0  0  0  0  0  0  0  0  0  0  0
  149.3558  140.1229  155.5461 H   0  0  0  0  0  0  0  0  0  0  0  0
  150.1057  139.0493  156.6919 H   0  0  0  0  0  0  0  0  0  0  0  0
  150.9638  139.5181  153.7997 H   0  0  0  0  0  0  0  0  0  0  0  0
  151.8375  140.0069  155.2313 H   0  0  0  0  0  0  0  0  0  0  0  0
  152.7792  137.9316  154.1803 H   0  0  0  0  0  0  0  0  0  0  0  0
  152.3047  137.6647  155.8278 H   0  0  0  0  0  0  0  0  0  0  0  0
  151.5047  135.8083  154.3182 H   0  0  0  0  0  0  0  0  0  0  0  0
  150.7567  137.0170  153.3158 H   0  0  0  0  0  0  0  0  0  0  0  0
  148.7593  135.7660  153.5749 H   0  0  0  0  0  0  0  0  0  0  0  0
  1  2  2  0  0  0  0
  2  3  1  0  0  0  0
  2 11  1  0  0  0  0
  3  4  1  0  0  0  0
  3 25  1  0  0  0  0
  3 26  1  0  0  0  0
  4  9  1  0  0  0  0
  4  5  1  0  0  0  0
  5  6  2  0  0  0  0
  5 27  1  0  0  0  0
  6  7  1  0  0  0  0
  6 28  1  0  0  0  0
  7  8  2  0  0  0  0
  7 29  1  0  0  0  0
  8  9  1  0  0  0  0
  9 10  2  0  0  0  0
 11 12  1  0  0  0  0
 11 30  1  0  0  0  0
 12 13  1  0  0  0  0
 12 31  1  0  0  0  0
 12 32  1  0  0  0  0
 13 24  1  0  0  0  0
 13 14  1  0  0  0  0
 13 20  1  0  0  0  0
 14 19  1  0  0  0  0
 14 15  1  0  0  0  0
 14 51  1  0  0  0  0
 15 16  1  0  0  0  0
 15 33  1  0  0  0  0
 15 34  1  0  0  0  0
 16 17  1  0  0  0  0
 16 35  1  0  0  0  0
 16 36  1  0  0  0  0
 17 18  1  0  0  0  0
 18 19  1  0  0  0  0
 18 37  1  0  0  0  0
 18 38  1  0  0  0  0
 19 39  1  0  0  0  0
 19 40  1  0  0  0  0
 20 21  1  0  0  0  0
 20 41  1  0  0  0  0
 20 42  1  0  0  0  0
 21 22  1  0  0  0  0
 21 43  1  0  0  0  0
 21 44  1  0  0  0  0
 22 23  1  0  0  0  0
 22 45  1  0  0  0  0
 22 46  1  0  0  0  0
 23 24  1  0  0  0  0
 23 47  1  0  0  0  0
 23 48  1  0  0  0  0
 24 49  1  0  0  0  0
 24 50  1  0  0  0  0
M  CHG  1  14   1
M  END
> <s_m_source_file>
AV-unprocessed.smi

> <i_m_source_file_index>
2049

> <i_lp_mmshare_version>
43012

> <i_f3d_flags>
0

> <s_epik_input>
Tz1jMW5bY0hdW2NIXVtjSF1uMVtDSDJdQyg9TylbTkhdW0NIMl1DMihbQ0gyXVtDSDJdW0NIMl1bQ0gyXVtDSDJdMilOM1tDSDJdW0NIMl1PW0NIMl1bQ0gyXTM=

> <s_epik_cmdline>
J2VwaWtfcHl0aG9uJywgJy1waCcsICc3LjAnLCAnLXRuJywgJzgnLCAnLW1hJywgJzIwMCcsICctbWV0YWxfYmluZGluZycsICctaW1hZScsICc8aW5maWxlLm1hZT4nLCAnLW9tYWUnLCAnPG91dGZpbGUubWFlPic=

> <r_lp_tautomer_probability>
1

> <r_epik_Ionization_Penalty>
0.40042

> <r_epik_Ionization_Penalty_Charging>
0.400415

> <r_epik_Ionization_Penalty_Neutral>
5.09538e-06

> <r_epik_State_Penalty>
0.399732

> <r_epik_Charging_Adjusted_Penalty>
0.800147

> <i_epik_Tot_Q>
1

> <i_epik_Tot_abs_Q>
1

> <r_epik_Metal_State_Penalty>
0.399734

> <b_epik_Metal_Only>
0

> <s_lp_Force_Field>
OPLS_2005

> <r_lp_Energy>
43.1449

> <b_lp_Chiralities_Consistent>
1

> <s_lp_Variant>
AV-unprocessed.smi:2049-1

> <Gold.Version>
5.8.1

> <Gold.Id.Protein>
6NUR|6NUR_protein|mol2

> <Gold.PLP.Fitness>
49.8299

> <Gold.PLP.PLP>
-37.2090

> <Gold.PLP.part.hbond>
-4.0000

> <Gold.PLP.part.metal>
0.0000

> <Gold.PLP.part.buried>
-5.1277

> <Gold.PLP.part.nonpolar>
-28.3360

> <Gold.PLP.part.repulsive>
0.0967

> <Gold.PLP.ligand.clash>
0.0000

> <Gold.PLP.ligand.torsion>
0.3736

> <Gold.PLP.Chemscore.Hbond>
4.4115

> <Gold.PLP.Chemscore.CHOScore>
0.0000

> <Gold.PLP.Chemscore.Metal>
0.0000

> <Gold.Chemscore.Hbonds>
donor molecule, donor type, donor heavy atom, donor atom, acceptor molecule, acceptor atom, score
      L1  H    14    51       P1  7948  2.00
      P1  H  6896  6908       L1     1  0.54
      P1  H  6931  6943       L1    10  0.80

> <Gold.PLP.Chemscore.Internal.Correction>
0.1335

> <Gold.Rescore>
     Score         DG    S(hbond)    S(metal)    S(lipo)     H(rot)  DE(clash)    DE(int)     intcor
     18.49     -20.54       3.49        0.00      73.32       2.02       0.01       2.04       ----

> <Gold.Chemscore.Fitness>
18.4864

> <Gold.Chemscore.DG>
-20.5410

> <Gold.Chemscore.ZeroCoef>
-5.4800

> <Gold.Chemscore.Hbond>
3.4864

> <Gold.Chemscore.Metal>
0.0000

> <Gold.Chemscore.Lipo>
73.3155

> <Gold.Chemscore.Internal_Hbond>
0.0000

> <Gold.Chemscore.DEClash>
0.0110

> <Gold.Chemscore.DEInternal>
2.0435

> <Gold.Chemscore.Rot>
2.0162

> <Gold.Chemscore.Internal.Correction>
   9.000000E+99

> <Gold.Chemscore.Hbonds>
donor molecule, donor type, donor heavy atom, donor atom, acceptor molecule, acceptor atom, score
      L1  H    14    51       P1  7948  0.98
      P1  H  6896  6908       L1     1  0.43
      P1  H  6931  6943       L1    10  0.44

> <Gold.Chemscore.Hbond.Weighted>
-11.6445

> <Gold.Chemscore.Metal.Weighted>
-0.0000

> <Gold.Chemscore.Lipo.Weighted>
-8.5779

> <Gold.Chemscore.Internal_Hbond.Weighted>
0.0000

> <Gold.Chemscore.DEClash.Weighted>
0.0110

> <Gold.Chemscore.DEInternal.Weighted>
2.0435

> <Gold.Chemscore.Rot.Weighted>
5.1614

> <Gold.Chemscore.Internal.Correction.Weighted>
   9.000000E+99

> <Gold.Protein.RotatedTorsions>
[ 6907 6896 6895 6894 ] final  137.88 input  -60.11 | X-H torsion
[ 7974 7965 7964 7962 ] final  -31.86 input  175.53 | X-H torsion
[ 8008 7997 7996 7995 ] final   -9.35 input   59.86 | X-H torsion
[ 10167 10162 10161 10158 ] final -135.16 input  -65.29 | X-H torsion
[ 10718 10713 10712 10709 ] final  135.09 input   66.30 | X-H torsion
[ 10763 10752 10751 10750 ] final   84.47 input  -60.55 | X-H torsion
[ 11005 11000 10999 10996 ] final  -51.72 input  -57.11 | X-H torsion

> <Gold.Protein.ActiveResidues>
 VAL166  LYS551  ARG553  GLY616  TRP617  ASP618  TYR619  PRO620  LYS621  CYS622 
 ASP623  PHE694  ASN695  SER759  ASP760  ASP761  ALA762  ILE779  LEU786  VAL792 
 PHE793  MET794  SER795  GLU796  ALA797  LYS798  CYS799  TRP800  GLU811  SER814 

> <Gold.Protein.RotatedAtoms>
  152.2730  133.5400  159.5450 H   0  0  0  0  0  0  0  0  0  0  0  0  # atno 6907 bound_to 6896
  150.7166  134.0671  159.3860 H   0  0  0  0  0  0  0  0  0  0  0  0  # atno 6908 bound_to 6896
  151.8585  135.0533  160.0517 H   0  0  0  0  0  0  0  0  0  0  0  0  # atno 6909 bound_to 6896
  146.1035  140.5720  142.8810 H   0  0  0  0  0  0  0  0  0  0  0  0  # atno 7974 bound_to 7965
  154.5655  140.2357  155.8270 H   0  0  0  0  0  0  0  0  0  0  0  0  # atno 8008 bound_to 7997
  156.2064  140.3038  155.9596 H   0  0  0  0  0  0  0  0  0  0  0  0  # atno 8009 bound_to 7997
  155.2809  140.0422  157.3006 H   0  0  0  0  0  0  0  0  0  0  0  0  # atno 8010 bound_to 7997
  139.8807  143.6842  152.2627 H   0  0  0  0  0  0  0  0  0  0  0  0  # atno 10167 bound_to 10162
  157.4606  131.1073  150.9924 H   0  0  0  0  0  0  0  0  0  0  0  0  # atno 10718 bound_to 10713
  153.1384  135.4653  154.9458 H   0  0  0  0  0  0  0  0  0  0  0  0  # atno 10763 bound_to 10752
  154.7726  135.3163  154.8160 H   0  0  0  0  0  0  0  0  0  0  0  0  # atno 10764 bound_to 10752
  153.8688  135.6905  153.4830 H   0  0  0  0  0  0  0  0  0  0  0  0  # atno 10765 bound_to 10752
  141.0886  133.6637  156.3919 H   0  0  0  0  0  0  0  0  0  0  0  0  # atno 11005 bound_to 11000
  144.7452  140.5048  143.6841 LP  0  0  0  0  0  0  0  0  0  0  0  0  # atno 17320 bound_to 7965
  145.5807  139.1489  143.3237 LP  0  0  0  0  0  0  0  0  0  0  0  0  # atno 17321 bound_to 7965
  139.7198  144.7605  151.0973 LP  0  0  0  0  0  0  0  0  0  0  0  0  # atno 17342 bound_to 10162
  140.7745  143.5222  150.9523 LP  0  0  0  0  0  0  0  0  0  0  0  0  # atno 17343 bound_to 10162
  157.0722  130.5869  149.5404 LP  0  0  0  0  0  0  0  0  0  0  0  0  # atno 17370 bound_to 10713
  156.0027  130.5109  150.7721 LP  0  0  0  0  0  0  0  0  0  0  0  0  # atno 17371 bound_to 10713
  140.5305  134.6217  157.5348 LP  0  0  0  0  0  0  0  0  0  0  0  0  # atno 17394 bound_to 11000
  139.9708  134.7296  156.0045 LP  0  0  0  0  0  0  0  0  0  0  0  0  # atno 17395 bound_to 11000

$$$$
