AV-unprocessed.smi:3161|AV-procd|sdf|12061|dock10
  -GOLD-   2272017493D 1   1.00000     0.00000
 Structure written by MMmdl.
 40 41  0  0  0  0  0  0  0  0  1 V2000
  152.1604  145.3114  158.7086 C   0  0  0  0  0  0  0  0  0  0  0  0
  152.4260  144.1134  159.5739 C   0  0  0  0  0  0  0  0  0  0  0  0
  151.7108  143.6916  160.7305 C   0  0  0  0  0  0  0  0  0  0  0  0
  152.2043  142.5875  161.2667 N   0  0  0  0  0  0  0  0  0  0  0  0
  153.2529  142.2682  160.4779 N   0  0  0  0  0  0  0  0  0  0  0  0
  154.0546  141.0903  160.7723 C   0  0  0  0  0  0  0  0  0  0  0  0
  153.5164  139.7940  160.1257 C   0  0  2  0  0  0  0  0  0  0  0  0
  154.4041  138.5727  160.4388 C   0  0  0  0  0  0  0  0  0  0  0  0
  153.3433  139.9928  158.6824 N   0  0  0  0  0  0  0  0  0  0  0  0
  151.9756  140.2486  158.2324 C   0  0  0  0  0  0  0  0  0  0  0  0
  151.8703  140.1460  156.7034 C   0  0  1  0  0  0  0  0  0  0  0  0
  152.4516  138.8258  156.1550 C   0  0  0  0  0  0  0  0  0  0  0  0
  152.2404  138.7328  154.6397 C   0  0  0  0  0  0  0  0  0  0  0  0
  150.7600  138.9497  154.3102 C   0  0  0  0  0  0  0  0  0  0  0  0
  150.2539  140.2496  154.9552 C   0  0  0  0  0  0  0  0  0  0  0  0
  150.4883  140.2191  156.3601 O   0  0  0  0  0  0  0  0  0  0  0  0
  153.4043  143.1690  159.4448 C   0  0  0  0  0  0  0  0  0  0  0  0
  151.2900  145.8731  159.0485 H   0  0  0  0  0  0  0  0  0  0  0  0
  151.9741  145.0256  157.6732 H   0  0  0  0  0  0  0  0  0  0  0  0
  153.0056  145.9998  158.7055 H   0  0  0  0  0  0  0  0  0  0  0  0
  150.8513  144.1533  161.1936 H   0  0  0  0  0  0  0  0  0  0  0  0
  155.0760  141.2734  160.4345 H   0  0  0  0  0  0  0  0  0  0  0  0
  154.1118  140.9764  161.8557 H   0  0  0  0  0  0  0  0  0  0  0  0
  152.5358  139.6071  160.5654 H   0  0  0  0  0  0  0  0  0  0  0  0
  154.6142  138.5114  161.5068 H   0  0  0  0  0  0  0  0  0  0  0  0
  155.3600  138.6228  159.9163 H   0  0  0  0  0  0  0  0  0  0  0  0
  153.9196  137.6376  160.1591 H   0  0  0  0  0  0  0  0  0  0  0  0
  153.7146  139.1899  158.1845 H   0  0  0  0  0  0  0  0  0  0  0  0
  151.2748  139.5486  158.6867 H   0  0  0  0  0  0  0  0  0  0  0  0
  151.6715  141.2472  158.5483 H   0  0  0  0  0  0  0  0  0  0  0  0
  152.3850  140.9977  156.2537 H   0  0  0  0  0  0  0  0  0  0  0  0
  153.5151  138.7508  156.3841 H   0  0  0  0  0  0  0  0  0  0  0  0
  151.9667  137.9792  156.6431 H   0  0  0  0  0  0  0  0  0  0  0  0
  152.8435  139.4905  154.1381 H   0  0  0  0  0  0  0  0  0  0  0  0
  152.5766  137.7653  154.2661 H   0  0  0  0  0  0  0  0  0  0  0  0
  150.6140  138.9810  153.2301 H   0  0  0  0  0  0  0  0  0  0  0  0
  150.1746  138.1078  154.6815 H   0  0  0  0  0  0  0  0  0  0  0  0
  150.7416  141.1197  154.5132 H   0  0  0  0  0  0  0  0  0  0  0  0
  149.1841  140.3627  154.7790 H   0  0  0  0  0  0  0  0  0  0  0  0
  154.1918  143.0663  158.7126 H   0  0  0  0  0  0  0  0  0  0  0  0
  1  2  1  0  0  0  0
  1 18  1  0  0  0  0
  1 19  1  0  0  0  0
  1 20  1  0  0  0  0
  2 17  2  0  0  0  0
  2  3  1  0  0  0  0
  3  4  2  0  0  0  0
  3 21  1  0  0  0  0
  4  5  1  0  0  0  0
  5  6  1  0  0  0  0
  5 17  1  0  0  0  0
  6  7  1  0  0  0  0
  6 22  1  0  0  0  0
  6 23  1  0  0  0  0
  7  8  1  0  0  0  0
  7  9  1  0  0  0  0
  7 24  1  0  0  0  0
  8 25  1  0  0  0  0
  8 26  1  0  0  0  0
  8 27  1  0  0  0  0
  9 10  1  0  0  0  0
  9 28  1  0  0  0  0
 10 11  1  0  0  0  0
 10 29  1  0  0  0  0
 10 30  1  0  0  0  0
 11 16  1  0  0  0  0
 11 12  1  0  0  0  0
 11 31  1  0  0  0  0
 12 13  1  0  0  0  0
 12 32  1  0  0  0  0
 12 33  1  0  0  0  0
 13 14  1  0  0  0  0
 13 34  1  0  0  0  0
 13 35  1  0  0  0  0
 14 15  1  0  0  0  0
 14 36  1  0  0  0  0
 14 37  1  0  0  0  0
 15 16  1  0  0  0  0
 15 38  1  0  0  0  0
 15 39  1  0  0  0  0
 17 40  1  0  0  0  0
M  END
> <s_m_source_file>
AV-unprocessed.smi

> <i_m_source_file_index>
3161

> <i_lp_mmshare_version>
43012

> <i_f3d_flags>
0

> <s_epik_input>
W0NIM11jMVtjSF1ubihbY0hdMSlbQ0gyXVtDQEhdKFtDSDNdKVtOSF1bQ0gyXVtDQEBIXTJbQ0gyXVtDSDJdW0NIMl1bQ0gyXU8y

> <s_epik_cmdline>
J2VwaWtfcHl0aG9uJywgJy1waCcsICc3LjAnLCAnLXRuJywgJzgnLCAnLW1hJywgJzIwMCcsICctbWV0YWxfYmluZGluZycsICctaW1hZScsICc8aW5maWxlLm1hZT4nLCAnLW9tYWUnLCAnPG91dGZpbGUubWFlPic=

> <r_lp_tautomer_probability>
1

> <r_epik_Ionization_Penalty>
2.51986

> <r_epik_Ionization_Penalty_Charging>
0

> <r_epik_Ionization_Penalty_Neutral>
2.51986

> <r_epik_State_Penalty>
2.68614

> <r_epik_Charging_Adjusted_Penalty>
2.68614

> <i_epik_Tot_Q>
0

> <i_epik_Tot_abs_Q>
0

> <r_epik_Metal_State_Penalty>
2.68606

> <b_epik_Metal_Only>
0

> <s_lp_Force_Field>
OPLS_2005

> <r_lp_Energy>
14.508

> <b_lp_Chiralities_Consistent>
1

> <s_lp_Variant>
AV-unprocessed.smi:3161-7

> <Gold.Version>
5.8.1

> <Gold.Id.Protein>
6NUR|6NUR_protein|mol2

> <Gold.PLP.Fitness>
40.6247

> <Gold.PLP.PLP>
-42.7200

> <Gold.PLP.part.hbond>
-1.1511

> <Gold.PLP.part.metal>
0.0000

> <Gold.PLP.part.buried>
-4.8590

> <Gold.PLP.part.nonpolar>
-36.9220

> <Gold.PLP.part.repulsive>
0.0785

> <Gold.PLP.ligand.clash>
0.0000

> <Gold.PLP.ligand.torsion>
1.0661

> <Gold.PLP.Chemscore.Hbond>
0.0000

> <Gold.PLP.Chemscore.CHOScore>
0.0000

> <Gold.PLP.Chemscore.Metal>
0.0000

> <Gold.PLP.Chemscore.Internal.Correction>
0.0369

> <Gold.Rescore>
     Score         DG    S(hbond)    S(metal)    S(lipo)     H(rot)  DE(clash)    DE(int)     intcor
     14.08     -15.03       0.00        0.00     114.44       1.50       0.01       0.94       ----

> <Gold.Chemscore.Fitness>
14.0788

> <Gold.Chemscore.DG>
-15.0264

> <Gold.Chemscore.ZeroCoef>
-5.4800

> <Gold.Chemscore.Hbond>
0.0014

> <Gold.Chemscore.Metal>
0.0000

> <Gold.Chemscore.Lipo>
114.4408

> <Gold.Chemscore.Internal_Hbond>
0.0000

> <Gold.Chemscore.DEClash>
0.0073

> <Gold.Chemscore.DEInternal>
0.9403

> <Gold.Chemscore.Rot>
1.5030

> <Gold.Chemscore.Internal.Correction>
   9.000000E+99

> <Gold.Chemscore.Hbond.Weighted>
-0.0046

> <Gold.Chemscore.Metal.Weighted>
-0.0000

> <Gold.Chemscore.Lipo.Weighted>
-13.3896

> <Gold.Chemscore.Internal_Hbond.Weighted>
0.0000

> <Gold.Chemscore.DEClash.Weighted>
0.0073

> <Gold.Chemscore.DEInternal.Weighted>
0.9403

> <Gold.Chemscore.Rot.Weighted>
3.8477

> <Gold.Chemscore.Internal.Correction.Weighted>
   9.000000E+99

> <Gold.Protein.RotatedTorsions>
[ 6907 6896 6895 6894 ] final  154.28 input  -60.11 | X-H torsion
[ 7974 7965 7964 7962 ] final   47.47 input  175.53 | X-H torsion
[ 8008 7997 7996 7995 ] final  152.42 input   59.86 | X-H torsion
[ 10167 10162 10161 10158 ] final   17.77 input  -65.29 | X-H torsion
[ 10718 10713 10712 10709 ] final   64.12 input   66.30 | X-H torsion
[ 10763 10752 10751 10750 ] final  -37.79 input  -60.55 | X-H torsion
[ 11005 11000 10999 10996 ] final    5.24 input  -57.11 | X-H torsion

> <Gold.Protein.ActiveResidues>
 VAL166  LYS551  ARG553  GLY616  TRP617  ASP618  TYR619  PRO620  LYS621  CYS622 
 ASP623  PHE694  ASN695  SER759  ASP760  ASP761  ALA762  ILE779  LEU786  VAL792 
 PHE793  MET794  SER795  GLU796  ALA797  LYS798  CYS799  TRP800  GLU811  SER814 

> <Gold.Protein.RotatedAtoms>
  152.0607  133.4060  159.4416 H   0  0  0  0  0  0  0  0  0  0  0  0  # atno 6907 bound_to 6896
  150.6866  134.3204  159.4793 H   0  0  0  0  0  0  0  0  0  0  0  0  # atno 6908 bound_to 6896
  152.1024  134.9331  160.0620 H   0  0  0  0  0  0  0  0  0  0  0  0  # atno 6909 bound_to 6896
  146.0295  139.4746  142.9847 H   0  0  0  0  0  0  0  0  0  0  0  0  # atno 7974 bound_to 7965
  156.2630  140.2021  156.6331 H   0  0  0  0  0  0  0  0  0  0  0  0  # atno 8008 bound_to 7997
  154.6667  140.0554  157.0146 H   0  0  0  0  0  0  0  0  0  0  0  0  # atno 8009 bound_to 7997
  155.1196  140.3223  155.4503 H   0  0  0  0  0  0  0  0  0  0  0  0  # atno 8010 bound_to 7997
  140.5702  143.9175  150.6707 H   0  0  0  0  0  0  0  0  0  0  0  0  # atno 10167 bound_to 10162
  157.6018  130.9142  149.9804 H   0  0  0  0  0  0  0  0  0  0  0  0  # atno 10718 bound_to 10713
  153.9021  135.6801  153.4755 H   0  0  0  0  0  0  0  0  0  0  0  0  # atno 10763 bound_to 10752
  153.1124  135.4777  154.9055 H   0  0  0  0  0  0  0  0  0  0  0  0  # atno 10764 bound_to 10752
  154.7570  135.3200  154.8405 H   0  0  0  0  0  0  0  0  0  0  0  0  # atno 10765 bound_to 10752
  140.5729  134.0085  155.8016 H   0  0  0  0  0  0  0  0  0  0  0  0  # atno 11005 bound_to 11000
  145.7064  141.0120  143.1477 LP  0  0  0  0  0  0  0  0  0  0  0  0  # atno 17320 bound_to 7965
  144.7024  139.8705  143.7440 LP  0  0  0  0  0  0  0  0  0  0  0  0  # atno 17321 bound_to 7965
  140.2649  143.3497  152.1290 LP  0  0  0  0  0  0  0  0  0  0  0  0  # atno 17342 bound_to 10162
  139.5113  144.6899  151.5788 LP  0  0  0  0  0  0  0  0  0  0  0  0  # atno 17343 bound_to 10162
  156.1093  130.3651  150.0077 LP  0  0  0  0  0  0  0  0  0  0  0  0  # atno 17370 bound_to 10713
  156.8179  130.9348  151.3642 LP  0  0  0  0  0  0  0  0  0  0  0  0  # atno 17371 bound_to 10713
  141.1045  133.9716  157.3021 LP  0  0  0  0  0  0  0  0  0  0  0  0  # atno 17394 bound_to 11000
  139.9353  135.0197  156.8536 LP  0  0  0  0  0  0  0  0  0  0  0  0  # atno 17395 bound_to 11000

$$$$
