AV-unprocessed.smi:1933|AV-procd|sdf|7817|dock9
  -GOLD-   22720 9563D 1   1.00000     0.00000
 Structure written by MMmdl.
 47 49  0  0  0  0  0  0  0  0  1 V2000
  145.1423  135.0020  154.1877 O   0  0  0  0  0  0  0  0  0  0  0  0
  146.1596  135.3311  153.5775 C   0  0  0  0  0  0  0  0  0  0  0  0
  147.0779  136.1779  154.0660 N   0  0  0  0  0  0  0  0  0  0  0  0
  147.0282  136.8303  155.3720 C   0  0  0  0  0  0  0  0  0  0  0  0
  148.4050  137.4059  155.7991 C   0  0  2  0  0  0  0  0  0  0  0  0
  148.8903  136.8766  157.1809 C   0  0  1  0  0  0  0  0  0  0  0  0
  148.0565  137.2989  158.3794 C   0  0  0  0  0  0  0  0  0  0  0  0
  148.4829  136.3036  159.4650 C   0  0  0  0  0  0  0  0  0  0  0  0
  149.2588  135.3023  158.8091 O   0  0  0  0  0  0  0  0  0  0  0  0
  149.0073  135.3717  157.4145 C   0  0  0  0  0  0  0  0  0  0  0  0
  148.5460  138.8631  155.6053 N   0  0  0  0  0  0  0  0  0  0  0  0
  147.9128  139.4022  154.3987 C   0  0  0  0  0  0  0  0  0  0  0  0
  148.0233  140.9347  154.3400 C   0  0  0  0  0  0  0  0  0  0  0  0
  149.3954  141.3127  154.3937 O   0  0  0  0  0  0  0  0  0  0  0  0
  150.0538  140.8352  155.5627 C   0  0  0  0  0  0  0  0  0  0  0  0
  149.9389  139.3025  155.6365 C   0  0  0  0  0  0  0  0  0  0  0  0
  146.5119  134.8833  152.3599 N   0  0  0  0  0  0  0  0  0  0  0  0
  145.8378  133.9379  151.5423 C   0  0  0  0  0  0  0  0  0  0  0  0
  144.4222  133.9435  151.4485 C   0  0  0  0  0  0  0  0  0  0  0  0
  143.7822  133.0127  150.6079 C   0  0  0  0  0  0  0  0  0  0  0  0
  144.5691  132.1076  149.8743 C   0  0  0  0  0  0  0  0  0  0  0  0
  145.9669  132.1821  150.0121 C   0  0  0  0  0  0  0  0  0  0  0  0
  146.5842  133.0745  150.8151 N   0  0  0  0  0  0  0  0  0  0  0  0
  147.8818  136.3842  153.4912 H   0  0  0  0  0  0  0  0  0  0  0  0
  146.2932  137.6307  155.2913 H   0  0  0  0  0  0  0  0  0  0  0  0
  146.6462  136.1474  156.1323 H   0  0  0  0  0  0  0  0  0  0  0  0
  149.1176  136.9474  155.1115 H   0  0  0  0  0  0  0  0  0  0  0  0
  149.8841  137.2900  157.3563 H   0  0  0  0  0  0  0  0  0  0  0  0
  148.2337  138.3356  158.6673 H   0  0  0  0  0  0  0  0  0  0  0  0
  146.9910  137.1841  158.1775 H   0  0  0  0  0  0  0  0  0  0  0  0
  149.0873  136.7823  160.2360 H   0  0  0  0  0  0  0  0  0  0  0  0
  147.6137  135.8535  159.9458 H   0  0  0  0  0  0  0  0  0  0  0  0
  148.0742  134.8444  157.2306 H   0  0  0  0  0  0  0  0  0  0  0  0
  149.8024  134.9021  156.8361 H   0  0  0  0  0  0  0  0  0  0  0  0
  148.3929  138.9916  153.5098 H   0  0  0  0  0  0  0  0  0  0  0  0
  146.8673  139.1200  154.3337 H   0  0  0  0  0  0  0  0  0  0  0  0
  147.5861  141.3114  153.4152 H   0  0  0  0  0  0  0  0  0  0  0  0
  147.4764  141.3945  155.1649 H   0  0  0  0  0  0  0  0  0  0  0  0
  151.1011  141.1354  155.5308 H   0  0  0  0  0  0  0  0  0  0  0  0
  149.6147  141.2971  156.4485 H   0  0  0  0  0  0  0  0  0  0  0  0
  150.4192  138.9565  156.5523 H   0  0  0  0  0  0  0  0  0  0  0  0
  150.4920  138.8609  154.8069 H   0  0  0  0  0  0  0  0  0  0  0  0
  147.4240  135.1637  152.0309 H   0  0  0  0  0  0  0  0  0  0  0  0
  143.8199  134.6525  151.9964 H   0  0  0  0  0  0  0  0  0  0  0  0
  142.7055  132.9981  150.5237 H   0  0  0  0  0  0  0  0  0  0  0  0
  144.1140  131.3799  149.2186 H   0  0  0  0  0  0  0  0  0  0  0  0
  146.6080  131.5098  149.4613 H   0  0  0  0  0  0  0  0  0  0  0  0
  1  2  2  0  0  0  0
  2  3  1  0  0  0  0
  2 17  1  0  0  0  0
  3  4  1  0  0  0  0
  3 24  1  0  0  0  0
  4  5  1  0  0  0  0
  4 25  1  0  0  0  0
  4 26  1  0  0  0  0
  5  6  1  0  0  0  0
  5 11  1  0  0  0  0
  5 27  1  0  0  0  0
  6 10  1  0  0  0  0
  6  7  1  0  0  0  0
  6 28  1  0  0  0  0
  7  8  1  0  0  0  0
  7 29  1  0  0  0  0
  7 30  1  0  0  0  0
  8  9  1  0  0  0  0
  8 31  1  0  0  0  0
  8 32  1  0  0  0  0
  9 10  1  0  0  0  0
 10 33  1  0  0  0  0
 10 34  1  0  0  0  0
 11 16  1  0  0  0  0
 11 12  1  0  0  0  0
 12 13  1  0  0  0  0
 12 35  1  0  0  0  0
 12 36  1  0  0  0  0
 13 14  1  0  0  0  0
 13 37  1  0  0  0  0
 13 38  1  0  0  0  0
 14 15  1  0  0  0  0
 15 16  1  0  0  0  0
 15 39  1  0  0  0  0
 15 40  1  0  0  0  0
 16 41  1  0  0  0  0
 16 42  1  0  0  0  0
 17 18  1  0  0  0  0
 17 43  1  0  0  0  0
 18 23  1  0  0  0  0
 18 19  2  0  0  0  0
 19 20  1  0  0  0  0
 19 44  1  0  0  0  0
 20 21  2  0  0  0  0
 20 45  1  0  0  0  0
 21 22  1  0  0  0  0
 21 46  1  0  0  0  0
 22 23  2  0  0  0  0
 22 47  1  0  0  0  0
M  END
> <s_m_source_file>
AV-unprocessed.smi

> <i_m_source_file_index>
1933

> <i_lp_mmshare_version>
43012

> <i_f3d_flags>
0

> <s_epik_input>
bjFbY0hdW2NIXVtjSF1bY0hdYzFbTkhdQyg9TylbTkhdW0NIMl1bQ0BIXShbQ0BASF0yW0NIMl1bQ0gyXU9bQ0gyXTIpTjNbQ0gyXVtDSDJdT1tDSDJdW0NIMl0z

> <s_epik_cmdline>
J2VwaWtfcHl0aG9uJywgJy1waCcsICc3LjAnLCAnLXRuJywgJzgnLCAnLW1hJywgJzIwMCcsICctbWV0YWxfYmluZGluZycsICctaW1hZScsICc8aW5maWxlLm1hZT4nLCAnLW9tYWUnLCAnPG91dGZpbGUubWFlPic=

> <r_epik_Ionization_Penalty>
0.125062

> <r_epik_Ionization_Penalty_Charging>
0

> <r_epik_Ionization_Penalty_Neutral>
0.125062

> <r_epik_State_Penalty>
0.114484

> <r_epik_Charging_Adjusted_Penalty>
0.114484

> <i_epik_Tot_Q>
0

> <i_epik_Tot_abs_Q>
0

> <r_epik_Metal_State_Penalty>
0.114484

> <b_epik_Metal_Only>
0

> <s_lp_Force_Field>
OPLS_2005

> <r_lp_Energy>
60.0985

> <b_lp_Chiralities_Consistent>
1

> <s_lp_Variant>
AV-unprocessed.smi:1933-3

> <Gold.Version>
5.8.1

> <Gold.Id.Protein>
6NUR|6NUR_protein|mol2

> <Gold.PLP.Fitness>
42.7632

> <Gold.PLP.PLP>
-31.2722

> <Gold.PLP.part.hbond>
-5.0000

> <Gold.PLP.part.metal>
0.0000

> <Gold.PLP.part.buried>
-3.9419

> <Gold.PLP.part.nonpolar>
-22.4345

> <Gold.PLP.part.repulsive>
0.5187

> <Gold.PLP.ligand.clash>
0.0000

> <Gold.PLP.ligand.torsion>
1.3241

> <Gold.PLP.Chemscore.Hbond>
3.6720

> <Gold.PLP.Chemscore.CHOScore>
0.9413

> <Gold.PLP.Chemscore.Metal>
0.0000

> <Gold.Chemscore.Hbonds>
donor molecule, donor type, donor heavy atom, donor atom, acceptor molecule, acceptor atom, score
      L1  H     3    24       P1  7948  1.00
      L1  H    17    43       P1  7948  1.00
      P1  H  6896  6907       L1     9  1.00
      P1  H  8011  8017       L1    14  0.11
      L1  C    22    47       P1 10747  0.80

> <Gold.PLP.Chemscore.Internal.Correction>
0.2993

> <Gold.Rescore>
     Score         DG    S(hbond)    S(metal)    S(lipo)     H(rot)  DE(clash)    DE(int)     intcor
     18.94     -21.44       3.61        0.00      70.95       1.72       0.07       2.43       ----

> <Gold.Chemscore.Fitness>
18.9438

> <Gold.Chemscore.DG>
-21.4393

> <Gold.Chemscore.ZeroCoef>
-5.4800

> <Gold.Chemscore.Hbond>
3.6081

> <Gold.Chemscore.Metal>
0.0000

> <Gold.Chemscore.Lipo>
70.9530

> <Gold.Chemscore.Internal_Hbond>
0.0000

> <Gold.Chemscore.DEClash>
0.0691

> <Gold.Chemscore.DEInternal>
2.4265

> <Gold.Chemscore.Rot>
1.7161

> <Gold.Chemscore.Internal.Correction>
   9.000000E+99

> <Gold.Chemscore.Hbonds>
donor molecule, donor type, donor heavy atom, donor atom, acceptor molecule, acceptor atom, score
      L1  H     3    24       P1  7948  0.96
      L1  H    17    43       P1  7948  0.97
      P1  H  6896  6907       L1     9  0.99
      P1  H  8011  8017       L1    14  0.06

> <Gold.Chemscore.Hbond.Weighted>
-12.0510

> <Gold.Chemscore.Metal.Weighted>
-0.0000

> <Gold.Chemscore.Lipo.Weighted>
-8.3015

> <Gold.Chemscore.Internal_Hbond.Weighted>
0.0000

> <Gold.Chemscore.DEClash.Weighted>
0.0691

> <Gold.Chemscore.DEInternal.Weighted>
2.4265

> <Gold.Chemscore.Rot.Weighted>
4.3932

> <Gold.Chemscore.Internal.Correction.Weighted>
   9.000000E+99

> <Gold.Protein.RotatedTorsions>
[ 6907 6896 6895 6894 ] final  -76.49 input  -60.11 | X-H torsion
[ 7974 7965 7964 7962 ] final  174.55 input  175.53 | X-H torsion
[ 8008 7997 7996 7995 ] final -163.00 input   59.86 | X-H torsion
[ 10167 10162 10161 10158 ] final   90.60 input  -65.29 | X-H torsion
[ 10718 10713 10712 10709 ] final -126.34 input   66.30 | X-H torsion
[ 10763 10752 10751 10750 ] final  108.66 input  -60.55 | X-H torsion
[ 11005 11000 10999 10996 ] final -166.04 input  -57.11 | X-H torsion

> <Gold.Protein.ActiveResidues>
 VAL166  LYS551  ARG553  GLY616  TRP617  ASP618  TYR619  PRO620  LYS621  CYS622 
 ASP623  PHE694  ASN695  SER759  ASP760  ASP761  ALA762  ILE779  LEU786  VAL792 
 PHE793  MET794  SER795  GLU796  ALA797  LYS798  CYS799  TRP800  GLU811  SER814 

> <Gold.Protein.RotatedAtoms>
  150.7026  134.4564  159.5359 H   0  0  0  0  0  0  0  0  0  0  0  0  # atno 6907 bound_to 6896
  152.2247  134.8377  160.0490 H   0  0  0  0  0  0  0  0  0  0  0  0  # atno 6908 bound_to 6896
  151.9214  133.3551  159.3935 H   0  0  0  0  0  0  0  0  0  0  0  0  # atno 6909 bound_to 6896
  144.7219  139.9814  143.6439 H   0  0  0  0  0  0  0  0  0  0  0  0  # atno 7974 bound_to 7965
  155.8149  140.0911  157.1882 H   0  0  0  0  0  0  0  0  0  0  0  0  # atno 8008 bound_to 7997
  154.3979  140.1447  156.3491 H   0  0  0  0  0  0  0  0  0  0  0  0  # atno 8009 bound_to 7997
  155.8326  140.3442  155.5584 H   0  0  0  0  0  0  0  0  0  0  0  0  # atno 8010 bound_to 7997
  139.8457  144.6619  150.9229 H   0  0  0  0  0  0  0  0  0  0  0  0  # atno 10167 bound_to 10162
  156.1756  130.6697  151.0238 H   0  0  0  0  0  0  0  0  0  0  0  0  # atno 10718 bound_to 10713
  153.4238  135.3805  155.2128 H   0  0  0  0  0  0  0  0  0  0  0  0  # atno 10763 bound_to 10752
  154.8746  135.3823  154.4352 H   0  0  0  0  0  0  0  0  0  0  0  0  # atno 10764 bound_to 10752
  153.4875  135.7088  153.5965 H   0  0  0  0  0  0  0  0  0  0  0  0  # atno 10765 bound_to 10752
  140.5690  134.5257  157.5158 H   0  0  0  0  0  0  0  0  0  0  0  0  # atno 11005 bound_to 11000
  146.0485  139.3488  143.0654 LP  0  0  0  0  0  0  0  0  0  0  0  0  # atno 17320 bound_to 7965
  145.8245  140.9662  143.0881 LP  0  0  0  0  0  0  0  0  0  0  0  0  # atno 17321 bound_to 7965
  140.7793  143.3872  151.1373 LP  0  0  0  0  0  0  0  0  0  0  0  0  # atno 17342 bound_to 10162
  139.7514  143.8772  152.3078 LP  0  0  0  0  0  0  0  0  0  0  0  0  # atno 17343 bound_to 10162
  157.6833  131.0832  150.7311 LP  0  0  0  0  0  0  0  0  0  0  0  0  # atno 17370 bound_to 10713
  156.7369  130.4727  149.5486 LP  0  0  0  0  0  0  0  0  0  0  0  0  # atno 17371 bound_to 10713
  139.9371  134.7855  156.0774 LP  0  0  0  0  0  0  0  0  0  0  0  0  # atno 17394 bound_to 11000
  141.1068  133.6657  156.2883 LP  0  0  0  0  0  0  0  0  0  0  0  0  # atno 17395 bound_to 11000

$$$$
