AV-unprocessed.smi:154|AV-procd|sdf|1266|dock5
  -GOLD-   2262018523D 1   1.00000     0.00000
 Structure written by MMmdl.
 53 57  0  0  0  0  0  0  0  0  1 V2000
  145.2700  132.9792  154.1530 O   0  0  0  0  0  0  0  0  0  0  0  0
  146.2323  132.0574  153.6694 C   0  0  0  0  0  0  0  0  0  0  0  0
  146.6273  131.1295  154.8453 C   0  0  0  0  0  0  0  0  0  0  0  0
  146.5172  131.7576  156.1536 N   0  0  0  0  0  0  0  0  0  0  0  0
  145.4071  131.7859  156.9623 C   0  0  0  0  0  0  0  0  0  0  0  0
  145.5626  132.4212  158.0898 N   0  0  0  0  0  0  0  0  0  0  0  0
  146.8818  132.8658  158.0722 C   0  0  0  0  0  0  0  0  0  0  0  0
  147.7105  133.6233  158.9614 C   0  0  0  0  0  0  0  0  0  0  0  0
  147.3471  134.1243  160.1800 N   0  0  0  0  0  0  0  0  0  0  0  0
  146.3901  135.2324  160.2546 C   0  0  2  0  0  0  0  0  0  0  0  0
  146.8033  136.2053  161.3833 C   0  0  0  0  0  0  0  0  0  0  0  0
  147.1077  135.5327  162.7364 C   0  0  0  0  0  0  0  0  0  0  0  0
  147.8321  134.1809  162.5863 C   0  0  0  0  0  0  0  0  0  0  0  0
  147.3478  133.3172  161.3987 C   0  0  1  0  0  0  0  0  0  0  0  0
  145.9640  132.6413  161.5846 C   0  0  0  0  0  0  0  0  0  0  0  0
  144.7559  133.5954  161.4416 C   0  0  0  0  0  0  0  0  0  0  0  0
  143.6818  132.8688  161.1316 F   0  0  0  0  0  0  0  0  0  0  0  0
  144.4870  134.1804  162.6044 F   0  0  0  0  0  0  0  0  0  0  0  0
  144.9550  134.6613  160.3409 C   0  0  0  0  0  0  0  0  0  0  0  0
  148.9900  133.8449  158.5566 N   0  0  0  0  0  0  0  0  0  0  0  0
  149.4349  133.3860  157.3853 C   0  0  0  0  0  0  0  0  0  0  0  0
  148.7782  132.6827  156.4649 N   0  0  0  0  0  0  0  0  0  0  0  0
  147.4941  132.4443  156.8534 C   0  0  0  0  0  0  0  0  0  0  0  0
  145.5927  131.2403  152.5286 C   0  0  0  0  0  0  0  0  0  0  0  0
  145.3372  132.0948  151.2744 C   0  0  0  0  0  0  0  0  0  0  0  0
  146.5472  132.7112  150.8511 O   0  0  0  0  0  0  0  0  0  0  0  0
  147.0715  133.6121  151.8189 C   0  0  0  0  0  0  0  0  0  0  0  0
  147.4314  132.8541  153.1092 C   0  0  0  0  0  0  0  0  0  0  0  0
  144.4561  132.5194  154.2907 H   0  0  0  0  0  0  0  0  0  0  0  0
  146.0099  130.2301  154.8447 H   0  0  0  0  0  0  0  0  0  0  0  0
  147.6558  130.7881  154.7208 H   0  0  0  0  0  0  0  0  0  0  0  0
  144.4707  131.3243  156.6853 H   0  0  0  0  0  0  0  0  0  0  0  0
  146.4166  135.8309  159.3448 H   0  0  0  0  0  0  0  0  0  0  0  0
  147.7087  136.7193  161.0580 H   0  0  0  0  0  0  0  0  0  0  0  0
  146.0511  136.9841  161.5111 H   0  0  0  0  0  0  0  0  0  0  0  0
  147.7232  136.2028  163.3372 H   0  0  0  0  0  0  0  0  0  0  0  0
  146.2026  135.4184  163.3229 H   0  0  0  0  0  0  0  0  0  0  0  0
  148.8921  134.3880  162.4329 H   0  0  0  0  0  0  0  0  0  0  0  0
  147.7734  133.6174  163.5179 H   0  0  0  0  0  0  0  0  0  0  0  0
  148.0955  132.5315  161.3155 H   0  0  0  0  0  0  0  0  0  0  0  0
  145.8622  131.8732  160.8188 H   0  0  0  0  0  0  0  0  0  0  0  0
  145.9199  132.1089  162.5351 H   0  0  0  0  0  0  0  0  0  0  0  0
  144.2252  135.4641  160.4505 H   0  0  0  0  0  0  0  0  0  0  0  0
  144.7363  134.1954  159.3787 H   0  0  0  0  0  0  0  0  0  0  0  0
  150.4645  133.6153  157.1534 H   0  0  0  0  0  0  0  0  0  0  0  0
  146.2588  130.4211  152.2545 H   0  0  0  0  0  0  0  0  0  0  0  0
  144.6629  130.7774  152.8619 H   0  0  0  0  0  0  0  0  0  0  0  0
  144.9644  131.4656  150.4662 H   0  0  0  0  0  0  0  0  0  0  0  0
  144.5740  132.8520  151.4610 H   0  0  0  0  0  0  0  0  0  0  0  0
  147.9617  134.0881  151.4076 H   0  0  0  0  0  0  0  0  0  0  0  0
  146.3527  134.4083  152.0187 H   0  0  0  0  0  0  0  0  0  0  0  0
  147.8136  133.5571  153.8504 H   0  0  0  0  0  0  0  0  0  0  0  0
  148.2483  132.1657  152.8895 H   0  0  0  0  0  0  0  0  0  0  0  0
  1  2  1  0  0  0  0
  1 29  1  0  0  0  0
  2 28  1  0  0  0  0
  2  3  1  0  0  0  0
  2 24  1  0  0  0  0
  3  4  1  0  0  0  0
  3 30  1  0  0  0  0
  3 31  1  0  0  0  0
  4 23  1  0  0  0  0
  4  5  1  0  0  0  0
  5  6  2  0  0  0  0
  5 32  1  0  0  0  0
  6  7  1  0  0  0  0
  7 23  2  0  0  0  0
  7  8  1  0  0  0  0
  8  9  1  0  0  0  0
  8 20  2  0  0  0  0
  9 14  1  0  0  0  0
  9 10  1  0  0  0  0
 10 19  1  0  0  0  0
 10 11  1  0  0  0  0
 10 33  1  0  0  0  0
 11 12  1  0  0  0  0
 11 34  1  0  0  0  0
 11 35  1  0  0  0  0
 12 13  1  0  0  0  0
 12 36  1  0  0  0  0
 12 37  1  0  0  0  0
 13 14  1  0  0  0  0
 13 38  1  0  0  0  0
 13 39  1  0  0  0  0
 14 15  1  0  0  0  0
 14 40  1  0  0  0  0
 15 16  1  0  0  0  0
 15 41  1  0  0  0  0
 15 42  1  0  0  0  0
 16 17  1  0  0  0  0
 16 18  1  0  0  0  0
 16 19  1  0  0  0  0
 19 43  1  0  0  0  0
 19 44  1  0  0  0  0
 20 21  1  0  0  0  0
 21 22  2  0  0  0  0
 21 45  1  0  0  0  0
 22 23  1  0  0  0  0
 24 25  1  0  0  0  0
 24 46  1  0  0  0  0
 24 47  1  0  0  0  0
 25 26  1  0  0  0  0
 25 48  1  0  0  0  0
 25 49  1  0  0  0  0
 26 27  1  0  0  0  0
 27 28  1  0  0  0  0
 27 50  1  0  0  0  0
 27 51  1  0  0  0  0
 28 52  1  0  0  0  0
 28 53  1  0  0  0  0
M  END
> <s_m_source_file>
AV-unprocessed.smi

> <i_m_source_file_index>
154

> <i_lp_mmshare_version>
43012

> <i_f3d_flags>
0

> <s_epik_input>
W0NIMl0xW0NIMl1PW0NIMl1bQ0gyXUMxKFtPSF0pW0NIMl1uKFtjSF1uMiljKGMyMyluW2NIXW5jM04oW0NAQEhdNDUpW0NIXShbQ0gyXVtDSDJdW0NIMl00KVtDSDJdQyhGKShGKVtDSDJdNQ==

> <s_epik_cmdline>
J2VwaWtfcHl0aG9uJywgJy1waCcsICc3LjAnLCAnLXRuJywgJzgnLCAnLW1hJywgJzIwMCcsICctbWV0YWxfYmluZGluZycsICctaW1hZScsICc8aW5maWxlLm1hZT4nLCAnLW9tYWUnLCAnPG91dGZpbGUubWFlPic=

> <r_lp_tautomer_probability>
1

> <r_epik_Ionization_Penalty>
0.00333769

> <r_epik_Ionization_Penalty_Charging>
0

> <r_epik_Ionization_Penalty_Neutral>
0.00333769

> <r_epik_State_Penalty>
0.0022021

> <r_epik_Charging_Adjusted_Penalty>
0.0022021

> <i_epik_Tot_Q>
0

> <i_epik_Tot_abs_Q>
0

> <r_epik_Metal_State_Penalty>
-0

> <b_epik_Metal_Only>
0

> <s_lp_Force_Field>
OPLS_2005

> <r_lp_Energy>
50.9218

> <b_lp_Chiralities_Consistent>
1

> <s_lp_Variant>
AV-unprocessed.smi:154-1

> <Gold.Version>
5.8.1

> <Gold.Id.Protein>
6NUR|6NUR_protein|mol2

> <Gold.PLP.Fitness>
38.1514

> <Gold.PLP.PLP>
-33.4751

> <Gold.PLP.part.hbond>
-2.0000

> <Gold.PLP.part.metal>
0.0000

> <Gold.PLP.part.buried>
-4.8336

> <Gold.PLP.part.nonpolar>
-26.4308

> <Gold.PLP.part.repulsive>
0.6091

> <Gold.PLP.ligand.clash>
0.0000

> <Gold.PLP.ligand.torsion>
2.3715

> <Gold.PLP.Chemscore.Hbond>
1.9600

> <Gold.PLP.Chemscore.CHOScore>
1.1186

> <Gold.PLP.Chemscore.Metal>
0.0000

> <Gold.Chemscore.Hbonds>
donor molecule, donor type, donor heavy atom, donor atom, acceptor molecule, acceptor atom, score
      L1  H     1    29       P1 10957  1.00
      P1  H  6896  6908       L1    20  0.94
      L1  C     5    32       P1 10956  0.13
      L1  C     5    32       P1 10957  0.82

> <Gold.PLP.Chemscore.Internal.Correction>
0.1835

> <Gold.Rescore>
     Score         DG    S(hbond)    S(metal)    S(lipo)     H(rot)  DE(clash)    DE(int)     intcor
     12.23     -15.79       1.64        0.00      80.25       1.78       0.36       3.20       ----

> <Gold.Chemscore.Fitness>
12.2303

> <Gold.Chemscore.DG>
-15.7911

> <Gold.Chemscore.ZeroCoef>
-5.4800

> <Gold.Chemscore.Hbond>
1.6439

> <Gold.Chemscore.Metal>
0.0000

> <Gold.Chemscore.Lipo>
80.2478

> <Gold.Chemscore.Internal_Hbond>
0.0000

> <Gold.Chemscore.DEClash>
0.3572

> <Gold.Chemscore.DEInternal>
3.2036

> <Gold.Chemscore.Rot>
1.7845

> <Gold.Chemscore.Internal.Correction>
   9.000000E+99

> <Gold.Chemscore.Hbonds>
donor molecule, donor type, donor heavy atom, donor atom, acceptor molecule, acceptor atom, score
      L1  H     1    29       P1 10957  0.72
      P1  H  6896  6908       L1    20  0.36

> <Gold.Chemscore.Hbond.Weighted>
-5.4906

> <Gold.Chemscore.Metal.Weighted>
-0.0000

> <Gold.Chemscore.Lipo.Weighted>
-9.3890

> <Gold.Chemscore.Internal_Hbond.Weighted>
0.0000

> <Gold.Chemscore.DEClash.Weighted>
0.3572

> <Gold.Chemscore.DEInternal.Weighted>
3.2036

> <Gold.Chemscore.Rot.Weighted>
4.5684

> <Gold.Chemscore.Internal.Correction.Weighted>
   9.000000E+99

> <Gold.Protein.RotatedTorsions>
[ 6907 6896 6895 6894 ] final  158.97 input  -60.11 | X-H torsion
[ 7974 7965 7964 7962 ] final  -16.15 input  175.53 | X-H torsion
[ 8008 7997 7996 7995 ] final  105.35 input   59.86 | X-H torsion
[ 10167 10162 10161 10158 ] final -132.79 input  -65.29 | X-H torsion
[ 10718 10713 10712 10709 ] final  129.58 input   66.30 | X-H torsion
[ 10763 10752 10751 10750 ] final  108.69 input  -60.55 | X-H torsion
[ 11005 11000 10999 10996 ] final  129.87 input  -57.11 | X-H torsion

> <Gold.Protein.ActiveResidues>
 VAL166  LYS551  ARG553  GLY616  TRP617  ASP618  TYR619  PRO620  LYS621  CYS622 
 ASP623  PHE694  ASN695  SER759  ASP760  ASP761  ALA762  ILE779  LEU786  VAL792 
 PHE793  MET794  SER795  GLU796  ALA797  LYS798  CYS799  TRP800  GLU811  SER814 

> <Gold.Protein.RotatedAtoms>
  151.9925  133.3796  159.4149 H   0  0  0  0  0  0  0  0  0  0  0  0  # atno 6907 bound_to 6896
  150.6920  134.3921  159.5090 H   0  0  0  0  0  0  0  0  0  0  0  0  # atno 6908 bound_to 6896
  152.1657  134.8876  160.0589 H   0  0  0  0  0  0  0  0  0  0  0  0  # atno 6909 bound_to 6896
  146.2000  140.3595  142.8426 H   0  0  0  0  0  0  0  0  0  0  0  0  # atno 7974 bound_to 7965
  156.1652  140.3132  155.8875 H   0  0  0  0  0  0  0  0  0  0  0  0  # atno 8008 bound_to 7997
  155.3702  140.0481  157.3062 H   0  0  0  0  0  0  0  0  0  0  0  0  # atno 8009 bound_to 7997
  154.5185  140.2190  155.9031 H   0  0  0  0  0  0  0  0  0  0  0  0  # atno 8010 bound_to 7997
  139.9049  143.6563  152.2587 H   0  0  0  0  0  0  0  0  0  0  0  0  # atno 10167 bound_to 10162
  157.5141  131.1097  150.9250 H   0  0  0  0  0  0  0  0  0  0  0  0  # atno 10718 bound_to 10713
  153.4242  135.3804  155.2130 H   0  0  0  0  0  0  0  0  0  0  0  0  # atno 10763 bound_to 10752
  154.8746  135.3824  154.4346 H   0  0  0  0  0  0  0  0  0  0  0  0  # atno 10764 bound_to 10752
  153.4871  135.7088  153.5968 H   0  0  0  0  0  0  0  0  0  0  0  0  # atno 10765 bound_to 10752
  139.9639  134.9595  156.9210 H   0  0  0  0  0  0  0  0  0  0  0  0  # atno 11005 bound_to 11000
  144.8664  140.7211  143.6075 LP  0  0  0  0  0  0  0  0  0  0  0  0  # atno 17320 bound_to 7965
  145.3514  139.1705  143.4432 LP  0  0  0  0  0  0  0  0  0  0  0  0  # atno 17321 bound_to 7965
  139.6993  144.7637  151.1302 LP  0  0  0  0  0  0  0  0  0  0  0  0  # atno 17342 bound_to 10162
  140.7698  143.5480  150.9236 LP  0  0  0  0  0  0  0  0  0  0  0  0  # atno 17343 bound_to 10162
  156.9881  130.5553  149.5301 LP  0  0  0  0  0  0  0  0  0  0  0  0  # atno 17370 bound_to 10713
  156.0308  130.5400  150.8530 LP  0  0  0  0  0  0  0  0  0  0  0  0  # atno 17371 bound_to 10713
  140.5438  134.0693  155.7349 LP  0  0  0  0  0  0  0  0  0  0  0  0  # atno 17394 bound_to 11000
  141.1318  133.9289  157.2519 LP  0  0  0  0  0  0  0  0  0  0  0  0  # atno 17395 bound_to 11000

$$$$
