AV-unprocessed.smi:2718|AV-procd|sdf|10490|dock3
  -GOLD-   2272014533D 1   1.00000     0.00000
 Structure written by MMmdl.
 47 48  0  0  0  0  0  0  0  0  1 V2000
  153.4570  144.3517  163.6828 C   0  0  0  0  0  0  0  0  0  0  0  0
  153.0393  143.4260  162.5576 C   0  0  0  0  0  0  0  0  0  0  0  0
  151.8300  143.8929  161.7665 C   0  0  0  0  0  0  0  0  0  0  0  0
  153.7045  142.2845  162.2969 C   0  0  0  0  0  0  0  0  0  0  0  0
  153.3942  141.3046  161.2231 C   0  0  2  0  0  0  0  0  0  0  0  0
  154.4446  140.9214  160.1973 C   0  0  1  0  0  0  0  0  0  0  0  0
  154.5394  139.4889  159.7720 C   0  0  0  0  0  0  0  0  0  0  0  0
  154.7323  139.1325  158.6090 O   0  0  0  0  0  0  0  0  0  0  0  0
  154.3671  138.6183  160.7775 N   0  0  0  0  0  0  0  0  0  0  0  0
  154.3586  137.1645  160.6403 C   0  0  0  0  0  0  0  0  0  0  0  0
  154.8536  136.4388  161.9115 C   0  0  1  0  0  0  0  0  0  0  0  0
  153.9740  136.7590  163.1290 C   0  0  0  0  0  0  0  0  0  0  0  0
  155.0031  134.9540  161.7094 C   0  0  0  0  0  0  0  0  0  0  0  0
  154.7930  134.3447  160.5344 N   0  0  0  0  0  0  0  0  0  0  0  0
  155.0480  133.0065  160.7549 N   0  0  0  0  0  0  0  0  0  0  0  0
  155.3889  132.9386  162.0408 C   0  0  0  0  0  0  0  0  0  0  0  0
  155.3836  134.1105  162.6933 N   0  0  0  0  0  0  0  0  0  0  0  0
  155.7081  134.3659  164.0830 C   0  0  0  0  0  0  0  0  0  0  0  0
  153.2340  141.7490  159.7779 C   0  0  0  0  0  0  0  0  0  0  0  0
  152.0751  141.1848  158.9641 C   0  0  0  0  0  0  0  0  0  0  0  0
  153.4828  143.1916  159.3628 C   0  0  0  0  0  0  0  0  0  0  0  0
  153.6972  145.3396  163.2890 H   0  0  0  0  0  0  0  0  0  0  0  0
  154.3347  143.9745  164.2087 H   0  0  0  0  0  0  0  0  0  0  0  0
  152.6479  144.4576  164.4057 H   0  0  0  0  0  0  0  0  0  0  0  0
  152.0372  144.8555  161.2986 H   0  0  0  0  0  0  0  0  0  0  0  0
  150.9729  144.0136  162.4294 H   0  0  0  0  0  0  0  0  0  0  0  0
  151.5480  143.1930  160.9804 H   0  0  0  0  0  0  0  0  0  0  0  0
  154.5522  142.0303  162.9169 H   0  0  0  0  0  0  0  0  0  0  0  0
  152.7343  140.5157  161.5813 H   0  0  0  0  0  0  0  0  0  0  0  0
  155.3929  141.4560  160.2427 H   0  0  0  0  0  0  0  0  0  0  0  0
  154.2078  138.9887  161.7035 H   0  0  0  0  0  0  0  0  0  0  0  0
  153.3596  136.8211  160.3665 H   0  0  0  0  0  0  0  0  0  0  0  0
  155.0087  136.9162  159.8008 H   0  0  0  0  0  0  0  0  0  0  0  0
  155.8376  136.8468  162.1409 H   0  0  0  0  0  0  0  0  0  0  0  0
  154.3768  136.3030  164.0340 H   0  0  0  0  0  0  0  0  0  0  0  0
  152.9569  136.3896  162.9938 H   0  0  0  0  0  0  0  0  0  0  0  0
  153.9164  137.8343  163.2991 H   0  0  0  0  0  0  0  0  0  0  0  0
  155.6514  132.0064  162.5195 H   0  0  0  0  0  0  0  0  0  0  0  0
  155.9287  133.4290  164.5954 H   0  0  0  0  0  0  0  0  0  0  0  0
  154.8640  134.8473  164.5773 H   0  0  0  0  0  0  0  0  0  0  0  0
  156.5814  135.0154  164.1454 H   0  0  0  0  0  0  0  0  0  0  0  0
  152.3852  141.0140  157.9329 H   0  0  0  0  0  0  0  0  0  0  0  0
  151.2375  141.8827  158.9618 H   0  0  0  0  0  0  0  0  0  0  0  0
  151.7109  140.2455  159.3787 H   0  0  0  0  0  0  0  0  0  0  0  0
  153.6863  143.2482  158.2932 H   0  0  0  0  0  0  0  0  0  0  0  0
  154.3385  143.6116  159.8925 H   0  0  0  0  0  0  0  0  0  0  0  0
  152.6106  143.8070  159.5849 H   0  0  0  0  0  0  0  0  0  0  0  0
  1  2  1  0  0  0  0
  1 22  1  0  0  0  0
  1 23  1  0  0  0  0
  1 24  1  0  0  0  0
  2  3  1  0  0  0  0
  2  4  2  0  0  0  0
  3 25  1  0  0  0  0
  3 26  1  0  0  0  0
  3 27  1  0  0  0  0
  4  5  1  0  0  0  0
  4 28  1  0  0  0  0
  5 19  1  0  0  0  0
  5  6  1  0  0  0  0
  5 29  1  0  0  0  0
  6  7  1  0  0  0  0
  6 19  1  0  0  0  0
  6 30  1  0  0  0  0
  7  8  2  0  0  0  0
  7  9  1  0  0  0  0
  9 10  1  0  0  0  0
  9 31  1  0  0  0  0
 10 11  1  0  0  0  0
 10 32  1  0  0  0  0
 10 33  1  0  0  0  0
 11 12  1  0  0  0  0
 11 13  1  0  0  0  0
 11 34  1  0  0  0  0
 12 35  1  0  0  0  0
 12 36  1  0  0  0  0
 12 37  1  0  0  0  0
 13 17  1  0  0  0  0
 13 14  2  0  0  0  0
 14 15  1  0  0  0  0
 15 16  2  0  0  0  0
 16 17  1  0  0  0  0
 16 38  1  0  0  0  0
 17 18  1  0  0  0  0
 18 39  1  0  0  0  0
 18 40  1  0  0  0  0
 18 41  1  0  0  0  0
 19 20  1  0  0  0  0
 19 21  1  0  0  0  0
 20 42  1  0  0  0  0
 20 43  1  0  0  0  0
 20 44  1  0  0  0  0
 21 45  1  0  0  0  0
 21 46  1  0  0  0  0
 21 47  1  0  0  0  0
M  END
> <s_m_source_file>
AV-unprocessed.smi

> <i_m_source_file_index>
2718

> <i_lp_mmshare_version>
43012

> <i_f3d_flags>
0

> <s_epik_input>
W0NIM11DKFtDSDNdKT1bQ0hdW0NAQEhdKEMxKFtDSDNdKVtDSDNdKVtDQEhdMUMoPU8pW05IXVtDSDJdW0NASF0oW0NIM10pYzJubltjSF1uMltDSDNd

> <s_epik_cmdline>
J2VwaWtfcHl0aG9uJywgJy1waCcsICc3LjAnLCAnLXRuJywgJzgnLCAnLW1hJywgJzIwMCcsICctbWV0YWxfYmluZGluZycsICctaW1hZScsICc8aW5maWxlLm1hZT4nLCAnLW9tYWUnLCAnPG91dGZpbGUubWFlPic=

> <r_lp_tautomer_probability>
1

> <r_epik_Ionization_Penalty>
0.000449586

> <r_epik_Ionization_Penalty_Charging>
0

> <r_epik_Ionization_Penalty_Neutral>
0.000449586

> <r_epik_State_Penalty>
0.000243372

> <r_epik_Charging_Adjusted_Penalty>
0.000243372

> <i_epik_Tot_Q>
0

> <i_epik_Tot_abs_Q>
0

> <r_epik_Metal_State_Penalty>
-0

> <b_epik_Metal_Only>
0

> <s_lp_Force_Field>
OPLS_2005

> <r_lp_Energy>
15.9496

> <b_lp_Chiralities_Consistent>
1

> <s_lp_Variant>
AV-unprocessed.smi:2718-5

> <Gold.Version>
5.8.1

> <Gold.Id.Protein>
6NUR|6NUR_protein|mol2

> <Gold.PLP.Fitness>
46.4214

> <Gold.PLP.PLP>
-41.5928

> <Gold.PLP.part.hbond>
-2.0000

> <Gold.PLP.part.metal>
0.0000

> <Gold.PLP.part.buried>
-3.9434

> <Gold.PLP.part.nonpolar>
-35.4721

> <Gold.PLP.part.repulsive>
0.0077

> <Gold.PLP.ligand.clash>
0.0000

> <Gold.PLP.ligand.torsion>
0.7096

> <Gold.PLP.Chemscore.Hbond>
2.0000

> <Gold.PLP.Chemscore.CHOScore>
0.0000

> <Gold.PLP.Chemscore.Metal>
0.0000

> <Gold.Chemscore.Hbonds>
donor molecule, donor type, donor heavy atom, donor atom, acceptor molecule, acceptor atom, score
      P1  H  6896  6907       L1    14  0.39
      P1  H  7997  8008       L1     8  1.00

> <Gold.PLP.Chemscore.Internal.Correction>
0.2478

> <Gold.Rescore>
     Score         DG    S(hbond)    S(metal)    S(lipo)     H(rot)  DE(clash)    DE(int)     intcor
     18.28     -20.15       1.77        0.00     117.74       1.95       0.32       1.56       ----

> <Gold.Chemscore.Fitness>
18.2750

> <Gold.Chemscore.DG>
-20.1540

> <Gold.Chemscore.ZeroCoef>
-5.4800

> <Gold.Chemscore.Hbond>
1.7660

> <Gold.Chemscore.Metal>
0.0000

> <Gold.Chemscore.Lipo>
117.7433

> <Gold.Chemscore.Internal_Hbond>
0.0000

> <Gold.Chemscore.DEClash>
0.3192

> <Gold.Chemscore.DEInternal>
1.5597

> <Gold.Chemscore.Rot>
1.9533

> <Gold.Chemscore.Internal.Correction>
   9.000000E+99

> <Gold.Chemscore.Hbonds>
donor molecule, donor type, donor heavy atom, donor atom, acceptor molecule, acceptor atom, score
      P1  H  6896  6907       L1    14  0.10
      P1  H  7997  8008       L1     8  0.99

> <Gold.Chemscore.Hbond.Weighted>
-5.8985

> <Gold.Chemscore.Metal.Weighted>
-0.0000

> <Gold.Chemscore.Lipo.Weighted>
-13.7760

> <Gold.Chemscore.Internal_Hbond.Weighted>
0.0000

> <Gold.Chemscore.DEClash.Weighted>
0.3192

> <Gold.Chemscore.DEInternal.Weighted>
1.5597

> <Gold.Chemscore.Rot.Weighted>
5.0005

> <Gold.Chemscore.Internal.Correction.Weighted>
   9.000000E+99

> <Gold.Protein.RotatedTorsions>
[ 6907 6896 6895 6894 ] final   83.60 input  -60.11 | X-H torsion
[ 7974 7965 7964 7962 ] final  -43.51 input  175.53 | X-H torsion
[ 8008 7997 7996 7995 ] final -126.96 input   59.86 | X-H torsion
[ 10167 10162 10161 10158 ] final   43.82 input  -65.29 | X-H torsion
[ 10718 10713 10712 10709 ] final   32.07 input   66.30 | X-H torsion
[ 10763 10752 10751 10750 ] final   59.49 input  -60.55 | X-H torsion
[ 11005 11000 10999 10996 ] final -126.24 input  -57.11 | X-H torsion

> <Gold.Protein.ActiveResidues>
 VAL166  LYS551  ARG553  GLY616  TRP617  ASP618  TYR619  PRO620  LYS621  CYS622 
 ASP623  PHE694  ASN695  SER759  ASP760  ASP761  ALA762  ILE779  LEU786  VAL792 
 PHE793  MET794  SER795  GLU796  ALA797  LYS798  CYS799  TRP800  GLU811  SER814 

> <Gold.Protein.RotatedAtoms>
  152.5331  134.2870  159.9028 H   0  0  0  0  0  0  0  0  0  0  0  0  # atno 6907 bound_to 6896
  151.2823  133.4197  159.2635 H   0  0  0  0  0  0  0  0  0  0  0  0  # atno 6908 bound_to 6896
  151.0273  134.9528  159.8148 H   0  0  0  0  0  0  0  0  0  0  0  0  # atno 6909 bound_to 6896
  146.0011  140.7073  142.9270 H   0  0  0  0  0  0  0  0  0  0  0  0  # atno 7974 bound_to 7965
  155.2383  140.0428  157.2971 H   0  0  0  0  0  0  0  0  0  0  0  0  # atno 8008 bound_to 7997
  154.5844  140.2409  155.7978 H   0  0  0  0  0  0  0  0  0  0  0  0  # atno 8009 bound_to 7997
  156.2216  140.2968  155.9974 H   0  0  0  0  0  0  0  0  0  0  0  0  # atno 8010 bound_to 7997
  140.3405  144.2476  150.6156 H   0  0  0  0  0  0  0  0  0  0  0  0  # atno 10167 bound_to 10162
  157.2806  130.7253  149.6554 H   0  0  0  0  0  0  0  0  0  0  0  0  # atno 10718 bound_to 10713
  152.9896  135.5570  154.5722 H   0  0  0  0  0  0  0  0  0  0  0  0  # atno 10763 bound_to 10752
  154.5120  135.2803  155.1337 H   0  0  0  0  0  0  0  0  0  0  0  0  # atno 10764 bound_to 10752
  154.2725  135.6360  153.5368 H   0  0  0  0  0  0  0  0  0  0  0  0  # atno 10765 bound_to 10752
  140.9697  134.0823  157.3882 H   0  0  0  0  0  0  0  0  0  0  0  0  # atno 11005 bound_to 11000
  144.6920  140.3235  143.7228 LP  0  0  0  0  0  0  0  0  0  0  0  0  # atno 17320 bound_to 7965
  145.7485  139.1786  143.2335 LP  0  0  0  0  0  0  0  0  0  0  0  0  # atno 17321 bound_to 7965
  140.5313  143.2243  151.8233 LP  0  0  0  0  0  0  0  0  0  0  0  0  # atno 17342 bound_to 10162
  139.4841  144.4716  151.9418 LP  0  0  0  0  0  0  0  0  0  0  0  0  # atno 17343 bound_to 10162
  155.9664  130.4339  150.5027 LP  0  0  0  0  0  0  0  0  0  0  0  0  # atno 17370 bound_to 10713
  157.2970  131.0637  151.2095 LP  0  0  0  0  0  0  0  0  0  0  0  0  # atno 17371 bound_to 10713
  139.8907  135.0114  156.6754 LP  0  0  0  0  0  0  0  0  0  0  0  0  # atno 17394 bound_to 11000
  140.7347  133.9029  155.8236 LP  0  0  0  0  0  0  0  0  0  0  0  0  # atno 17395 bound_to 11000

$$$$
