AV-unprocessed.smi:72|AV-procd|sdf|692|dock3
  -GOLD-   2262017 03D 1   1.00000     0.00000
 Structure written by MMmdl.
 29 30  0  0  0  0  0  0  0  0  1 V2000
  152.0547  136.7098  159.7757 N   0  0  0  0  0  0  0  0  0  0  0  0
  151.6951  137.6442  158.9708 C   0  0  0  0  0  0  0  0  0  0  0  0
  150.5222  138.4049  159.0820 N   0  0  0  0  0  0  0  0  0  0  0  0
  150.2945  139.3300  158.2014 C   0  0  0  0  0  0  0  0  0  0  0  0
  151.2237  139.6165  157.1147 N   0  0  0  0  0  0  0  0  0  0  0  0
  150.9641  140.6894  156.0691 C   0  0  1  0  0  0  0  0  0  0  0  0
  150.6150  140.0950  154.8512 O   0  0  0  0  0  0  0  0  0  0  0  0
  149.1983  140.0994  154.7002 C   0  0  2  0  0  0  0  0  0  0  0  0
  148.7909  139.8584  153.2365 C   0  0  0  0  0  0  0  0  0  0  0  0
  148.2373  138.5674  153.0997 O   0  0  0  0  0  0  0  0  0  0  0  0
  148.8252  141.4665  155.2806 C   0  0  2  0  0  0  0  0  0  0  0  0
  149.0378  142.4870  154.3185 O   0  0  0  0  0  0  0  0  0  0  0  0
  149.7696  141.5805  156.4773 C   0  0  2  0  0  0  0  0  0  0  0  0
  150.1343  142.9200  156.7532 O   0  0  0  0  0  0  0  0  0  0  0  0
  152.3924  138.8277  156.9700 C   0  0  0  0  0  0  0  0  0  0  0  0
  153.1901  138.9954  156.0476 O   0  0  0  0  0  0  0  0  0  0  0  0
  152.5807  137.8796  157.9125 N   0  0  0  0  0  0  0  0  0  0  0  0
  151.9113  141.2206  155.9598 H   0  0  0  0  0  0  0  0  0  0  0  0
  148.7605  139.3300  155.3391 H   0  0  0  0  0  0  0  0  0  0  0  0
  147.7800  141.5039  155.5896 H   0  0  0  0  0  0  0  0  0  0  0  0
  149.2833  141.1544  157.3563 H   0  0  0  0  0  0  0  0  0  0  0  0
  152.9352  136.3153  159.4770 H   0  0  0  0  0  0  0  0  0  0  0  0
  149.3935  139.9427  158.2283 H   0  0  0  0  0  0  0  0  0  0  0  0
  148.0266  140.5760  152.9369 H   0  0  0  0  0  0  0  0  0  0  0  0
  149.6369  139.9797  152.5592 H   0  0  0  0  0  0  0  0  0  0  0  0
  148.7994  138.0604  152.5337 H   0  0  0  0  0  0  0  0  0  0  0  0
  148.9536  143.3231  154.7512 H   0  0  0  0  0  0  0  0  0  0  0  0
  149.7301  143.4782  156.1057 H   0  0  0  0  0  0  0  0  0  0  0  0
  153.4087  137.3062  157.8421 H   0  0  0  0  0  0  0  0  0  0  0  0
  1  2  2  0  0  0  0
  1 22  1  0  0  0  0
  2 17  1  0  0  0  0
  2  3  1  0  0  0  0
  3  4  2  0  0  0  0
  4  5  1  0  0  0  0
  4 23  1  0  0  0  0
  5  6  1  0  0  0  0
  5 15  1  0  0  0  0
  6 18  1  0  0  0  0
  6 13  1  0  0  0  0
  6  7  1  0  0  0  0
  7  8  1  0  0  0  0
  8 19  1  0  0  0  0
  8  9  1  0  0  0  0
  8 11  1  0  0  0  0
  9 10  1  0  0  0  0
  9 24  1  0  0  0  0
  9 25  1  0  0  0  0
 10 26  1  0  0  0  0
 11 20  1  0  0  0  0
 11 12  1  0  0  0  0
 11 13  1  0  0  0  0
 12 27  1  0  0  0  0
 13 21  1  0  0  0  0
 13 14  1  0  0  0  0
 14 28  1  0  0  0  0
 15 16  2  0  0  0  0
 15 17  1  0  0  0  0
 17 29  1  0  0  0  0
M  END
> <s_m_source_file>
AV-unprocessed.smi

> <i_m_source_file_index>
72

> <i_lp_mmshare_version>
43012

> <i_f3d_flags>
0

> <s_epik_input>
W05IMl1jMW5bY0hdbihjKD1PKW4xKVtDQEBIXTJPW0NASF0oW0NIMl1bT0hdKVtDQEBIXShbT0hdKVtDQEhdMltPSF0=

> <s_epik_cmdline>
J2VwaWtfcHl0aG9uJywgJy1waCcsICc3LjAnLCAnLXRuJywgJzgnLCAnLW1hJywgJzIwMCcsICctbWV0YWxfYmluZGluZycsICctaW1hZScsICc8aW5maWxlLm1hZT4nLCAnLW9tYWUnLCAnPG91dGZpbGUubWFlPic=

> <r_lp_tautomer_probability>
7.17554e-07

> <r_epik_Ionization_Penalty>
0.0066451

> <r_epik_Ionization_Penalty_Charging>
0.00663793

> <r_epik_Ionization_Penalty_Neutral>
7.17052e-06

> <r_epik_State_Penalty>
0.419231

> <r_epik_Charging_Adjusted_Penalty>
0.425868

> <i_epik_Tot_Q>
0

> <i_epik_Tot_abs_Q>
0

> <r_epik_Metal_State_Penalty>
1.44144

> <b_epik_Metal_Only>
0

> <s_epik_Chemistry_Notes>
This compound contains an acetal/aminal-like group ( X-CH(R)-Y where X, Y are N, S, or O) that may be acid/base labile, releasing an aldehyde.

> <s_lp_Force_Field>
OPLS_2005

> <r_lp_Energy>
42.1685

> <b_lp_Chiralities_Consistent>
1

> <s_lp_Variant>
AV-unprocessed.smi:72-30

> <Gold.Version>
5.8.1

> <Gold.Id.Protein>
6NUR|6NUR_protein|mol2

> <Gold.PLP.Fitness>
39.6953

> <Gold.PLP.PLP>
-23.4059

> <Gold.PLP.part.hbond>
-7.9107

> <Gold.PLP.part.metal>
0.0000

> <Gold.PLP.part.buried>
0.1486

> <Gold.PLP.part.nonpolar>
-16.1708

> <Gold.PLP.part.repulsive>
0.1824

> <Gold.PLP.ligand.clash>
0.0000

> <Gold.PLP.ligand.torsion>
0.8739

> <Gold.PLP.Chemscore.Hbond>
6.0050

> <Gold.PLP.Chemscore.CHOScore>
0.0000

> <Gold.PLP.Chemscore.Metal>
0.0000

> <Gold.Chemscore.Hbonds>
donor molecule, donor type, donor heavy atom, donor atom, acceptor molecule, acceptor atom, score
      L1  H    10    26       P1  7948  0.82
      L1  H    12    27       P1  8028  1.00
      L1  H    14    28       P1  8028  1.00
      P1  H  6896  6907       L1     1  0.05
      P1  H  7989  7998       L1     7  1.00
      P1  H  7997  8009       L1    16  1.00
      P1  H  8011  8017       L1    12  0.10

> <Gold.PLP.Chemscore.Internal.Correction>
0.0223

> <Gold.Rescore>
     Score         DG    S(hbond)    S(metal)    S(lipo)     H(rot)  DE(clash)    DE(int)     intcor
     10.91     -13.83       4.70        0.00      26.10       4.06       1.82       1.10       ----

> <Gold.Chemscore.Fitness>
10.9057

> <Gold.Chemscore.DG>
-13.8310

> <Gold.Chemscore.ZeroCoef>
-5.4800

> <Gold.Chemscore.Hbond>
4.6980

> <Gold.Chemscore.Metal>
0.0000

> <Gold.Chemscore.Lipo>
26.0967

> <Gold.Chemscore.Internal_Hbond>
0.0000

> <Gold.Chemscore.DEClash>
1.8239

> <Gold.Chemscore.DEInternal>
1.1014

> <Gold.Chemscore.Rot>
4.0600

> <Gold.Chemscore.Internal.Correction>
   9.000000E+99

> <Gold.Chemscore.Hbonds>
donor molecule, donor type, donor heavy atom, donor atom, acceptor molecule, acceptor atom, score
      L1  H    10    26       P1  7948  0.81
      L1  H    12    27       P1  8028  1.00
      L1  H    14    28       P1  8028  0.94
      P1  H  7989  7998       L1     7  0.67
      P1  H  7997  8009       L1    16  0.87
      P1  H  8011  8017       L1    12  0.10

> <Gold.Chemscore.Hbond.Weighted>
-15.6913

> <Gold.Chemscore.Metal.Weighted>
-0.0000

> <Gold.Chemscore.Lipo.Weighted>
-3.0533

> <Gold.Chemscore.Internal_Hbond.Weighted>
0.0000

> <Gold.Chemscore.DEClash.Weighted>
1.8239

> <Gold.Chemscore.DEInternal.Weighted>
1.1014

> <Gold.Chemscore.Rot.Weighted>
10.3936

> <Gold.Chemscore.Internal.Correction.Weighted>
   9.000000E+99

> <Gold.Protein.RotatedTorsions>
[ 6907 6896 6895 6894 ] final    8.74 input  -60.11 | X-H torsion
[ 7974 7965 7964 7962 ] final  -69.30 input  175.53 | X-H torsion
[ 8008 7997 7996 7995 ] final -164.18 input   59.86 | X-H torsion
[ 10167 10162 10161 10158 ] final  -94.02 input  -65.29 | X-H torsion
[ 10718 10713 10712 10709 ] final -160.01 input   66.30 | X-H torsion
[ 10763 10752 10751 10750 ] final  169.29 input  -60.55 | X-H torsion
[ 11005 11000 10999 10996 ] final  -10.28 input  -57.11 | X-H torsion

> <Gold.Protein.ActiveResidues>
 VAL166  LYS551  ARG553  GLY616  TRP617  ASP618  TYR619  PRO620  LYS621  CYS622 
 ASP623  PHE694  ASN695  SER759  ASP760  ASP761  ALA762  ILE779  LEU786  VAL792 
 PHE793  MET794  SER795  GLU796  ALA797  LYS798  CYS799  TRP800  GLU811  SER814 

> <Gold.Protein.RotatedAtoms>
  151.7109  135.0913  160.0267 H   0  0  0  0  0  0  0  0  0  0  0  0  # atno 6907 bound_to 6896
  152.3662  133.6356  159.6061 H   0  0  0  0  0  0  0  0  0  0  0  0  # atno 6908 bound_to 6896
  150.7640  133.9260  159.3454 H   0  0  0  0  0  0  0  0  0  0  0  0  # atno 6909 bound_to 6896
  145.7055  140.9099  143.0708 H   0  0  0  0  0  0  0  0  0  0  0  0  # atno 7974 bound_to 7965
  155.8320  140.0935  157.1787 H   0  0  0  0  0  0  0  0  0  0  0  0  # atno 8008 bound_to 7997
  154.3980  140.1417  156.3685 H   0  0  0  0  0  0  0  0  0  0  0  0  # atno 8009 bound_to 7997
  155.8156  140.3448  155.5486 H   0  0  0  0  0  0  0  0  0  0  0  0  # atno 8010 bound_to 7997
  140.3187  143.3061  152.0069 H   0  0  0  0  0  0  0  0  0  0  0  0  # atno 10167 bound_to 10162
  156.5761  130.8709  151.2851 H   0  0  0  0  0  0  0  0  0  0  0  0  # atno 10718 bound_to 10713
  154.3810  135.2753  155.2211 H   0  0  0  0  0  0  0  0  0  0  0  0  # atno 10763 bound_to 10752
  154.4318  135.5975  153.6077 H   0  0  0  0  0  0  0  0  0  0  0  0  # atno 10764 bound_to 10752
  152.9834  135.5997  154.4053 H   0  0  0  0  0  0  0  0  0  0  0  0  # atno 10765 bound_to 10752
  140.7430  133.8654  155.8983 H   0  0  0  0  0  0  0  0  0  0  0  0  # atno 11005 bound_to 11000
  144.6956  139.9005  143.7458 LP  0  0  0  0  0  0  0  0  0  0  0  0  # atno 17320 bound_to 7965
  146.0759  139.3747  143.0494 LP  0  0  0  0  0  0  0  0  0  0  0  0  # atno 17321 bound_to 7965
  139.4878  144.6328  151.7036 LP  0  0  0  0  0  0  0  0  0  0  0  0  # atno 17342 bound_to 10162
  140.5503  144.0436  150.6124 LP  0  0  0  0  0  0  0  0  0  0  0  0  # atno 17343 bound_to 10162
  157.7337  130.9735  150.1991 LP  0  0  0  0  0  0  0  0  0  0  0  0  # atno 17370 bound_to 10713
  156.2672  130.3717  149.8069 LP  0  0  0  0  0  0  0  0  0  0  0  0  # atno 17371 bound_to 10713
  140.9819  134.1394  157.4486 LP  0  0  0  0  0  0  0  0  0  0  0  0  # atno 17394 bound_to 11000
  139.8802  135.0013  156.6061 LP  0  0  0  0  0  0  0  0  0  0  0  0  # atno 17395 bound_to 11000

$$$$
