AV-unprocessed.smi:2753|AV-procd|sdf|10610|dock3
  -GOLD-   2272015 63D 1   1.00000     0.00000
 Structure written by MMmdl.
 28 29  0  0  0  0  0  0  0  0  2 V2000
  146.0936  136.6103  155.9941 F   0  0  0  0  0  0  0  0  0  0  0  0
  146.8167  137.3278  155.1353 C   0  0  0  0  0  0  0  0  0  0  0  0
  146.7501  138.6030  155.5192 F   0  0  0  0  0  0  0  0  0  0  0  0
  148.0855  136.9382  155.2505 F   0  0  0  0  0  0  0  0  0  0  0  0
  146.3233  137.1405  153.7302 C   0  0  0  0  0  0  0  0  0  0  0  0
  145.8588  138.0957  152.8539 C   0  0  0  0  0  0  0  0  0  0  0  0
  145.5293  137.4106  151.6980 N   0  0  0  0  0  0  0  0  0  0  0  0
  145.7925  136.1137  151.8995 C   0  0  0  0  0  0  0  0  0  0  0  0
  145.5579  135.0713  150.8499 C   0  0  1  0  0  0  0  0  0  0  0  0
  146.0125  133.6737  151.3128 C   0  0  0  0  0  0  0  0  0  0  0  0
  145.7409  132.6284  150.2200 C   0  0  0  0  0  0  0  0  0  0  0  0
  144.2660  132.6569  149.7859 C   0  0  0  0  0  0  0  0  0  0  0  0
  143.8775  134.0139  149.3438 N   0  3  0  0  0  0  0  0  0  0  0  0
  144.0871  135.0440  150.3851 C   0  0  0  0  0  0  0  0  0  0  0  0
  146.2766  135.8847  153.1171 N   0  0  0  0  0  0  0  0  0  0  0  0
  145.1572  137.8192  150.8523 H   0  0  0  0  0  0  0  0  0  0  0  0
  145.7418  139.1645  152.9553 H   0  0  0  0  0  0  0  0  0  0  0  0
  146.1684  135.3425  149.9864 H   0  0  0  0  0  0  0  0  0  0  0  0
  147.0741  133.6842  151.5623 H   0  0  0  0  0  0  0  0  0  0  0  0
  145.4812  133.3916  152.2232 H   0  0  0  0  0  0  0  0  0  0  0  0
  146.3812  132.8243  149.3588 H   0  0  0  0  0  0  0  0  0  0  0  0
  146.0045  131.6338  150.5813 H   0  0  0  0  0  0  0  0  0  0  0  0
  144.0977  131.9545  148.9692 H   0  0  0  0  0  0  0  0  0  0  0  0
  143.6207  132.3486  150.6098 H   0  0  0  0  0  0  0  0  0  0  0  0
  144.4296  134.2582  148.5341 H   0  0  0  0  0  0  0  0  0  0  0  0
  143.4223  134.8381  151.2253 H   0  0  0  0  0  0  0  0  0  0  0  0
  143.7985  136.0149  149.9814 H   0  0  0  0  0  0  0  0  0  0  0  0
  142.9018  134.0068  149.0821 H   0  0  0  0  0  0  0  0  0  0  0  0
  1  2  1  0  0  0  0
  2  3  1  0  0  0  0
  2  4  1  0  0  0  0
  2  5  1  0  0  0  0
  5 15  1  0  0  0  0
  5  6  2  0  0  0  0
  6  7  1  0  0  0  0
  6 17  1  0  0  0  0
  7 16  1  0  0  0  0
  7  8  1  0  0  0  0
  8  9  1  0  0  0  0
  8 15  2  0  0  0  0
  9 14  1  0  0  0  0
  9 10  1  0  0  0  0
  9 18  1  0  0  0  0
 10 11  1  0  0  0  0
 10 19  1  0  0  0  0
 10 20  1  0  0  0  0
 11 12  1  0  0  0  0
 11 21  1  0  0  0  0
 11 22  1  0  0  0  0
 12 13  1  0  0  0  0
 12 23  1  0  0  0  0
 12 24  1  0  0  0  0
 13 14  1  0  0  0  0
 13 25  1  0  0  0  0
 13 28  1  0  0  0  0
 14 26  1  0  0  0  0
 14 27  1  0  0  0  0
M  CHG  1  13   1
M  END
> <s_m_source_file>
AV-unprocessed.smi

> <i_m_source_file_index>
2753

> <i_lp_mmshare_version>
43012

> <i_f3d_flags>
0

> <s_epik_input>
RkMoRikoRiljMVtjSF1bbkhdYyhuMSlbQ0BASF0yW0NIMl1bQ0gyXVtDSDJdW05IXVtDSDJdMg==

> <s_epik_cmdline>
J2VwaWtfcHl0aG9uJywgJy1waCcsICc3LjAnLCAnLXRuJywgJzgnLCAnLW1hJywgJzIwMCcsICctbWV0YWxfYmluZGluZycsICctaW1hZScsICc8aW5maWxlLm1hZT4nLCAnLW9tYWUnLCAnPG91dGZpbGUubWFlPic=

> <r_lp_tautomer_probability>
0.5

> <r_epik_Ionization_Penalty>
0.00052307

> <r_epik_Ionization_Penalty_Charging>
0.000431517

> <r_epik_Ionization_Penalty_Neutral>
9.15529e-05

> <r_epik_State_Penalty>
0.103148

> <r_epik_Charging_Adjusted_Penalty>
0.103579

> <i_epik_Tot_Q>
1

> <i_epik_Tot_abs_Q>
1

> <r_epik_Metal_State_Penalty>
0.166025

> <b_epik_Metal_Only>
0

> <s_lp_Force_Field>
OPLS_2005

> <r_lp_Energy>
16.8068

> <b_lp_Chiralities_Consistent>
1

> <s_lp_Variant>
AV-unprocessed.smi:2753-2

> <Gold.Version>
5.8.1

> <Gold.Id.Protein>
6NUR|6NUR_protein|mol2

> <Gold.PLP.Fitness>
35.3260

> <Gold.PLP.PLP>
-20.6909

> <Gold.PLP.part.hbond>
-3.0000

> <Gold.PLP.part.metal>
0.0000

> <Gold.PLP.part.buried>
-3.2136

> <Gold.PLP.part.nonpolar>
-16.0806

> <Gold.PLP.part.repulsive>
1.3717

> <Gold.PLP.ligand.clash>
0.0000

> <Gold.PLP.ligand.torsion>
0.0175

> <Gold.PLP.Chemscore.Hbond>
3.9840

> <Gold.PLP.Chemscore.CHOScore>
0.8969

> <Gold.PLP.Chemscore.Metal>
0.0000

> <Gold.Chemscore.Hbonds>
donor molecule, donor type, donor heavy atom, donor atom, acceptor molecule, acceptor atom, score
      L1  H     7    16       P1 10171  1.00
      L1  H    13    25       P1  7921  1.00
      L1  H    13    28       P1 10186  1.98
      L1  C     6    17       P1 10175  0.92

> <Gold.PLP.Chemscore.Internal.Correction>
0.0275

> <Gold.Rescore>
     Score         DG    S(hbond)    S(metal)    S(lipo)     H(rot)  DE(clash)    DE(int)     intcor
     17.62     -17.75       2.91        0.00      43.63       1.00       0.11       0.01       ----

> <Gold.Chemscore.Fitness>
17.6238

> <Gold.Chemscore.DG>
-17.7465

> <Gold.Chemscore.ZeroCoef>
-5.4800

> <Gold.Chemscore.Hbond>
2.9107

> <Gold.Chemscore.Metal>
0.0000

> <Gold.Chemscore.Lipo>
43.6289

> <Gold.Chemscore.Internal_Hbond>
0.0000

> <Gold.Chemscore.DEClash>
0.1081

> <Gold.Chemscore.DEInternal>
0.0146

> <Gold.Chemscore.Rot>
1.0000

> <Gold.Chemscore.Internal.Correction>
   9.000000E+99

> <Gold.Chemscore.Hbonds>
donor molecule, donor type, donor heavy atom, donor atom, acceptor molecule, acceptor atom, score
      L1  H     7    16       P1 10171  0.99
      L1  H    13    25       P1  7921  0.94
      L1  H    13    28       P1 10186  0.91

> <Gold.Chemscore.Hbond.Weighted>
-9.7219

> <Gold.Chemscore.Metal.Weighted>
-0.0000

> <Gold.Chemscore.Lipo.Weighted>
-5.1046

> <Gold.Chemscore.Internal_Hbond.Weighted>
0.0000

> <Gold.Chemscore.DEClash.Weighted>
0.1081

> <Gold.Chemscore.DEInternal.Weighted>
0.0146

> <Gold.Chemscore.Rot.Weighted>
2.5600

> <Gold.Chemscore.Internal.Correction.Weighted>
   9.000000E+99

> <Gold.Protein.RotatedTorsions>
[ 6907 6896 6895 6894 ] final  128.10 input  -60.11 | X-H torsion
[ 7974 7965 7964 7962 ] final -148.45 input  175.53 | X-H torsion
[ 8008 7997 7996 7995 ] final  167.45 input   59.86 | X-H torsion
[ 10167 10162 10161 10158 ] final  124.51 input  -65.29 | X-H torsion
[ 10718 10713 10712 10709 ] final   41.88 input   66.30 | X-H torsion
[ 10763 10752 10751 10750 ] final   30.34 input  -60.55 | X-H torsion
[ 11005 11000 10999 10996 ] final   49.14 input  -57.11 | X-H torsion

> <Gold.Protein.ActiveResidues>
 VAL166  LYS551  ARG553  GLY616  TRP617  ASP618  TYR619  PRO620  LYS621  CYS622 
 ASP623  PHE694  ASN695  SER759  ASP760  ASP761  ALA762  ILE779  LEU786  VAL792 
 PHE793  MET794  SER795  GLU796  ALA797  LYS798  CYS799  TRP800  GLU811  SER814 

> <Gold.Protein.RotatedAtoms>
  152.3751  133.6470  159.6116 H   0  0  0  0  0  0  0  0  0  0  0  0  # atno 6907 bound_to 6896
  150.7697  133.9207  159.3406 H   0  0  0  0  0  0  0  0  0  0  0  0  # atno 6908 bound_to 6896
  151.7023  135.0929  160.0304 H   0  0  0  0  0  0  0  0  0  0  0  0  # atno 6909 bound_to 6896
  144.8028  140.5194  143.5695 H   0  0  0  0  0  0  0  0  0  0  0  0  # atno 7974 bound_to 7965
  156.1633  140.1616  156.8575 H   0  0  0  0  0  0  0  0  0  0  0  0  # atno 8008 bound_to 7997
  154.5182  140.0784  156.8156 H   0  0  0  0  0  0  0  0  0  0  0  0  # atno 8009 bound_to 7997
  155.3664  140.3398  155.4244 H   0  0  0  0  0  0  0  0  0  0  0  0  # atno 8010 bound_to 7997
  139.5738  144.6953  151.3708 H   0  0  0  0  0  0  0  0  0  0  0  0  # atno 10167 bound_to 10162
  157.3986  130.7847  149.7329 H   0  0  0  0  0  0  0  0  0  0  0  0  # atno 10718 bound_to 10713
  153.0377  135.6466  154.1029 H   0  0  0  0  0  0  0  0  0  0  0  0  # atno 10763 bound_to 10752
  154.0741  135.2878  155.3304 H   0  0  0  0  0  0  0  0  0  0  0  0  # atno 10764 bound_to 10752
  154.6574  135.5404  153.8040 H   0  0  0  0  0  0  0  0  0  0  0  0  # atno 10765 bound_to 10752
  140.1129  134.4930  155.8662 H   0  0  0  0  0  0  0  0  0  0  0  0  # atno 11005 bound_to 11000
  145.5510  139.1477  143.3394 LP  0  0  0  0  0  0  0  0  0  0  0  0  # atno 17320 bound_to 7965
  146.2314  140.5648  142.8974 LP  0  0  0  0  0  0  0  0  0  0  0  0  # atno 17321 bound_to 7965
  140.7021  143.7605  150.7420 LP  0  0  0  0  0  0  0  0  0  0  0  0  # atno 17342 bound_to 10162
  140.1119  143.4691  152.2365 LP  0  0  0  0  0  0  0  0  0  0  0  0  # atno 17343 bound_to 10162
  155.9817  130.4017  150.3457 LP  0  0  0  0  0  0  0  0  0  0  0  0  # atno 17370 bound_to 10713
  157.1582  131.0338  151.2853 LP  0  0  0  0  0  0  0  0  0  0  0  0  # atno 17371 bound_to 10713
  141.2134  133.6733  156.6740 LP  0  0  0  0  0  0  0  0  0  0  0  0  # atno 17394 bound_to 11000
  140.3066  134.8120  157.4142 LP  0  0  0  0  0  0  0  0  0  0  0  0  # atno 17395 bound_to 11000

$$$$
