AV-unprocessed.smi:1145|AV-procd|sdf|4885|dock7
  -GOLD-   22720 3453D 1   1.00000     0.00000
 Structure written by MMmdl.
 36 37  0  0  0  0  0  0  0  0  1 V2000
  148.5353  141.8522  157.9868 C   0  0  0  0  0  0  0  0  0  0  0  0
  149.5321  141.6447  156.8315 C   0  0  1  0  0  0  0  0  0  0  0  0
  150.9748  141.3942  157.3150 C   0  0  0  0  0  0  0  0  0  0  0  0
  151.5545  142.5409  157.9905 N   0  0  0  0  0  0  0  0  0  0  0  0
  151.6069  143.8520  157.5655 C   0  0  0  0  0  0  0  0  0  0  0  0
  152.2405  144.5693  158.5395 C   0  0  0  0  0  0  0  0  0  0  0  0
  152.5382  143.5977  159.5355 C   0  0  0  0  0  0  0  0  0  0  0  0
  152.1241  142.3851  159.2051 N   0  0  0  0  0  0  0  0  0  0  0  0
  149.1099  140.5230  155.9970 N   0  0  0  0  0  0  0  0  0  0  0  0
  148.9766  140.5500  154.6616 C   0  0  0  0  0  0  0  0  0  0  0  0
  149.1996  141.5546  153.9853 O   0  0  0  0  0  0  0  0  0  0  0  0
  148.5368  139.2323  153.9948 C   0  0  1  0  0  0  0  0  0  0  0  0
  148.2927  138.1104  155.0208 C   0  0  0  0  0  0  0  0  0  0  0  0
  147.0306  138.3334  155.8754 C   0  0  0  0  0  0  0  0  0  0  0  0
  145.8199  138.8344  155.0736 C   0  0  0  0  0  0  0  0  0  0  0  0
  144.6987  138.7725  155.5726 O   0  0  0  0  0  0  0  0  0  0  0  0
  146.0178  139.3712  153.8567 N   0  0  0  0  0  0  0  0  0  0  0  0
  147.2787  139.3977  153.1129 C   0  0  0  0  0  0  0  0  0  0  0  0
  148.7953  142.7246  158.5865 H   0  0  0  0  0  0  0  0  0  0  0  0
  148.5124  140.9869  158.6497 H   0  0  0  0  0  0  0  0  0  0  0  0
  147.5237  142.0107  157.6121 H   0  0  0  0  0  0  0  0  0  0  0  0
  149.5384  142.5494  156.2206 H   0  0  0  0  0  0  0  0  0  0  0  0
  151.0016  140.5440  157.9982 H   0  0  0  0  0  0  0  0  0  0  0  0
  151.6168  141.1355  156.4716 H   0  0  0  0  0  0  0  0  0  0  0  0
  151.1956  144.1611  156.6161 H   0  0  0  0  0  0  0  0  0  0  0  0
  152.4574  145.6272  158.5415 H   0  0  0  0  0  0  0  0  0  0  0  0
  153.0374  143.7366  160.4831 H   0  0  0  0  0  0  0  0  0  0  0  0
  148.9076  139.6558  156.4727 H   0  0  0  0  0  0  0  0  0  0  0  0
  149.3528  138.9190  153.3410 H   0  0  0  0  0  0  0  0  0  0  0  0
  148.1990  137.1613  154.4914 H   0  0  0  0  0  0  0  0  0  0  0  0
  149.1604  138.0007  155.6725 H   0  0  0  0  0  0  0  0  0  0  0  0
  146.7653  137.4099  156.3910 H   0  0  0  0  0  0  0  0  0  0  0  0
  147.2381  139.0689  156.6532 H   0  0  0  0  0  0  0  0  0  0  0  0
  145.2073  139.7338  153.3758 H   0  0  0  0  0  0  0  0  0  0  0  0
  147.3273  140.3244  152.5397 H   0  0  0  0  0  0  0  0  0  0  0  0
  147.2439  138.5910  152.3799 H   0  0  0  0  0  0  0  0  0  0  0  0
  1  2  1  0  0  0  0
  1 19  1  0  0  0  0
  1 20  1  0  0  0  0
  1 21  1  0  0  0  0
  2  3  1  0  0  0  0
  2  9  1  0  0  0  0
  2 22  1  0  0  0  0
  3  4  1  0  0  0  0
  3 23  1  0  0  0  0
  3 24  1  0  0  0  0
  4  8  1  0  0  0  0
  4  5  1  0  0  0  0
  5  6  2  0  0  0  0
  5 25  1  0  0  0  0
  6  7  1  0  0  0  0
  6 26  1  0  0  0  0
  7  8  2  0  0  0  0
  7 27  1  0  0  0  0
  9 10  1  0  0  0  0
  9 28  1  0  0  0  0
 10 11  2  0  0  0  0
 10 12  1  0  0  0  0
 12 18  1  0  0  0  0
 12 13  1  0  0  0  0
 12 29  1  0  0  0  0
 13 14  1  0  0  0  0
 13 30  1  0  0  0  0
 13 31  1  0  0  0  0
 14 15  1  0  0  0  0
 14 32  1  0  0  0  0
 14 33  1  0  0  0  0
 15 16  2  0  0  0  0
 15 17  1  0  0  0  0
 17 18  1  0  0  0  0
 17 34  1  0  0  0  0
 18 35  1  0  0  0  0
 18 36  1  0  0  0  0
M  END
> <s_m_source_file>
AV-unprocessed.smi

> <i_m_source_file_index>
1145

> <i_lp_mmshare_version>
43012

> <i_f3d_flags>
0

> <s_epik_input>
bjFbY0hdW2NIXVtjSF1uMVtDSDJdW0NAQEhdKFtDSDNdKVtOSF1DKD1PKVtDQEBIXTJbQ0gyXVtDSDJdQyg9TylbTkhdW0NIMl0y

> <s_epik_cmdline>
J2VwaWtfcHl0aG9uJywgJy1waCcsICc3LjAnLCAnLXRuJywgJzgnLCAnLW1hJywgJzIwMCcsICctbWV0YWxfYmluZGluZycsICctaW1hZScsICc8aW5maWxlLm1hZT4nLCAnLW9tYWUnLCAnPG91dGZpbGUubWFlPic=

> <r_lp_tautomer_probability>
1

> <r_epik_Ionization_Penalty>
0.000314064

> <r_epik_Ionization_Penalty_Charging>
0

> <r_epik_Ionization_Penalty_Neutral>
0.000314064

> <r_epik_State_Penalty>
-0

> <r_epik_Charging_Adjusted_Penalty>
0

> <i_epik_Tot_Q>
0

> <i_epik_Tot_abs_Q>
0

> <r_epik_Metal_State_Penalty>
-0

> <b_epik_Metal_Only>
0

> <s_lp_Force_Field>
OPLS_2005

> <r_lp_Energy>
8.22521

> <b_lp_Chiralities_Consistent>
1

> <s_lp_Variant>
AV-unprocessed.smi:1145-4

> <Gold.Version>
5.8.1

> <Gold.Id.Protein>
6NUR|6NUR_protein|mol2

> <Gold.PLP.Fitness>
37.2387

> <Gold.PLP.PLP>
-30.4377

> <Gold.PLP.part.hbond>
-3.0000

> <Gold.PLP.part.metal>
0.0000

> <Gold.PLP.part.buried>
-2.3918

> <Gold.PLP.part.nonpolar>
-25.3367

> <Gold.PLP.part.repulsive>
0.3057

> <Gold.PLP.ligand.clash>
0.8008

> <Gold.PLP.ligand.torsion>
0.2510

> <Gold.PLP.Chemscore.Hbond>
1.6880

> <Gold.PLP.Chemscore.CHOScore>
1.0000

> <Gold.PLP.Chemscore.Metal>
0.0000

> <Gold.Chemscore.Hbonds>
donor molecule, donor type, donor heavy atom, donor atom, acceptor molecule, acceptor atom, score
      L1  H    17    34       P1 10175  1.00
      P1  H  8011  8017       L1    11  0.67
      L1  C     5    25       P1  8028  0.99

> <Gold.PLP.Chemscore.Internal.Correction>
0.0397

> <Gold.Rescore>
     Score         DG    S(hbond)    S(metal)    S(lipo)     H(rot)  DE(clash)    DE(int)     intcor
     13.23     -14.77       1.76        0.00      68.59       1.80       0.25       1.29       ----

> <Gold.Chemscore.Fitness>
13.2299

> <Gold.Chemscore.DG>
-14.7706

> <Gold.Chemscore.ZeroCoef>
-5.4800

> <Gold.Chemscore.Hbond>
1.7573

> <Gold.Chemscore.Metal>
0.0000

> <Gold.Chemscore.Lipo>
68.5858

> <Gold.Chemscore.Internal_Hbond>
0.0000

> <Gold.Chemscore.DEClash>
0.2459

> <Gold.Chemscore.DEInternal>
1.2948

> <Gold.Chemscore.Rot>
1.7982

> <Gold.Chemscore.Internal.Correction>
   9.000000E+99

> <Gold.Chemscore.Hbonds>
donor molecule, donor type, donor heavy atom, donor atom, acceptor molecule, acceptor atom, score
      L1  H    17    34       P1 10175  1.00
      P1  H  8011  8017       L1    11  0.65

> <Gold.Chemscore.Hbond.Weighted>
-5.8695

> <Gold.Chemscore.Metal.Weighted>
-0.0000

> <Gold.Chemscore.Lipo.Weighted>
-8.0245

> <Gold.Chemscore.Internal_Hbond.Weighted>
0.0000

> <Gold.Chemscore.DEClash.Weighted>
0.2459

> <Gold.Chemscore.DEInternal.Weighted>
1.2948

> <Gold.Chemscore.Rot.Weighted>
4.6035

> <Gold.Chemscore.Internal.Correction.Weighted>
   9.000000E+99

> <Gold.Protein.RotatedTorsions>
[ 6907 6896 6895 6894 ] final  -50.76 input  -60.11 | X-H torsion
[ 7974 7965 7964 7962 ] final  -82.64 input  175.53 | X-H torsion
[ 8008 7997 7996 7995 ] final  118.25 input   59.86 | X-H torsion
[ 10167 10162 10161 10158 ] final  -14.92 input  -65.29 | X-H torsion
[ 10718 10713 10712 10709 ] final  -18.66 input   66.30 | X-H torsion
[ 10763 10752 10751 10750 ] final  -70.28 input  -60.55 | X-H torsion
[ 11005 11000 10999 10996 ] final    4.86 input  -57.11 | X-H torsion

> <Gold.Protein.ActiveResidues>
 VAL166  LYS551  ARG553  GLY616  TRP617  ASP618  TYR619  PRO620  LYS621  CYS622 
 ASP623  PHE694  ASN695  SER759  ASP760  ASP761  ALA762  ILE779  LEU786  VAL792 
 PHE793  MET794  SER795  GLU796  ALA797  LYS798  CYS799  TRP800  GLU811  SER814 

> <Gold.Protein.RotatedAtoms>
  150.8676  134.8043  159.7130 H   0  0  0  0  0  0  0  0  0  0  0  0  # atno 6907 bound_to 6896
  152.4692  134.4998  159.9731 H   0  0  0  0  0  0  0  0  0  0  0  0  # atno 6908 bound_to 6896
  151.5092  133.3450  159.2917 H   0  0  0  0  0  0  0  0  0  0  0  0  # atno 6909 bound_to 6896
  145.5306  140.9521  143.1605 H   0  0  0  0  0  0  0  0  0  0  0  0  # atno 7974 bound_to 7965
  156.2536  140.2879  156.0805 H   0  0  0  0  0  0  0  0  0  0  0  0  # atno 8008 bound_to 7997
  155.1572  140.0399  157.2852 H   0  0  0  0  0  0  0  0  0  0  0  0  # atno 8009 bound_to 7997
  154.6418  140.2524  155.7319 H   0  0  0  0  0  0  0  0  0  0  0  0  # atno 8010 bound_to 7997
  140.7209  143.5272  150.9563 H   0  0  0  0  0  0  0  0  0  0  0  0  # atno 10167 bound_to 10162
  156.5565  130.4715  149.6427 H   0  0  0  0  0  0  0  0  0  0  0  0  # atno 10718 bound_to 10713
  154.4154  135.5999  153.5977 H   0  0  0  0  0  0  0  0  0  0  0  0  # atno 10763 bound_to 10752
  152.9792  135.5939  154.4020 H   0  0  0  0  0  0  0  0  0  0  0  0  # atno 10764 bound_to 10752
  154.3838  135.2841  155.2174 H   0  0  0  0  0  0  0  0  0  0  0  0  # atno 10765 bound_to 10752
  140.5771  134.0047  155.8032 H   0  0  0  0  0  0  0  0  0  0  0  0  # atno 11005 bound_to 11000
  144.7628  139.6917  143.7227 LP  0  0  0  0  0  0  0  0  0  0  0  0  # atno 17320 bound_to 7965
  146.2046  139.5363  142.9721 LP  0  0  0  0  0  0  0  0  0  0  0  0  # atno 17321 bound_to 7965
  139.8991  143.6858  152.3134 LP  0  0  0  0  0  0  0  0  0  0  0  0  # atno 17342 bound_to 10162
  139.7201  144.7604  151.0969 LP  0  0  0  0  0  0  0  0  0  0  0  0  # atno 17343 bound_to 10162
  156.2837  130.7085  151.1916 LP  0  0  0  0  0  0  0  0  0  0  0  0  # atno 17370 bound_to 10713
  157.7377  131.0549  150.5339 LP  0  0  0  0  0  0  0  0  0  0  0  0  # atno 17371 bound_to 10713
  141.1019  133.9754  157.3063 LP  0  0  0  0  0  0  0  0  0  0  0  0  # atno 17394 bound_to 11000
  139.9334  135.0198  156.8477 LP  0  0  0  0  0  0  0  0  0  0  0  0  # atno 17395 bound_to 11000

$$$$
