AV-unprocessed.smi:7|AV-procd|sdf|44|dock4
  -GOLD-   2262015163D 1   1.00000     0.00000
 Structure written by MMmdl.
 45 48  0  0  0  0  0  0  0  0  1 V2000
  152.4208  137.6153  155.5834 O   0  0  0  0  0  0  0  0  0  0  0  0
  151.9611  138.6669  156.0301 C   0  0  0  0  0  0  0  0  0  0  0  0
  152.4708  139.2914  157.2730 C   0  0  0  0  0  0  0  0  0  0  0  0
  153.4672  138.8734  158.1542 N   0  0  0  0  0  0  0  0  0  0  0  0
  153.4680  139.8350  159.0766 C   0  0  0  0  0  0  0  0  0  0  0  0
  152.5656  140.8079  158.8497 N   0  0  0  0  0  0  0  0  0  0  0  0
  152.4516  141.9066  159.7329 C   0  0  0  0  0  0  0  0  0  0  0  0
  153.0326  141.8610  161.0204 C   0  0  0  0  0  0  0  0  0  0  0  0
  152.9082  142.9601  161.8928 C   0  0  0  0  0  0  0  0  0  0  0  0
  152.2025  144.1083  161.4846 C   0  0  0  0  0  0  0  0  0  0  0  0
  151.6198  144.1572  160.2036 C   0  0  0  0  0  0  0  0  0  0  0  0
  151.7429  143.0591  159.3300 C   0  0  0  0  0  0  0  0  0  0  0  0
  151.9083  140.4719  157.6747 C   0  0  0  0  0  0  0  0  0  0  0  0
  150.9005  141.1910  157.0735 N   0  0  0  0  0  0  0  0  0  0  0  0
  150.4662  140.6108  155.9849 C   0  0  0  0  0  0  0  0  0  0  0  0
  150.9450  139.3746  155.4533 N   0  0  0  0  0  0  0  0  0  0  0  0
  150.2971  138.8943  154.2240 C   0  0  0  0  0  0  0  0  0  0  0  0
  148.7550  138.8268  154.3696 C   0  0  1  0  0  0  0  0  0  0  0  0
  148.2185  138.5074  153.0991 O   0  0  0  0  0  0  0  0  0  0  0  0
  148.2800  137.7764  155.4108 C   0  0  0  0  0  0  0  0  0  0  0  0
  148.6023  136.4928  154.9013 O   0  0  0  0  0  0  0  0  0  0  0  0
  148.9506  137.8850  156.7903 C   0  0  0  0  0  0  0  0  0  0  0  0
  148.0365  137.1046  157.7411 C   0  0  0  0  0  0  0  0  0  0  0  0
  146.6291  137.1656  157.1279 C   0  0  0  0  0  0  0  0  0  0  0  0
  146.7769  137.8051  155.7388 C   0  0  0  0  0  0  0  0  0  0  0  0
  154.1427  139.8264  159.9206 H   0  0  0  0  0  0  0  0  0  0  0  0
  153.5704  140.9830  161.3476 H   0  0  0  0  0  0  0  0  0  0  0  0
  153.3530  142.9213  162.8763 H   0  0  0  0  0  0  0  0  0  0  0  0
  152.1072  144.9507  162.1541 H   0  0  0  0  0  0  0  0  0  0  0  0
  151.0782  145.0376  159.8903 H   0  0  0  0  0  0  0  0  0  0  0  0
  151.2955  143.1070  158.3482 H   0  0  0  0  0  0  0  0  0  0  0  0
  149.6732  141.0651  155.3882 H   0  0  0  0  0  0  0  0  0  0  0  0
  150.5808  139.5011  153.3613 H   0  0  0  0  0  0  0  0  0  0  0  0
  150.7002  137.9093  153.9827 H   0  0  0  0  0  0  0  0  0  0  0  0
  148.3584  139.8014  154.6598 H   0  0  0  0  0  0  0  0  0  0  0  0
  148.7984  138.8465  152.4339 H   0  0  0  0  0  0  0  0  0  0  0  0
  148.9702  136.5995  154.0375 H   0  0  0  0  0  0  0  0  0  0  0  0
  149.9773  137.5164  156.7977 H   0  0  0  0  0  0  0  0  0  0  0  0
  148.9817  138.9236  157.1210 H   0  0  0  0  0  0  0  0  0  0  0  0
  148.3652  136.0660  157.7973 H   0  0  0  0  0  0  0  0  0  0  0  0
  148.0634  137.5082  158.7538 H   0  0  0  0  0  0  0  0  0  0  0  0
  146.2110  136.1615  157.0480 H   0  0  0  0  0  0  0  0  0  0  0  0
  145.9503  137.7505  157.7496 H   0  0  0  0  0  0  0  0  0  0  0  0
  146.4260  138.8363  155.7934 H   0  0  0  0  0  0  0  0  0  0  0  0
  146.1681  137.3043  154.9847 H   0  0  0  0  0  0  0  0  0  0  0  0
  1  2  2  0  0  0  0
  2 16  1  0  0  0  0
  2  3  1  0  0  0  0
  3 13  2  0  0  0  0
  3  4  1  0  0  0  0
  4  5  2  0  0  0  0
  5  6  1  0  0  0  0
  5 26  1  0  0  0  0
  6  7  1  0  0  0  0
  6 13  1  0  0  0  0
  7 12  1  0  0  0  0
  7  8  2  0  0  0  0
  8  9  1  0  0  0  0
  8 27  1  0  0  0  0
  9 10  2  0  0  0  0
  9 28  1  0  0  0  0
 10 11  1  0  0  0  0
 10 29  1  0  0  0  0
 11 12  2  0  0  0  0
 11 30  1  0  0  0  0
 12 31  1  0  0  0  0
 13 14  1  0  0  0  0
 14 15  2  0  0  0  0
 15 16  1  0  0  0  0
 15 32  1  0  0  0  0
 16 17  1  0  0  0  0
 17 18  1  0  0  0  0
 17 33  1  0  0  0  0
 17 34  1  0  0  0  0
 18 19  1  0  0  0  0
 18 20  1  0  0  0  0
 18 35  1  0  0  0  0
 19 36  1  0  0  0  0
 20 25  1  0  0  0  0
 20 21  1  0  0  0  0
 20 22  1  0  0  0  0
 21 37  1  0  0  0  0
 22 23  1  0  0  0  0
 22 38  1  0  0  0  0
 22 39  1  0  0  0  0
 23 24  1  0  0  0  0
 23 40  1  0  0  0  0
 23 41  1  0  0  0  0
 24 25  1  0  0  0  0
 24 42  1  0  0  0  0
 24 43  1  0  0  0  0
 25 44  1  0  0  0  0
 25 45  1  0  0  0  0
M  END
> <s_m_source_file>
AV-unprocessed.smi

> <i_m_source_file_index>
7

> <i_lp_mmshare_version>
43012

> <i_f3d_flags>
0

> <s_epik_input>
W0NIMl0xW0NIMl1bQ0gyXVtDSDJdQzEoW09IXSlbQ0BASF0oW09IXSlbQ0gyXW4oYzI9TylbY0hdbmMoYzIzKW4oW2NIXW4zKS1jNFtjSF1bY0hdW2NIXVtjSF1bY0hdNA==

> <s_epik_cmdline>
J2VwaWtfcHl0aG9uJywgJy1waCcsICc3LjAnLCAnLXRuJywgJzgnLCAnLW1hJywgJzIwMCcsICctbWV0YWxfYmluZGluZycsICctaW1hZScsICc8aW5maWxlLm1hZT4nLCAnLW9tYWUnLCAnPG91dGZpbGUubWFlPic=

> <r_lp_tautomer_probability>
1

> <r_epik_Ionization_Penalty>
0.000116694

> <r_epik_Ionization_Penalty_Charging>
6.60428e-09

> <r_epik_Ionization_Penalty_Neutral>
0.000116688

> <r_epik_State_Penalty>
-0

> <r_epik_Charging_Adjusted_Penalty>
6.60428e-09

> <i_epik_Tot_Q>
0

> <i_epik_Tot_abs_Q>
0

> <r_epik_Metal_State_Penalty>
-0

> <b_epik_Metal_Only>
0

> <s_lp_Force_Field>
OPLS_2005

> <r_lp_Energy>
52.8935

> <b_lp_Chiralities_Consistent>
1

> <s_lp_Variant>
AV-unprocessed.smi:7-2

> <Gold.Version>
5.8.1

> <Gold.Id.Protein>
6NUR|6NUR_protein|mol2

> <Gold.PLP.Fitness>
51.7760

> <Gold.PLP.PLP>
-45.7432

> <Gold.PLP.part.hbond>
-4.8000

> <Gold.PLP.part.metal>
0.0000

> <Gold.PLP.part.buried>
-4.5822

> <Gold.PLP.part.nonpolar>
-36.4062

> <Gold.PLP.part.repulsive>
0.0567

> <Gold.PLP.ligand.clash>
0.0000

> <Gold.PLP.ligand.torsion>
0.2633

> <Gold.PLP.Chemscore.Hbond>
2.1824

> <Gold.PLP.Chemscore.CHOScore>
0.0000

> <Gold.PLP.Chemscore.Metal>
0.0000

> <Gold.Chemscore.Hbonds>
donor molecule, donor type, donor heavy atom, donor atom, acceptor molecule, acceptor atom, score
      L1  H    19    36       P1  7957  1.00
      L1  H    21    37       P1  7948  0.60
      P1  H 10752 10765       L1     1  0.26

> <Gold.PLP.Chemscore.Internal.Correction>
0.0123

> <Gold.Rescore>
     Score         DG    S(hbond)    S(metal)    S(lipo)     H(rot)  DE(clash)    DE(int)     intcor
     16.93     -18.19       2.93        0.00      85.93       2.79       0.03       1.24       ----

> <Gold.Chemscore.Fitness>
16.9255

> <Gold.Chemscore.DG>
-18.1922

> <Gold.Chemscore.ZeroCoef>
-5.4800

> <Gold.Chemscore.Hbond>
2.9312

> <Gold.Chemscore.Metal>
0.0000

> <Gold.Chemscore.Lipo>
85.9324

> <Gold.Chemscore.Internal_Hbond>
0.0000

> <Gold.Chemscore.DEClash>
0.0300

> <Gold.Chemscore.DEInternal>
1.2367

> <Gold.Chemscore.Rot>
2.7860

> <Gold.Chemscore.Internal.Correction>
   9.000000E+99

> <Gold.Chemscore.Hbonds>
donor molecule, donor type, donor heavy atom, donor atom, acceptor molecule, acceptor atom, score
      L1  H    19    36       P1  7957  0.97
      L1  H    21    37       P1  7948  0.58
      P1  H 10752 10765       L1     1  0.26

> <Gold.Chemscore.Hbond.Weighted>
-9.7903

> <Gold.Chemscore.Metal.Weighted>
-0.0000

> <Gold.Chemscore.Lipo.Weighted>
-10.0541

> <Gold.Chemscore.Internal_Hbond.Weighted>
0.0000

> <Gold.Chemscore.DEClash.Weighted>
0.0300

> <Gold.Chemscore.DEInternal.Weighted>
1.2367

> <Gold.Chemscore.Rot.Weighted>
7.1322

> <Gold.Chemscore.Internal.Correction.Weighted>
   9.000000E+99

> <Gold.Protein.RotatedTorsions>
[ 6907 6896 6895 6894 ] final    6.54 input  -60.11 | X-H torsion
[ 7974 7965 7964 7962 ] final -175.59 input  175.53 | X-H torsion
[ 8008 7997 7996 7995 ] final -166.27 input   59.86 | X-H torsion
[ 10167 10162 10161 10158 ] final  173.12 input  -65.29 | X-H torsion
[ 10718 10713 10712 10709 ] final    2.73 input   66.30 | X-H torsion
[ 10763 10752 10751 10750 ] final -174.61 input  -60.55 | X-H torsion
[ 11005 11000 10999 10996 ] final   98.86 input  -57.11 | X-H torsion

> <Gold.Protein.ActiveResidues>
 VAL166  LYS551  ARG553  GLY616  TRP617  ASP618  TYR619  PRO620  LYS621  CYS622 
 ASP623  PHE694  ASN695  SER759  ASP760  ASP761  ALA762  ILE779  LEU786  VAL792 
 PHE793  MET794  SER795  GLU796  ALA797  LYS798  CYS799  TRP800  GLU811  SER814 

> <Gold.Protein.RotatedAtoms>
  151.6753  135.0970  160.0205 H   0  0  0  0  0  0  0  0  0  0  0  0  # atno 6907 bound_to 6896
  152.3867  133.6617  159.6213 H   0  0  0  0  0  0  0  0  0  0  0  0  # atno 6908 bound_to 6896
  150.7791  133.8939  159.3363 H   0  0  0  0  0  0  0  0  0  0  0  0  # atno 6909 bound_to 6896
  144.7128  140.1297  143.6399 H   0  0  0  0  0  0  0  0  0  0  0  0  # atno 7974 bound_to 7965
  155.8615  140.0979  157.1610 H   0  0  0  0  0  0  0  0  0  0  0  0  # atno 8008 bound_to 7997
  154.3991  140.1364  156.4029 H   0  0  0  0  0  0  0  0  0  0  0  0  # atno 8009 bound_to 7997
  155.7851  140.3457  155.5321 H   0  0  0  0  0  0  0  0  0  0  0  0  # atno 8010 bound_to 7997
  139.5098  144.3296  152.0124 H   0  0  0  0  0  0  0  0  0  0  0  0  # atno 10167 bound_to 10162
  156.8673  130.5607  149.5659 H   0  0  0  0  0  0  0  0  0  0  0  0  # atno 10718 bound_to 10713
  154.5941  135.2848  155.0604 H   0  0  0  0  0  0  0  0  0  0  0  0  # atno 10763 bound_to 10752
  154.1894  135.6443  153.5059 H   0  0  0  0  0  0  0  0  0  0  0  0  # atno 10764 bound_to 10752
  153.0132  135.5442  154.6637 H   0  0  0  0  0  0  0  0  0  0  0  0  # atno 10765 bound_to 10752
  139.8771  134.9069  156.4520 H   0  0  0  0  0  0  0  0  0  0  0  0  # atno 11005 bound_to 11000
  145.9297  139.2598  143.1332 LP  0  0  0  0  0  0  0  0  0  0  0  0  # atno 17320 bound_to 7965
  145.9535  140.8890  143.0247 LP  0  0  0  0  0  0  0  0  0  0  0  0  # atno 17321 bound_to 7965
  140.2736  144.3937  150.6143 LP  0  0  0  0  0  0  0  0  0  0  0  0  # atno 17342 bound_to 10162
  140.6070  143.2168  151.6961 LP  0  0  0  0  0  0  0  0  0  0  0  0  # atno 17343 bound_to 10162
  156.0745  130.5770  150.9447 LP  0  0  0  0  0  0  0  0  0  0  0  0  # atno 17370 bound_to 10713
  157.6216  131.0929  150.8612 LP  0  0  0  0  0  0  0  0  0  0  0  0  # atno 17371 bound_to 10713
  140.8925  133.7838  155.9588 LP  0  0  0  0  0  0  0  0  0  0  0  0  # atno 17394 bound_to 11000
  140.8738  134.2694  157.5178 LP  0  0  0  0  0  0  0  0  0  0  0  0  # atno 17395 bound_to 11000

$$$$
