AV-unprocessed.smi:100|AV-procd|sdf|910|dock1
  -GOLD-   2262017403D 1   1.00000     0.00000
 Structure written by MMmdl.
 31 33  0  0  0  0  0  0  0  0  1 V2000
  139.6378  136.7122  155.2592 N   0  0  0  0  0  0  0  0  0  0  0  0
  140.6310  136.9739  154.3985 C   0  0  0  0  0  0  0  0  0  0  0  0
  140.6238  138.1619  153.7493 N   0  0  0  0  0  0  0  0  0  0  0  0
  141.6030  138.4468  152.8842 C   0  0  0  0  0  0  0  0  0  0  0  0
  142.6546  137.6996  152.5353 N   0  0  0  0  0  0  0  0  0  0  0  0
  142.6599  136.5048  153.1958 C   0  0  0  0  0  0  0  0  0  0  0  0
  141.6879  136.0663  154.1364 C   0  0  0  0  0  0  0  0  0  0  0  0
  142.0145  134.7973  154.5970 N   0  0  0  0  0  0  0  0  0  0  0  0
  143.1193  134.5078  153.9624 C   0  0  0  0  0  0  0  0  0  0  0  0
  143.5786  135.4831  153.1029 N   0  0  0  0  0  0  0  0  0  0  0  0
  144.7914  135.4639  152.2338 C   0  0  1  0  0  0  0  0  0  0  0  0
  145.5381  134.3398  152.5886 O   0  0  0  0  0  0  0  0  0  0  0  0
  146.0131  133.7000  151.4124 C   0  0  1  0  0  0  0  0  0  0  0  0
  146.3631  132.2298  151.6884 C   0  0  0  0  0  0  0  0  0  0  0  0
  146.5438  131.5401  150.4706 O   0  0  0  0  0  0  0  0  0  0  0  0
  144.8564  133.9001  150.4322 C   0  0  1  0  0  0  0  0  0  0  0  0
  143.8757  133.0283  150.6773 F   0  0  0  0  0  0  0  0  0  0  0  0
  144.3746  135.3040  150.7612 C   0  0  2  0  0  0  0  0  0  0  0  0
  145.0040  136.2536  149.9244 O   0  0  0  0  0  0  0  0  0  0  0  0
  139.6213  135.8330  155.7557 H   0  0  0  0  0  0  0  0  0  0  0  0
  138.9111  137.3961  155.4126 H   0  0  0  0  0  0  0  0  0  0  0  0
  141.5350  139.4117  152.4038 H   0  0  0  0  0  0  0  0  0  0  0  0
  143.6332  133.5682  154.1048 H   0  0  0  0  0  0  0  0  0  0  0  0
  145.3325  136.3850  152.4569 H   0  0  0  0  0  0  0  0  0  0  0  0
  146.8855  134.2408  151.0397 H   0  0  0  0  0  0  0  0  0  0  0  0
  147.2555  132.1437  152.3095 H   0  0  0  0  0  0  0  0  0  0  0  0
  145.5462  131.7432  152.2222 H   0  0  0  0  0  0  0  0  0  0  0  0
  147.4377  131.2371  150.4265 H   0  0  0  0  0  0  0  0  0  0  0  0
  145.1483  133.7685  149.3895 H   0  0  0  0  0  0  0  0  0  0  0  0
  143.2944  135.4033  150.6403 H   0  0  0  0  0  0  0  0  0  0  0  0
  144.5027  137.0545  149.9506 H   0  0  0  0  0  0  0  0  0  0  0  0
  1  2  1  0  0  0  0
  1 20  1  0  0  0  0
  1 21  1  0  0  0  0
  2  7  1  0  0  0  0
  2  3  2  0  0  0  0
  3  4  1  0  0  0  0
  4  5  2  0  0  0  0
  4 22  1  0  0  0  0
  5  6  1  0  0  0  0
  6 10  1  0  0  0  0
  6  7  2  0  0  0  0
  7  8  1  0  0  0  0
  8  9  2  0  0  0  0
  9 10  1  0  0  0  0
  9 23  1  0  0  0  0
 10 11  1  0  0  0  0
 11 18  1  0  0  0  0
 11 12  1  0  0  0  0
 11 24  1  0  0  0  0
 12 13  1  0  0  0  0
 13 14  1  0  0  0  0
 13 16  1  0  0  0  0
 13 25  1  0  0  0  0
 14 15  1  0  0  0  0
 14 26  1  0  0  0  0
 14 27  1  0  0  0  0
 15 28  1  0  0  0  0
 16 17  1  0  0  0  0
 16 18  1  0  0  0  0
 16 29  1  0  0  0  0
 18 19  1  0  0  0  0
 18 30  1  0  0  0  0
 19 31  1  0  0  0  0
M  END
> <s_m_source_file>
AV-unprocessed.smi

> <i_m_source_file_index>
100

> <i_lp_mmshare_version>
43012

> <i_f3d_flags>
0

> <s_epik_input>
bjFbY0hdbmMoW05IMl0pYyhjMTIpbltjSF1uMltDQEBIXTNPW0NAQEhdKFtDSDJdW09IXSlbQ0BIXShGKVtDQEhdM1tPSF0=

> <s_epik_cmdline>
J2VwaWtfcHl0aG9uJywgJy1waCcsICc3LjAnLCAnLXRuJywgJzgnLCAnLW1hJywgJzIwMCcsICctbWV0YWxfYmluZGluZycsICctaW1hZScsICc8aW5maWxlLm1hZT4nLCAnLW9tYWUnLCAnPG91dGZpbGUubWFlPic=

> <r_lp_tautomer_probability>
1

> <r_epik_Ionization_Penalty>
0.000750324

> <r_epik_Ionization_Penalty_Charging>
0

> <r_epik_Ionization_Penalty_Neutral>
0.000750324

> <r_epik_State_Penalty>
-0

> <r_epik_Charging_Adjusted_Penalty>
0

> <i_epik_Tot_Q>
0

> <i_epik_Tot_abs_Q>
0

> <r_epik_Metal_State_Penalty>
-0

> <b_epik_Metal_Only>
0

> <s_epik_Chemistry_Notes>
This compound contains an acetal/aminal-like group ( X-CH(R)-Y where X, Y are N, S, or O) that may be acid/base labile, releasing an aldehyde.

> <s_lp_Force_Field>
OPLS_2005

> <r_lp_Energy>
27.3407

> <b_lp_Chiralities_Consistent>
1

> <s_lp_Variant>
AV-unprocessed.smi:100-14

> <Gold.Version>
5.8.1

> <Gold.Id.Protein>
6NUR|6NUR_protein|mol2

> <Gold.PLP.Fitness>
42.5906

> <Gold.PLP.PLP>
-24.7611

> <Gold.PLP.part.hbond>
-5.0000

> <Gold.PLP.part.metal>
0.0000

> <Gold.PLP.part.buried>
-0.6332

> <Gold.PLP.part.nonpolar>
-21.8491

> <Gold.PLP.part.repulsive>
2.7291

> <Gold.PLP.ligand.clash>
0.0000

> <Gold.PLP.ligand.torsion>
0.2634

> <Gold.PLP.Chemscore.Hbond>
3.5920

> <Gold.PLP.Chemscore.CHOScore>
2.5214

> <Gold.PLP.Chemscore.Metal>
0.0000

> <Gold.Chemscore.Hbonds>
donor molecule, donor type, donor heavy atom, donor atom, acceptor molecule, acceptor atom, score
      L1  H     1    20       P1 11000  1.00
      L1  H    15    28       P1 10747  1.00
      L1  H    19    31       P1 10171  1.00
      P1  H 11000 11005       L1     8  0.59
      L1  C     4    22       P1 10160  1.00
      L1  C     4    22       P1 10175  0.55
      L1  C     9    23       P1 10957  0.88

> <Gold.PLP.Chemscore.Internal.Correction>
0.0163

> <Gold.Rescore>
     Score         DG    S(hbond)    S(metal)    S(lipo)     H(rot)  DE(clash)    DE(int)     intcor
      9.90     -11.62       3.30        0.00      28.15       3.19       1.56       0.16       ----

> <Gold.Chemscore.Fitness>
9.9035

> <Gold.Chemscore.DG>
-11.6203

> <Gold.Chemscore.ZeroCoef>
-5.4800

> <Gold.Chemscore.Hbond>
3.2973

> <Gold.Chemscore.Metal>
0.0000

> <Gold.Chemscore.Lipo>
28.1525

> <Gold.Chemscore.Internal_Hbond>
0.0000

> <Gold.Chemscore.DEClash>
1.5616

> <Gold.Chemscore.DEInternal>
0.1552

> <Gold.Chemscore.Rot>
3.1901

> <Gold.Chemscore.Internal.Correction>
   9.000000E+99

> <Gold.Chemscore.Hbonds>
donor molecule, donor type, donor heavy atom, donor atom, acceptor molecule, acceptor atom, score
      L1  H     1    20       P1 11000  0.22
      L1  H    15    28       P1 10747  0.98
      L1  H    19    31       P1 10171  1.00
      P1  H 11000 11005       L1     8  0.54

> <Gold.Chemscore.Hbond.Weighted>
-11.0131

> <Gold.Chemscore.Metal.Weighted>
-0.0000

> <Gold.Chemscore.Lipo.Weighted>
-3.2938

> <Gold.Chemscore.Internal_Hbond.Weighted>
0.0000

> <Gold.Chemscore.DEClash.Weighted>
1.5616

> <Gold.Chemscore.DEInternal.Weighted>
0.1552

> <Gold.Chemscore.Rot.Weighted>
8.1667

> <Gold.Chemscore.Internal.Correction.Weighted>
   9.000000E+99

> <Gold.Protein.RotatedTorsions>
[ 6907 6896 6895 6894 ] final -134.79 input  -60.11 | X-H torsion
[ 7974 7965 7964 7962 ] final   45.91 input  175.53 | X-H torsion
[ 8008 7997 7996 7995 ] final   27.90 input   59.86 | X-H torsion
[ 10167 10162 10161 10158 ] final  -83.56 input  -65.29 | X-H torsion
[ 10718 10713 10712 10709 ] final -126.51 input   66.30 | X-H torsion
[ 10763 10752 10751 10750 ] final -161.77 input  -60.55 | X-H torsion
[ 11005 11000 10999 10996 ] final  -24.10 input  -57.11 | X-H torsion

> <Gold.Protein.ActiveResidues>
 VAL166  LYS551  ARG553  GLY616  TRP617  ASP618  TYR619  PRO620  LYS621  CYS622 
 ASP623  PHE694  ASN695  SER759  ASP760  ASP761  ALA762  ILE779  LEU786  VAL792 
 PHE793  MET794  SER795  GLU796  ALA797  LYS798  CYS799  TRP800  GLU811  SER814 

> <Gold.Protein.RotatedAtoms>
  150.9901  133.6158  159.2709 H   0  0  0  0  0  0  0  0  0  0  0  0  # atno 6907 bound_to 6896
  151.3382  135.0856  159.9371 H   0  0  0  0  0  0  0  0  0  0  0  0  # atno 6908 bound_to 6896
  152.5243  133.9518  159.7730 H   0  0  0  0  0  0  0  0  0  0  0  0  # atno 6909 bound_to 6896
  146.0438  139.4913  142.9762 H   0  0  0  0  0  0  0  0  0  0  0  0  # atno 7974 bound_to 7965
  155.0502  140.3179  155.4694 H   0  0  0  0  0  0  0  0  0  0  0  0  # atno 8008 bound_to 7997
  156.2836  140.2147  156.5571 H   0  0  0  0  0  0  0  0  0  0  0  0  # atno 8009 bound_to 7997
  154.7217  140.0489  157.0633 H   0  0  0  0  0  0  0  0  0  0  0  0  # atno 8010 bound_to 7997
  140.4215  143.2583  151.8884 H   0  0  0  0  0  0  0  0  0  0  0  0  # atno 10167 bound_to 10162
  156.1772  130.6707  151.0257 H   0  0  0  0  0  0  0  0  0  0  0  0  # atno 10718 bound_to 10713
  154.7274  135.3039  154.8947 H   0  0  0  0  0  0  0  0  0  0  0  0  # atno 10763 bound_to 10752
  153.9801  135.6731  153.4754 H   0  0  0  0  0  0  0  0  0  0  0  0  # atno 10764 bound_to 10752
  153.0888  135.4970  154.8568 H   0  0  0  0  0  0  0  0  0  0  0  0  # atno 10765 bound_to 10752
  140.8813  133.7651  156.0306 H   0  0  0  0  0  0  0  0  0  0  0  0  # atno 11005 bound_to 11000
  145.6841  141.0183  143.1591 LP  0  0  0  0  0  0  0  0  0  0  0  0  # atno 17320 bound_to 7965
  144.7087  139.8455  143.7421 LP  0  0  0  0  0  0  0  0  0  0  0  0  # atno 17321 bound_to 7965
  139.4783  144.5432  151.8497 LP  0  0  0  0  0  0  0  0  0  0  0  0  # atno 17342 bound_to 10162
  140.4528  144.1831  150.5899 LP  0  0  0  0  0  0  0  0  0  0  0  0  # atno 17343 bound_to 10162
  157.6843  131.0829  150.7284 LP  0  0  0  0  0  0  0  0  0  0  0  0  # atno 17370 bound_to 10713
  156.7342  130.4719  149.5492 LP  0  0  0  0  0  0  0  0  0  0  0  0  # atno 17371 bound_to 10713
  140.8457  134.3013  157.5296 LP  0  0  0  0  0  0  0  0  0  0  0  0  # atno 17394 bound_to 11000
  139.8720  134.9440  156.3870 LP  0  0  0  0  0  0  0  0  0  0  0  0  # atno 17395 bound_to 11000

$$$$
