AV-unprocessed.smi:3185|AV-procd|sdf|12165|dock1
  -GOLD-   2272018 03D 1   1.00000     0.00000
 Structure written by MMmdl.
 38 39  0  0  0  0  0  0  0  0  2 V2000
  146.9541  138.7004  151.3365 N   0  0  0  0  0  0  0  0  0  0  0  0
  147.0447  139.5648  152.0993 C   0  0  0  0  0  0  0  0  0  0  0  0
  147.1595  140.6647  153.0686 C   0  0  0  0  0  0  0  0  0  0  0  0
  147.8081  140.2248  154.3859 C   0  0  0  0  0  0  0  0  0  0  0  0
  147.9233  141.3780  155.3891 C   0  0  0  0  0  0  0  0  0  0  0  0
  149.3183  141.8501  155.4958 N   0  3  0  0  0  0  0  0  0  0  0  0
  150.0319  141.4171  156.7189 C   0  0  2  0  0  0  0  0  0  0  0  0
  150.2521  142.6307  157.6421 C   0  0  0  0  0  0  0  0  0  0  0  0
  151.0356  142.2468  158.9067 C   0  0  0  0  0  0  0  0  0  0  0  0
  152.3785  141.5939  158.5484 C   0  0  0  0  0  0  0  0  0  0  0  0
  152.1736  140.3765  157.6344 C   0  0  0  0  0  0  0  0  0  0  0  0
  151.3860  140.7516  156.3612 C   0  0  1  0  0  0  0  0  0  0  0  0
  151.2179  139.5904  155.4965 N   0  0  0  0  0  0  0  0  0  0  0  0
  151.6542  138.2992  155.7116 C   0  0  0  0  0  0  0  0  0  0  0  0
  151.2707  137.5533  154.6342 C   0  0  0  0  0  0  0  0  0  0  0  0
  150.5887  138.4847  153.8031 C   0  0  0  0  0  0  0  0  0  0  0  0
  150.5584  139.7015  154.3211 N   0  0  0  0  0  0  0  0  0  0  0  0
  147.7417  141.4605  152.6030 H   0  0  0  0  0  0  0  0  0  0  0  0
  146.1582  141.0568  153.2479 H   0  0  0  0  0  0  0  0  0  0  0  0
  147.2208  139.4167  154.8241 H   0  0  0  0  0  0  0  0  0  0  0  0
  148.7978  139.8142  154.1815 H   0  0  0  0  0  0  0  0  0  0  0  0
  147.2864  142.2081  155.0805 H   0  0  0  0  0  0  0  0  0  0  0  0
  147.5749  141.0488  156.3685 H   0  0  0  0  0  0  0  0  0  0  0  0
  149.8324  141.5121  154.6949 H   0  0  0  0  0  0  0  0  0  0  0  0
  149.4165  140.6972  157.2626 H   0  0  0  0  0  0  0  0  0  0  0  0
  150.7939  143.4112  157.1057 H   0  0  0  0  0  0  0  0  0  0  0  0
  149.2914  143.0624  157.9258 H   0  0  0  0  0  0  0  0  0  0  0  0
  151.2051  143.1311  159.5216 H   0  0  0  0  0  0  0  0  0  0  0  0
  150.4428  141.5588  159.5108 H   0  0  0  0  0  0  0  0  0  0  0  0
  153.0198  142.3224  158.0505 H   0  0  0  0  0  0  0  0  0  0  0  0
  152.9005  141.2929  159.4572 H   0  0  0  0  0  0  0  0  0  0  0  0
  153.1427  139.9559  157.3632 H   0  0  0  0  0  0  0  0  0  0  0  0
  151.6451  139.5989  158.1876 H   0  0  0  0  0  0  0  0  0  0  0  0
  151.9832  141.4776  155.8063 H   0  0  0  0  0  0  0  0  0  0  0  0
  152.1969  138.0209  156.6032 H   0  0  0  0  0  0  0  0  0  0  0  0
  151.4470  136.5009  154.4668 H   0  0  0  0  0  0  0  0  0  0  0  0
  150.1183  138.3142  152.8460 H   0  0  0  0  0  0  0  0  0  0  0  0
  149.3142  142.8597  155.4712 H   0  0  0  0  0  0  0  0  0  0  0  0
  1  2  3  0  0  0  0
  2  3  1  0  0  0  0
  3  4  1  0  0  0  0
  3 18  1  0  0  0  0
  3 19  1  0  0  0  0
  4  5  1  0  0  0  0
  4 20  1  0  0  0  0
  4 21  1  0  0  0  0
  5  6  1  0  0  0  0
  5 22  1  0  0  0  0
  5 23  1  0  0  0  0
  6  7  1  0  0  0  0
  6 24  1  0  0  0  0
  6 38  1  0  0  0  0
  7 12  1  0  0  0  0
  7  8  1  0  0  0  0
  7 25  1  0  0  0  0
  8  9  1  0  0  0  0
  8 26  1  0  0  0  0
  8 27  1  0  0  0  0
  9 10  1  0  0  0  0
  9 28  1  0  0  0  0
  9 29  1  0  0  0  0
 10 11  1  0  0  0  0
 10 30  1  0  0  0  0
 10 31  1  0  0  0  0
 11 12  1  0  0  0  0
 11 32  1  0  0  0  0
 11 33  1  0  0  0  0
 12 13  1  0  0  0  0
 12 34  1  0  0  0  0
 13 17  1  0  0  0  0
 13 14  1  0  0  0  0
 14 15  2  0  0  0  0
 14 35  1  0  0  0  0
 15 16  1  0  0  0  0
 15 36  1  0  0  0  0
 16 17  2  0  0  0  0
 16 37  1  0  0  0  0
M  CHG  1   6   1
M  END
> <s_m_source_file>
AV-unprocessed.smi

> <i_m_source_file_index>
3185

> <i_lp_mmshare_version>
43012

> <i_f3d_flags>
0

> <s_epik_input>
TiNDW0NIMl1bQ0gyXVtDSDJdW05IXVtDQEBIXTFbQ0gyXVtDSDJdW0NIMl1bQ0gyXVtDQEhdMW4yW2NIXVtjSF1bY0hdbjI=

> <s_epik_cmdline>
J2VwaWtfcHl0aG9uJywgJy1waCcsICc3LjAnLCAnLXRuJywgJzgnLCAnLW1hJywgJzIwMCcsICctbWV0YWxfYmluZGluZycsICctaW1hZScsICc8aW5maWxlLm1hZT4nLCAnLW9tYWUnLCAnPG91dGZpbGUubWFlPic=

> <r_lp_tautomer_probability>
1

> <r_epik_Ionization_Penalty>
0.0143465

> <r_epik_Ionization_Penalty_Charging>
0.0143338

> <r_epik_Ionization_Penalty_Neutral>
1.27047e-05

> <r_epik_State_Penalty>
0.0112058

> <r_epik_Charging_Adjusted_Penalty>
0.0255397

> <i_epik_Tot_Q>
1

> <i_epik_Tot_abs_Q>
1

> <r_epik_Metal_State_Penalty>
0.0112253

> <b_epik_Metal_Only>
0

> <s_lp_Force_Field>
OPLS_2005

> <r_lp_Energy>
16.2212

> <b_lp_Chiralities_Consistent>
1

> <s_lp_Variant>
AV-unprocessed.smi:3185-1

> <Gold.Version>
5.8.1

> <Gold.Id.Protein>
6NUR|6NUR_protein|mol2

> <Gold.PLP.Fitness>
44.5049

> <Gold.PLP.PLP>
-29.5717

> <Gold.PLP.part.hbond>
-3.0000

> <Gold.PLP.part.metal>
0.0000

> <Gold.PLP.part.buried>
-1.5137

> <Gold.PLP.part.nonpolar>
-26.9601

> <Gold.PLP.part.repulsive>
1.8521

> <Gold.PLP.ligand.clash>
0.0000

> <Gold.PLP.ligand.torsion>
1.3642

> <Gold.PLP.Chemscore.Hbond>
3.9425

> <Gold.PLP.Chemscore.CHOScore>
1.9252

> <Gold.PLP.Chemscore.Metal>
0.0000

> <Gold.Chemscore.Hbonds>
donor molecule, donor type, donor heavy atom, donor atom, acceptor molecule, acceptor atom, score
      L1  H     6    38       P1  8028  2.00
      P1  H  7954  7966       L1     1  0.94
      P1  H  7989  7998       L1    17  1.00
      L1  C    16    37       P1  7948  0.98
      L1  C    16    37       P1  7949  0.02
      L1  C    16    37       P1  7957  0.93

> <Gold.PLP.Chemscore.Internal.Correction>
0.0586

> <Gold.Rescore>
     Score         DG    S(hbond)    S(metal)    S(lipo)     H(rot)  DE(clash)    DE(int)     intcor
     13.51     -17.96       2.51        0.00      75.92       1.88       0.71       3.74       ----

> <Gold.Chemscore.Fitness>
13.5061

> <Gold.Chemscore.DG>
-17.9573

> <Gold.Chemscore.ZeroCoef>
-5.4800

> <Gold.Chemscore.Hbond>
2.5149

> <Gold.Chemscore.Metal>
0.0000

> <Gold.Chemscore.Lipo>
75.9174

> <Gold.Chemscore.Internal_Hbond>
0.0000

> <Gold.Chemscore.DEClash>
0.7071

> <Gold.Chemscore.DEInternal>
3.7440

> <Gold.Chemscore.Rot>
1.8769

> <Gold.Chemscore.Internal.Correction>
   9.000000E+99

> <Gold.Chemscore.Hbonds>
donor molecule, donor type, donor heavy atom, donor atom, acceptor molecule, acceptor atom, score
      L1  H     6    38       P1  8028  1.00
      P1  H  7954  7966       L1     1  0.87
      P1  H  7989  7998       L1    17  0.22

> <Gold.Chemscore.Hbond.Weighted>
-8.3999

> <Gold.Chemscore.Metal.Weighted>
-0.0000

> <Gold.Chemscore.Lipo.Weighted>
-8.8823

> <Gold.Chemscore.Internal_Hbond.Weighted>
0.0000

> <Gold.Chemscore.DEClash.Weighted>
0.7071

> <Gold.Chemscore.DEInternal.Weighted>
3.7440

> <Gold.Chemscore.Rot.Weighted>
4.8049

> <Gold.Chemscore.Internal.Correction.Weighted>
   9.000000E+99

> <Gold.Protein.RotatedTorsions>
[ 6907 6896 6895 6894 ] final  179.54 input  -60.11 | X-H torsion
[ 7974 7965 7964 7962 ] final -164.14 input  175.53 | X-H torsion
[ 8008 7997 7996 7995 ] final  -39.51 input   59.86 | X-H torsion
[ 10167 10162 10161 10158 ] final  -68.40 input  -65.29 | X-H torsion
[ 10718 10713 10712 10709 ] final   29.85 input   66.30 | X-H torsion
[ 10763 10752 10751 10750 ] final  -71.21 input  -60.55 | X-H torsion
[ 11005 11000 10999 10996 ] final  164.35 input  -57.11 | X-H torsion

> <Gold.Protein.ActiveResidues>
 VAL166  LYS551  ARG553  GLY616  TRP617  ASP618  TYR619  PRO620  LYS621  CYS622 
 ASP623  PHE694  ASN695  SER759  ASP760  ASP761  ALA762  ILE779  LEU786  VAL792 
 PHE793  MET794  SER795  GLU796  ALA797  LYS798  CYS799  TRP800  GLU811  SER814 

> <Gold.Protein.RotatedAtoms>
  151.6700  133.3314  159.3194 H   0  0  0  0  0  0  0  0  0  0  0  0  # atno 6907 bound_to 6896
  150.7872  134.6870  159.6485 H   0  0  0  0  0  0  0  0  0  0  0  0  # atno 6908 bound_to 6896
  152.3944  134.6392  160.0147 H   0  0  0  0  0  0  0  0  0  0  0  0  # atno 6909 bound_to 6896
  144.7305  140.3004  143.6205 H   0  0  0  0  0  0  0  0  0  0  0  0  # atno 7974 bound_to 7965
  154.4022  140.1549  156.2876 H   0  0  0  0  0  0  0  0  0  0  0  0  # atno 8008 bound_to 7997
  155.8814  140.3443  155.5869 H   0  0  0  0  0  0  0  0  0  0  0  0  # atno 8009 bound_to 7997
  155.7662  140.0824  157.2121 H   0  0  0  0  0  0  0  0  0  0  0  0  # atno 8010 bound_to 7997
  140.5510  143.2312  151.6910 H   0  0  0  0  0  0  0  0  0  0  0  0  # atno 10167 bound_to 10162
  157.2520  130.7119  149.6410 H   0  0  0  0  0  0  0  0  0  0  0  0  # atno 10718 bound_to 10713
  154.4286  135.5969  153.6054 H   0  0  0  0  0  0  0  0  0  0  0  0  # atno 10763 bound_to 10752
  152.9797  135.5969  154.3867 H   0  0  0  0  0  0  0  0  0  0  0  0  # atno 10764 bound_to 10752
  154.3702  135.2841  155.2249 H   0  0  0  0  0  0  0  0  0  0  0  0  # atno 10765 bound_to 10752
  140.2450  134.8021  157.3447 H   0  0  0  0  0  0  0  0  0  0  0  0  # atno 11005 bound_to 11000
  145.7766  139.1876  143.2182 LP  0  0  0  0  0  0  0  0  0  0  0  0  # atno 17320 bound_to 7965
  146.0868  140.7702  142.9615 LP  0  0  0  0  0  0  0  0  0  0  0  0  # atno 17321 bound_to 7965
  139.5027  144.3817  152.0369 LP  0  0  0  0  0  0  0  0  0  0  0  0  # atno 17342 bound_to 10162
  140.2934  144.3728  150.6081 LP  0  0  0  0  0  0  0  0  0  0  0  0  # atno 17343 bound_to 10162
  155.9666  130.4425  150.5382 LP  0  0  0  0  0  0  0  0  0  0  0  0  # atno 17370 bound_to 10713
  157.3268  131.0692  151.1891 LP  0  0  0  0  0  0  0  0  0  0  0  0  # atno 17371 bound_to 10713
  140.1615  134.4723  155.7891 LP  0  0  0  0  0  0  0  0  0  0  0  0  # atno 17394 bound_to 11000
  141.2207  133.6903  156.7552 LP  0  0  0  0  0  0  0  0  0  0  0  0  # atno 17395 bound_to 11000

$$$$
