AV-unprocessed.smi:1007|AV-procd|sdf|4404|dock6
  -GOLD-   22720 2343D 1   1.00000     0.00000
 Structure written by MMmdl.
 57 59  0  0  0  0  0  0  0  0  3 V2000
  149.1452  129.9608  154.0995 C   0  0  0  0  0  0  0  0  0  0  0  0
  148.5830  131.1873  153.6666 O   0  0  0  0  0  0  0  0  0  0  0  0
  149.2461  132.3135  154.2165 C   0  0  0  0  0  0  0  0  0  0  0  0
  148.3386  133.5445  154.0715 C   0  0  0  0  0  0  0  0  0  0  0  0
  148.6969  134.6304  155.0182 N   0  3  0  0  0  0  0  0  0  0  0  0
  147.9094  135.8773  154.8239 C   0  0  0  0  0  0  0  0  0  0  0  0
  148.3071  136.9302  155.8781 C   0  0  0  0  0  0  0  0  0  0  0  0
  149.7379  137.2469  155.8736 N   0  0  0  0  0  0  0  0  0  0  0  0
  150.1958  138.0097  154.7062 C   0  0  0  0  0  0  0  0  0  0  0  0
  151.5816  138.6685  154.8495 C   0  0  2  0  0  0  0  0  0  0  0  0
  152.5622  137.6756  154.6245 O   0  0  0  0  0  0  0  0  0  0  0  0
  151.8052  139.2850  156.2453 C   0  0  0  0  0  0  0  0  0  0  0  0
  151.3253  140.6696  156.3330 N   0  0  0  0  0  0  0  0  0  0  0  0
  150.5039  141.3668  155.5023 C   0  0  0  0  0  0  0  0  0  0  0  0
  150.3520  142.6139  156.0286 N   0  3  0  0  0  0  0  0  0  0  0  0
  151.0875  142.7133  157.2119 C   0  0  0  0  0  0  0  0  0  0  0  0
  151.2457  143.7691  158.1019 C   0  0  0  0  0  0  0  0  0  0  0  0
  152.0692  143.5452  159.2287 C   0  0  0  0  0  0  0  0  0  0  0  0
  152.2593  144.6771  160.2239 C   0  0  0  0  0  0  0  0  0  0  0  0
  152.7055  142.2928  159.4313 C   0  0  0  0  0  0  0  0  0  0  0  0
  153.5902  142.0637  160.6450 C   0  0  0  0  0  0  0  0  0  0  0  0
  152.5326  141.2317  158.5140 C   0  0  0  0  0  0  0  0  0  0  0  0
  151.7159  141.4691  157.4116 C   0  0  0  0  0  0  0  0  0  0  0  0
  150.4866  136.0052  156.0655 C   0  0  0  0  0  0  0  0  0  0  0  0
  150.1532  134.9240  155.0169 C   0  0  0  0  0  0  0  0  0  0  0  0
  148.6028  129.1297  153.6490 H   0  0  0  0  0  0  0  0  0  0  0  0
  149.0794  129.8570  155.1833 H   0  0  0  0  0  0  0  0  0  0  0  0
  150.1918  129.8800  153.8025 H   0  0  0  0  0  0  0  0  0  0  0  0
  149.4447  132.1359  155.2746 H   0  0  0  0  0  0  0  0  0  0  0  0
  150.2113  132.4680  153.7339 H   0  0  0  0  0  0  0  0  0  0  0  0
  148.4239  133.9092  153.0468 H   0  0  0  0  0  0  0  0  0  0  0  0
  147.2931  133.2662  154.2120 H   0  0  0  0  0  0  0  0  0  0  0  0
  148.0581  136.2615  153.8141 H   0  0  0  0  0  0  0  0  0  0  0  0
  146.8452  135.6679  154.9233 H   0  0  0  0  0  0  0  0  0  0  0  0
  147.7122  137.8326  155.7469 H   0  0  0  0  0  0  0  0  0  0  0  0
  148.0363  136.5511  156.8646 H   0  0  0  0  0  0  0  0  0  0  0  0
  150.2325  137.3428  153.8434 H   0  0  0  0  0  0  0  0  0  0  0  0
  149.4640  138.7757  154.4508 H   0  0  0  0  0  0  0  0  0  0  0  0
  151.7218  139.4265  154.0797 H   0  0  0  0  0  0  0  0  0  0  0  0
  153.4090  138.0280  154.8534 H   0  0  0  0  0  0  0  0  0  0  0  0
  151.3078  138.7010  157.0205 H   0  0  0  0  0  0  0  0  0  0  0  0
  152.8672  139.2870  156.4952 H   0  0  0  0  0  0  0  0  0  0  0  0
  150.0496  140.9955  154.5949 H   0  0  0  0  0  0  0  0  0  0  0  0
  150.7588  144.7198  157.9410 H   0  0  0  0  0  0  0  0  0  0  0  0
  153.3111  144.9560  160.2906 H   0  0  0  0  0  0  0  0  0  0  0  0
  151.9163  144.3777  161.2145 H   0  0  0  0  0  0  0  0  0  0  0  0
  151.6972  145.5646  159.9316 H   0  0  0  0  0  0  0  0  0  0  0  0
  154.0143  141.0591  160.6459 H   0  0  0  0  0  0  0  0  0  0  0  0
  153.0174  142.1845  161.5647 H   0  0  0  0  0  0  0  0  0  0  0  0
  154.4178  142.7734  160.6559 H   0  0  0  0  0  0  0  0  0  0  0  0
  153.0158  140.2781  158.6664 H   0  0  0  0  0  0  0  0  0  0  0  0
  151.5576  136.2122  156.0564 H   0  0  0  0  0  0  0  0  0  0  0  0
  150.2706  135.6105  157.0594 H   0  0  0  0  0  0  0  0  0  0  0  0
  150.7071  134.0148  155.2531 H   0  0  0  0  0  0  0  0  0  0  0  0
  150.4702  135.2347  154.0207 H   0  0  0  0  0  0  0  0  0  0  0  0
  148.4828  134.2868  155.9441 H   0  0  0  0  0  0  0  0  0  0  0  0
  149.7846  143.3399  155.6104 H   0  0  0  0  0  0  0  0  0  0  0  0
  1  2  1  0  0  0  0
  1 26  1  0  0  0  0
  1 27  1  0  0  0  0
  1 28  1  0  0  0  0
  2  3  1  0  0  0  0
  3  4  1  0  0  0  0
  3 29  1  0  0  0  0
  3 30  1  0  0  0  0
  4  5  1  0  0  0  0
  4 31  1  0  0  0  0
  4 32  1  0  0  0  0
  5 25  1  0  0  0  0
  5  6  1  0  0  0  0
  5 56  1  0  0  0  0
  6  7  1  0  0  0  0
  6 33  1  0  0  0  0
  6 34  1  0  0  0  0
  7  8  1  0  0  0  0
  7 35  1  0  0  0  0
  7 36  1  0  0  0  0
  8  9  1  0  0  0  0
  8 24  1  0  0  0  0
  9 10  1  0  0  0  0
  9 37  1  0  0  0  0
  9 38  1  0  0  0  0
 10 11  1  0  0  0  0
 10 12  1  0  0  0  0
 10 39  1  0  0  0  0
 11 40  1  0  0  0  0
 12 13  1  0  0  0  0
 12 41  1  0  0  0  0
 12 42  1  0  0  0  0
 13 23  1  0  0  0  0
 13 14  1  0  0  0  0
 14 15  2  0  0  0  0
 14 43  1  0  0  0  0
 15 16  1  0  0  0  0
 15 57  1  0  0  0  0
 16 23  2  0  0  0  0
 16 17  1  0  0  0  0
 17 18  2  0  0  0  0
 17 44  1  0  0  0  0
 18 19  1  0  0  0  0
 18 20  1  0  0  0  0
 19 45  1  0  0  0  0
 19 46  1  0  0  0  0
 19 47  1  0  0  0  0
 20 21  1  0  0  0  0
 20 22  2  0  0  0  0
 21 48  1  0  0  0  0
 21 49  1  0  0  0  0
 21 50  1  0  0  0  0
 22 23  1  0  0  0  0
 22 51  1  0  0  0  0
 24 25  1  0  0  0  0
 24 52  1  0  0  0  0
 24 53  1  0  0  0  0
 25 54  1  0  0  0  0
 25 55  1  0  0  0  0
M  CHG  1   5   1
M  CHG  1  15   1
M  END
> <s_m_source_file>
AV-unprocessed.smi

> <i_m_source_file_index>
1007

> <i_lp_mmshare_version>
43012

> <i_f3d_flags>
0

> <s_epik_input>
W0NIM11PW0NIMl1bQ0gyXU4xW0NIMl1bQ0gyXU4oW0NIMl1bQ0gyXTEpW0NIMl1bQ0BIXShbT0hdKVtDSDJdbihbY0hdbjIpYyhjMjMpW2NIXWMoW0NIM10pYyhbY0hdMylbQ0gzXQ==

> <s_epik_cmdline>
J2VwaWtfcHl0aG9uJywgJy1waCcsICc3LjAnLCAnLXRuJywgJzgnLCAnLW1hJywgJzIwMCcsICctbWV0YWxfYmluZGluZycsICctaW1hZScsICc8aW5maWxlLm1hZT4nLCAnLW9tYWUnLCAnPG91dGZpbGUubWFlPic=

> <r_epik_Ionization_Penalty>
1.34507

> <r_epik_Ionization_Penalty_Charging>
1.29906

> <r_epik_Ionization_Penalty_Neutral>
0.0460038

> <r_epik_State_Penalty>
2.55679

> <r_epik_Charging_Adjusted_Penalty>
3.85586

> <i_epik_Tot_Q>
2

> <i_epik_Tot_abs_Q>
2

> <r_epik_Metal_State_Penalty>
6.56928

> <b_epik_Metal_Only>
0

> <s_lp_Force_Field>
OPLS_2005

> <r_lp_Energy>
40.0573

> <b_lp_Chiralities_Consistent>
1

> <s_lp_Variant>
AV-unprocessed.smi:1007-7

> <Gold.Version>
5.8.1

> <Gold.Id.Protein>
6NUR|6NUR_protein|mol2

> <Gold.PLP.Fitness>
56.3002

> <Gold.PLP.PLP>
-50.7258

> <Gold.PLP.part.hbond>
-2.0000

> <Gold.PLP.part.metal>
0.0000

> <Gold.PLP.part.buried>
-6.9988

> <Gold.PLP.part.nonpolar>
-41.4402

> <Gold.PLP.part.repulsive>
0.2567

> <Gold.PLP.ligand.clash>
0.0000

> <Gold.PLP.ligand.torsion>
0.9907

> <Gold.PLP.Chemscore.Hbond>
2.4685

> <Gold.PLP.Chemscore.CHOScore>
0.0000

> <Gold.PLP.Chemscore.Metal>
0.0000

> <Gold.Chemscore.Hbonds>
donor molecule, donor type, donor heavy atom, donor atom, acceptor molecule, acceptor atom, score
      L1  H    15    57       P1  8028  2.00
      P1  H 10752 10765       L1    11  0.51

> <Gold.PLP.Chemscore.Internal.Correction>
0.1503

> <Gold.Rescore>
     Score         DG    S(hbond)    S(metal)    S(lipo)     H(rot)  DE(clash)    DE(int)     intcor
     16.99     -18.10       1.24        0.00     130.23       2.64       0.04       1.08       ----

> <Gold.Chemscore.Fitness>
16.9885

> <Gold.Chemscore.DG>
-18.1033

> <Gold.Chemscore.ZeroCoef>
-5.4800

> <Gold.Chemscore.Hbond>
1.2432

> <Gold.Chemscore.Metal>
0.0000

> <Gold.Chemscore.Lipo>
130.2345

> <Gold.Chemscore.Internal_Hbond>
0.0000

> <Gold.Chemscore.DEClash>
0.0358

> <Gold.Chemscore.DEInternal>
1.0790

> <Gold.Chemscore.Rot>
2.6432

> <Gold.Chemscore.Internal.Correction>
   9.000000E+99

> <Gold.Chemscore.Hbonds>
donor molecule, donor type, donor heavy atom, donor atom, acceptor molecule, acceptor atom, score
      L1  H    15    57       P1  8028  0.97
      P1  H 10752 10765       L1    11  0.20

> <Gold.Chemscore.Hbond.Weighted>
-4.1523

> <Gold.Chemscore.Metal.Weighted>
-0.0000

> <Gold.Chemscore.Lipo.Weighted>
-15.2374

> <Gold.Chemscore.Internal_Hbond.Weighted>
0.0000

> <Gold.Chemscore.DEClash.Weighted>
0.0358

> <Gold.Chemscore.DEInternal.Weighted>
1.0790

> <Gold.Chemscore.Rot.Weighted>
6.7665

> <Gold.Chemscore.Internal.Correction.Weighted>
   9.000000E+99

> <Gold.Protein.RotatedTorsions>
[ 6907 6896 6895 6894 ] final -121.26 input  -60.11 | X-H torsion
[ 7974 7965 7964 7962 ] final    8.89 input  175.53 | X-H torsion
[ 8008 7997 7996 7995 ] final  -52.15 input   59.86 | X-H torsion
[ 10167 10162 10161 10158 ] final  -17.47 input  -65.29 | X-H torsion
[ 10718 10713 10712 10709 ] final -171.67 input   66.30 | X-H torsion
[ 10763 10752 10751 10750 ] final  159.95 input  -60.55 | X-H torsion
[ 11005 11000 10999 10996 ] final -153.29 input  -57.11 | X-H torsion

> <Gold.Protein.ActiveResidues>
 VAL166  LYS551  ARG553  GLY616  TRP617  ASP618  TYR619  PRO620  LYS621  CYS622 
 ASP623  PHE694  ASN695  SER759  ASP760  ASP761  ALA762  ILE779  LEU786  VAL792 
 PHE793  MET794  SER795  GLU796  ALA797  LYS798  CYS799  TRP800  GLU811  SER814 

> <Gold.Protein.RotatedAtoms>
  150.8467  133.7851  159.3040 H   0  0  0  0  0  0  0  0  0  0  0  0  # atno 6907 bound_to 6896
  151.5535  135.1065  159.9965 H   0  0  0  0  0  0  0  0  0  0  0  0  # atno 6908 bound_to 6896
  152.4519  133.7603  159.6799 H   0  0  0  0  0  0  0  0  0  0  0  0  # atno 6909 bound_to 6896
  146.2410  139.9865  142.8430 H   0  0  0  0  0  0  0  0  0  0  0  0  # atno 7974 bound_to 7965
  154.4099  140.1231  156.4945 H   0  0  0  0  0  0  0  0  0  0  0  0  # atno 8008 bound_to 7997
  155.6957  140.3495  155.4892 H   0  0  0  0  0  0  0  0  0  0  0  0  # atno 8009 bound_to 7997
  155.9429  140.1090  157.1030 H   0  0  0  0  0  0  0  0  0  0  0  0  # atno 8010 bound_to 7997
  140.7247  143.5012  150.9867 H   0  0  0  0  0  0  0  0  0  0  0  0  # atno 10167 bound_to 10162
  156.7443  130.9354  151.3112 H   0  0  0  0  0  0  0  0  0  0  0  0  # atno 10718 bound_to 10713
  154.2397  135.2775  155.2858 H   0  0  0  0  0  0  0  0  0  0  0  0  # atno 10763 bound_to 10752
  154.5555  135.5662  153.6963 H   0  0  0  0  0  0  0  0  0  0  0  0  # atno 10764 bound_to 10752
  153.0002  135.6285  154.2541 H   0  0  0  0  0  0  0  0  0  0  0  0  # atno 10765 bound_to 10752
  140.7097  134.3846  157.5199 H   0  0  0  0  0  0  0  0  0  0  0  0  # atno 11005 bound_to 11000
  145.1543  140.9639  143.4414 LP  0  0  0  0  0  0  0  0  0  0  0  0  # atno 17320 bound_to 7965
  145.0176  139.3453  143.6089 LP  0  0  0  0  0  0  0  0  0  0  0  0  # atno 17321 bound_to 7965
  139.8721  143.7179  152.3165 LP  0  0  0  0  0  0  0  0  0  0  0  0  # atno 17342 bound_to 10162
  139.7431  144.7554  151.0621 LP  0  0  0  0  0  0  0  0  0  0  0  0  # atno 17343 bound_to 10162
  157.6805  130.9135  150.0255 LP  0  0  0  0  0  0  0  0  0  0  0  0  # atno 17370 bound_to 10713
  156.1443  130.3642  149.9534 LP  0  0  0  0  0  0  0  0  0  0  0  0  # atno 17371 bound_to 10713
  139.8875  134.8881  156.2526 LP  0  0  0  0  0  0  0  0  0  0  0  0  # atno 17394 bound_to 11000
  141.0095  133.7104  156.1088 LP  0  0  0  0  0  0  0  0  0  0  0  0  # atno 17395 bound_to 11000

$$$$
