AV-unprocessed.smi:3123|AV-procd|sdf|11900|dock2
  -GOLD-   2272017283D 1   1.00000     0.00000
 Structure written by MMmdl.
 30 31  0  0  0  0  0  0  0  0  2 V2000
  149.8138  138.4504  153.3358 N   0  3  0  0  0  0  0  0  0  0  0  0
  150.8604  138.2826  154.3566 C   0  0  0  0  0  0  0  0  0  0  0  0
  150.9005  139.4798  155.2833 C   0  0  0  0  0  0  0  0  0  0  0  0
  150.0486  140.5820  155.0693 C   0  0  0  0  0  0  0  0  0  0  0  0
  150.1294  141.6730  155.9566 C   0  0  0  0  0  0  0  0  0  0  0  0
  150.9836  141.7157  157.0008 N   0  0  0  0  0  0  0  0  0  0  0  0
  151.8016  140.6556  157.2068 C   0  0  0  0  0  0  0  0  0  0  0  0
  152.6864  140.6962  158.2934 N   0  0  0  0  0  0  0  0  0  0  0  0
  152.6578  141.9603  159.0189 C   0  0  0  0  0  0  0  0  0  0  0  0
  153.7423  141.9652  160.1106 C   0  0  0  0  0  0  0  0  0  0  0  0
  153.5616  140.8428  160.9696 O   0  0  0  0  0  0  0  0  0  0  0  0
  153.6625  139.6078  160.2659 C   0  0  0  0  0  0  0  0  0  0  0  0
  152.5755  139.5432  159.1789 C   0  0  0  0  0  0  0  0  0  0  0  0
  151.7957  139.5180  156.3719 C   0  0  0  0  0  0  0  0  0  0  0  0
  148.9644  138.7795  153.7720 H   0  0  0  0  0  0  0  0  0  0  0  0
  149.6410  137.5637  152.8845 H   0  0  0  0  0  0  0  0  0  0  0  0
  150.6663  137.3750  154.9290 H   0  0  0  0  0  0  0  0  0  0  0  0
  151.8265  138.1555  153.8670 H   0  0  0  0  0  0  0  0  0  0  0  0
  149.3478  140.5957  154.2476 H   0  0  0  0  0  0  0  0  0  0  0  0
  149.4915  142.5343  155.8235 H   0  0  0  0  0  0  0  0  0  0  0  0
  152.8191  142.7877  158.3267 H   0  0  0  0  0  0  0  0  0  0  0  0
  151.6760  142.1043  159.4725 H   0  0  0  0  0  0  0  0  0  0  0  0
  154.7396  141.9413  159.6685 H   0  0  0  0  0  0  0  0  0  0  0  0
  153.6772  142.8792  160.7010 H   0  0  0  0  0  0  0  0  0  0  0  0
  154.6571  139.5062  159.8287 H   0  0  0  0  0  0  0  0  0  0  0  0
  153.5388  138.7855  160.9707 H   0  0  0  0  0  0  0  0  0  0  0  0
  151.5889  139.5267  159.6446 H   0  0  0  0  0  0  0  0  0  0  0  0
  152.6765  138.6229  158.6020 H   0  0  0  0  0  0  0  0  0  0  0  0
  152.4639  138.6913  156.5670 H   0  0  0  0  0  0  0  0  0  0  0  0
  150.1224  139.1220  152.6475 H   0  0  0  0  0  0  0  0  0  0  0  0
  1  2  1  0  0  0  0
  1 15  1  0  0  0  0
  1 16  1  0  0  0  0
  1 30  1  0  0  0  0
  2  3  1  0  0  0  0
  2 17  1  0  0  0  0
  2 18  1  0  0  0  0
  3 14  1  0  0  0  0
  3  4  2  0  0  0  0
  4  5  1  0  0  0  0
  4 19  1  0  0  0  0
  5  6  2  0  0  0  0
  5 20  1  0  0  0  0
  6  7  1  0  0  0  0
  7  8  1  0  0  0  0
  7 14  2  0  0  0  0
  8 13  1  0  0  0  0
  8  9  1  0  0  0  0
  9 10  1  0  0  0  0
  9 21  1  0  0  0  0
  9 22  1  0  0  0  0
 10 11  1  0  0  0  0
 10 23  1  0  0  0  0
 10 24  1  0  0  0  0
 11 12  1  0  0  0  0
 12 13  1  0  0  0  0
 12 25  1  0  0  0  0
 12 26  1  0  0  0  0
 13 27  1  0  0  0  0
 13 28  1  0  0  0  0
 14 29  1  0  0  0  0
M  CHG  1   1   1
M  END
> <s_m_source_file>
AV-unprocessed.smi

> <i_m_source_file_index>
3123

> <i_lp_mmshare_version>
43012

> <i_f3d_flags>
0

> <s_epik_input>
W05IMl1bQ0gyXWMxW2NIXVtjSF1uYyhbY0hdMSlOMltDSDJdW0NIMl1PW0NIMl1bQ0gyXTI=

> <s_epik_cmdline>
J2VwaWtfcHl0aG9uJywgJy1waCcsICc3LjAnLCAnLXRuJywgJzgnLCAnLW1hJywgJzIwMCcsICctbWV0YWxfYmluZGluZycsICctaW1hZScsICc8aW5maWxlLm1hZT4nLCAnLW9tYWUnLCAnPG91dGZpbGUubWFlPic=

> <r_lp_tautomer_probability>
1

> <r_epik_Ionization_Penalty>
0.0770075

> <r_epik_Ionization_Penalty_Charging>
0.0770037

> <r_epik_Ionization_Penalty_Neutral>
3.77435e-06

> <r_epik_State_Penalty>
0.00932976

> <r_epik_Charging_Adjusted_Penalty>
0.0863335

> <i_epik_Tot_Q>
1

> <i_epik_Tot_abs_Q>
1

> <r_epik_Metal_State_Penalty>
0.00963217

> <b_epik_Metal_Only>
0

> <s_lp_Force_Field>
OPLS_2005

> <r_lp_Energy>
15.1833

> <b_lp_Chiralities_Consistent>
1

> <s_lp_Variant>
AV-unprocessed.smi:3123-1

> <Gold.Version>
5.8.1

> <Gold.Id.Protein>
6NUR|6NUR_protein|mol2

> <Gold.PLP.Fitness>
40.5227

> <Gold.PLP.PLP>
-27.9758

> <Gold.PLP.part.hbond>
-2.9583

> <Gold.PLP.part.metal>
0.0000

> <Gold.PLP.part.buried>
-2.0679

> <Gold.PLP.part.nonpolar>
-21.9826

> <Gold.PLP.part.repulsive>
0.1494

> <Gold.PLP.ligand.clash>
0.0000

> <Gold.PLP.ligand.torsion>
0.0589

> <Gold.PLP.Chemscore.Hbond>
3.1875

> <Gold.PLP.Chemscore.CHOScore>
1.0000

> <Gold.PLP.Chemscore.Metal>
0.0000

> <Gold.Chemscore.Hbonds>
donor molecule, donor type, donor heavy atom, donor atom, acceptor molecule, acceptor atom, score
      L1  H     1    16       P1  7948  2.00
      L1  H     1    30       P1  7957  0.88
      P1  H  7997  8009       L1     8  0.08
      L1  C     5    20       P1  8028  1.00

> <Gold.PLP.Chemscore.Internal.Correction>
0.1022

> <Gold.Rescore>
     Score         DG    S(hbond)    S(metal)    S(lipo)     H(rot)  DE(clash)    DE(int)     intcor
     16.57     -16.62       1.99        0.00      67.34       1.32       0.00       0.06       ----

> <Gold.Chemscore.Fitness>
16.5684

> <Gold.Chemscore.DG>
-16.6238

> <Gold.Chemscore.ZeroCoef>
-5.4800

> <Gold.Chemscore.Hbond>
1.9860

> <Gold.Chemscore.Metal>
0.0000

> <Gold.Chemscore.Lipo>
67.3416

> <Gold.Chemscore.Internal_Hbond>
0.0000

> <Gold.Chemscore.DEClash>
0.0004

> <Gold.Chemscore.DEInternal>
0.0551

> <Gold.Chemscore.Rot>
1.3158

> <Gold.Chemscore.Internal.Correction>
   9.000000E+99

> <Gold.Chemscore.Hbonds>
donor molecule, donor type, donor heavy atom, donor atom, acceptor molecule, acceptor atom, score
      L1  H     1    16       P1  7948  0.60
      L1  H     1    30       P1  7957  0.61

> <Gold.Chemscore.Hbond.Weighted>
-6.6333

> <Gold.Chemscore.Metal.Weighted>
-0.0000

> <Gold.Chemscore.Lipo.Weighted>
-7.8790

> <Gold.Chemscore.Internal_Hbond.Weighted>
0.0000

> <Gold.Chemscore.DEClash.Weighted>
0.0004

> <Gold.Chemscore.DEInternal.Weighted>
0.0551

> <Gold.Chemscore.Rot.Weighted>
3.3684

> <Gold.Chemscore.Internal.Correction.Weighted>
   9.000000E+99

> <Gold.Protein.RotatedTorsions>
[ 6907 6896 6895 6894 ] final -130.17 input  -60.11 | X-H torsion
[ 7974 7965 7964 7962 ] final   10.55 input  175.53 | X-H torsion
[ 8008 7997 7996 7995 ] final  160.77 input   59.86 | X-H torsion
[ 10167 10162 10161 10158 ] final   30.21 input  -65.29 | X-H torsion
[ 10718 10713 10712 10709 ] final   44.16 input   66.30 | X-H torsion
[ 10763 10752 10751 10750 ] final  143.22 input  -60.55 | X-H torsion
[ 11005 11000 10999 10996 ] final  -88.95 input  -57.11 | X-H torsion

> <Gold.Protein.ActiveResidues>
 VAL166  LYS551  ARG553  GLY616  TRP617  ASP618  TYR619  PRO620  LYS621  CYS622 
 ASP623  PHE694  ASN695  SER759  ASP760  ASP761  ALA762  ILE779  LEU786  VAL792 
 PHE793  MET794  SER795  GLU796  ALA797  LYS798  CYS799  TRP800  GLU811  SER814 

> <Gold.Protein.RotatedAtoms>
  150.9368  133.6703  159.2798 H   0  0  0  0  0  0  0  0  0  0  0  0  # atno 6907 bound_to 6896
  151.4106  135.0983  159.9593 H   0  0  0  0  0  0  0  0  0  0  0  0  # atno 6908 bound_to 6896
  152.5051  133.8841  159.7416 H   0  0  0  0  0  0  0  0  0  0  0  0  # atno 6909 bound_to 6896
  146.2386  139.9618  142.8457 H   0  0  0  0  0  0  0  0  0  0  0  0  # atno 7974 bound_to 7965
  156.2149  140.1795  156.7611 H   0  0  0  0  0  0  0  0  0  0  0  0  # atno 8008 bound_to 7997
  154.5777  140.0671  156.9087 H   0  0  0  0  0  0  0  0  0  0  0  0  # atno 8009 bound_to 7997
  155.2559  140.3332  155.4280 H   0  0  0  0  0  0  0  0  0  0  0  0  # atno 8010 bound_to 7997
  140.4698  144.0780  150.6234 H   0  0  0  0  0  0  0  0  0  0  0  0  # atno 10167 bound_to 10162
  157.4238  130.7984  149.7539 H   0  0  0  0  0  0  0  0  0  0  0  0  # atno 10718 bound_to 10713
  153.9688  135.2953  155.3429 H   0  0  0  0  0  0  0  0  0  0  0  0  # atno 10763 bound_to 10752
  154.7334  135.5057  153.9004 H   0  0  0  0  0  0  0  0  0  0  0  0  # atno 10764 bound_to 10752
  153.0910  135.6707  153.9966 H   0  0  0  0  0  0  0  0  0  0  0  0  # atno 10765 bound_to 10752
  141.1593  133.7601  156.9525 H   0  0  0  0  0  0  0  0  0  0  0  0  # atno 11005 bound_to 11000
  145.1764  140.9746  143.4292 LP  0  0  0  0  0  0  0  0  0  0  0  0  # atno 17320 bound_to 7965
  144.9982  139.3624  143.6181 LP  0  0  0  0  0  0  0  0  0  0  0  0  # atno 17321 bound_to 7965
  140.3991  143.2713  151.9969 LP  0  0  0  0  0  0  0  0  0  0  0  0  # atno 17342 bound_to 10162
  139.4817  144.6012  151.7601 LP  0  0  0  0  0  0  0  0  0  0  0  0  # atno 17343 bound_to 10162
  155.9889  130.3955  150.3095 LP  0  0  0  0  0  0  0  0  0  0  0  0  # atno 17370 bound_to 10713
  157.1246  131.0255  151.2995 LP  0  0  0  0  0  0  0  0  0  0  0  0  # atno 17371 bound_to 10713
  140.1247  134.9394  157.2253 LP  0  0  0  0  0  0  0  0  0  0  0  0  # atno 17394 bound_to 11000
  140.3027  134.3113  155.7285 LP  0  0  0  0  0  0  0  0  0  0  0  0  # atno 17395 bound_to 11000

$$$$
