AV-unprocessed.smi:1218|AV-procd|sdf|5108|dock9
  -GOLD-   22720 4163D 1   1.00000     0.00000
 Structure written by MMmdl.
 45 46  0  0  0  0  0  0  0  0  2 V2000
  144.1583  133.2859  150.4061 C   0  0  0  0  0  0  0  0  0  0  0  0
  144.7178  134.4074  151.2974 C   0  0  0  0  0  0  0  0  0  0  0  0
  145.2943  135.5398  150.4345 C   0  0  0  0  0  0  0  0  0  0  0  0
  145.7832  133.8831  152.2846 C   0  0  0  0  0  0  0  0  0  0  0  0
  146.4818  134.9701  153.0241 N   0  3  1  0  0  0  0  0  0  0  0  0
  145.6000  136.1105  153.3734 C   0  0  0  0  0  0  0  0  0  0  0  0
  144.7176  135.7782  154.5902 C   0  0  0  0  0  0  0  0  0  0  0  0
  145.5449  135.4108  155.6872 O   0  0  0  0  0  0  0  0  0  0  0  0
  146.3182  134.2442  155.4209 C   0  0  2  0  0  0  0  0  0  0  0  0
  147.1211  133.8935  156.6864 C   0  0  0  0  0  0  0  0  0  0  0  0
  147.1928  135.0138  157.6183 N   0  0  0  0  0  0  0  0  0  0  0  0
  148.0445  135.1023  158.6514 C   0  0  0  0  0  0  0  0  0  0  0  0
  148.8562  134.2185  158.9300 O   0  0  0  0  0  0  0  0  0  0  0  0
  147.9631  136.3870  159.4838 C   0  0  0  0  0  0  0  0  0  0  0  0
  147.5993  136.1291  160.8674 N   0  0  0  0  0  0  0  0  0  0  0  0
  147.4123  134.9138  161.4934 C   0  0  0  0  0  0  0  0  0  0  0  0
  147.0781  135.1720  162.7920 C   0  0  0  0  0  0  0  0  0  0  0  0
  147.0842  136.5932  162.8661 C   0  0  0  0  0  0  0  0  0  0  0  0
  147.3950  137.1630  161.7129 N   0  0  0  0  0  0  0  0  0  0  0  0
  147.2461  134.5253  154.2182 C   0  0  0  0  0  0  0  0  0  0  0  0
  144.9455  132.8197  149.8127 H   0  0  0  0  0  0  0  0  0  0  0  0
  143.4083  133.6726  149.7154 H   0  0  0  0  0  0  0  0  0  0  0  0
  143.6799  132.5050  150.9978 H   0  0  0  0  0  0  0  0  0  0  0  0
  143.8873  134.8357  151.8572 H   0  0  0  0  0  0  0  0  0  0  0  0
  146.1340  135.1927  149.8315 H   0  0  0  0  0  0  0  0  0  0  0  0
  145.6476  136.3654  151.0532 H   0  0  0  0  0  0  0  0  0  0  0  0
  144.5405  135.9403  149.7561 H   0  0  0  0  0  0  0  0  0  0  0  0
  145.2859  133.2242  152.9979 H   0  0  0  0  0  0  0  0  0  0  0  0
  146.5091  133.2601  151.7623 H   0  0  0  0  0  0  0  0  0  0  0  0
  146.2288  136.9701  153.6094 H   0  0  0  0  0  0  0  0  0  0  0  0
  144.9906  136.4049  152.5184 H   0  0  0  0  0  0  0  0  0  0  0  0
  144.1279  136.6501  154.8736 H   0  0  0  0  0  0  0  0  0  0  0  0
  144.0107  134.9785  154.3634 H   0  0  0  0  0  0  0  0  0  0  0  0
  145.6505  133.4148  155.1858 H   0  0  0  0  0  0  0  0  0  0  0  0
  146.6771  133.0331  157.1902 H   0  0  0  0  0  0  0  0  0  0  0  0
  148.1373  133.6029  156.4180 H   0  0  0  0  0  0  0  0  0  0  0  0
  146.5583  135.7829  157.4575 H   0  0  0  0  0  0  0  0  0  0  0  0
  148.9265  136.8983  159.4499 H   0  0  0  0  0  0  0  0  0  0  0  0
  147.2234  137.0659  159.0569 H   0  0  0  0  0  0  0  0  0  0  0  0
  147.5321  133.9776  160.9682 H   0  0  0  0  0  0  0  0  0  0  0  0
  146.8615  134.4556  163.5704 H   0  0  0  0  0  0  0  0  0  0  0  0
  146.8728  137.2235  163.7171 H   0  0  0  0  0  0  0  0  0  0  0  0
  147.8554  133.6514  153.9921 H   0  0  0  0  0  0  0  0  0  0  0  0
  147.9460  135.3194  154.4819 H   0  0  0  0  0  0  0  0  0  0  0  0
  147.1576  135.3368  152.3688 H   0  0  0  0  0  0  0  0  0  0  0  0
  1  2  1  0  0  0  0
  1 21  1  0  0  0  0
  1 22  1  0  0  0  0
  1 23  1  0  0  0  0
  2  3  1  0  0  0  0
  2  4  1  0  0  0  0
  2 24  1  0  0  0  0
  3 25  1  0  0  0  0
  3 26  1  0  0  0  0
  3 27  1  0  0  0  0
  4  5  1  0  0  0  0
  4 28  1  0  0  0  0
  4 29  1  0  0  0  0
  5 20  1  0  0  0  0
  5  6  1  0  0  0  0
  5 45  1  0  0  0  0
  6  7  1  0  0  0  0
  6 30  1  0  0  0  0
  6 31  1  0  0  0  0
  7  8  1  0  0  0  0
  7 32  1  0  0  0  0
  7 33  1  0  0  0  0
  8  9  1  0  0  0  0
  9 10  1  0  0  0  0
  9 20  1  0  0  0  0
  9 34  1  0  0  0  0
 10 11  1  0  0  0  0
 10 35  1  0  0  0  0
 10 36  1  0  0  0  0
 11 12  1  0  0  0  0
 11 37  1  0  0  0  0
 12 13  2  0  0  0  0
 12 14  1  0  0  0  0
 14 15  1  0  0  0  0
 14 38  1  0  0  0  0
 14 39  1  0  0  0  0
 15 19  1  0  0  0  0
 15 16  1  0  0  0  0
 16 17  2  0  0  0  0
 16 40  1  0  0  0  0
 17 18  1  0  0  0  0
 17 41  1  0  0  0  0
 18 19  2  0  0  0  0
 18 42  1  0  0  0  0
 20 43  1  0  0  0  0
 20 44  1  0  0  0  0
M  CHG  1   5   1
M  END
> <s_m_source_file>
AV-unprocessed.smi

> <i_m_source_file_index>
1218

> <i_lp_mmshare_version>
43012

> <i_f3d_flags>
0

> <s_epik_input>
W0NIM11bQ0hdKFtDSDNdKVtDSDJdTjFbQ0gyXVtDSDJdT1tDQEhdKFtDSDJdMSlbQ0gyXVtOSF1DKD1PKVtDSDJdbjJbY0hdW2NIXVtjSF1uMg==

> <s_epik_cmdline>
J2VwaWtfcHl0aG9uJywgJy1waCcsICc3LjAnLCAnLXRuJywgJzgnLCAnLW1hJywgJzIwMCcsICctbWV0YWxfYmluZGluZycsICctaW1hZScsICc8aW5maWxlLm1hZT4nLCAnLW9tYWUnLCAnPG91dGZpbGUubWFlPic=

> <r_lp_tautomer_probability>
1

> <r_epik_Ionization_Penalty>
0.0995066

> <r_epik_Ionization_Penalty_Charging>
0.0994921

> <r_epik_Ionization_Penalty_Neutral>
1.44634e-05

> <r_epik_State_Penalty>
0.0895432

> <r_epik_Charging_Adjusted_Penalty>
0.189035

> <i_epik_Tot_Q>
1

> <i_epik_Tot_abs_Q>
1

> <r_epik_Metal_State_Penalty>
0.0895432

> <b_epik_Metal_Only>
0

> <s_lp_Force_Field>
OPLS_2005

> <r_lp_Energy>
21.49

> <b_lp_Chiralities_Consistent>
1

> <s_lp_Variant>
AV-unprocessed.smi:1218-3

> <Gold.Version>
5.8.1

> <Gold.Id.Protein>
6NUR|6NUR_protein|mol2

> <Gold.PLP.Fitness>
43.3608

> <Gold.PLP.PLP>
-30.9876

> <Gold.PLP.part.hbond>
-4.0000

> <Gold.PLP.part.metal>
0.0000

> <Gold.PLP.part.buried>
-2.1829

> <Gold.PLP.part.nonpolar>
-24.1527

> <Gold.PLP.part.repulsive>
0.0124

> <Gold.PLP.ligand.clash>
0.0000

> <Gold.PLP.ligand.torsion>
0.9547

> <Gold.PLP.Chemscore.Hbond>
4.7200

> <Gold.PLP.Chemscore.CHOScore>
0.0000

> <Gold.PLP.Chemscore.Metal>
0.0000

> <Gold.Chemscore.Hbonds>
donor molecule, donor type, donor heavy atom, donor atom, acceptor molecule, acceptor atom, score
      L1  H     5    45       P1  7948  1.92
      P1  H  6896  6908       L1    13  1.00
      P1  H  6931  6943       L1    19  0.93
      P1  H  6934  6947       L1    19  0.83

> <Gold.PLP.Chemscore.Internal.Correction>
0.1225

> <Gold.Rescore>
     Score         DG    S(hbond)    S(metal)    S(lipo)     H(rot)  DE(clash)    DE(int)     intcor
     17.11     -19.44       3.53        0.00      61.36       1.96       0.01       2.32       ----

> <Gold.Chemscore.Fitness>
17.1129

> <Gold.Chemscore.DG>
-19.4393

> <Gold.Chemscore.ZeroCoef>
-5.4800

> <Gold.Chemscore.Hbond>
3.5342

> <Gold.Chemscore.Metal>
0.0000

> <Gold.Chemscore.Lipo>
61.3578

> <Gold.Chemscore.Internal_Hbond>
0.0000

> <Gold.Chemscore.DEClash>
0.0064

> <Gold.Chemscore.DEInternal>
2.3200

> <Gold.Chemscore.Rot>
1.9624

> <Gold.Chemscore.Internal.Correction>
   9.000000E+99

> <Gold.Chemscore.Hbonds>
donor molecule, donor type, donor heavy atom, donor atom, acceptor molecule, acceptor atom, score
      L1  H     5    45       P1  7948  0.89
      P1  H  6896  6908       L1    13  0.98
      P1  H  6931  6943       L1    19  0.54
      P1  H  6934  6947       L1    19  0.74

> <Gold.Chemscore.Hbond.Weighted>
-11.8041

> <Gold.Chemscore.Metal.Weighted>
-0.0000

> <Gold.Chemscore.Lipo.Weighted>
-7.1789

> <Gold.Chemscore.Internal_Hbond.Weighted>
0.0000

> <Gold.Chemscore.DEClash.Weighted>
0.0064

> <Gold.Chemscore.DEInternal.Weighted>
2.3200

> <Gold.Chemscore.Rot.Weighted>
5.0237

> <Gold.Chemscore.Internal.Correction.Weighted>
   9.000000E+99

> <Gold.Protein.RotatedTorsions>
[ 6907 6896 6895 6894 ] final  135.25 input  -60.11 | X-H torsion
[ 7974 7965 7964 7962 ] final  146.82 input  175.53 | X-H torsion
[ 8008 7997 7996 7995 ] final -174.30 input   59.86 | X-H torsion
[ 10167 10162 10161 10158 ] final  -55.48 input  -65.29 | X-H torsion
[ 10718 10713 10712 10709 ] final  -40.22 input   66.30 | X-H torsion
[ 10763 10752 10751 10750 ] final   37.59 input  -60.55 | X-H torsion
[ 11005 11000 10999 10996 ] final  158.59 input  -57.11 | X-H torsion

> <Gold.Protein.ActiveResidues>
 VAL166  LYS551  ARG553  GLY616  TRP617  ASP618  TYR619  PRO620  LYS621  CYS622 
 ASP623  PHE694  ASN695  SER759  ASP760  ASP761  ALA762  ILE779  LEU786  VAL792 
 PHE793  MET794  SER795  GLU796  ALA797  LYS798  CYS799  TRP800  GLU811  SER814 

> <Gold.Protein.RotatedAtoms>
  152.3024  133.5669  159.5626 H   0  0  0  0  0  0  0  0  0  0  0  0  # atno 6907 bound_to 6896
  150.7284  134.0272  159.3730 H   0  0  0  0  0  0  0  0  0  0  0  0  # atno 6908 bound_to 6896
  151.8170  135.0663  160.0471 H   0  0  0  0  0  0  0  0  0  0  0  0  # atno 6909 bound_to 6896
  144.8640  139.5952  143.5917 H   0  0  0  0  0  0  0  0  0  0  0  0  # atno 7974 bound_to 7965
  155.9683  140.1158  157.0835 H   0  0  0  0  0  0  0  0  0  0  0  0  # atno 8008 bound_to 7997
  154.4149  140.1168  156.5339 H   0  0  0  0  0  0  0  0  0  0  0  0  # atno 8009 bound_to 7997
  155.6630  140.3473  155.4792 H   0  0  0  0  0  0  0  0  0  0  0  0  # atno 8010 bound_to 7997
  140.6372  143.2488  151.5086 H   0  0  0  0  0  0  0  0  0  0  0  0  # atno 10167 bound_to 10162
  156.2838  130.4220  149.8309 H   0  0  0  0  0  0  0  0  0  0  0  0  # atno 10718 bound_to 10713
  153.0032  135.6273  154.2169 H   0  0  0  0  0  0  0  0  0  0  0  0  # atno 10763 bound_to 10752
  154.1912  135.2808  155.3023 H   0  0  0  0  0  0  0  0  0  0  0  0  # atno 10764 bound_to 10752
  154.5758  135.5662  153.7197 H   0  0  0  0  0  0  0  0  0  0  0  0  # atno 10765 bound_to 10752
  140.1880  134.8428  157.2879 H   0  0  0  0  0  0  0  0  0  0  0  0  # atno 11005 bound_to 11000
  146.2882  139.7064  142.9180 LP  0  0  0  0  0  0  0  0  0  0  0  0  # atno 17320 bound_to 7965
  145.4256  141.0410  143.2939 LP  0  0  0  0  0  0  0  0  0  0  0  0  # atno 17321 bound_to 7965
  139.5582  144.2222  152.1648 LP  0  0  0  0  0  0  0  0  0  0  0  0  # atno 17342 bound_to 10162
  140.1482  144.5139  150.6703 LP  0  0  0  0  0  0  0  0  0  0  0  0  # atno 17343 bound_to 10162
  156.5747  130.8440  151.3366 LP  0  0  0  0  0  0  0  0  0  0  0  0  # atno 17370 bound_to 10713
  157.7322  130.9712  150.1918 LP  0  0  0  0  0  0  0  0  0  0  0  0  # atno 17371 bound_to 10713
  140.2192  134.4044  155.7574 LP  0  0  0  0  0  0  0  0  0  0  0  0  # atno 17394 bound_to 11000
  141.2225  133.7157  156.8462 LP  0  0  0  0  0  0  0  0  0  0  0  0  # atno 17395 bound_to 11000

$$$$
