AV-unprocessed.smi:104|AV-procd|sdf|996|dock8
  -GOLD-   2262017573D 1   1.00000     0.00000
 Structure written by MMmdl.
 47 49  0  0  0  0  0  0  0  0  1 V2000
  154.0316  140.7125  160.0028 C   0  0  0  0  0  0  0  0  0  0  0  0
  154.1190  139.4238  159.1950 C   0  0  0  0  0  0  0  0  0  0  0  0
  155.1968  139.0008  158.7772 O   0  0  0  0  0  0  0  0  0  0  0  0
  152.9206  138.8495  159.0117 O   0  0  0  0  0  0  0  0  0  0  0  0
  152.8286  137.5879  158.3654 C   0  0  0  0  0  0  0  0  0  0  0  0
  151.3623  137.1848  158.1321 C   0  0  1  0  0  0  0  0  0  0  0  0
  150.6430  137.0170  159.3519 O   0  0  0  0  0  0  0  0  0  0  0  0
  149.3007  137.3462  159.1460 C   0  0  2  0  0  0  0  0  0  0  0  0
  148.4331  136.2092  159.5774 N   0  0  0  0  0  0  0  0  0  0  0  0
  148.2928  134.9673  159.0014 C   0  0  0  0  0  0  0  0  0  0  0  0
  149.2685  134.4502  157.4495 Br  0  0  0  0  0  0  0  0  0  0  0  0
  147.4696  134.1343  159.5739 N   0  0  0  0  0  0  0  0  0  0  0  0
  147.0024  134.8641  160.6598 C   0  0  0  0  0  0  0  0  0  0  0  0
  146.0921  134.5903  161.7119 C   0  0  0  0  0  0  0  0  0  0  0  0
  145.4448  133.4234  161.8354 N   0  0  0  0  0  0  0  0  0  0  0  0
  145.8661  135.5511  162.6379 N   0  0  0  0  0  0  0  0  0  0  0  0
  146.5000  136.7239  162.5398 C   0  0  0  0  0  0  0  0  0  0  0  0
  147.3749  137.1262  161.6142 N   0  0  0  0  0  0  0  0  0  0  0  0
  147.6007  136.1586  160.6779 C   0  0  0  0  0  0  0  0  0  0  0  0
  149.1120  137.6194  157.6539 C   0  0  1  0  0  0  0  0  0  0  0  0
  148.0788  138.5717  157.4374 O   0  0  0  0  0  0  0  0  0  0  0  0
  146.8075  138.2674  157.7424 C   0  0  0  0  0  0  0  0  0  0  0  0
  145.8349  139.3652  157.3335 C   0  0  0  0  0  0  0  0  0  0  0  0
  146.4192  137.2305  158.2799 O   0  0  0  0  0  0  0  0  0  0  0  0
  150.4986  138.1053  157.2584 C   0  0  1  0  0  0  0  0  0  0  0  0
  150.6896  139.4723  157.6177 O   0  0  0  0  0  0  0  0  0  0  0  0
  151.5416  140.2544  156.9322 C   0  0  0  0  0  0  0  0  0  0  0  0
  151.2378  141.7365  157.1063 C   0  0  0  0  0  0  0  0  0  0  0  0
  152.4757  139.8702  156.2286 O   0  0  0  0  0  0  0  0  0  0  0  0
  153.0258  141.1314  159.9573 H   0  0  0  0  0  0  0  0  0  0  0  0
  154.7294  141.4524  159.6103 H   0  0  0  0  0  0  0  0  0  0  0  0
  154.2814  140.5208  161.0464 H   0  0  0  0  0  0  0  0  0  0  0  0
  153.3486  137.6116  157.4064 H   0  0  0  0  0  0  0  0  0  0  0  0
  153.3266  136.8404  158.9838 H   0  0  0  0  0  0  0  0  0  0  0  0
  151.3726  136.2080  157.6470 H   0  0  0  0  0  0  0  0  0  0  0  0
  149.0381  138.1895  159.7846 H   0  0  0  0  0  0  0  0  0  0  0  0
  145.5965  132.6889  161.1589 H   0  0  0  0  0  0  0  0  0  0  0  0
  144.8038  133.2818  162.6025 H   0  0  0  0  0  0  0  0  0  0  0  0
  146.2727  137.4432  163.3130 H   0  0  0  0  0  0  0  0  0  0  0  0
  148.8991  136.6709  157.1570 H   0  0  0  0  0  0  0  0  0  0  0  0
  146.2492  140.3476  157.5617 H   0  0  0  0  0  0  0  0  0  0  0  0
  144.8899  139.2570  157.8665 H   0  0  0  0  0  0  0  0  0  0  0  0
  145.6369  139.3119  156.2628 H   0  0  0  0  0  0  0  0  0  0  0  0
  150.7005  137.9361  156.1999 H   0  0  0  0  0  0  0  0  0  0  0  0
  150.2789  141.8816  157.6049 H   0  0  0  0  0  0  0  0  0  0  0  0
  151.2002  142.2307  156.1354 H   0  0  0  0  0  0  0  0  0  0  0  0
  152.0139  142.2108  157.7068 H   0  0  0  0  0  0  0  0  0  0  0  0
  1  2  1  0  0  0  0
  1 30  1  0  0  0  0
  1 31  1  0  0  0  0
  1 32  1  0  0  0  0
  2  3  2  0  0  0  0
  2  4  1  0  0  0  0
  4  5  1  0  0  0  0
  5  6  1  0  0  0  0
  5 33  1  0  0  0  0
  5 34  1  0  0  0  0
  6 25  1  0  0  0  0
  6  7  1  0  0  0  0
  6 35  1  0  0  0  0
  7  8  1  0  0  0  0
  8  9  1  0  0  0  0
  8 20  1  0  0  0  0
  8 36  1  0  0  0  0
  9 19  1  0  0  0  0
  9 10  1  0  0  0  0
 10 11  1  0  0  0  0
 10 12  2  0  0  0  0
 12 13  1  0  0  0  0
 13 19  2  0  0  0  0
 13 14  1  0  0  0  0
 14 15  1  0  0  0  0
 14 16  2  0  0  0  0
 15 37  1  0  0  0  0
 15 38  1  0  0  0  0
 16 17  1  0  0  0  0
 17 18  2  0  0  0  0
 17 39  1  0  0  0  0
 18 19  1  0  0  0  0
 20 21  1  0  0  0  0
 20 25  1  0  0  0  0
 20 40  1  0  0  0  0
 21 22  1  0  0  0  0
 22 23  1  0  0  0  0
 22 24  2  0  0  0  0
 23 41  1  0  0  0  0
 23 42  1  0  0  0  0
 23 43  1  0  0  0  0
 25 26  1  0  0  0  0
 25 44  1  0  0  0  0
 26 27  1  0  0  0  0
 27 28  1  0  0  0  0
 27 29  2  0  0  0  0
 28 45  1  0  0  0  0
 28 46  1  0  0  0  0
 28 47  1  0  0  0  0
M  END
> <s_m_source_file>
AV-unprocessed.smi

> <i_m_source_file_index>
104

> <i_lp_mmshare_version>
43012

> <i_f3d_flags>
0

> <s_epik_input>
W0NIM11DKD1PKU9bQ0gyXVtDQEBIXTFPW0NASF0oW0NAQEhdKE9DKD1PKVtDSDNdKVtDQEhdMU9DKD1PKVtDSDNdKW4oYyhCciluMiljKGMyMyluW2NIXW5jM1tOSDJd

> <s_epik_cmdline>
J2VwaWtfcHl0aG9uJywgJy1waCcsICc3LjAnLCAnLXRuJywgJzgnLCAnLW1hJywgJzIwMCcsICctbWV0YWxfYmluZGluZycsICctaW1hZScsICc8aW5maWxlLm1hZT4nLCAnLW9tYWUnLCAnPG91dGZpbGUubWFlPic=

> <r_lp_tautomer_probability>
1

> <r_epik_Ionization_Penalty>
7.36622e-05

> <r_epik_Ionization_Penalty_Charging>
0

> <r_epik_Ionization_Penalty_Neutral>
7.36622e-05

> <r_epik_State_Penalty>
-0

> <r_epik_Charging_Adjusted_Penalty>
0

> <i_epik_Tot_Q>
0

> <i_epik_Tot_abs_Q>
0

> <r_epik_Metal_State_Penalty>
-0

> <b_epik_Metal_Only>
0

> <s_epik_Chemistry_Notes>
This compound has an ester and may undergo hydrolysis at high or low pH. This compound contains an acetal/aminal-like group ( X-CH(R)-Y where X, Y are N, S, or O) that may be acid/base labile, releasing an aldehyde.

> <s_lp_Force_Field>
OPLS_2005

> <r_lp_Energy>
19.7206

> <b_lp_Chiralities_Consistent>
1

> <s_lp_Variant>
AV-unprocessed.smi:104-4

> <Gold.Version>
5.8.1

> <Gold.Id.Protein>
6NUR|6NUR_protein|mol2

> <Gold.PLP.Fitness>
43.3550

> <Gold.PLP.PLP>
-30.9066

> <Gold.PLP.part.hbond>
-4.9812

> <Gold.PLP.part.metal>
0.0000

> <Gold.PLP.part.buried>
-5.2023

> <Gold.PLP.part.nonpolar>
-20.9295

> <Gold.PLP.part.repulsive>
0.0467

> <Gold.PLP.ligand.clash>
0.0000

> <Gold.PLP.ligand.torsion>
0.9939

> <Gold.PLP.Chemscore.Hbond>
4.7124

> <Gold.PLP.Chemscore.CHOScore>
0.0000

> <Gold.PLP.Chemscore.Metal>
0.0000

> <Gold.Chemscore.Hbonds>
donor molecule, donor type, donor heavy atom, donor atom, acceptor molecule, acceptor atom, score
      P1  H  6896  6908       L1     7  0.88
      P1  H  6931  6943       L1    18  0.94
      P1  H  6934  6947       L1    18  0.88
      P1  H  7997  8008       L1    29  1.00
      P1  H  7997  8010       L1     3  1.00

> <Gold.PLP.Chemscore.Internal.Correction>
0.2990

> <Gold.Rescore>
     Score         DG    S(hbond)    S(metal)    S(lipo)     H(rot)  DE(clash)    DE(int)     intcor
      9.26     -12.03       4.04        0.00      34.86       4.31       0.03       2.73       ----

> <Gold.Chemscore.Fitness>
9.2641

> <Gold.Chemscore.DG>
-12.0314

> <Gold.Chemscore.ZeroCoef>
-5.4800

> <Gold.Chemscore.Hbond>
4.0415

> <Gold.Chemscore.Metal>
0.0000

> <Gold.Chemscore.Lipo>
34.8614

> <Gold.Chemscore.Internal_Hbond>
0.0000

> <Gold.Chemscore.DEClash>
0.0330

> <Gold.Chemscore.DEInternal>
2.7343

> <Gold.Chemscore.Rot>
4.3070

> <Gold.Chemscore.Internal.Correction>
   9.000000E+99

> <Gold.Chemscore.Hbonds>
donor molecule, donor type, donor heavy atom, donor atom, acceptor molecule, acceptor atom, score
      P1  H  6896  6908       L1     7  0.27
      P1  H  6931  6943       L1    18  0.70
      P1  H  6934  6947       L1    18  0.73
      P1  H  7997  8008       L1    29  0.99
      P1  H  7997  8010       L1     3  0.48

> <Gold.Chemscore.Hbond.Weighted>
-13.4985

> <Gold.Chemscore.Metal.Weighted>
-0.0000

> <Gold.Chemscore.Lipo.Weighted>
-4.0788

> <Gold.Chemscore.Internal_Hbond.Weighted>
0.0000

> <Gold.Chemscore.DEClash.Weighted>
0.0330

> <Gold.Chemscore.DEInternal.Weighted>
2.7343

> <Gold.Chemscore.Rot.Weighted>
11.0259

> <Gold.Chemscore.Internal.Correction.Weighted>
   9.000000E+99

> <Gold.Protein.RotatedTorsions>
[ 6907 6896 6895 6894 ] final -156.09 input  -60.11 | X-H torsion
[ 7974 7965 7964 7962 ] final  165.21 input  175.53 | X-H torsion
[ 8008 7997 7996 7995 ] final  -29.15 input   59.86 | X-H torsion
[ 10167 10162 10161 10158 ] final  100.56 input  -65.29 | X-H torsion
[ 10718 10713 10712 10709 ] final   34.95 input   66.30 | X-H torsion
[ 10763 10752 10751 10750 ] final   41.74 input  -60.55 | X-H torsion
[ 11005 11000 10999 10996 ] final -130.68 input  -57.11 | X-H torsion

> <Gold.Protein.ActiveResidues>
 VAL166  LYS551  ARG553  GLY616  TRP617  ASP618  TYR619  PRO620  LYS621  CYS622 
 ASP623  PHE694  ASN695  SER759  ASP760  ASP761  ALA762  ILE779  LEU786  VAL792 
 PHE793  MET794  SER795  GLU796  ALA797  LYS798  CYS799  TRP800  GLU811  SER814 

> <Gold.Protein.RotatedAtoms>
  151.2824  133.4203  159.2627 H   0  0  0  0  0  0  0  0  0  0  0  0  # atno 6907 bound_to 6896
  151.0349  134.9566  159.8141 H   0  0  0  0  0  0  0  0  0  0  0  0  # atno 6908 bound_to 6896
  152.5353  134.2784  159.9050 H   0  0  0  0  0  0  0  0  0  0  0  0  # atno 6909 bound_to 6896
  144.7512  139.8438  143.6365 H   0  0  0  0  0  0  0  0  0  0  0  0  # atno 7974 bound_to 7965
  154.4302  140.1826  156.1203 H   0  0  0  0  0  0  0  0  0  0  0  0  # atno 8008 bound_to 7997
  156.0148  140.3347  155.6952 H   0  0  0  0  0  0  0  0  0  0  0  0  # atno 8009 bound_to 7997
  155.6060  140.0645  157.2710 H   0  0  0  0  0  0  0  0  0  0  0  0  # atno 8010 bound_to 7997
  139.7516  144.6982  151.0423 H   0  0  0  0  0  0  0  0  0  0  0  0  # atno 10167 bound_to 10162
  157.3166  130.7426  149.6758 H   0  0  0  0  0  0  0  0  0  0  0  0  # atno 10718 bound_to 10713
  152.9900  135.6153  154.2836 H   0  0  0  0  0  0  0  0  0  0  0  0  # atno 10763 bound_to 10752
  154.2564  135.2783  155.2797 H   0  0  0  0  0  0  0  0  0  0  0  0  # atno 10764 bound_to 10752
  154.5244  135.5806  153.6764 H   0  0  0  0  0  0  0  0  0  0  0  0  # atno 10765 bound_to 10752
  140.9325  134.1301  157.4222 H   0  0  0  0  0  0  0  0  0  0  0  0  # atno 11005 bound_to 11000
  146.1464  139.4535  143.0076 LP  0  0  0  0  0  0  0  0  0  0  0  0  # atno 17320 bound_to 7965
  145.6938  141.0156  143.1541 LP  0  0  0  0  0  0  0  0  0  0  0  0  # atno 17321 bound_to 7965
  140.7798  143.4802  151.0028 LP  0  0  0  0  0  0  0  0  0  0  0  0  # atno 17342 bound_to 10162
  139.8489  143.7464  152.3178 LP  0  0  0  0  0  0  0  0  0  0  0  0  # atno 17343 bound_to 10162
  155.9682  130.4235  150.4567 LP  0  0  0  0  0  0  0  0  0  0  0  0  # atno 17370 bound_to 10713
  157.2575  131.0560  151.2341 LP  0  0  0  0  0  0  0  0  0  0  0  0  # atno 17371 bound_to 10713
  139.8800  135.0010  156.6040 LP  0  0  0  0  0  0  0  0  0  0  0  0  # atno 17394 bound_to 11000
  140.7844  133.8634  155.8594 LP  0  0  0  0  0  0  0  0  0  0  0  0  # atno 17395 bound_to 11000

$$$$
