AV-unprocessed.smi:1695|AV-procd|sdf|6789|dock1
  -GOLD-   22720 7553D 1   1.00000     0.00000
 Structure written by MMmdl.
 51 53  0  0  0  0  0  0  0  0  2 V2000
  153.0761  142.8392  161.4182 C   0  0  0  0  0  0  0  0  0  0  0  0
  152.4562  142.5476  160.0630 C   0  0  0  0  0  0  0  0  0  0  0  0
  152.5694  141.2475  159.5212 C   0  0  0  0  0  0  0  0  0  0  0  0
  152.0076  140.9351  158.2642 C   0  0  0  0  0  0  0  0  0  0  0  0
  151.9944  139.7459  157.5558 N   0  0  0  0  0  0  0  0  0  0  0  0
  151.3173  140.0907  156.4647 C   0  0  0  0  0  0  0  0  0  0  0  0
  150.8838  141.3634  156.3847 N   0  0  0  0  0  0  0  0  0  0  0  0
  150.1197  141.9566  155.3028 C   0  0  0  0  0  0  0  0  0  0  0  0
  149.1038  140.9722  154.6918 C   0  0  2  0  0  0  0  0  0  0  0  0
  149.5162  140.6921  153.3695 O   0  0  0  0  0  0  0  0  0  0  0  0
  147.6587  141.5175  154.6565 C   0  0  0  0  0  0  0  0  0  0  0  0
  147.2983  142.2539  155.8950 N   0  3  1  0  0  0  0  0  0  0  0  0
  145.8605  142.6286  155.9544 C   0  0  0  0  0  0  0  0  0  0  0  0
  145.5611  143.5008  157.1889 C   0  0  0  0  0  0  0  0  0  0  0  0
  146.0113  142.8547  158.5165 C   0  0  1  0  0  0  0  0  0  0  0  0
  145.0608  141.7387  158.9899 C   0  0  0  0  0  0  0  0  0  0  0  0
  144.0411  141.4293  158.1850 N   0  0  0  0  0  0  0  0  0  0  0  0
  145.2356  141.1619  160.0611 O   0  0  0  0  0  0  0  0  0  0  0  0
  147.4736  142.3782  158.3847 C   0  0  0  0  0  0  0  0  0  0  0  0
  147.7283  141.5343  157.1206 C   0  0  0  0  0  0  0  0  0  0  0  0
  151.3240  141.9677  157.5579 C   0  0  0  0  0  0  0  0  0  0  0  0
  151.2047  143.2654  158.0862 C   0  0  0  0  0  0  0  0  0  0  0  0
  151.7717  143.5601  159.3437 C   0  0  0  0  0  0  0  0  0  0  0  0
  151.6378  144.9639  159.9064 C   0  0  0  0  0  0  0  0  0  0  0  0
  153.5518  141.9524  161.8379 H   0  0  0  0  0  0  0  0  0  0  0  0
  152.3153  143.1754  162.1229 H   0  0  0  0  0  0  0  0  0  0  0  0
  153.8358  143.6163  161.3313 H   0  0  0  0  0  0  0  0  0  0  0  0
  153.0902  140.4759  160.0692 H   0  0  0  0  0  0  0  0  0  0  0  0
  151.1189  139.3753  155.6800 H   0  0  0  0  0  0  0  0  0  0  0  0
  149.6140  142.8465  155.6799 H   0  0  0  0  0  0  0  0  0  0  0  0
  150.8214  142.2977  154.5399 H   0  0  0  0  0  0  0  0  0  0  0  0
  149.1465  140.0422  155.2583 H   0  0  0  0  0  0  0  0  0  0  0  0
  149.5192  139.7550  153.2447 H   0  0  0  0  0  0  0  0  0  0  0  0
  147.5054  142.1809  153.8048 H   0  0  0  0  0  0  0  0  0  0  0  0
  146.9785  140.6772  154.5085 H   0  0  0  0  0  0  0  0  0  0  0  0
  145.5795  143.1852  155.0613 H   0  0  0  0  0  0  0  0  0  0  0  0
  145.2447  141.7287  155.9565 H   0  0  0  0  0  0  0  0  0  0  0  0
  146.0687  144.4595  157.0737 H   0  0  0  0  0  0  0  0  0  0  0  0
  144.4957  143.7328  157.2240 H   0  0  0  0  0  0  0  0  0  0  0  0
  145.9899  143.6328  159.2818 H   0  0  0  0  0  0  0  0  0  0  0  0
  143.3887  140.7048  158.4479 H   0  0  0  0  0  0  0  0  0  0  0  0
  143.9254  141.9232  157.3115 H   0  0  0  0  0  0  0  0  0  0  0  0
  148.1270  143.2514  158.3629 H   0  0  0  0  0  0  0  0  0  0  0  0
  147.7676  141.8110  159.2693 H   0  0  0  0  0  0  0  0  0  0  0  0
  147.2188  140.5723  157.1805 H   0  0  0  0  0  0  0  0  0  0  0  0
  148.7948  141.3145  157.0574 H   0  0  0  0  0  0  0  0  0  0  0  0
  150.6809  144.0281  157.5296 H   0  0  0  0  0  0  0  0  0  0  0  0
  151.0901  145.6156  159.2250 H   0  0  0  0  0  0  0  0  0  0  0  0
  152.6212  145.4046  160.0723 H   0  0  0  0  0  0  0  0  0  0  0  0
  151.1015  144.9457  160.8554 H   0  0  0  0  0  0  0  0  0  0  0  0
  147.8277  143.1141  155.8745 H   0  0  0  0  0  0  0  0  0  0  0  0
  1  2  1  0  0  0  0
  1 25  1  0  0  0  0
  1 26  1  0  0  0  0
  1 27  1  0  0  0  0
  2 23  1  0  0  0  0
  2  3  2  0  0  0  0
  3  4  1  0  0  0  0
  3 28  1  0  0  0  0
  4 21  2  0  0  0  0
  4  5  1  0  0  0  0
  5  6  2  0  0  0  0
  6  7  1  0  0  0  0
  6 29  1  0  0  0  0
  7  8  1  0  0  0  0
  7 21  1  0  0  0  0
  8  9  1  0  0  0  0
  8 30  1  0  0  0  0
  8 31  1  0  0  0  0
  9 10  1  0  0  0  0
  9 11  1  0  0  0  0
  9 32  1  0  0  0  0
 10 33  1  0  0  0  0
 11 12  1  0  0  0  0
 11 34  1  0  0  0  0
 11 35  1  0  0  0  0
 12 20  1  0  0  0  0
 12 13  1  0  0  0  0
 12 51  1  0  0  0  0
 13 14  1  0  0  0  0
 13 36  1  0  0  0  0
 13 37  1  0  0  0  0
 14 15  1  0  0  0  0
 14 38  1  0  0  0  0
 14 39  1  0  0  0  0
 15 16  1  0  0  0  0
 15 19  1  0  0  0  0
 15 40  1  0  0  0  0
 16 17  1  0  0  0  0
 16 18  2  0  0  0  0
 17 41  1  0  0  0  0
 17 42  1  0  0  0  0
 19 20  1  0  0  0  0
 19 43  1  0  0  0  0
 19 44  1  0  0  0  0
 20 45  1  0  0  0  0
 20 46  1  0  0  0  0
 21 22  1  0  0  0  0
 22 23  2  0  0  0  0
 22 47  1  0  0  0  0
 23 24  1  0  0  0  0
 24 48  1  0  0  0  0
 24 49  1  0  0  0  0
 24 50  1  0  0  0  0
M  CHG  1  12   1
M  END
> <s_m_source_file>
AV-unprocessed.smi

> <i_m_source_file_index>
1695

> <i_lp_mmshare_version>
43012

> <i_f3d_flags>
0

> <s_epik_input>
W0NIM11jKFtjSF0xKWMoW0NIM10pW2NIXWMoYzEyKW4oW2NIXW4yKVtDSDJdW0NASF0oW09IXSlbQ0gyXU4zW0NIMl1bQ0gyXVtDSF0oQyg9TylbTkgyXSlbQ0gyXVtDSDJdMw==

> <s_epik_cmdline>
J2VwaWtfcHl0aG9uJywgJy1waCcsICc3LjAnLCAnLXRuJywgJzgnLCAnLW1hJywgJzIwMCcsICctbWV0YWxfYmluZGluZycsICctaW1hZScsICc8aW5maWxlLm1hZT4nLCAnLW9tYWUnLCAnPG91dGZpbGUubWFlPic=

> <r_epik_Ionization_Penalty>
0.113899

> <r_epik_Ionization_Penalty_Charging>
0.0258844

> <r_epik_Ionization_Penalty_Neutral>
0.0880147

> <r_epik_State_Penalty>
0.0974403

> <r_epik_Charging_Adjusted_Penalty>
0.123325

> <i_epik_Tot_Q>
1

> <i_epik_Tot_abs_Q>
1

> <r_epik_Metal_State_Penalty>
0.0851148

> <b_epik_Metal_Only>
0

> <s_lp_Force_Field>
OPLS_2005

> <r_lp_Energy>
17.7393

> <b_lp_Chiralities_Consistent>
1

> <s_lp_Variant>
AV-unprocessed.smi:1695-1

> <Gold.Version>
5.8.1

> <Gold.Id.Protein>
6NUR|6NUR_protein|mol2

> <Gold.PLP.Fitness>
55.9721

> <Gold.PLP.PLP>
-45.6865

> <Gold.PLP.part.hbond>
-4.2633

> <Gold.PLP.part.metal>
0.0000

> <Gold.PLP.part.buried>
-4.7964

> <Gold.PLP.part.nonpolar>
-35.8956

> <Gold.PLP.part.repulsive>
0.0496

> <Gold.PLP.ligand.clash>
0.0000

> <Gold.PLP.ligand.torsion>
1.3182

> <Gold.PLP.Chemscore.Hbond>
4.1740

> <Gold.PLP.Chemscore.CHOScore>
0.0000

> <Gold.PLP.Chemscore.Metal>
0.0000

> <Gold.Chemscore.Hbonds>
donor molecule, donor type, donor heavy atom, donor atom, acceptor molecule, acceptor atom, score
      L1  H    12    51       P1  8028  2.00
      P1  H  6934  6946       L1    18  0.82
      P1  H  7989  7998       L1    10  0.23
      P1  H  8011  8017       L1    10  1.00

> <Gold.PLP.Chemscore.Internal.Correction>
0.4001

> <Gold.Rescore>
     Score         DG    S(hbond)    S(metal)    S(lipo)     H(rot)  DE(clash)    DE(int)     intcor
     15.23     -18.44       2.21        0.00     109.99       2.85       1.05       2.16       ----

> <Gold.Chemscore.Fitness>
15.2311

> <Gold.Chemscore.DG>
-18.4390

> <Gold.Chemscore.ZeroCoef>
-5.4800

> <Gold.Chemscore.Hbond>
2.2087

> <Gold.Chemscore.Metal>
0.0000

> <Gold.Chemscore.Lipo>
109.9886

> <Gold.Chemscore.Internal_Hbond>
0.0000

> <Gold.Chemscore.DEClash>
1.0460

> <Gold.Chemscore.DEInternal>
2.1618

> <Gold.Chemscore.Rot>
2.8464

> <Gold.Chemscore.Internal.Correction>
   9.000000E+99

> <Gold.Chemscore.Hbonds>
donor molecule, donor type, donor heavy atom, donor atom, acceptor molecule, acceptor atom, score
      L1  H    12    51       P1  8028  0.40
      P1  H  6934  6946       L1    18  0.81
      P1  H  7989  7998       L1    10  0.02
      P1  H  8011  8017       L1    10  0.73

> <Gold.Chemscore.Hbond.Weighted>
-7.3770

> <Gold.Chemscore.Metal.Weighted>
-0.0000

> <Gold.Chemscore.Lipo.Weighted>
-12.8687

> <Gold.Chemscore.Internal_Hbond.Weighted>
0.0000

> <Gold.Chemscore.DEClash.Weighted>
1.0460

> <Gold.Chemscore.DEInternal.Weighted>
2.1618

> <Gold.Chemscore.Rot.Weighted>
7.2867

> <Gold.Chemscore.Internal.Correction.Weighted>
   9.000000E+99

> <Gold.Protein.RotatedTorsions>
[ 6907 6896 6895 6894 ] final  173.35 input  -60.11 | X-H torsion
[ 7974 7965 7964 7962 ] final -159.07 input  175.53 | X-H torsion
[ 8008 7997 7996 7995 ] final  -55.60 input   59.86 | X-H torsion
[ 10167 10162 10161 10158 ] final  -68.39 input  -65.29 | X-H torsion
[ 10718 10713 10712 10709 ] final  -95.01 input   66.30 | X-H torsion
[ 10763 10752 10751 10750 ] final  127.27 input  -60.55 | X-H torsion
[ 11005 11000 10999 10996 ] final  -62.10 input  -57.11 | X-H torsion

> <Gold.Protein.ActiveResidues>
 VAL166  LYS551  ARG553  GLY616  TRP617  ASP618  TYR619  PRO620  LYS621  CYS622 
 ASP623  PHE694  ASN695  SER759  ASP760  ASP761  ALA762  ILE779  LEU786  VAL792 
 PHE793  MET794  SER795  GLU796  ALA797  LYS798  CYS799  TRP800  GLU811  SER814 

> <Gold.Protein.RotatedAtoms>
  151.7697  133.3340  159.3440 H   0  0  0  0  0  0  0  0  0  0  0  0  # atno 6907 bound_to 6896
  150.7466  134.6030  159.6056 H   0  0  0  0  0  0  0  0  0  0  0  0  # atno 6908 bound_to 6896
  152.3349  134.7212  160.0331 H   0  0  0  0  0  0  0  0  0  0  0  0  # atno 6909 bound_to 6896
  144.7480  140.3737  143.6070 H   0  0  0  0  0  0  0  0  0  0  0  0  # atno 7974 bound_to 7965
  154.4200  140.1149  156.5502 H   0  0  0  0  0  0  0  0  0  0  0  0  # atno 8008 bound_to 7997
  155.6418  140.3496  155.4698 H   0  0  0  0  0  0  0  0  0  0  0  0  # atno 8009 bound_to 7997
  155.9865  140.1170  157.0668 H   0  0  0  0  0  0  0  0  0  0  0  0  # atno 8010 bound_to 7997
  140.5511  143.2312  151.6909 H   0  0  0  0  0  0  0  0  0  0  0  0  # atno 10167 bound_to 10162
  156.0036  130.5091  150.6013 H   0  0  0  0  0  0  0  0  0  0  0  0  # atno 10718 bound_to 10713
  153.7066  135.3275  155.3237 H   0  0  0  0  0  0  0  0  0  0  0  0  # atno 10763 bound_to 10752
  154.8397  135.4467  154.1356 H   0  0  0  0  0  0  0  0  0  0  0  0  # atno 10764 bound_to 10752
  153.2438  135.6974  153.7832 H   0  0  0  0  0  0  0  0  0  0  0  0  # atno 10765 bound_to 10752
  141.1348  133.6636  156.5476 H   0  0  0  0  0  0  0  0  0  0  0  0  # atno 11005 bound_to 11000
  145.7050  139.1670  143.2571 LP  0  0  0  0  0  0  0  0  0  0  0  0  # atno 17320 bound_to 7965
  146.1388  140.7086  142.9377 LP  0  0  0  0  0  0  0  0  0  0  0  0  # atno 17321 bound_to 7965
  139.5028  144.3816  152.0370 LP  0  0  0  0  0  0  0  0  0  0  0  0  # atno 17342 bound_to 10162
  140.2933  144.3729  150.6082 LP  0  0  0  0  0  0  0  0  0  0  0  0  # atno 17343 bound_to 10162
  157.3861  131.0788  151.1434 LP  0  0  0  0  0  0  0  0  0  0  0  0  # atno 17370 bound_to 10713
  157.2141  130.6451  149.5785 LP  0  0  0  0  0  0  0  0  0  0  0  0  # atno 17371 bound_to 10713
  140.4089  134.7290  157.4824 LP  0  0  0  0  0  0  0  0  0  0  0  0  # atno 17394 bound_to 11000
  140.0441  134.6224  155.8943 LP  0  0  0  0  0  0  0  0  0  0  0  0  # atno 17395 bound_to 11000

$$$$
