AV-unprocessed.smi:2083|AV-procd|sdf|8505|dock9
  -GOLD-   2272011213D 1   1.00000     0.00000
 Structure written by MMmdl.
 44 45  0  0  0  0  0  0  0  0  3 V2000
  151.4432  141.0612  155.7684 C   0  0  0  0  0  0  0  0  0  0  0  0
  151.7503  139.6626  155.3544 C   0  0  0  0  0  0  0  0  0  0  0  0
  151.0163  138.5106  155.3625 C   0  0  0  0  0  0  0  0  0  0  0  0
  151.9198  137.5459  154.8389 C   0  0  0  0  0  0  0  0  0  0  0  0
  151.6556  136.2457  154.6376 N   0  5  0  0  0  0  0  0  0  0  0  0
  150.5745  135.6735  155.2135 C   0  0  0  0  0  0  0  0  0  0  0  0
  150.5132  135.2030  156.3519 O   0  0  0  0  0  0  0  0  0  0  0  0
  149.4918  135.6518  154.4232 N   0  0  0  0  0  0  0  0  0  0  0  0
  148.1808  135.1224  154.7873 C   0  0  0  0  0  0  0  0  0  0  0  0
  147.8085  133.8378  153.9945 C   0  0  1  0  0  0  0  0  0  0  0  0
  146.9325  132.9064  154.8618 C   0  0  0  0  0  0  0  0  0  0  0  0
  147.1277  134.0918  152.6824 N   0  3  2  0  0  0  0  0  0  0  0  0
  145.9693  135.0183  152.8304 C   0  0  0  0  0  0  0  0  0  0  0  0
  145.4070  135.4445  151.4668 C   0  0  0  0  0  0  0  0  0  0  0  0
  144.9859  134.2200  150.6497 C   0  0  0  0  0  0  0  0  0  0  0  0
  146.1699  133.2519  150.5110 C   0  0  2  0  0  0  0  0  0  0  0  0
  145.7765  131.9991  149.7152 C   0  0  0  0  0  0  0  0  0  0  0  0
  146.7394  132.8830  151.8972 C   0  0  0  0  0  0  0  0  0  0  0  0
  153.0929  138.0695  154.5247 N   0  0  0  0  0  0  0  0  0  0  0  0
  152.9944  139.4258  154.8578 O   0  0  0  0  0  0  0  0  0  0  0  0
  150.6871  141.4988  155.1164 H   0  0  0  0  0  0  0  0  0  0  0  0
  152.3332  141.6893  155.7239 H   0  0  0  0  0  0  0  0  0  0  0  0
  151.0645  141.0860  156.7901 H   0  0  0  0  0  0  0  0  0  0  0  0
  149.9972  138.3773  155.6927 H   0  0  0  0  0  0  0  0  0  0  0  0
  149.5877  136.0420  153.4969 H   0  0  0  0  0  0  0  0  0  0  0  0
  148.1943  134.9147  155.8577 H   0  0  0  0  0  0  0  0  0  0  0  0
  147.4516  135.9179  154.6276 H   0  0  0  0  0  0  0  0  0  0  0  0
  148.7430  133.3187  153.7760 H   0  0  0  0  0  0  0  0  0  0  0  0
  147.4323  132.6310  155.7903 H   0  0  0  0  0  0  0  0  0  0  0  0
  146.6908  131.9716  154.3588 H   0  0  0  0  0  0  0  0  0  0  0  0
  145.9914  133.3894  155.1264 H   0  0  0  0  0  0  0  0  0  0  0  0
  145.1887  134.5307  153.4171 H   0  0  0  0  0  0  0  0  0  0  0  0
  146.2549  135.9131  153.3811 H   0  0  0  0  0  0  0  0  0  0  0  0
  144.5532  136.1080  151.6075 H   0  0  0  0  0  0  0  0  0  0  0  0
  146.1580  136.0162  150.9198 H   0  0  0  0  0  0  0  0  0  0  0  0
  144.1486  133.7204  151.1394 H   0  0  0  0  0  0  0  0  0  0  0  0
  144.6327  134.5325  149.6662 H   0  0  0  0  0  0  0  0  0  0  0  0
  146.9561  133.7611  149.9513 H   0  0  0  0  0  0  0  0  0  0  0  0
  144.9918  131.4369  150.2227 H   0  0  0  0  0  0  0  0  0  0  0  0
  146.6298  131.3334  149.5825 H   0  0  0  0  0  0  0  0  0  0  0  0
  145.4087  132.2632  148.7232 H   0  0  0  0  0  0  0  0  0  0  0  0
  147.6079  132.2490  151.7222 H   0  0  0  0  0  0  0  0  0  0  0  0
  146.0155  132.2960  152.4650 H   0  0  0  0  0  0  0  0  0  0  0  0
  147.8106  134.5698  152.1126 H   0  0  0  0  0  0  0  0  0  0  0  0
  1  2  1  0  0  0  0
  1 21  1  0  0  0  0
  1 22  1  0  0  0  0
  1 23  1  0  0  0  0
  2 20  1  0  0  0  0
  2  3  2  0  0  0  0
  3  4  1  0  0  0  0
  3 24  1  0  0  0  0
  4  5  1  0  0  0  0
  4 19  2  0  0  0  0
  5  6  1  0  0  0  0
  6  7  2  0  0  0  0
  6  8  1  0  0  0  0
  8  9  1  0  0  0  0
  8 25  1  0  0  0  0
  9 10  1  0  0  0  0
  9 26  1  0  0  0  0
  9 27  1  0  0  0  0
 10 11  1  0  0  0  0
 10 12  1  0  0  0  0
 10 28  1  0  0  0  0
 11 29  1  0  0  0  0
 11 30  1  0  0  0  0
 11 31  1  0  0  0  0
 12 18  1  0  0  0  0
 12 13  1  0  0  0  0
 12 44  1  0  0  0  0
 13 14  1  0  0  0  0
 13 32  1  0  0  0  0
 13 33  1  0  0  0  0
 14 15  1  0  0  0  0
 14 34  1  0  0  0  0
 14 35  1  0  0  0  0
 15 16  1  0  0  0  0
 15 36  1  0  0  0  0
 15 37  1  0  0  0  0
 16 17  1  0  0  0  0
 16 18  1  0  0  0  0
 16 38  1  0  0  0  0
 17 39  1  0  0  0  0
 17 40  1  0  0  0  0
 17 41  1  0  0  0  0
 18 42  1  0  0  0  0
 18 43  1  0  0  0  0
 19 20  1  0  0  0  0
M  CHG  1   5  -1
M  CHG  1  12   1
M  END
> <s_m_source_file>
AV-unprocessed.smi

> <i_m_source_file_index>
2083

> <i_lp_mmshare_version>
43012

> <i_f3d_flags>
0

> <s_epik_input>
W0NIM11jMVtjSF1jKG5vMSlbTkhdQyg9TylbTkhdW0NIMl1bQ0BIXShbQ0gzXSlOMltDSDJdW0NIMl1bQ0gyXVtDQEBIXShbQ0gzXSlbQ0gyXTI=

> <s_epik_cmdline>
J2VwaWtfcHl0aG9uJywgJy1waCcsICc3LjAnLCAnLXRuJywgJzgnLCAnLW1hJywgJzIwMCcsICctbWV0YWxfYmluZGluZycsICctaW1hZScsICc8aW5maWxlLm1hZT4nLCAnLW9tYWUnLCAnPG91dGZpbGUubWFlPic=

> <r_epik_Ionization_Penalty>
6.22434

> <r_epik_Ionization_Penalty_Charging>
6.22425

> <r_epik_Ionization_Penalty_Neutral>
9.62407e-05

> <r_epik_State_Penalty>
6.22423

> <r_epik_Charging_Adjusted_Penalty>
12.4485

> <i_epik_Tot_Q>
0

> <i_epik_Tot_abs_Q>
2

> <r_epik_Metal_State_Penalty>
2.16764

> <b_epik_Metal_Only>
1

> <s_lp_Force_Field>
OPLS_2005

> <r_lp_Energy>
9.644

> <b_lp_Chiralities_Consistent>
1

> <s_lp_Variant>
AV-unprocessed.smi:2083-16

> <Gold.Version>
5.8.1

> <Gold.Id.Protein>
6NUR|6NUR_protein|mol2

> <Gold.PLP.Fitness>
50.8348

> <Gold.PLP.PLP>
-35.2651

> <Gold.PLP.part.hbond>
-5.4936

> <Gold.PLP.part.metal>
0.0000

> <Gold.PLP.part.buried>
-3.9536

> <Gold.PLP.part.nonpolar>
-25.6897

> <Gold.PLP.part.repulsive>
0.2392

> <Gold.PLP.ligand.clash>
0.0000

> <Gold.PLP.ligand.torsion>
1.2681

> <Gold.PLP.Chemscore.Hbond>
6.0000

> <Gold.PLP.Chemscore.CHOScore>
0.0000

> <Gold.PLP.Chemscore.Metal>
0.0000

> <Gold.Chemscore.Hbonds>
donor molecule, donor type, donor heavy atom, donor atom, acceptor molecule, acceptor atom, score
      L1  H     8    25       P1  7948  1.00
      L1  H    12    44       P1  7948  1.95
      P1  H  7997  8008       L1    20  1.00
      P1  H 10752 10764       L1     5  1.84

> <Gold.PLP.Chemscore.Internal.Correction>
0.1058

> <Gold.Rescore>
     Score         DG    S(hbond)    S(metal)    S(lipo)     H(rot)  DE(clash)    DE(int)     intcor
     18.04     -19.58       3.20        0.00      62.34       1.52       0.08       1.45       ----

> <Gold.Chemscore.Fitness>
18.0449

> <Gold.Chemscore.DG>
-19.5751

> <Gold.Chemscore.ZeroCoef>
-5.4800

> <Gold.Chemscore.Hbond>
3.2005

> <Gold.Chemscore.Metal>
0.0000

> <Gold.Chemscore.Lipo>
62.3422

> <Gold.Chemscore.Internal_Hbond>
0.0000

> <Gold.Chemscore.DEClash>
0.0780

> <Gold.Chemscore.DEInternal>
1.4523

> <Gold.Chemscore.Rot>
1.5190

> <Gold.Chemscore.Internal.Correction>
   9.000000E+99

> <Gold.Chemscore.Hbonds>
donor molecule, donor type, donor heavy atom, donor atom, acceptor molecule, acceptor atom, score
      L1  H     8    25       P1  7948  0.28
      L1  H    12    44       P1  7948  0.36
      P1  H  7997  8008       L1    20  0.80
      P1  H 10752 10764       L1     5  0.40

> <Gold.Chemscore.Hbond.Weighted>
-10.6897

> <Gold.Chemscore.Metal.Weighted>
-0.0000

> <Gold.Chemscore.Lipo.Weighted>
-7.2940

> <Gold.Chemscore.Internal_Hbond.Weighted>
0.0000

> <Gold.Chemscore.DEClash.Weighted>
0.0780

> <Gold.Chemscore.DEInternal.Weighted>
1.4523

> <Gold.Chemscore.Rot.Weighted>
3.8886

> <Gold.Chemscore.Internal.Correction.Weighted>
   9.000000E+99

> <Gold.Protein.RotatedTorsions>
[ 6907 6896 6895 6894 ] final    5.17 input  -60.11 | X-H torsion
[ 7974 7965 7964 7962 ] final   -5.98 input  175.53 | X-H torsion
[ 8008 7997 7996 7995 ] final  -21.75 input   59.86 | X-H torsion
[ 10167 10162 10161 10158 ] final   88.47 input  -65.29 | X-H torsion
[ 10718 10713 10712 10709 ] final   68.94 input   66.30 | X-H torsion
[ 10763 10752 10751 10750 ] final  -46.10 input  -60.55 | X-H torsion
[ 11005 11000 10999 10996 ] final  -63.30 input  -57.11 | X-H torsion

> <Gold.Protein.ActiveResidues>
 VAL166  LYS551  ARG553  GLY616  TRP617  ASP618  TYR619  PRO620  LYS621  CYS622 
 ASP623  PHE694  ASN695  SER759  ASP760  ASP761  ALA762  ILE779  LEU786  VAL792 
 PHE793  MET794  SER795  GLU796  ALA797  LYS798  CYS799  TRP800  GLU811  SER814 

> <Gold.Protein.RotatedAtoms>
  151.6531  135.0999  160.0164 H   0  0  0  0  0  0  0  0  0  0  0  0  # atno 6907 bound_to 6896
  152.3989  133.6784  159.6308 H   0  0  0  0  0  0  0  0  0  0  0  0  # atno 6908 bound_to 6896
  150.7892  133.8742  159.3308 H   0  0  0  0  0  0  0  0  0  0  0  0  # atno 6909 bound_to 6896
  146.2341  140.2102  142.8335 H   0  0  0  0  0  0  0  0  0  0  0  0  # atno 7974 bound_to 7965
  154.4686  140.2026  156.0053 H   0  0  0  0  0  0  0  0  0  0  0  0  # atno 8008 bound_to 7997
  156.0971  140.3249  155.7863 H   0  0  0  0  0  0  0  0  0  0  0  0  # atno 8009 bound_to 7997
  155.4860  140.0542  157.2951 H   0  0  0  0  0  0  0  0  0  0  0  0  # atno 8010 bound_to 7997
  139.8669  144.6514  150.8993 H   0  0  0  0  0  0  0  0  0  0  0  0  # atno 10167 bound_to 10162
  157.6318  130.9400  150.0445 H   0  0  0  0  0  0  0  0  0  0  0  0  # atno 10718 bound_to 10713
  154.0395  135.6646  153.4788 H   0  0  0  0  0  0  0  0  0  0  0  0  # atno 10763 bound_to 10752
  153.0507  135.5086  154.7856 H   0  0  0  0  0  0  0  0  0  0  0  0  # atno 10764 bound_to 10752
  154.6827  135.3048  154.9556 H   0  0  0  0  0  0  0  0  0  0  0  0  # atno 10765 bound_to 10752
  141.1388  133.6650  156.5659 H   0  0  0  0  0  0  0  0  0  0  0  0  # atno 11005 bound_to 11000
  144.9712  140.8371  143.5454 LP  0  0  0  0  0  0  0  0  0  0  0  0  # atno 17320 bound_to 7965
  145.2084  139.2217  143.5156 LP  0  0  0  0  0  0  0  0  0  0  0  0  # atno 17321 bound_to 7965
  140.7766  143.3696  151.1674 LP  0  0  0  0  0  0  0  0  0  0  0  0  # atno 17342 bound_to 10162
  139.7320  143.9057  152.3022 LP  0  0  0  0  0  0  0  0  0  0  0  0  # atno 17343 bound_to 10162
  156.1527  130.3642  149.9415 LP  0  0  0  0  0  0  0  0  0  0  0  0  # atno 17370 bound_to 10713
  156.7431  130.9087  151.3633 LP  0  0  0  0  0  0  0  0  0  0  0  0  # atno 17371 bound_to 10713
  140.3951  134.7406  157.4745 LP  0  0  0  0  0  0  0  0  0  0  0  0  # atno 17394 bound_to 11000
  140.0537  134.6093  155.8830 LP  0  0  0  0  0  0  0  0  0  0  0  0  # atno 17395 bound_to 11000

$$$$
