AV-unprocessed.smi:3085|AV-procd|sdf|11752|dock9
  -GOLD-   2272017143D 1   1.00000     0.00000
 Structure written by MMmdl.
 28 29  0  0  0  0  0  0  0  0  2 V2000
  138.8470  137.0082  153.9758 C   0  0  0  0  0  0  0  0  0  0  0  0
  140.2583  137.3593  153.4917 C   0  0  0  0  0  0  0  0  0  0  0  0
  141.1618  136.1709  153.4767 C   0  0  0  0  0  0  0  0  0  0  0  0
  142.4486  136.2256  153.0176 N   0  0  0  0  0  0  0  0  0  0  0  0
  142.8350  134.9740  153.2471 C   0  0  0  0  0  0  0  0  0  0  0  0
  144.1923  134.4171  152.9535 C   0  0  2  0  0  0  0  0  0  0  0  0
  145.2142  135.5144  152.5983 C   0  0  0  0  0  0  0  0  0  0  0  0
  146.5030  134.9011  152.2228 N   0  3  0  0  0  0  0  0  0  0  0  0
  146.3358  133.9172  151.1349 C   0  0  0  0  0  0  0  0  0  0  0  0
  145.2765  132.8714  151.5255 C   0  0  0  0  0  0  0  0  0  0  0  0
  144.0534  133.5243  151.8507 O   0  0  0  0  0  0  0  0  0  0  0  0
  141.8717  134.2396  153.8084 N   0  0  0  0  0  0  0  0  0  0  0  0
  140.7697  135.0000  153.9766 N   0  0  0  0  0  0  0  0  0  0  0  0
  141.9178  133.2693  154.0851 H   0  0  0  0  0  0  0  0  0  0  0  0
  138.2044  137.8888  153.9721 H   0  0  0  0  0  0  0  0  0  0  0  0
  138.8669  136.6138  154.9920 H   0  0  0  0  0  0  0  0  0  0  0  0
  138.3864  136.2570  153.3334 H   0  0  0  0  0  0  0  0  0  0  0  0
  140.2104  137.7872  152.4895 H   0  0  0  0  0  0  0  0  0  0  0  0
  140.6900  138.1270  154.1347 H   0  0  0  0  0  0  0  0  0  0  0  0
  144.5323  133.8571  153.8273 H   0  0  0  0  0  0  0  0  0  0  0  0
  144.8529  136.1177  151.7640 H   0  0  0  0  0  0  0  0  0  0  0  0
  145.3660  136.1890  153.4414 H   0  0  0  0  0  0  0  0  0  0  0  0
  147.1461  135.6224  151.9280 H   0  0  0  0  0  0  0  0  0  0  0  0
  146.0337  134.4370  150.2248 H   0  0  0  0  0  0  0  0  0  0  0  0
  147.2930  133.4376  150.9290 H   0  0  0  0  0  0  0  0  0  0  0  0
  145.1017  132.1848  150.6969 H   0  0  0  0  0  0  0  0  0  0  0  0
  145.6160  132.2707  152.3707 H   0  0  0  0  0  0  0  0  0  0  0  0
  146.8849  134.4292  153.0301 H   0  0  0  0  0  0  0  0  0  0  0  0
  1  2  1  0  0  0  0
  1 15  1  0  0  0  0
  1 16  1  0  0  0  0
  1 17  1  0  0  0  0
  2 18  1  0  0  0  0
  2 19  1  0  0  0  0
  2  3  1  0  0  0  0
  3  4  1  0  0  0  0
  3 13  2  0  0  0  0
  4  5  2  0  0  0  0
  5  6  1  0  0  0  0
  5 12  1  0  0  0  0
  6 11  1  0  0  0  0
  6  7  1  0  0  0  0
  6 20  1  0  0  0  0
  7  8  1  0  0  0  0
  7 21  1  0  0  0  0
  7 22  1  0  0  0  0
  8  9  1  0  0  0  0
  8 23  1  0  0  0  0
  8 28  1  0  0  0  0
  9 10  1  0  0  0  0
  9 24  1  0  0  0  0
  9 25  1  0  0  0  0
 10 11  1  0  0  0  0
 10 26  1  0  0  0  0
 10 27  1  0  0  0  0
 12 13  1  0  0  0  0
 12 14  1  0  0  0  0
M  CHG  1   8   1
M  END
> <s_m_source_file>
AV-unprocessed.smi

> <i_m_source_file_index>
3085

> <i_lp_mmshare_version>
43012

> <i_f3d_flags>
0

> <s_epik_input>
W0NIM11bQ0gyXWMxbmMobltuSF0xKVtDQEBIXTJbQ0gyXVtOSF1bQ0gyXVtDSDJdTzI=

> <s_epik_cmdline>
J2VwaWtfcHl0aG9uJywgJy1waCcsICc3LjAnLCAnLXRuJywgJzgnLCAnLW1hJywgJzIwMCcsICctbWV0YWxfYmluZGluZycsICctaW1hZScsICc8aW5maWxlLm1hZT4nLCAnLW9tYWUnLCAnPG91dGZpbGUubWFlPic=

> <r_epik_Ionization_Penalty>
0.162344

> <r_epik_Ionization_Penalty_Charging>
0.125708

> <r_epik_Ionization_Penalty_Neutral>
0.0366364

> <r_epik_State_Penalty>
0.637958

> <r_epik_Charging_Adjusted_Penalty>
0.763666

> <i_epik_Tot_Q>
1

> <i_epik_Tot_abs_Q>
1

> <r_epik_Metal_State_Penalty>
0.860091

> <b_epik_Metal_Only>
0

> <s_lp_Force_Field>
OPLS_2005

> <r_lp_Energy>
9.17309

> <b_lp_Chiralities_Consistent>
1

> <s_lp_Variant>
AV-unprocessed.smi:3085-3

> <Gold.Version>
5.8.1

> <Gold.Id.Protein>
6NUR|6NUR_protein|mol2

> <Gold.PLP.Fitness>
34.8736

> <Gold.PLP.PLP>
-23.4183

> <Gold.PLP.part.hbond>
-3.8743

> <Gold.PLP.part.metal>
0.0000

> <Gold.PLP.part.buried>
-6.5400

> <Gold.PLP.part.nonpolar>
-13.2544

> <Gold.PLP.part.repulsive>
0.6009

> <Gold.PLP.ligand.clash>
0.0000

> <Gold.PLP.ligand.torsion>
0.2761

> <Gold.PLP.Chemscore.Hbond>
4.0000

> <Gold.PLP.Chemscore.CHOScore>
0.0000

> <Gold.PLP.Chemscore.Metal>
0.0000

> <Gold.Chemscore.Hbonds>
donor molecule, donor type, donor heavy atom, donor atom, acceptor molecule, acceptor atom, score
      L1  H     8    23       P1  7948  1.89
      L1  H    12    14       P1 10957  1.00
      P1  H 11000 11005       L1    13  0.90

> <Gold.PLP.Chemscore.Internal.Correction>
0.0075

> <Gold.Rescore>
     Score         DG    S(hbond)    S(metal)    S(lipo)     H(rot)  DE(clash)    DE(int)     intcor
     14.69     -15.22       2.77        0.00      32.63       1.30       0.02       0.51       ----

> <Gold.Chemscore.Fitness>
14.6907

> <Gold.Chemscore.DG>
-15.2167

> <Gold.Chemscore.ZeroCoef>
-5.4800

> <Gold.Chemscore.Hbond>
2.7692

> <Gold.Chemscore.Metal>
0.0000

> <Gold.Chemscore.Lipo>
32.6345

> <Gold.Chemscore.Internal_Hbond>
0.0000

> <Gold.Chemscore.DEClash>
0.0202

> <Gold.Chemscore.DEInternal>
0.5058

> <Gold.Chemscore.Rot>
1.3011

> <Gold.Chemscore.Internal.Correction>
   9.000000E+99

> <Gold.Chemscore.Hbonds>
donor molecule, donor type, donor heavy atom, donor atom, acceptor molecule, acceptor atom, score
      L1  H     8    23       P1  7948  0.91
      L1  H    12    14       P1 10957  0.99
      P1  H 11000 11005       L1    13  0.18

> <Gold.Chemscore.Hbond.Weighted>
-9.2493

> <Gold.Chemscore.Metal.Weighted>
-0.0000

> <Gold.Chemscore.Lipo.Weighted>
-3.8182

> <Gold.Chemscore.Internal_Hbond.Weighted>
0.0000

> <Gold.Chemscore.DEClash.Weighted>
0.0202

> <Gold.Chemscore.DEInternal.Weighted>
0.5058

> <Gold.Chemscore.Rot.Weighted>
3.3308

> <Gold.Chemscore.Internal.Correction.Weighted>
   9.000000E+99

> <Gold.Protein.RotatedTorsions>
[ 6907 6896 6895 6894 ] final  138.14 input  -60.11 | X-H torsion
[ 7974 7965 7964 7962 ] final   22.04 input  175.53 | X-H torsion
[ 8008 7997 7996 7995 ] final  -15.38 input   59.86 | X-H torsion
[ 10167 10162 10161 10158 ] final  143.44 input  -65.29 | X-H torsion
[ 10718 10713 10712 10709 ] final  -16.74 input   66.30 | X-H torsion
[ 10763 10752 10751 10750 ] final -137.12 input  -60.55 | X-H torsion
[ 11005 11000 10999 10996 ] final   35.43 input  -57.11 | X-H torsion

> <Gold.Protein.ActiveResidues>
 VAL166  LYS551  ARG553  GLY616  TRP617  ASP618  TYR619  PRO620  LYS621  CYS622 
 ASP623  PHE694  ASN695  SER759  ASP760  ASP761  ALA762  ILE779  LEU786  VAL792 
 PHE793  MET794  SER795  GLU796  ALA797  LYS798  CYS799  TRP800  GLU811  SER814 

> <Gold.Protein.RotatedAtoms>
  152.2700  133.5374  159.5432 H   0  0  0  0  0  0  0  0  0  0  0  0  # atno 6907 bound_to 6896
  150.7156  134.0711  159.3874 H   0  0  0  0  0  0  0  0  0  0  0  0  # atno 6908 bound_to 6896
  151.8626  135.0519  160.0522 H   0  0  0  0  0  0  0  0  0  0  0  0  # atno 6909 bound_to 6896
  146.2046  139.7942  142.8736 H   0  0  0  0  0  0  0  0  0  0  0  0  # atno 7974 bound_to 7965
  154.5135  140.2198  155.9110 H   0  0  0  0  0  0  0  0  0  0  0  0  # atno 8008 bound_to 7997
  156.1580  140.3148  155.8725 H   0  0  0  0  0  0  0  0  0  0  0  0  # atno 8009 bound_to 7997
  155.3808  140.0472  157.3034 H   0  0  0  0  0  0  0  0  0  0  0  0  # atno 8010 bound_to 7997
  139.4970  144.6040  151.6418 H   0  0  0  0  0  0  0  0  0  0  0  0  # atno 10167 bound_to 10162
  156.5833  130.4780  149.6311 H   0  0  0  0  0  0  0  0  0  0  0  0  # atno 10718 bound_to 10713
  154.8669  135.3652  154.5172 H   0  0  0  0  0  0  0  0  0  0  0  0  # atno 10763 bound_to 10752
  153.5804  135.7018  153.5470 H   0  0  0  0  0  0  0  0  0  0  0  0  # atno 10764 bound_to 10752
  153.3462  135.4084  155.1573 H   0  0  0  0  0  0  0  0  0  0  0  0  # atno 10765 bound_to 10752
  140.2428  134.3395  155.7919 H   0  0  0  0  0  0  0  0  0  0  0  0  # atno 11005 bound_to 11000
  145.3365  141.0278  143.3416 LP  0  0  0  0  0  0  0  0  0  0  0  0  # atno 17320 bound_to 7965
  144.8762  139.4968  143.6744 LP  0  0  0  0  0  0  0  0  0  0  0  0  # atno 17321 bound_to 7965
  140.5697  144.0129  150.6210 LP  0  0  0  0  0  0  0  0  0  0  0  0  # atno 17342 bound_to 10162
  140.3243  143.3117  152.0753 LP  0  0  0  0  0  0  0  0  0  0  0  0  # atno 17343 bound_to 10162
  156.2613  130.6964  151.1733 LP  0  0  0  0  0  0  0  0  0  0  0  0  # atno 17370 bound_to 10713
  157.7321  131.0602  150.5643 LP  0  0  0  0  0  0  0  0  0  0  0  0  # atno 17371 bound_to 10713
  141.2209  133.7308  156.8912 LP  0  0  0  0  0  0  0  0  0  0  0  0  # atno 17394 bound_to 11000
  140.1636  134.9148  157.2746 LP  0  0  0  0  0  0  0  0  0  0  0  0  # atno 17395 bound_to 11000

$$$$
