AV-unprocessed.smi:3279|AV-procd|sdf|12551|dock7
  -GOLD-   2272018473D 1   1.00000     0.00000
 Structure written by MMmdl.
 36 36  0  0  0  0  0  0  0  0  1 V2000
  148.2365  139.8190  155.7338 C   0  0  0  0  0  0  0  0  0  0  0  0
  149.2250  139.8834  154.5560 C   0  0  1  0  0  0  0  0  0  0  0  0
  149.7868  141.2976  154.2972 C   0  0  0  0  0  0  0  0  0  0  0  0
  149.8515  142.1000  155.5153 N   0  0  0  0  0  0  0  0  0  0  0  0
  150.5184  141.7737  156.6336 C   0  0  0  0  0  0  0  0  0  0  0  0
  151.1752  140.7406  156.7591 O   0  0  0  0  0  0  0  0  0  0  0  0
  150.4313  142.7701  157.7866 C   0  0  0  0  0  0  0  0  0  0  0  0
  151.2517  142.2962  158.8509 O   0  0  0  0  0  0  0  0  0  0  0  0
  151.9792  143.2543  159.6234 C   0  0  0  0  0  0  0  0  0  0  0  0
  152.7725  142.4064  160.6306 C   0  0  0  0  0  0  0  0  0  0  0  0
  151.0160  144.1875  160.3831 C   0  0  0  0  0  0  0  0  0  0  0  0
  152.9578  144.0582  158.7440 C   0  0  0  0  0  0  0  0  0  0  0  0
  150.3319  138.8892  154.7306 C   0  0  0  0  0  0  0  0  0  0  0  0
  151.6261  139.1623  154.8498 N   0  0  0  0  0  0  0  0  0  0  0  0
  152.2143  137.9157  154.9893 N   0  0  0  0  0  0  0  0  0  0  0  0
  151.3246  136.9641  154.9582 N   0  0  0  0  0  0  0  0  0  0  0  0
  150.1277  137.5717  154.7957 N   0  0  0  0  0  0  0  0  0  0  0  0
  149.2523  137.0716  154.7387 H   0  0  0  0  0  0  0  0  0  0  0  0
  147.8547  138.8063  155.8672 H   0  0  0  0  0  0  0  0  0  0  0  0
  147.3760  140.4686  155.5747 H   0  0  0  0  0  0  0  0  0  0  0  0
  148.7128  140.1204  156.6675 H   0  0  0  0  0  0  0  0  0  0  0  0
  148.6730  139.5879  153.6619 H   0  0  0  0  0  0  0  0  0  0  0  0
  150.7628  141.2374  153.8124 H   0  0  0  0  0  0  0  0  0  0  0  0
  149.1358  141.8256  153.5996 H   0  0  0  0  0  0  0  0  0  0  0  0
  149.3400  142.9707  155.5138 H   0  0  0  0  0  0  0  0  0  0  0  0
  150.7623  143.7482  157.4371 H   0  0  0  0  0  0  0  0  0  0  0  0
  149.3875  142.8539  158.0876 H   0  0  0  0  0  0  0  0  0  0  0  0
  153.3754  143.0317  161.2902 H   0  0  0  0  0  0  0  0  0  0  0  0
  153.4470  141.7173  160.1210 H   0  0  0  0  0  0  0  0  0  0  0  0
  152.1074  141.8109  161.2569 H   0  0  0  0  0  0  0  0  0  0  0  0
  150.2820  143.6173  160.9534 H   0  0  0  0  0  0  0  0  0  0  0  0
  150.4736  144.8528  159.7118 H   0  0  0  0  0  0  0  0  0  0  0  0
  151.5589  144.8204  161.0857 H   0  0  0  0  0  0  0  0  0  0  0  0
  153.6098  144.6823  159.3559 H   0  0  0  0  0  0  0  0  0  0  0  0
  152.4380  144.7243  158.0553 H   0  0  0  0  0  0  0  0  0  0  0  0
  153.5938  143.3974  158.1541 H   0  0  0  0  0  0  0  0  0  0  0  0
  1  2  1  0  0  0  0
  1 19  1  0  0  0  0
  1 20  1  0  0  0  0
  1 21  1  0  0  0  0
  2  3  1  0  0  0  0
  2 13  1  0  0  0  0
  2 22  1  0  0  0  0
  3  4  1  0  0  0  0
  3 23  1  0  0  0  0
  3 24  1  0  0  0  0
  4  5  1  0  0  0  0
  4 25  1  0  0  0  0
  5  6  2  0  0  0  0
  5  7  1  0  0  0  0
  7  8  1  0  0  0  0
  7 26  1  0  0  0  0
  7 27  1  0  0  0  0
  8  9  1  0  0  0  0
  9 10  1  0  0  0  0
  9 11  1  0  0  0  0
  9 12  1  0  0  0  0
 10 28  1  0  0  0  0
 10 29  1  0  0  0  0
 10 30  1  0  0  0  0
 11 31  1  0  0  0  0
 11 32  1  0  0  0  0
 11 33  1  0  0  0  0
 12 34  1  0  0  0  0
 12 35  1  0  0  0  0
 12 36  1  0  0  0  0
 13 17  1  0  0  0  0
 13 14  2  0  0  0  0
 14 15  1  0  0  0  0
 15 16  2  0  0  0  0
 16 17  1  0  0  0  0
 17 18  1  0  0  0  0
M  END
> <s_m_source_file>
AV-unprocessed.smi

> <i_m_source_file_index>
3279

> <i_lp_mmshare_version>
43012

> <i_f3d_flags>
0

> <s_epik_input>
W25IXTFubm5jMVtDQEhdKFtDSDNdKVtDSDJdW05IXUMoPU8pW0NIMl1PQyhbQ0gzXSkoW0NIM10pW0NIM10=

> <s_epik_cmdline>
J2VwaWtfcHl0aG9uJywgJy1waCcsICc3LjAnLCAnLXRuJywgJzgnLCAnLW1hJywgJzIwMCcsICctbWV0YWxfYmluZGluZycsICctaW1hZScsICc8aW5maWxlLm1hZT4nLCAnLW9tYWUnLCAnPG91dGZpbGUubWFlPic=

> <r_lp_tautomer_probability>
0.3

> <r_epik_Ionization_Penalty>
1.45055

> <r_epik_Ionization_Penalty_Charging>
0

> <r_epik_Ionization_Penalty_Neutral>
1.45055

> <r_epik_State_Penalty>
2.31845

> <r_epik_Charging_Adjusted_Penalty>
2.31845

> <i_epik_Tot_Q>
0

> <i_epik_Tot_abs_Q>
0

> <r_epik_Metal_State_Penalty>
2.36898

> <b_epik_Metal_Only>
0

> <s_lp_Force_Field>
OPLS_2005

> <r_lp_Energy>
7.01933

> <b_lp_Chiralities_Consistent>
1

> <s_lp_Variant>
AV-unprocessed.smi:3279-4

> <Gold.Version>
5.8.1

> <Gold.Id.Protein>
6NUR|6NUR_protein|mol2

> <Gold.PLP.Fitness>
40.1579

> <Gold.PLP.PLP>
-33.1210

> <Gold.PLP.part.hbond>
-3.1332

> <Gold.PLP.part.metal>
0.0000

> <Gold.PLP.part.buried>
-4.8297

> <Gold.PLP.part.nonpolar>
-25.7207

> <Gold.PLP.part.repulsive>
0.4627

> <Gold.PLP.ligand.clash>
0.0000

> <Gold.PLP.ligand.torsion>
0.7944

> <Gold.PLP.Chemscore.Hbond>
2.8320

> <Gold.PLP.Chemscore.CHOScore>
0.0000

> <Gold.PLP.Chemscore.Metal>
0.0000

> <Gold.Chemscore.Hbonds>
donor molecule, donor type, donor heavy atom, donor atom, acceptor molecule, acceptor atom, score
      L1  H     4    25       P1  8028  1.00
      P1  H  7989  7998       L1    14  0.57
      P1  H 10752 10765       L1    16  0.26

> <Gold.PLP.Chemscore.Internal.Correction>
0.1297

> <Gold.Rescore>
     Score         DG    S(hbond)    S(metal)    S(lipo)     H(rot)  DE(clash)    DE(int)     intcor
     10.07     -14.04       2.18        0.00      70.06       2.71       0.28       3.68       ----

> <Gold.Chemscore.Fitness>
10.0746

> <Gold.Chemscore.DG>
-14.0359

> <Gold.Chemscore.ZeroCoef>
-5.4800

> <Gold.Chemscore.Hbond>
2.1842

> <Gold.Chemscore.Metal>
0.0000

> <Gold.Chemscore.Lipo>
70.0567

> <Gold.Chemscore.Internal_Hbond>
0.0000

> <Gold.Chemscore.DEClash>
0.2767

> <Gold.Chemscore.DEInternal>
3.6846

> <Gold.Chemscore.Rot>
2.7094

> <Gold.Chemscore.Internal.Correction>
   9.000000E+99

> <Gold.Chemscore.Hbonds>
donor molecule, donor type, donor heavy atom, donor atom, acceptor molecule, acceptor atom, score
      L1  H     4    25       P1  8028  1.00
      P1  H  7989  7998       L1    14  0.10
      P1  H 10752 10765       L1    16  0.01

> <Gold.Chemscore.Hbond.Weighted>
-7.2953

> <Gold.Chemscore.Metal.Weighted>
-0.0000

> <Gold.Chemscore.Lipo.Weighted>
-8.1966

> <Gold.Chemscore.Internal_Hbond.Weighted>
0.0000

> <Gold.Chemscore.DEClash.Weighted>
0.2767

> <Gold.Chemscore.DEInternal.Weighted>
3.6846

> <Gold.Chemscore.Rot.Weighted>
6.9360

> <Gold.Chemscore.Internal.Correction.Weighted>
   9.000000E+99

> <Gold.Protein.RotatedTorsions>
[ 6907 6896 6895 6894 ] final   87.51 input  -60.11 | X-H torsion
[ 7974 7965 7964 7962 ] final  174.33 input  175.53 | X-H torsion
[ 8008 7997 7996 7995 ] final  147.11 input   59.86 | X-H torsion
[ 10167 10162 10161 10158 ] final  120.19 input  -65.29 | X-H torsion
[ 10718 10713 10712 10709 ] final   12.87 input   66.30 | X-H torsion
[ 10763 10752 10751 10750 ] final  176.80 input  -60.55 | X-H torsion
[ 11005 11000 10999 10996 ] final   96.59 input  -57.11 | X-H torsion

> <Gold.Protein.ActiveResidues>
 VAL166  LYS551  ARG553  GLY616  TRP617  ASP618  TYR619  PRO620  LYS621  CYS622 
 ASP623  PHE694  ASN695  SER759  ASP760  ASP761  ALA762  ILE779  LEU786  VAL792 
 PHE793  MET794  SER795  GLU796  ALA797  LYS798  CYS799  TRP800  GLU811  SER814 

> <Gold.Protein.RotatedAtoms>
  152.5412  134.2264  159.8807 H   0  0  0  0  0  0  0  0  0  0  0  0  # atno 6907 bound_to 6896
  151.2239  133.4480  159.2609 H   0  0  0  0  0  0  0  0  0  0  0  0  # atno 6908 bound_to 6896
  151.0780  134.9853  159.8397 H   0  0  0  0  0  0  0  0  0  0  0  0  # atno 6909 bound_to 6896
  144.7224  139.9781  143.6438 H   0  0  0  0  0  0  0  0  0  0  0  0  # atno 7974 bound_to 7965
  156.2835  140.2164  156.5485 H   0  0  0  0  0  0  0  0  0  0  0  0  # atno 8008 bound_to 7997
  154.7311  140.0495  157.0749 H   0  0  0  0  0  0  0  0  0  0  0  0  # atno 8009 bound_to 7997
  155.0353  140.3139  155.4747 H   0  0  0  0  0  0  0  0  0  0  0  0  # atno 8010 bound_to 7997
  139.5998  144.7053  151.3090 H   0  0  0  0  0  0  0  0  0  0  0  0  # atno 10167 bound_to 10162
  157.0165  130.6137  149.5715 H   0  0  0  0  0  0  0  0  0  0  0  0  # atno 10718 bound_to 10713
  154.4860  135.2777  155.1533 H   0  0  0  0  0  0  0  0  0  0  0  0  # atno 10763 bound_to 10752
  154.3224  135.6207  153.5517 H   0  0  0  0  0  0  0  0  0  0  0  0  # atno 10764 bound_to 10752
  152.9881  135.5746  154.5271 H   0  0  0  0  0  0  0  0  0  0  0  0  # atno 10765 bound_to 10752
  139.8780  134.8958  156.4181 H   0  0  0  0  0  0  0  0  0  0  0  0  # atno 11005 bound_to 11000
  146.0510  139.3511  143.0640 LP  0  0  0  0  0  0  0  0  0  0  0  0  # atno 17320 bound_to 7965
  145.8215  140.9676  143.0896 LP  0  0  0  0  0  0  0  0  0  0  0  0  # atno 17321 bound_to 7965
  140.7240  143.7055  150.7811 LP  0  0  0  0  0  0  0  0  0  0  0  0  # atno 17342 bound_to 10162
  140.0629  143.5137  152.2619 LP  0  0  0  0  0  0  0  0  0  0  0  0  # atno 17343 bound_to 10162
  156.0117  130.5209  150.8010 LP  0  0  0  0  0  0  0  0  0  0  0  0  # atno 17370 bound_to 10713
  157.5282  131.0935  150.9990 LP  0  0  0  0  0  0  0  0  0  0  0  0  # atno 17371 bound_to 10713
  140.9153  133.7683  155.9840 LP  0  0  0  0  0  0  0  0  0  0  0  0  # atno 17394 bound_to 11000
  140.8501  134.2964  157.5279 LP  0  0  0  0  0  0  0  0  0  0  0  0  # atno 17395 bound_to 11000

$$$$
