AV-unprocessed.smi:1579|AV-procd|sdf|6356|dock4
  -GOLD-   22720 6573D 1   1.00000     0.00000
 Structure written by MMmdl.
 47 48  0  0  0  0  0  0  0  0  2 V2000
  147.1359  131.4066  159.3715 C   0  0  0  0  0  0  0  0  0  0  0  0
  147.6289  132.8135  159.1657 C   0  0  0  0  0  0  0  0  0  0  0  0
  148.2455  133.0570  158.0560 N   0  0  0  0  0  0  0  0  0  0  0  0
  148.7402  134.3138  157.7668 N   0  0  0  0  0  0  0  0  0  0  0  0
  149.4153  134.3988  156.4647 C   0  0  0  0  0  0  0  0  0  0  0  0
  148.5037  133.9680  155.2945 C   0  0  2  0  0  0  0  0  0  0  0  0
  149.3081  133.9137  154.1325 O   0  0  0  0  0  0  0  0  0  0  0  0
  147.3252  134.9369  155.0477 C   0  0  0  0  0  0  0  0  0  0  0  0
  146.8792  134.9713  153.6308 N   0  3  2  0  0  0  0  0  0  0  0  0
  145.9189  136.0766  153.3783 C   0  0  0  0  0  0  0  0  0  0  0  0
  145.5686  136.1847  151.8835 C   0  0  0  0  0  0  0  0  0  0  0  0
  145.0262  134.8610  151.3157 C   0  0  2  0  0  0  0  0  0  0  0  0
  143.5892  134.5597  151.7767 C   0  0  0  0  0  0  0  0  0  0  0  0
  146.0093  133.7240  151.6474 C   0  0  0  0  0  0  0  0  0  0  0  0
  146.3508  133.6673  153.1473 C   0  0  0  0  0  0  0  0  0  0  0  0
  148.6294  135.3979  158.5874 C   0  0  0  0  0  0  0  0  0  0  0  0
  149.0670  136.5083  158.2826 O   0  0  0  0  0  0  0  0  0  0  0  0
  147.9308  135.1154  159.8431 C   0  0  0  0  0  0  0  0  0  0  0  0
  147.7927  136.2246  160.7305 C   0  0  0  0  0  0  0  0  0  0  0  0
  147.6712  137.1346  161.4354 N   0  0  0  0  0  0  0  0  0  0  0  0
  147.4440  133.8845  160.1392 C   0  0  0  0  0  0  0  0  0  0  0  0
  146.7097  133.5408  161.4279 C   0  0  0  0  0  0  0  0  0  0  0  0
  147.5764  130.9691  160.2675 H   0  0  0  0  0  0  0  0  0  0  0  0
  147.3900  130.7589  158.5311 H   0  0  0  0  0  0  0  0  0  0  0  0
  146.0518  131.3889  159.4841 H   0  0  0  0  0  0  0  0  0  0  0  0
  149.8172  135.3972  156.2818 H   0  0  0  0  0  0  0  0  0  0  0  0
  150.2916  133.7480  156.4968 H   0  0  0  0  0  0  0  0  0  0  0  0
  148.1433  132.9593  155.4927 H   0  0  0  0  0  0  0  0  0  0  0  0
  149.0563  134.6139  153.5506 H   0  0  0  0  0  0  0  0  0  0  0  0
  146.4679  134.6742  155.6679 H   0  0  0  0  0  0  0  0  0  0  0  0
  147.6322  135.9354  155.3631 H   0  0  0  0  0  0  0  0  0  0  0  0
  145.0181  135.9235  153.9745 H   0  0  0  0  0  0  0  0  0  0  0  0
  146.3543  137.0212  153.7069 H   0  0  0  0  0  0  0  0  0  0  0  0
  144.8483  136.9878  151.7246 H   0  0  0  0  0  0  0  0  0  0  0  0
  146.4649  136.4697  151.3306 H   0  0  0  0  0  0  0  0  0  0  0  0
  144.9880  134.9582  150.2297 H   0  0  0  0  0  0  0  0  0  0  0  0
  143.5172  134.4474  152.8581 H   0  0  0  0  0  0  0  0  0  0  0  0
  143.2197  133.6384  151.3253 H   0  0  0  0  0  0  0  0  0  0  0  0
  142.9098  135.3607  151.4838 H   0  0  0  0  0  0  0  0  0  0  0  0
  145.6042  132.7662  151.3189 H   0  0  0  0  0  0  0  0  0  0  0  0
  146.9299  133.8713  151.0806 H   0  0  0  0  0  0  0  0  0  0  0  0
  147.0848  132.8783  153.3045 H   0  0  0  0  0  0  0  0  0  0  0  0
  145.4697  133.3902  153.7275 H   0  0  0  0  0  0  0  0  0  0  0  0
  146.6179  134.3996  162.0923 H   0  0  0  0  0  0  0  0  0  0  0  0
  147.2406  132.7607  161.9743 H   0  0  0  0  0  0  0  0  0  0  0  0
  145.7017  133.1851  161.2124 H   0  0  0  0  0  0  0  0  0  0  0  0
  147.6979  135.1833  153.0788 H   0  0  0  0  0  0  0  0  0  0  0  0
  1  2  1  0  0  0  0
  1 23  1  0  0  0  0
  1 24  1  0  0  0  0
  1 25  1  0  0  0  0
  2 21  1  0  0  0  0
  2  3  2  0  0  0  0
  3  4  1  0  0  0  0
  4  5  1  0  0  0  0
  4 16  1  0  0  0  0
  5  6  1  0  0  0  0
  5 26  1  0  0  0  0
  5 27  1  0  0  0  0
  6  7  1  0  0  0  0
  6  8  1  0  0  0  0
  6 28  1  0  0  0  0
  7 29  1  0  0  0  0
  8  9  1  0  0  0  0
  8 30  1  0  0  0  0
  8 31  1  0  0  0  0
  9 15  1  0  0  0  0
  9 10  1  0  0  0  0
  9 47  1  0  0  0  0
 10 11  1  0  0  0  0
 10 32  1  0  0  0  0
 10 33  1  0  0  0  0
 11 12  1  0  0  0  0
 11 34  1  0  0  0  0
 11 35  1  0  0  0  0
 12 13  1  0  0  0  0
 12 14  1  0  0  0  0
 12 36  1  0  0  0  0
 13 37  1  0  0  0  0
 13 38  1  0  0  0  0
 13 39  1  0  0  0  0
 14 15  1  0  0  0  0
 14 40  1  0  0  0  0
 14 41  1  0  0  0  0
 15 42  1  0  0  0  0
 15 43  1  0  0  0  0
 16 17  2  0  0  0  0
 16 18  1  0  0  0  0
 18 19  1  0  0  0  0
 18 21  2  0  0  0  0
 19 20  3  0  0  0  0
 21 22  1  0  0  0  0
 22 44  1  0  0  0  0
 22 45  1  0  0  0  0
 22 46  1  0  0  0  0
M  CHG  1   9   1
M  END
> <s_m_source_file>
AV-unprocessed.smi

> <i_m_source_file_index>
1579

> <i_lp_mmshare_version>
43012

> <i_f3d_flags>
0

> <s_epik_input>
TiNDYyhjMVtDSDNdKWMoPU8pbihuYzFbQ0gzXSlbQ0gyXVtDQEhdKFtPSF0pW0NIMl1OMltDSDJdW0NIMl1bQ0hdKFtDSDNdKVtDSDJdW0NIMl0y

> <s_epik_cmdline>
J2VwaWtfcHl0aG9uJywgJy1waCcsICc3LjAnLCAnLXRuJywgJzgnLCAnLW1hJywgJzIwMCcsICctbWV0YWxfYmluZGluZycsICctaW1hZScsICc8aW5maWxlLm1hZT4nLCAnLW9tYWUnLCAnPG91dGZpbGUubWFlPic=

> <r_epik_Ionization_Penalty>
0.00136816

> <r_epik_Ionization_Penalty_Charging>
0.00136813

> <r_epik_Ionization_Penalty_Neutral>
3.19884e-08

> <r_epik_State_Penalty>
0.000910892

> <r_epik_Charging_Adjusted_Penalty>
0.00227902

> <i_epik_Tot_Q>
1

> <i_epik_Tot_abs_Q>
1

> <r_epik_Metal_State_Penalty>
-0

> <b_epik_Metal_Only>
0

> <s_lp_Force_Field>
OPLS_2005

> <r_lp_Energy>
38.3008

> <b_lp_Chiralities_Consistent>
1

> <s_lp_Variant>
AV-unprocessed.smi:1579-3

> <Gold.Version>
5.8.1

> <Gold.Id.Protein>
6NUR|6NUR_protein|mol2

> <Gold.PLP.Fitness>
41.5796

> <Gold.PLP.PLP>
-27.9308

> <Gold.PLP.part.hbond>
-4.0000

> <Gold.PLP.part.metal>
0.0000

> <Gold.PLP.part.buried>
-4.0258

> <Gold.PLP.part.nonpolar>
-19.8922

> <Gold.PLP.part.repulsive>
0.0000

> <Gold.PLP.ligand.clash>
0.0000

> <Gold.PLP.ligand.torsion>
0.4205

> <Gold.PLP.Chemscore.Hbond>
4.8240

> <Gold.PLP.Chemscore.CHOScore>
0.0000

> <Gold.PLP.Chemscore.Metal>
0.0000

> <Gold.Chemscore.Hbonds>
donor molecule, donor type, donor heavy atom, donor atom, acceptor molecule, acceptor atom, score
      L1  H     7    29       P1  7948  0.28
      L1  H     9    47       P1  7948  2.00
      P1  H  6931  6943       L1    20  1.00
      P1  H  6934  6947       L1    20  0.82

> <Gold.PLP.Chemscore.Internal.Correction>
0.0178

> <Gold.Rescore>
     Score         DG    S(hbond)    S(metal)    S(lipo)     H(rot)  DE(clash)    DE(int)     intcor
     15.80     -16.66       3.06        0.00      55.66       2.17       0.38       0.48       ----

> <Gold.Chemscore.Fitness>
15.7972

> <Gold.Chemscore.DG>
-16.6591

> <Gold.Chemscore.ZeroCoef>
-5.4800

> <Gold.Chemscore.Hbond>
3.0618

> <Gold.Chemscore.Metal>
0.0000

> <Gold.Chemscore.Lipo>
55.6562

> <Gold.Chemscore.Internal_Hbond>
0.0000

> <Gold.Chemscore.DEClash>
0.3821

> <Gold.Chemscore.DEInternal>
0.4797

> <Gold.Chemscore.Rot>
2.1715

> <Gold.Chemscore.Internal.Correction>
   9.000000E+99

> <Gold.Chemscore.Hbonds>
donor molecule, donor type, donor heavy atom, donor atom, acceptor molecule, acceptor atom, score
      L1  H     7    29       P1  7948  0.05
      L1  H     9    47       P1  7948  0.94
      P1  H  6931  6943       L1    20  0.95
      P1  H  6934  6947       L1    20  0.78

> <Gold.Chemscore.Hbond.Weighted>
-10.2264

> <Gold.Chemscore.Metal.Weighted>
-0.0000

> <Gold.Chemscore.Lipo.Weighted>
-6.5118

> <Gold.Chemscore.Internal_Hbond.Weighted>
0.0000

> <Gold.Chemscore.DEClash.Weighted>
0.3821

> <Gold.Chemscore.DEInternal.Weighted>
0.4797

> <Gold.Chemscore.Rot.Weighted>
5.5591

> <Gold.Chemscore.Internal.Correction.Weighted>
   9.000000E+99

> <Gold.Protein.RotatedTorsions>
[ 6907 6896 6895 6894 ] final   56.23 input  -60.11 | X-H torsion
[ 7974 7965 7964 7962 ] final -148.86 input  175.53 | X-H torsion
[ 8008 7997 7996 7995 ] final  164.20 input   59.86 | X-H torsion
[ 10167 10162 10161 10158 ] final -117.69 input  -65.29 | X-H torsion
[ 10718 10713 10712 10709 ] final -131.54 input   66.30 | X-H torsion
[ 10763 10752 10751 10750 ] final  -74.32 input  -60.55 | X-H torsion
[ 11005 11000 10999 10996 ] final  -52.32 input  -57.11 | X-H torsion

> <Gold.Protein.ActiveResidues>
 VAL166  LYS551  ARG553  GLY616  TRP617  ASP618  TYR619  PRO620  LYS621  CYS622 
 ASP623  PHE694  ASN695  SER759  ASP760  ASP761  ALA762  ILE779  LEU786  VAL792 
 PHE793  MET794  SER795  GLU796  ALA797  LYS798  CYS799  TRP800  GLU811  SER814 

> <Gold.Protein.RotatedAtoms>
  152.3616  134.6864  160.0205 H   0  0  0  0  0  0  0  0  0  0  0  0  # atno 6907 bound_to 6896
  151.7186  133.3308  159.3317 H   0  0  0  0  0  0  0  0  0  0  0  0  # atno 6908 bound_to 6896
  150.7608  134.6403  159.6278 H   0  0  0  0  0  0  0  0  0  0  0  0  # atno 6909 bound_to 6896
  144.8003  140.5141  143.5712 H   0  0  0  0  0  0  0  0  0  0  0  0  # atno 7974 bound_to 7965
  156.1899  140.1703  156.8113 H   0  0  0  0  0  0  0  0  0  0  0  0  # atno 8008 bound_to 7997
  154.5458  140.0727  156.8619 H   0  0  0  0  0  0  0  0  0  0  0  0  # atno 8009 bound_to 7997
  155.3124  140.3368  155.4246 H   0  0  0  0  0  0  0  0  0  0  0  0  # atno 8010 bound_to 7997
  140.0656  143.4926  152.2008 H   0  0  0  0  0  0  0  0  0  0  0  0  # atno 10167 bound_to 10162
  156.2254  130.7005  151.0802 H   0  0  0  0  0  0  0  0  0  0  0  0  # atno 10718 bound_to 10713
  154.4715  135.5868  153.6325 H   0  0  0  0  0  0  0  0  0  0  0  0  # atno 10763 bound_to 10752
  152.9835  135.6068  154.3360 H   0  0  0  0  0  0  0  0  0  0  0  0  # atno 10764 bound_to 10752
  154.3243  135.2843  155.2483 H   0  0  0  0  0  0  0  0  0  0  0  0  # atno 10765 bound_to 10752
  141.0918  133.6631  156.4007 H   0  0  0  0  0  0  0  0  0  0  0  0  # atno 11005 bound_to 11000
  145.5570  139.1478  143.3362 LP  0  0  0  0  0  0  0  0  0  0  0  0  # atno 17320 bound_to 7965
  146.2282  140.5707  142.8987 LP  0  0  0  0  0  0  0  0  0  0  0  0  # atno 17321 bound_to 7965
  139.5867  144.7534  151.3503 LP  0  0  0  0  0  0  0  0  0  0  0  0  # atno 17342 bound_to 10162
  140.7150  143.7289  150.7639 LP  0  0  0  0  0  0  0  0  0  0  0  0  # atno 17343 bound_to 10162
  157.7108  131.0735  150.6507 LP  0  0  0  0  0  0  0  0  0  0  0  0  # atno 17370 bound_to 10713
  156.6572  130.4502  149.5699 LP  0  0  0  0  0  0  0  0  0  0  0  0  # atno 17371 bound_to 10713
  140.5234  134.6282  157.5326 LP  0  0  0  0  0  0  0  0  0  0  0  0  # atno 17394 bound_to 11000
  139.9746  134.7237  155.9975 LP  0  0  0  0  0  0  0  0  0  0  0  0  # atno 17395 bound_to 11000

$$$$
