AV-unprocessed.smi:1755|AV-procd|sdf|7070|dock3
  -GOLD-   22720 8293D 1   1.00000     0.00000
 Structure written by MMmdl.
 46 47  0  0  0  0  0  0  0  0  2 V2000
  151.4703  142.1722  157.0501 C   0  0  0  0  0  0  0  0  0  0  0  0
  151.1346  141.0443  156.1196 C   0  0  0  0  0  0  0  0  0  0  0  0
  149.9079  140.8089  155.4331 C   0  0  0  0  0  0  0  0  0  0  0  0
  150.1679  139.6594  154.7380 C   0  0  0  0  0  0  0  0  0  0  0  0
  149.3554  138.9666  153.8963 N   0  0  0  0  0  0  0  0  0  0  0  0
  148.0295  139.0957  153.7151 C   0  0  0  0  0  0  0  0  0  0  0  0
  147.2941  139.8581  154.3418 O   0  0  0  0  0  0  0  0  0  0  0  0
  147.5912  138.2776  152.7473 N   0  0  0  0  0  0  0  0  0  0  0  0
  146.2036  138.1613  152.2984 C   0  0  0  0  0  0  0  0  0  0  0  0
  145.5455  136.7914  152.6591 C   0  0  0  0  0  0  0  0  0  0  0  0
  146.0601  135.7291  151.7216 N   0  3  0  0  0  0  0  0  0  0  0  0
  145.8118  135.9409  150.2732 C   0  0  0  0  0  0  0  0  0  0  0  0
  145.7034  134.3424  152.1161 C   0  0  0  0  0  0  0  0  0  0  0  0
  145.8038  136.4616  154.1451 C   0  0  0  0  0  0  0  0  0  0  0  0
  144.7912  137.2896  154.9509 C   0  0  0  0  0  0  0  0  0  0  0  0
  143.6608  137.6531  153.9783 C   0  0  0  0  0  0  0  0  0  0  0  0
  144.0006  136.9336  152.6691 C   0  0  0  0  0  0  0  0  0  0  0  0
  151.4588  139.2606  155.0045 N   0  0  0  0  0  0  0  0  0  0  0  0
  152.1892  138.1111  154.5072 C   0  0  0  0  0  0  0  0  0  0  0  0
  152.0523  140.1195  155.8608 N   0  0  0  0  0  0  0  0  0  0  0  0
  150.6289  142.8569  157.1591 H   0  0  0  0  0  0  0  0  0  0  0  0
  152.3192  142.7472  156.6796 H   0  0  0  0  0  0  0  0  0  0  0  0
  151.7254  141.8001  158.0427 H   0  0  0  0  0  0  0  0  0  0  0  0
  149.0042  141.3988  155.4599 H   0  0  0  0  0  0  0  0  0  0  0  0
  149.8200  138.2763  153.3252 H   0  0  0  0  0  0  0  0  0  0  0  0
  148.2652  137.6726  152.3012 H   0  0  0  0  0  0  0  0  0  0  0  0
  145.6550  138.9776  152.7670 H   0  0  0  0  0  0  0  0  0  0  0  0
  146.1336  138.3721  151.2307 H   0  0  0  0  0  0  0  0  0  0  0  0
  144.7501  136.0698  150.0612 H   0  0  0  0  0  0  0  0  0  0  0  0
  146.1649  135.0887  149.6917 H   0  0  0  0  0  0  0  0  0  0  0  0
  146.3575  136.8071  149.8997 H   0  0  0  0  0  0  0  0  0  0  0  0
  144.6373  134.1537  151.9868 H   0  0  0  0  0  0  0  0  0  0  0  0
  145.9660  134.1273  153.1506 H   0  0  0  0  0  0  0  0  0  0  0  0
  146.2431  133.6225  151.5001 H   0  0  0  0  0  0  0  0  0  0  0  0
  145.6138  135.4049  154.3359 H   0  0  0  0  0  0  0  0  0  0  0  0
  146.8303  136.6607  154.4554 H   0  0  0  0  0  0  0  0  0  0  0  0
  144.4207  136.7283  155.8095 H   0  0  0  0  0  0  0  0  0  0  0  0
  145.2581  138.1977  155.3340 H   0  0  0  0  0  0  0  0  0  0  0  0
  142.6823  137.3572  154.3581 H   0  0  0  0  0  0  0  0  0  0  0  0
  143.6327  138.7323  153.8219 H   0  0  0  0  0  0  0  0  0  0  0  0
  143.5974  137.4395  151.7930 H   0  0  0  0  0  0  0  0  0  0  0  0
  143.5011  135.9682  152.7299 H   0  0  0  0  0  0  0  0  0  0  0  0
  152.1818  138.1154  153.4167 H   0  0  0  0  0  0  0  0  0  0  0  0
  151.7160  137.1958  154.8639 H   0  0  0  0  0  0  0  0  0  0  0  0
  153.2237  138.1337  154.8533 H   0  0  0  0  0  0  0  0  0  0  0  0
  147.0647  135.7801  151.8105 H   0  0  0  0  0  0  0  0  0  0  0  0
  1  2  1  0  0  0  0
  1 21  1  0  0  0  0
  1 22  1  0  0  0  0
  1 23  1  0  0  0  0
  2 20  2  0  0  0  0
  2  3  1  0  0  0  0
  3  4  2  0  0  0  0
  3 24  1  0  0  0  0
  4  5  1  0  0  0  0
  4 18  1  0  0  0  0
  5  6  1  0  0  0  0
  5 25  1  0  0  0  0
  6  7  2  0  0  0  0
  6  8  1  0  0  0  0
  8  9  1  0  0  0  0
  8 26  1  0  0  0  0
  9 10  1  0  0  0  0
  9 27  1  0  0  0  0
  9 28  1  0  0  0  0
 10 17  1  0  0  0  0
 10 11  1  0  0  0  0
 10 14  1  0  0  0  0
 11 12  1  0  0  0  0
 11 13  1  0  0  0  0
 11 46  1  0  0  0  0
 12 29  1  0  0  0  0
 12 30  1  0  0  0  0
 12 31  1  0  0  0  0
 13 32  1  0  0  0  0
 13 33  1  0  0  0  0
 13 34  1  0  0  0  0
 14 15  1  0  0  0  0
 14 35  1  0  0  0  0
 14 36  1  0  0  0  0
 15 16  1  0  0  0  0
 15 37  1  0  0  0  0
 15 38  1  0  0  0  0
 16 17  1  0  0  0  0
 16 39  1  0  0  0  0
 16 40  1  0  0  0  0
 17 41  1  0  0  0  0
 17 42  1  0  0  0  0
 18 19  1  0  0  0  0
 18 20  1  0  0  0  0
 19 43  1  0  0  0  0
 19 44  1  0  0  0  0
 19 45  1  0  0  0  0
M  CHG  1  11   1
M  END
> <s_m_source_file>
AV-unprocessed.smi

> <i_m_source_file_index>
1755

> <i_lp_mmshare_version>
43012

> <i_f3d_flags>
0

> <s_epik_input>
W0NIM11jMVtjSF1jKG4objEpW0NIM10pW05IXUMoPU8pW05IXVtDSDJdQzIoTihbQ0gzXSlbQ0gzXSlbQ0gyXVtDSDJdW0NIMl1bQ0gyXTI=

> <s_epik_cmdline>
J2VwaWtfcHl0aG9uJywgJy1waCcsICc3LjAnLCAnLXRuJywgJzgnLCAnLW1hJywgJzIwMCcsICctbWV0YWxfYmluZGluZycsICctaW1hZScsICc8aW5maWxlLm1hZT4nLCAnLW9tYWUnLCAnPG91dGZpbGUubWFlPic=

> <r_lp_tautomer_probability>
1

> <r_epik_Ionization_Penalty>
0.00248705

> <r_epik_Ionization_Penalty_Charging>
0.00240703

> <r_epik_Ionization_Penalty_Neutral>
8.00151e-05

> <r_epik_State_Penalty>
0.00166499

> <r_epik_Charging_Adjusted_Penalty>
0.00407202

> <i_epik_Tot_Q>
1

> <i_epik_Tot_abs_Q>
1

> <r_epik_Metal_State_Penalty>
-0

> <b_epik_Metal_Only>
0

> <s_lp_Force_Field>
OPLS_2005

> <r_lp_Energy>
45.253

> <b_lp_Chiralities_Consistent>
1

> <s_lp_Variant>
AV-unprocessed.smi:1755-1

> <Gold.Version>
5.8.1

> <Gold.Id.Protein>
6NUR|6NUR_protein|mol2

> <Gold.PLP.Fitness>
39.4541

> <Gold.PLP.PLP>
-30.1019

> <Gold.PLP.part.hbond>
-4.2016

> <Gold.PLP.part.metal>
0.0000

> <Gold.PLP.part.buried>
-0.3521

> <Gold.PLP.part.nonpolar>
-25.0367

> <Gold.PLP.part.repulsive>
0.3026

> <Gold.PLP.ligand.clash>
0.0000

> <Gold.PLP.ligand.torsion>
0.3706

> <Gold.PLP.Chemscore.Hbond>
3.3088

> <Gold.PLP.Chemscore.CHOScore>
0.0000

> <Gold.PLP.Chemscore.Metal>
0.0000

> <Gold.Chemscore.Hbonds>
donor molecule, donor type, donor heavy atom, donor atom, acceptor molecule, acceptor atom, score
      L1  H     8    26       P1  7948  1.00
      L1  H    11    46       P1  7948  2.00
      P1  H  7997  8008       L1    20  0.29

> <Gold.PLP.Chemscore.Internal.Correction>
0.1671

> <Gold.Rescore>
     Score         DG    S(hbond)    S(metal)    S(lipo)     H(rot)  DE(clash)    DE(int)     intcor
     15.77     -17.79       2.70        0.00      60.57       1.49       0.63       1.39       ----

> <Gold.Chemscore.Fitness>
15.7738

> <Gold.Chemscore.DG>
-17.7898

> <Gold.Chemscore.ZeroCoef>
-5.4800

> <Gold.Chemscore.Hbond>
2.7021

> <Gold.Chemscore.Metal>
0.0000

> <Gold.Chemscore.Lipo>
60.5684

> <Gold.Chemscore.Internal_Hbond>
0.0000

> <Gold.Chemscore.DEClash>
0.6258

> <Gold.Chemscore.DEInternal>
1.3902

> <Gold.Chemscore.Rot>
1.4851

> <Gold.Chemscore.Internal.Correction>
   9.000000E+99

> <Gold.Chemscore.Hbonds>
donor molecule, donor type, donor heavy atom, donor atom, acceptor molecule, acceptor atom, score
      L1  H     8    26       P1  7948  0.99
      L1  H    11    46       P1  7948  1.00
      P1  H  7997  8008       L1    20  0.29

> <Gold.Chemscore.Hbond.Weighted>
-9.0250

> <Gold.Chemscore.Metal.Weighted>
-0.0000

> <Gold.Chemscore.Lipo.Weighted>
-7.0865

> <Gold.Chemscore.Internal_Hbond.Weighted>
0.0000

> <Gold.Chemscore.DEClash.Weighted>
0.6258

> <Gold.Chemscore.DEInternal.Weighted>
1.3902

> <Gold.Chemscore.Rot.Weighted>
3.8018

> <Gold.Chemscore.Internal.Correction.Weighted>
   9.000000E+99

> <Gold.Protein.RotatedTorsions>
[ 6907 6896 6895 6894 ] final  -77.72 input  -60.11 | X-H torsion
[ 7974 7965 7964 7962 ] final  -98.14 input  175.53 | X-H torsion
[ 8008 7997 7996 7995 ] final  -33.93 input   59.86 | X-H torsion
[ 10167 10162 10161 10158 ] final  -14.00 input  -65.29 | X-H torsion
[ 10718 10713 10712 10709 ] final  -30.97 input   66.30 | X-H torsion
[ 10763 10752 10751 10750 ] final   38.62 input  -60.55 | X-H torsion
[ 11005 11000 10999 10996 ] final  133.37 input  -57.11 | X-H torsion

> <Gold.Protein.ActiveResidues>
 VAL166  LYS551  ARG553  GLY616  TRP617  ASP618  TYR619  PRO620  LYS621  CYS622 
 ASP623  PHE694  ASN695  SER759  ASP760  ASP761  ALA762  ILE779  LEU786  VAL792 
 PHE793  MET794  SER795  GLU796  ALA797  LYS798  CYS799  TRP800  GLU811  SER814 

> <Gold.Protein.RotatedAtoms>
  150.6991  134.4381  159.5278 H   0  0  0  0  0  0  0  0  0  0  0  0  # atno 6907 bound_to 6896
  152.2095  134.8511  160.0508 H   0  0  0  0  0  0  0  0  0  0  0  0  # atno 6908 bound_to 6896
  151.9402  133.3600  159.3999 H   0  0  0  0  0  0  0  0  0  0  0  0  # atno 6909 bound_to 6896
  145.3245  140.9429  143.2697 H   0  0  0  0  0  0  0  0  0  0  0  0  # atno 7974 bound_to 7965
  154.4135  140.1697  156.1967 H   0  0  0  0  0  0  0  0  0  0  0  0  # atno 8008 bound_to 7997
  155.9558  140.3397  155.6424 H   0  0  0  0  0  0  0  0  0  0  0  0  # atno 8009 bound_to 7997
  155.6812  140.0723  157.2474 H   0  0  0  0  0  0  0  0  0  0  0  0  # atno 8010 bound_to 7997
  140.7193  143.5367  150.9456 H   0  0  0  0  0  0  0  0  0  0  0  0  # atno 10167 bound_to 10162
  156.3931  130.4376  149.7379 H   0  0  0  0  0  0  0  0  0  0  0  0  # atno 10718 bound_to 10713
  152.9995  135.6244  154.2334 H   0  0  0  0  0  0  0  0  0  0  0  0  # atno 10763 bound_to 10752
  154.2076  135.2801  155.2971 H   0  0  0  0  0  0  0  0  0  0  0  0  # atno 10764 bound_to 10752
  154.5633  135.5698  153.7086 H   0  0  0  0  0  0  0  0  0  0  0  0  # atno 10765 bound_to 10752
  139.9848  134.9536  156.9715 H   0  0  0  0  0  0  0  0  0  0  0  0  # atno 11005 bound_to 11000
  144.8913  139.4771  143.6676 LP  0  0  0  0  0  0  0  0  0  0  0  0  # atno 17320 bound_to 7965
  146.3069  139.7612  142.9049 LP  0  0  0  0  0  0  0  0  0  0  0  0  # atno 17321 bound_to 7965
  139.9089  143.6745  152.3118 LP  0  0  0  0  0  0  0  0  0  0  0  0  # atno 17342 bound_to 10162
  139.7121  144.7618  151.1095 LP  0  0  0  0  0  0  0  0  0  0  0  0  # atno 17343 bound_to 10162
  156.4425  130.7868  151.2889 LP  0  0  0  0  0  0  0  0  0  0  0  0  # atno 17370 bound_to 10713
  157.7500  131.0120  150.3369 LP  0  0  0  0  0  0  0  0  0  0  0  0  # atno 17371 bound_to 10713
  140.5025  134.1083  155.7253 LP  0  0  0  0  0  0  0  0  0  0  0  0  # atno 17394 bound_to 11000
  141.1514  133.8961  157.2087 LP  0  0  0  0  0  0  0  0  0  0  0  0  # atno 17395 bound_to 11000

$$$$
