AV-unprocessed.smi:3324|AV-procd|sdf|12782|dock2
  -GOLD-   2272019123D 1   1.00000     0.00000
 Structure written by MMmdl.
 30 30  0  0  0  0  0  0  0  0  1 V2000
  147.7175  138.3750  153.7854 O   0  0  0  0  0  0  0  0  0  0  0  0
  146.6986  138.7739  153.2224 C   0  0  0  0  0  0  0  0  0  0  0  0
  146.2431  138.1255  151.9164 C   0  0  0  0  0  0  0  0  0  0  0  0
  144.8565  137.6568  152.0030 N   0  0  0  0  0  0  0  0  0  0  0  0
  144.8065  136.2033  152.0316 C   0  0  0  0  0  0  0  0  0  0  0  0
  144.9158  135.6628  150.5988 C   0  0  0  0  0  0  0  0  0  0  0  0
  145.0166  134.2167  150.5816 N   0  0  0  0  0  0  0  0  0  0  0  0
  144.0587  133.2961  150.2128 C   0  0  0  0  0  0  0  0  0  0  0  0
  144.6085  132.0554  150.3646 C   0  0  0  0  0  0  0  0  0  0  0  0
  145.9231  132.3243  150.8390 C   0  0  0  0  0  0  0  0  0  0  0  0
  146.1631  133.6189  150.9712 N   0  0  0  0  0  0  0  0  0  0  0  0
  145.9327  139.7694  153.6941 N   0  0  0  0  0  0  0  0  0  0  0  0
  146.1822  140.5150  154.9234 C   0  0  0  0  0  0  0  0  0  0  0  0
  146.8426  141.8765  154.6490 C   0  0  0  0  0  0  0  0  0  0  0  0
  146.9793  142.5346  155.7994 F   0  0  0  0  0  0  0  0  0  0  0  0
  148.0498  141.7033  154.1101 F   0  0  0  0  0  0  0  0  0  0  0  0
  146.0952  142.6114  153.8253 F   0  0  0  0  0  0  0  0  0  0  0  0
  146.3400  138.8440  151.1006 H   0  0  0  0  0  0  0  0  0  0  0  0
  146.9072  137.2891  151.6923 H   0  0  0  0  0  0  0  0  0  0  0  0
  144.3089  137.9895  151.2218 H   0  0  0  0  0  0  0  0  0  0  0  0
  145.6238  135.8169  152.6430 H   0  0  0  0  0  0  0  0  0  0  0  0
  143.8708  135.8723  152.4849 H   0  0  0  0  0  0  0  0  0  0  0  0
  144.0414  135.9521  150.0140 H   0  0  0  0  0  0  0  0  0  0  0  0
  145.7874  136.0826  150.0937 H   0  0  0  0  0  0  0  0  0  0  0  0
  143.0772  133.5975  149.8777 H   0  0  0  0  0  0  0  0  0  0  0  0
  144.1428  131.1014  150.1669 H   0  0  0  0  0  0  0  0  0  0  0  0
  146.7045  131.6221  151.0903 H   0  0  0  0  0  0  0  0  0  0  0  0
  145.1145  140.0275  153.1616 H   0  0  0  0  0  0  0  0  0  0  0  0
  145.2568  140.6478  155.4864 H   0  0  0  0  0  0  0  0  0  0  0  0
  146.8374  139.9108  155.5515 H   0  0  0  0  0  0  0  0  0  0  0  0
  1  2  2  0  0  0  0
  2  3  1  0  0  0  0
  2 12  1  0  0  0  0
  3  4  1  0  0  0  0
  3 18  1  0  0  0  0
  3 19  1  0  0  0  0
  4  5  1  0  0  0  0
  4 20  1  0  0  0  0
  5  6  1  0  0  0  0
  5 21  1  0  0  0  0
  5 22  1  0  0  0  0
  6  7  1  0  0  0  0
  6 23  1  0  0  0  0
  6 24  1  0  0  0  0
  7 11  1  0  0  0  0
  7  8  1  0  0  0  0
  8  9  2  0  0  0  0
  8 25  1  0  0  0  0
  9 10  1  0  0  0  0
  9 26  1  0  0  0  0
 10 11  2  0  0  0  0
 10 27  1  0  0  0  0
 12 13  1  0  0  0  0
 12 28  1  0  0  0  0
 13 14  1  0  0  0  0
 13 29  1  0  0  0  0
 13 30  1  0  0  0  0
 14 15  1  0  0  0  0
 14 16  1  0  0  0  0
 14 17  1  0  0  0  0
M  END
> <s_m_source_file>
AV-unprocessed.smi

> <i_m_source_file_index>
3324

> <i_lp_mmshare_version>
43012

> <i_f3d_flags>
0

> <s_epik_input>
RkMoRikoRilbQ0gyXVtOSF1DKD1PKVtDSDJdW05IXVtDSDJdW0NIMl1uMVtjSF1bY0hdW2NIXW4x

> <s_epik_cmdline>
J2VwaWtfcHl0aG9uJywgJy1waCcsICc3LjAnLCAnLXRuJywgJzgnLCAnLW1hJywgJzIwMCcsICctbWV0YWxfYmluZGluZycsICctaW1hZScsICc8aW5maWxlLm1hZT4nLCAnLW9tYWUnLCAnPG91dGZpbGUubWFlPic=

> <r_lp_tautomer_probability>
1

> <r_epik_Ionization_Penalty>
0.533356

> <r_epik_Ionization_Penalty_Charging>
0

> <r_epik_Ionization_Penalty_Neutral>
0.533356

> <r_epik_State_Penalty>
0.540813

> <r_epik_Charging_Adjusted_Penalty>
0.540813

> <i_epik_Tot_Q>
0

> <i_epik_Tot_abs_Q>
0

> <r_epik_Metal_State_Penalty>
0.549553

> <b_epik_Metal_Only>
0

> <s_lp_Force_Field>
OPLS_2005

> <r_lp_Energy>
3.03628

> <b_lp_Chiralities_Consistent>
1

> <s_lp_Variant>
AV-unprocessed.smi:3324-2

> <Gold.Version>
5.8.1

> <Gold.Id.Protein>
6NUR|6NUR_protein|mol2

> <Gold.PLP.Fitness>
44.2222

> <Gold.PLP.PLP>
-33.5894

> <Gold.PLP.part.hbond>
-2.9089

> <Gold.PLP.part.metal>
0.0000

> <Gold.PLP.part.buried>
-1.7658

> <Gold.PLP.part.nonpolar>
-29.7664

> <Gold.PLP.part.repulsive>
0.3751

> <Gold.PLP.ligand.clash>
0.0000

> <Gold.PLP.ligand.torsion>
0.8034

> <Gold.PLP.Chemscore.Hbond>
2.0000

> <Gold.PLP.Chemscore.CHOScore>
1.9998

> <Gold.PLP.Chemscore.Metal>
0.0000

> <Gold.Chemscore.Hbonds>
donor molecule, donor type, donor heavy atom, donor atom, acceptor molecule, acceptor atom, score
      L1  H     4    20       P1 10171  1.00
      L1  H    12    28       P1 10175  1.00
      L1  C     8    25       P1 10186  1.00
      L1  C    10    27       P1 10747  1.00

> <Gold.PLP.Chemscore.Internal.Correction>
0.2400

> <Gold.Rescore>
     Score         DG    S(hbond)    S(metal)    S(lipo)     H(rot)  DE(clash)    DE(int)     intcor
     10.81     -11.48       2.00        0.00      56.22       2.83       0.03       0.65       ----

> <Gold.Chemscore.Fitness>
10.8098

> <Gold.Chemscore.DG>
-11.4833

> <Gold.Chemscore.ZeroCoef>
-5.4800

> <Gold.Chemscore.Hbond>
1.9975

> <Gold.Chemscore.Metal>
0.0000

> <Gold.Chemscore.Lipo>
56.2202

> <Gold.Chemscore.Internal_Hbond>
0.0000

> <Gold.Chemscore.DEClash>
0.0263

> <Gold.Chemscore.DEInternal>
0.6472

> <Gold.Chemscore.Rot>
2.8305

> <Gold.Chemscore.Internal.Correction>
   9.000000E+99

> <Gold.Chemscore.Hbonds>
donor molecule, donor type, donor heavy atom, donor atom, acceptor molecule, acceptor atom, score
      L1  H     4    20       P1 10171  0.98
      L1  H    12    28       P1 10175  1.00

> <Gold.Chemscore.Hbond.Weighted>
-6.6717

> <Gold.Chemscore.Metal.Weighted>
-0.0000

> <Gold.Chemscore.Lipo.Weighted>
-6.5778

> <Gold.Chemscore.Internal_Hbond.Weighted>
0.0000

> <Gold.Chemscore.DEClash.Weighted>
0.0263

> <Gold.Chemscore.DEInternal.Weighted>
0.6472

> <Gold.Chemscore.Rot.Weighted>
7.2461

> <Gold.Chemscore.Internal.Correction.Weighted>
   9.000000E+99

> <Gold.Protein.RotatedTorsions>
[ 6907 6896 6895 6894 ] final  111.39 input  -60.11 | X-H torsion
[ 7974 7965 7964 7962 ] final  165.39 input  175.53 | X-H torsion
[ 8008 7997 7996 7995 ] final   52.93 input   59.86 | X-H torsion
[ 10167 10162 10161 10158 ] final -153.75 input  -65.29 | X-H torsion
[ 10718 10713 10712 10709 ] final  -80.24 input   66.30 | X-H torsion
[ 10763 10752 10751 10750 ] final -157.17 input  -60.55 | X-H torsion
[ 11005 11000 10999 10996 ] final   35.98 input  -57.11 | X-H torsion

> <Gold.Protein.ActiveResidues>
 VAL166  LYS551  ARG553  GLY616  TRP617  ASP618  TYR619  PRO620  LYS621  CYS622 
 ASP623  PHE694  ASN695  SER759  ASP760  ASP761  ALA762  ILE779  LEU786  VAL792 
 PHE793  MET794  SER795  GLU796  ALA797  LYS798  CYS799  TRP800  GLU811  SER814 

> <Gold.Protein.RotatedAtoms>
  152.4972  133.8665  159.7276 H   0  0  0  0  0  0  0  0  0  0  0  0  # atno 6907 bound_to 6896
  150.9163  133.6926  159.2849 H   0  0  0  0  0  0  0  0  0  0  0  0  # atno 6908 bound_to 6896
  151.4319  135.1015  159.9697 H   0  0  0  0  0  0  0  0  0  0  0  0  # atno 6909 bound_to 6896
  144.7505  139.8463  143.6368 H   0  0  0  0  0  0  0  0  0  0  0  0  # atno 7974 bound_to 7965
  155.4599  140.3461  155.4311 H   0  0  0  0  0  0  0  0  0  0  0  0  # atno 8008 bound_to 7997
  156.1168  140.1476  156.9291 H   0  0  0  0  0  0  0  0  0  0  0  0  # atno 8009 bound_to 7997
  154.4794  140.0874  156.7321 H   0  0  0  0  0  0  0  0  0  0  0  0  # atno 8010 bound_to 7997
  139.7070  143.9170  152.2453 H   0  0  0  0  0  0  0  0  0  0  0  0  # atno 10167 bound_to 10162
  156.0074  130.4568  150.3770 H   0  0  0  0  0  0  0  0  0  0  0  0  # atno 10718 bound_to 10713
  154.7657  135.3130  154.8291 H   0  0  0  0  0  0  0  0  0  0  0  0  # atno 10763 bound_to 10752
  153.9040  135.6813  153.4758 H   0  0  0  0  0  0  0  0  0  0  0  0  # atno 10764 bound_to 10752
  153.1262  135.4800  154.9209 H   0  0  0  0  0  0  0  0  0  0  0  0  # atno 10765 bound_to 10752
  140.2371  134.3458  155.7940 H   0  0  0  0  0  0  0  0  0  0  0  0  # atno 11005 bound_to 11000
  146.1447  139.4513  143.0086 LP  0  0  0  0  0  0  0  0  0  0  0  0  # atno 17320 bound_to 7965
  145.6963  141.0149  143.1528 LP  0  0  0  0  0  0  0  0  0  0  0  0  # atno 17321 bound_to 7965
  139.9028  144.6902  150.8646 LP  0  0  0  0  0  0  0  0  0  0  0  0  # atno 17342 bound_to 10162
  140.7724  143.3501  151.2032 LP  0  0  0  0  0  0  0  0  0  0  0  0  # atno 17343 bound_to 10162
  157.1851  131.0402  151.2728 LP  0  0  0  0  0  0  0  0  0  0  0  0  # atno 17370 bound_to 10713
  157.4111  130.7385  149.6839 LP  0  0  0  0  0  0  0  0  0  0  0  0  # atno 17371 bound_to 10713
  141.2213  133.7278  156.8826 LP  0  0  0  0  0  0  0  0  0  0  0  0  # atno 17394 bound_to 11000
  140.1690  134.9113  157.2810 LP  0  0  0  0  0  0  0  0  0  0  0  0  # atno 17395 bound_to 11000

$$$$
