AV-unprocessed.smi:6|AV-procd|sdf|39|dock10
  -GOLD-   2262015153D 1   1.00000     0.00000
 Structure written by MMmdl.
 37 38  0  0  0  0  0  0  0  0  1 V2000
  147.5805  141.9864  154.3553 C   0  0  0  0  0  0  0  0  0  0  0  0
  148.5581  140.8395  154.0561 C   0  0  0  0  0  0  0  0  0  0  0  0
  147.8704  139.4683  153.9709 C   0  0  0  0  0  0  0  0  0  0  0  0
  149.7379  140.8284  155.0198 C   0  0  0  0  0  0  0  0  0  0  0  0
  150.6924  139.9157  154.8058 N   0  0  0  0  0  0  0  0  0  0  0  0
  151.7341  139.9081  155.6646 C   0  0  0  0  0  0  0  0  0  0  0  0
  151.8193  140.8185  156.7373 C   0  0  0  0  0  0  0  0  0  0  0  0
  150.7605  141.7405  156.8676 C   0  0  0  0  0  0  0  0  0  0  0  0
  150.7844  142.6732  157.9134 N   0  0  0  0  0  0  0  0  0  0  0  0
  152.0355  143.3347  158.2622 C   0  0  0  0  0  0  0  0  0  0  0  0
  152.3660  143.2392  159.7432 C   0  0  0  0  0  0  0  0  0  0  0  0
  153.1794  142.2693  160.2330 C   0  0  0  0  0  0  0  0  0  0  0  0
  153.5262  142.1642  161.5707 N   0  0  0  0  0  0  0  0  0  0  0  0
  154.3831  141.1299  162.0823 C   0  0  0  0  0  0  0  0  0  0  0  0
  153.0356  143.1057  162.4991 C   0  0  0  0  0  0  0  0  0  0  0  0
  153.3059  143.0711  163.7000 O   0  0  0  0  0  0  0  0  0  0  0  0
  152.2102  144.1096  161.9946 N   0  0  0  0  0  0  0  0  0  0  0  0
  151.8300  144.2555  160.6568 C   0  0  0  0  0  0  0  0  0  0  0  0
  151.0980  145.1895  160.3341 O   0  0  0  0  0  0  0  0  0  0  0  0
  149.7200  141.7367  156.0011 N   0  0  0  0  0  0  0  0  0  0  0  0
  151.8578  144.7905  162.6518 H   0  0  0  0  0  0  0  0  0  0  0  0
  148.0906  142.9499  154.3356 H   0  0  0  0  0  0  0  0  0  0  0  0
  147.1202  141.8725  155.3373 H   0  0  0  0  0  0  0  0  0  0  0  0
  146.7796  142.0214  153.6164 H   0  0  0  0  0  0  0  0  0  0  0  0
  148.9596  141.0380  153.0605 H   0  0  0  0  0  0  0  0  0  0  0  0
  148.5786  138.6938  153.6748 H   0  0  0  0  0  0  0  0  0  0  0  0
  147.0658  139.4785  153.2354 H   0  0  0  0  0  0  0  0  0  0  0  0
  147.4395  139.1779  154.9294 H   0  0  0  0  0  0  0  0  0  0  0  0
  152.5049  139.1710  155.4953 H   0  0  0  0  0  0  0  0  0  0  0  0
  152.6554  140.8060  157.4209 H   0  0  0  0  0  0  0  0  0  0  0  0
  150.0552  142.6320  158.6105 H   0  0  0  0  0  0  0  0  0  0  0  0
  152.8422  142.8925  157.6762 H   0  0  0  0  0  0  0  0  0  0  0  0
  151.9863  144.3889  157.9858 H   0  0  0  0  0  0  0  0  0  0  0  0
  153.5757  141.5396  159.5409 H   0  0  0  0  0  0  0  0  0  0  0  0
  153.8186  140.5692  162.8302 H   0  0  0  0  0  0  0  0  0  0  0  0
  155.2659  141.6115  162.5080 H   0  0  0  0  0  0  0  0  0  0  0  0
  154.6677  140.4777  161.2559 H   0  0  0  0  0  0  0  0  0  0  0  0
  1  2  1  0  0  0  0
  1 22  1  0  0  0  0
  1 23  1  0  0  0  0
  1 24  1  0  0  0  0
  2  3  1  0  0  0  0
  2  4  1  0  0  0  0
  2 25  1  0  0  0  0
  3 26  1  0  0  0  0
  3 27  1  0  0  0  0
  3 28  1  0  0  0  0
  4 20  1  0  0  0  0
  4  5  2  0  0  0  0
  5  6  1  0  0  0  0
  6  7  2  0  0  0  0
  6 29  1  0  0  0  0
  7  8  1  0  0  0  0
  7 30  1  0  0  0  0
  8  9  1  0  0  0  0
  8 20  2  0  0  0  0
  9 10  1  0  0  0  0
  9 31  1  0  0  0  0
 10 11  1  0  0  0  0
 10 32  1  0  0  0  0
 10 33  1  0  0  0  0
 11 18  1  0  0  0  0
 11 12  2  0  0  0  0
 12 13  1  0  0  0  0
 12 34  1  0  0  0  0
 13 14  1  0  0  0  0
 13 15  1  0  0  0  0
 14 35  1  0  0  0  0
 14 36  1  0  0  0  0
 14 37  1  0  0  0  0
 15 16  2  0  0  0  0
 15 17  1  0  0  0  0
 17 21  1  0  0  0  0
 17 18  1  0  0  0  0
 18 19  2  0  0  0  0
M  END
> <s_m_source_file>
AV-unprocessed.smi

> <i_m_source_file_index>
6

> <i_lp_mmshare_version>
43012

> <i_f3d_flags>
0

> <s_epik_input>
W0NIM11bQ0hdKFtDSDNdKWMxbltjSF1bY0hdYyhuMSlbTkhdW0NIMl1jMltjSF1uKFtDSDNdKWMoPU8pW25IXWMyPU8=

> <s_epik_cmdline>
J2VwaWtfcHl0aG9uJywgJy1waCcsICc3LjAnLCAnLXRuJywgJzgnLCAnLW1hJywgJzIwMCcsICctbWV0YWxfYmluZGluZycsICctaW1hZScsICc8aW5maWxlLm1hZT4nLCAnLW9tYWUnLCAnPG91dGZpbGUubWFlPic=

> <r_lp_tautomer_probability>
0.999537

> <r_epik_Ionization_Penalty>
0.308056

> <r_epik_Ionization_Penalty_Charging>
0.000755917

> <r_epik_Ionization_Penalty_Neutral>
0.3073

> <r_epik_State_Penalty>
0.300752

> <r_epik_Charging_Adjusted_Penalty>
0.301508

> <i_epik_Tot_Q>
0

> <i_epik_Tot_abs_Q>
0

> <r_epik_Metal_State_Penalty>
0.395738

> <b_epik_Metal_Only>
0

> <s_lp_Force_Field>
OPLS_2005

> <r_lp_Energy>
3.35028

> <b_lp_Chiralities_Consistent>
1

> <s_lp_Variant>
AV-unprocessed.smi:6-1

> <Gold.Version>
5.8.1

> <Gold.Id.Protein>
6NUR|6NUR_protein|mol2

> <Gold.PLP.Fitness>
48.6733

> <Gold.PLP.PLP>
-48.3030

> <Gold.PLP.part.hbond>
-2.4141

> <Gold.PLP.part.metal>
0.0000

> <Gold.PLP.part.buried>
-5.8822

> <Gold.PLP.part.nonpolar>
-39.6674

> <Gold.PLP.part.repulsive>
0.7061

> <Gold.PLP.ligand.clash>
0.0000

> <Gold.PLP.ligand.torsion>
0.7530

> <Gold.PLP.Chemscore.Hbond>
0.6000

> <Gold.PLP.Chemscore.CHOScore>
0.0000

> <Gold.PLP.Chemscore.Metal>
0.0000

> <Gold.Chemscore.Hbonds>
donor molecule, donor type, donor heavy atom, donor atom, acceptor molecule, acceptor atom, score
      P1  H  7989  7998       L1     5  0.60

> <Gold.PLP.Chemscore.Internal.Correction>
0.0762

> <Gold.Rescore>
     Score         DG    S(hbond)    S(metal)    S(lipo)     H(rot)  DE(clash)    DE(int)     intcor
      9.49     -10.21       0.00        0.00      76.55       1.65       0.04       0.68       ----

> <Gold.Chemscore.Fitness>
9.4879

> <Gold.Chemscore.DG>
-10.2138

> <Gold.Chemscore.ZeroCoef>
-5.4800

> <Gold.Chemscore.Hbond>
0.0015

> <Gold.Chemscore.Metal>
0.0000

> <Gold.Chemscore.Lipo>
76.5498

> <Gold.Chemscore.Internal_Hbond>
0.0000

> <Gold.Chemscore.DEClash>
0.0409

> <Gold.Chemscore.DEInternal>
0.6849

> <Gold.Chemscore.Rot>
1.6514

> <Gold.Chemscore.Internal.Correction>
   9.000000E+99

> <Gold.Chemscore.Hbonds>
donor molecule, donor type, donor heavy atom, donor atom, acceptor molecule, acceptor atom, score
      P1  H  7989  7998       L1     5  0.01

> <Gold.Chemscore.Hbond.Weighted>
-0.0050

> <Gold.Chemscore.Metal.Weighted>
-0.0000

> <Gold.Chemscore.Lipo.Weighted>
-8.9563

> <Gold.Chemscore.Internal_Hbond.Weighted>
0.0000

> <Gold.Chemscore.DEClash.Weighted>
0.0409

> <Gold.Chemscore.DEInternal.Weighted>
0.6849

> <Gold.Chemscore.Rot.Weighted>
4.2275

> <Gold.Chemscore.Internal.Correction.Weighted>
   9.000000E+99

> <Gold.Protein.RotatedTorsions>
[ 6907 6896 6895 6894 ] final  127.15 input  -60.11 | X-H torsion
[ 7974 7965 7964 7962 ] final -163.23 input  175.53 | X-H torsion
[ 8008 7997 7996 7995 ] final -132.88 input   59.86 | X-H torsion
[ 10167 10162 10161 10158 ] final -161.84 input  -65.29 | X-H torsion
[ 10718 10713 10712 10709 ] final  128.02 input   66.30 | X-H torsion
[ 10763 10752 10751 10750 ] final  116.25 input  -60.55 | X-H torsion
[ 11005 11000 10999 10996 ] final   14.20 input  -57.11 | X-H torsion

> <Gold.Protein.ActiveResidues>
 VAL166  LYS551  ARG553  GLY616  TRP617  ASP618  TYR619  PRO620  LYS621  CYS622 
 ASP623  PHE694  ASN695  SER759  ASP760  ASP761  ALA762  ILE779  LEU786  VAL792 
 PHE793  MET794  SER795  GLU796  ALA797  LYS798  CYS799  TRP800  GLU811  SER814 

> <Gold.Protein.RotatedAtoms>
  152.3839  133.6584  159.6182 H   0  0  0  0  0  0  0  0  0  0  0  0  # atno 6907 bound_to 6896
  150.7763  133.9068  159.3366 H   0  0  0  0  0  0  0  0  0  0  0  0  # atno 6908 bound_to 6896
  151.6868  135.0954  160.0277 H   0  0  0  0  0  0  0  0  0  0  0  0  # atno 6909 bound_to 6896
  144.7332  140.3137  143.6183 H   0  0  0  0  0  0  0  0  0  0  0  0  # atno 7974 bound_to 7965
  155.3363  140.0469  157.3044 H   0  0  0  0  0  0  0  0  0  0  0  0  # atno 8008 bound_to 7997
  154.5301  140.2254  155.8785 H   0  0  0  0  0  0  0  0  0  0  0  0  # atno 8009 bound_to 7997
  156.1780  140.3080  155.9101 H   0  0  0  0  0  0  0  0  0  0  0  0  # atno 8010 bound_to 7997
  139.6436  144.0214  152.2110 H   0  0  0  0  0  0  0  0  0  0  0  0  # atno 10167 bound_to 10162
  157.5282  131.1098  150.9050 H   0  0  0  0  0  0  0  0  0  0  0  0  # atno 10718 bound_to 10713
  153.5345  135.3571  155.2690 H   0  0  0  0  0  0  0  0  0  0  0  0  # atno 10763 bound_to 10752
  154.8723  135.4076  154.3114 H   0  0  0  0  0  0  0  0  0  0  0  0  # atno 10764 bound_to 10752
  153.3809  135.7068  153.6634 H   0  0  0  0  0  0  0  0  0  0  0  0  # atno 10765 bound_to 10752
  140.4721  134.1020  155.7734 H   0  0  0  0  0  0  0  0  0  0  0  0  # atno 11005 bound_to 11000
  145.7639  139.1834  143.2251 LP  0  0  0  0  0  0  0  0  0  0  0  0  # atno 17320 bound_to 7965
  146.0965  140.7595  142.9570 LP  0  0  0  0  0  0  0  0  0  0  0  0  # atno 17321 bound_to 7965
  139.9910  144.6361  150.7814 LP  0  0  0  0  0  0  0  0  0  0  0  0  # atno 17342 bound_to 10162
  140.7503  143.2953  151.3221 LP  0  0  0  0  0  0  0  0  0  0  0  0  # atno 17343 bound_to 10162
  156.9640  130.5466  149.5287 LP  0  0  0  0  0  0  0  0  0  0  0  0  # atno 17370 bound_to 10713
  156.0402  130.5486  150.8753 LP  0  0  0  0  0  0  0  0  0  0  0  0  # atno 17371 bound_to 10713
  141.1572  133.8861  157.1946 LP  0  0  0  0  0  0  0  0  0  0  0  0  # atno 17394 bound_to 11000
  139.9878  135.0075  156.9905 LP  0  0  0  0  0  0  0  0  0  0  0  0  # atno 17395 bound_to 11000

$$$$
