AV-unprocessed.smi:924|AV-procd|sdf|4179|dock8
  -GOLD-   22720 2 83D 1   1.00000     0.00000
 Structure written by MMmdl.
 46 49  0  0  0  0  0  0  0  0  1 V2000
  151.5880  136.7708  159.3391 O   0  0  0  0  0  0  0  0  0  0  0  0
  150.8266  137.6900  159.0337 C   0  0  0  0  0  0  0  0  0  0  0  0
  151.3505  139.1182  158.8269 C   0  0  0  0  0  0  0  0  0  0  0  0
  150.9395  139.7042  157.5425 N   0  0  0  0  0  0  0  0  0  0  0  0
  151.3721  139.1376  156.3519 C   0  0  0  0  0  0  0  0  0  0  0  0
  151.0527  139.6300  155.1317 C   0  0  0  0  0  0  0  0  0  0  0  0
  150.2121  140.8162  155.0112 C   0  0  0  0  0  0  0  0  0  0  0  0
  149.8658  141.3353  153.9524 O   0  0  0  0  0  0  0  0  0  0  0  0
  149.8005  141.3598  156.2310 N   0  0  0  0  0  0  0  0  0  0  0  0
  150.1297  140.8600  157.4921 C   0  0  0  0  0  0  0  0  0  0  0  0
  149.7200  141.4239  158.5062 O   0  0  0  0  0  0  0  0  0  0  0  0
  149.5087  137.5199  158.8467 N   0  0  0  0  0  0  0  0  0  0  0  0
  148.7910  136.2503  158.9411 C   0  0  0  0  0  0  0  0  0  0  0  0
  147.8233  136.1801  160.1500 C   0  0  0  0  0  0  0  0  0  0  0  0
  148.5514  136.5465  161.4725 C   0  0  0  0  0  0  0  0  0  0  0  0
  147.5840  136.4278  162.6703 C   0  0  1  0  0  0  0  0  0  0  0  0
  146.3946  137.3908  162.4711 C   0  0  0  0  0  0  0  0  0  0  0  0
  145.6484  137.0158  161.1733 C   0  0  2  0  0  0  0  0  0  0  0  0
  145.1255  135.5684  161.2746 C   0  0  0  0  0  0  0  0  0  0  0  0
  146.3188  134.6122  161.4763 C   0  0  2  0  0  0  0  0  0  0  0  0
  147.0646  134.9791  162.7759 C   0  0  0  0  0  0  0  0  0  0  0  0
  147.2826  134.7312  160.2765 C   0  0  0  0  0  0  0  0  0  0  0  0
  146.6110  137.1362  159.9728 C   0  0  0  0  0  0  0  0  0  0  0  0
  149.2200  142.1851  156.1973 H   0  0  0  0  0  0  0  0  0  0  0  0
  150.9881  139.7453  159.6434 H   0  0  0  0  0  0  0  0  0  0  0  0
  152.4370  139.1150  158.9307 H   0  0  0  0  0  0  0  0  0  0  0  0
  152.0016  138.2598  156.3952 H   0  0  0  0  0  0  0  0  0  0  0  0
  151.4222  139.1444  154.2402 H   0  0  0  0  0  0  0  0  0  0  0  0
  148.9599  138.3308  158.6006 H   0  0  0  0  0  0  0  0  0  0  0  0
  148.2532  136.0434  158.0142 H   0  0  0  0  0  0  0  0  0  0  0  0
  149.5408  135.4631  159.0279 H   0  0  0  0  0  0  0  0  0  0  0  0
  149.4107  135.8920  161.6240 H   0  0  0  0  0  0  0  0  0  0  0  0
  148.9461  137.5621  161.4273 H   0  0  0  0  0  0  0  0  0  0  0  0
  148.1115  136.6900  163.5879 H   0  0  0  0  0  0  0  0  0  0  0  0
  145.7182  137.3380  163.3251 H   0  0  0  0  0  0  0  0  0  0  0  0
  146.7474  138.4218  162.4202 H   0  0  0  0  0  0  0  0  0  0  0  0
  144.8071  137.6950  161.0314 H   0  0  0  0  0  0  0  0  0  0  0  0
  144.4227  135.4772  162.1038 H   0  0  0  0  0  0  0  0  0  0  0  0
  144.5745  135.3013  160.3720 H   0  0  0  0  0  0  0  0  0  0  0  0
  145.9527  133.5874  161.5464 H   0  0  0  0  0  0  0  0  0  0  0  0
  147.8940  134.2906  162.9437 H   0  0  0  0  0  0  0  0  0  0  0  0
  146.4007  134.8768  163.6350 H   0  0  0  0  0  0  0  0  0  0  0  0
  146.7671  134.4389  159.3604 H   0  0  0  0  0  0  0  0  0  0  0  0
  148.1084  134.0286  160.3976 H   0  0  0  0  0  0  0  0  0  0  0  0
  146.9426  138.1712  159.8886 H   0  0  0  0  0  0  0  0  0  0  0  0
  146.0824  136.9085  159.0462 H   0  0  0  0  0  0  0  0  0  0  0  0
  1  2  2  0  0  0  0
  2  3  1  0  0  0  0
  2 12  1  0  0  0  0
  3  4  1  0  0  0  0
  3 25  1  0  0  0  0
  3 26  1  0  0  0  0
  4 10  1  0  0  0  0
  4  5  1  0  0  0  0
  5  6  2  0  0  0  0
  5 27  1  0  0  0  0
  6  7  1  0  0  0  0
  6 28  1  0  0  0  0
  7  8  2  0  0  0  0
  7  9  1  0  0  0  0
  9 24  1  0  0  0  0
  9 10  1  0  0  0  0
 10 11  2  0  0  0  0
 12 13  1  0  0  0  0
 12 29  1  0  0  0  0
 13 14  1  0  0  0  0
 13 30  1  0  0  0  0
 13 31  1  0  0  0  0
 14 22  1  0  0  0  0
 14 23  1  0  0  0  0
 14 15  1  0  0  0  0
 15 16  1  0  0  0  0
 15 32  1  0  0  0  0
 15 33  1  0  0  0  0
 16 21  1  0  0  0  0
 16 17  1  0  0  0  0
 16 34  1  0  0  0  0
 17 18  1  0  0  0  0
 17 35  1  0  0  0  0
 17 36  1  0  0  0  0
 18 19  1  0  0  0  0
 18 23  1  0  0  0  0
 18 37  1  0  0  0  0
 19 20  1  0  0  0  0
 19 38  1  0  0  0  0
 19 39  1  0  0  0  0
 20 21  1  0  0  0  0
 20 22  1  0  0  0  0
 20 40  1  0  0  0  0
 21 41  1  0  0  0  0
 21 42  1  0  0  0  0
 22 43  1  0  0  0  0
 22 44  1  0  0  0  0
 23 45  1  0  0  0  0
 23 46  1  0  0  0  0
M  END
> <s_m_source_file>
AV-unprocessed.smi

> <i_m_source_file_index>
924

> <i_lp_mmshare_version>
43012

> <i_f3d_flags>
0

> <s_epik_input>
Tz1jMVtuSF1jKD1PKVtjSF1bY0hdbjFbQ0gyXUMoPU8pW05IXVtDSDJdQzIzW0NIMl1bQ0BIXTRbQ0gyXVtDQEBIXShbQ0gyXTMpW0NIMl1bQ0BIXShbQ0gyXTQpW0NIMl0y

> <s_epik_cmdline>
J2VwaWtfcHl0aG9uJywgJy1waCcsICc3LjAnLCAnLXRuJywgJzgnLCAnLW1hJywgJzIwMCcsICctbWV0YWxfYmluZGluZycsICctaW1hZScsICc8aW5maWxlLm1hZT4nLCAnLW9tYWUnLCAnPG91dGZpbGUubWFlPic=

> <r_lp_tautomer_probability>
0.999537

> <r_epik_Ionization_Penalty>
0.00304541

> <r_epik_Ionization_Penalty_Charging>
0.00304539

> <r_epik_Ionization_Penalty_Neutral>
1.85865e-08

> <r_epik_State_Penalty>
0.00214042

> <r_epik_Charging_Adjusted_Penalty>
0.00518582

> <i_epik_Tot_Q>
0

> <i_epik_Tot_abs_Q>
0

> <r_epik_Metal_State_Penalty>
0.361861

> <b_epik_Metal_Only>
0

> <s_lp_Force_Field>
OPLS_2005

> <r_lp_Energy>
33.277

> <b_lp_Chiralities_Consistent>
1

> <s_lp_Variant>
AV-unprocessed.smi:924-1

> <Gold.Version>
5.8.1

> <Gold.Id.Protein>
6NUR|6NUR_protein|mol2

> <Gold.PLP.Fitness>
41.0453

> <Gold.PLP.PLP>
-36.1421

> <Gold.PLP.part.hbond>
-3.4845

> <Gold.PLP.part.metal>
0.0000

> <Gold.PLP.part.buried>
-1.5010

> <Gold.PLP.part.nonpolar>
-31.0591

> <Gold.PLP.part.repulsive>
0.4646

> <Gold.PLP.ligand.clash>
0.0000

> <Gold.PLP.ligand.torsion>
0.1570

> <Gold.PLP.Chemscore.Hbond>
1.7360

> <Gold.PLP.Chemscore.CHOScore>
0.0000

> <Gold.PLP.Chemscore.Metal>
0.0000

> <Gold.Chemscore.Hbonds>
donor molecule, donor type, donor heavy atom, donor atom, acceptor molecule, acceptor atom, score
      P1  H  6896  6908       L1     1  1.00
      P1  H  7989  7998       L1     8  0.03
      P1  H  8011  8017       L1     8  0.72

> <Gold.PLP.Chemscore.Internal.Correction>
0.0091

> <Gold.Rescore>
     Score         DG    S(hbond)    S(metal)    S(lipo)     H(rot)  DE(clash)    DE(int)     intcor
     16.58     -17.72       2.33        0.00      80.60       1.94       0.67       0.48       ----

> <Gold.Chemscore.Fitness>
16.5811

> <Gold.Chemscore.DG>
-17.7231

> <Gold.Chemscore.ZeroCoef>
-5.4800

> <Gold.Chemscore.Hbond>
2.3303

> <Gold.Chemscore.Metal>
0.0000

> <Gold.Chemscore.Lipo>
80.5973

> <Gold.Chemscore.Internal_Hbond>
0.0000

> <Gold.Chemscore.DEClash>
0.6664

> <Gold.Chemscore.DEInternal>
0.4756

> <Gold.Chemscore.Rot>
1.9415

> <Gold.Chemscore.Internal.Correction>
   9.000000E+99

> <Gold.Chemscore.Hbonds>
donor molecule, donor type, donor heavy atom, donor atom, acceptor molecule, acceptor atom, score
      P1  H  6896  6908       L1     1  0.99
      P1  H  8011  8017       L1     8  0.71

> <Gold.Chemscore.Hbond.Weighted>
-7.7833

> <Gold.Chemscore.Metal.Weighted>
-0.0000

> <Gold.Chemscore.Lipo.Weighted>
-9.4299

> <Gold.Chemscore.Internal_Hbond.Weighted>
0.0000

> <Gold.Chemscore.DEClash.Weighted>
0.6664

> <Gold.Chemscore.DEInternal.Weighted>
0.4756

> <Gold.Chemscore.Rot.Weighted>
4.9701

> <Gold.Chemscore.Internal.Correction.Weighted>
   9.000000E+99

> <Gold.Protein.RotatedTorsions>
[ 6907 6896 6895 6894 ] final -123.95 input  -60.11 | X-H torsion
[ 7974 7965 7964 7962 ] final   -1.84 input  175.53 | X-H torsion
[ 8008 7997 7996 7995 ] final   41.12 input   59.86 | X-H torsion
[ 10167 10162 10161 10158 ] final   -8.03 input  -65.29 | X-H torsion
[ 10718 10713 10712 10709 ] final  167.49 input   66.30 | X-H torsion
[ 10763 10752 10751 10750 ] final  135.15 input  -60.55 | X-H torsion
[ 11005 11000 10999 10996 ] final   97.96 input  -57.11 | X-H torsion

> <Gold.Protein.ActiveResidues>
 VAL166  LYS551  ARG553  GLY616  TRP617  ASP618  TYR619  PRO620  LYS621  CYS622 
 ASP623  PHE694  ASN695  SER759  ASP760  ASP761  ALA762  ILE779  LEU786  VAL792 
 PHE793  MET794  SER795  GLU796  ALA797  LYS798  CYS799  TRP800  GLU811  SER814 

> <Gold.Protein.RotatedAtoms>
  150.8720  133.7492  159.2958 H   0  0  0  0  0  0  0  0  0  0  0  0  # atno 6907 bound_to 6896
  151.5100  135.1063  159.9861 H   0  0  0  0  0  0  0  0  0  0  0  0  # atno 6908 bound_to 6896
  152.4702  133.7967  159.6987 H   0  0  0  0  0  0  0  0  0  0  0  0  # atno 6909 bound_to 6896
  146.2412  140.1481  142.8334 H   0  0  0  0  0  0  0  0  0  0  0  0  # atno 7974 bound_to 7965
  155.2644  140.3361  155.4270 H   0  0  0  0  0  0  0  0  0  0  0  0  # atno 8008 bound_to 7997
  156.2160  140.1789  156.7629 H   0  0  0  0  0  0  0  0  0  0  0  0  # atno 8009 bound_to 7997
  154.5755  140.0662  156.9012 H   0  0  0  0  0  0  0  0  0  0  0  0  # atno 8010 bound_to 7997
  140.7047  143.6015  150.8793 H   0  0  0  0  0  0  0  0  0  0  0  0  # atno 10167 bound_to 10162
  157.0508  131.0313  151.2681 H   0  0  0  0  0  0  0  0  0  0  0  0  # atno 10718 bound_to 10713
  153.8353  135.3098  155.3422 H   0  0  0  0  0  0  0  0  0  0  0  0  # atno 10763 bound_to 10752
  154.7956  135.4757  154.0155 H   0  0  0  0  0  0  0  0  0  0  0  0  # atno 10764 bound_to 10752
  153.1609  135.6860  153.8836 H   0  0  0  0  0  0  0  0  0  0  0  0  # atno 10765 bound_to 10752
  139.8774  134.9026  156.4385 H   0  0  0  0  0  0  0  0  0  0  0  0  # atno 11005 bound_to 11000
  145.0191  140.8778  143.5178 LP  0  0  0  0  0  0  0  0  0  0  0  0  # atno 17320 bound_to 7965
  145.1526  139.2505  143.5433 LP  0  0  0  0  0  0  0  0  0  0  0  0  # atno 17321 bound_to 7965
  139.9739  143.6026  152.2965 LP  0  0  0  0  0  0  0  0  0  0  0  0  # atno 17342 bound_to 10162
  139.6623  144.7662  151.1940 LP  0  0  0  0  0  0  0  0  0  0  0  0  # atno 17343 bound_to 10162
  157.5031  130.7892  149.7626 LP  0  0  0  0  0  0  0  0  0  0  0  0  # atno 17370 bound_to 10713
  156.0008  130.3881  150.2613 LP  0  0  0  0  0  0  0  0  0  0  0  0  # atno 17371 bound_to 10713
  140.9016  133.7775  155.9687 LP  0  0  0  0  0  0  0  0  0  0  0  0  # atno 17394 bound_to 11000
  140.8644  134.2801  157.5219 LP  0  0  0  0  0  0  0  0  0  0  0  0  # atno 17395 bound_to 11000

$$$$
