AV-unprocessed.smi:1700|AV-procd|sdf|6819|dock1
  -GOLD-   22720 7593D 1   1.00000     0.00000
 Structure written by MMmdl.
 34 35  0  0  0  0  0  0  0  0  1 V2000
  146.8789  142.5743  154.1000 C   0  0  0  0  0  0  0  0  0  0  0  0
  147.4564  141.1758  153.9534 C   0  0  0  0  0  0  0  0  0  0  0  0
  146.7340  140.2030  153.2302 C   0  0  0  0  0  0  0  0  0  0  0  0
  147.2687  138.9104  153.0960 C   0  0  0  0  0  0  0  0  0  0  0  0
  148.5118  138.6436  153.6946 C   0  0  0  0  0  0  0  0  0  0  0  0
  149.2089  139.5669  154.3875 N   0  0  0  0  0  0  0  0  0  0  0  0
  148.7069  140.8198  154.5268 C   0  0  0  0  0  0  0  0  0  0  0  0
  149.3850  141.8431  155.2481 N   0  0  0  0  0  0  0  0  0  0  0  0
  150.3612  141.7150  156.1644 C   0  0  0  0  0  0  0  0  0  0  0  0
  150.8697  140.6522  156.5227 O   0  0  0  0  0  0  0  0  0  0  0  0
  150.7273  142.9088  156.6528 N   0  0  0  0  0  0  0  0  0  0  0  0
  151.7612  143.1175  157.6601 C   0  0  0  0  0  0  0  0  0  0  0  0
  151.4740  144.3616  158.5162 C   0  0  2  0  0  0  0  0  0  0  0  0
  152.4356  144.5337  159.6901 C   0  0  0  0  0  0  0  0  0  0  0  0
  151.6115  145.3781  160.6346 C   0  0  0  0  0  0  0  0  0  0  0  0
  150.2170  144.7876  160.4449 C   0  0  0  0  0  0  0  0  0  0  0  0
  150.1830  144.2731  159.1155 O   0  0  0  0  0  0  0  0  0  0  0  0
  145.9122  142.6589  153.6025 H   0  0  0  0  0  0  0  0  0  0  0  0
  147.5489  143.3123  153.6579 H   0  0  0  0  0  0  0  0  0  0  0  0
  146.7365  142.8206  155.1526 H   0  0  0  0  0  0  0  0  0  0  0  0
  145.7803  140.4414  152.7823 H   0  0  0  0  0  0  0  0  0  0  0  0
  146.7401  138.1436  152.5492 H   0  0  0  0  0  0  0  0  0  0  0  0
  148.9584  137.6633  153.6163 H   0  0  0  0  0  0  0  0  0  0  0  0
  149.0797  142.7842  155.0507 H   0  0  0  0  0  0  0  0  0  0  0  0
  150.2648  143.7334  156.2990 H   0  0  0  0  0  0  0  0  0  0  0  0
  151.8117  142.2305  158.2919 H   0  0  0  0  0  0  0  0  0  0  0  0
  152.7357  143.2081  157.1770 H   0  0  0  0  0  0  0  0  0  0  0  0
  151.5011  145.2649  157.9043 H   0  0  0  0  0  0  0  0  0  0  0  0
  152.6610  143.5705  160.1504 H   0  0  0  0  0  0  0  0  0  0  0  0
  153.3760  145.0052  159.4032 H   0  0  0  0  0  0  0  0  0  0  0  0
  151.9584  145.3331  161.6673 H   0  0  0  0  0  0  0  0  0  0  0  0
  151.6260  146.4204  160.3129 H   0  0  0  0  0  0  0  0  0  0  0  0
  150.0554  143.9617  161.1386 H   0  0  0  0  0  0  0  0  0  0  0  0
  149.4299  145.5244  160.6070 H   0  0  0  0  0  0  0  0  0  0  0  0
  1  2  1  0  0  0  0
  1 18  1  0  0  0  0
  1 19  1  0  0  0  0
  1 20  1  0  0  0  0
  2  7  1  0  0  0  0
  2  3  2  0  0  0  0
  3  4  1  0  0  0  0
  3 21  1  0  0  0  0
  4  5  2  0  0  0  0
  4 22  1  0  0  0  0
  5  6  1  0  0  0  0
  5 23  1  0  0  0  0
  6  7  2  0  0  0  0
  7  8  1  0  0  0  0
  8  9  1  0  0  0  0
  8 24  1  0  0  0  0
  9 10  2  0  0  0  0
  9 11  1  0  0  0  0
 11 12  1  0  0  0  0
 11 25  1  0  0  0  0
 12 13  1  0  0  0  0
 12 26  1  0  0  0  0
 12 27  1  0  0  0  0
 13 17  1  0  0  0  0
 13 14  1  0  0  0  0
 13 28  1  0  0  0  0
 14 15  1  0  0  0  0
 14 29  1  0  0  0  0
 14 30  1  0  0  0  0
 15 16  1  0  0  0  0
 15 31  1  0  0  0  0
 15 32  1  0  0  0  0
 16 17  1  0  0  0  0
 16 33  1  0  0  0  0
 16 34  1  0  0  0  0
M  END
> <s_m_source_file>
AV-unprocessed.smi

> <i_m_source_file_index>
1700

> <i_lp_mmshare_version>
43012

> <i_f3d_flags>
0

> <s_epik_input>
W0NIM11jMVtjSF1bY0hdW2NIXW5jMVtOSF1DKD1PKVtOSF1bQ0gyXVtDQEBIXTJbQ0gyXVtDSDJdW0NIMl1PMg==

> <s_epik_cmdline>
J2VwaWtfcHl0aG9uJywgJy1waCcsICc3LjAnLCAnLXRuJywgJzgnLCAnLW1hJywgJzIwMCcsICctbWV0YWxfYmluZGluZycsICctaW1hZScsICc8aW5maWxlLm1hZT4nLCAnLW9tYWUnLCAnPG91dGZpbGUubWFlPic=

> <r_lp_tautomer_probability>
1

> <r_epik_Ionization_Penalty>
5.57253e-05

> <r_epik_Ionization_Penalty_Charging>
0

> <r_epik_Ionization_Penalty_Neutral>
5.57253e-05

> <r_epik_State_Penalty>
-0

> <r_epik_Charging_Adjusted_Penalty>
0

> <i_epik_Tot_Q>
0

> <i_epik_Tot_abs_Q>
0

> <r_epik_Metal_State_Penalty>
-0

> <b_epik_Metal_Only>
0

> <s_lp_Force_Field>
OPLS_2005

> <r_lp_Energy>
19.3296

> <b_lp_Chiralities_Consistent>
1

> <s_lp_Variant>
AV-unprocessed.smi:1700-1

> <Gold.Version>
5.8.1

> <Gold.Id.Protein>
6NUR|6NUR_protein|mol2

> <Gold.PLP.Fitness>
41.6273

> <Gold.PLP.PLP>
-33.5777

> <Gold.PLP.part.hbond>
-2.0000

> <Gold.PLP.part.metal>
0.0000

> <Gold.PLP.part.buried>
-2.9438

> <Gold.PLP.part.nonpolar>
-30.2308

> <Gold.PLP.part.repulsive>
0.5904

> <Gold.PLP.ligand.clash>
0.0000

> <Gold.PLP.ligand.torsion>
0.2864

> <Gold.PLP.Chemscore.Hbond>
1.9280

> <Gold.PLP.Chemscore.CHOScore>
0.9456

> <Gold.PLP.Chemscore.Metal>
0.0000

> <Gold.Chemscore.Hbonds>
donor molecule, donor type, donor heavy atom, donor atom, acceptor molecule, acceptor atom, score
      L1  H     8    24       P1  8028  0.99
      L1  H    11    25       P1  8028  1.00
      L1  C     5    23       P1  7948  0.98

> <Gold.PLP.Chemscore.Internal.Correction>
0.0016

> <Gold.Rescore>
     Score         DG    S(hbond)    S(metal)    S(lipo)     H(rot)  DE(clash)    DE(int)     intcor
     17.76     -19.50       1.93        0.00      91.65       1.23       0.24       1.50       ----

> <Gold.Chemscore.Fitness>
17.7566

> <Gold.Chemscore.DG>
-19.5002

> <Gold.Chemscore.ZeroCoef>
-5.4800

> <Gold.Chemscore.Hbond>
1.9327

> <Gold.Chemscore.Metal>
0.0000

> <Gold.Chemscore.Lipo>
91.6499

> <Gold.Chemscore.Internal_Hbond>
0.0000

> <Gold.Chemscore.DEClash>
0.2429

> <Gold.Chemscore.DEInternal>
1.5007

> <Gold.Chemscore.Rot>
1.2337

> <Gold.Chemscore.Internal.Correction>
   9.000000E+99

> <Gold.Chemscore.Hbonds>
donor molecule, donor type, donor heavy atom, donor atom, acceptor molecule, acceptor atom, score
      L1  H     8    24       P1  8028  0.88
      L1  H    11    25       P1  8028  0.99

> <Gold.Chemscore.Hbond.Weighted>
-6.4554

> <Gold.Chemscore.Metal.Weighted>
-0.0000

> <Gold.Chemscore.Lipo.Weighted>
-10.7230

> <Gold.Chemscore.Internal_Hbond.Weighted>
0.0000

> <Gold.Chemscore.DEClash.Weighted>
0.2429

> <Gold.Chemscore.DEInternal.Weighted>
1.5007

> <Gold.Chemscore.Rot.Weighted>
3.1582

> <Gold.Chemscore.Internal.Correction.Weighted>
   9.000000E+99

> <Gold.Protein.RotatedTorsions>
[ 6907 6896 6895 6894 ] final -152.61 input  -60.11 | X-H torsion
[ 7974 7965 7964 7962 ] final  116.89 input  175.53 | X-H torsion
[ 8008 7997 7996 7995 ] final   73.06 input   59.86 | X-H torsion
[ 10167 10162 10161 10158 ] final -100.92 input  -65.29 | X-H torsion
[ 10718 10713 10712 10709 ] final  -81.65 input   66.30 | X-H torsion
[ 10763 10752 10751 10750 ] final -136.21 input  -60.55 | X-H torsion
[ 11005 11000 10999 10996 ] final  -74.35 input  -57.11 | X-H torsion

> <Gold.Protein.ActiveResidues>
 VAL166  LYS551  ARG553  GLY616  TRP617  ASP618  TYR619  PRO620  LYS621  CYS622 
 ASP623  PHE694  ASN695  SER759  ASP760  ASP761  ALA762  ILE779  LEU786  VAL792 
 PHE793  MET794  SER795  GLU796  ALA797  LYS798  CYS799  TRP800  GLU811  SER814 

> <Gold.Protein.RotatedAtoms>
  151.2303  133.4454  159.2603 H   0  0  0  0  0  0  0  0  0  0  0  0  # atno 6907 bound_to 6896
  151.0801  134.9853  159.8362 H   0  0  0  0  0  0  0  0  0  0  0  0  # atno 6908 bound_to 6896
  152.5423  134.2243  159.8852 H   0  0  0  0  0  0  0  0  0  0  0  0  # atno 6909 bound_to 6896
  145.1740  139.3086  143.4452 H   0  0  0  0  0  0  0  0  0  0  0  0  # atno 7974 bound_to 7965
  155.7780  140.3482  155.5282 H   0  0  0  0  0  0  0  0  0  0  0  0  # atno 8008 bound_to 7997
  155.8756  140.0993  157.1541 H   0  0  0  0  0  0  0  0  0  0  0  0  # atno 8009 bound_to 7997
  154.4020  140.1332  156.4120 H   0  0  0  0  0  0  0  0  0  0  0  0  # atno 8010 bound_to 7997
  140.2468  143.3500  152.0751 H   0  0  0  0  0  0  0  0  0  0  0  0  # atno 10167 bound_to 10162
  156.0046  130.4610  150.3985 H   0  0  0  0  0  0  0  0  0  0  0  0  # atno 10718 bound_to 10713
  154.8688  135.3679  154.5024 H   0  0  0  0  0  0  0  0  0  0  0  0  # atno 10763 bound_to 10752
  153.5664  135.7022  153.5529 H   0  0  0  0  0  0  0  0  0  0  0  0  # atno 10764 bound_to 10752
  153.3582  135.4054  155.1661 H   0  0  0  0  0  0  0  0  0  0  0  0  # atno 10765 bound_to 10752
  141.1634  133.6909  156.7352 H   0  0  0  0  0  0  0  0  0  0  0  0  # atno 11005 bound_to 11000
  146.3464  140.1896  142.8589 LP  0  0  0  0  0  0  0  0  0  0  0  0  # atno 17320 bound_to 7965
  145.0203  140.8788  143.5170 LP  0  0  0  0  0  0  0  0  0  0  0  0  # atno 17321 bound_to 7965
  139.5059  144.6804  151.6023 LP  0  0  0  0  0  0  0  0  0  0  0  0  # atno 17342 bound_to 10162
  140.6071  143.9504  150.6427 LP  0  0  0  0  0  0  0  0  0  0  0  0  # atno 17343 bound_to 10162
  157.2055  131.0448  151.2627 LP  0  0  0  0  0  0  0  0  0  0  0  0  # atno 17370 bound_to 10713
  157.3936  130.7295  149.6715 LP  0  0  0  0  0  0  0  0  0  0  0  0  # atno 17371 bound_to 10713
  140.2716  134.8388  157.3852 LP  0  0  0  0  0  0  0  0  0  0  0  0  # atno 17394 bound_to 11000
  140.1516  134.4842  155.7957 LP  0  0  0  0  0  0  0  0  0  0  0  0  # atno 17395 bound_to 11000

$$$$
