AV-unprocessed.smi:1133|AV-procd|sdf|4855|dock8
  -GOLD-   22720 3423D 1   1.00000     0.00000
 Structure written by MMmdl.
 42 43  0  0  0  0  0  0  0  0  2 V2000
  152.0636  137.6722  158.0312 C   0  0  0  0  0  0  0  0  0  0  0  0
  151.9904  138.6064  156.8214 C   0  0  0  0  0  0  0  0  0  0  0  0
  153.0335  138.8479  156.2136 O   0  0  0  0  0  0  0  0  0  0  0  0
  150.7938  139.1273  156.4576 N   0  0  0  0  0  0  0  0  0  0  0  0
  150.6201  139.9554  155.2590 C   0  0  0  0  0  0  0  0  0  0  0  0
  149.8434  139.1447  154.2056 C   0  0  0  0  0  0  0  0  0  0  0  0
  148.4946  138.6419  154.7641 C   0  0  0  0  0  0  0  0  0  0  0  0
  147.8796  137.7239  153.8102 N   0  0  0  0  0  0  0  0  0  0  0  0
  146.5695  137.4507  153.7390 C   0  0  0  0  0  0  0  0  0  0  0  0
  145.7161  137.9591  154.4671 O   0  0  0  0  0  0  0  0  0  0  0  0
  146.2979  136.5480  152.7860 N   0  0  0  0  0  0  0  0  0  0  0  0
  144.9653  136.0435  152.4779 C   0  0  0  0  0  0  0  0  0  0  0  0
  144.8241  135.6872  150.9883 C   0  0  0  0  0  0  0  0  0  0  0  0
  145.2364  134.3092  150.7194 N   0  0  0  0  0  0  0  0  0  0  0  0
  144.4694  133.2946  150.2075 C   0  0  0  0  0  0  0  0  0  0  0  0
  145.2808  132.1916  150.1343 C   0  0  0  0  0  0  0  0  0  0  0  0
  146.5066  132.5794  150.6060 N   0  3  0  0  0  0  0  0  0  0  0  0
  146.4773  133.8679  150.9616 C   0  0  0  0  0  0  0  0  0  0  0  0
  148.6723  137.9556  156.1387 C   0  0  0  0  0  0  0  0  0  0  0  0
  149.5064  138.8257  157.0951 C   0  0  0  0  0  0  0  0  0  0  0  0
  151.4148  136.8069  157.8925 H   0  0  0  0  0  0  0  0  0  0  0  0
  151.7694  138.1951  158.9415 H   0  0  0  0  0  0  0  0  0  0  0  0
  153.0808  137.3054  158.1726 H   0  0  0  0  0  0  0  0  0  0  0  0
  150.0681  140.8596  155.5194 H   0  0  0  0  0  0  0  0  0  0  0  0
  151.5675  140.2970  154.8400 H   0  0  0  0  0  0  0  0  0  0  0  0
  149.6770  139.7542  153.3166 H   0  0  0  0  0  0  0  0  0  0  0  0
  150.4535  138.2968  153.8899 H   0  0  0  0  0  0  0  0  0  0  0  0
  147.8474  139.5115  154.8941 H   0  0  0  0  0  0  0  0  0  0  0  0
  148.5004  137.2548  153.1665 H   0  0  0  0  0  0  0  0  0  0  0  0
  147.0641  136.1867  152.2367 H   0  0  0  0  0  0  0  0  0  0  0  0
  144.7467  135.1767  153.1040 H   0  0  0  0  0  0  0  0  0  0  0  0
  144.2398  136.8117  152.7470 H   0  0  0  0  0  0  0  0  0  0  0  0
  143.7900  135.7997  150.6604 H   0  0  0  0  0  0  0  0  0  0  0  0
  145.4315  136.3453  150.3649 H   0  0  0  0  0  0  0  0  0  0  0  0
  143.4311  133.4290  149.9403 H   0  0  0  0  0  0  0  0  0  0  0  0
  145.0827  131.1864  149.7911 H   0  0  0  0  0  0  0  0  0  0  0  0
  147.2943  134.4393  151.3658 H   0  0  0  0  0  0  0  0  0  0  0  0
  147.6993  137.7460  156.5845 H   0  0  0  0  0  0  0  0  0  0  0  0
  149.1672  136.9915  156.0102 H   0  0  0  0  0  0  0  0  0  0  0  0
  149.6022  138.3304  158.0603 H   0  0  0  0  0  0  0  0  0  0  0  0
  148.9811  139.7595  157.3007 H   0  0  0  0  0  0  0  0  0  0  0  0
  147.3193  131.9800  150.6766 H   0  0  0  0  0  0  0  0  0  0  0  0
  1  2  1  0  0  0  0
  1 21  1  0  0  0  0
  1 22  1  0  0  0  0
  1 23  1  0  0  0  0
  2  3  2  0  0  0  0
  2  4  1  0  0  0  0
  4 20  1  0  0  0  0
  4  5  1  0  0  0  0
  5  6  1  0  0  0  0
  5 24  1  0  0  0  0
  5 25  1  0  0  0  0
  6  7  1  0  0  0  0
  6 26  1  0  0  0  0
  6 27  1  0  0  0  0
  7  8  1  0  0  0  0
  7 19  1  0  0  0  0
  7 28  1  0  0  0  0
  8  9  1  0  0  0  0
  8 29  1  0  0  0  0
  9 10  2  0  0  0  0
  9 11  1  0  0  0  0
 11 12  1  0  0  0  0
 11 30  1  0  0  0  0
 12 13  1  0  0  0  0
 12 31  1  0  0  0  0
 12 32  1  0  0  0  0
 13 14  1  0  0  0  0
 13 33  1  0  0  0  0
 13 34  1  0  0  0  0
 14 18  1  0  0  0  0
 14 15  1  0  0  0  0
 15 16  2  0  0  0  0
 15 35  1  0  0  0  0
 16 17  1  0  0  0  0
 16 36  1  0  0  0  0
 17 18  2  0  0  0  0
 17 42  1  0  0  0  0
 18 37  1  0  0  0  0
 19 20  1  0  0  0  0
 19 38  1  0  0  0  0
 19 39  1  0  0  0  0
 20 40  1  0  0  0  0
 20 41  1  0  0  0  0
M  CHG  1  17   1
M  END
> <s_m_source_file>
AV-unprocessed.smi

> <i_m_source_file_index>
1133

> <i_lp_mmshare_version>
43012

> <i_f3d_flags>
0

> <s_epik_input>
W0NIM11DKD1PKU4xW0NIMl1bQ0gyXVtDSF0oW0NIMl1bQ0gyXTEpW05IXUMoPU8pW05IXVtDSDJdW0NIMl1uMltjSF1bY0hdbltjSF0y

> <s_epik_cmdline>
J2VwaWtfcHl0aG9uJywgJy1waCcsICc3LjAnLCAnLXRuJywgJzgnLCAnLW1hJywgJzIwMCcsICctbWV0YWxfYmluZGluZycsICctaW1hZScsICc8aW5maWxlLm1hZT4nLCAnLW9tYWUnLCAnPG91dGZpbGUubWFlPic=

> <r_lp_tautomer_probability>
1

> <r_epik_Ionization_Penalty>
0.255167

> <r_epik_Ionization_Penalty_Charging>
0

> <r_epik_Ionization_Penalty_Neutral>
0.255167

> <r_epik_State_Penalty>
0.246616

> <r_epik_Charging_Adjusted_Penalty>
0.246616

> <i_epik_Tot_Q>
1

> <i_epik_Tot_abs_Q>
1

> <r_epik_Metal_State_Penalty>
0.536415

> <b_epik_Metal_Only>
0

> <s_lp_Force_Field>
OPLS_2005

> <r_lp_Energy>
22.8295

> <b_lp_Chiralities_Consistent>
1

> <s_lp_Variant>
AV-unprocessed.smi:1133-1

> <Gold.Version>
5.8.1

> <Gold.Id.Protein>
6NUR|6NUR_protein|mol2

> <Gold.PLP.Fitness>
43.9611

> <Gold.PLP.PLP>
-28.1489

> <Gold.PLP.part.hbond>
-3.9720

> <Gold.PLP.part.metal>
0.0000

> <Gold.PLP.part.buried>
-3.9972

> <Gold.PLP.part.nonpolar>
-19.8737

> <Gold.PLP.part.repulsive>
0.1832

> <Gold.PLP.ligand.clash>
0.0000

> <Gold.PLP.ligand.torsion>
0.6672

> <Gold.PLP.Chemscore.Hbond>
3.9350

> <Gold.PLP.Chemscore.CHOScore>
1.7731

> <Gold.PLP.Chemscore.Metal>
0.0000

> <Gold.Chemscore.Hbonds>
donor molecule, donor type, donor heavy atom, donor atom, acceptor molecule, acceptor atom, score
      L1  H     8    29       P1  7948  1.00
      L1  H    11    30       P1  7948  0.98
      L1  H    17    42       P1 10747  0.98
      P1  H  7997  8010       L1     3  1.00
      L1  C    15    35       P1 10186  0.71
      L1  C    18    37       P1  7948  1.00

> <Gold.PLP.Chemscore.Internal.Correction>
0.0221

> <Gold.Rescore>
     Score         DG    S(hbond)    S(metal)    S(lipo)     H(rot)  DE(clash)    DE(int)     intcor
     18.76     -19.41       3.93        0.00      52.34       2.08       0.04       0.61       ----

> <Gold.Chemscore.Fitness>
18.7630

> <Gold.Chemscore.DG>
-19.4067

> <Gold.Chemscore.ZeroCoef>
-5.4800

> <Gold.Chemscore.Hbond>
3.9301

> <Gold.Chemscore.Metal>
0.0000

> <Gold.Chemscore.Lipo>
52.3362

> <Gold.Chemscore.Internal_Hbond>
0.0000

> <Gold.Chemscore.DEClash>
0.0354

> <Gold.Chemscore.DEInternal>
0.6083

> <Gold.Chemscore.Rot>
2.0794

> <Gold.Chemscore.Internal.Correction>
   9.000000E+99

> <Gold.Chemscore.Hbonds>
donor molecule, donor type, donor heavy atom, donor atom, acceptor molecule, acceptor atom, score
      L1  H     8    29       P1  7948  0.99
      L1  H    11    30       P1  7948  0.93
      L1  H    17    42       P1 10747  0.92
      P1  H  7997  8010       L1     3  0.98

> <Gold.Chemscore.Hbond.Weighted>
-13.1265

> <Gold.Chemscore.Metal.Weighted>
-0.0000

> <Gold.Chemscore.Lipo.Weighted>
-6.1233

> <Gold.Chemscore.Internal_Hbond.Weighted>
0.0000

> <Gold.Chemscore.DEClash.Weighted>
0.0354

> <Gold.Chemscore.DEInternal.Weighted>
0.6083

> <Gold.Chemscore.Rot.Weighted>
5.3232

> <Gold.Chemscore.Internal.Correction.Weighted>
   9.000000E+99

> <Gold.Protein.RotatedTorsions>
[ 6907 6896 6895 6894 ] final   -9.42 input  -60.11 | X-H torsion
[ 7974 7965 7964 7962 ] final -102.35 input  175.53 | X-H torsion
[ 8008 7997 7996 7995 ] final   84.83 input   59.86 | X-H torsion
[ 10167 10162 10161 10158 ] final -154.11 input  -65.29 | X-H torsion
[ 10718 10713 10712 10709 ] final   52.04 input   66.30 | X-H torsion
[ 10763 10752 10751 10750 ] final  -84.41 input  -60.55 | X-H torsion
[ 11005 11000 10999 10996 ] final   63.64 input  -57.11 | X-H torsion

> <Gold.Protein.ActiveResidues>
 VAL166  LYS551  ARG553  GLY616  TRP617  ASP618  TYR619  PRO620  LYS621  CYS622 
 ASP623  PHE694  ASN695  SER759  ASP760  ASP761  ALA762  ILE779  LEU786  VAL792 
 PHE793  MET794  SER795  GLU796  ALA797  LYS798  CYS799  TRP800  GLU811  SER814 

> <Gold.Protein.RotatedAtoms>
  151.4180  135.0994  159.9605 H   0  0  0  0  0  0  0  0  0  0  0  0  # atno 6907 bound_to 6896
  152.4998  133.8734  159.7320 H   0  0  0  0  0  0  0  0  0  0  0  0  # atno 6908 bound_to 6896
  150.9243  133.6785  159.2853 H   0  0  0  0  0  0  0  0  0  0  0  0  # atno 6909 bound_to 6896
  145.2698  140.9295  143.2993 H   0  0  0  0  0  0  0  0  0  0  0  0  # atno 7974 bound_to 7965
  155.9421  140.3407  155.6336 H   0  0  0  0  0  0  0  0  0  0  0  0  # atno 8008 bound_to 7997
  155.7026  140.0762  157.2422 H   0  0  0  0  0  0  0  0  0  0  0  0  # atno 8009 bound_to 7997
  154.4104  140.1637  156.2196 H   0  0  0  0  0  0  0  0  0  0  0  0  # atno 8010 bound_to 7997
  139.7040  143.9216  152.2441 H   0  0  0  0  0  0  0  0  0  0  0  0  # atno 10167 bound_to 10162
  157.5038  130.8455  149.8349 H   0  0  0  0  0  0  0  0  0  0  0  0  # atno 10718 bound_to 10713
  154.5992  135.5521  153.7357 H   0  0  0  0  0  0  0  0  0  0  0  0  # atno 10763 bound_to 10752
  153.0147  135.6362  154.1739 H   0  0  0  0  0  0  0  0  0  0  0  0  # atno 10764 bound_to 10752
  154.1679  135.2893  155.3069 H   0  0  0  0  0  0  0  0  0  0  0  0  # atno 10765 bound_to 10752
  140.0011  134.6441  155.9929 H   0  0  0  0  0  0  0  0  0  0  0  0  # atno 11005 bound_to 11000
  144.9345  139.4260  143.6479 LP  0  0  0  0  0  0  0  0  0  0  0  0  # atno 17320 bound_to 7965
  146.3250  139.8273  142.8915 LP  0  0  0  0  0  0  0  0  0  0  0  0  # atno 17321 bound_to 7965
  139.9066  144.6881  150.8607 LP  0  0  0  0  0  0  0  0  0  0  0  0  # atno 17342 bound_to 10162
  140.7717  143.3474  151.2084 LP  0  0  0  0  0  0  0  0  0  0  0  0  # atno 17343 bound_to 10162
  156.0245  130.3784  150.1863 LP  0  0  0  0  0  0  0  0  0  0  0  0  # atno 17370 bound_to 10713
  157.0052  130.9934  151.3380 LP  0  0  0  0  0  0  0  0  0  0  0  0  # atno 17371 bound_to 10713
  141.1642  133.6537  156.4423 LP  0  0  0  0  0  0  0  0  0  0  0  0  # atno 17394 bound_to 11000
  140.4727  134.6739  157.5136 LP  0  0  0  0  0  0  0  0  0  0  0  0  # atno 17395 bound_to 11000

$$$$
