AV-unprocessed.smi:54|AV-procd|sdf|531|dock2
  -GOLD-   2262016403D 1   1.00000     0.00000
 Structure written by MMmdl.
 44 46  0  0  0  0  0  0  0  0  1 V2000
  151.9482  145.3816  159.6247 C   0  0  0  0  0  0  0  0  0  0  0  0
  151.6798  143.9648  160.1574 C   0  0  0  0  0  0  0  0  0  0  0  0
  152.2967  143.7666  161.5514 C   0  0  0  0  0  0  0  0  0  0  0  0
  152.2099  142.9104  159.1794 C   0  0  0  0  0  0  0  0  0  0  0  0
  153.4116  142.7915  158.9364 O   0  0  0  0  0  0  0  0  0  0  0  0
  151.1991  142.0736  158.5567 N   0  0  0  0  0  0  0  0  0  0  0  0
  151.4031  141.0586  157.6857 C   0  0  0  0  0  0  0  0  0  0  0  0
  150.6838  140.9005  156.5850 N   0  0  0  0  0  0  0  0  0  0  0  0
  151.0387  139.8323  155.8105 C   0  0  0  0  0  0  0  0  0  0  0  0
  152.0561  138.9382  156.0758 C   0  0  0  0  0  0  0  0  0  0  0  0
  152.1303  137.9831  155.0696 N   0  0  0  0  0  0  0  0  0  0  0  0
  151.1819  138.3223  154.2428 C   0  0  0  0  0  0  0  0  0  0  0  0
  150.4601  139.4295  154.6205 N   0  0  0  0  0  0  0  0  0  0  0  0
  149.3302  140.0678  153.8694 C   0  0  2  0  0  0  0  0  0  0  0  0
  148.8991  141.1854  154.5899 O   0  0  0  0  0  0  0  0  0  0  0  0
  147.5623  141.0048  155.0545 C   0  0  1  0  0  0  0  0  0  0  0  0
  146.8401  142.3544  155.2164 C   0  0  0  0  0  0  0  0  0  0  0  0
  146.8696  143.0703  153.9998 O   0  0  0  0  0  0  0  0  0  0  0  0
  146.9547  140.0434  154.0248 C   0  0  1  0  0  0  0  0  0  0  0  0
  146.4993  140.7592  152.8865 O   0  0  0  0  0  0  0  0  0  0  0  0
  148.1299  139.1209  153.7089 C   0  0  1  0  0  0  0  0  0  0  0  0
  148.0297  138.5589  152.4140 O   0  0  0  0  0  0  0  0  0  0  0  0
  152.8494  139.0959  157.2612 C   0  0  0  0  0  0  0  0  0  0  0  0
  153.7848  138.3996  157.6496 O   0  0  0  0  0  0  0  0  0  0  0  0
  152.4509  140.2027  158.0215 N   0  0  0  0  0  0  0  0  0  0  0  0
  149.7630  140.3916  152.9218 H   0  0  0  0  0  0  0  0  0  0  0  0
  147.5830  140.4953  156.0163 H   0  0  0  0  0  0  0  0  0  0  0  0
  146.1104  139.4916  154.4394 H   0  0  0  0  0  0  0  0  0  0  0  0
  148.1757  138.3214  154.4480 H   0  0  0  0  0  0  0  0  0  0  0  0
  151.5133  145.5220  158.6347 H   0  0  0  0  0  0  0  0  0  0  0  0
  153.0170  145.5876  159.5524 H   0  0  0  0  0  0  0  0  0  0  0  0
  151.5115  146.1337  160.2823 H   0  0  0  0  0  0  0  0  0  0  0  0
  150.6000  143.8356  160.2455 H   0  0  0  0  0  0  0  0  0  0  0  0
  152.1112  142.7598  161.9278 H   0  0  0  0  0  0  0  0  0  0  0  0
  151.8694  144.4672  162.2690 H   0  0  0  0  0  0  0  0  0  0  0  0
  153.3761  143.9244  161.5393 H   0  0  0  0  0  0  0  0  0  0  0  0
  150.2403  142.2926  158.7838 H   0  0  0  0  0  0  0  0  0  0  0  0
  150.9833  137.7718  153.3347 H   0  0  0  0  0  0  0  0  0  0  0  0
  145.8110  142.2199  155.5508 H   0  0  0  0  0  0  0  0  0  0  0  0
  147.3494  142.9644  155.9632 H   0  0  0  0  0  0  0  0  0  0  0  0
  146.5041  142.5237  153.3210 H   0  0  0  0  0  0  0  0  0  0  0  0
  145.5545  140.7726  152.9006 H   0  0  0  0  0  0  0  0  0  0  0  0
  148.7810  138.8329  151.9105 H   0  0  0  0  0  0  0  0  0  0  0  0
  152.9680  140.3769  158.8706 H   0  0  0  0  0  0  0  0  0  0  0  0
  1  2  1  0  0  0  0
  1 30  1  0  0  0  0
  1 31  1  0  0  0  0
  1 32  1  0  0  0  0
  2  3  1  0  0  0  0
  2  4  1  0  0  0  0
  2 33  1  0  0  0  0
  3 34  1  0  0  0  0
  3 35  1  0  0  0  0
  3 36  1  0  0  0  0
  4  5  2  0  0  0  0
  4  6  1  0  0  0  0
  6 37  1  0  0  0  0
  6  7  1  0  0  0  0
  7 25  1  0  0  0  0
  7  8  2  0  0  0  0
  8  9  1  0  0  0  0
  9 13  1  0  0  0  0
  9 10  2  0  0  0  0
 10 11  1  0  0  0  0
 10 23  1  0  0  0  0
 11 12  2  0  0  0  0
 12 13  1  0  0  0  0
 12 38  1  0  0  0  0
 13 14  1  0  0  0  0
 14 26  1  0  0  0  0
 14 21  1  0  0  0  0
 14 15  1  0  0  0  0
 15 16  1  0  0  0  0
 16 27  1  0  0  0  0
 16 17  1  0  0  0  0
 16 19  1  0  0  0  0
 17 18  1  0  0  0  0
 17 39  1  0  0  0  0
 17 40  1  0  0  0  0
 18 41  1  0  0  0  0
 19 28  1  0  0  0  0
 19 20  1  0  0  0  0
 19 21  1  0  0  0  0
 20 42  1  0  0  0  0
 21 29  1  0  0  0  0
 21 22  1  0  0  0  0
 22 43  1  0  0  0  0
 23 24  2  0  0  0  0
 23 25  1  0  0  0  0
 25 44  1  0  0  0  0
M  END
> <s_m_source_file>
AV-unprocessed.smi

> <i_m_source_file_index>
54

> <i_lp_mmshare_version>
43012

> <i_f3d_flags>
0

> <s_epik_input>
W0NIM11bQ0hdKFtDSDNdKUMoPU8pW05IXWMobjEpW25IXWMoPU8pYyhjMTIpbltjSF1uMltDQEBIXTNPW0NASF0oW0NIMl1bT0hdKVtDQEBIXShbT0hdKVtDQEhdM1tPSF0=

> <s_epik_cmdline>
J2VwaWtfcHl0aG9uJywgJy1waCcsICc3LjAnLCAnLXRuJywgJzgnLCAnLW1hJywgJzIwMCcsICctbWV0YWxfYmluZGluZycsICctaW1hZScsICc8aW5maWxlLm1hZT4nLCAnLW9tYWUnLCAnPG91dGZpbGUubWFlPic=

> <r_lp_tautomer_probability>
0.85571

> <r_epik_Ionization_Penalty>
0.0316551

> <r_epik_Ionization_Penalty_Charging>
0.0316043

> <r_epik_Ionization_Penalty_Neutral>
5.07097e-05

> <r_epik_State_Penalty>
3.15494e-07

> <r_epik_Charging_Adjusted_Penalty>
0.0316047

> <i_epik_Tot_Q>
0

> <i_epik_Tot_abs_Q>
0

> <r_epik_Metal_State_Penalty>
0.421206

> <b_epik_Metal_Only>
0

> <s_epik_Chemistry_Notes>
This compound contains an acetal/aminal-like group ( X-CH(R)-Y where X, Y are N, S, or O) that may be acid/base labile, releasing an aldehyde.

> <s_lp_Force_Field>
OPLS_2005

> <r_lp_Energy>
45.4171

> <b_lp_Chiralities_Consistent>
1

> <s_lp_Variant>
AV-unprocessed.smi:54-3

> <Gold.Version>
5.8.1

> <Gold.Id.Protein>
6NUR|6NUR_protein|mol2

> <Gold.PLP.Fitness>
49.4716

> <Gold.PLP.PLP>
-41.4264

> <Gold.PLP.part.hbond>
-5.6066

> <Gold.PLP.part.metal>
0.0000

> <Gold.PLP.part.buried>
-1.4905

> <Gold.PLP.part.nonpolar>
-34.8220

> <Gold.PLP.part.repulsive>
0.4059

> <Gold.PLP.ligand.clash>
0.0000

> <Gold.PLP.ligand.torsion>
0.4033

> <Gold.PLP.Chemscore.Hbond>
2.0429

> <Gold.PLP.Chemscore.CHOScore>
0.8974

> <Gold.PLP.Chemscore.Metal>
0.0000

> <Gold.Chemscore.Hbonds>
donor molecule, donor type, donor heavy atom, donor atom, acceptor molecule, acceptor atom, score
      L1  H    20    42       P1 10175  1.00
      L1  H    22    43       P1  7957  0.99
      P1  H  7997  8009       L1    24  0.05
      P1  H  8022  8030       L1    18  0.01
      L1  C    12    38       P1  7948  0.04
      L1  C    12    38       P1  7949  0.90

> <Gold.PLP.Chemscore.Internal.Correction>
0.0309

> <Gold.Rescore>
     Score         DG    S(hbond)    S(metal)    S(lipo)     H(rot)  DE(clash)    DE(int)     intcor
      5.79      -7.79       1.90        0.00      54.23       4.05       0.00       2.00       ----

> <Gold.Chemscore.Fitness>
5.7931

> <Gold.Chemscore.DG>
-7.7944

> <Gold.Chemscore.ZeroCoef>
-5.4800

> <Gold.Chemscore.Hbond>
1.8968

> <Gold.Chemscore.Metal>
0.0000

> <Gold.Chemscore.Lipo>
54.2333

> <Gold.Chemscore.Internal_Hbond>
0.0000

> <Gold.Chemscore.DEClash>
0.0009

> <Gold.Chemscore.DEInternal>
2.0004

> <Gold.Chemscore.Rot>
4.0493

> <Gold.Chemscore.Internal.Correction>
   9.000000E+99

> <Gold.Chemscore.Hbonds>
donor molecule, donor type, donor heavy atom, donor atom, acceptor molecule, acceptor atom, score
      L1  H    20    42       P1 10175  0.50
      L1  H    22    43       P1  7957  0.70
      P1  H  8022  8030       L1    18  0.04

> <Gold.Chemscore.Hbond.Weighted>
-6.3353

> <Gold.Chemscore.Metal.Weighted>
-0.0000

> <Gold.Chemscore.Lipo.Weighted>
-6.3453

> <Gold.Chemscore.Internal_Hbond.Weighted>
0.0000

> <Gold.Chemscore.DEClash.Weighted>
0.0009

> <Gold.Chemscore.DEInternal.Weighted>
2.0004

> <Gold.Chemscore.Rot.Weighted>
10.3662

> <Gold.Chemscore.Internal.Correction.Weighted>
   9.000000E+99

> <Gold.Protein.RotatedTorsions>
[ 6907 6896 6895 6894 ] final -145.47 input  -60.11 | X-H torsion
[ 7974 7965 7964 7962 ] final   83.37 input  175.53 | X-H torsion
[ 8008 7997 7996 7995 ] final  140.38 input   59.86 | X-H torsion
[ 10167 10162 10161 10158 ] final  145.92 input  -65.29 | X-H torsion
[ 10718 10713 10712 10709 ] final   57.72 input   66.30 | X-H torsion
[ 10763 10752 10751 10750 ] final  164.15 input  -60.55 | X-H torsion
[ 11005 11000 10999 10996 ] final  132.21 input  -57.11 | X-H torsion

> <Gold.Protein.ActiveResidues>
 VAL166  LYS551  ARG553  GLY616  TRP617  ASP618  TYR619  PRO620  LYS621  CYS622 
 ASP623  PHE694  ASN695  SER759  ASP760  ASP761  ALA762  ILE779  LEU786  VAL792 
 PHE793  MET794  SER795  GLU796  ALA797  LYS798  CYS799  TRP800  GLU811  SER814 

> <Gold.Protein.RotatedAtoms>
  151.1282  133.5055  159.2599 H   0  0  0  0  0  0  0  0  0  0  0  0  # atno 6907 bound_to 6896
  151.1786  135.0350  159.8793 H   0  0  0  0  0  0  0  0  0  0  0  0  # atno 6908 bound_to 6896
  152.5459  134.1137  159.8422 H   0  0  0  0  0  0  0  0  0  0  0  0  # atno 6909 bound_to 6896
  145.6128  139.2371  143.2182 H   0  0  0  0  0  0  0  0  0  0  0  0  # atno 7974 bound_to 7965
  156.2980  140.2343  156.4391 H   0  0  0  0  0  0  0  0  0  0  0  0  # atno 8008 bound_to 7997
  154.8202  140.0438  157.1425 H   0  0  0  0  0  0  0  0  0  0  0  0  # atno 8009 bound_to 7997
  154.9324  140.3018  155.5165 H   0  0  0  0  0  0  0  0  0  0  0  0  # atno 8010 bound_to 7997
  139.4917  144.5867  151.6764 H   0  0  0  0  0  0  0  0  0  0  0  0  # atno 10167 bound_to 10162
  157.5538  130.8785  149.9004 H   0  0  0  0  0  0  0  0  0  0  0  0  # atno 10718 bound_to 10713
  154.3045  135.2758  155.2595 H   0  0  0  0  0  0  0  0  0  0  0  0  # atno 10763 bound_to 10752
  154.5017  135.5806  153.6540 H   0  0  0  0  0  0  0  0  0  0  0  0  # atno 10764 bound_to 10752
  152.9896  135.6159  154.3218 H   0  0  0  0  0  0  0  0  0  0  0  0  # atno 10765 bound_to 10752
  139.9776  134.9558  156.9549 H   0  0  0  0  0  0  0  0  0  0  0  0  # atno 11005 bound_to 11000
  146.1491  140.6951  142.9331 LP  0  0  0  0  0  0  0  0  0  0  0  0  # atno 17320 bound_to 7965
  144.7263  140.4533  143.6971 LP  0  0  0  0  0  0  0  0  0  0  0  0  # atno 17321 bound_to 7965
  140.5484  144.0465  150.6117 LP  0  0  0  0  0  0  0  0  0  0  0  0  # atno 17342 bound_to 10162
  140.3511  143.2963  152.0486 LP  0  0  0  0  0  0  0  0  0  0  0  0  # atno 17343 bound_to 10162
  156.0600  130.3701  150.1003 LP  0  0  0  0  0  0  0  0  0  0  0  0  # atno 17370 bound_to 10713
  156.9174  130.9671  151.3554 LP  0  0  0  0  0  0  0  0  0  0  0  0  # atno 17371 bound_to 10713
  140.5162  134.0953  155.7281 LP  0  0  0  0  0  0  0  0  0  0  0  0  # atno 17394 bound_to 11000
  141.1452  133.9068  157.2233 LP  0  0  0  0  0  0  0  0  0  0  0  0  # atno 17395 bound_to 11000

$$$$
