AV-unprocessed.smi:2886|AV-procd|sdf|11090|dock2
  -GOLD-   2272015563D 1   1.00000     0.00000
 Structure written by MMmdl.
 28 30  0  0  0  0  0  0  0  0  1 V2000
  150.7421  137.8853  154.2032 O   0  0  0  0  0  0  0  0  0  0  0  0
  150.5617  139.0552  154.5358 C   0  0  0  0  0  0  0  0  0  0  0  0
  149.7185  139.8626  153.8503 N   0  0  0  0  0  0  0  0  0  0  0  0
  149.4331  141.1762  154.1325 N   0  0  0  0  0  0  0  0  0  0  0  0
  150.0153  141.7276  155.1420 C   0  0  0  0  0  0  0  0  0  0  0  0
  150.9673  141.0188  155.9911 C   0  0  0  0  0  0  0  0  0  0  0  0
  151.5941  141.6130  157.0794 N   0  0  0  0  0  0  0  0  0  0  0  0
  151.4567  142.9722  157.5839 C   0  0  1  0  0  0  0  0  0  0  0  0
  150.0319  143.2834  158.0491 C   0  0  0  0  0  0  0  0  0  0  0  0
  150.2652  143.7208  159.5009 C   0  0  2  0  0  0  0  0  0  0  0  0
  150.9949  145.0682  159.5935 C   0  0  0  0  0  0  0  0  0  0  0  0
  152.4169  144.6829  159.1856 C   0  0  0  0  0  0  0  0  0  0  0  0
  152.2622  143.1878  158.8758 C   0  0  1  0  0  0  0  0  0  0  0  0
  151.3078  142.8327  159.8636 O   0  0  0  0  0  0  0  0  0  0  0  0
  151.2097  139.7155  155.6775 C   0  0  0  0  0  0  0  0  0  0  0  0
  152.3136  138.7745  156.6241 Cl  0  0  0  0  0  0  0  0  0  0  0  0
  149.2278  139.4953  153.0478 H   0  0  0  0  0  0  0  0  0  0  0  0
  149.8105  142.7637  155.4086 H   0  0  0  0  0  0  0  0  0  0  0  0
  152.3353  141.0820  157.5149 H   0  0  0  0  0  0  0  0  0  0  0  0
  151.7930  143.6860  156.8324 H   0  0  0  0  0  0  0  0  0  0  0  0
  149.5552  144.0603  157.4507 H   0  0  0  0  0  0  0  0  0  0  0  0
  149.3974  142.3961  158.0189 H   0  0  0  0  0  0  0  0  0  0  0  0
  149.3778  143.6529  160.1309 H   0  0  0  0  0  0  0  0  0  0  0  0
  150.5553  145.8221  158.9396 H   0  0  0  0  0  0  0  0  0  0  0  0
  150.9807  145.4502  160.6148 H   0  0  0  0  0  0  0  0  0  0  0  0
  152.7830  145.2517  158.3304 H   0  0  0  0  0  0  0  0  0  0  0  0
  153.1065  144.8354  160.0167 H   0  0  0  0  0  0  0  0  0  0  0  0
  153.1992  142.6319  158.9251 H   0  0  0  0  0  0  0  0  0  0  0  0
  1  2  2  0  0  0  0
  2 15  1  0  0  0  0
  2  3  1  0  0  0  0
  3 17  1  0  0  0  0
  3  4  1  0  0  0  0
  4  5  2  0  0  0  0
  5  6  1  0  0  0  0
  5 18  1  0  0  0  0
  6  7  1  0  0  0  0
  6 15  2  0  0  0  0
  7  8  1  0  0  0  0
  7 19  1  0  0  0  0
  8 13  1  0  0  0  0
  8  9  1  0  0  0  0
  8 20  1  0  0  0  0
  9 10  1  0  0  0  0
  9 21  1  0  0  0  0
  9 22  1  0  0  0  0
 10 14  1  0  0  0  0
 10 11  1  0  0  0  0
 10 23  1  0  0  0  0
 11 12  1  0  0  0  0
 11 24  1  0  0  0  0
 11 25  1  0  0  0  0
 12 13  1  0  0  0  0
 12 26  1  0  0  0  0
 12 27  1  0  0  0  0
 13 14  1  0  0  0  0
 13 28  1  0  0  0  0
 15 16  1  0  0  0  0
M  END
> <s_m_source_file>
AV-unprocessed.smi

> <i_m_source_file_index>
2886

> <i_lp_mmshare_version>
43012

> <i_f3d_flags>
0

> <s_epik_input>
Tz1jMVtuSF1uW2NIXWMoYzFDbClbTkhdW0NASF0oW0NIMl1bQ0BASF0yMylbQ0BASF0oTzMpW0NIMl1bQ0gyXTI=

> <s_epik_cmdline>
J2VwaWtfcHl0aG9uJywgJy1waCcsICc3LjAnLCAnLXRuJywgJzgnLCAnLW1hJywgJzIwMCcsICctbWV0YWxfYmluZGluZycsICctaW1hZScsICc8aW5maWxlLm1hZT4nLCAnLW9tYWUnLCAnPG91dGZpbGUubWFlPic=

> <r_lp_tautomer_probability>
0.986175

> <r_epik_Ionization_Penalty>
0.000975594

> <r_epik_Ionization_Penalty_Charging>
0.000940184

> <r_epik_Ionization_Penalty_Neutral>
3.54099e-05

> <r_epik_State_Penalty>
0.00620319

> <r_epik_Charging_Adjusted_Penalty>
0.00714337

> <i_epik_Tot_Q>
0

> <i_epik_Tot_abs_Q>
0

> <r_epik_Metal_State_Penalty>
0.287699

> <b_epik_Metal_Only>
0

> <s_lp_Force_Field>
OPLS_2005

> <r_lp_Energy>
54.6963

> <b_lp_Chiralities_Consistent>
1

> <s_lp_Variant>
AV-unprocessed.smi:2886-4

> <Gold.Version>
5.8.1

> <Gold.Id.Protein>
6NUR|6NUR_protein|mol2

> <Gold.PLP.Fitness>
36.1017

> <Gold.PLP.PLP>
-29.9520

> <Gold.PLP.part.hbond>
-3.7114

> <Gold.PLP.part.metal>
0.0000

> <Gold.PLP.part.buried>
-0.2630

> <Gold.PLP.part.nonpolar>
-25.8250

> <Gold.PLP.part.repulsive>
1.6745

> <Gold.PLP.ligand.clash>
0.0000

> <Gold.PLP.ligand.torsion>
0.0105

> <Gold.PLP.Chemscore.Hbond>
1.0503

> <Gold.PLP.Chemscore.CHOScore>
1.0000

> <Gold.PLP.Chemscore.Metal>
0.0000

> <Gold.Chemscore.Hbonds>
donor molecule, donor type, donor heavy atom, donor atom, acceptor molecule, acceptor atom, score
      L1  H     3    17       P1  7957  0.48
      P1  H  8011  8017       L1     4  0.42
      L1  C     5    18       P1  8028  1.00

> <Gold.PLP.Chemscore.Internal.Correction>
0.0196

> <Gold.Rescore>
     Score         DG    S(hbond)    S(metal)    S(lipo)     H(rot)  DE(clash)    DE(int)     intcor
     14.71     -14.89       0.58        0.00      85.66       1.00       0.17       0.01       ----

> <Gold.Chemscore.Fitness>
14.7090

> <Gold.Chemscore.DG>
-14.8940

> <Gold.Chemscore.ZeroCoef>
-5.4800

> <Gold.Chemscore.Hbond>
0.5842

> <Gold.Chemscore.Metal>
0.0000

> <Gold.Chemscore.Lipo>
85.6646

> <Gold.Chemscore.Internal_Hbond>
0.0000

> <Gold.Chemscore.DEClash>
0.1708

> <Gold.Chemscore.DEInternal>
0.0142

> <Gold.Chemscore.Rot>
1.0000

> <Gold.Chemscore.Internal.Correction>
   9.000000E+99

> <Gold.Chemscore.Hbonds>
donor molecule, donor type, donor heavy atom, donor atom, acceptor molecule, acceptor atom, score
      L1  H     3    17       P1  7957  0.46
      P1  H  8011  8017       L1     4  0.22

> <Gold.Chemscore.Hbond.Weighted>
-1.9512

> <Gold.Chemscore.Metal.Weighted>
-0.0000

> <Gold.Chemscore.Lipo.Weighted>
-10.0228

> <Gold.Chemscore.Internal_Hbond.Weighted>
0.0000

> <Gold.Chemscore.DEClash.Weighted>
0.1708

> <Gold.Chemscore.DEInternal.Weighted>
0.0142

> <Gold.Chemscore.Rot.Weighted>
2.5600

> <Gold.Chemscore.Internal.Correction.Weighted>
   9.000000E+99

> <Gold.Protein.RotatedTorsions>
[ 6907 6896 6895 6894 ] final  -53.69 input  -60.11 | X-H torsion
[ 7974 7965 7964 7962 ] final -176.28 input  175.53 | X-H torsion
[ 8008 7997 7996 7995 ] final   85.55 input   59.86 | X-H torsion
[ 10167 10162 10161 10158 ] final    3.27 input  -65.29 | X-H torsion
[ 10718 10713 10712 10709 ] final  138.05 input   66.30 | X-H torsion
[ 10763 10752 10751 10750 ] final -153.66 input  -60.55 | X-H torsion
[ 11005 11000 10999 10996 ] final  -70.53 input  -57.11 | X-H torsion

> <Gold.Protein.ActiveResidues>
 VAL166  LYS551  ARG553  GLY616  TRP617  ASP618  TYR619  PRO620  LYS621  CYS622 
 ASP623  PHE694  ASN695  SER759  ASP760  ASP761  ALA762  ILE779  LEU786  VAL792 
 PHE793  MET794  SER795  GLU796  ALA797  LYS798  CYS799  TRP800  GLU811  SER814 

> <Gold.Protein.RotatedAtoms>
  150.8404  134.7694  159.6927 H   0  0  0  0  0  0  0  0  0  0  0  0  # atno 6907 bound_to 6896
  152.4493  134.5425  159.9853 H   0  0  0  0  0  0  0  0  0  0  0  0  # atno 6908 bound_to 6896
  151.5566  133.3371  159.2999 H   0  0  0  0  0  0  0  0  0  0  0  0  # atno 6909 bound_to 6896
  144.7127  140.1194  143.6406 H   0  0  0  0  0  0  0  0  0  0  0  0  # atno 7974 bound_to 7965
  155.9515  140.3400  155.6412 H   0  0  0  0  0  0  0  0  0  0  0  0  # atno 8008 bound_to 7997
  155.6914  140.0749  157.2465 H   0  0  0  0  0  0  0  0  0  0  0  0  # atno 8009 bound_to 7997
  154.4123  140.1656  156.2078 H   0  0  0  0  0  0  0  0  0  0  0  0  # atno 8010 bound_to 7997
  140.6594  143.7343  150.7712 H   0  0  0  0  0  0  0  0  0  0  0  0  # atno 10167 bound_to 10162
  157.4295  131.1047  151.0266 H   0  0  0  0  0  0  0  0  0  0  0  0  # atno 10718 bound_to 10713
  154.7912  135.3207  154.7772 H   0  0  0  0  0  0  0  0  0  0  0  0  # atno 10763 bound_to 10752
  153.8461  135.6866  153.4802 H   0  0  0  0  0  0  0  0  0  0  0  0  # atno 10764 bound_to 10752
  153.1583  135.4671  154.9677 H   0  0  0  0  0  0  0  0  0  0  0  0  # atno 10765 bound_to 10752
  141.1576  133.6792  156.6767 H   0  0  0  0  0  0  0  0  0  0  0  0  # atno 11005 bound_to 11000
  145.9384  139.2652  143.1283 LP  0  0  0  0  0  0  0  0  0  0  0  0  # atno 17320 bound_to 7965
  145.9449  140.8952  143.0288 LP  0  0  0  0  0  0  0  0  0  0  0  0  # atno 17321 bound_to 7965
  140.1009  143.4789  152.2426 LP  0  0  0  0  0  0  0  0  0  0  0  0  # atno 17342 bound_to 10162
  139.5824  144.7516  151.3605 LP  0  0  0  0  0  0  0  0  0  0  0  0  # atno 17343 bound_to 10162
  157.1167  130.6044  149.5495 LP  0  0  0  0  0  0  0  0  0  0  0  0  # atno 17370 bound_to 10713
  155.9908  130.4960  150.7273 LP  0  0  0  0  0  0  0  0  0  0  0  0  # atno 17371 bound_to 10713
  140.3133  134.8068  157.4194 LP  0  0  0  0  0  0  0  0  0  0  0  0  # atno 17394 bound_to 11000
  140.1159  134.5283  155.8225 LP  0  0  0  0  0  0  0  0  0  0  0  0  # atno 17395 bound_to 11000

$$$$
