AV-unprocessed.smi:1843|AV-procd|sdf|7506|dock2
  -GOLD-   22720 9213D 1   1.00000     0.00000
 Structure written by MMmdl.
 36 38  0  0  0  0  0  0  0  0  2 V2000
  152.3435  139.9733  154.8738 O   0  0  0  0  0  0  0  0  0  0  0  0
  151.7623  139.9905  155.9612 C   0  0  0  0  0  0  0  0  0  0  0  0
  152.3386  139.8768  157.1795 N   0  5  0  0  0  0  0  0  0  0  0  0
  152.0896  140.7941  158.1286 C   0  0  0  0  0  0  0  0  0  0  0  0
  152.4351  140.6128  159.4110 N   0  0  0  0  0  0  0  0  0  0  0  0
  152.0901  141.6825  160.2242 N   0  0  0  0  0  0  0  0  0  0  0  0
  151.4970  142.6642  159.5408 C   0  0  0  0  0  0  0  0  0  0  0  0
  151.0336  143.9242  160.1920 C   0  0  0  0  0  0  0  0  0  0  0  0
  150.1990  144.9419  159.4454 C   0  0  0  0  0  0  0  0  0  0  0  0
  151.6282  145.2588  159.8044 C   0  0  0  0  0  0  0  0  0  0  0  0
  151.3112  142.3465  157.8233 S   0  0  0  0  0  0  0  0  0  0  0  0
  150.4292  140.1264  156.0067 N   0  0  0  0  0  0  0  0  0  0  0  0
  149.5350  140.2534  154.8570 C   0  0  2  0  0  0  0  0  0  0  0  0
  148.5519  141.4211  155.0674 C   0  0  0  0  0  0  0  0  0  0  0  0
  147.6078  141.5765  153.8644 C   0  0  0  0  0  0  0  0  0  0  0  0
  146.8515  140.2701  153.5748 C   0  0  0  0  0  0  0  0  0  0  0  0
  147.8204  139.0903  153.3741 C   0  0  0  0  0  0  0  0  0  0  0  0
  148.7934  138.9269  154.5581 C   0  0  2  0  0  0  0  0  0  0  0  0
  148.0713  138.4853  155.6932 O   0  0  0  0  0  0  0  0  0  0  0  0
  150.8049  143.7520  161.2419 H   0  0  0  0  0  0  0  0  0  0  0  0
  149.9796  144.7583  158.3955 H   0  0  0  0  0  0  0  0  0  0  0  0
  149.4158  145.4521  160.0022 H   0  0  0  0  0  0  0  0  0  0  0  0
  151.7995  145.9816  160.5992 H   0  0  0  0  0  0  0  0  0  0  0  0
  152.3556  145.2730  158.9952 H   0  0  0  0  0  0  0  0  0  0  0  0
  149.9981  140.1384  156.9192 H   0  0  0  0  0  0  0  0  0  0  0  0
  150.1446  140.5021  153.9861 H   0  0  0  0  0  0  0  0  0  0  0  0
  147.9660  141.2592  155.9731 H   0  0  0  0  0  0  0  0  0  0  0  0
  149.1039  142.3493  155.2202 H   0  0  0  0  0  0  0  0  0  0  0  0
  146.8985  142.3831  154.0512 H   0  0  0  0  0  0  0  0  0  0  0  0
  148.1828  141.8682  152.9847 H   0  0  0  0  0  0  0  0  0  0  0  0
  146.1724  140.0520  154.4000 H   0  0  0  0  0  0  0  0  0  0  0  0
  146.2277  140.3909  152.6889 H   0  0  0  0  0  0  0  0  0  0  0  0
  147.2599  138.1683  153.2155 H   0  0  0  0  0  0  0  0  0  0  0  0
  148.3955  139.2562  152.4623 H   0  0  0  0  0  0  0  0  0  0  0  0
  149.5167  138.1484  154.3130 H   0  0  0  0  0  0  0  0  0  0  0  0
  147.1562  138.6772  155.5520 H   0  0  0  0  0  0  0  0  0  0  0  0
  1  2  2  0  0  0  0
  2  3  1  0  0  0  0
  2 12  1  0  0  0  0
  3  4  1  0  0  0  0
  4 11  1  0  0  0  0
  4  5  2  0  0  0  0
  5  6  1  0  0  0  0
  6  7  2  0  0  0  0
  7  8  1  0  0  0  0
  7 11  1  0  0  0  0
  8 10  1  0  0  0  0
  8  9  1  0  0  0  0
  8 20  1  0  0  0  0
  9 10  1  0  0  0  0
  9 21  1  0  0  0  0
  9 22  1  0  0  0  0
 10 23  1  0  0  0  0
 10 24  1  0  0  0  0
 12 13  1  0  0  0  0
 12 25  1  0  0  0  0
 13 18  1  0  0  0  0
 13 14  1  0  0  0  0
 13 26  1  0  0  0  0
 14 15  1  0  0  0  0
 14 27  1  0  0  0  0
 14 28  1  0  0  0  0
 15 16  1  0  0  0  0
 15 29  1  0  0  0  0
 15 30  1  0  0  0  0
 16 17  1  0  0  0  0
 16 31  1  0  0  0  0
 16 32  1  0  0  0  0
 17 18  1  0  0  0  0
 17 33  1  0  0  0  0
 17 34  1  0  0  0  0
 18 19  1  0  0  0  0
 18 35  1  0  0  0  0
 19 36  1  0  0  0  0
M  CHG  1   3  -1
M  END
> <s_m_source_file>
AV-unprocessed.smi

> <i_m_source_file_index>
1843

> <i_lp_mmshare_version>
43012

> <i_f3d_flags>
0

> <s_epik_input>
W09IXVtDQEBIXTFbQ0gyXVtDSDJdW0NIMl1bQ0gyXVtDQEhdMVtOSF1DKD1PKVtOSF1jMm5uYyhzMilbQ0hdM1tDSDJdW0NIMl0z

> <s_epik_cmdline>
J2VwaWtfcHl0aG9uJywgJy1waCcsICc3LjAnLCAnLXRuJywgJzgnLCAnLW1hJywgJzIwMCcsICctbWV0YWxfYmluZGluZycsICctaW1hZScsICc8aW5maWxlLm1hZT4nLCAnLW9tYWUnLCAnPG91dGZpbGUubWFlPic=

> <r_lp_tautomer_probability>
1

> <r_epik_Ionization_Penalty>
4.7996

> <r_epik_Ionization_Penalty_Charging>
4.64516

> <r_epik_Ionization_Penalty_Neutral>
0.154442

> <r_epik_State_Penalty>
4.64493

> <r_epik_Charging_Adjusted_Penalty>
9.29009

> <i_epik_Tot_Q>
-1

> <i_epik_Tot_abs_Q>
1

> <r_epik_Metal_State_Penalty>
0.896144

> <b_epik_Metal_Only>
1

> <s_lp_Force_Field>
OPLS_2005

> <r_lp_Energy>
9.09011

> <b_lp_Chiralities_Consistent>
1

> <s_lp_Variant>
AV-unprocessed.smi:1843-7

> <Gold.Version>
5.8.1

> <Gold.Id.Protein>
6NUR|6NUR_protein|mol2

> <Gold.PLP.Fitness>
42.3415

> <Gold.PLP.PLP>
-35.6934

> <Gold.PLP.part.hbond>
-2.0000

> <Gold.PLP.part.metal>
0.0000

> <Gold.PLP.part.buried>
-5.9783

> <Gold.PLP.part.nonpolar>
-27.8766

> <Gold.PLP.part.repulsive>
0.1190

> <Gold.PLP.ligand.clash>
0.0000

> <Gold.PLP.ligand.torsion>
0.7730

> <Gold.PLP.Chemscore.Hbond>
2.6720

> <Gold.PLP.Chemscore.CHOScore>
0.0000

> <Gold.PLP.Chemscore.Metal>
0.0000

> <Gold.Chemscore.Hbonds>
donor molecule, donor type, donor heavy atom, donor atom, acceptor molecule, acceptor atom, score
      P1  H  7989  7998       L1     1  0.66
      P1  H  7997  8008       L1     3  1.56

> <Gold.PLP.Chemscore.Internal.Correction>
0.1780

> <Gold.Rescore>
     Score         DG    S(hbond)    S(metal)    S(lipo)     H(rot)  DE(clash)    DE(int)     intcor
     11.78     -14.35       0.85        0.00      89.19       1.72       0.12       2.45       ----

> <Gold.Chemscore.Fitness>
11.7822

> <Gold.Chemscore.DG>
-14.3544

> <Gold.Chemscore.ZeroCoef>
-5.4800

> <Gold.Chemscore.Hbond>
0.8480

> <Gold.Chemscore.Metal>
0.0000

> <Gold.Chemscore.Lipo>
89.1873

> <Gold.Chemscore.Internal_Hbond>
0.0000

> <Gold.Chemscore.DEClash>
0.1234

> <Gold.Chemscore.DEInternal>
2.4488

> <Gold.Chemscore.Rot>
1.7160

> <Gold.Chemscore.Internal.Correction>
   9.000000E+99

> <Gold.Chemscore.Hbonds>
donor molecule, donor type, donor heavy atom, donor atom, acceptor molecule, acceptor atom, score
      P1  H  7989  7998       L1     1  0.63
      P1  H  7997  8008       L1     3  0.13

> <Gold.Chemscore.Hbond.Weighted>
-2.8324

> <Gold.Chemscore.Metal.Weighted>
-0.0000

> <Gold.Chemscore.Lipo.Weighted>
-10.4349

> <Gold.Chemscore.Internal_Hbond.Weighted>
0.0000

> <Gold.Chemscore.DEClash.Weighted>
0.1234

> <Gold.Chemscore.DEInternal.Weighted>
2.4488

> <Gold.Chemscore.Rot.Weighted>
4.3930

> <Gold.Chemscore.Internal.Correction.Weighted>
   9.000000E+99

> <Gold.Protein.RotatedTorsions>
[ 6907 6896 6895 6894 ] final -114.18 input  -60.11 | X-H torsion
[ 7974 7965 7964 7962 ] final   28.97 input  175.53 | X-H torsion
[ 8008 7997 7996 7995 ] final  -63.44 input   59.86 | X-H torsion
[ 10167 10162 10161 10158 ] final   76.77 input  -65.29 | X-H torsion
[ 10718 10713 10712 10709 ] final -157.90 input   66.30 | X-H torsion
[ 10763 10752 10751 10750 ] final -135.82 input  -60.55 | X-H torsion
[ 11005 11000 10999 10996 ] final  -37.38 input  -57.11 | X-H torsion

> <Gold.Protein.ActiveResidues>
 VAL166  LYS551  ARG553  GLY616  TRP617  ASP618  TYR619  PRO620  LYS621  CYS622 
 ASP623  PHE694  ASN695  SER759  ASP760  ASP761  ALA762  ILE779  LEU786  VAL792 
 PHE793  MET794  SER795  GLU796  ALA797  LYS798  CYS799  TRP800  GLU811  SER814 

> <Gold.Protein.RotatedAtoms>
  150.7883  133.8838  159.3293 H   0  0  0  0  0  0  0  0  0  0  0  0  # atno 6907 bound_to 6896
  151.6682  135.0978  160.0202 H   0  0  0  0  0  0  0  0  0  0  0  0  # atno 6908 bound_to 6896
  152.3952  133.6698  159.6306 H   0  0  0  0  0  0  0  0  0  0  0  0  # atno 6909 bound_to 6896
  146.1698  139.6984  142.8975 H   0  0  0  0  0  0  0  0  0  0  0  0  # atno 7974 bound_to 7965
  154.4554  140.0975  156.6742 H   0  0  0  0  0  0  0  0  0  0  0  0  # atno 8008 bound_to 7997
  155.5154  140.3477  155.4378 H   0  0  0  0  0  0  0  0  0  0  0  0  # atno 8009 bound_to 7997
  156.0767  140.1363  156.9751 H   0  0  0  0  0  0  0  0  0  0  0  0  # atno 8010 bound_to 7997
  139.9886  144.5773  150.7837 H   0  0  0  0  0  0  0  0  0  0  0  0  # atno 10167 bound_to 10162
  156.5467  130.8587  151.2767 H   0  0  0  0  0  0  0  0  0  0  0  0  # atno 10718 bound_to 10713
  154.8696  135.3691  154.4961 H   0  0  0  0  0  0  0  0  0  0  0  0  # atno 10763 bound_to 10752
  153.5604  135.7023  153.5555 H   0  0  0  0  0  0  0  0  0  0  0  0  # atno 10764 bound_to 10752
  153.3633  135.4041  155.1698 H   0  0  0  0  0  0  0  0  0  0  0  0  # atno 10765 bound_to 10752
  140.9947  133.6986  156.1913 H   0  0  0  0  0  0  0  0  0  0  0  0  # atno 11005 bound_to 11000
  145.4370  141.0419  143.2879 LP  0  0  0  0  0  0  0  0  0  0  0  0  # atno 17320 bound_to 7965
  144.8146  139.5899  143.7014 LP  0  0  0  0  0  0  0  0  0  0  0  0  # atno 17321 bound_to 7965
  140.7463  143.2888  151.3387 LP  0  0  0  0  0  0  0  0  0  0  0  0  # atno 17342 bound_to 10162
  139.6356  144.0636  152.2513 LP  0  0  0  0  0  0  0  0  0  0  0  0  # atno 17343 bound_to 10162
  157.7395  130.9833  150.2319 LP  0  0  0  0  0  0  0  0  0  0  0  0  # atno 17370 bound_to 10713
  156.2921  130.3747  149.7831 LP  0  0  0  0  0  0  0  0  0  0  0  0  # atno 17371 bound_to 10713
  140.6984  134.4590  157.5587 LP  0  0  0  0  0  0  0  0  0  0  0  0  # atno 17394 bound_to 11000
  139.9009  134.8558  156.1901 LP  0  0  0  0  0  0  0  0  0  0  0  0  # atno 17395 bound_to 11000

$$$$
