AV-unprocessed.smi:55|AV-procd|sdf|572|dock1
  -GOLD-   2262016473D 1   1.00000     0.00000
 Structure written by MMmdl.
 30 31  0  0  0  0  0  0  0  0  2 V2000
  151.0261  143.1027  158.4166 C   0  0  0  0  0  0  0  0  0  0  0  0
  151.2614  141.8583  157.5784 C   0  0  0  0  0  0  0  0  0  0  0  0
  150.6139  141.6415  156.4115 C   0  0  0  0  0  0  0  0  0  0  0  0
  150.8312  140.5046  155.6502 N   0  0  0  0  0  0  0  0  0  0  0  0
  150.1028  140.2671  154.3411 C   0  0  1  0  0  0  0  0  0  0  0  0
  149.2971  138.9558  154.3962 C   0  0  0  0  0  0  0  0  0  0  0  0
  147.9053  139.3792  153.9606 C   0  0  2  0  0  0  0  0  0  0  0  0
  147.7387  139.1966  152.5668 O   0  0  0  0  0  0  0  0  0  0  0  0
  147.8678  140.8589  154.3597 C   0  0  2  0  0  0  0  0  0  0  0  0
  146.8388  141.7497  153.6419 C   0  0  0  0  0  0  0  0  0  0  0  0
  145.5902  141.6898  154.2991 O   0  0  0  0  0  0  0  0  0  0  0  0
  149.1945  141.3048  154.1038 O   0  0  0  0  0  0  0  0  0  0  0  0
  151.7676  139.5345  156.0954 C   0  0  0  0  0  0  0  0  0  0  0  0
  151.9439  138.5373  155.3949 O   0  0  0  0  0  0  0  0  0  0  0  0
  152.4252  139.7449  157.2713 N   0  5  0  0  0  0  0  0  0  0  0  0
  152.2241  140.8519  158.0417 C   0  0  0  0  0  0  0  0  0  0  0  0
  152.8220  141.0273  159.1032 O   0  0  0  0  0  0  0  0  0  0  0  0
  150.8724  140.2841  153.5676 H   0  0  0  0  0  0  0  0  0  0  0  0
  147.1322  138.8066  154.4737 H   0  0  0  0  0  0  0  0  0  0  0  0
  147.7030  140.9217  155.4370 H   0  0  0  0  0  0  0  0  0  0  0  0
  150.2891  143.7593  157.9540 H   0  0  0  0  0  0  0  0  0  0  0  0
  151.9536  143.6643  158.5324 H   0  0  0  0  0  0  0  0  0  0  0  0
  150.6612  142.8308  159.4077 H   0  0  0  0  0  0  0  0  0  0  0  0
  149.9104  142.3873  156.0760 H   0  0  0  0  0  0  0  0  0  0  0  0
  149.7470  138.1911  153.7620 H   0  0  0  0  0  0  0  0  0  0  0  0
  149.2690  138.5829  155.4212 H   0  0  0  0  0  0  0  0  0  0  0  0
  148.3922  139.7115  152.1184 H   0  0  0  0  0  0  0  0  0  0  0  0
  147.1791  142.7854  153.6468 H   0  0  0  0  0  0  0  0  0  0  0  0
  146.7185  141.4619  152.5974 H   0  0  0  0  0  0  0  0  0  0  0  0
  144.9528  141.3310  153.7006 H   0  0  0  0  0  0  0  0  0  0  0  0
  1  2  1  0  0  0  0
  1 21  1  0  0  0  0
  1 22  1  0  0  0  0
  1 23  1  0  0  0  0
  2 16  1  0  0  0  0
  2  3  2  0  0  0  0
  3  4  1  0  0  0  0
  3 24  1  0  0  0  0
  4  5  1  0  0  0  0
  4 13  1  0  0  0  0
  5 18  1  0  0  0  0
  5 12  1  0  0  0  0
  5  6  1  0  0  0  0
  6  7  1  0  0  0  0
  6 25  1  0  0  0  0
  6 26  1  0  0  0  0
  7 19  1  0  0  0  0
  7  8  1  0  0  0  0
  7  9  1  0  0  0  0
  8 27  1  0  0  0  0
  9 20  1  0  0  0  0
  9 10  1  0  0  0  0
  9 12  1  0  0  0  0
 10 11  1  0  0  0  0
 10 28  1  0  0  0  0
 10 29  1  0  0  0  0
 11 30  1  0  0  0  0
 13 14  2  0  0  0  0
 13 15  1  0  0  0  0
 15 16  1  0  0  0  0
 16 17  2  0  0  0  0
M  CHG  1  15  -1
M  END
> <s_m_source_file>
AV-unprocessed.smi

> <i_m_source_file_index>
55

> <i_lp_mmshare_version>
43012

> <i_f3d_flags>
0

> <s_epik_input>
Tz1jMVtuSF1jKD1PKW4oW2NIXWMxW0NIM10pW0NAQEhdMltDSDJdW0NAQEhdKFtPSF0pW0NAQEhdKE8yKVtDSDJdW09IXQ==

> <s_epik_cmdline>
J2VwaWtfcHl0aG9uJywgJy1waCcsICc3LjAnLCAnLXRuJywgJzgnLCAnLW1hJywgJzIwMCcsICctbWV0YWxfYmluZGluZycsICctaW1hZScsICc8aW5maWxlLm1hZT4nLCAnLW9tYWUnLCAnPG91dGZpbGUubWFlPic=

> <r_lp_tautomer_probability>
0.999537

> <r_epik_Ionization_Penalty>
3.66603

> <r_epik_Ionization_Penalty_Charging>
1.09773e-07

> <r_epik_Ionization_Penalty_Neutral>
3.66603

> <r_epik_State_Penalty>
3.66562

> <r_epik_Charging_Adjusted_Penalty>
3.66562

> <i_epik_Tot_Q>
-1

> <i_epik_Tot_abs_Q>
1

> <r_epik_Metal_State_Penalty>
0.234536

> <b_epik_Metal_Only>
1

> <s_epik_Chemistry_Notes>
This compound contains an acetal/aminal-like group ( X-CH(R)-Y where X, Y are N, S, or O) that may be acid/base labile, releasing an aldehyde.

> <s_lp_Force_Field>
OPLS_2005

> <r_lp_Energy>
39.9297

> <b_lp_Chiralities_Consistent>
1

> <s_lp_Variant>
AV-unprocessed.smi:55-12

> <Gold.Version>
5.8.1

> <Gold.Id.Protein>
6NUR|6NUR_protein|mol2

> <Gold.PLP.Fitness>
45.6439

> <Gold.PLP.PLP>
-29.5681

> <Gold.PLP.part.hbond>
-5.2086

> <Gold.PLP.part.metal>
0.0000

> <Gold.PLP.part.buried>
-2.0805

> <Gold.PLP.part.nonpolar>
-22.8109

> <Gold.PLP.part.repulsive>
0.1795

> <Gold.PLP.ligand.clash>
0.0000

> <Gold.PLP.ligand.torsion>
0.2888

> <Gold.PLP.Chemscore.Hbond>
4.5499

> <Gold.PLP.Chemscore.CHOScore>
1.0000

> <Gold.PLP.Chemscore.Metal>
0.0000

> <Gold.Chemscore.Hbonds>
donor molecule, donor type, donor heavy atom, donor atom, acceptor molecule, acceptor atom, score
      L1  H     8    27       P1  7957  1.00
      L1  H    11    30       P1 10175  1.00
      P1  H  7997  8009       L1    15  1.76
      P1  H  8011  8017       L1    12  0.49
      L1  C     3    24       P1  8028  0.87

> <Gold.PLP.Chemscore.Internal.Correction>
0.0036

> <Gold.Rescore>
     Score         DG    S(hbond)    S(metal)    S(lipo)     H(rot)  DE(clash)    DE(int)     intcor
     10.56     -13.31       2.79        0.00      46.00       2.69       1.33       1.42       ----

> <Gold.Chemscore.Fitness>
10.5630

> <Gold.Chemscore.DG>
-13.3098

> <Gold.Chemscore.ZeroCoef>
-5.4800

> <Gold.Chemscore.Hbond>
2.7925

> <Gold.Chemscore.Metal>
0.0000

> <Gold.Chemscore.Lipo>
46.0005

> <Gold.Chemscore.Internal_Hbond>
0.0000

> <Gold.Chemscore.DEClash>
1.3310

> <Gold.Chemscore.DEInternal>
1.4158

> <Gold.Chemscore.Rot>
2.6871

> <Gold.Chemscore.Internal.Correction>
   9.000000E+99

> <Gold.Chemscore.Hbonds>
donor molecule, donor type, donor heavy atom, donor atom, acceptor molecule, acceptor atom, score
      L1  H     8    27       P1  7957  0.96
      L1  H    11    30       P1 10175  0.34
      P1  H  7997  8009       L1    15  0.08
      P1  H  8011  8017       L1    12  0.35

> <Gold.Chemscore.Hbond.Weighted>
-9.3268

> <Gold.Chemscore.Metal.Weighted>
-0.0000

> <Gold.Chemscore.Lipo.Weighted>
-5.3821

> <Gold.Chemscore.Internal_Hbond.Weighted>
0.0000

> <Gold.Chemscore.DEClash.Weighted>
1.3310

> <Gold.Chemscore.DEInternal.Weighted>
1.4158

> <Gold.Chemscore.Rot.Weighted>
6.8791

> <Gold.Chemscore.Internal.Correction.Weighted>
   9.000000E+99

> <Gold.Protein.RotatedTorsions>
[ 6907 6896 6895 6894 ] final -137.56 input  -60.11 | X-H torsion
[ 7974 7965 7964 7962 ] final   59.81 input  175.53 | X-H torsion
[ 8008 7997 7996 7995 ] final -175.77 input   59.86 | X-H torsion
[ 10167 10162 10161 10158 ] final -167.73 input  -65.29 | X-H torsion
[ 10718 10713 10712 10709 ] final  -67.14 input   66.30 | X-H torsion
[ 10763 10752 10751 10750 ] final  150.94 input  -60.55 | X-H torsion
[ 11005 11000 10999 10996 ] final  -47.98 input  -57.11 | X-H torsion

> <Gold.Protein.ActiveResidues>
 VAL166  LYS551  ARG553  GLY616  TRP617  ASP618  TYR619  PRO620  LYS621  CYS622 
 ASP623  PHE694  ASN695  SER759  ASP760  ASP761  ALA762  ILE779  LEU786  VAL792 
 PHE793  MET794  SER795  GLU796  ALA797  LYS798  CYS799  TRP800  GLU811  SER814 

> <Gold.Protein.RotatedAtoms>
  151.0240  133.5851  159.2667 H   0  0  0  0  0  0  0  0  0  0  0  0  # atno 6907 bound_to 6896
  151.2957  135.0753  159.9230 H   0  0  0  0  0  0  0  0  0  0  0  0  # atno 6908 bound_to 6896
  152.5329  133.9930  159.7914 H   0  0  0  0  0  0  0  0  0  0  0  0  # atno 6909 bound_to 6896
  145.9030  139.3595  143.0581 H   0  0  0  0  0  0  0  0  0  0  0  0  # atno 7974 bound_to 7965
  155.9867  140.1192  157.0677 H   0  0  0  0  0  0  0  0  0  0  0  0  # atno 8008 bound_to 7997
  154.4199  140.1134  156.5577 H   0  0  0  0  0  0  0  0  0  0  0  0  # atno 8009 bound_to 7997
  155.6398  140.3473  155.4713 H   0  0  0  0  0  0  0  0  0  0  0  0  # atno 8010 bound_to 7997
  139.6030  144.0970  152.1763 H   0  0  0  0  0  0  0  0  0  0  0  0  # atno 10167 bound_to 10162
  156.0573  130.4273  150.1811 H   0  0  0  0  0  0  0  0  0  0  0  0  # atno 10718 bound_to 10713
  154.0956  135.2849  155.3262 H   0  0  0  0  0  0  0  0  0  0  0  0  # atno 10763 bound_to 10752
  154.6590  135.5341  153.7998 H   0  0  0  0  0  0  0  0  0  0  0  0  # atno 10764 bound_to 10752
  153.0397  135.6529  154.1123 H   0  0  0  0  0  0  0  0  0  0  0  0  # atno 10765 bound_to 10752
  141.0673  133.6690  156.3375 H   0  0  0  0  0  0  0  0  0  0  0  0  # atno 11005 bound_to 11000
  145.8767  140.9387  143.0622 LP  0  0  0  0  0  0  0  0  0  0  0  0  # atno 17320 bound_to 7965
  144.6737  140.0726  143.7472 LP  0  0  0  0  0  0  0  0  0  0  0  0  # atno 17321 bound_to 7965
  140.0571  144.5886  150.7291 LP  0  0  0  0  0  0  0  0  0  0  0  0  # atno 17342 bound_to 10162
  140.7264  143.2641  151.4105 LP  0  0  0  0  0  0  0  0  0  0  0  0  # atno 17343 bound_to 10162
  156.9885  130.9886  151.3420 LP  0  0  0  0  0  0  0  0  0  0  0  0  # atno 17370 bound_to 10713
  157.5554  130.8210  149.8198 LP  0  0  0  0  0  0  0  0  0  0  0  0  # atno 17371 bound_to 10713
  140.5746  134.5806  157.5465 LP  0  0  0  0  0  0  0  0  0  0  0  0  # atno 17394 bound_to 11000
  139.9489  134.7652  156.0495 LP  0  0  0  0  0  0  0  0  0  0  0  0  # atno 17395 bound_to 11000

$$$$
