AV-unprocessed.smi:481|AV-procd|sdf|2682|dock7
  -GOLD-   2262023103D 1   1.00000     0.00000
 Structure written by MMmdl.
 42 44  0  0  0  0  0  0  0  0  2 V2000
  145.9103  143.4317  154.0549 C   0  0  0  0  0  0  0  0  0  0  0  0
  145.7687  142.0835  154.4671 O   0  0  0  0  0  0  0  0  0  0  0  0
  146.7748  141.6887  155.3844 C   0  0  0  0  0  0  0  0  0  0  0  0
  146.6248  140.1901  155.6733 C   0  0  0  0  0  0  0  0  0  0  0  0
  147.7956  139.6552  156.3618 N   0  0  0  0  0  0  0  0  0  0  0  0
  147.8225  138.9757  157.5364 C   0  0  0  0  0  0  0  0  0  0  0  0
  146.6346  138.7316  158.2253 N   0  0  0  0  0  0  0  0  0  0  0  0
  146.6395  138.0720  159.3703 N   0  0  0  0  0  0  0  0  0  0  0  0
  147.2093  136.9209  159.3564 C   0  0  0  0  0  0  0  0  0  0  0  0
  147.2925  136.0696  160.5526 C   0  0  0  0  0  0  0  0  0  0  0  0
  147.1508  136.5972  161.8582 C   0  0  0  0  0  0  0  0  0  0  0  0
  147.2375  135.7517  162.9816 C   0  0  0  0  0  0  0  0  0  0  0  0
  147.4662  134.3733  162.8110 C   0  0  0  0  0  0  0  0  0  0  0  0
  147.6080  133.8407  161.5157 C   0  0  0  0  0  0  0  0  0  0  0  0
  147.5212  134.6854  160.3920 C   0  0  0  0  0  0  0  0  0  0  0  0
  149.0413  138.5979  157.9357 N   0  0  0  0  0  0  0  0  0  0  0  0
  149.8585  139.0908  156.9286 C   0  0  0  0  0  0  0  0  0  0  0  0
  149.1356  139.7372  155.9758 C   0  0  0  0  0  0  0  0  0  0  0  0
  149.7313  140.3867  154.7896 C   0  0  0  0  0  0  0  0  0  0  0  0
  149.0300  140.9809  153.9730 O   0  0  0  0  0  0  0  0  0  0  0  0
  151.0935  140.2375  154.7510 N   0  5  0  0  0  0  0  0  0  0  0  0
  151.8661  139.5850  155.6889 C   0  0  0  0  0  0  0  0  0  0  0  0
  153.0886  139.5007  155.5694 O   0  0  0  0  0  0  0  0  0  0  0  0
  151.2691  139.0135  156.7844 N   0  0  0  0  0  0  0  0  0  0  0  0
  152.0203  138.3152  157.8322 C   0  0  0  0  0  0  0  0  0  0  0  0
  145.1184  143.6846  153.3500 H   0  0  0  0  0  0  0  0  0  0  0  0
  146.8675  143.5949  153.5581 H   0  0  0  0  0  0  0  0  0  0  0  0
  145.8350  144.1125  154.9038 H   0  0  0  0  0  0  0  0  0  0  0  0
  147.7626  141.8972  154.9705 H   0  0  0  0  0  0  0  0  0  0  0  0
  146.6777  142.2593  156.3094 H   0  0  0  0  0  0  0  0  0  0  0  0
  145.7361  140.0137  156.2795 H   0  0  0  0  0  0  0  0  0  0  0  0
  146.4616  139.6326  154.7518 H   0  0  0  0  0  0  0  0  0  0  0  0
  145.7722  139.0823  157.8343 H   0  0  0  0  0  0  0  0  0  0  0  0
  147.6542  136.5412  158.4339 H   0  0  0  0  0  0  0  0  0  0  0  0
  146.9750  137.6520  162.0132 H   0  0  0  0  0  0  0  0  0  0  0  0
  147.1286  136.1626  163.9746 H   0  0  0  0  0  0  0  0  0  0  0  0
  147.5330  133.7254  163.6725 H   0  0  0  0  0  0  0  0  0  0  0  0
  147.7840  132.7834  161.3829 H   0  0  0  0  0  0  0  0  0  0  0  0
  147.6327  134.2606  159.4047 H   0  0  0  0  0  0  0  0  0  0  0  0
  153.0968  138.2747  157.6645 H   0  0  0  0  0  0  0  0  0  0  0  0
  151.6668  137.2874  157.9192 H   0  0  0  0  0  0  0  0  0  0  0  0
  151.8596  138.8067  158.7923 H   0  0  0  0  0  0  0  0  0  0  0  0
  1  2  1  0  0  0  0
  1 26  1  0  0  0  0
  1 27  1  0  0  0  0
  1 28  1  0  0  0  0
  2  3  1  0  0  0  0
  3  4  1  0  0  0  0
  3 29  1  0  0  0  0
  3 30  1  0  0  0  0
  4  5  1  0  0  0  0
  4 31  1  0  0  0  0
  4 32  1  0  0  0  0
  5 18  1  0  0  0  0
  5  6  1  0  0  0  0
  6  7  1  0  0  0  0
  6 16  2  0  0  0  0
  7  8  1  0  0  0  0
  7 33  1  0  0  0  0
  8  9  2  0  0  0  0
  9 10  1  0  0  0  0
  9 34  1  0  0  0  0
 10 15  1  0  0  0  0
 10 11  2  0  0  0  0
 11 12  1  0  0  0  0
 11 35  1  0  0  0  0
 12 13  2  0  0  0  0
 12 36  1  0  0  0  0
 13 14  1  0  0  0  0
 13 37  1  0  0  0  0
 14 15  2  0  0  0  0
 14 38  1  0  0  0  0
 15 39  1  0  0  0  0
 16 17  1  0  0  0  0
 17 24  1  0  0  0  0
 17 18  2  0  0  0  0
 18 19  1  0  0  0  0
 19 20  2  0  0  0  0
 19 21  1  0  0  0  0
 21 22  1  0  0  0  0
 22 23  2  0  0  0  0
 22 24  1  0  0  0  0
 24 25  1  0  0  0  0
 25 40  1  0  0  0  0
 25 41  1  0  0  0  0
 25 42  1  0  0  0  0
M  CHG  1  21  -1
M  END
> <s_m_source_file>
AV-unprocessed.smi

> <i_m_source_file_index>
481

> <i_lp_mmshare_version>
43012

> <i_f3d_flags>
0

> <s_epik_input>
W0NIM11uMWMoPU8pW25IXWMoPU8pYyhjMTIpbihbQ0gyXVtDSDJdT1tDSDNdKWMobjIpW05IXS9OPVtDSF0vYzNbY0hdW2NIXVtjSF1bY0hdW2NIXTM=

> <s_epik_cmdline>
J2VwaWtfcHl0aG9uJywgJy1waCcsICc3LjAnLCAnLXRuJywgJzgnLCAnLW1hJywgJzIwMCcsICctbWV0YWxfYmluZGluZycsICctaW1hZScsICc8aW5maWxlLm1hZT4nLCAnLW9tYWUnLCAnPG91dGZpbGUubWFlPic=

> <r_epik_Ionization_Penalty>
4.48471

> <r_epik_Ionization_Penalty_Charging>
4.58449e-09

> <r_epik_Ionization_Penalty_Neutral>
4.48471

> <r_epik_State_Penalty>
4.48428

> <r_epik_Charging_Adjusted_Penalty>
4.48428

> <i_epik_Tot_Q>
-1

> <i_epik_Tot_abs_Q>
1

> <r_epik_Metal_State_Penalty>
0.811551

> <b_epik_Metal_Only>
1

> <s_epik_Chemistry_Notes>
This compound has an imine and may undergo hydrolysis.

> <s_lp_Force_Field>
OPLS_2005

> <r_lp_Energy>
36.4971

> <b_lp_Chiralities_Consistent>
1

> <s_lp_Variant>
AV-unprocessed.smi:481-3

> <Gold.Version>
5.8.1

> <Gold.Id.Protein>
6NUR|6NUR_protein|mol2

> <Gold.PLP.Fitness>
43.6256

> <Gold.PLP.PLP>
-35.8310

> <Gold.PLP.part.hbond>
-3.6877

> <Gold.PLP.part.metal>
0.0000

> <Gold.PLP.part.buried>
-6.3023

> <Gold.PLP.part.nonpolar>
-27.9034

> <Gold.PLP.part.repulsive>
1.6046

> <Gold.PLP.ligand.clash>
0.0000

> <Gold.PLP.ligand.torsion>
0.4197

> <Gold.PLP.Chemscore.Hbond>
2.8692

> <Gold.PLP.Chemscore.CHOScore>
0.0000

> <Gold.PLP.Chemscore.Metal>
0.0000

> <Gold.Chemscore.Hbonds>
donor molecule, donor type, donor heavy atom, donor atom, acceptor molecule, acceptor atom, score
      P1  H  6934  6947       L1     8  0.67
      P1  H  7989  7998       L1    21  0.93
      P1  H  7997  8009       L1    23  1.00
      P1  H  8011  8017       L1    20  0.28

> <Gold.PLP.Chemscore.Internal.Correction>
0.0265

> <Gold.Rescore>
     Score         DG    S(hbond)    S(metal)    S(lipo)     H(rot)  DE(clash)    DE(int)     intcor
     15.67     -17.58       2.53        0.00      64.68       1.52       0.18       1.73       ----

> <Gold.Chemscore.Fitness>
15.6713

> <Gold.Chemscore.DG>
-17.5849

> <Gold.Chemscore.ZeroCoef>
-5.4800

> <Gold.Chemscore.Hbond>
2.5259

> <Gold.Chemscore.Metal>
0.0000

> <Gold.Chemscore.Lipo>
64.6771

> <Gold.Chemscore.Internal_Hbond>
0.0000

> <Gold.Chemscore.DEClash>
0.1844

> <Gold.Chemscore.DEInternal>
1.7292

> <Gold.Chemscore.Rot>
1.5230

> <Gold.Chemscore.Internal.Correction>
   9.000000E+99

> <Gold.Chemscore.Hbonds>
donor molecule, donor type, donor heavy atom, donor atom, acceptor molecule, acceptor atom, score
      P1  H  6934  6947       L1     8  0.49
      P1  H  7989  7998       L1    21  0.65
      P1  H  7997  8009       L1    23  0.95
      P1  H  8011  8017       L1    20  0.28

> <Gold.Chemscore.Hbond.Weighted>
-8.4366

> <Gold.Chemscore.Metal.Weighted>
-0.0000

> <Gold.Chemscore.Lipo.Weighted>
-7.5672

> <Gold.Chemscore.Internal_Hbond.Weighted>
0.0000

> <Gold.Chemscore.DEClash.Weighted>
0.1844

> <Gold.Chemscore.DEInternal.Weighted>
1.7292

> <Gold.Chemscore.Rot.Weighted>
3.8989

> <Gold.Chemscore.Internal.Correction.Weighted>
   9.000000E+99

> <Gold.Protein.RotatedTorsions>
[ 6907 6896 6895 6894 ] final   42.97 input  -60.11 | X-H torsion
[ 7974 7965 7964 7962 ] final -155.07 input  175.53 | X-H torsion
[ 8008 7997 7996 7995 ] final -137.61 input   59.86 | X-H torsion
[ 10167 10162 10161 10158 ] final  -82.28 input  -65.29 | X-H torsion
[ 10718 10713 10712 10709 ] final  129.70 input   66.30 | X-H torsion
[ 10763 10752 10751 10750 ] final -139.92 input  -60.55 | X-H torsion
[ 11005 11000 10999 10996 ] final  -24.90 input  -57.11 | X-H torsion

> <Gold.Protein.ActiveResidues>
 VAL166  LYS551  ARG553  GLY616  TRP617  ASP618  TYR619  PRO620  LYS621  CYS622 
 ASP623  PHE694  ASN695  SER759  ASP760  ASP761  ALA762  ILE779  LEU786  VAL792 
 PHE793  MET794  SER795  GLU796  ALA797  LYS798  CYS799  TRP800  GLU811  SER814 

> <Gold.Protein.RotatedAtoms>
  152.2145  134.8470  160.0493 H   0  0  0  0  0  0  0  0  0  0  0  0  # atno 6907 bound_to 6896
  151.9276  133.3597  159.3927 H   0  0  0  0  0  0  0  0  0  0  0  0  # atno 6908 bound_to 6896
  150.6984  134.4495  159.5374 H   0  0  0  0  0  0  0  0  0  0  0  0  # atno 6909 bound_to 6896
  144.7658  140.4301  143.5943 H   0  0  0  0  0  0  0  0  0  0  0  0  # atno 7974 bound_to 7965
  155.4147  140.0514  157.3029 H   0  0  0  0  0  0  0  0  0  0  0  0  # atno 8008 bound_to 7997
  154.4930  140.2127  155.9467 H   0  0  0  0  0  0  0  0  0  0  0  0  # atno 8009 bound_to 7997
  156.1368  140.3162  155.8438 H   0  0  0  0  0  0  0  0  0  0  0  0  # atno 8010 bound_to 7997
  140.4334  143.2540  151.8728 H   0  0  0  0  0  0  0  0  0  0  0  0  # atno 10167 bound_to 10162
  157.5130  131.1097  150.9266 H   0  0  0  0  0  0  0  0  0  0  0  0  # atno 10718 bound_to 10713
  154.8595  135.3568  154.5623 H   0  0  0  0  0  0  0  0  0  0  0  0  # atno 10763 bound_to 10752
  153.6238  135.7005  153.5305 H   0  0  0  0  0  0  0  0  0  0  0  0  # atno 10764 bound_to 10752
  153.3106  135.4179  155.1293 H   0  0  0  0  0  0  0  0  0  0  0  0  # atno 10765 bound_to 10752
  140.8888  133.7603  156.0394 H   0  0  0  0  0  0  0  0  0  0  0  0  # atno 11005 bound_to 11000
  145.6474  139.1559  143.2881 LP  0  0  0  0  0  0  0  0  0  0  0  0  # atno 17320 bound_to 7965
  146.1764  140.6566  142.9209 LP  0  0  0  0  0  0  0  0  0  0  0  0  # atno 17321 bound_to 7965
  139.4786  144.5310  151.8667 LP  0  0  0  0  0  0  0  0  0  0  0  0  # atno 17342 bound_to 10162
  140.4401  144.1997  150.5891 LP  0  0  0  0  0  0  0  0  0  0  0  0  # atno 17343 bound_to 10162
  156.9900  130.5560  149.5302 LP  0  0  0  0  0  0  0  0  0  0  0  0  # atno 17370 bound_to 10713
  156.0301  130.5393  150.8512 LP  0  0  0  0  0  0  0  0  0  0  0  0  # atno 17371 bound_to 10713
  140.8373  134.3108  157.5327 LP  0  0  0  0  0  0  0  0  0  0  0  0  # atno 17394 bound_to 11000
  139.8727  134.9396  156.3747 LP  0  0  0  0  0  0  0  0  0  0  0  0  # atno 17395 bound_to 11000

$$$$
