AV-unprocessed.smi:2923|AV-procd|sdf|11203|dock3
  -GOLD-   2272016 93D 1   1.00000     0.00000
 Structure written by MMmdl.
 47 49  0  0  0  0  0  0  0  0  2 V2000
  143.2134  132.4266  149.5282 C   0  0  0  0  0  0  0  0  0  0  0  0
  144.5404  132.8436  149.9680 N   0  0  0  0  0  0  0  0  0  0  0  0
  145.6916  131.9746  149.7602 C   0  0  0  0  0  0  0  0  0  0  0  0
  144.7049  134.0845  150.6206 C   0  0  0  0  0  0  0  0  0  0  0  0
  145.9697  134.6104  150.9813 C   0  0  0  0  0  0  0  0  0  0  0  0
  146.0503  135.8579  151.6339 C   0  0  0  0  0  0  0  0  0  0  0  0
  144.8728  136.5802  151.9187 C   0  0  0  0  0  0  0  0  0  0  0  0
  145.0065  137.8248  152.5925 N   0  0  0  0  0  0  0  0  0  0  0  0
  145.8970  138.1788  153.5354 C   0  0  0  0  0  0  0  0  0  0  0  0
  146.7495  137.4389  154.0251 O   0  0  0  0  0  0  0  0  0  0  0  0
  145.7327  139.4564  153.9020 N   0  0  0  0  0  0  0  0  0  0  0  0
  146.5374  140.1304  154.9138 C   0  0  1  0  0  0  0  0  0  0  0  0
  148.0279  140.1246  154.5755 C   0  0  2  0  0  0  0  0  0  0  0  0
  149.2330  139.4936  155.1763 C   0  0  0  0  0  0  0  0  0  0  0  0
  150.1576  140.7403  155.1549 C   0  0  0  0  0  0  0  0  0  0  0  0
  149.3032  141.8632  154.8261 O   0  0  0  0  0  0  0  0  0  0  0  0
  148.0297  141.4627  155.2888 C   0  0  1  0  0  0  0  0  0  0  0  0
  146.6137  141.6920  154.7230 C   0  0  0  0  0  0  0  0  0  0  0  0
  146.4944  142.2971  153.3093 C   0  0  0  0  0  0  0  0  0  0  0  0
  145.6778  142.5055  155.6175 C   0  0  0  0  0  0  0  0  0  0  0  0
  143.6328  136.0087  151.5462 C   0  0  0  0  0  0  0  0  0  0  0  0
  143.6015  134.8109  150.9236 N   0  3  0  0  0  0  0  0  0  0  0  0
  142.5357  132.3466  150.3790 H   0  0  0  0  0  0  0  0  0  0  0  0
  143.2450  131.4557  149.0337 H   0  0  0  0  0  0  0  0  0  0  0  0
  142.7999  133.1466  148.8211 H   0  0  0  0  0  0  0  0  0  0  0  0
  146.4372  132.4689  149.1368 H   0  0  0  0  0  0  0  0  0  0  0  0
  145.4037  131.0479  149.2637 H   0  0  0  0  0  0  0  0  0  0  0  0
  146.1514  131.7117  150.7133 H   0  0  0  0  0  0  0  0  0  0  0  0
  146.8839  134.0760  150.7702 H   0  0  0  0  0  0  0  0  0  0  0  0
  147.0156  136.2562  151.9107 H   0  0  0  0  0  0  0  0  0  0  0  0
  144.3233  138.5260  152.3460 H   0  0  0  0  0  0  0  0  0  0  0  0
  145.0065  139.9985  153.4574 H   0  0  0  0  0  0  0  0  0  0  0  0
  146.3300  139.8115  155.9395 H   0  0  0  0  0  0  0  0  0  0  0  0
  148.1725  140.2146  153.4964 H   0  0  0  0  0  0  0  0  0  0  0  0
  149.0459  139.1395  156.1910 H   0  0  0  0  0  0  0  0  0  0  0  0
  149.6246  138.6710  154.5774 H   0  0  0  0  0  0  0  0  0  0  0  0
  150.6288  140.8916  156.1268 H   0  0  0  0  0  0  0  0  0  0  0  0
  150.9454  140.6506  154.4065 H   0  0  0  0  0  0  0  0  0  0  0  0
  148.0245  141.3818  156.3820 H   0  0  0  0  0  0  0  0  0  0  0  0
  146.8035  143.3427  153.3042 H   0  0  0  0  0  0  0  0  0  0  0  0
  145.4654  142.2639  152.9498 H   0  0  0  0  0  0  0  0  0  0  0  0
  147.1021  141.7910  152.5617 H   0  0  0  0  0  0  0  0  0  0  0  0
  145.9718  143.5549  155.6544 H   0  0  0  0  0  0  0  0  0  0  0  0
  145.6799  142.1337  156.6427 H   0  0  0  0  0  0  0  0  0  0  0  0
  144.6471  142.4626  155.2643 H   0  0  0  0  0  0  0  0  0  0  0  0
  142.6629  136.4463  151.7272 H   0  0  0  0  0  0  0  0  0  0  0  0
  142.6902  134.4298  150.6690 H   0  0  0  0  0  0  0  0  0  0  0  0
  1  2  1  0  0  0  0
  1 23  1  0  0  0  0
  1 24  1  0  0  0  0
  1 25  1  0  0  0  0
  2  3  1  0  0  0  0
  2  4  1  0  0  0  0
  3 26  1  0  0  0  0
  3 27  1  0  0  0  0
  3 28  1  0  0  0  0
  4 22  1  0  0  0  0
  4  5  2  0  0  0  0
  5  6  1  0  0  0  0
  5 29  1  0  0  0  0
  6  7  2  0  0  0  0
  6 30  1  0  0  0  0
  7  8  1  0  0  0  0
  7 21  1  0  0  0  0
  8  9  1  0  0  0  0
  8 31  1  0  0  0  0
  9 10  2  0  0  0  0
  9 11  1  0  0  0  0
 11 12  1  0  0  0  0
 11 32  1  0  0  0  0
 12 18  1  0  0  0  0
 12 13  1  0  0  0  0
 12 33  1  0  0  0  0
 13 17  1  0  0  0  0
 13 14  1  0  0  0  0
 13 34  1  0  0  0  0
 14 15  1  0  0  0  0
 14 35  1  0  0  0  0
 14 36  1  0  0  0  0
 15 16  1  0  0  0  0
 15 37  1  0  0  0  0
 15 38  1  0  0  0  0
 16 17  1  0  0  0  0
 17 18  1  0  0  0  0
 17 39  1  0  0  0  0
 18 19  1  0  0  0  0
 18 20  1  0  0  0  0
 19 40  1  0  0  0  0
 19 41  1  0  0  0  0
 19 42  1  0  0  0  0
 20 43  1  0  0  0  0
 20 44  1  0  0  0  0
 20 45  1  0  0  0  0
 21 22  2  0  0  0  0
 21 46  1  0  0  0  0
 22 47  1  0  0  0  0
M  CHG  1  22   1
M  END
> <s_m_source_file>
AV-unprocessed.smi

> <i_m_source_file_index>
2923

> <i_lp_mmshare_version>
43012

> <i_f3d_flags>
0

> <s_epik_input>
W0NIM11OKFtDSDNdKWMxW2NIXVtjSF1jKFtjSF1uMSlbTkhdQyg9TylbTkhdW0NASF0yQyhbQ0gzXSkoW0NIM10pW0NAQEhdKFtDQEhdMjMpT1tDSDJdW0NIMl0z

> <s_epik_cmdline>
J2VwaWtfcHl0aG9uJywgJy1waCcsICc3LjAnLCAnLXRuJywgJzgnLCAnLW1hJywgJzIwMCcsICctbWV0YWxfYmluZGluZycsICctaW1hZScsICc8aW5maWxlLm1hZT4nLCAnLW9tYWUnLCAnPG91dGZpbGUubWFlPic=

> <r_lp_tautomer_probability>
0.999994

> <r_epik_Ionization_Penalty>
0.252205

> <r_epik_Ionization_Penalty_Charging>
0.252185

> <r_epik_Ionization_Penalty_Neutral>
1.99479e-05

> <r_epik_State_Penalty>
0.243573

> <r_epik_Charging_Adjusted_Penalty>
0.495758

> <i_epik_Tot_Q>
1

> <i_epik_Tot_abs_Q>
1

> <r_epik_Metal_State_Penalty>
0.534372

> <b_epik_Metal_Only>
0

> <s_lp_Force_Field>
OPLS_2005

> <r_lp_Energy>
67.7909

> <b_lp_Chiralities_Consistent>
1

> <s_lp_Variant>
AV-unprocessed.smi:2923-2

> <Gold.Version>
5.8.1

> <Gold.Id.Protein>
6NUR|6NUR_protein|mol2

> <Gold.PLP.Fitness>
41.7538

> <Gold.PLP.PLP>
-30.4125

> <Gold.PLP.part.hbond>
-4.2359

> <Gold.PLP.part.metal>
0.0000

> <Gold.PLP.part.buried>
0.2605

> <Gold.PLP.part.nonpolar>
-28.7653

> <Gold.PLP.part.repulsive>
1.1178

> <Gold.PLP.ligand.clash>
0.0000

> <Gold.PLP.ligand.torsion>
0.4495

> <Gold.PLP.Chemscore.Hbond>
3.9913

> <Gold.PLP.Chemscore.CHOScore>
0.0000

> <Gold.PLP.Chemscore.Metal>
0.0000

> <Gold.Chemscore.Hbonds>
donor molecule, donor type, donor heavy atom, donor atom, acceptor molecule, acceptor atom, score
      L1  H     8    31       P1 10175  1.00
      L1  H    11    32       P1 10175  1.00
      L1  H    22    47       P1 10186  2.00

> <Gold.PLP.Chemscore.Internal.Correction>
0.2666

> <Gold.Rescore>
     Score         DG    S(hbond)    S(metal)    S(lipo)     H(rot)  DE(clash)    DE(int)     intcor
     15.73     -20.21       2.25        0.00      83.48       1.00       2.88       1.61       ----

> <Gold.Chemscore.Fitness>
15.7252

> <Gold.Chemscore.DG>
-20.2141

> <Gold.Chemscore.ZeroCoef>
-5.4800

> <Gold.Chemscore.Hbond>
2.2536

> <Gold.Chemscore.Metal>
0.0000

> <Gold.Chemscore.Lipo>
83.4783

> <Gold.Chemscore.Internal_Hbond>
0.0000

> <Gold.Chemscore.DEClash>
2.8792

> <Gold.Chemscore.DEInternal>
1.6097

> <Gold.Chemscore.Rot>
1.0000

> <Gold.Chemscore.Internal.Correction>
   9.000000E+99

> <Gold.Chemscore.Hbonds>
donor molecule, donor type, donor heavy atom, donor atom, acceptor molecule, acceptor atom, score
      L1  H     8    31       P1 10175  0.88
      L1  H    11    32       P1 10175  1.00
      L1  H    22    47       P1 10186  0.32

> <Gold.Chemscore.Hbond.Weighted>
-7.5272

> <Gold.Chemscore.Metal.Weighted>
-0.0000

> <Gold.Chemscore.Lipo.Weighted>
-9.7670

> <Gold.Chemscore.Internal_Hbond.Weighted>
0.0000

> <Gold.Chemscore.DEClash.Weighted>
2.8792

> <Gold.Chemscore.DEInternal.Weighted>
1.6097

> <Gold.Chemscore.Rot.Weighted>
2.5600

> <Gold.Chemscore.Internal.Correction.Weighted>
   9.000000E+99

> <Gold.Protein.RotatedTorsions>
[ 6907 6896 6895 6894 ] final  101.14 input  -60.11 | X-H torsion
[ 7974 7965 7964 7962 ] final  -15.08 input  175.53 | X-H torsion
[ 8008 7997 7996 7995 ] final -136.40 input   59.86 | X-H torsion
[ 10167 10162 10161 10158 ] final   34.85 input  -65.29 | X-H torsion
[ 10718 10713 10712 10709 ] final    0.28 input   66.30 | X-H torsion
[ 10763 10752 10751 10750 ] final  -70.23 input  -60.55 | X-H torsion
[ 11005 11000 10999 10996 ] final  150.85 input  -57.11 | X-H torsion

> <Gold.Protein.ActiveResidues>
 VAL166  LYS551  ARG553  GLY616  TRP617  ASP618  TYR619  PRO620  LYS621  CYS622 
 ASP623  PHE694  ASN695  SER759  ASP760  ASP761  ALA762  ILE779  LEU786  VAL792 
 PHE793  MET794  SER795  GLU796  ALA797  LYS798  CYS799  TRP800  GLU811  SER814 

> <Gold.Protein.RotatedAtoms>
  152.5356  134.0170  159.7964 H   0  0  0  0  0  0  0  0  0  0  0  0  # atno 6907 bound_to 6896
  151.0363  133.5738  159.2663 H   0  0  0  0  0  0  0  0  0  0  0  0  # atno 6908 bound_to 6896
  151.2724  135.0696  159.9192 H   0  0  0  0  0  0  0  0  0  0  0  0  # atno 6909 bound_to 6896
  146.2047  140.3441  142.8411 H   0  0  0  0  0  0  0  0  0  0  0  0  # atno 7974 bound_to 7965
  155.3946  140.0502  157.3039 H   0  0  0  0  0  0  0  0  0  0  0  0  # atno 8008 bound_to 7997
  154.5019  140.2160  155.9289 H   0  0  0  0  0  0  0  0  0  0  0  0  # atno 8009 bound_to 7997
  156.1478  140.3142  155.8604 H   0  0  0  0  0  0  0  0  0  0  0  0  # atno 8010 bound_to 7997
  140.4277  144.1370  150.6155 H   0  0  0  0  0  0  0  0  0  0  0  0  # atno 10167 bound_to 10162
  156.8311  130.5489  149.5687 H   0  0  0  0  0  0  0  0  0  0  0  0  # atno 10718 bound_to 10713
  154.4147  135.6001  153.5973 H   0  0  0  0  0  0  0  0  0  0  0  0  # atno 10763 bound_to 10752
  152.9791  135.5938  154.4028 H   0  0  0  0  0  0  0  0  0  0  0  0  # atno 10764 bound_to 10752
  154.3845  135.2841  155.2170 H   0  0  0  0  0  0  0  0  0  0  0  0  # atno 10765 bound_to 10752
  140.1167  134.8890  157.2014 H   0  0  0  0  0  0  0  0  0  0  0  0  # atno 11005 bound_to 11000
  144.8765  140.7343  143.6014 LP  0  0  0  0  0  0  0  0  0  0  0  0  # atno 17320 bound_to 7965
  145.3361  139.1745  143.4511 LP  0  0  0  0  0  0  0  0  0  0  0  0  # atno 17321 bound_to 7965
  140.4463  143.2505  151.9407 LP  0  0  0  0  0  0  0  0  0  0  0  0  # atno 17342 bound_to 10162
  139.4784  144.5606  151.8245 LP  0  0  0  0  0  0  0  0  0  0  0  0  # atno 17343 bound_to 10162
  156.0934  130.5913  150.9771 LP  0  0  0  0  0  0  0  0  0  0  0  0  # atno 17370 bound_to 10713
  157.6406  131.0910  150.8259 LP  0  0  0  0  0  0  0  0  0  0  0  0  # atno 17371 bound_to 10713
  140.3019  134.3122  155.7288 LP  0  0  0  0  0  0  0  0  0  0  0  0  # atno 17394 bound_to 11000
  141.2143  133.7597  156.9652 LP  0  0  0  0  0  0  0  0  0  0  0  0  # atno 17395 bound_to 11000

$$$$
