AV-unprocessed.smi:26|AV-procd|sdf|186|dock7
  -GOLD-   2262015453D 1   1.00000     0.00000
 Structure written by MMmdl.
 58 61  0  0  0  0  0  0  0  0  1 V2000
  155.0871  132.3999  160.1914 C   0  0  0  0  0  0  0  0  0  0  0  0
  154.6393  133.4011  161.2089 C   0  0  0  0  0  0  0  0  0  0  0  0
  154.5872  134.7583  161.0997 C   0  0  0  0  0  0  0  0  0  0  0  0
  154.1061  135.2939  162.3242 C   0  0  0  0  0  0  0  0  0  0  0  0
  153.9054  136.7208  162.6882 C   0  0  0  0  0  0  0  0  0  0  0  0
  153.1181  137.0910  163.5606 O   0  0  0  0  0  0  0  0  0  0  0  0
  154.7549  137.7393  161.9044 C   0  0  0  0  0  0  0  0  0  0  0  0
  153.9604  138.5916  161.0277 N   0  0  0  0  0  0  0  0  0  0  0  0
  153.0308  137.9636  160.1608 C   0  0  0  0  0  0  0  0  0  0  0  0
  152.8829  136.7405  160.1348 O   0  0  0  0  0  0  0  0  0  0  0  0
  152.2866  138.8796  159.3035 C   0  0  0  0  0  0  0  0  0  0  0  0
  151.3800  138.3925  158.4393 F   0  0  0  0  0  0  0  0  0  0  0  0
  152.4959  140.2124  159.3592 C   0  0  0  0  0  0  0  0  0  0  0  0
  153.4123  140.7989  160.2156 N   0  0  0  0  0  0  0  0  0  0  0  0
  153.6271  142.2957  160.2251 C   0  0  1  0  0  0  0  0  0  0  0  0
  152.9057  142.9422  159.0369 C   0  0  0  0  0  0  0  0  0  0  0  0
  151.6029  143.3893  159.6645 C   0  0  0  0  0  0  0  0  0  0  0  0
  152.0529  143.7627  161.0717 C   0  0  0  0  0  0  0  0  0  0  0  0
  153.0766  142.8266  161.3966 O   0  0  0  0  0  0  0  0  0  0  0  0
  154.1901  139.9883  161.0713 C   0  0  0  0  0  0  0  0  0  0  0  0
  155.0431  140.4844  161.8108 O   0  0  0  0  0  0  0  0  0  0  0  0
  153.8514  134.2340  163.1649 C   0  0  0  0  0  0  0  0  0  0  0  0
  153.3170  134.2431  164.5710 C   0  0  0  0  0  0  0  0  0  0  0  0
  154.1926  133.0561  162.4836 N   0  0  0  0  0  0  0  0  0  0  0  0
  154.1139  131.6769  162.9916 C   0  0  1  0  0  0  0  0  0  0  0  0
  155.0811  131.4577  164.1730 C   0  0  0  0  0  0  0  0  0  0  0  0
  152.6675  131.2183  163.2046 C   0  0  0  0  0  0  0  0  0  0  0  0
  152.0486  130.4171  162.2183 C   0  0  0  0  0  0  0  0  0  0  0  0
  150.7247  129.9673  162.3844 C   0  0  0  0  0  0  0  0  0  0  0  0
  150.0052  130.3099  163.5440 C   0  0  0  0  0  0  0  0  0  0  0  0
  150.6130  131.1001  164.5370 C   0  0  0  0  0  0  0  0  0  0  0  0
  151.9375  131.5495  164.3713 C   0  0  0  0  0  0  0  0  0  0  0  0
  155.4002  132.8947  159.2717 H   0  0  0  0  0  0  0  0  0  0  0  0
  154.2802  131.7121  159.9376 H   0  0  0  0  0  0  0  0  0  0  0  0
  155.9342  131.8202  160.5592 H   0  0  0  0  0  0  0  0  0  0  0  0
  154.8788  135.3130  160.2198 H   0  0  0  0  0  0  0  0  0  0  0  0
  155.3168  138.3855  162.5804 H   0  0  0  0  0  0  0  0  0  0  0  0
  155.5069  137.2334  161.2970 H   0  0  0  0  0  0  0  0  0  0  0  0
  151.9193  140.8381  158.6945 H   0  0  0  0  0  0  0  0  0  0  0  0
  154.7066  142.4539  160.2262 H   0  0  0  0  0  0  0  0  0  0  0  0
  153.4856  143.8045  158.7055 H   0  0  0  0  0  0  0  0  0  0  0  0
  152.7840  142.2547  158.1989 H   0  0  0  0  0  0  0  0  0  0  0  0
  151.1336  144.2175  159.1333 H   0  0  0  0  0  0  0  0  0  0  0  0
  150.8954  142.5600  159.6997 H   0  0  0  0  0  0  0  0  0  0  0  0
  152.4793  144.7668  161.0796 H   0  0  0  0  0  0  0  0  0  0  0  0
  151.2386  143.7333  161.7960 H   0  0  0  0  0  0  0  0  0  0  0  0
  152.4023  134.8330  164.6295 H   0  0  0  0  0  0  0  0  0  0  0  0
  154.0441  134.6844  165.2527 H   0  0  0  0  0  0  0  0  0  0  0  0
  153.0700  133.2581  164.9527 H   0  0  0  0  0  0  0  0  0  0  0  0
  154.4733  131.0071  162.2133 H   0  0  0  0  0  0  0  0  0  0  0  0
  155.1410  130.4029  164.4415 H   0  0  0  0  0  0  0  0  0  0  0  0
  154.7925  132.0113  165.0652 H   0  0  0  0  0  0  0  0  0  0  0  0
  156.0892  131.7766  163.9064 H   0  0  0  0  0  0  0  0  0  0  0  0
  152.5902  130.1440  161.3244 H   0  0  0  0  0  0  0  0  0  0  0  0
  150.2618  129.3586  161.6219 H   0  0  0  0  0  0  0  0  0  0  0  0
  148.9898  129.9654  163.6723 H   0  0  0  0  0  0  0  0  0  0  0  0
  150.0629  131.3621  165.4288 H   0  0  0  0  0  0  0  0  0  0  0  0
  152.3748  132.1535  165.1514 H   0  0  0  0  0  0  0  0  0  0  0  0
  1  2  1  0  0  0  0
  1 33  1  0  0  0  0
  1 34  1  0  0  0  0
  1 35  1  0  0  0  0
  2 24  1  0  0  0  0
  2  3  2  0  0  0  0
  3  4  1  0  0  0  0
  3 36  1  0  0  0  0
  4  5  1  0  0  0  0
  4 22  2  0  0  0  0
  5  6  2  0  0  0  0
  5  7  1  0  0  0  0
  7  8  1  0  0  0  0
  7 37  1  0  0  0  0
  7 38  1  0  0  0  0
  8 20  1  0  0  0  0
  8  9  1  0  0  0  0
  9 10  2  0  0  0  0
  9 11  1  0  0  0  0
 11 12  1  0  0  0  0
 11 13  2  0  0  0  0
 13 14  1  0  0  0  0
 13 39  1  0  0  0  0
 14 15  1  0  0  0  0
 14 20  1  0  0  0  0
 15 19  1  0  0  0  0
 15 16  1  0  0  0  0
 15 40  1  0  0  0  0
 16 17  1  0  0  0  0
 16 41  1  0  0  0  0
 16 42  1  0  0  0  0
 17 18  1  0  0  0  0
 17 43  1  0  0  0  0
 17 44  1  0  0  0  0
 18 19  1  0  0  0  0
 18 45  1  0  0  0  0
 18 46  1  0  0  0  0
 20 21  2  0  0  0  0
 22 23  1  0  0  0  0
 22 24  1  0  0  0  0
 23 47  1  0  0  0  0
 23 48  1  0  0  0  0
 23 49  1  0  0  0  0
 24 25  1  0  0  0  0
 25 26  1  0  0  0  0
 25 27  1  0  0  0  0
 25 50  1  0  0  0  0
 26 51  1  0  0  0  0
 26 52  1  0  0  0  0
 26 53  1  0  0  0  0
 27 32  1  0  0  0  0
 27 28  2  0  0  0  0
 28 29  1  0  0  0  0
 28 54  1  0  0  0  0
 29 30  2  0  0  0  0
 29 55  1  0  0  0  0
 30 31  1  0  0  0  0
 30 56  1  0  0  0  0
 31 32  2  0  0  0  0
 31 57  1  0  0  0  0
 32 58  1  0  0  0  0
M  END
> <s_m_source_file>
AV-unprocessed.smi

> <i_m_source_file_index>
26

> <i_lp_mmshare_version>
43012

> <i_f3d_flags>
0

> <s_epik_input>
W2NIXTFbY0hdW2NIXVtjSF1bY0hdYzFbQ0BASF0oW0NIM10pbjJjKFtDSDNdKWMoW2NIXWMyW0NIM10pQyg9TylbQ0gyXW4zYyg9TyljKEYpW2NIXW4oYzM9TylbQ0BASF00W0NIMl1bQ0gyXVtDSDJdTzQ=

> <s_epik_cmdline>
J2VwaWtfcHl0aG9uJywgJy1waCcsICc3LjAnLCAnLXRuJywgJzgnLCAnLW1hJywgJzIwMCcsICctbWV0YWxfYmluZGluZycsICctaW1hZScsICc8aW5maWxlLm1hZT4nLCAnLW9tYWUnLCAnPG91dGZpbGUubWFlPic=

> <r_lp_tautomer_probability>
1

> <r_epik_Ionization_Penalty>
5.02402e-09

> <r_epik_Ionization_Penalty_Charging>
5.01743e-09

> <r_epik_Ionization_Penalty_Neutral>
6.58831e-12

> <r_epik_State_Penalty>
-0

> <r_epik_Charging_Adjusted_Penalty>
5.01743e-09

> <i_epik_Tot_Q>
0

> <i_epik_Tot_abs_Q>
0

> <r_epik_Metal_State_Penalty>
-0

> <b_epik_Metal_Only>
0

> <s_epik_Chemistry_Notes>
This compound contains an acetal/aminal-like group ( X-CH(R)-Y where X, Y are N, S, or O) that may be acid/base labile, releasing an aldehyde.

> <s_lp_Force_Field>
OPLS_2005

> <r_lp_Energy>
50.594

> <b_lp_Chiralities_Consistent>
1

> <s_lp_Variant>
AV-unprocessed.smi:26-4

> <Gold.Version>
5.8.1

> <Gold.Id.Protein>
6NUR|6NUR_protein|mol2

> <Gold.PLP.Fitness>
54.3328

> <Gold.PLP.PLP>
-53.3552

> <Gold.PLP.part.hbond>
-2.0000

> <Gold.PLP.part.metal>
0.0000

> <Gold.PLP.part.buried>
-4.2886

> <Gold.PLP.part.nonpolar>
-47.6730

> <Gold.PLP.part.repulsive>
0.0624

> <Gold.PLP.ligand.clash>
0.0000

> <Gold.PLP.ligand.torsion>
1.1834

> <Gold.PLP.Chemscore.Hbond>
1.0000

> <Gold.PLP.Chemscore.CHOScore>
0.0000

> <Gold.PLP.Chemscore.Metal>
0.0000

> <Gold.Chemscore.Hbonds>
donor molecule, donor type, donor heavy atom, donor atom, acceptor molecule, acceptor atom, score
      P1  H  6896  6907       L1    10  1.00

> <Gold.PLP.Chemscore.Internal.Correction>
0.3444

> <Gold.Rescore>
     Score         DG    S(hbond)    S(metal)    S(lipo)     H(rot)  DE(clash)    DE(int)     intcor
     12.15     -17.63       1.00        0.00     115.50       1.84       0.18       5.30       ----

> <Gold.Chemscore.Fitness>
12.1507

> <Gold.Chemscore.DG>
-17.6320

> <Gold.Chemscore.ZeroCoef>
-5.4800

> <Gold.Chemscore.Hbond>
0.9995

> <Gold.Chemscore.Metal>
0.0000

> <Gold.Chemscore.Lipo>
115.5029

> <Gold.Chemscore.Internal_Hbond>
0.0000

> <Gold.Chemscore.DEClash>
0.1790

> <Gold.Chemscore.DEInternal>
5.3024

> <Gold.Chemscore.Rot>
1.8359

> <Gold.Chemscore.Internal.Correction>
   9.000000E+99

> <Gold.Chemscore.Hbonds>
donor molecule, donor type, donor heavy atom, donor atom, acceptor molecule, acceptor atom, score
      P1  H  6896  6907       L1    10  1.00

> <Gold.Chemscore.Hbond.Weighted>
-3.3382

> <Gold.Chemscore.Metal.Weighted>
-0.0000

> <Gold.Chemscore.Lipo.Weighted>
-13.5138

> <Gold.Chemscore.Internal_Hbond.Weighted>
0.0000

> <Gold.Chemscore.DEClash.Weighted>
0.1790

> <Gold.Chemscore.DEInternal.Weighted>
5.3024

> <Gold.Chemscore.Rot.Weighted>
4.7000

> <Gold.Chemscore.Internal.Correction.Weighted>
   9.000000E+99

> <Gold.Protein.RotatedTorsions>
[ 6907 6896 6895 6894 ] final   32.92 input  -60.11 | X-H torsion
[ 7974 7965 7964 7962 ] final   98.56 input  175.53 | X-H torsion
[ 8008 7997 7996 7995 ] final  164.77 input   59.86 | X-H torsion
[ 10167 10162 10161 10158 ] final   -7.60 input  -65.29 | X-H torsion
[ 10718 10713 10712 10709 ] final  177.20 input   66.30 | X-H torsion
[ 10763 10752 10751 10750 ] final  -71.57 input  -60.55 | X-H torsion
[ 11005 11000 10999 10996 ] final   45.73 input  -57.11 | X-H torsion

> <Gold.Protein.ActiveResidues>
 VAL166  LYS551  ARG553  GLY616  TRP617  ASP618  TYR619  PRO620  LYS621  CYS622 
 ASP623  PHE694  ASN695  SER759  ASP760  ASP761  ALA762  ILE779  LEU786  VAL792 
 PHE793  MET794  SER795  GLU796  ALA797  LYS798  CYS799  TRP800  GLU811  SER814 

> <Gold.Protein.RotatedAtoms>
  152.0812  134.9470  160.0573 H   0  0  0  0  0  0  0  0  0  0  0  0  # atno 6907 bound_to 6896
  152.0757  133.4123  159.4487 H   0  0  0  0  0  0  0  0  0  0  0  0  # atno 6908 bound_to 6896
  150.6836  134.2960  159.4730 H   0  0  0  0  0  0  0  0  0  0  0  0  # atno 6909 bound_to 6896
  145.4105  139.2334  143.3251 H   0  0  0  0  0  0  0  0  0  0  0  0  # atno 7974 bound_to 7965
  156.1853  140.1688  156.8196 H   0  0  0  0  0  0  0  0  0  0  0  0  # atno 8008 bound_to 7997
  154.5407  140.0737  156.8537 H   0  0  0  0  0  0  0  0  0  0  0  0  # atno 8009 bound_to 7997
  155.3220  140.3374  155.4243 H   0  0  0  0  0  0  0  0  0  0  0  0  # atno 8010 bound_to 7997
  140.7034  143.6063  150.8748 H   0  0  0  0  0  0  0  0  0  0  0  0  # atno 10167 bound_to 10162
  156.9088  130.9903  151.3024 H   0  0  0  0  0  0  0  0  0  0  0  0  # atno 10718 bound_to 10713
  154.4335  135.5958  153.6084 H   0  0  0  0  0  0  0  0  0  0  0  0  # atno 10763 bound_to 10752
  152.9800  135.5981  154.3809 H   0  0  0  0  0  0  0  0  0  0  0  0  # atno 10764 bound_to 10752
  154.3650  135.2841  155.2277 H   0  0  0  0  0  0  0  0  0  0  0  0  # atno 10765 bound_to 10752
  140.1433  134.4555  155.8434 H   0  0  0  0  0  0  0  0  0  0  0  0  # atno 11005 bound_to 11000
  146.2707  140.4816  142.8815 LP  0  0  0  0  0  0  0  0  0  0  0  0  # atno 17320 bound_to 7965
  144.8312  140.6710  143.6290 LP  0  0  0  0  0  0  0  0  0  0  0  0  # atno 17321 bound_to 7965
  139.9786  143.5976  152.2950 LP  0  0  0  0  0  0  0  0  0  0  0  0  # atno 17342 bound_to 10162
  139.6589  144.7662  151.2001 LP  0  0  0  0  0  0  0  0  0  0  0  0  # atno 17343 bound_to 10162
  157.5980  130.8492  149.8759 LP  0  0  0  0  0  0  0  0  0  0  0  0  # atno 17370 bound_to 10713
  156.0546  130.3711  150.1121 LP  0  0  0  0  0  0  0  0  0  0  0  0  # atno 17371 bound_to 10713
  141.2189  133.6842  156.7287 LP  0  0  0  0  0  0  0  0  0  0  0  0  # atno 17394 bound_to 11000
  140.2695  134.8404  157.3833 LP  0  0  0  0  0  0  0  0  0  0  0  0  # atno 17395 bound_to 11000

$$$$
