AV-unprocessed.smi:1438|AV-procd|sdf|5867|dock8
  -GOLD-   22720 5543D 1   1.00000     0.00000
 Structure written by MMmdl.
 43 44  0  0  0  0  0  0  0  0  1 V2000
  146.9243  133.1712  159.9490 C   0  0  0  0  0  0  0  0  0  0  0  0
  147.0645  134.6158  159.4416 C   0  0  2  0  0  0  0  0  0  0  0  0
  148.1910  134.7522  158.4081 C   0  0  0  0  0  0  0  0  0  0  0  0
  149.3708  134.6815  158.7531 O   0  0  0  0  0  0  0  0  0  0  0  0
  147.8125  134.9546  157.1380 N   0  0  0  0  0  0  0  0  0  0  0  0
  148.7282  135.1743  156.0279 C   0  0  0  0  0  0  0  0  0  0  0  0
  148.4697  134.2108  154.8859 C   0  0  0  0  0  0  0  0  0  0  0  0
  149.3728  133.1645  154.6065 C   0  0  0  0  0  0  0  0  0  0  0  0
  149.0821  132.2950  153.5375 C   0  0  0  0  0  0  0  0  0  0  0  0
  147.9798  132.4111  152.7670 N   0  0  0  0  0  0  0  0  0  0  0  0
  147.1122  133.4163  153.0356 C   0  0  0  0  0  0  0  0  0  0  0  0
  145.9596  133.5325  152.2461 N   0  0  0  0  0  0  0  0  0  0  0  0
  145.8721  134.7859  151.5068 C   0  0  0  0  0  0  0  0  0  0  0  0
  144.5209  134.8704  150.7760 C   0  0  0  0  0  0  0  0  0  0  0  0
  144.3642  133.7336  149.9311 O   0  0  0  0  0  0  0  0  0  0  0  0
  144.3804  132.5134  150.6670 C   0  0  0  0  0  0  0  0  0  0  0  0
  145.7255  132.3694  151.3998 C   0  0  0  0  0  0  0  0  0  0  0  0
  147.3174  134.3383  154.0833 C   0  0  0  0  0  0  0  0  0  0  0  0
  147.3733  135.7599  160.8682 S   0  0  0  0  0  0  0  0  0  0  0  0
  147.2612  134.6452  162.3317 C   0  0  0  0  0  0  0  0  0  0  0  0
  148.7572  136.2486  160.7688 O   0  0  0  0  0  0  0  0  0  0  0  0
  146.2709  136.7308  160.9497 O   0  0  0  0  0  0  0  0  0  0  0  0
  146.7666  132.4746  159.1249 H   0  0  0  0  0  0  0  0  0  0  0  0
  146.0731  133.0782  160.6237 H   0  0  0  0  0  0  0  0  0  0  0  0
  147.8118  132.8499  160.4956 H   0  0  0  0  0  0  0  0  0  0  0  0
  146.1203  134.9174  158.9866 H   0  0  0  0  0  0  0  0  0  0  0  0
  146.8254  134.9918  156.9289 H   0  0  0  0  0  0  0  0  0  0  0  0
  148.6366  136.2021  155.6722 H   0  0  0  0  0  0  0  0  0  0  0  0
  149.7546  135.0443  156.3740 H   0  0  0  0  0  0  0  0  0  0  0  0
  150.2697  133.0312  155.1937 H   0  0  0  0  0  0  0  0  0  0  0  0
  149.7521  131.4833  153.2954 H   0  0  0  0  0  0  0  0  0  0  0  0
  145.9819  135.6270  152.1924 H   0  0  0  0  0  0  0  0  0  0  0  0
  146.6865  134.8483  150.7836 H   0  0  0  0  0  0  0  0  0  0  0  0
  143.6955  134.9242  151.4876 H   0  0  0  0  0  0  0  0  0  0  0  0
  144.4775  135.7743  150.1683 H   0  0  0  0  0  0  0  0  0  0  0  0
  143.5488  132.4917  151.3732 H   0  0  0  0  0  0  0  0  0  0  0  0
  144.2359  131.6806  149.9787 H   0  0  0  0  0  0  0  0  0  0  0  0
  146.5345  132.2740  150.6738 H   0  0  0  0  0  0  0  0  0  0  0  0
  145.7275  131.4632  152.0066 H   0  0  0  0  0  0  0  0  0  0  0  0
  146.6005  135.1255  154.2679 H   0  0  0  0  0  0  0  0  0  0  0  0
  147.5162  135.2068  163.2301 H   0  0  0  0  0  0  0  0  0  0  0  0
  147.9577  133.8153  162.2160 H   0  0  0  0  0  0  0  0  0  0  0  0
  146.2463  134.2614  162.4309 H   0  0  0  0  0  0  0  0  0  0  0  0
  1  2  1  0  0  0  0
  1 23  1  0  0  0  0
  1 24  1  0  0  0  0
  1 25  1  0  0  0  0
  2  3  1  0  0  0  0
  2 19  1  0  0  0  0
  2 26  1  0  0  0  0
  3  4  2  0  0  0  0
  3  5  1  0  0  0  0
  5  6  1  0  0  0  0
  5 27  1  0  0  0  0
  6  7  1  0  0  0  0
  6 28  1  0  0  0  0
  6 29  1  0  0  0  0
  7 18  1  0  0  0  0
  7  8  2  0  0  0  0
  8  9  1  0  0  0  0
  8 30  1  0  0  0  0
  9 10  2  0  0  0  0
  9 31  1  0  0  0  0
 10 11  1  0  0  0  0
 11 12  1  0  0  0  0
 11 18  2  0  0  0  0
 12 17  1  0  0  0  0
 12 13  1  0  0  0  0
 13 14  1  0  0  0  0
 13 32  1  0  0  0  0
 13 33  1  0  0  0  0
 14 15  1  0  0  0  0
 14 34  1  0  0  0  0
 14 35  1  0  0  0  0
 15 16  1  0  0  0  0
 16 17  1  0  0  0  0
 16 36  1  0  0  0  0
 16 37  1  0  0  0  0
 17 38  1  0  0  0  0
 17 39  1  0  0  0  0
 18 40  1  0  0  0  0
 19 20  1  0  0  0  0
 19 21  2  0  0  0  0
 19 22  2  0  0  0  0
 20 41  1  0  0  0  0
 20 42  1  0  0  0  0
 20 43  1  0  0  0  0
M  END
> <s_m_source_file>
AV-unprocessed.smi

> <i_m_source_file_index>
1438

> <i_lp_mmshare_version>
43012

> <i_f3d_flags>
0

> <s_epik_input>
W0NIM11TKD1PKSg9TylbQ0BIXShbQ0gzXSlDKD1PKVtOSF1bQ0gyXWMxW2NIXVtjSF1uYyhbY0hdMSlOMltDSDJdW0NIMl1PW0NIMl1bQ0gyXTI=

> <s_epik_cmdline>
J2VwaWtfcHl0aG9uJywgJy1waCcsICc3LjAnLCAnLXRuJywgJzgnLCAnLW1hJywgJzIwMCcsICctbWV0YWxfYmluZGluZycsICctaW1hZScsICc8aW5maWxlLm1hZT4nLCAnLW9tYWUnLCAnPG91dGZpbGUubWFlPic=

> <r_lp_tautomer_probability>
1

> <r_epik_Ionization_Penalty>
0.00387635

> <r_epik_Ionization_Penalty_Charging>
0

> <r_epik_Ionization_Penalty_Neutral>
0.00387635

> <r_epik_State_Penalty>
0.0027681

> <r_epik_Charging_Adjusted_Penalty>
0.0027681

> <i_epik_Tot_Q>
0

> <i_epik_Tot_abs_Q>
0

> <r_epik_Metal_State_Penalty>
-0

> <b_epik_Metal_Only>
0

> <s_lp_Force_Field>
OPLS_2005

> <r_lp_Energy>
15.2281

> <b_lp_Chiralities_Consistent>
1

> <s_lp_Variant>
AV-unprocessed.smi:1438-1

> <Gold.Version>
5.8.1

> <Gold.Id.Protein>
6NUR|6NUR_protein|mol2

> <Gold.PLP.Fitness>
39.9872

> <Gold.PLP.PLP>
-32.5293

> <Gold.PLP.part.hbond>
-3.0000

> <Gold.PLP.part.metal>
0.0000

> <Gold.PLP.part.buried>
-6.0636

> <Gold.PLP.part.nonpolar>
-24.3471

> <Gold.PLP.part.repulsive>
0.4585

> <Gold.PLP.ligand.clash>
0.0000

> <Gold.PLP.ligand.torsion>
0.6279

> <Gold.PLP.Chemscore.Hbond>
2.8160

> <Gold.PLP.Chemscore.CHOScore>
0.0000

> <Gold.PLP.Chemscore.Metal>
0.0000

> <Gold.Chemscore.Hbonds>
donor molecule, donor type, donor heavy atom, donor atom, acceptor molecule, acceptor atom, score
      P1  H  6896  6908       L1     4  0.88
      P1  H  6931  6943       L1    21  0.31

> <Gold.PLP.Chemscore.Internal.Correction>
0.2658

> <Gold.Rescore>
     Score         DG    S(hbond)    S(metal)    S(lipo)     H(rot)  DE(clash)    DE(int)     intcor
     12.90     -15.41       2.51        0.00      58.62       2.08       0.04       2.48       ----

> <Gold.Chemscore.Fitness>
12.8980

> <Gold.Chemscore.DG>
-15.4148

> <Gold.Chemscore.ZeroCoef>
-5.4800

> <Gold.Chemscore.Hbond>
2.5126

> <Gold.Chemscore.Metal>
0.0000

> <Gold.Chemscore.Lipo>
58.6160

> <Gold.Chemscore.Internal_Hbond>
0.0000

> <Gold.Chemscore.DEClash>
0.0411

> <Gold.Chemscore.DEInternal>
2.4756

> <Gold.Chemscore.Rot>
2.0764

> <Gold.Chemscore.Internal.Correction>
   9.000000E+99

> <Gold.Chemscore.Hbonds>
donor molecule, donor type, donor heavy atom, donor atom, acceptor molecule, acceptor atom, score
      P1  H  6896  6908       L1     4  0.86
      P1  H  6931  6943       L1    21  0.25
      P1  H  6934  6947       L1    22  0.03

> <Gold.Chemscore.Hbond.Weighted>
-8.3922

> <Gold.Chemscore.Metal.Weighted>
-0.0000

> <Gold.Chemscore.Lipo.Weighted>
-6.8581

> <Gold.Chemscore.Internal_Hbond.Weighted>
0.0000

> <Gold.Chemscore.DEClash.Weighted>
0.0411

> <Gold.Chemscore.DEInternal.Weighted>
2.4756

> <Gold.Chemscore.Rot.Weighted>
5.3155

> <Gold.Chemscore.Internal.Correction.Weighted>
   9.000000E+99

> <Gold.Protein.RotatedTorsions>
[ 6907 6896 6895 6894 ] final  149.49 input  -60.11 | X-H torsion
[ 7974 7965 7964 7962 ] final  -40.18 input  175.53 | X-H torsion
[ 8008 7997 7996 7995 ] final  177.53 input   59.86 | X-H torsion
[ 10167 10162 10161 10158 ] final   57.83 input  -65.29 | X-H torsion
[ 10718 10713 10712 10709 ] final  117.07 input   66.30 | X-H torsion
[ 10763 10752 10751 10750 ] final  112.96 input  -60.55 | X-H torsion
[ 11005 11000 10999 10996 ] final -132.07 input  -57.11 | X-H torsion

> <Gold.Protein.ActiveResidues>
 VAL166  LYS551  ARG553  GLY616  TRP617  ASP618  TYR619  PRO620  LYS621  CYS622 
 ASP623  PHE694  ASN695  SER759  ASP760  ASP761  ALA762  ILE779  LEU786  VAL792 
 PHE793  MET794  SER795  GLU796  ALA797  LYS798  CYS799  TRP800  GLU811  SER814 

> <Gold.Protein.RotatedAtoms>
  152.1273  133.4387  159.4703 H   0  0  0  0  0  0  0  0  0  0  0  0  # atno 6907 bound_to 6896
  150.6875  134.2463  159.4502 H   0  0  0  0  0  0  0  0  0  0  0  0  # atno 6908 bound_to 6896
  152.0345  134.9748  160.0623 H   0  0  0  0  0  0  0  0  0  0  0  0  # atno 6909 bound_to 6896
  146.0328  140.6710  142.9124 H   0  0  0  0  0  0  0  0  0  0  0  0  # atno 7974 bound_to 7965
  156.0646  140.1356  156.9901 H   0  0  0  0  0  0  0  0  0  0  0  0  # atno 8008 bound_to 7997
  154.4499  140.0984  156.6639 H   0  0  0  0  0  0  0  0  0  0  0  0  # atno 8009 bound_to 7997
  155.5324  140.3459  155.4431 H   0  0  0  0  0  0  0  0  0  0  0  0  # atno 8010 bound_to 7997
  140.1938  144.4059  150.6559 H   0  0  0  0  0  0  0  0  0  0  0  0  # atno 10167 bound_to 10162
  157.6120  131.1033  150.7563 H   0  0  0  0  0  0  0  0  0  0  0  0  # atno 10718 bound_to 10713
  153.4855  135.3670  155.2464 H   0  0  0  0  0  0  0  0  0  0  0  0  # atno 10763 bound_to 10752
  154.8754  135.3964  154.3650 H   0  0  0  0  0  0  0  0  0  0  0  0  # atno 10764 bound_to 10752
  153.4261  135.7081  153.6327 H   0  0  0  0  0  0  0  0  0  0  0  0  # atno 10765 bound_to 10752
  140.9203  134.1453  157.4319 H   0  0  0  0  0  0  0  0  0  0  0  0  # atno 11005 bound_to 11000
  144.7038  140.3766  143.7134 LP  0  0  0  0  0  0  0  0  0  0  0  0  # atno 17320 bound_to 7965
  145.7013  139.1662  143.2591 LP  0  0  0  0  0  0  0  0  0  0  0  0  # atno 17321 bound_to 7965
  140.6438  143.2209  151.6232 LP  0  0  0  0  0  0  0  0  0  0  0  0  # atno 17342 bound_to 10162
  139.5245  144.3102  152.0999 LP  0  0  0  0  0  0  0  0  0  0  0  0  # atno 17343 bound_to 10162
  156.7938  130.4899  149.5380 LP  0  0  0  0  0  0  0  0  0  0  0  0  # atno 17370 bound_to 10713
  156.1226  130.6121  151.0217 LP  0  0  0  0  0  0  0  0  0  0  0  0  # atno 17371 bound_to 10713
  139.8774  134.9969  156.5818 LP  0  0  0  0  0  0  0  0  0  0  0  0  # atno 17394 bound_to 11000
  140.7996  133.8516  155.8715 LP  0  0  0  0  0  0  0  0  0  0  0  0  # atno 17395 bound_to 11000

$$$$
