AV-unprocessed.smi:2306|AV-procd|sdf|9248|dock4
  -GOLD-   2272012463D 1   1.00000     0.00000
 Structure written by MMmdl.
 41 42  0  0  0  0  0  0  0  0  1 V2000
  143.4625  145.3274  154.5472 C   0  0  0  0  0  0  0  0  0  0  0  0
  144.3866  144.1232  154.5854 C   0  0  0  0  0  0  0  0  0  0  0  0
  145.2613  143.9985  153.5019 N   0  0  0  0  0  0  0  0  0  0  0  0
  146.0764  142.9967  153.4431 C   0  0  0  0  0  0  0  0  0  0  0  0
  146.1118  142.0157  154.4468 N   0  0  0  0  0  0  0  0  0  0  0  0
  147.0837  140.9269  154.2599 C   0  0  0  0  0  0  0  0  0  0  0  0
  148.5335  141.3931  154.5284 C   0  0  2  0  0  0  0  0  0  0  0  0
  149.2042  141.5372  153.2927 O   0  0  0  0  0  0  0  0  0  0  0  0
  149.3259  140.3765  155.3640 C   0  0  0  0  0  0  0  0  0  0  0  0
  150.3135  141.0771  156.1010 O   0  0  0  0  0  0  0  0  0  0  0  0
  150.1783  140.9258  157.5042 C   0  0  0  0  0  0  0  0  0  0  0  0
  151.0924  141.8629  158.2727 C   0  0  0  0  0  0  0  0  0  0  0  0
  151.9758  141.3640  159.2551 C   0  0  0  0  0  0  0  0  0  0  0  0
  152.8084  142.2452  159.9724 C   0  0  0  0  0  0  0  0  0  0  0  0
  152.7575  143.6290  159.7165 C   0  0  0  0  0  0  0  0  0  0  0  0
  151.8714  144.1319  158.7445 C   0  0  0  0  0  0  0  0  0  0  0  0
  151.0389  143.2511  158.0263 C   0  0  0  0  0  0  0  0  0  0  0  0
  145.3078  142.0713  155.5482 C   0  0  0  0  0  0  0  0  0  0  0  0
  145.3667  141.2185  156.4365 O   0  0  0  0  0  0  0  0  0  0  0  0
  144.3794  143.2124  155.5970 C   0  0  0  0  0  0  0  0  0  0  0  0
  143.4470  143.2944  156.7992 C   0  0  0  0  0  0  0  0  0  0  0  0
  143.6402  145.9724  155.4080 H   0  0  0  0  0  0  0  0  0  0  0  0
  142.4198  145.0091  154.5583 H   0  0  0  0  0  0  0  0  0  0  0  0
  143.6205  145.9218  153.6463 H   0  0  0  0  0  0  0  0  0  0  0  0
  146.7810  142.8548  152.6218 H   0  0  0  0  0  0  0  0  0  0  0  0
  146.8219  140.1194  154.9462 H   0  0  0  0  0  0  0  0  0  0  0  0
  147.0008  140.4628  153.2745 H   0  0  0  0  0  0  0  0  0  0  0  0
  148.5515  142.3551  155.0428 H   0  0  0  0  0  0  0  0  0  0  0  0
  148.9077  140.8565  152.7080 H   0  0  0  0  0  0  0  0  0  0  0  0
  148.6631  139.8260  156.0337 H   0  0  0  0  0  0  0  0  0  0  0  0
  149.8130  139.6505  154.7107 H   0  0  0  0  0  0  0  0  0  0  0  0
  149.1440  141.1192  157.7938 H   0  0  0  0  0  0  0  0  0  0  0  0
  150.4132  139.9005  157.7931 H   0  0  0  0  0  0  0  0  0  0  0  0
  152.0210  140.3052  159.4646 H   0  0  0  0  0  0  0  0  0  0  0  0
  153.4848  141.8588  160.7206 H   0  0  0  0  0  0  0  0  0  0  0  0
  153.3955  144.3042  160.2675 H   0  0  0  0  0  0  0  0  0  0  0  0
  151.8294  145.1935  158.5505 H   0  0  0  0  0  0  0  0  0  0  0  0
  150.3593  143.6448  157.2848 H   0  0  0  0  0  0  0  0  0  0  0  0
  142.7898  142.4247  156.8229 H   0  0  0  0  0  0  0  0  0  0  0  0
  142.8170  144.1823  156.7949 H   0  0  0  0  0  0  0  0  0  0  0  0
  144.0242  143.3080  157.7243 H   0  0  0  0  0  0  0  0  0  0  0  0
  1  2  1  0  0  0  0
  1 22  1  0  0  0  0
  1 23  1  0  0  0  0
  1 24  1  0  0  0  0
  2 20  2  0  0  0  0
  2  3  1  0  0  0  0
  3  4  2  0  0  0  0
  4  5  1  0  0  0  0
  4 25  1  0  0  0  0
  5  6  1  0  0  0  0
  5 18  1  0  0  0  0
  6  7  1  0  0  0  0
  6 26  1  0  0  0  0
  6 27  1  0  0  0  0
  7  8  1  0  0  0  0
  7  9  1  0  0  0  0
  7 28  1  0  0  0  0
  8 29  1  0  0  0  0
  9 10  1  0  0  0  0
  9 30  1  0  0  0  0
  9 31  1  0  0  0  0
 10 11  1  0  0  0  0
 11 12  1  0  0  0  0
 11 32  1  0  0  0  0
 11 33  1  0  0  0  0
 12 17  1  0  0  0  0
 12 13  2  0  0  0  0
 13 14  1  0  0  0  0
 13 34  1  0  0  0  0
 14 15  2  0  0  0  0
 14 35  1  0  0  0  0
 15 16  1  0  0  0  0
 15 36  1  0  0  0  0
 16 17  2  0  0  0  0
 16 37  1  0  0  0  0
 17 38  1  0  0  0  0
 18 19  2  0  0  0  0
 18 20  1  0  0  0  0
 20 21  1  0  0  0  0
 21 39  1  0  0  0  0
 21 40  1  0  0  0  0
 21 41  1  0  0  0  0
M  END
> <s_m_source_file>
AV-unprocessed.smi

> <i_m_source_file_index>
2306

> <i_lp_mmshare_version>
43012

> <i_f3d_flags>
0

> <s_epik_input>
W0NIM11jMW5bY0hdbihjKD1PKWMxW0NIM10pW0NIMl1bQ0BIXShbT0hdKVtDSDJdT1tDSDJdYzJbY0hdW2NIXVtjSF1bY0hdW2NIXTI=

> <s_epik_cmdline>
J2VwaWtfcHl0aG9uJywgJy1waCcsICc3LjAnLCAnLXRuJywgJzgnLCAnLW1hJywgJzIwMCcsICctbWV0YWxfYmluZGluZycsICctaW1hZScsICc8aW5maWxlLm1hZT4nLCAnLW9tYWUnLCAnPG91dGZpbGUubWFlPic=

> <r_lp_tautomer_probability>
1

> <r_epik_Ionization_Penalty>
5.35985e-05

> <r_epik_Ionization_Penalty_Charging>
1.17753e-07

> <r_epik_Ionization_Penalty_Neutral>
5.34808e-05

> <r_epik_State_Penalty>
-0

> <r_epik_Charging_Adjusted_Penalty>
1.17753e-07

> <i_epik_Tot_Q>
0

> <i_epik_Tot_abs_Q>
0

> <r_epik_Metal_State_Penalty>
-0

> <b_epik_Metal_Only>
0

> <s_lp_Force_Field>
OPLS_2005

> <r_lp_Energy>
22.2439

> <b_lp_Chiralities_Consistent>
1

> <s_lp_Variant>
AV-unprocessed.smi:2306-1

> <Gold.Version>
5.8.1

> <Gold.Id.Protein>
6NUR|6NUR_protein|mol2

> <Gold.PLP.Fitness>
46.3221

> <Gold.PLP.PLP>
-45.0544

> <Gold.PLP.part.hbond>
-2.8688

> <Gold.PLP.part.metal>
0.0000

> <Gold.PLP.part.buried>
-7.6622

> <Gold.PLP.part.nonpolar>
-34.6138

> <Gold.PLP.part.repulsive>
0.3066

> <Gold.PLP.ligand.clash>
0.0000

> <Gold.PLP.ligand.torsion>
1.5871

> <Gold.PLP.Chemscore.Hbond>
1.4346

> <Gold.PLP.Chemscore.CHOScore>
0.0000

> <Gold.PLP.Chemscore.Metal>
0.0000

> <Gold.Chemscore.Hbonds>
donor molecule, donor type, donor heavy atom, donor atom, acceptor molecule, acceptor atom, score
      L1  H     8    29       P1  7957  0.69
      P1  H  8011  8017       L1     8  0.65

> <Gold.PLP.Chemscore.Internal.Correction>
0.1382

> <Gold.Rescore>
     Score         DG    S(hbond)    S(metal)    S(lipo)     H(rot)  DE(clash)    DE(int)     intcor
     14.07     -15.76       1.24        0.00     107.51       2.52       0.00       1.69       ----

> <Gold.Chemscore.Fitness>
14.0712

> <Gold.Chemscore.DG>
-15.7632

> <Gold.Chemscore.ZeroCoef>
-5.4800

> <Gold.Chemscore.Hbond>
1.2413

> <Gold.Chemscore.Metal>
0.0000

> <Gold.Chemscore.Lipo>
107.5113

> <Gold.Chemscore.Internal_Hbond>
0.0000

> <Gold.Chemscore.DEClash>
0.0013

> <Gold.Chemscore.DEInternal>
1.6907

> <Gold.Chemscore.Rot>
2.5162

> <Gold.Chemscore.Internal.Correction>
   9.000000E+99

> <Gold.Chemscore.Hbonds>
donor molecule, donor type, donor heavy atom, donor atom, acceptor molecule, acceptor atom, score
      L1  H     8    29       P1  7957  0.68
      P1  H  8011  8017       L1     8  0.14

> <Gold.Chemscore.Hbond.Weighted>
-4.1458

> <Gold.Chemscore.Metal.Weighted>
-0.0000

> <Gold.Chemscore.Lipo.Weighted>
-12.5788

> <Gold.Chemscore.Internal_Hbond.Weighted>
0.0000

> <Gold.Chemscore.DEClash.Weighted>
0.0013

> <Gold.Chemscore.DEInternal.Weighted>
1.6907

> <Gold.Chemscore.Rot.Weighted>
6.4414

> <Gold.Chemscore.Internal.Correction.Weighted>
   9.000000E+99

> <Gold.Protein.RotatedTorsions>
[ 6907 6896 6895 6894 ] final -151.27 input  -60.11 | X-H torsion
[ 7974 7965 7964 7962 ] final  103.30 input  175.53 | X-H torsion
[ 8008 7997 7996 7995 ] final  -12.09 input   59.86 | X-H torsion
[ 10167 10162 10161 10158 ] final   59.58 input  -65.29 | X-H torsion
[ 10718 10713 10712 10709 ] final  166.84 input   66.30 | X-H torsion
[ 10763 10752 10751 10750 ] final   54.09 input  -60.55 | X-H torsion
[ 11005 11000 10999 10996 ] final  127.68 input  -57.11 | X-H torsion

> <Gold.Protein.ActiveResidues>
 VAL166  LYS551  ARG553  GLY616  TRP617  ASP618  TYR619  PRO620  LYS621  CYS622 
 ASP623  PHE694  ASN695  SER759  ASP760  ASP761  ALA762  ILE779  LEU786  VAL792 
 PHE793  MET794  SER795  GLU796  ALA797  LYS798  CYS799  TRP800  GLU811  SER814 

> <Gold.Protein.RotatedAtoms>
  151.2106  133.4558  159.2597 H   0  0  0  0  0  0  0  0  0  0  0  0  # atno 6907 bound_to 6896
  151.0980  134.9956  159.8445 H   0  0  0  0  0  0  0  0  0  0  0  0  # atno 6908 bound_to 6896
  152.5441  134.2035  159.8774 H   0  0  0  0  0  0  0  0  0  0  0  0  # atno 6909 bound_to 6896
  145.3478  139.2446  143.3575 H   0  0  0  0  0  0  0  0  0  0  0  0  # atno 7974 bound_to 7965
  154.5408  140.2285  155.8645 H   0  0  0  0  0  0  0  0  0  0  0  0  # atno 8008 bound_to 7997
  156.1856  140.3089  155.9194 H   0  0  0  0  0  0  0  0  0  0  0  0  # atno 8009 bound_to 7997
  155.3262  140.0443  157.3031 H   0  0  0  0  0  0  0  0  0  0  0  0  # atno 8010 bound_to 7997
  140.1748  144.4241  150.6643 H   0  0  0  0  0  0  0  0  0  0  0  0  # atno 10167 bound_to 10162
  157.0600  131.0337  151.2650 H   0  0  0  0  0  0  0  0  0  0  0  0  # atno 10718 bound_to 10713
  152.9801  135.5756  154.4848 H   0  0  0  0  0  0  0  0  0  0  0  0  # atno 10763 bound_to 10752
  154.4391  135.2775  155.1862 H   0  0  0  0  0  0  0  0  0  0  0  0  # atno 10764 bound_to 10752
  154.3537  135.6203  153.5709 H   0  0  0  0  0  0  0  0  0  0  0  0  # atno 10765 bound_to 10752
  139.9520  134.9620  156.8890 H   0  0  0  0  0  0  0  0  0  0  0  0  # atno 11005 bound_to 11000
  146.2981  140.4088  142.8714 LP  0  0  0  0  0  0  0  0  0  0  0  0  # atno 17320 bound_to 7965
  144.8741  140.7312  143.6028 LP  0  0  0  0  0  0  0  0  0  0  0  0  # atno 17321 bound_to 7965
  140.6558  143.2237  151.5971 LP  0  0  0  0  0  0  0  0  0  0  0  0  # atno 17342 bound_to 10162
  139.5322  144.2884  152.1172 LP  0  0  0  0  0  0  0  0  0  0  0  0  # atno 17343 bound_to 10162
  157.4962  130.7852  149.7558 LP  0  0  0  0  0  0  0  0  0  0  0  0  # atno 17370 bound_to 10713
  155.9981  130.3896  150.2714 LP  0  0  0  0  0  0  0  0  0  0  0  0  # atno 17371 bound_to 10713
  140.5696  134.0456  155.7426 LP  0  0  0  0  0  0  0  0  0  0  0  0  # atno 17394 bound_to 11000
  141.1185  133.9501  157.2776 LP  0  0  0  0  0  0  0  0  0  0  0  0  # atno 17395 bound_to 11000

$$$$
