AV-unprocessed.smi:601|AV-procd|sdf|3031|dock4
  -GOLD-   2262023543D 1   1.00000     0.00000
 Structure written by MMmdl.
 50 51  0  0  0  0  0  0  0  0  1 V2000
  149.2799  134.1444  154.5679 C   0  0  0  0  0  0  0  0  0  0  0  0
  150.1824  133.9178  155.7878 C   0  0  0  0  0  0  0  0  0  0  0  0
  150.1942  135.0944  156.7765 C   0  0  0  0  0  0  0  0  0  0  0  0
  148.8415  135.3199  157.4820 C   0  0  0  0  0  0  0  0  0  0  0  0
  148.8792  136.4312  158.4457 N   0  0  0  0  0  0  0  0  0  0  0  0
  148.1389  136.3955  159.5857 C   0  0  0  0  0  0  0  0  0  0  0  0
  148.1711  137.3129  160.4081 O   0  0  0  0  0  0  0  0  0  0  0  0
  147.2348  135.1667  159.8669 C   0  0  2  0  0  0  0  0  0  0  0  0
  145.7973  135.5012  160.2854 C   0  0  0  0  0  0  0  0  0  0  0  0
  145.8898  135.7472  161.7855 C   0  0  0  0  0  0  0  0  0  0  0  0
  147.2242  135.1113  162.1880 C   0  0  0  0  0  0  0  0  0  0  0  0
  147.7003  134.4621  161.0129 O   0  0  0  0  0  0  0  0  0  0  0  0
  149.8003  137.4617  158.1860 C   0  0  0  0  0  0  0  0  0  0  0  0
  149.7212  138.2388  157.0650 C   0  0  0  0  0  0  0  0  0  0  0  0
  148.6928  138.0533  156.1536 N   0  0  0  0  0  0  0  0  0  0  0  0
  150.6442  139.2581  156.8131 N   0  0  0  0  0  0  0  0  0  0  0  0
  150.5838  140.1252  155.6533 C   0  0  0  0  0  0  0  0  0  0  0  0
  149.3589  141.0549  155.6767 C   0  0  0  0  0  0  0  0  0  0  0  0
  148.8210  141.3467  154.2725 C   0  0  0  0  0  0  0  0  0  0  0  0
  151.6767  139.5274  157.7435 C   0  0  0  0  0  0  0  0  0  0  0  0
  152.4952  140.4375  157.6076 O   0  0  0  0  0  0  0  0  0  0  0  0
  151.7497  138.7083  158.8647 N   0  0  0  0  0  0  0  0  0  0  0  0
  150.8788  137.6635  159.1623 C   0  0  0  0  0  0  0  0  0  0  0  0
  151.0515  137.0035  160.1862 O   0  0  0  0  0  0  0  0  0  0  0  0
  152.4936  138.8913  159.5223 H   0  0  0  0  0  0  0  0  0  0  0  0
  149.2491  133.2530  153.9412 H   0  0  0  0  0  0  0  0  0  0  0  0
  149.6393  134.9668  153.9494 H   0  0  0  0  0  0  0  0  0  0  0  0
  148.2577  134.3724  154.8711 H   0  0  0  0  0  0  0  0  0  0  0  0
  149.8367  133.0265  156.3122 H   0  0  0  0  0  0  0  0  0  0  0  0
  151.1990  133.6985  155.4597 H   0  0  0  0  0  0  0  0  0  0  0  0
  150.9801  134.9322  157.5132 H   0  0  0  0  0  0  0  0  0  0  0  0
  150.4747  135.9952  156.2302 H   0  0  0  0  0  0  0  0  0  0  0  0
  148.0591  135.5022  156.7433 H   0  0  0  0  0  0  0  0  0  0  0  0
  148.5438  134.4062  157.9979 H   0  0  0  0  0  0  0  0  0  0  0  0
  147.2276  134.5137  158.9944 H   0  0  0  0  0  0  0  0  0  0  0  0
  145.3618  136.3421  159.7443 H   0  0  0  0  0  0  0  0  0  0  0  0
  145.1606  134.6360  160.0971 H   0  0  0  0  0  0  0  0  0  0  0  0
  145.8949  136.8146  162.0096 H   0  0  0  0  0  0  0  0  0  0  0  0
  145.0471  135.2983  162.3122 H   0  0  0  0  0  0  0  0  0  0  0  0
  147.9381  135.8754  162.4987 H   0  0  0  0  0  0  0  0  0  0  0  0
  147.1165  134.3976  163.0050 H   0  0  0  0  0  0  0  0  0  0  0  0
  147.9846  137.3470  156.2942 H   0  0  0  0  0  0  0  0  0  0  0  0
  148.5281  138.7065  155.4014 H   0  0  0  0  0  0  0  0  0  0  0  0
  151.5216  140.6801  155.5923 H   0  0  0  0  0  0  0  0  0  0  0  0
  150.5812  139.4815  154.7740 H   0  0  0  0  0  0  0  0  0  0  0  0
  148.5679  140.6048  156.2780 H   0  0  0  0  0  0  0  0  0  0  0  0
  149.6169  141.9962  156.1634 H   0  0  0  0  0  0  0  0  0  0  0  0
  147.9494  141.9999  154.3188 H   0  0  0  0  0  0  0  0  0  0  0  0
  148.5224  140.4283  153.7664 H   0  0  0  0  0  0  0  0  0  0  0  0
  149.5747  141.8393  153.6575 H   0  0  0  0  0  0  0  0  0  0  0  0
  1  2  1  0  0  0  0
  1 26  1  0  0  0  0
  1 27  1  0  0  0  0
  1 28  1  0  0  0  0
  2  3  1  0  0  0  0
  2 29  1  0  0  0  0
  2 30  1  0  0  0  0
  3  4  1  0  0  0  0
  3 31  1  0  0  0  0
  3 32  1  0  0  0  0
  4  5  1  0  0  0  0
  4 33  1  0  0  0  0
  4 34  1  0  0  0  0
  5  6  1  0  0  0  0
  5 13  1  0  0  0  0
  6  7  2  0  0  0  0
  6  8  1  0  0  0  0
  8 12  1  0  0  0  0
  8  9  1  0  0  0  0
  8 35  1  0  0  0  0
  9 10  1  0  0  0  0
  9 36  1  0  0  0  0
  9 37  1  0  0  0  0
 10 11  1  0  0  0  0
 10 38  1  0  0  0  0
 10 39  1  0  0  0  0
 11 12  1  0  0  0  0
 11 40  1  0  0  0  0
 11 41  1  0  0  0  0
 13 23  1  0  0  0  0
 13 14  2  0  0  0  0
 14 15  1  0  0  0  0
 14 16  1  0  0  0  0
 15 42  1  0  0  0  0
 15 43  1  0  0  0  0
 16 17  1  0  0  0  0
 16 20  1  0  0  0  0
 17 18  1  0  0  0  0
 17 44  1  0  0  0  0
 17 45  1  0  0  0  0
 18 19  1  0  0  0  0
 18 46  1  0  0  0  0
 18 47  1  0  0  0  0
 19 48  1  0  0  0  0
 19 49  1  0  0  0  0
 19 50  1  0  0  0  0
 20 21  2  0  0  0  0
 20 22  1  0  0  0  0
 22 25  1  0  0  0  0
 22 23  1  0  0  0  0
 23 24  2  0  0  0  0
M  END
> <s_m_source_file>
AV-unprocessed.smi

> <i_m_source_file_index>
601

> <i_lp_mmshare_version>
43012

> <i_f3d_flags>
0

> <s_epik_input>
TzFbQ0gyXVtDSDJdW0NIMl1bQ0BIXTFDKD1PKU4oW0NIMl1bQ0gyXVtDSDJdW0NIM10pYzJjKFtOSDJdKW4oW0NIMl1bQ0gyXVtDSDNdKWMoPU8pW25IXWMyPU8=

> <s_epik_cmdline>
J2VwaWtfcHl0aG9uJywgJy1waCcsICc3LjAnLCAnLXRuJywgJzgnLCAnLW1hJywgJzIwMCcsICctbWV0YWxfYmluZGluZycsICctaW1hZScsICc8aW5maWxlLm1hZT4nLCAnLW9tYWUnLCAnPG91dGZpbGUubWFlPic=

> <r_lp_tautomer_probability>
1

> <r_epik_Ionization_Penalty>
6.19718e-05

> <r_epik_Ionization_Penalty_Charging>
2.78773e-05

> <r_epik_Ionization_Penalty_Neutral>
3.40944e-05

> <r_epik_State_Penalty>
-0

> <r_epik_Charging_Adjusted_Penalty>
2.78773e-05

> <i_epik_Tot_Q>
0

> <i_epik_Tot_abs_Q>
0

> <r_epik_Metal_State_Penalty>
0.0271358

> <b_epik_Metal_Only>
0

> <s_lp_Force_Field>
OPLS_2005

> <r_lp_Energy>
42.1273

> <b_lp_Chiralities_Consistent>
1

> <s_lp_Variant>
AV-unprocessed.smi:601-1

> <Gold.Version>
5.8.1

> <Gold.Id.Protein>
6NUR|6NUR_protein|mol2

> <Gold.PLP.Fitness>
37.2571

> <Gold.PLP.PLP>
-29.8365

> <Gold.PLP.part.hbond>
-4.0575

> <Gold.PLP.part.metal>
0.0000

> <Gold.PLP.part.buried>
-0.8818

> <Gold.PLP.part.nonpolar>
-24.9602

> <Gold.PLP.part.repulsive>
0.0956

> <Gold.PLP.ligand.clash>
0.0000

> <Gold.PLP.ligand.torsion>
1.9527

> <Gold.PLP.Chemscore.Hbond>
3.0221

> <Gold.PLP.Chemscore.CHOScore>
0.0000

> <Gold.PLP.Chemscore.Metal>
0.0000

> <Gold.Chemscore.Hbonds>
donor molecule, donor type, donor heavy atom, donor atom, acceptor molecule, acceptor atom, score
      P1  H  6896  6909       L1    24  1.00
      P1  H  6931  6943       L1     7  0.67
      P1  H  6934  6947       L1     7  0.63
      P1  H  7997  8009       L1    21  0.68

> <Gold.PLP.Chemscore.Internal.Correction>
2.2599

> <Gold.Rescore>
     Score         DG    S(hbond)    S(metal)    S(lipo)     H(rot)  DE(clash)    DE(int)     intcor
     14.48     -17.87       3.08        0.00      60.75       1.96       0.23       3.16       ----

> <Gold.Chemscore.Fitness>
14.4779

> <Gold.Chemscore.DG>
-17.8697

> <Gold.Chemscore.ZeroCoef>
-5.4800

> <Gold.Chemscore.Hbond>
3.0840

> <Gold.Chemscore.Metal>
0.0000

> <Gold.Chemscore.Lipo>
60.7479

> <Gold.Chemscore.Internal_Hbond>
0.0000

> <Gold.Chemscore.DEClash>
0.2322

> <Gold.Chemscore.DEInternal>
3.1596

> <Gold.Chemscore.Rot>
1.9603

> <Gold.Chemscore.Internal.Correction>
   9.000000E+99

> <Gold.Chemscore.Hbonds>
donor molecule, donor type, donor heavy atom, donor atom, acceptor molecule, acceptor atom, score
      P1  H  6896  6909       L1    24  0.95
      P1  H  6931  6943       L1     7  0.67
      P1  H  6934  6947       L1     7  0.59
      P1  H  7997  8009       L1    21  0.67

> <Gold.Chemscore.Hbond.Weighted>
-10.3007

> <Gold.Chemscore.Metal.Weighted>
-0.0000

> <Gold.Chemscore.Lipo.Weighted>
-7.1075

> <Gold.Chemscore.Internal_Hbond.Weighted>
0.0000

> <Gold.Chemscore.DEClash.Weighted>
0.2322

> <Gold.Chemscore.DEInternal.Weighted>
3.1596

> <Gold.Chemscore.Rot.Weighted>
5.0185

> <Gold.Chemscore.Internal.Correction.Weighted>
   9.000000E+99

> <Gold.Protein.RotatedTorsions>
[ 6907 6896 6895 6894 ] final  120.00 input  -60.11 | X-H torsion
[ 7974 7965 7964 7962 ] final  -22.17 input  175.53 | X-H torsion
[ 8008 7997 7996 7995 ] final  174.57 input   59.86 | X-H torsion
[ 10167 10162 10161 10158 ] final  119.84 input  -65.29 | X-H torsion
[ 10718 10713 10712 10709 ] final  127.30 input   66.30 | X-H torsion
[ 10763 10752 10751 10750 ] final   29.44 input  -60.55 | X-H torsion
[ 11005 11000 10999 10996 ] final  172.92 input  -57.11 | X-H torsion

> <Gold.Protein.ActiveResidues>
 VAL166  LYS551  ARG553  GLY616  TRP617  ASP618  TYR619  PRO620  LYS621  CYS622 
 ASP623  PHE694  ASN695  SER759  ASP760  ASP761  ALA762  ILE779  LEU786  VAL792 
 PHE793  MET794  SER795  GLU796  ALA797  LYS798  CYS799  TRP800  GLU811  SER814 

> <Gold.Protein.RotatedAtoms>
  152.4431  133.7485  159.6680 H   0  0  0  0  0  0  0  0  0  0  0  0  # atno 6907 bound_to 6896
  150.8325  133.8057  159.3099 H   0  0  0  0  0  0  0  0  0  0  0  0  # atno 6908 bound_to 6896
  151.5707  135.1065  160.0046 H   0  0  0  0  0  0  0  0  0  0  0  0  # atno 6909 bound_to 6896
  146.1691  140.4443  142.8540 H   0  0  0  0  0  0  0  0  0  0  0  0  # atno 7974 bound_to 7965
  156.0960  140.1431  156.9530 H   0  0  0  0  0  0  0  0  0  0  0  0  # atno 8008 bound_to 7997
  154.4671  140.0922  156.7096 H   0  0  0  0  0  0  0  0  0  0  0  0  # atno 8009 bound_to 7997
  155.4840  140.3446  155.4346 H   0  0  0  0  0  0  0  0  0  0  0  0  # atno 8010 bound_to 7997
  139.6020  144.7059  151.3041 H   0  0  0  0  0  0  0  0  0  0  0  0  # atno 10167 bound_to 10162
  157.5345  131.1098  150.8958 H   0  0  0  0  0  0  0  0  0  0  0  0  # atno 10718 bound_to 10713
  153.0430  135.6489  154.0891 H   0  0  0  0  0  0  0  0  0  0  0  0  # atno 10763 bound_to 10752
  154.0594  135.2889  155.3329 H   0  0  0  0  0  0  0  0  0  0  0  0  # atno 10764 bound_to 10752
  154.6668  135.5371  153.8152 H   0  0  0  0  0  0  0  0  0  0  0  0  # atno 10765 bound_to 10752
  140.3349  134.7326  157.4161 H   0  0  0  0  0  0  0  0  0  0  0  0  # atno 11005 bound_to 11000
  144.8136  140.6428  143.6399 LP  0  0  0  0  0  0  0  0  0  0  0  0  # atno 17320 bound_to 7965
  145.4389  139.1538  143.3981 LP  0  0  0  0  0  0  0  0  0  0  0  0  # atno 17321 bound_to 7965
  140.7256  143.7012  150.7844 LP  0  0  0  0  0  0  0  0  0  0  0  0  # atno 17342 bound_to 10162
  140.0590  143.5174  152.2637 LP  0  0  0  0  0  0  0  0  0  0  0  0  # atno 17343 bound_to 10162
  156.9529  130.5426  149.5283 LP  0  0  0  0  0  0  0  0  0  0  0  0  # atno 17370 bound_to 10713
  156.0447  130.5525  150.8854 LP  0  0  0  0  0  0  0  0  0  0  0  0  # atno 17371 bound_to 10713
  140.0830  134.5705  155.8521 LP  0  0  0  0  0  0  0  0  0  0  0  0  # atno 17394 bound_to 11000
  141.2054  133.6646  156.6177 LP  0  0  0  0  0  0  0  0  0  0  0  0  # atno 17395 bound_to 11000

$$$$
