AV-unprocessed.smi:1433|AV-procd|sdf|5843|dock9
  -GOLD-   22720 5503D 1   1.00000     0.00000
 Structure written by MMmdl.
 45 46  0  0  0  0  0  0  0  0  2 V2000
  151.6136  138.3998  154.6066 C   0  0  0  0  0  0  0  0  0  0  0  0
  150.3240  139.1627  154.9305 C   0  0  2  0  0  0  0  0  0  0  0  0
  149.1717  138.7736  153.9893 C   0  0  0  0  0  0  0  0  0  0  0  0
  147.9519  139.5730  154.2788 N   0  3  2  0  0  0  0  0  0  0  0  0
  146.7650  139.1103  153.4873 C   0  0  1  0  0  0  0  0  0  0  0  0
  146.9493  139.4754  151.9961 C   0  0  0  0  0  0  0  0  0  0  0  0
  146.4568  137.5933  153.6378 C   0  0  0  0  0  0  0  0  0  0  0  0
  145.7694  137.0381  152.4767 N   0  0  0  0  0  0  0  0  0  0  0  0
  145.5706  135.7305  152.2491 C   0  0  0  0  0  0  0  0  0  0  0  0
  146.0036  134.8411  152.9814 O   0  0  0  0  0  0  0  0  0  0  0  0
  144.7390  135.3738  151.0169 C   0  0  0  0  0  0  0  0  0  0  0  0
  144.7905  133.9461  150.7552 N   0  0  0  0  0  0  0  0  0  0  0  0
  143.7525  133.0377  150.7548 C   0  0  0  0  0  0  0  0  0  0  0  0
  144.2801  131.8181  150.4409 C   0  0  0  0  0  0  0  0  0  0  0  0
  145.6669  132.0843  150.2655 C   0  0  0  0  0  0  0  0  0  0  0  0
  145.9691  133.3591  150.4507 N   0  0  0  0  0  0  0  0  0  0  0  0
  148.2772  141.0224  154.1784 C   0  0  0  0  0  0  0  0  0  0  0  0
  149.4821  141.4019  155.0637 C   0  0  1  0  0  0  0  0  0  0  0  0
  149.1489  141.4567  156.5658 C   0  0  0  0  0  0  0  0  0  0  0  0
  150.5936  140.5527  154.7897 O   0  0  0  0  0  0  0  0  0  0  0  0
  151.4694  137.3238  154.7067 H   0  0  0  0  0  0  0  0  0  0  0  0
  152.4182  138.6905  155.2824 H   0  0  0  0  0  0  0  0  0  0  0  0
  151.9463  138.5999  153.5876 H   0  0  0  0  0  0  0  0  0  0  0  0
  150.0494  138.9379  155.9613 H   0  0  0  0  0  0  0  0  0  0  0  0
  149.4686  138.9291  152.9505 H   0  0  0  0  0  0  0  0  0  0  0  0
  148.9756  137.7089  154.1019 H   0  0  0  0  0  0  0  0  0  0  0  0
  145.8955  139.6511  153.8646 H   0  0  0  0  0  0  0  0  0  0  0  0
  146.0748  139.2096  151.4019 H   0  0  0  0  0  0  0  0  0  0  0  0
  147.8068  138.9547  151.5689 H   0  0  0  0  0  0  0  0  0  0  0  0
  147.1022  140.5417  151.8403 H   0  0  0  0  0  0  0  0  0  0  0  0
  147.3825  137.0338  153.7767 H   0  0  0  0  0  0  0  0  0  0  0  0
  145.8330  137.3959  154.5106 H   0  0  0  0  0  0  0  0  0  0  0  0
  145.3772  137.6963  151.8181 H   0  0  0  0  0  0  0  0  0  0  0  0
  143.7024  135.6833  151.1594 H   0  0  0  0  0  0  0  0  0  0  0  0
  145.1168  135.9051  150.1424 H   0  0  0  0  0  0  0  0  0  0  0  0
  142.7367  133.3325  150.9737 H   0  0  0  0  0  0  0  0  0  0  0  0
  143.7555  130.8785  150.3516 H   0  0  0  0  0  0  0  0  0  0  0  0
  146.4570  131.3939  150.0099 H   0  0  0  0  0  0  0  0  0  0  0  0
  148.4938  141.2660  153.1369 H   0  0  0  0  0  0  0  0  0  0  0  0
  147.4338  141.6398  154.4862 H   0  0  0  0  0  0  0  0  0  0  0  0
  149.7963  142.4062  154.7781 H   0  0  0  0  0  0  0  0  0  0  0  0
  148.3949  142.2179  156.7671 H   0  0  0  0  0  0  0  0  0  0  0  0
  150.0338  141.7092  157.1506 H   0  0  0  0  0  0  0  0  0  0  0  0
  148.7592  140.5105  156.9399 H   0  0  0  0  0  0  0  0  0  0  0  0
  147.7186  139.4135  155.2484 H   0  0  0  0  0  0  0  0  0  0  0  0
  1  2  1  0  0  0  0
  1 21  1  0  0  0  0
  1 22  1  0  0  0  0
  1 23  1  0  0  0  0
  2 20  1  0  0  0  0
  2  3  1  0  0  0  0
  2 24  1  0  0  0  0
  3  4  1  0  0  0  0
  3 25  1  0  0  0  0
  3 26  1  0  0  0  0
  4  5  1  0  0  0  0
  4 17  1  0  0  0  0
  4 45  1  0  0  0  0
  5  6  1  0  0  0  0
  5  7  1  0  0  0  0
  5 27  1  0  0  0  0
  6 28  1  0  0  0  0
  6 29  1  0  0  0  0
  6 30  1  0  0  0  0
  7  8  1  0  0  0  0
  7 31  1  0  0  0  0
  7 32  1  0  0  0  0
  8  9  1  0  0  0  0
  8 33  1  0  0  0  0
  9 10  2  0  0  0  0
  9 11  1  0  0  0  0
 11 12  1  0  0  0  0
 11 34  1  0  0  0  0
 11 35  1  0  0  0  0
 12 16  1  0  0  0  0
 12 13  1  0  0  0  0
 13 14  2  0  0  0  0
 13 36  1  0  0  0  0
 14 15  1  0  0  0  0
 14 37  1  0  0  0  0
 15 16  2  0  0  0  0
 15 38  1  0  0  0  0
 17 18  1  0  0  0  0
 17 39  1  0  0  0  0
 17 40  1  0  0  0  0
 18 19  1  0  0  0  0
 18 20  1  0  0  0  0
 18 41  1  0  0  0  0
 19 42  1  0  0  0  0
 19 43  1  0  0  0  0
 19 44  1  0  0  0  0
M  CHG  1   4   1
M  END
> <s_m_source_file>
AV-unprocessed.smi

> <i_m_source_file_index>
1433

> <i_lp_mmshare_version>
43012

> <i_f3d_flags>
0

> <s_epik_input>
W0NIM11bQ0BASF0xW0NIMl1OKFtDSDJdW0NASF0oTzEpW0NIM10pW0NASF0oW0NIM10pW0NIMl1bTkhdQyg9TylbQ0gyXW4yW2NIXVtjSF1bY0hdbjI=

> <s_epik_cmdline>
J2VwaWtfcHl0aG9uJywgJy1waCcsICc3LjAnLCAnLXRuJywgJzgnLCAnLW1hJywgJzIwMCcsICctbWV0YWxfYmluZGluZycsICctaW1hZScsICc8aW5maWxlLm1hZT4nLCAnLW9tYWUnLCAnPG91dGZpbGUubWFlPic=

> <r_lp_tautomer_probability>
1

> <r_epik_Ionization_Penalty>
0.748405

> <r_epik_Ionization_Penalty_Charging>
0.748396

> <r_epik_Ionization_Penalty_Neutral>
8.54426e-06

> <r_epik_State_Penalty>
0.775162

> <r_epik_Charging_Adjusted_Penalty>
1.52356

> <i_epik_Tot_Q>
1

> <i_epik_Tot_abs_Q>
1

> <r_epik_Metal_State_Penalty>
0.775167

> <b_epik_Metal_Only>
0

> <s_lp_Force_Field>
OPLS_2005

> <r_lp_Energy>
20.9037

> <b_lp_Chiralities_Consistent>
1

> <s_lp_Variant>
AV-unprocessed.smi:1433-9

> <Gold.Version>
5.8.1

> <Gold.Id.Protein>
6NUR|6NUR_protein|mol2

> <Gold.PLP.Fitness>
44.8549

> <Gold.PLP.PLP>
-36.8881

> <Gold.PLP.part.hbond>
-1.2562

> <Gold.PLP.part.metal>
0.0000

> <Gold.PLP.part.buried>
-2.0230

> <Gold.PLP.part.nonpolar>
-35.1717

> <Gold.PLP.part.repulsive>
0.4116

> <Gold.PLP.ligand.clash>
0.0000

> <Gold.PLP.ligand.torsion>
0.5527

> <Gold.PLP.Chemscore.Hbond>
1.0000

> <Gold.PLP.Chemscore.CHOScore>
2.0000

> <Gold.PLP.Chemscore.Metal>
0.0000

> <Gold.Chemscore.Hbonds>
donor molecule, donor type, donor heavy atom, donor atom, acceptor molecule, acceptor atom, score
      P1  H  7989  7998       L1    20  0.99
      L1  C    13    36       P1 10186  1.00
      L1  C    15    38       P1 10747  0.89

> <Gold.PLP.Chemscore.Internal.Correction>
0.0722

> <Gold.Rescore>
     Score         DG    S(hbond)    S(metal)    S(lipo)     H(rot)  DE(clash)    DE(int)     intcor
     12.23     -14.64       0.90        0.00      93.42       1.87       0.64       1.76       ----

> <Gold.Chemscore.Fitness>
12.2326

> <Gold.Chemscore.DG>
-14.6367

> <Gold.Chemscore.ZeroCoef>
-5.4800

> <Gold.Chemscore.Hbond>
0.8991

> <Gold.Chemscore.Metal>
0.0000

> <Gold.Chemscore.Lipo>
93.4167

> <Gold.Chemscore.Internal_Hbond>
0.0000

> <Gold.Chemscore.DEClash>
0.6424

> <Gold.Chemscore.DEInternal>
1.7617

> <Gold.Chemscore.Rot>
1.8657

> <Gold.Chemscore.Internal.Correction>
   9.000000E+99

> <Gold.Chemscore.Hbonds>
donor molecule, donor type, donor heavy atom, donor atom, acceptor molecule, acceptor atom, score
      P1  H  7989  7998       L1    20  0.79

> <Gold.Chemscore.Hbond.Weighted>
-3.0031

> <Gold.Chemscore.Metal.Weighted>
-0.0000

> <Gold.Chemscore.Lipo.Weighted>
-10.9298

> <Gold.Chemscore.Internal_Hbond.Weighted>
0.0000

> <Gold.Chemscore.DEClash.Weighted>
0.6424

> <Gold.Chemscore.DEInternal.Weighted>
1.7617

> <Gold.Chemscore.Rot.Weighted>
4.7761

> <Gold.Chemscore.Internal.Correction.Weighted>
   9.000000E+99

> <Gold.Protein.RotatedTorsions>
[ 6907 6896 6895 6894 ] final   50.15 input  -60.11 | X-H torsion
[ 7974 7965 7964 7962 ] final  146.05 input  175.53 | X-H torsion
[ 8008 7997 7996 7995 ] final  -35.99 input   59.86 | X-H torsion
[ 10167 10162 10161 10158 ] final  -94.88 input  -65.29 | X-H torsion
[ 10718 10713 10712 10709 ] final   -1.93 input   66.30 | X-H torsion
[ 10763 10752 10751 10750 ] final   88.22 input  -60.55 | X-H torsion
[ 11005 11000 10999 10996 ] final -113.75 input  -57.11 | X-H torsion

> <Gold.Protein.ActiveResidues>
 VAL166  LYS551  ARG553  GLY616  TRP617  ASP618  TYR619  PRO620  LYS621  CYS622 
 ASP623  PHE694  ASN695  SER759  ASP760  ASP761  ALA762  ILE779  LEU786  VAL792 
 PHE793  MET794  SER795  GLU796  ALA797  LYS798  CYS799  TRP800  GLU811  SER814 

> <Gold.Protein.RotatedAtoms>
  152.2987  134.7637  160.0362 H   0  0  0  0  0  0  0  0  0  0  0  0  # atno 6907 bound_to 6896
  151.8158  133.3382  159.3577 H   0  0  0  0  0  0  0  0  0  0  0  0  # atno 6908 bound_to 6896
  150.7263  134.5551  159.5858 H   0  0  0  0  0  0  0  0  0  0  0  0  # atno 6909 bound_to 6896
  144.8702  139.5858  143.5890 H   0  0  0  0  0  0  0  0  0  0  0  0  # atno 7974 bound_to 7965
  154.4083  140.1642  156.2301 H   0  0  0  0  0  0  0  0  0  0  0  0  # atno 8008 bound_to 7997
  155.9290  140.3416  155.6211 H   0  0  0  0  0  0  0  0  0  0  0  0  # atno 8009 bound_to 7997
  155.7130  140.0759  157.2354 H   0  0  0  0  0  0  0  0  0  0  0  0  # atno 8010 bound_to 7997
  140.3099  143.3111  152.0159 H   0  0  0  0  0  0  0  0  0  0  0  0  # atno 10167 bound_to 10162
  156.7983  130.5384  149.5725 H   0  0  0  0  0  0  0  0  0  0  0  0  # atno 10718 bound_to 10713
  153.1747  135.4515  154.9949 H   0  0  0  0  0  0  0  0  0  0  0  0  # atno 10763 bound_to 10752
  154.7990  135.3248  154.7600 H   0  0  0  0  0  0  0  0  0  0  0  0  # atno 10764 bound_to 10752
  153.8071  135.6958  153.4901 H   0  0  0  0  0  0  0  0  0  0  0  0  # atno 10765 bound_to 10752
  141.0594  133.9559  157.2694 H   0  0  0  0  0  0  0  0  0  0  0  0  # atno 11005 bound_to 11000
  146.2925  139.7180  142.9151 LP  0  0  0  0  0  0  0  0  0  0  0  0  # atno 17320 bound_to 7965
  145.4144  141.0400  143.2999 LP  0  0  0  0  0  0  0  0  0  0  0  0  # atno 17321 bound_to 7965
  139.4896  144.6392  151.6912 LP  0  0  0  0  0  0  0  0  0  0  0  0  # atno 17342 bound_to 10162
  140.5577  144.0320  150.6155 LP  0  0  0  0  0  0  0  0  0  0  0  0  # atno 17343 bound_to 10162
  156.1117  130.6045  151.0057 LP  0  0  0  0  0  0  0  0  0  0  0  0  # atno 17370 bound_to 10713
  157.6566  131.0888  150.7932 LP  0  0  0  0  0  0  0  0  0  0  0  0  # atno 17371 bound_to 10713
  139.9419  135.0190  156.8735 LP  0  0  0  0  0  0  0  0  0  0  0  0  # atno 17394 bound_to 11000
  140.5898  134.0272  155.7495 LP  0  0  0  0  0  0  0  0  0  0  0  0  # atno 17395 bound_to 11000

$$$$
