AV-unprocessed.smi:38|AV-procd|sdf|344|dock8
  -GOLD-   2262016183D 1   1.00000     0.00000
 Structure written by MMmdl.
 27 28  0  0  0  0  0  0  0  0  2 V2000
  152.6413  141.0610  158.9413 O   0  0  0  0  0  0  0  0  0  0  0  0
  151.9824  141.0062  157.9040 C   0  0  0  0  0  0  0  0  0  0  0  0
  152.3205  140.1996  156.8567 N   0  5  0  0  0  0  0  0  0  0  0  0
  151.5896  140.1420  155.7049 C   0  0  0  0  0  0  0  0  0  0  0  0
  151.8894  139.4202  154.7532 O   0  0  0  0  0  0  0  0  0  0  0  0
  150.4269  140.9519  155.5852 N   0  0  0  0  0  0  0  0  0  0  0  0
  149.6220  140.8844  154.3032 C   0  0  2  0  0  0  0  0  0  0  0  0
  148.3889  141.7967  154.3917 C   0  0  0  0  0  0  0  0  0  0  0  0
  147.2761  140.8848  153.9133 C   0  0  2  0  0  0  0  0  0  0  0  0
  146.0376  141.2523  154.4857 O   0  0  0  0  0  0  0  0  0  0  0  0
  147.7582  139.5145  154.3886 C   0  0  1  0  0  0  0  0  0  0  0  0
  147.1233  138.3405  153.6278 C   0  0  0  0  0  0  0  0  0  0  0  0
  147.5357  138.3552  152.2777 O   0  0  0  0  0  0  0  0  0  0  0  0
  149.1524  139.5815  154.1024 O   0  0  0  0  0  0  0  0  0  0  0  0
  150.0587  141.7792  156.6343 C   0  0  0  0  0  0  0  0  0  0  0  0
  150.7847  141.8334  157.7699 C   0  0  0  0  0  0  0  0  0  0  0  0
  150.4030  142.6464  158.7702 F   0  0  0  0  0  0  0  0  0  0  0  0
  150.3144  141.1420  153.4999 H   0  0  0  0  0  0  0  0  0  0  0  0
  147.2119  140.9124  152.8245 H   0  0  0  0  0  0  0  0  0  0  0  0
  147.6030  139.4219  155.4655 H   0  0  0  0  0  0  0  0  0  0  0  0
  148.2279  142.0987  155.4287 H   0  0  0  0  0  0  0  0  0  0  0  0
  148.5142  142.6896  153.7787 H   0  0  0  0  0  0  0  0  0  0  0  0
  145.3489  141.0272  153.8789 H   0  0  0  0  0  0  0  0  0  0  0  0
  147.4518  137.3943  154.0584 H   0  0  0  0  0  0  0  0  0  0  0  0
  146.0354  138.3664  153.6941 H   0  0  0  0  0  0  0  0  0  0  0  0
  147.7818  137.4774  152.0293 H   0  0  0  0  0  0  0  0  0  0  0  0
  149.1786  142.3995  156.5609 H   0  0  0  0  0  0  0  0  0  0  0  0
  1  2  2  0  0  0  0
  2 16  1  0  0  0  0
  2  3  1  0  0  0  0
  3  4  1  0  0  0  0
  4  5  2  0  0  0  0
  4  6  1  0  0  0  0
  6  7  1  0  0  0  0
  6 15  1  0  0  0  0
  7 18  1  0  0  0  0
  7 14  1  0  0  0  0
  7  8  1  0  0  0  0
  8  9  1  0  0  0  0
  8 21  1  0  0  0  0
  8 22  1  0  0  0  0
  9 19  1  0  0  0  0
  9 10  1  0  0  0  0
  9 11  1  0  0  0  0
 10 23  1  0  0  0  0
 11 20  1  0  0  0  0
 11 12  1  0  0  0  0
 11 14  1  0  0  0  0
 12 13  1  0  0  0  0
 12 24  1  0  0  0  0
 12 25  1  0  0  0  0
 13 26  1  0  0  0  0
 15 16  2  0  0  0  0
 15 27  1  0  0  0  0
 16 17  1  0  0  0  0
M  CHG  1   3  -1
M  END
> <s_m_source_file>
AV-unprocessed.smi

> <i_m_source_file_index>
38

> <i_lp_mmshare_version>
43012

> <i_f3d_flags>
0

> <s_epik_input>
Tz1jMVtuSF1jKD1PKW4oW2NIXWMxRilbQ0BIXTJbQ0gyXVtDQEhdKFtPSF0pW0NASF0oTzIpW0NIMl1bT0hd

> <s_epik_cmdline>
J2VwaWtfcHl0aG9uJywgJy1waCcsICc3LjAnLCAnLXRuJywgJzgnLCAnLW1hJywgJzIwMCcsICctbWV0YWxfYmluZGluZycsICctaW1hZScsICc8aW5maWxlLm1hZT4nLCAnLW9tYWUnLCAnPG91dGZpbGUubWFlPic=

> <r_epik_Ionization_Penalty>
1.68146

> <r_epik_Ionization_Penalty_Charging>
3.4211e-08

> <r_epik_Ionization_Penalty_Neutral>
1.68146

> <r_epik_State_Penalty>
1.78593

> <r_epik_Charging_Adjusted_Penalty>
1.78593

> <i_epik_Tot_Q>
-1

> <i_epik_Tot_abs_Q>
1

> <r_epik_Metal_State_Penalty>
0.0113696

> <b_epik_Metal_Only>
0

> <s_epik_Chemistry_Notes>
This compound contains an acetal/aminal-like group ( X-CH(R)-Y where X, Y are N, S, or O) that may be acid/base labile, releasing an aldehyde.

> <s_lp_Force_Field>
OPLS_2005

> <r_lp_Energy>
37.5177

> <b_lp_Chiralities_Consistent>
1

> <s_lp_Variant>
AV-unprocessed.smi:38-10

> <Gold.Version>
5.8.1

> <Gold.Id.Protein>
6NUR|6NUR_protein|mol2

> <Gold.PLP.Fitness>
41.7969

> <Gold.PLP.PLP>
-26.7799

> <Gold.PLP.part.hbond>
-4.4764

> <Gold.PLP.part.metal>
0.0000

> <Gold.PLP.part.buried>
-0.1981

> <Gold.PLP.part.nonpolar>
-21.8879

> <Gold.PLP.part.repulsive>
1.0137

> <Gold.PLP.ligand.clash>
0.0000

> <Gold.PLP.ligand.torsion>
0.0500

> <Gold.PLP.Chemscore.Hbond>
4.0336

> <Gold.PLP.Chemscore.CHOScore>
1.0000

> <Gold.PLP.Chemscore.Metal>
0.0000

> <Gold.Chemscore.Hbonds>
donor molecule, donor type, donor heavy atom, donor atom, acceptor molecule, acceptor atom, score
      L1  H    10    23       P1 10175  0.49
      L1  H    13    26       P1  7948  1.00
      P1  H  7989  7998       L1     5  0.60
      P1  H  7997  8010       L1     3  1.89
      L1  C    15    27       P1  8028  1.00

> <Gold.PLP.Chemscore.Internal.Correction>
0.0164

> <Gold.Rescore>
     Score         DG    S(hbond)    S(metal)    S(lipo)     H(rot)  DE(clash)    DE(int)     intcor
      7.18      -9.59       2.20        0.00      35.33       2.88       1.02       1.39       ----

> <Gold.Chemscore.Fitness>
7.1789

> <Gold.Chemscore.DG>
-9.5872

> <Gold.Chemscore.ZeroCoef>
-5.4800

> <Gold.Chemscore.Hbond>
2.2008

> <Gold.Chemscore.Metal>
0.0000

> <Gold.Chemscore.Lipo>
35.3263

> <Gold.Chemscore.Internal_Hbond>
0.0000

> <Gold.Chemscore.DEClash>
1.0214

> <Gold.Chemscore.DEInternal>
1.3870

> <Gold.Chemscore.Rot>
2.8815

> <Gold.Chemscore.Internal.Correction>
   9.000000E+99

> <Gold.Chemscore.Hbonds>
donor molecule, donor type, donor heavy atom, donor atom, acceptor molecule, acceptor atom, score
      L1  H    10    23       P1 10175  0.37
      L1  H    13    26       P1  7948  0.95
      P1  H  7989  7998       L1     5  0.04
      P1  H  7997  8010       L1     3  0.64

> <Gold.Chemscore.Hbond.Weighted>
-7.3506

> <Gold.Chemscore.Metal.Weighted>
-0.0000

> <Gold.Chemscore.Lipo.Weighted>
-4.1332

> <Gold.Chemscore.Internal_Hbond.Weighted>
0.0000

> <Gold.Chemscore.DEClash.Weighted>
1.0214

> <Gold.Chemscore.DEInternal.Weighted>
1.3870

> <Gold.Chemscore.Rot.Weighted>
7.3765

> <Gold.Chemscore.Internal.Correction.Weighted>
   9.000000E+99

> <Gold.Protein.RotatedTorsions>
[ 6907 6896 6895 6894 ] final -150.17 input  -60.11 | X-H torsion
[ 7974 7965 7964 7962 ] final   70.22 input  175.53 | X-H torsion
[ 8008 7997 7996 7995 ] final   68.87 input   59.86 | X-H torsion
[ 10167 10162 10161 10158 ] final  -93.44 input  -65.29 | X-H torsion
[ 10718 10713 10712 10709 ] final   25.75 input   66.30 | X-H torsion
[ 10763 10752 10751 10750 ] final  -15.21 input  -60.55 | X-H torsion
[ 11005 11000 10999 10996 ] final   92.33 input  -57.11 | X-H torsion

> <Gold.Protein.ActiveResidues>
 VAL166  LYS551  ARG553  GLY616  TRP617  ASP618  TYR619  PRO620  LYS621  CYS622 
 ASP623  PHE694  ASN695  SER759  ASP760  ASP761  ALA762  ILE779  LEU786  VAL792 
 PHE793  MET794  SER795  GLU796  ALA797  LYS798  CYS799  TRP800  GLU811  SER814 

> <Gold.Protein.RotatedAtoms>
  151.1947  133.4646  159.2595 H   0  0  0  0  0  0  0  0  0  0  0  0  # atno 6907 bound_to 6896
  151.1128  135.0036  159.8512 H   0  0  0  0  0  0  0  0  0  0  0  0  # atno 6908 bound_to 6896
  152.5451  134.1865  159.8709 H   0  0  0  0  0  0  0  0  0  0  0  0  # atno 6909 bound_to 6896
  145.7808  139.2887  143.1267 H   0  0  0  0  0  0  0  0  0  0  0  0  # atno 7974 bound_to 7965
  155.7149  140.3494  155.4990 H   0  0  0  0  0  0  0  0  0  0  0  0  # atno 8008 bound_to 7997
  155.9322  140.1086  157.1145 H   0  0  0  0  0  0  0  0  0  0  0  0  # atno 8009 bound_to 7997
  154.4087  140.1229  156.4804 H   0  0  0  0  0  0  0  0  0  0  0  0  # atno 8010 bound_to 7997
  140.3246  143.3029  152.0008 H   0  0  0  0  0  0  0  0  0  0  0  0  # atno 10167 bound_to 10162
  157.1976  130.6875  149.6175 H   0  0  0  0  0  0  0  0  0  0  0  0  # atno 10718 bound_to 10713
  153.5398  135.7013  153.5642 H   0  0  0  0  0  0  0  0  0  0  0  0  # atno 10763 bound_to 10752
  153.3612  135.3969  155.1720 H   0  0  0  0  0  0  0  0  0  0  0  0  # atno 10764 bound_to 10752
  154.8675  135.3789  154.4902 H   0  0  0  0  0  0  0  0  0  0  0  0  # atno 10765 bound_to 10752
  139.8825  134.8727  156.3558 H   0  0  0  0  0  0  0  0  0  0  0  0  # atno 11005 bound_to 11000
  146.0076  140.8465  142.9987 LP  0  0  0  0  0  0  0  0  0  0  0  0  # atno 17320 bound_to 7965
  144.6797  140.2442  143.7340 LP  0  0  0  0  0  0  0  0  0  0  0  0  # atno 17321 bound_to 7965
  139.4867  144.6283  151.7120 LP  0  0  0  0  0  0  0  0  0  0  0  0  # atno 17342 bound_to 10162
  140.5452  144.0515  150.6104 LP  0  0  0  0  0  0  0  0  0  0  0  0  # atno 17343 bound_to 10162
  155.9704  130.4593  150.6033 LP  0  0  0  0  0  0  0  0  0  0  0  0  # atno 17370 bound_to 10713
  157.3799  131.0779  151.1486 LP  0  0  0  0  0  0  0  0  0  0  0  0  # atno 17371 bound_to 10713
  140.9563  133.7417  156.0340 LP  0  0  0  0  0  0  0  0  0  0  0  0  # atno 17394 bound_to 11000
  140.8044  134.3472  157.5430 LP  0  0  0  0  0  0  0  0  0  0  0  0  # atno 17395 bound_to 11000

$$$$
