AV-unprocessed.smi:3009|AV-procd|sdf|11450|dock3
  -GOLD-   2272016383D 1   1.00000     0.00000
 Structure written by MMmdl.
 44 45  0  0  0  0  0  0  0  0  2 V2000
  152.3731  143.0147  159.1303 C   0  0  0  0  0  0  0  0  0  0  0  0
  151.1764  143.2989  158.2097 C   0  0  0  0  0  0  0  0  0  0  0  0
  150.3012  144.4177  158.7997 C   0  0  0  0  0  0  0  0  0  0  0  0
  150.3699  142.0064  157.9563 C   0  0  0  0  0  0  0  0  0  0  0  0
  149.4729  142.0942  156.7712 N   0  3  2  0  0  0  0  0  0  0  0  0
  148.0843  141.6534  157.0483 C   0  0  0  0  0  0  0  0  0  0  0  0
  147.9858  140.1180  157.0759 C   0  0  0  0  0  0  0  0  0  0  0  0
  148.4593  139.5941  155.8421 O   0  0  0  0  0  0  0  0  0  0  0  0
  149.8300  139.9001  155.6023 C   0  0  1  0  0  0  0  0  0  0  0  0
  150.2634  139.2353  154.2834 C   0  0  0  0  0  0  0  0  0  0  0  0
  149.8077  137.8519  154.1961 N   0  0  0  0  0  0  0  0  0  0  0  0
  149.9322  136.9329  155.1637 C   0  0  0  0  0  0  0  0  0  0  0  0
  150.4616  137.1568  156.2522 O   0  0  0  0  0  0  0  0  0  0  0  0
  149.4084  135.7554  154.7860 N   0  0  0  0  0  0  0  0  0  0  0  0
  149.3474  134.5573  155.5414 C   0  0  0  0  0  0  0  0  0  0  0  0
  149.5989  134.4686  156.9374 C   0  0  0  0  0  0  0  0  0  0  0  0
  149.4700  133.2240  157.3741 N   0  0  0  0  0  0  0  0  0  0  0  0
  149.1392  132.5172  156.2698 N   0  0  0  0  0  0  0  0  0  0  0  0
  149.0524  133.2874  155.1311 C   0  0  0  0  0  0  0  0  0  0  0  0
  149.9867  141.4362  155.5416 C   0  0  0  0  0  0  0  0  0  0  0  0
  148.9780  131.5207  156.3088 H   0  0  0  0  0  0  0  0  0  0  0  0
  152.0467  142.6606  160.1089 H   0  0  0  0  0  0  0  0  0  0  0  0
  152.9725  143.9123  159.2846 H   0  0  0  0  0  0  0  0  0  0  0  0
  153.0277  142.2543  158.7032 H   0  0  0  0  0  0  0  0  0  0  0  0
  151.5883  143.6577  157.2672 H   0  0  0  0  0  0  0  0  0  0  0  0
  149.8667  144.1205  159.7547 H   0  0  0  0  0  0  0  0  0  0  0  0
  149.4833  144.6824  158.1294 H   0  0  0  0  0  0  0  0  0  0  0  0
  150.8857  145.3225  158.9691 H   0  0  0  0  0  0  0  0  0  0  0  0
  151.0416  141.1544  157.8533 H   0  0  0  0  0  0  0  0  0  0  0  0
  149.7697  141.8055  158.8450 H   0  0  0  0  0  0  0  0  0  0  0  0
  147.7190  142.0848  157.9808 H   0  0  0  0  0  0  0  0  0  0  0  0
  147.4377  142.0406  156.2596 H   0  0  0  0  0  0  0  0  0  0  0  0
  148.5505  139.6967  157.9087 H   0  0  0  0  0  0  0  0  0  0  0  0
  146.9480  139.8129  157.2109 H   0  0  0  0  0  0  0  0  0  0  0  0
  150.4398  139.4936  156.4105 H   0  0  0  0  0  0  0  0  0  0  0  0
  149.9185  139.8146  153.4251 H   0  0  0  0  0  0  0  0  0  0  0  0
  151.3519  139.2176  154.2233 H   0  0  0  0  0  0  0  0  0  0  0  0
  149.3559  137.5758  153.3366 H   0  0  0  0  0  0  0  0  0  0  0  0
  149.0025  135.7126  153.8626 H   0  0  0  0  0  0  0  0  0  0  0  0
  149.8655  135.2501  157.6340 H   0  0  0  0  0  0  0  0  0  0  0  0
  148.7974  132.8695  154.1686 H   0  0  0  0  0  0  0  0  0  0  0  0
  149.4176  141.8214  154.6944 H   0  0  0  0  0  0  0  0  0  0  0  0
  151.0238  141.7099  155.3534 H   0  0  0  0  0  0  0  0  0  0  0  0
  149.4110  143.0812  156.5650 H   0  0  0  0  0  0  0  0  0  0  0  0
  1  2  1  0  0  0  0
  1 22  1  0  0  0  0
  1 23  1  0  0  0  0
  1 24  1  0  0  0  0
  2  3  1  0  0  0  0
  2  4  1  0  0  0  0
  2 25  1  0  0  0  0
  3 26  1  0  0  0  0
  3 27  1  0  0  0  0
  3 28  1  0  0  0  0
  4  5  1  0  0  0  0
  4 29  1  0  0  0  0
  4 30  1  0  0  0  0
  5 20  1  0  0  0  0
  5  6  1  0  0  0  0
  5 44  1  0  0  0  0
  6  7  1  0  0  0  0
  6 31  1  0  0  0  0
  6 32  1  0  0  0  0
  7  8  1  0  0  0  0
  7 33  1  0  0  0  0
  7 34  1  0  0  0  0
  8  9  1  0  0  0  0
  9 10  1  0  0  0  0
  9 20  1  0  0  0  0
  9 35  1  0  0  0  0
 10 11  1  0  0  0  0
 10 36  1  0  0  0  0
 10 37  1  0  0  0  0
 11 12  1  0  0  0  0
 11 38  1  0  0  0  0
 12 13  2  0  0  0  0
 12 14  1  0  0  0  0
 14 15  1  0  0  0  0
 14 39  1  0  0  0  0
 15 19  2  0  0  0  0
 15 16  1  0  0  0  0
 16 17  2  0  0  0  0
 16 40  1  0  0  0  0
 17 18  1  0  0  0  0
 18 21  1  0  0  0  0
 18 19  1  0  0  0  0
 19 41  1  0  0  0  0
 20 42  1  0  0  0  0
 20 43  1  0  0  0  0
M  CHG  1   5   1
M  END
> <s_m_source_file>
AV-unprocessed.smi

> <i_m_source_file_index>
3009

> <i_lp_mmshare_version>
43012

> <i_f3d_flags>
0

> <s_epik_input>
W0NIM11bQ0hdKFtDSDNdKVtDSDJdTjFbQ0gyXVtDSDJdT1tDQEhdKFtDSDJdMSlbQ0gyXVtOSF1DKD1PKVtOSF1jMltjSF1uW25IXVtjSF0y

> <s_epik_cmdline>
J2VwaWtfcHl0aG9uJywgJy1waCcsICc3LjAnLCAnLXRuJywgJzgnLCAnLW1hJywgJzIwMCcsICctbWV0YWxfYmluZGluZycsICctaW1hZScsICc8aW5maWxlLm1hZT4nLCAnLW9tYWUnLCAnPG91dGZpbGUubWFlPic=

> <r_lp_tautomer_probability>
0.5

> <r_epik_Ionization_Penalty>
0.0974064

> <r_epik_Ionization_Penalty_Charging>
0.0973651

> <r_epik_Ionization_Penalty_Neutral>
4.13573e-05

> <r_epik_State_Penalty>
0.0874853

> <r_epik_Charging_Adjusted_Penalty>
0.18485

> <i_epik_Tot_Q>
1

> <i_epik_Tot_abs_Q>
1

> <r_epik_Metal_State_Penalty>
0.0874855

> <b_epik_Metal_Only>
0

> <s_lp_Force_Field>
OPLS_2005

> <r_lp_Energy>
22.9615

> <b_lp_Chiralities_Consistent>
1

> <s_lp_Variant>
AV-unprocessed.smi:3009-2

> <Gold.Version>
5.8.1

> <Gold.Id.Protein>
6NUR|6NUR_protein|mol2

> <Gold.PLP.Fitness>
42.5714

> <Gold.PLP.PLP>
-29.6339

> <Gold.PLP.part.hbond>
-4.0000

> <Gold.PLP.part.metal>
0.0000

> <Gold.PLP.part.buried>
-2.1964

> <Gold.PLP.part.nonpolar>
-23.4340

> <Gold.PLP.part.repulsive>
0.2003

> <Gold.PLP.ligand.clash>
0.0000

> <Gold.PLP.ligand.torsion>
0.9746

> <Gold.PLP.Chemscore.Hbond>
4.9338

> <Gold.PLP.Chemscore.CHOScore>
0.0000

> <Gold.PLP.Chemscore.Metal>
0.0000

> <Gold.Chemscore.Hbonds>
donor molecule, donor type, donor heavy atom, donor atom, acceptor molecule, acceptor atom, score
      L1  H     5    44       P1  8028  2.00
      L1  H    11    38       P1  7948  1.00
      L1  H    14    39       P1  7948  0.96
      P1  H  6896  6907       L1    17  0.04

> <Gold.PLP.Chemscore.Internal.Correction>
0.0854

> <Gold.Rescore>
     Score         DG    S(hbond)    S(metal)    S(lipo)     H(rot)  DE(clash)    DE(int)     intcor
     15.87     -19.50       2.84        0.00      78.05       1.80       0.01       3.63       ----

> <Gold.Chemscore.Fitness>
15.8680

> <Gold.Chemscore.DG>
-19.4993

> <Gold.Chemscore.ZeroCoef>
-5.4800

> <Gold.Chemscore.Hbond>
2.8400

> <Gold.Chemscore.Metal>
0.0000

> <Gold.Chemscore.Lipo>
78.0542

> <Gold.Chemscore.Internal_Hbond>
0.0000

> <Gold.Chemscore.DEClash>
0.0057

> <Gold.Chemscore.DEInternal>
3.6257

> <Gold.Chemscore.Rot>
1.7963

> <Gold.Chemscore.Internal.Correction>
   9.000000E+99

> <Gold.Chemscore.Hbonds>
donor molecule, donor type, donor heavy atom, donor atom, acceptor molecule, acceptor atom, score
      L1  H     5    44       P1  8028  0.99
      L1  H    11    38       P1  7948  0.89
      L1  H    14    39       P1  7948  0.77
      P1  H  6896  6907       L1    17  0.01

> <Gold.Chemscore.Hbond.Weighted>
-9.4855

> <Gold.Chemscore.Metal.Weighted>
-0.0000

> <Gold.Chemscore.Lipo.Weighted>
-9.1323

> <Gold.Chemscore.Internal_Hbond.Weighted>
0.0000

> <Gold.Chemscore.DEClash.Weighted>
0.0057

> <Gold.Chemscore.DEInternal.Weighted>
3.6257

> <Gold.Chemscore.Rot.Weighted>
4.5985

> <Gold.Chemscore.Internal.Correction.Weighted>
   9.000000E+99

> <Gold.Protein.RotatedTorsions>
[ 6907 6896 6895 6894 ] final -136.72 input  -60.11 | X-H torsion
[ 7974 7965 7964 7962 ] final   95.65 input  175.53 | X-H torsion
[ 8008 7997 7996 7995 ] final   -1.89 input   59.86 | X-H torsion
[ 10167 10162 10161 10158 ] final -130.67 input  -65.29 | X-H torsion
[ 10718 10713 10712 10709 ] final -173.67 input   66.30 | X-H torsion
[ 10763 10752 10751 10750 ] final   70.31 input  -60.55 | X-H torsion
[ 11005 11000 10999 10996 ] final  157.04 input  -57.11 | X-H torsion

> <Gold.Protein.ActiveResidues>
 VAL166  LYS551  ARG553  GLY616  TRP617  ASP618  TYR619  PRO620  LYS621  CYS622 
 ASP623  PHE694  ASN695  SER759  ASP760  ASP761  ALA762  ILE779  LEU786  VAL792 
 PHE793  MET794  SER795  GLU796  ALA797  LYS798  CYS799  TRP800  GLU811  SER814 

> <Gold.Protein.RotatedAtoms>
  151.0135  133.5943  159.2679 H   0  0  0  0  0  0  0  0  0  0  0  0  # atno 6907 bound_to 6896
  151.3085  135.0787  159.9274 H   0  0  0  0  0  0  0  0  0  0  0  0  # atno 6908 bound_to 6896
  152.5305  133.9804  159.7858 H   0  0  0  0  0  0  0  0  0  0  0  0  # atno 6909 bound_to 6896
  145.4493  139.2294  143.3048 H   0  0  0  0  0  0  0  0  0  0  0  0  # atno 7974 bound_to 7965
  154.6418  140.2548  155.7313 H   0  0  0  0  0  0  0  0  0  0  0  0  # atno 8008 bound_to 7997
  156.2532  140.2886  156.0735 H   0  0  0  0  0  0  0  0  0  0  0  0  # atno 8009 bound_to 7997
  155.1585  140.0384  157.2827 H   0  0  0  0  0  0  0  0  0  0  0  0  # atno 8010 bound_to 7997
  139.9269  143.6318  152.2540 H   0  0  0  0  0  0  0  0  0  0  0  0  # atno 10167 bound_to 10162
  156.7737  130.9458  151.3120 H   0  0  0  0  0  0  0  0  0  0  0  0  # atno 10718 bound_to 10713
  153.0335  135.5178  154.7422 H   0  0  0  0  0  0  0  0  0  0  0  0  # atno 10763 bound_to 10752
  154.6418  135.2913  155.0096 H   0  0  0  0  0  0  0  0  0  0  0  0  # atno 10764 bound_to 10752
  154.1012  135.6636  153.4921 H   0  0  0  0  0  0  0  0  0  0  0  0  # atno 10765 bound_to 10752
  140.1731  134.8529  157.2714 H   0  0  0  0  0  0  0  0  0  0  0  0  # atno 11005 bound_to 11000
  146.2513  140.5251  142.8892 LP  0  0  0  0  0  0  0  0  0  0  0  0  # atno 17320 bound_to 7965
  144.8071  140.6320  143.6439 LP  0  0  0  0  0  0  0  0  0  0  0  0  # atno 17321 bound_to 7965
  139.6815  144.7655  151.1600 LP  0  0  0  0  0  0  0  0  0  0  0  0  # atno 17342 bound_to 10162
  140.7648  143.5718  150.8987 LP  0  0  0  0  0  0  0  0  0  0  0  0  # atno 17343 bound_to 10162
  157.6679  130.9024  149.9973 LP  0  0  0  0  0  0  0  0  0  0  0  0  # atno 17370 bound_to 10713
  156.1262  130.3644  149.9806 LP  0  0  0  0  0  0  0  0  0  0  0  0  # atno 17371 bound_to 10713
  140.2354  134.3859  155.7503 LP  0  0  0  0  0  0  0  0  0  0  0  0  # atno 17394 bound_to 11000
  141.2219  133.7237  156.8705 LP  0  0  0  0  0  0  0  0  0  0  0  0  # atno 17395 bound_to 11000

$$$$
