AV-unprocessed.smi:114|AV-procd|sdf|1121|dock2
  -GOLD-   2262018243D 1   1.00000     0.00000
 Structure written by MMmdl.
 32 34  0  0  0  0  0  0  0  0  1 V2000
  148.9432  129.8282  154.5892 N   0  0  0  0  0  0  0  0  0  0  0  0
  148.6325  131.1289  154.6792 C   0  0  0  0  0  0  0  0  0  0  0  0
  149.4200  131.9272  155.4352 N   0  0  0  0  0  0  0  0  0  0  0  0
  149.1461  133.2316  155.5474 C   0  0  0  0  0  0  0  0  0  0  0  0
  149.9835  133.9580  156.3242 F   0  0  0  0  0  0  0  0  0  0  0  0
  148.1359  133.8976  154.9797 N   0  0  0  0  0  0  0  0  0  0  0  0
  147.3331  133.1009  154.2147 C   0  0  0  0  0  0  0  0  0  0  0  0
  147.5204  131.7050  154.0178 C   0  0  0  0  0  0  0  0  0  0  0  0
  146.5320  131.2041  153.1852 N   0  0  0  0  0  0  0  0  0  0  0  0
  145.8064  132.2506  152.9003 C   0  0  0  0  0  0  0  0  0  0  0  0
  146.2024  133.4350  153.4844 N   0  0  0  0  0  0  0  0  0  0  0  0
  145.5481  134.7752  153.2778 C   0  0  2  0  0  0  0  0  0  0  0  0
  144.2247  134.6853  153.6977 O   0  0  0  0  0  0  0  0  0  0  0  0
  143.3875  134.4040  152.5859 C   0  0  1  0  0  0  0  0  0  0  0  0
  141.9499  134.8484  152.8940 C   0  0  0  0  0  0  0  0  0  0  0  0
  141.5374  134.3256  154.1389 O   0  0  0  0  0  0  0  0  0  0  0  0
  144.0442  135.2052  151.4508 C   0  0  2  0  0  0  0  0  0  0  0  0
  143.8443  134.5542  150.2121 O   0  0  0  0  0  0  0  0  0  0  0  0
  145.5327  135.2430  151.8117 C   0  0  1  0  0  0  0  0  0  0  0  0
  146.0284  136.5611  151.6909 O   0  0  0  0  0  0  0  0  0  0  0  0
  146.1061  135.4410  153.9379 H   0  0  0  0  0  0  0  0  0  0  0  0
  143.4167  133.3358  152.3704 H   0  0  0  0  0  0  0  0  0  0  0  0
  143.6277  136.2135  151.4125 H   0  0  0  0  0  0  0  0  0  0  0  0
  146.1480  134.5936  151.1900 H   0  0  0  0  0  0  0  0  0  0  0  0
  148.3709  129.2128  154.0291 H   0  0  0  0  0  0  0  0  0  0  0  0
  149.7524  129.4681  155.0741 H   0  0  0  0  0  0  0  0  0  0  0  0
  144.9505  132.1861  152.2442 H   0  0  0  0  0  0  0  0  0  0  0  0
  141.8589  135.9350  152.8873 H   0  0  0  0  0  0  0  0  0  0  0  0
  141.2689  134.4609  152.1358 H   0  0  0  0  0  0  0  0  0  0  0  0
  141.7785  133.4128  154.1769 H   0  0  0  0  0  0  0  0  0  0  0  0
  142.9148  134.4671  150.0660 H   0  0  0  0  0  0  0  0  0  0  0  0
  146.9715  136.5233  151.6413 H   0  0  0  0  0  0  0  0  0  0  0  0
  1  2  1  0  0  0  0
  1 25  1  0  0  0  0
  1 26  1  0  0  0  0
  2  8  1  0  0  0  0
  2  3  2  0  0  0  0
  3  4  1  0  0  0  0
  4  5  1  0  0  0  0
  4  6  2  0  0  0  0
  6  7  1  0  0  0  0
  7 11  1  0  0  0  0
  7  8  2  0  0  0  0
  8  9  1  0  0  0  0
  9 10  2  0  0  0  0
 10 11  1  0  0  0  0
 10 27  1  0  0  0  0
 11 12  1  0  0  0  0
 12 21  1  0  0  0  0
 12 19  1  0  0  0  0
 12 13  1  0  0  0  0
 13 14  1  0  0  0  0
 14 22  1  0  0  0  0
 14 15  1  0  0  0  0
 14 17  1  0  0  0  0
 15 16  1  0  0  0  0
 15 28  1  0  0  0  0
 15 29  1  0  0  0  0
 16 30  1  0  0  0  0
 17 23  1  0  0  0  0
 17 18  1  0  0  0  0
 17 19  1  0  0  0  0
 18 31  1  0  0  0  0
 19 24  1  0  0  0  0
 19 20  1  0  0  0  0
 20 32  1  0  0  0  0
M  END
> <s_m_source_file>
AV-unprocessed.smi

> <i_m_source_file_index>
114

> <i_lp_mmshare_version>
43012

> <i_f3d_flags>
0

> <s_epik_input>
RmMobjEpbmMoW05IMl0pYyhjMTIpbltjSF1uMltDQEBIXTNPW0NASF0oW0NIMl1bT0hdKVtDQEBIXShbT0hdKVtDQEBIXTNbT0hd

> <s_epik_cmdline>
J2VwaWtfcHl0aG9uJywgJy1waCcsICc3LjAnLCAnLXRuJywgJzgnLCAnLW1hJywgJzIwMCcsICctbWV0YWxfYmluZGluZycsICctaW1hZScsICc8aW5maWxlLm1hZT4nLCAnLW9tYWUnLCAnPG91dGZpbGUubWFlPic=

> <r_lp_tautomer_probability>
1

> <r_epik_Ionization_Penalty>
1.13199e-05

> <r_epik_Ionization_Penalty_Charging>
0

> <r_epik_Ionization_Penalty_Neutral>
1.13199e-05

> <r_epik_State_Penalty>
-0

> <r_epik_Charging_Adjusted_Penalty>
0

> <i_epik_Tot_Q>
0

> <i_epik_Tot_abs_Q>
0

> <r_epik_Metal_State_Penalty>
-0

> <b_epik_Metal_Only>
0

> <s_epik_Chemistry_Notes>
This compound contains an acetal/aminal-like group ( X-CH(R)-Y where X, Y are N, S, or O) that may be acid/base labile, releasing an aldehyde.

> <s_lp_Force_Field>
OPLS_2005

> <r_lp_Energy>
32.4154

> <b_lp_Chiralities_Consistent>
1

> <s_lp_Variant>
AV-unprocessed.smi:114-15

> <Gold.Version>
5.8.1

> <Gold.Id.Protein>
6NUR|6NUR_protein|mol2

> <Gold.PLP.Fitness>
41.3647

> <Gold.PLP.PLP>
-29.7827

> <Gold.PLP.part.hbond>
-4.0000

> <Gold.PLP.part.metal>
0.0000

> <Gold.PLP.part.buried>
-6.8393

> <Gold.PLP.part.nonpolar>
-19.8347

> <Gold.PLP.part.repulsive>
0.3874

> <Gold.PLP.ligand.clash>
0.0000

> <Gold.PLP.ligand.torsion>
0.0843

> <Gold.PLP.Chemscore.Hbond>
3.9100

> <Gold.PLP.Chemscore.CHOScore>
0.0000

> <Gold.PLP.Chemscore.Metal>
0.0000

> <Gold.Chemscore.Hbonds>
donor molecule, donor type, donor heavy atom, donor atom, acceptor molecule, acceptor atom, score
      L1  H    16    30       P1 10957  1.00
      L1  H    18    31       P1 10186  1.00
      L1  H    20    32       P1  7948  1.00
      P1  H 11000 11005       L1    16  0.50

> <Gold.PLP.Chemscore.Internal.Correction>
0.0205

> <Gold.Rescore>
     Score         DG    S(hbond)    S(metal)    S(lipo)     H(rot)  DE(clash)    DE(int)     intcor
      8.82      -9.01       3.22        0.00      26.29       4.03       0.00       0.19       ----

> <Gold.Chemscore.Fitness>
8.8154

> <Gold.Chemscore.DG>
-9.0075

> <Gold.Chemscore.ZeroCoef>
-5.4800

> <Gold.Chemscore.Hbond>
3.2225

> <Gold.Chemscore.Metal>
0.0000

> <Gold.Chemscore.Lipo>
26.2859

> <Gold.Chemscore.Internal_Hbond>
0.0000

> <Gold.Chemscore.DEClash>
0.0000

> <Gold.Chemscore.DEInternal>
0.1921

> <Gold.Chemscore.Rot>
4.0277

> <Gold.Chemscore.Internal.Correction>
   9.000000E+99

> <Gold.Chemscore.Hbonds>
donor molecule, donor type, donor heavy atom, donor atom, acceptor molecule, acceptor atom, score
      L1  H    16    30       P1 10957  0.99
      L1  H    18    31       P1 10186  0.84
      L1  H    20    32       P1  7948  0.97
      P1  H 11000 11005       L1    16  0.02

> <Gold.Chemscore.Hbond.Weighted>
-10.7630

> <Gold.Chemscore.Metal.Weighted>
-0.0000

> <Gold.Chemscore.Lipo.Weighted>
-3.0754

> <Gold.Chemscore.Internal_Hbond.Weighted>
0.0000

> <Gold.Chemscore.DEClash.Weighted>
0.0000

> <Gold.Chemscore.DEInternal.Weighted>
0.1921

> <Gold.Chemscore.Rot.Weighted>
10.3110

> <Gold.Chemscore.Internal.Correction.Weighted>
   9.000000E+99

> <Gold.Protein.RotatedTorsions>
[ 6907 6896 6895 6894 ] final   72.82 input  -60.11 | X-H torsion
[ 7974 7965 7964 7962 ] final  -83.91 input  175.53 | X-H torsion
[ 8008 7997 7996 7995 ] final  -90.94 input   59.86 | X-H torsion
[ 10167 10162 10161 10158 ] final  -10.16 input  -65.29 | X-H torsion
[ 10718 10713 10712 10709 ] final  -47.61 input   66.30 | X-H torsion
[ 10763 10752 10751 10750 ] final  -91.11 input  -60.55 | X-H torsion
[ 11005 11000 10999 10996 ] final   14.19 input  -57.11 | X-H torsion

> <Gold.Protein.ActiveResidues>
 VAL166  LYS551  ARG553  GLY616  TRP617  ASP618  TYR619  PRO620  LYS621  CYS622 
 ASP623  PHE694  ASN695  SER759  ASP760  ASP761  ALA762  ILE779  LEU786  VAL792 
 PHE793  MET794  SER795  GLU796  ALA797  LYS798  CYS799  TRP800  GLU811  SER814 

> <Gold.Protein.RotatedAtoms>
  152.4889  134.4515  159.9575 H   0  0  0  0  0  0  0  0  0  0  0  0  # atno 6907 bound_to 6896
  151.4506  133.3612  159.2802 H   0  0  0  0  0  0  0  0  0  0  0  0  # atno 6908 bound_to 6896
  150.9024  134.8462  159.7430 H   0  0  0  0  0  0  0  0  0  0  0  0  # atno 6909 bound_to 6896
  145.5136  140.9538  143.1694 H   0  0  0  0  0  0  0  0  0  0  0  0  # atno 7974 bound_to 7965
  154.7046  140.0525  157.0492 H   0  0  0  0  0  0  0  0  0  0  0  0  # atno 8008 bound_to 7997
  155.0637  140.3192  155.4633 H   0  0  0  0  0  0  0  0  0  0  0  0  # atno 8009 bound_to 7997
  156.2771  140.2094  156.5764 H   0  0  0  0  0  0  0  0  0  0  0  0  # atno 8010 bound_to 7997
  140.7106  143.5779  150.9023 H   0  0  0  0  0  0  0  0  0  0  0  0  # atno 10167 bound_to 10162
  156.2067  130.4158  149.9168 H   0  0  0  0  0  0  0  0  0  0  0  0  # atno 10718 bound_to 10713
  154.6727  135.5280  153.8159 H   0  0  0  0  0  0  0  0  0  0  0  0  # atno 10763 bound_to 10752
  153.0512  135.6533  154.0699 H   0  0  0  0  0  0  0  0  0  0  0  0  # atno 10764 bound_to 10752
  154.0596  135.2963  155.3307 H   0  0  0  0  0  0  0  0  0  0  0  0  # atno 10765 bound_to 10752
  140.4723  134.1018  155.7735 H   0  0  0  0  0  0  0  0  0  0  0  0  # atno 11005 bound_to 11000
  144.7714  139.6727  143.7193 LP  0  0  0  0  0  0  0  0  0  0  0  0  # atno 17320 bound_to 7965
  146.2151  139.5534  142.9655 LP  0  0  0  0  0  0  0  0  0  0  0  0  # atno 17321 bound_to 7965
  139.9505  143.6278  152.3030 LP  0  0  0  0  0  0  0  0  0  0  0  0  # atno 17342 bound_to 10162
  139.6795  144.7656  151.1635 LP  0  0  0  0  0  0  0  0  0  0  0  0  # atno 17343 bound_to 10162
  156.6859  130.8877  151.3582 LP  0  0  0  0  0  0  0  0  0  0  0  0  # atno 17370 bound_to 10713
  157.7016  130.9339  150.0803 LP  0  0  0  0  0  0  0  0  0  0  0  0  # atno 17371 bound_to 10713
  141.1571  133.8863  157.1949 LP  0  0  0  0  0  0  0  0  0  0  0  0  # atno 17394 bound_to 11000
  139.9877  135.0076  156.9902 LP  0  0  0  0  0  0  0  0  0  0  0  0  # atno 17395 bound_to 11000

$$$$
