AV-unprocessed.smi:78|AV-procd|sdf|775|dock10
  -GOLD-   2262017133D 1   1.00000     0.00000
 Structure written by MMmdl.
 56 59  0  0  0  0  0  0  0  0  1 V2000
  148.8027  132.2107  156.2436 C   0  0  0  0  0  0  0  0  0  0  0  0
  149.6407  133.3961  155.7420 C   0  0  0  0  0  0  0  0  0  0  0  0
  151.1013  133.2469  156.1996 C   0  0  0  0  0  0  0  0  0  0  0  0
  149.0098  134.7346  156.1924 C   0  0  0  0  0  0  0  0  0  0  0  0
  149.4539  136.0173  155.4339 C   0  0  2  0  0  0  0  0  0  0  0  0
  150.7772  136.5332  156.0389 C   0  0  0  0  0  0  0  0  0  0  0  0
  151.8130  135.8955  155.8594 O   0  0  0  0  0  0  0  0  0  0  0  0
  150.7804  137.6737  156.7509 N   0  0  0  0  0  0  0  0  0  0  0  0
  149.6287  138.5375  157.0027 C   0  0  0  0  0  0  0  0  0  0  0  0
  148.2813  137.8778  156.6681 C   0  0  0  0  0  0  0  0  0  0  0  0
  148.4071  137.0502  155.4735 N   0  0  0  0  0  0  0  0  0  0  0  0
  147.4072  137.0354  154.5558 C   0  0  0  0  0  0  0  0  0  0  0  0
  147.0453  138.2121  153.9833 N   0  0  0  0  0  0  0  0  0  0  0  0
  146.0809  138.2464  153.0602 C   0  0  0  0  0  0  0  0  0  0  0  0
  145.3670  137.2354  152.5628 N   0  0  0  0  0  0  0  0  0  0  0  0
  145.7295  136.0476  153.1259 C   0  0  0  0  0  0  0  0  0  0  0  0
  146.7209  135.8603  154.1308 C   0  0  0  0  0  0  0  0  0  0  0  0
  146.8076  134.5124  154.4569 N   0  0  0  0  0  0  0  0  0  0  0  0
  145.9108  133.9402  153.7022 C   0  0  0  0  0  0  0  0  0  0  0  0
  145.2423  134.7827  152.8412 N   0  0  0  0  0  0  0  0  0  0  0  0
  144.2042  134.4381  151.9064 C   0  0  0  0  0  0  0  0  0  0  0  0
  143.9430  132.9814  151.4943 C   0  0  0  0  0  0  0  0  0  0  0  0
  144.7013  133.2204  150.1695 C   0  0  0  0  0  0  0  0  0  0  0  0
  146.2025  132.8717  150.1928 C   0  0  0  0  0  0  0  0  0  0  0  0
  146.4119  131.4806  150.3282 O   0  0  0  0  0  0  0  0  0  0  0  0
  144.1105  132.5908  148.8929 C   0  0  0  0  0  0  0  0  0  0  0  0
  142.8023  132.0922  149.0877 O   0  0  0  0  0  0  0  0  0  0  0  0
  144.4004  134.7166  150.4090 C   0  0  0  0  0  0  0  0  0  0  0  0
  148.7713  132.1784  157.3331 H   0  0  0  0  0  0  0  0  0  0  0  0
  149.2132  131.2630  155.8942 H   0  0  0  0  0  0  0  0  0  0  0  0
  147.7760  132.2738  155.8819 H   0  0  0  0  0  0  0  0  0  0  0  0
  149.6207  133.3403  154.6559 H   0  0  0  0  0  0  0  0  0  0  0  0
  151.1847  133.3129  157.2849 H   0  0  0  0  0  0  0  0  0  0  0  0
  151.7422  134.0149  155.7690 H   0  0  0  0  0  0  0  0  0  0  0  0
  151.5098  132.2834  155.8937 H   0  0  0  0  0  0  0  0  0  0  0  0
  147.9242  134.6486  156.1275 H   0  0  0  0  0  0  0  0  0  0  0  0
  149.2229  134.8554  157.2560 H   0  0  0  0  0  0  0  0  0  0  0  0
  149.6941  135.7607  154.4025 H   0  0  0  0  0  0  0  0  0  0  0  0
  151.6633  137.9774  157.1353 H   0  0  0  0  0  0  0  0  0  0  0  0
  149.6416  138.8744  158.0395 H   0  0  0  0  0  0  0  0  0  0  0  0
  149.7563  139.4265  156.3842 H   0  0  0  0  0  0  0  0  0  0  0  0
  147.9546  137.2487  157.4966 H   0  0  0  0  0  0  0  0  0  0  0  0
  147.5306  138.6593  156.5452 H   0  0  0  0  0  0  0  0  0  0  0  0
  145.8524  139.2229  152.6593 H   0  0  0  0  0  0  0  0  0  0  0  0
  145.7301  132.8770  153.7514 H   0  0  0  0  0  0  0  0  0  0  0  0
  143.2968  134.9118  152.2831 H   0  0  0  0  0  0  0  0  0  0  0  0
  144.3820  132.2171  152.1340 H   0  0  0  0  0  0  0  0  0  0  0  0
  142.8787  132.7863  151.3543 H   0  0  0  0  0  0  0  0  0  0  0  0
  146.6984  133.2131  149.2836 H   0  0  0  0  0  0  0  0  0  0  0  0
  146.7145  133.3659  151.0183 H   0  0  0  0  0  0  0  0  0  0  0  0
  147.3106  131.2892  150.1070 H   0  0  0  0  0  0  0  0  0  0  0  0
  144.0721  133.3197  148.0828 H   0  0  0  0  0  0  0  0  0  0  0  0
  144.7275  131.7631  148.5424 H   0  0  0  0  0  0  0  0  0  0  0  0
  142.2219  132.8230  149.2368 H   0  0  0  0  0  0  0  0  0  0  0  0
  143.4810  135.0647  149.9361 H   0  0  0  0  0  0  0  0  0  0  0  0
  145.2293  135.3820  150.1666 H   0  0  0  0  0  0  0  0  0  0  0  0
  1  2  1  0  0  0  0
  1 29  1  0  0  0  0
  1 30  1  0  0  0  0
  1 31  1  0  0  0  0
  2  3  1  0  0  0  0
  2  4  1  0  0  0  0
  2 32  1  0  0  0  0
  3 33  1  0  0  0  0
  3 34  1  0  0  0  0
  3 35  1  0  0  0  0
  4  5  1  0  0  0  0
  4 36  1  0  0  0  0
  4 37  1  0  0  0  0
  5 11  1  0  0  0  0
  5  6  1  0  0  0  0
  5 38  1  0  0  0  0
  6  7  2  0  0  0  0
  6  8  1  0  0  0  0
  8  9  1  0  0  0  0
  8 39  1  0  0  0  0
  9 10  1  0  0  0  0
  9 40  1  0  0  0  0
  9 41  1  0  0  0  0
 10 11  1  0  0  0  0
 10 42  1  0  0  0  0
 10 43  1  0  0  0  0
 11 12  1  0  0  0  0
 12 17  1  0  0  0  0
 12 13  2  0  0  0  0
 13 14  1  0  0  0  0
 14 15  2  0  0  0  0
 14 44  1  0  0  0  0
 15 16  1  0  0  0  0
 16 20  1  0  0  0  0
 16 17  2  0  0  0  0
 17 18  1  0  0  0  0
 18 19  2  0  0  0  0
 19 20  1  0  0  0  0
 19 45  1  0  0  0  0
 20 21  1  0  0  0  0
 21 28  1  0  0  0  0
 21 22  1  0  0  0  0
 21 46  1  0  0  0  0
 22 23  1  0  0  0  0
 22 47  1  0  0  0  0
 22 48  1  0  0  0  0
 23 24  1  0  0  0  0
 23 26  1  0  0  0  0
 23 28  1  0  0  0  0
 24 25  1  0  0  0  0
 24 49  1  0  0  0  0
 24 50  1  0  0  0  0
 25 51  1  0  0  0  0
 26 27  1  0  0  0  0
 26 52  1  0  0  0  0
 26 53  1  0  0  0  0
 27 54  1  0  0  0  0
 28 55  1  0  0  0  0
 28 56  1  0  0  0  0
M  END
> <s_m_source_file>
AV-unprocessed.smi

> <i_m_source_file_index>
78

> <i_lp_mmshare_version>
43012

> <i_f3d_flags>
0

> <s_epik_input>
W0NIM11bQ0hdKFtDSDNdKVtDSDJdW0NAQEhdMUMoPU8pW05IXVtDSDJdW0NIMl1OMWMobltjSF1uMiljKGMyMyluW2NIXW4zW0NIXShbQ0gyXTQpW0NIMl1DNChbQ0gyXVtPSF0pW0NIMl1bT0hd

> <s_epik_cmdline>
J2VwaWtfcHl0aG9uJywgJy1waCcsICc3LjAnLCAnLXRuJywgJzgnLCAnLW1hJywgJzIwMCcsICctbWV0YWxfYmluZGluZycsICctaW1hZScsICc8aW5maWxlLm1hZT4nLCAnLW9tYWUnLCAnPG91dGZpbGUubWFlPic=

> <r_lp_tautomer_probability>
1

> <r_epik_Ionization_Penalty>
0.000550083

> <r_epik_Ionization_Penalty_Charging>
0

> <r_epik_Ionization_Penalty_Neutral>
0.000550083

> <r_epik_State_Penalty>
0.000250415

> <r_epik_Charging_Adjusted_Penalty>
0.000250415

> <i_epik_Tot_Q>
0

> <i_epik_Tot_abs_Q>
0

> <r_epik_Metal_State_Penalty>
-0

> <b_epik_Metal_Only>
0

> <s_lp_Force_Field>
OPLS_2005

> <r_lp_Energy>
48.6174

> <b_lp_Chiralities_Consistent>
1

> <s_lp_Variant>
AV-unprocessed.smi:78-1

> <Gold.Version>
5.8.1

> <Gold.Id.Protein>
6NUR|6NUR_protein|mol2

> <Gold.PLP.Fitness>
43.7737

> <Gold.PLP.PLP>
-32.9097

> <Gold.PLP.part.hbond>
-5.0000

> <Gold.PLP.part.metal>
0.0000

> <Gold.PLP.part.buried>
-5.2500

> <Gold.PLP.part.nonpolar>
-22.9386

> <Gold.PLP.part.repulsive>
0.4925

> <Gold.PLP.ligand.clash>
0.0000

> <Gold.PLP.ligand.torsion>
2.3095

> <Gold.PLP.Chemscore.Hbond>
3.9500

> <Gold.PLP.Chemscore.CHOScore>
1.0000

> <Gold.PLP.Chemscore.Metal>
0.0000

> <Gold.Chemscore.Hbonds>
donor molecule, donor type, donor heavy atom, donor atom, acceptor molecule, acceptor atom, score
      L1  H    25    51       P1 10747  1.00
      L1  H    27    54       P1 10186  1.00
      P1  H 10752 10765       L1     7  1.00
      P1  H 10785 10796       L1    27  0.90
      L1  C    14    44       P1 10175  1.00

> <Gold.PLP.Chemscore.Internal.Correction>
0.6331

> <Gold.Rescore>
     Score         DG    S(hbond)    S(metal)    S(lipo)     H(rot)  DE(clash)    DE(int)     intcor
     11.84     -16.18       3.29        0.00      71.57       3.39       0.17       4.17       ----

> <Gold.Chemscore.Fitness>
11.8413

> <Gold.Chemscore.DG>
-16.1849

> <Gold.Chemscore.ZeroCoef>
-5.4800

> <Gold.Chemscore.Hbond>
3.2933

> <Gold.Chemscore.Metal>
0.0000

> <Gold.Chemscore.Lipo>
71.5656

> <Gold.Chemscore.Internal_Hbond>
0.0000

> <Gold.Chemscore.DEClash>
0.1728

> <Gold.Chemscore.DEInternal>
4.1709

> <Gold.Chemscore.Rot>
3.3859

> <Gold.Chemscore.Internal.Correction>
   9.000000E+99

> <Gold.Chemscore.Hbonds>
donor molecule, donor type, donor heavy atom, donor atom, acceptor molecule, acceptor atom, score
      L1  H    25    51       P1 10747  1.00
      L1  H    27    54       P1 10186  0.94
      P1  H 10752 10765       L1     7  0.99
      P1  H 10785 10796       L1    27  0.17

> <Gold.Chemscore.Hbond.Weighted>
-10.9997

> <Gold.Chemscore.Metal.Weighted>
-0.0000

> <Gold.Chemscore.Lipo.Weighted>
-8.3732

> <Gold.Chemscore.Internal_Hbond.Weighted>
0.0000

> <Gold.Chemscore.DEClash.Weighted>
0.1728

> <Gold.Chemscore.DEInternal.Weighted>
4.1709

> <Gold.Chemscore.Rot.Weighted>
8.6679

> <Gold.Chemscore.Internal.Correction.Weighted>
   9.000000E+99

> <Gold.Protein.RotatedTorsions>
[ 6907 6896 6895 6894 ] final   64.79 input  -60.11 | X-H torsion
[ 7974 7965 7964 7962 ] final  112.31 input  175.53 | X-H torsion
[ 8008 7997 7996 7995 ] final -101.66 input   59.86 | X-H torsion
[ 10167 10162 10161 10158 ] final  -12.93 input  -65.29 | X-H torsion
[ 10718 10713 10712 10709 ] final   36.90 input   66.30 | X-H torsion
[ 10763 10752 10751 10750 ] final -151.80 input  -60.55 | X-H torsion
[ 11005 11000 10999 10996 ] final -179.23 input  -57.11 | X-H torsion

> <Gold.Protein.ActiveResidues>
 VAL166  LYS551  ARG553  GLY616  TRP617  ASP618  TYR619  PRO620  LYS621  CYS622 
 ASP623  PHE694  ASN695  SER759  ASP760  ASP761  ALA762  ILE779  LEU786  VAL792 
 PHE793  MET794  SER795  GLU796  ALA797  LYS798  CYS799  TRP800  GLU811  SER814 

> <Gold.Protein.RotatedAtoms>
  152.4358  134.5689  159.9915 H   0  0  0  0  0  0  0  0  0  0  0  0  # atno 6907 bound_to 6896
  151.5799  133.3373  159.3014 H   0  0  0  0  0  0  0  0  0  0  0  0  # atno 6908 bound_to 6896
  150.8256  134.7521  159.6875 H   0  0  0  0  0  0  0  0  0  0  0  0  # atno 6909 bound_to 6896
  145.2312  139.2819  143.4167 H   0  0  0  0  0  0  0  0  0  0  0  0  # atno 7974 bound_to 7965
  154.8457  140.0433  157.1571 H   0  0  0  0  0  0  0  0  0  0  0  0  # atno 8008 bound_to 7997
  154.8998  140.2998  155.5304 H   0  0  0  0  0  0  0  0  0  0  0  0  # atno 8009 bound_to 7997
  156.2994  140.2378  156.4024 H   0  0  0  0  0  0  0  0  0  0  0  0  # atno 8010 bound_to 7997
  140.7172  143.5480  150.9334 H   0  0  0  0  0  0  0  0  0  0  0  0  # atno 10167 bound_to 10162
  157.3405  130.7545  149.6908 H   0  0  0  0  0  0  0  0  0  0  0  0  # atno 10718 bound_to 10713
  154.8035  135.3251  154.7490 H   0  0  0  0  0  0  0  0  0  0  0  0  # atno 10763 bound_to 10752
  153.8153  135.6892  153.4839 H   0  0  0  0  0  0  0  0  0  0  0  0  # atno 10764 bound_to 10752
  153.1766  135.4602  154.9917 H   0  0  0  0  0  0  0  0  0  0  0  0  # atno 10765 bound_to 10752
  140.4210  134.6606  157.4664 H   0  0  0  0  0  0  0  0  0  0  0  0  # atno 11005 bound_to 11000
  146.3352  140.2647  142.8603 LP  0  0  0  0  0  0  0  0  0  0  0  0  # atno 17320 bound_to 7965
  144.9675  140.8336  143.5476 LP  0  0  0  0  0  0  0  0  0  0  0  0  # atno 17321 bound_to 7965
  139.9203  143.6613  152.3098 LP  0  0  0  0  0  0  0  0  0  0  0  0  # atno 17342 bound_to 10162
  139.7028  144.7632  151.1244 LP  0  0  0  0  0  0  0  0  0  0  0  0  # atno 17343 bound_to 10162
  155.9707  130.4169  150.4254 LP  0  0  0  0  0  0  0  0  0  0  0  0  # atno 17370 bound_to 10713
  157.2300  131.0502  151.2497 LP  0  0  0  0  0  0  0  0  0  0  0  0  # atno 17371 bound_to 10713
  140.0200  134.6561  155.9253 LP  0  0  0  0  0  0  0  0  0  0  0  0  # atno 17394 bound_to 11000
  141.1784  133.6543  156.4920 LP  0  0  0  0  0  0  0  0  0  0  0  0  # atno 17395 bound_to 11000

$$$$
