AV-unprocessed.smi:2400|AV-procd|sdf|9502|dock3
  -GOLD-   2272013133D 1   1.00000     0.00000
 Structure written by MMmdl.
 44 45  0  0  0  0  0  0  0  0  1 V2000
  147.5730  142.2721  154.0804 C   0  0  0  0  0  0  0  0  0  0  0  0
  147.4791  140.9646  154.6191 O   0  0  0  0  0  0  0  0  0  0  0  0
  148.6584  140.3075  154.6466 C   0  0  0  0  0  0  0  0  0  0  0  0
  149.0602  139.1272  154.0847 C   0  0  0  0  0  0  0  0  0  0  0  0
  148.3408  138.2132  153.2728 N   0  0  0  0  0  0  0  0  0  0  0  0
  147.0120  138.1573  153.0925 C   0  0  0  0  0  0  0  0  0  0  0  0
  146.1929  138.8931  153.6418 O   0  0  0  0  0  0  0  0  0  0  0  0
  146.6780  137.1739  152.2451 N   0  0  0  0  0  0  0  0  0  0  0  0
  145.3146  136.8387  151.8339 C   0  0  1  0  0  0  0  0  0  0  0  0
  145.3371  135.7138  150.7797 C   0  0  0  0  0  0  0  0  0  0  0  0
  144.5638  134.5416  151.3792 C   0  0  0  0  0  0  0  0  0  0  0  0
  143.6025  135.1945  152.3668 C   0  0  0  0  0  0  0  0  0  0  0  0
  144.3969  136.3519  152.9992 C   0  0  0  0  0  0  0  0  0  0  0  0
  145.1792  135.8175  154.2238 C   0  0  0  0  0  0  0  0  0  0  0  0
  143.4499  137.4716  153.4708 C   0  0  0  0  0  0  0  0  0  0  0  0
  150.4342  139.0032  154.4316 C   0  0  0  0  0  0  0  0  0  0  0  0
  151.4128  137.9222  154.0720 C   0  0  0  0  0  0  0  0  0  0  0  0
  150.8300  140.0170  155.1931 N   0  0  0  0  0  0  0  0  0  0  0  0
  149.7424  140.8138  155.3327 N   0  0  0  0  0  0  0  0  0  0  0  0
  149.8462  142.0318  156.1097 C   0  0  0  0  0  0  0  0  0  0  0  0
  146.5869  142.7365  154.0737 H   0  0  0  0  0  0  0  0  0  0  0  0
  147.9445  142.2600  153.0551 H   0  0  0  0  0  0  0  0  0  0  0  0
  148.2350  142.8947  154.6838 H   0  0  0  0  0  0  0  0  0  0  0  0
  148.8880  137.4837  152.8404 H   0  0  0  0  0  0  0  0  0  0  0  0
  147.4196  136.6148  151.8498 H   0  0  0  0  0  0  0  0  0  0  0  0
  144.8672  137.7112  151.3528 H   0  0  0  0  0  0  0  0  0  0  0  0
  144.8329  136.0571  149.8752 H   0  0  0  0  0  0  0  0  0  0  0  0
  146.3451  135.4158  150.4867 H   0  0  0  0  0  0  0  0  0  0  0  0
  144.0487  133.9503  150.6216 H   0  0  0  0  0  0  0  0  0  0  0  0
  145.2473  133.8773  151.9094 H   0  0  0  0  0  0  0  0  0  0  0  0
  142.7453  135.5838  151.8149 H   0  0  0  0  0  0  0  0  0  0  0  0
  143.2155  134.4858  153.1004 H   0  0  0  0  0  0  0  0  0  0  0  0
  144.5035  135.3863  154.9635 H   0  0  0  0  0  0  0  0  0  0  0  0
  145.7327  136.6111  154.7268 H   0  0  0  0  0  0  0  0  0  0  0  0
  145.8927  135.0418  153.9445 H   0  0  0  0  0  0  0  0  0  0  0  0
  142.7574  137.1090  154.2309 H   0  0  0  0  0  0  0  0  0  0  0  0
  142.8548  137.8688  152.6476 H   0  0  0  0  0  0  0  0  0  0  0  0
  144.0071  138.3036  153.9025 H   0  0  0  0  0  0  0  0  0  0  0  0
  150.9544  137.1623  153.4394 H   0  0  0  0  0  0  0  0  0  0  0  0
  151.7907  137.4238  154.9650 H   0  0  0  0  0  0  0  0  0  0  0  0
  152.2667  138.3310  153.5311 H   0  0  0  0  0  0  0  0  0  0  0  0
  148.8532  142.4171  156.3416 H   0  0  0  0  0  0  0  0  0  0  0  0
  150.3947  142.7829  155.5412 H   0  0  0  0  0  0  0  0  0  0  0  0
  150.3726  141.8336  157.0440 H   0  0  0  0  0  0  0  0  0  0  0  0
  1  2  1  0  0  0  0
  1 21  1  0  0  0  0
  1 22  1  0  0  0  0
  1 23  1  0  0  0  0
  2  3  1  0  0  0  0
  3 19  1  0  0  0  0
  3  4  2  0  0  0  0
  4  5  1  0  0  0  0
  4 16  1  0  0  0  0
  5  6  1  0  0  0  0
  5 24  1  0  0  0  0
  6  7  2  0  0  0  0
  6  8  1  0  0  0  0
  8  9  1  0  0  0  0
  8 25  1  0  0  0  0
  9 13  1  0  0  0  0
  9 10  1  0  0  0  0
  9 26  1  0  0  0  0
 10 11  1  0  0  0  0
 10 27  1  0  0  0  0
 10 28  1  0  0  0  0
 11 12  1  0  0  0  0
 11 29  1  0  0  0  0
 11 30  1  0  0  0  0
 12 13  1  0  0  0  0
 12 31  1  0  0  0  0
 12 32  1  0  0  0  0
 13 14  1  0  0  0  0
 13 15  1  0  0  0  0
 14 33  1  0  0  0  0
 14 34  1  0  0  0  0
 14 35  1  0  0  0  0
 15 36  1  0  0  0  0
 15 37  1  0  0  0  0
 15 38  1  0  0  0  0
 16 17  1  0  0  0  0
 16 18  2  0  0  0  0
 17 39  1  0  0  0  0
 17 40  1  0  0  0  0
 17 41  1  0  0  0  0
 18 19  1  0  0  0  0
 19 20  1  0  0  0  0
 20 42  1  0  0  0  0
 20 43  1  0  0  0  0
 20 44  1  0  0  0  0
M  END
> <s_m_source_file>
AV-unprocessed.smi

> <i_m_source_file_index>
2400

> <i_lp_mmshare_version>
43012

> <i_f3d_flags>
0

> <s_epik_input>
W0NIM11uMW5jKFtDSDNdKWMoYzFPW0NIM10pW05IXUMoPU8pW05IXVtDQEBIXShDMihbQ0gzXSlbQ0gzXSlbQ0gyXVtDSDJdW0NIMl0y

> <s_epik_cmdline>
J2VwaWtfcHl0aG9uJywgJy1waCcsICc3LjAnLCAnLXRuJywgJzgnLCAnLW1hJywgJzIwMCcsICctbWV0YWxfYmluZGluZycsICctaW1hZScsICc8aW5maWxlLm1hZT4nLCAnLW9tYWUnLCAnPG91dGZpbGUubWFlPic=

> <r_lp_tautomer_probability>
1

> <r_epik_Ionization_Penalty>
0.000423583

> <r_epik_Ionization_Penalty_Charging>
0

> <r_epik_Ionization_Penalty_Neutral>
0.000423583

> <r_epik_State_Penalty>
-0

> <r_epik_Charging_Adjusted_Penalty>
0

> <i_epik_Tot_Q>
0

> <i_epik_Tot_abs_Q>
0

> <r_epik_Metal_State_Penalty>
-0

> <b_epik_Metal_Only>
0

> <s_lp_Force_Field>
OPLS_2005

> <r_lp_Energy>
29.9284

> <b_lp_Chiralities_Consistent>
1

> <s_lp_Variant>
AV-unprocessed.smi:2400-2

> <Gold.Version>
5.8.1

> <Gold.Id.Protein>
6NUR|6NUR_protein|mol2

> <Gold.PLP.Fitness>
37.2311

> <Gold.PLP.PLP>
-30.0926

> <Gold.PLP.part.hbond>
-3.6545

> <Gold.PLP.part.metal>
0.0000

> <Gold.PLP.part.buried>
2.0480

> <Gold.PLP.part.nonpolar>
-28.6849

> <Gold.PLP.part.repulsive>
0.4483

> <Gold.PLP.ligand.clash>
0.0000

> <Gold.PLP.ligand.torsion>
0.0557

> <Gold.PLP.Chemscore.Hbond>
2.4158

> <Gold.PLP.Chemscore.CHOScore>
0.0000

> <Gold.PLP.Chemscore.Metal>
0.0000

> <Gold.Chemscore.Hbonds>
donor molecule, donor type, donor heavy atom, donor atom, acceptor molecule, acceptor atom, score
      L1  H     5    24       P1  7948  0.99
      L1  H     8    25       P1  7948  0.98
      P1  H  7989  7998       L1    18  0.35

> <Gold.PLP.Chemscore.Internal.Correction>
0.0026

> <Gold.Rescore>
     Score         DG    S(hbond)    S(metal)    S(lipo)     H(rot)  DE(clash)    DE(int)     intcor
     13.46     -16.31       1.91        0.00      64.66       1.21       0.23       2.63       ----

> <Gold.Chemscore.Fitness>
13.4562

> <Gold.Chemscore.DG>
-16.3107

> <Gold.Chemscore.ZeroCoef>
-5.4800

> <Gold.Chemscore.Hbond>
1.9066

> <Gold.Chemscore.Metal>
0.0000

> <Gold.Chemscore.Lipo>
64.6590

> <Gold.Chemscore.Internal_Hbond>
0.0000

> <Gold.Chemscore.DEClash>
0.2264

> <Gold.Chemscore.DEInternal>
2.6281

> <Gold.Chemscore.Rot>
1.2119

> <Gold.Chemscore.Internal.Correction>
   9.000000E+99

> <Gold.Chemscore.Hbonds>
donor molecule, donor type, donor heavy atom, donor atom, acceptor molecule, acceptor atom, score
      L1  H     5    24       P1  7948  0.91
      L1  H     8    25       P1  7948  0.90

> <Gold.Chemscore.Hbond.Weighted>
-6.3679

> <Gold.Chemscore.Metal.Weighted>
-0.0000

> <Gold.Chemscore.Lipo.Weighted>
-7.5651

> <Gold.Chemscore.Internal_Hbond.Weighted>
0.0000

> <Gold.Chemscore.DEClash.Weighted>
0.2264

> <Gold.Chemscore.DEInternal.Weighted>
2.6281

> <Gold.Chemscore.Rot.Weighted>
3.1024

> <Gold.Chemscore.Internal.Correction.Weighted>
   9.000000E+99

> <Gold.Protein.RotatedTorsions>
[ 6907 6896 6895 6894 ] final -152.72 input  -60.11 | X-H torsion
[ 7974 7965 7964 7962 ] final  117.73 input  175.53 | X-H torsion
[ 8008 7997 7996 7995 ] final  145.45 input   59.86 | X-H torsion
[ 10167 10162 10161 10158 ] final   69.44 input  -65.29 | X-H torsion
[ 10718 10713 10712 10709 ] final   57.59 input   66.30 | X-H torsion
[ 10763 10752 10751 10750 ] final -173.73 input  -60.55 | X-H torsion
[ 11005 11000 10999 10996 ] final -147.59 input  -57.11 | X-H torsion

> <Gold.Protein.ActiveResidues>
 VAL166  LYS551  ARG553  GLY616  TRP617  ASP618  TYR619  PRO620  LYS621  CYS622 
 ASP623  PHE694  ASN695  SER759  ASP760  ASP761  ALA762  ILE779  LEU786  VAL792 
 PHE793  MET794  SER795  GLU796  ALA797  LYS798  CYS799  TRP800  GLU811  SER814 

> <Gold.Protein.RotatedAtoms>
  151.2319  133.4446  159.2603 H   0  0  0  0  0  0  0  0  0  0  0  0  # atno 6907 bound_to 6896
  151.0786  134.9844  159.8355 H   0  0  0  0  0  0  0  0  0  0  0  0  # atno 6908 bound_to 6896
  152.5421  134.2260  159.8859 H   0  0  0  0  0  0  0  0  0  0  0  0  # atno 6909 bound_to 6896
  145.1638  139.3140  143.4503 H   0  0  0  0  0  0  0  0  0  0  0  0  # atno 7974 bound_to 7965
  156.2882  140.2208  156.5218 H   0  0  0  0  0  0  0  0  0  0  0  0  # atno 8008 bound_to 7997
  154.7522  140.0479  157.0925 H   0  0  0  0  0  0  0  0  0  0  0  0  # atno 8009 bound_to 7997
  155.0095  140.3111  155.4838 H   0  0  0  0  0  0  0  0  0  0  0  0  # atno 8010 bound_to 7997
  140.0677  144.5179  150.7249 H   0  0  0  0  0  0  0  0  0  0  0  0  # atno 10167 bound_to 10162
  157.5527  130.8777  149.8988 H   0  0  0  0  0  0  0  0  0  0  0  0  # atno 10718 bound_to 10713
  154.6044  135.2858  155.0500 H   0  0  0  0  0  0  0  0  0  0  0  0  # atno 10763 bound_to 10752
  154.1753  135.6466  153.5024 H   0  0  0  0  0  0  0  0  0  0  0  0  # atno 10764 bound_to 10752
  153.0170  135.5410  154.6775 H   0  0  0  0  0  0  0  0  0  0  0  0  # atno 10765 bound_to 10752
  140.7701  134.3199  157.5077 H   0  0  0  0  0  0  0  0  0  0  0  0  # atno 11005 bound_to 11000
  146.3478  140.1759  142.8589 LP  0  0  0  0  0  0  0  0  0  0  0  0  # atno 17320 bound_to 7965
  145.0303  140.8865  143.5113 LP  0  0  0  0  0  0  0  0  0  0  0  0  # atno 17321 bound_to 7965
  140.7141  143.2529  151.4491 LP  0  0  0  0  0  0  0  0  0  0  0  0  # atno 17342 bound_to 10162
  139.5855  144.1615  152.2023 LP  0  0  0  0  0  0  0  0  0  0  0  0  # atno 17343 bound_to 10162
  156.0591  130.3703  150.1023 LP  0  0  0  0  0  0  0  0  0  0  0  0  # atno 17370 bound_to 10713
  156.9194  130.9678  151.3551 LP  0  0  0  0  0  0  0  0  0  0  0  0  # atno 17371 bound_to 10713
  139.8757  134.9255  156.3377 LP  0  0  0  0  0  0  0  0  0  0  0  0  # atno 17394 bound_to 11000
  140.9582  133.7406  156.0365 LP  0  0  0  0  0  0  0  0  0  0  0  0  # atno 17395 bound_to 11000

$$$$
