AV-unprocessed.smi:1047|AV-procd|sdf|4591|dock2
  -GOLD-   22720 3 73D 1   1.00000     0.00000
 Structure written by MMmdl.
 57 59  0  0  0  0  0  0  0  0  3 V2000
  145.5760  144.3539  161.5227 C   0  0  0  0  0  0  0  0  0  0  0  0
  145.6397  143.2317  160.4765 C   0  0  0  0  0  0  0  0  0  0  0  0
  145.8737  143.6798  159.1047 N   0  0  0  0  0  0  0  0  0  0  0  0
  144.6661  144.2652  158.5330 C   0  0  0  0  0  0  0  0  0  0  0  0
  144.8870  144.7396  157.0869 C   0  0  0  0  0  0  0  0  0  0  0  0
  145.3536  143.6513  156.2961 O   0  0  0  0  0  0  0  0  0  0  0  0
  146.5665  143.0855  156.7875 C   0  0  2  0  0  0  0  0  0  0  0  0
  146.9715  141.9355  155.8556 C   0  0  0  0  0  0  0  0  0  0  0  0
  147.7767  142.4284  154.7208 N   0  3  0  0  0  0  0  0  0  0  0  0
  148.5385  141.3748  154.0202 C   0  0  0  0  0  0  0  0  0  0  0  0
  149.5281  140.6749  154.9668 C   0  0  1  0  0  0  0  0  0  0  0  0
  150.3618  139.8208  154.2071 O   0  0  0  0  0  0  0  0  0  0  0  0
  150.3933  141.6848  155.7471 C   0  0  0  0  0  0  0  0  0  0  0  0
  151.1534  141.0594  156.8395 N   0  0  0  0  0  0  0  0  0  0  0  0
  151.5935  139.7776  156.9648 C   0  0  0  0  0  0  0  0  0  0  0  0
  152.2511  139.6820  158.1529 N   0  3  0  0  0  0  0  0  0  0  0  0
  152.2309  140.9201  158.7978 C   0  0  0  0  0  0  0  0  0  0  0  0
  152.7632  141.3171  160.0185 C   0  0  0  0  0  0  0  0  0  0  0  0
  152.5713  142.6645  160.3983 C   0  0  0  0  0  0  0  0  0  0  0  0
  153.1415  143.1317  161.7268 C   0  0  0  0  0  0  0  0  0  0  0  0
  151.8630  143.5645  159.5611 C   0  0  0  0  0  0  0  0  0  0  0  0
  151.6626  145.0112  159.9801 C   0  0  0  0  0  0  0  0  0  0  0  0
  151.3294  143.1414  158.3225 C   0  0  0  0  0  0  0  0  0  0  0  0
  151.5268  141.8098  157.9623 C   0  0  0  0  0  0  0  0  0  0  0  0
  146.3363  142.6021  158.2338 C   0  0  0  0  0  0  0  0  0  0  0  0
  145.2918  143.9534  162.4959 H   0  0  0  0  0  0  0  0  0  0  0  0
  144.8370  145.1069  161.2473 H   0  0  0  0  0  0  0  0  0  0  0  0
  146.5373  144.8518  161.6476 H   0  0  0  0  0  0  0  0  0  0  0  0
  146.4017  142.5066  160.7658 H   0  0  0  0  0  0  0  0  0  0  0  0
  144.6893  142.6975  160.5137 H   0  0  0  0  0  0  0  0  0  0  0  0
  143.8557  143.5346  158.5518 H   0  0  0  0  0  0  0  0  0  0  0  0
  144.3392  145.1086  159.1422 H   0  0  0  0  0  0  0  0  0  0  0  0
  143.9551  145.1148  156.6636 H   0  0  0  0  0  0  0  0  0  0  0  0
  145.6069  145.5589  157.0536 H   0  0  0  0  0  0  0  0  0  0  0  0
  147.3490  143.8467  156.7831 H   0  0  0  0  0  0  0  0  0  0  0  0
  147.5617  141.2035  156.4084 H   0  0  0  0  0  0  0  0  0  0  0  0
  146.0846  141.4203  155.4838 H   0  0  0  0  0  0  0  0  0  0  0  0
  147.1557  142.8719  154.0589 H   0  0  0  0  0  0  0  0  0  0  0  0
  147.8525  140.6501  153.5788 H   0  0  0  0  0  0  0  0  0  0  0  0
  149.0840  141.8390  153.1975 H   0  0  0  0  0  0  0  0  0  0  0  0
  148.9737  140.0628  155.6798 H   0  0  0  0  0  0  0  0  0  0  0  0
  150.7913  139.2156  154.7922 H   0  0  0  0  0  0  0  0  0  0  0  0
  151.0770  142.2183  155.0865 H   0  0  0  0  0  0  0  0  0  0  0  0
  149.7554  142.4447  156.2002 H   0  0  0  0  0  0  0  0  0  0  0  0
  151.4485  138.9795  156.2508 H   0  0  0  0  0  0  0  0  0  0  0  0
  153.3017  140.6262  160.6508 H   0  0  0  0  0  0  0  0  0  0  0  0
  152.3428  143.4679  162.3885 H   0  0  0  0  0  0  0  0  0  0  0  0
  153.8385  143.9565  161.5767 H   0  0  0  0  0  0  0  0  0  0  0  0
  153.6796  142.3305  162.2342 H   0  0  0  0  0  0  0  0  0  0  0  0
  151.0794  145.5642  159.2434 H   0  0  0  0  0  0  0  0  0  0  0  0
  152.6237  145.5143  160.0896 H   0  0  0  0  0  0  0  0  0  0  0  0
  151.1326  145.0648  160.9314 H   0  0  0  0  0  0  0  0  0  0  0  0
  150.7937  143.8308  157.6877 H   0  0  0  0  0  0  0  0  0  0  0  0
  147.2693  142.1872  158.6146 H   0  0  0  0  0  0  0  0  0  0  0  0
  145.6086  141.7886  158.2358 H   0  0  0  0  0  0  0  0  0  0  0  0
  148.4281  143.1209  155.0624 H   0  0  0  0  0  0  0  0  0  0  0  0
  152.6815  138.8330  158.4966 H   0  0  0  0  0  0  0  0  0  0  0  0
  1  2  1  0  0  0  0
  1 26  1  0  0  0  0
  1 27  1  0  0  0  0
  1 28  1  0  0  0  0
  2  3  1  0  0  0  0
  2 29  1  0  0  0  0
  2 30  1  0  0  0  0
  3 25  1  0  0  0  0
  3  4  1  0  0  0  0
  4  5  1  0  0  0  0
  4 31  1  0  0  0  0
  4 32  1  0  0  0  0
  5  6  1  0  0  0  0
  5 33  1  0  0  0  0
  5 34  1  0  0  0  0
  6  7  1  0  0  0  0
  7  8  1  0  0  0  0
  7 25  1  0  0  0  0
  7 35  1  0  0  0  0
  8  9  1  0  0  0  0
  8 36  1  0  0  0  0
  8 37  1  0  0  0  0
  9 10  1  0  0  0  0
  9 38  1  0  0  0  0
  9 56  1  0  0  0  0
 10 11  1  0  0  0  0
 10 39  1  0  0  0  0
 10 40  1  0  0  0  0
 11 12  1  0  0  0  0
 11 13  1  0  0  0  0
 11 41  1  0  0  0  0
 12 42  1  0  0  0  0
 13 14  1  0  0  0  0
 13 43  1  0  0  0  0
 13 44  1  0  0  0  0
 14 24  1  0  0  0  0
 14 15  1  0  0  0  0
 15 16  2  0  0  0  0
 15 45  1  0  0  0  0
 16 17  1  0  0  0  0
 16 57  1  0  0  0  0
 17 24  2  0  0  0  0
 17 18  1  0  0  0  0
 18 19  2  0  0  0  0
 18 46  1  0  0  0  0
 19 20  1  0  0  0  0
 19 21  1  0  0  0  0
 20 47  1  0  0  0  0
 20 48  1  0  0  0  0
 20 49  1  0  0  0  0
 21 22  1  0  0  0  0
 21 23  2  0  0  0  0
 22 50  1  0  0  0  0
 22 51  1  0  0  0  0
 22 52  1  0  0  0  0
 23 24  1  0  0  0  0
 23 53  1  0  0  0  0
 25 54  1  0  0  0  0
 25 55  1  0  0  0  0
M  CHG  1   9   1
M  CHG  1  16   1
M  END
> <s_m_source_file>
AV-unprocessed.smi

> <i_m_source_file_index>
1047

> <i_lp_mmshare_version>
43012

> <i_f3d_flags>
0

> <s_epik_input>
W0NIM11bQ0gyXU4xW0NIMl1bQ0gyXU9bQ0BIXShbQ0gyXTEpW0NIMl1bTkhdW0NIMl1bQ0BIXShbT0hdKVtDSDJdbihbY0hdbjIpYyhjMjMpW2NIXWMoW0NIM10pYyhbY0hdMylbQ0gzXQ==

> <s_epik_cmdline>
J2VwaWtfcHl0aG9uJywgJy1waCcsICc3LjAnLCAnLXRuJywgJzgnLCAnLW1hJywgJzIwMCcsICctbWV0YWxfYmluZGluZycsICctaW1hZScsICc8aW5maWxlLm1hZT4nLCAnLW9tYWUnLCAnPG91dGZpbGUubWFlPic=

> <r_epik_Ionization_Penalty>
1.75732

> <r_epik_Ionization_Penalty_Charging>
1.18089

> <r_epik_Ionization_Penalty_Neutral>
0.576429

> <r_epik_State_Penalty>
1.69377

> <r_epik_Charging_Adjusted_Penalty>
2.87466

> <i_epik_Tot_Q>
2

> <i_epik_Tot_abs_Q>
2

> <r_epik_Metal_State_Penalty>
5.70174

> <b_epik_Metal_Only>
0

> <s_lp_Force_Field>
OPLS_2005

> <r_lp_Energy>
38.6305

> <b_lp_Chiralities_Consistent>
1

> <s_lp_Variant>
AV-unprocessed.smi:1047-32

> <Gold.Version>
5.8.1

> <Gold.Id.Protein>
6NUR|6NUR_protein|mol2

> <Gold.PLP.Fitness>
56.6424

> <Gold.PLP.PLP>
-49.4400

> <Gold.PLP.part.hbond>
-2.6292

> <Gold.PLP.part.metal>
0.0000

> <Gold.PLP.part.buried>
-7.5932

> <Gold.PLP.part.nonpolar>
-38.5903

> <Gold.PLP.part.repulsive>
0.4192

> <Gold.PLP.ligand.clash>
0.0000

> <Gold.PLP.ligand.torsion>
0.9892

> <Gold.PLP.Chemscore.Hbond>
3.0000

> <Gold.PLP.Chemscore.CHOScore>
0.0000

> <Gold.PLP.Chemscore.Metal>
0.0000

> <Gold.Chemscore.Hbonds>
donor molecule, donor type, donor heavy atom, donor atom, acceptor molecule, acceptor atom, score
      L1  H     9    56       P1  8028  2.00
      P1  H  7989  7998       L1    12  1.00

> <Gold.PLP.Chemscore.Internal.Correction>
0.1809

> <Gold.Rescore>
     Score         DG    S(hbond)    S(metal)    S(lipo)     H(rot)  DE(clash)    DE(int)     intcor
     15.42     -16.91       1.25        0.00     120.99       2.69       0.05       1.44       ----

> <Gold.Chemscore.Fitness>
15.4203

> <Gold.Chemscore.DG>
-16.9112

> <Gold.Chemscore.ZeroCoef>
-5.4800

> <Gold.Chemscore.Hbond>
1.2474

> <Gold.Chemscore.Metal>
0.0000

> <Gold.Chemscore.Lipo>
120.9882

> <Gold.Chemscore.Internal_Hbond>
0.0000

> <Gold.Chemscore.DEClash>
0.0501

> <Gold.Chemscore.DEInternal>
1.4407

> <Gold.Chemscore.Rot>
2.6917

> <Gold.Chemscore.Internal.Correction>
   9.000000E+99

> <Gold.Chemscore.Hbonds>
donor molecule, donor type, donor heavy atom, donor atom, acceptor molecule, acceptor atom, score
      L1  H     9    56       P1  8028  0.97
      P1  H  7989  7998       L1    12  0.36

> <Gold.Chemscore.Hbond.Weighted>
-4.1663

> <Gold.Chemscore.Metal.Weighted>
-0.0000

> <Gold.Chemscore.Lipo.Weighted>
-14.1556

> <Gold.Chemscore.Internal_Hbond.Weighted>
0.0000

> <Gold.Chemscore.DEClash.Weighted>
0.0501

> <Gold.Chemscore.DEInternal.Weighted>
1.4407

> <Gold.Chemscore.Rot.Weighted>
6.8907

> <Gold.Chemscore.Internal.Correction.Weighted>
   9.000000E+99

> <Gold.Protein.RotatedTorsions>
[ 6907 6896 6895 6894 ] final   97.11 input  -60.11 | X-H torsion
[ 7974 7965 7964 7962 ] final   25.60 input  175.53 | X-H torsion
[ 8008 7997 7996 7995 ] final  -79.78 input   59.86 | X-H torsion
[ 10167 10162 10161 10158 ] final  -15.67 input  -65.29 | X-H torsion
[ 10718 10713 10712 10709 ] final   60.78 input   66.30 | X-H torsion
[ 10763 10752 10751 10750 ] final -125.07 input  -60.55 | X-H torsion
[ 11005 11000 10999 10996 ] final -178.44 input  -57.11 | X-H torsion

> <Gold.Protein.ActiveResidues>
 VAL166  LYS551  ARG553  GLY616  TRP617  ASP618  TYR619  PRO620  LYS621  CYS622 
 ASP623  PHE694  ASN695  SER759  ASP760  ASP761  ALA762  ILE779  LEU786  VAL792 
 PHE793  MET794  SER795  GLU796  ALA797  LYS798  CYS799  TRP800  GLU811  SER814 

> <Gold.Protein.RotatedAtoms>
  152.5427  134.0784  159.8224 H   0  0  0  0  0  0  0  0  0  0  0  0  # atno 6907 bound_to 6896
  151.0889  133.5324  159.2623 H   0  0  0  0  0  0  0  0  0  0  0  0  # atno 6908 bound_to 6896
  151.2123  135.0495  159.8970 H   0  0  0  0  0  0  0  0  0  0  0  0  # atno 6909 bound_to 6896
  146.1880  139.7444  142.8852 H   0  0  0  0  0  0  0  0  0  0  0  0  # atno 7974 bound_to 7965
  154.5819  140.0673  156.9116 H   0  0  0  0  0  0  0  0  0  0  0  0  # atno 8008 bound_to 7997
  155.2448  140.3347  155.4270 H   0  0  0  0  0  0  0  0  0  0  0  0  # atno 8009 bound_to 7997
  156.2195  140.1792  156.7495 H   0  0  0  0  0  0  0  0  0  0  0  0  # atno 8010 bound_to 7997
  140.7222  143.5195  150.9651 H   0  0  0  0  0  0  0  0  0  0  0  0  # atno 10167 bound_to 10162
  157.5779  130.8958  149.9378 H   0  0  0  0  0  0  0  0  0  0  0  0  # atno 10718 bound_to 10713
  154.8731  135.4042  154.3209 H   0  0  0  0  0  0  0  0  0  0  0  0  # atno 10763 bound_to 10752
  153.4037  135.7019  153.6413 H   0  0  0  0  0  0  0  0  0  0  0  0  # atno 10764 bound_to 10752
  153.5145  135.3700  155.2573 H   0  0  0  0  0  0  0  0  0  0  0  0  # atno 10765 bound_to 10752
  140.4298  134.6529  157.4706 H   0  0  0  0  0  0  0  0  0  0  0  0  # atno 11005 bound_to 11000
  145.3879  141.0368  143.3141 LP  0  0  0  0  0  0  0  0  0  0  0  0  # atno 17320 bound_to 7965
  144.8434  139.5436  143.6890 LP  0  0  0  0  0  0  0  0  0  0  0  0  # atno 17321 bound_to 7965
  139.8911  143.6951  152.3145 LP  0  0  0  0  0  0  0  0  0  0  0  0  # atno 17342 bound_to 10162
  139.7268  144.7591  151.0866 LP  0  0  0  0  0  0  0  0  0  0  0  0  # atno 17343 bound_to 10162
  156.0824  130.3671  150.0555 LP  0  0  0  0  0  0  0  0  0  0  0  0  # atno 17370 bound_to 10713
  156.8698  130.9520  151.3610 LP  0  0  0  0  0  0  0  0  0  0  0  0  # atno 17371 bound_to 10713
  140.0142  134.6644  155.9334 LP  0  0  0  0  0  0  0  0  0  0  0  0  # atno 17394 bound_to 11000
  141.1750  133.6539  156.4795 LP  0  0  0  0  0  0  0  0  0  0  0  0  # atno 17395 bound_to 11000

$$$$
