AV-unprocessed.smi:1231|AV-procd|sdf|5161|dock3
  -GOLD-   22720 4233D 1   1.00000     0.00000
 Structure written by MMmdl.
 42 43  0  0  0  0  0  0  0  0  1 V2000
  151.6236  144.2234  157.9852 C   0  0  0  0  0  0  0  0  0  0  0  0
  151.1798  142.7577  157.9389 C   0  0  1  0  0  0  0  0  0  0  0  0
  150.8695  142.2884  156.5044 C   0  0  0  0  0  0  0  0  0  0  0  0
  150.5254  140.8695  156.4554 N   0  0  0  0  0  0  0  0  0  0  0  0
  150.2511  140.4039  155.0973 C   0  0  0  0  0  0  0  0  0  0  0  0
  148.9746  140.9817  154.4577 C   0  0  0  0  0  0  0  0  0  0  0  0
  148.5624  140.2002  153.2981 N   0  0  0  0  0  0  0  0  0  0  0  0
  147.5130  139.3661  153.2666 C   0  0  0  0  0  0  0  0  0  0  0  0
  146.7730  139.1706  154.2314 O   0  0  0  0  0  0  0  0  0  0  0  0
  147.3891  138.7854  152.0600 N   0  0  0  0  0  0  0  0  0  0  0  0
  146.4115  137.8473  151.6336 C   0  0  0  0  0  0  0  0  0  0  0  0
  145.7699  137.1368  152.6733 C   0  0  0  0  0  0  0  0  0  0  0  0
  144.7847  136.1820  152.3548 C   0  0  0  0  0  0  0  0  0  0  0  0
  144.4654  135.9626  151.0030 C   0  0  0  0  0  0  0  0  0  0  0  0
  145.1502  136.7133  150.0296 C   0  0  0  0  0  0  0  0  0  0  0  0
  146.0951  137.6281  150.3327 N   0  0  0  0  0  0  0  0  0  0  0  0
  151.6073  140.1005  157.0602 C   0  0  0  0  0  0  0  0  0  0  0  0
  151.9144  140.5646  158.4967 C   0  0  1  0  0  0  0  0  0  0  0  0
  153.1003  139.8116  159.1086 C   0  0  0  0  0  0  0  0  0  0  0  0
  152.2264  141.9547  158.4777 O   0  0  0  0  0  0  0  0  0  0  0  0
  150.8455  144.8816  157.5978 H   0  0  0  0  0  0  0  0  0  0  0  0
  152.5237  144.3820  157.3907 H   0  0  0  0  0  0  0  0  0  0  0  0
  151.8408  144.5317  159.0081 H   0  0  0  0  0  0  0  0  0  0  0  0
  150.2905  142.6416  158.5609 H   0  0  0  0  0  0  0  0  0  0  0  0
  150.0493  142.8893  156.1132 H   0  0  0  0  0  0  0  0  0  0  0  0
  151.7320  142.4805  155.8641 H   0  0  0  0  0  0  0  0  0  0  0  0
  151.1088  140.6133  154.4560 H   0  0  0  0  0  0  0  0  0  0  0  0
  150.1524  139.3177  155.1175 H   0  0  0  0  0  0  0  0  0  0  0  0
  148.1656  141.0232  155.1888 H   0  0  0  0  0  0  0  0  0  0  0  0
  149.1397  142.0027  154.1156 H   0  0  0  0  0  0  0  0  0  0  0  0
  149.1172  140.3018  152.4610 H   0  0  0  0  0  0  0  0  0  0  0  0
  148.0740  139.0439  151.3653 H   0  0  0  0  0  0  0  0  0  0  0  0
  146.0271  137.3181  153.7070 H   0  0  0  0  0  0  0  0  0  0  0  0
  144.2832  135.6283  153.1348 H   0  0  0  0  0  0  0  0  0  0  0  0
  143.7158  135.2391  150.7190 H   0  0  0  0  0  0  0  0  0  0  0  0
  144.9345  136.5763  148.9802 H   0  0  0  0  0  0  0  0  0  0  0  0
  151.3434  139.0423  157.0736 H   0  0  0  0  0  0  0  0  0  0  0  0
  152.5077  140.1886  156.4498 H   0  0  0  0  0  0  0  0  0  0  0  0
  151.0374  140.4074  159.1269 H   0  0  0  0  0  0  0  0  0  0  0  0
  152.9033  138.7402  159.1531 H   0  0  0  0  0  0  0  0  0  0  0  0
  153.2973  140.1554  160.1242 H   0  0  0  0  0  0  0  0  0  0  0  0
  154.0083  139.9619  158.5237 H   0  0  0  0  0  0  0  0  0  0  0  0
  1  2  1  0  0  0  0
  1 21  1  0  0  0  0
  1 22  1  0  0  0  0
  1 23  1  0  0  0  0
  2 20  1  0  0  0  0
  2  3  1  0  0  0  0
  2 24  1  0  0  0  0
  3  4  1  0  0  0  0
  3 25  1  0  0  0  0
  3 26  1  0  0  0  0
  4  5  1  0  0  0  0
  4 17  1  0  0  0  0
  5  6  1  0  0  0  0
  5 27  1  0  0  0  0
  5 28  1  0  0  0  0
  6  7  1  0  0  0  0
  6 29  1  0  0  0  0
  6 30  1  0  0  0  0
  7  8  1  0  0  0  0
  7 31  1  0  0  0  0
  8  9  2  0  0  0  0
  8 10  1  0  0  0  0
 10 11  1  0  0  0  0
 10 32  1  0  0  0  0
 11 16  1  0  0  0  0
 11 12  2  0  0  0  0
 12 13  1  0  0  0  0
 12 33  1  0  0  0  0
 13 14  2  0  0  0  0
 13 34  1  0  0  0  0
 14 15  1  0  0  0  0
 14 35  1  0  0  0  0
 15 16  2  0  0  0  0
 15 36  1  0  0  0  0
 17 18  1  0  0  0  0
 17 37  1  0  0  0  0
 17 38  1  0  0  0  0
 18 19  1  0  0  0  0
 18 20  1  0  0  0  0
 18 39  1  0  0  0  0
 19 40  1  0  0  0  0
 19 41  1  0  0  0  0
 19 42  1  0  0  0  0
M  END
> <s_m_source_file>
AV-unprocessed.smi

> <i_m_source_file_index>
1231

> <i_lp_mmshare_version>
43012

> <i_f3d_flags>
0

> <s_epik_input>
W0NIM11bQ0BASF0xW0NIMl1OKFtDSDJdW0NASF0oTzEpW0NIM10pW0NIMl1bQ0gyXVtOSF1DKD1PKVtOSF1jMltjSF1bY0hdW2NIXVtjSF1uMg==

> <s_epik_cmdline>
J2VwaWtfcHl0aG9uJywgJy1waCcsICc3LjAnLCAnLXRuJywgJzgnLCAnLW1hJywgJzIwMCcsICctbWV0YWxfYmluZGluZycsICctaW1hZScsICc8aW5maWxlLm1hZT4nLCAnLW9tYWUnLCAnPG91dGZpbGUubWFlPic=

> <r_epik_Ionization_Penalty>
0.266037

> <r_epik_Ionization_Penalty_Charging>
0

> <r_epik_Ionization_Penalty_Neutral>
0.266037

> <r_epik_State_Penalty>
0.257924

> <r_epik_Charging_Adjusted_Penalty>
0.257924

> <i_epik_Tot_Q>
0

> <i_epik_Tot_abs_Q>
0

> <r_epik_Metal_State_Penalty>
0.257923

> <b_epik_Metal_Only>
0

> <s_lp_Force_Field>
OPLS_2005

> <r_lp_Energy>
20.5827

> <b_lp_Chiralities_Consistent>
1

> <s_lp_Variant>
AV-unprocessed.smi:1231-2

> <Gold.Version>
5.8.1

> <Gold.Id.Protein>
6NUR|6NUR_protein|mol2

> <Gold.PLP.Fitness>
43.1013

> <Gold.PLP.PLP>
-31.7898

> <Gold.PLP.part.hbond>
-4.0000

> <Gold.PLP.part.metal>
0.0000

> <Gold.PLP.part.buried>
0.9765

> <Gold.PLP.part.nonpolar>
-32.0823

> <Gold.PLP.part.repulsive>
2.8006

> <Gold.PLP.ligand.clash>
0.0000

> <Gold.PLP.ligand.torsion>
0.2865

> <Gold.PLP.Chemscore.Hbond>
2.9440

> <Gold.PLP.Chemscore.CHOScore>
1.0039

> <Gold.PLP.Chemscore.Metal>
0.0000

> <Gold.Chemscore.Hbonds>
donor molecule, donor type, donor heavy atom, donor atom, acceptor molecule, acceptor atom, score
      L1  H     7    31       P1  7957  0.70
      L1  H    10    32       P1  7957  0.86
      P1  H  7954  7966       L1    16  0.24
      L1  C    15    36       P1  7921  0.83

> <Gold.PLP.Chemscore.Internal.Correction>
0.0408

> <Gold.Rescore>
     Score         DG    S(hbond)    S(metal)    S(lipo)     H(rot)  DE(clash)    DE(int)     intcor
     16.34     -21.04       2.75        0.00      87.72       1.52       2.98       1.72       ----

> <Gold.Chemscore.Fitness>
16.3355

> <Gold.Chemscore.DG>
-21.0390

> <Gold.Chemscore.ZeroCoef>
-5.4800

> <Gold.Chemscore.Hbond>
2.7478

> <Gold.Chemscore.Metal>
0.0000

> <Gold.Chemscore.Lipo>
87.7165

> <Gold.Chemscore.Internal_Hbond>
0.0000

> <Gold.Chemscore.DEClash>
2.9842

> <Gold.Chemscore.DEInternal>
1.7193

> <Gold.Chemscore.Rot>
1.5162

> <Gold.Chemscore.Internal.Correction>
   9.000000E+99

> <Gold.Chemscore.Hbonds>
donor molecule, donor type, donor heavy atom, donor atom, acceptor molecule, acceptor atom, score
      L1  H     7    31       P1  7957  0.70
      L1  H    10    32       P1  7957  0.59
      P1  H  7954  7966       L1    16  0.01

> <Gold.Chemscore.Hbond.Weighted>
-9.1777

> <Gold.Chemscore.Metal.Weighted>
-0.0000

> <Gold.Chemscore.Lipo.Weighted>
-10.2628

> <Gold.Chemscore.Internal_Hbond.Weighted>
0.0000

> <Gold.Chemscore.DEClash.Weighted>
2.9842

> <Gold.Chemscore.DEInternal.Weighted>
1.7193

> <Gold.Chemscore.Rot.Weighted>
3.8814

> <Gold.Chemscore.Internal.Correction.Weighted>
   9.000000E+99

> <Gold.Protein.RotatedTorsions>
[ 6907 6896 6895 6894 ] final  -58.88 input  -60.11 | X-H torsion
[ 7974 7965 7964 7962 ] final  -49.13 input  175.53 | X-H torsion
[ 8008 7997 7996 7995 ] final  -77.48 input   59.86 | X-H torsion
[ 10167 10162 10161 10158 ] final -119.15 input  -65.29 | X-H torsion
[ 10718 10713 10712 10709 ] final  -47.89 input   66.30 | X-H torsion
[ 10763 10752 10751 10750 ] final   50.78 input  -60.55 | X-H torsion
[ 11005 11000 10999 10996 ] final -100.61 input  -57.11 | X-H torsion

> <Gold.Protein.ActiveResidues>
 VAL166  LYS551  ARG553  GLY616  TRP617  ASP618  TYR619  PRO620  LYS621  CYS622 
 ASP623  PHE694  ASN695  SER759  ASP760  ASP761  ALA762  ILE779  LEU786  VAL792 
 PHE793  MET794  SER795  GLU796  ALA797  LYS798  CYS799  TRP800  GLU811  SER814 

> <Gold.Protein.RotatedAtoms>
  150.7973  134.7041  159.6566 H   0  0  0  0  0  0  0  0  0  0  0  0  # atno 6907 bound_to 6896
  152.4086  134.6160  160.0048 H   0  0  0  0  0  0  0  0  0  0  0  0  # atno 6908 bound_to 6896
  151.6410  133.3289  159.3166 H   0  0  0  0  0  0  0  0  0  0  0  0  # atno 6909 bound_to 6896
  145.9439  140.7636  142.9538 H   0  0  0  0  0  0  0  0  0  0  0  0  # atno 7974 bound_to 7965
  154.5600  140.0710  156.8804 H   0  0  0  0  0  0  0  0  0  0  0  0  # atno 8008 bound_to 7997
  155.2829  140.3373  155.4239 H   0  0  0  0  0  0  0  0  0  0  0  0  # atno 8009 bound_to 7997
  156.2034  140.1730  156.7837 H   0  0  0  0  0  0  0  0  0  0  0  0  # atno 8010 bound_to 7997
  140.0498  143.5071  152.2088 H   0  0  0  0  0  0  0  0  0  0  0  0  # atno 10167 bound_to 10162
  156.2040  130.4157  149.9202 H   0  0  0  0  0  0  0  0  0  0  0  0  # atno 10718 bound_to 10713
  152.9784  135.5867  154.4308 H   0  0  0  0  0  0  0  0  0  0  0  0  # atno 10763 bound_to 10752
  154.3921  135.2768  155.2150 H   0  0  0  0  0  0  0  0  0  0  0  0  # atno 10764 bound_to 10752
  154.4017  135.6102  153.5955 H   0  0  0  0  0  0  0  0  0  0  0  0  # atno 10765 bound_to 10752
  141.1264  133.8413  157.1125 H   0  0  0  0  0  0  0  0  0  0  0  0  # atno 11005 bound_to 11000
  144.6784  140.2324  143.7353 LP  0  0  0  0  0  0  0  0  0  0  0  0  # atno 17320 bound_to 7965
  145.8263  139.2066  143.1909 LP  0  0  0  0  0  0  0  0  0  0  0  0  # atno 17321 bound_to 7965
  139.5960  144.7567  151.3285 LP  0  0  0  0  0  0  0  0  0  0  0  0  # atno 17342 bound_to 10162
  140.7222  143.7104  150.7774 LP  0  0  0  0  0  0  0  0  0  0  0  0  # atno 17343 bound_to 10162
  156.6902  130.8893  151.3587 LP  0  0  0  0  0  0  0  0  0  0  0  0  # atno 17370 bound_to 10713
  157.7002  130.9325  150.0762 LP  0  0  0  0  0  0  0  0  0  0  0  0  # atno 17371 bound_to 10713
  140.0266  134.9921  157.0698 LP  0  0  0  0  0  0  0  0  0  0  0  0  # atno 17394 bound_to 11000
  140.4353  134.1738  155.7170 LP  0  0  0  0  0  0  0  0  0  0  0  0  # atno 17395 bound_to 11000

$$$$
