AV-unprocessed.smi:688|AV-procd|sdf|3356|dock9
  -GOLD-   22720 0333D 1   1.00000     0.00000
 Structure written by MMmdl.
 35 36  0  0  0  0  0  0  0  0  2 V2000
  150.2677  134.5265  154.6599 O   0  0  0  0  0  0  0  0  0  0  0  0
  150.4024  135.7439  154.7768 C   0  0  0  0  0  0  0  0  0  0  0  0
  151.5950  136.3760  154.5714 N   0  5  0  0  0  0  0  0  0  0  0  0
  151.7625  137.7294  154.6900 C   0  0  0  0  0  0  0  0  0  0  0  0
  152.8505  138.2765  154.5077 O   0  0  0  0  0  0  0  0  0  0  0  0
  150.6841  138.4991  155.0235 N   0  0  0  0  0  0  0  0  0  0  0  0
  150.7698  139.9594  155.1675 C   0  0  0  0  0  0  0  0  0  0  0  0
  149.4191  140.6491  154.8734 C   0  0  2  0  0  0  0  0  0  0  0  0
  149.4740  141.1597  153.5554 O   0  0  0  0  0  0  0  0  0  0  0  0
  149.1670  141.8411  155.8123 C   0  0  0  0  0  0  0  0  0  0  0  0
  149.9426  141.6748  156.9882 O   0  0  0  0  0  0  0  0  0  0  0  0
  150.9965  142.6174  157.0964 C   0  0  0  0  0  0  0  0  0  0  0  0
  151.5938  142.6320  158.4904 C   0  0  0  0  0  0  0  0  0  0  0  0
  151.5269  143.8026  159.2754 C   0  0  0  0  0  0  0  0  0  0  0  0
  152.0929  143.8245  160.5651 C   0  0  0  0  0  0  0  0  0  0  0  0
  152.7323  142.6771  161.0735 C   0  0  0  0  0  0  0  0  0  0  0  0
  153.4243  142.7030  162.6538 Cl  0  0  0  0  0  0  0  0  0  0  0  0
  152.8083  141.5092  160.2895 C   0  0  0  0  0  0  0  0  0  0  0  0
  152.2432  141.4874  158.9993 C   0  0  0  0  0  0  0  0  0  0  0  0
  149.4368  137.8966  155.2573 C   0  0  0  0  0  0  0  0  0  0  0  0
  149.2534  136.5663  155.1499 C   0  0  0  0  0  0  0  0  0  0  0  0
  147.7080  135.8526  155.4460 Cl  0  0  0  0  0  0  0  0  0  0  0  0
  151.0909  140.1871  156.1854 H   0  0  0  0  0  0  0  0  0  0  0  0
  151.5599  140.3713  154.5373 H   0  0  0  0  0  0  0  0  0  0  0  0
  148.5980  139.9367  154.9647 H   0  0  0  0  0  0  0  0  0  0  0  0
  149.3231  140.4482  152.9525 H   0  0  0  0  0  0  0  0  0  0  0  0
  149.4831  142.7655  155.3265 H   0  0  0  0  0  0  0  0  0  0  0  0
  148.1060  141.9456  156.0469 H   0  0  0  0  0  0  0  0  0  0  0  0
  151.7727  142.3848  156.3653 H   0  0  0  0  0  0  0  0  0  0  0  0
  150.6276  143.6193  156.8713 H   0  0  0  0  0  0  0  0  0  0  0  0
  151.0397  144.6865  158.8907 H   0  0  0  0  0  0  0  0  0  0  0  0
  152.0358  144.7227  161.1624 H   0  0  0  0  0  0  0  0  0  0  0  0
  153.3004  140.6287  160.6758 H   0  0  0  0  0  0  0  0  0  0  0  0
  152.3079  140.5882  158.4042 H   0  0  0  0  0  0  0  0  0  0  0  0
  148.6452  138.5784  155.5326 H   0  0  0  0  0  0  0  0  0  0  0  0
  1  2  2  0  0  0  0
  2 21  1  0  0  0  0
  2  3  1  0  0  0  0
  3  4  1  0  0  0  0
  4  5  2  0  0  0  0
  4  6  1  0  0  0  0
  6  7  1  0  0  0  0
  6 20  1  0  0  0  0
  7  8  1  0  0  0  0
  7 23  1  0  0  0  0
  7 24  1  0  0  0  0
  8  9  1  0  0  0  0
  8 10  1  0  0  0  0
  8 25  1  0  0  0  0
  9 26  1  0  0  0  0
 10 11  1  0  0  0  0
 10 27  1  0  0  0  0
 10 28  1  0  0  0  0
 11 12  1  0  0  0  0
 12 13  1  0  0  0  0
 12 29  1  0  0  0  0
 12 30  1  0  0  0  0
 13 19  1  0  0  0  0
 13 14  2  0  0  0  0
 14 15  1  0  0  0  0
 14 31  1  0  0  0  0
 15 16  2  0  0  0  0
 15 32  1  0  0  0  0
 16 17  1  0  0  0  0
 16 18  1  0  0  0  0
 18 19  2  0  0  0  0
 18 33  1  0  0  0  0
 19 34  1  0  0  0  0
 20 21  2  0  0  0  0
 20 35  1  0  0  0  0
 21 22  1  0  0  0  0
M  CHG  1   3  -1
M  END
> <s_m_source_file>
AV-unprocessed.smi

> <i_m_source_file_index>
688

> <i_lp_mmshare_version>
43012

> <i_f3d_flags>
0

> <s_epik_input>
Tz1jMVtuSF1jKD1PKW4oW2NIXWMxQ2wpW0NIMl1bQ0BIXShbT0hdKVtDSDJdT1tDSDJdYzJbY0hdW2NIXWMoQ2wpW2NIXVtjSF0y

> <s_epik_cmdline>
J2VwaWtfcHl0aG9uJywgJy1waCcsICc3LjAnLCAnLXRuJywgJzgnLCAnLW1hJywgJzIwMCcsICctbWV0YWxfYmluZGluZycsICctaW1hZScsICc8aW5maWxlLm1hZT4nLCAnLW9tYWUnLCAnPG91dGZpbGUubWFlPic=

> <r_epik_Ionization_Penalty>
1.82111

> <r_epik_Ionization_Penalty_Charging>
5.03334e-08

> <r_epik_Ionization_Penalty_Neutral>
1.82111

> <r_epik_State_Penalty>
1.93633

> <r_epik_Charging_Adjusted_Penalty>
1.93633

> <i_epik_Tot_Q>
-1

> <i_epik_Tot_abs_Q>
1

> <r_epik_Metal_State_Penalty>
0.0147818

> <b_epik_Metal_Only>
0

> <s_lp_Force_Field>
OPLS_2005

> <r_lp_Energy>
25.7398

> <b_lp_Chiralities_Consistent>
1

> <s_lp_Variant>
AV-unprocessed.smi:688-3

> <Gold.Version>
5.8.1

> <Gold.Id.Protein>
6NUR|6NUR_protein|mol2

> <Gold.PLP.Fitness>
52.1612

> <Gold.PLP.PLP>
-44.2447

> <Gold.PLP.part.hbond>
-4.8398

> <Gold.PLP.part.metal>
0.0000

> <Gold.PLP.part.buried>
-3.6628

> <Gold.PLP.part.nonpolar>
-36.2782

> <Gold.PLP.part.repulsive>
0.4154

> <Gold.PLP.ligand.clash>
0.0000

> <Gold.PLP.ligand.torsion>
1.8549

> <Gold.PLP.Chemscore.Hbond>
3.8467

> <Gold.PLP.Chemscore.CHOScore>
0.0000

> <Gold.PLP.Chemscore.Metal>
0.0000

> <Gold.Chemscore.Hbonds>
donor molecule, donor type, donor heavy atom, donor atom, acceptor molecule, acceptor atom, score
      L1  H     9    26       P1  7957  0.77
      P1  H  7989  7998       L1     9  0.06
      P1  H  8011  8017       L1     9  0.84
      P1  H 10752 10764       L1     3  2.00

> <Gold.PLP.Chemscore.Internal.Correction>
0.0861

> <Gold.Rescore>
     Score         DG    S(hbond)    S(metal)    S(lipo)     H(rot)  DE(clash)    DE(int)     intcor
     14.97     -16.87       1.68        0.00     111.92       2.85       0.16       1.74       ----

> <Gold.Chemscore.Fitness>
14.9724

> <Gold.Chemscore.DG>
-16.8718

> <Gold.Chemscore.ZeroCoef>
-5.4800

> <Gold.Chemscore.Hbond>
1.6776

> <Gold.Chemscore.Metal>
0.0000

> <Gold.Chemscore.Lipo>
111.9247

> <Gold.Chemscore.Internal_Hbond>
0.0000

> <Gold.Chemscore.DEClash>
0.1564

> <Gold.Chemscore.DEInternal>
1.7430

> <Gold.Chemscore.Rot>
2.8542

> <Gold.Chemscore.Internal.Correction>
   9.000000E+99

> <Gold.Chemscore.Hbonds>
donor molecule, donor type, donor heavy atom, donor atom, acceptor molecule, acceptor atom, score
      L1  H     9    26       P1  7957  0.78
      P1  H  8011  8017       L1     9  0.14
      P1  H 10752 10764       L1     3  0.79

> <Gold.Chemscore.Hbond.Weighted>
-5.6033

> <Gold.Chemscore.Metal.Weighted>
-0.0000

> <Gold.Chemscore.Lipo.Weighted>
-13.0952

> <Gold.Chemscore.Internal_Hbond.Weighted>
0.0000

> <Gold.Chemscore.DEClash.Weighted>
0.1564

> <Gold.Chemscore.DEInternal.Weighted>
1.7430

> <Gold.Chemscore.Rot.Weighted>
7.3067

> <Gold.Chemscore.Internal.Correction.Weighted>
   9.000000E+99

> <Gold.Protein.RotatedTorsions>
[ 6907 6896 6895 6894 ] final    3.75 input  -60.11 | X-H torsion
[ 7974 7965 7964 7962 ] final  -22.68 input  175.53 | X-H torsion
[ 8008 7997 7996 7995 ] final   66.93 input   59.86 | X-H torsion
[ 10167 10162 10161 10158 ] final   66.23 input  -65.29 | X-H torsion
[ 10718 10713 10712 10709 ] final  -98.58 input   66.30 | X-H torsion
[ 10763 10752 10751 10750 ] final  -66.02 input  -60.55 | X-H torsion
[ 11005 11000 10999 10996 ] final  -25.66 input  -57.11 | X-H torsion

> <Gold.Protein.ActiveResidues>
 VAL166  LYS551  ARG553  GLY616  TRP617  ASP618  TYR619  PRO620  LYS621  CYS622 
 ASP623  PHE694  ASN695  SER759  ASP760  ASP761  ALA762  ILE779  LEU786  VAL792 
 PHE793  MET794  SER795  GLU796  ALA797  LYS798  CYS799  TRP800  GLU811  SER814 

> <Gold.Protein.RotatedAtoms>
  151.6301  135.1024  160.0119 H   0  0  0  0  0  0  0  0  0  0  0  0  # atno 6907 bound_to 6896
  152.4111  133.6960  159.6407 H   0  0  0  0  0  0  0  0  0  0  0  0  # atno 6908 bound_to 6896
  150.8001  133.8540  159.3254 H   0  0  0  0  0  0  0  0  0  0  0  0  # atno 6909 bound_to 6896
  146.1661  140.4513  142.8551 H   0  0  0  0  0  0  0  0  0  0  0  0  # atno 7974 bound_to 7965
  155.6851  140.3496  155.4871 H   0  0  0  0  0  0  0  0  0  0  0  0  # atno 8008 bound_to 7997
  155.9573  140.1130  157.0948 H   0  0  0  0  0  0  0  0  0  0  0  0  # atno 8009 bound_to 7997
  154.4135  140.1182  156.5118 H   0  0  0  0  0  0  0  0  0  0  0  0  # atno 8010 bound_to 7997
  140.1027  144.4889  150.7027 H   0  0  0  0  0  0  0  0  0  0  0  0  # atno 10167 bound_to 10162
  156.0111  130.5244  150.6544 H   0  0  0  0  0  0  0  0  0  0  0  0  # atno 10718 bound_to 10713
  154.3537  135.6131  153.5655 H   0  0  0  0  0  0  0  0  0  0  0  0  # atno 10763 bound_to 10752
  152.9797  135.5798  154.4714 H   0  0  0  0  0  0  0  0  0  0  0  0  # atno 10764 bound_to 10752
  154.4439  135.2851  155.1806 H   0  0  0  0  0  0  0  0  0  0  0  0  # atno 10765 bound_to 10752
  140.8958  133.7557  156.0480 H   0  0  0  0  0  0  0  0  0  0  0  0  # atno 11005 bound_to 11000
  144.8094  140.6359  143.6425 LP  0  0  0  0  0  0  0  0  0  0  0  0  # atno 17320 bound_to 7965
  145.4463  139.1529  143.3942 LP  0  0  0  0  0  0  0  0  0  0  0  0  # atno 17321 bound_to 7965
  140.6969  143.2409  151.4976 LP  0  0  0  0  0  0  0  0  0  0  0  0  # atno 17342 bound_to 10162
  139.5662  144.2036  152.1768 LP  0  0  0  0  0  0  0  0  0  0  0  0  # atno 17343 bound_to 10162
  157.4299  131.0848  151.1049 LP  0  0  0  0  0  0  0  0  0  0  0  0  # atno 17370 bound_to 10713
  157.1625  130.6232  149.5615 LP  0  0  0  0  0  0  0  0  0  0  0  0  # atno 17371 bound_to 10713
  140.8290  134.3200  157.5355 LP  0  0  0  0  0  0  0  0  0  0  0  0  # atno 17394 bound_to 11000
  139.8735  134.9353  156.3629 LP  0  0  0  0  0  0  0  0  0  0  0  0  # atno 17395 bound_to 11000

$$$$
