AV-unprocessed.smi:1981|AV-procd|sdf|8019|dock8
  -GOLD-   2272010213D 1   1.00000     0.00000
 Structure written by MMmdl.
 45 46  0  0  0  0  0  0  0  0  1 V2000
  147.0981  136.8314  162.4794 C   0  0  0  0  0  0  0  0  0  0  0  0
  147.3568  137.4065  161.2107 O   0  0  0  0  0  0  0  0  0  0  0  0
  148.0583  136.5258  160.3499 C   0  0  0  0  0  0  0  0  0  0  0  0
  147.7406  136.8942  158.8931 C   0  0  0  0  0  0  0  0  0  0  0  0
  148.9103  136.7173  158.0271 N   0  0  0  0  0  0  0  0  0  0  0  0
  149.7983  137.7793  158.0563 N   0  0  0  0  0  0  0  0  0  0  0  0
  150.8764  137.7457  157.3416 C   0  0  0  0  0  0  0  0  0  0  0  0
  151.8563  138.8671  157.3463 C   0  0  0  0  0  0  0  0  0  0  0  0
  152.9111  138.8126  156.7118 O   0  0  0  0  0  0  0  0  0  0  0  0
  151.5061  139.9324  158.0895 N   0  0  0  0  0  0  0  0  0  0  0  0
  152.2935  141.1503  158.2500 C   0  0  0  0  0  0  0  0  0  0  0  0
  152.7555  141.3141  159.7169 C   0  0  0  0  0  0  0  0  0  0  0  0
  153.4004  142.6918  159.9503 C   0  0  0  0  0  0  0  0  0  0  0  0
  152.4461  143.7327  159.5522 N   0  0  0  0  0  0  0  0  0  0  0  0
  151.8071  144.5217  160.4491 C   0  0  0  0  0  0  0  0  0  0  0  0
  152.1523  144.3978  161.9348 C   0  0  0  0  0  0  0  0  0  0  0  0
  150.9556  145.3480  160.1204 O   0  0  0  0  0  0  0  0  0  0  0  0
  152.1730  143.6903  158.1104 C   0  0  0  0  0  0  0  0  0  0  0  0
  151.4632  142.3649  157.7811 C   0  0  0  0  0  0  0  0  0  0  0  0
  151.1751  136.5998  156.4992 C   0  0  0  0  0  0  0  0  0  0  0  0
  150.3024  135.5685  156.4860 C   0  0  0  0  0  0  0  0  0  0  0  0
  149.0784  135.5790  157.2890 C   0  0  0  0  0  0  0  0  0  0  0  0
  148.2746  134.6473  157.3034 O   0  0  0  0  0  0  0  0  0  0  0  0
  146.5614  137.5457  163.1037 H   0  0  0  0  0  0  0  0  0  0  0  0
  148.0253  136.5686  162.9901 H   0  0  0  0  0  0  0  0  0  0  0  0
  146.4830  135.9354  162.3876 H   0  0  0  0  0  0  0  0  0  0  0  0
  149.1314  136.6055  160.5315 H   0  0  0  0  0  0  0  0  0  0  0  0
  147.7646  135.4950  160.5538 H   0  0  0  0  0  0  0  0  0  0  0  0
  146.9016  136.2979  158.5303 H   0  0  0  0  0  0  0  0  0  0  0  0
  147.4000  137.9303  158.8483 H   0  0  0  0  0  0  0  0  0  0  0  0
  150.6235  139.8935  158.5791 H   0  0  0  0  0  0  0  0  0  0  0  0
  153.1788  141.0886  157.6142 H   0  0  0  0  0  0  0  0  0  0  0  0
  151.9025  141.2015  160.3883 H   0  0  0  0  0  0  0  0  0  0  0  0
  153.4616  140.5265  159.9818 H   0  0  0  0  0  0  0  0  0  0  0  0
  153.7167  142.7829  160.9902 H   0  0  0  0  0  0  0  0  0  0  0  0
  154.3098  142.7859  159.3551 H   0  0  0  0  0  0  0  0  0  0  0  0
  153.2112  144.5954  162.1036 H   0  0  0  0  0  0  0  0  0  0  0  0
  151.9125  143.4009  162.3055 H   0  0  0  0  0  0  0  0  0  0  0  0
  151.5821  145.1179  162.5228 H   0  0  0  0  0  0  0  0  0  0  0  0
  151.5778  144.5293  157.7535 H   0  0  0  0  0  0  0  0  0  0  0  0
  153.1160  143.7520  157.5654 H   0  0  0  0  0  0  0  0  0  0  0  0
  151.2768  142.2987  156.7087 H   0  0  0  0  0  0  0  0  0  0  0  0
  150.4855  142.3554  158.2659 H   0  0  0  0  0  0  0  0  0  0  0  0
  152.0710  136.5651  155.8963 H   0  0  0  0  0  0  0  0  0  0  0  0
  150.5124  134.7098  155.8653 H   0  0  0  0  0  0  0  0  0  0  0  0
  1  2  1  0  0  0  0
  1 24  1  0  0  0  0
  1 25  1  0  0  0  0
  1 26  1  0  0  0  0
  2  3  1  0  0  0  0
  3  4  1  0  0  0  0
  3 27  1  0  0  0  0
  3 28  1  0  0  0  0
  4  5  1  0  0  0  0
  4 29  1  0  0  0  0
  4 30  1  0  0  0  0
  5 22  1  0  0  0  0
  5  6  1  0  0  0  0
  6  7  2  0  0  0  0
  7  8  1  0  0  0  0
  7 20  1  0  0  0  0
  8  9  2  0  0  0  0
  8 10  1  0  0  0  0
 10 11  1  0  0  0  0
 10 31  1  0  0  0  0
 11 19  1  0  0  0  0
 11 12  1  0  0  0  0
 11 32  1  0  0  0  0
 12 13  1  0  0  0  0
 12 33  1  0  0  0  0
 12 34  1  0  0  0  0
 13 14  1  0  0  0  0
 13 35  1  0  0  0  0
 13 36  1  0  0  0  0
 14 15  1  0  0  0  0
 14 18  1  0  0  0  0
 15 16  1  0  0  0  0
 15 17  2  0  0  0  0
 16 37  1  0  0  0  0
 16 38  1  0  0  0  0
 16 39  1  0  0  0  0
 18 19  1  0  0  0  0
 18 40  1  0  0  0  0
 18 41  1  0  0  0  0
 19 42  1  0  0  0  0
 19 43  1  0  0  0  0
 20 21  2  0  0  0  0
 20 44  1  0  0  0  0
 21 22  1  0  0  0  0
 21 45  1  0  0  0  0
 22 23  2  0  0  0  0
M  END
> <s_m_source_file>
AV-unprocessed.smi

> <i_m_source_file_index>
1981

> <i_lp_mmshare_version>
43012

> <i_f3d_flags>
0

> <s_epik_input>
W0NIM11PW0NIMl1bQ0gyXW4xbmMoW2NIXVtjSF1jMT1PKUMoPU8pW05IXVtDSF0yW0NIMl1bQ0gyXU4oQyg9TylbQ0gzXSlbQ0gyXVtDSDJdMg==

> <s_epik_cmdline>
J2VwaWtfcHl0aG9uJywgJy1waCcsICc3LjAnLCAnLXRuJywgJzgnLCAnLW1hJywgJzIwMCcsICctbWV0YWxfYmluZGluZycsICctaW1hZScsICc8aW5maWxlLm1hZT4nLCAnLW9tYWUnLCAnPG91dGZpbGUubWFlPic=

> <r_lp_tautomer_probability>
1

> <r_epik_Ionization_Penalty>
2.32097e-06

> <r_epik_Ionization_Penalty_Charging>
6.14723e-09

> <r_epik_Ionization_Penalty_Neutral>
2.31482e-06

> <r_epik_State_Penalty>
-0

> <r_epik_Charging_Adjusted_Penalty>
6.14723e-09

> <i_epik_Tot_Q>
0

> <i_epik_Tot_abs_Q>
0

> <r_epik_Metal_State_Penalty>
-0

> <b_epik_Metal_Only>
0

> <s_lp_Force_Field>
OPLS_2005

> <r_lp_Energy>
40.8399

> <b_lp_Chiralities_Consistent>
1

> <s_lp_Variant>
AV-unprocessed.smi:1981-1

> <Gold.Version>
5.8.1

> <Gold.Id.Protein>
6NUR|6NUR_protein|mol2

> <Gold.PLP.Fitness>
47.8317

> <Gold.PLP.PLP>
-41.0269

> <Gold.PLP.part.hbond>
-3.0000

> <Gold.PLP.part.metal>
0.0000

> <Gold.PLP.part.buried>
-5.5801

> <Gold.PLP.part.nonpolar>
-31.7459

> <Gold.PLP.part.repulsive>
0.3023

> <Gold.PLP.ligand.clash>
0.0000

> <Gold.PLP.ligand.torsion>
0.7385

> <Gold.PLP.Chemscore.Hbond>
2.7520

> <Gold.PLP.Chemscore.CHOScore>
0.0000

> <Gold.PLP.Chemscore.Metal>
0.0000

> <Gold.Chemscore.Hbonds>
donor molecule, donor type, donor heavy atom, donor atom, acceptor molecule, acceptor atom, score
      P1  H  6931  6943       L1     2  0.30
      P1  H  6934  6947       L1     2  0.99
      P1  H  7997  8009       L1     9  1.00

> <Gold.PLP.Chemscore.Internal.Correction>
0.0257

> <Gold.Rescore>
     Score         DG    S(hbond)    S(metal)    S(lipo)     H(rot)  DE(clash)    DE(int)     intcor
     18.32     -19.40       2.25        0.00      91.67       1.69       0.13       0.95       ----

> <Gold.Chemscore.Fitness>
18.3169

> <Gold.Chemscore.DG>
-19.3987

> <Gold.Chemscore.ZeroCoef>
-5.4800

> <Gold.Chemscore.Hbond>
2.2483

> <Gold.Chemscore.Metal>
0.0000

> <Gold.Chemscore.Lipo>
91.6737

> <Gold.Chemscore.Internal_Hbond>
0.0000

> <Gold.Chemscore.DEClash>
0.1337

> <Gold.Chemscore.DEInternal>
0.9481

> <Gold.Chemscore.Rot>
1.6861

> <Gold.Chemscore.Internal.Correction>
   9.000000E+99

> <Gold.Chemscore.Hbonds>
donor molecule, donor type, donor heavy atom, donor atom, acceptor molecule, acceptor atom, score
      P1  H  6934  6947       L1     2  0.93
      P1  H  7997  8009       L1     9  0.99

> <Gold.Chemscore.Hbond.Weighted>
-7.5093

> <Gold.Chemscore.Metal.Weighted>
-0.0000

> <Gold.Chemscore.Lipo.Weighted>
-10.7258

> <Gold.Chemscore.Internal_Hbond.Weighted>
0.0000

> <Gold.Chemscore.DEClash.Weighted>
0.1337

> <Gold.Chemscore.DEInternal.Weighted>
0.9481

> <Gold.Chemscore.Rot.Weighted>
4.3164

> <Gold.Chemscore.Internal.Correction.Weighted>
   9.000000E+99

> <Gold.Protein.RotatedTorsions>
[ 6907 6896 6895 6894 ] final -155.31 input  -60.11 | X-H torsion
[ 7974 7965 7964 7962 ] final -114.73 input  175.53 | X-H torsion
[ 8008 7997 7996 7995 ] final -174.53 input   59.86 | X-H torsion
[ 10167 10162 10161 10158 ] final   44.44 input  -65.29 | X-H torsion
[ 10718 10713 10712 10709 ] final  -56.35 input   66.30 | X-H torsion
[ 10763 10752 10751 10750 ] final  144.71 input  -60.55 | X-H torsion
[ 11005 11000 10999 10996 ] final -178.84 input  -57.11 | X-H torsion

> <Gold.Protein.ActiveResidues>
 VAL166  LYS551  ARG553  GLY616  TRP617  ASP618  TYR619  PRO620  LYS621  CYS622 
 ASP623  PHE694  ASN695  SER759  ASP760  ASP761  ALA762  ILE779  LEU786  VAL792 
 PHE793  MET794  SER795  GLU796  ALA797  LYS798  CYS799  TRP800  GLU811  SER814 

> <Gold.Protein.RotatedAtoms>
  151.2705  133.4257  159.2620 H   0  0  0  0  0  0  0  0  0  0  0  0  # atno 6907 bound_to 6896
  151.0449  134.9633  159.8191 H   0  0  0  0  0  0  0  0  0  0  0  0  # atno 6908 bound_to 6896
  152.5372  134.2662  159.9006 H   0  0  0  0  0  0  0  0  0  0  0  0  # atno 6909 bound_to 6896
  145.1167  140.8644  143.3838 H   0  0  0  0  0  0  0  0  0  0  0  0  # atno 7974 bound_to 7965
  155.9712  140.1163  157.0810 H   0  0  0  0  0  0  0  0  0  0  0  0  # atno 8008 bound_to 7997
  154.4157  140.1163  156.5376 H   0  0  0  0  0  0  0  0  0  0  0  0  # atno 8009 bound_to 7997
  155.6594  140.3473  155.4779 H   0  0  0  0  0  0  0  0  0  0  0  0  # atno 8010 bound_to 7997
  140.3342  144.2550  150.6164 H   0  0  0  0  0  0  0  0  0  0  0  0  # atno 10167 bound_to 10162
  156.1295  130.4160  150.0293 H   0  0  0  0  0  0  0  0  0  0  0  0  # atno 10718 bound_to 10713
  153.9933  135.2930  155.3410 H   0  0  0  0  0  0  0  0  0  0  0  0  # atno 10763 bound_to 10752
  154.7202  135.5112  153.8803 H   0  0  0  0  0  0  0  0  0  0  0  0  # atno 10764 bound_to 10752
  153.0799  135.6675  154.0183 H   0  0  0  0  0  0  0  0  0  0  0  0  # atno 10765 bound_to 10752
  140.4253  134.6568  157.4685 H   0  0  0  0  0  0  0  0  0  0  0  0  # atno 11005 bound_to 11000
  145.0786  139.2977  143.5795 LP  0  0  0  0  0  0  0  0  0  0  0  0  # atno 17320 bound_to 7965
  146.3523  140.0285  142.8652 LP  0  0  0  0  0  0  0  0  0  0  0  0  # atno 17321 bound_to 7965
  140.5369  143.2231  151.8148 LP  0  0  0  0  0  0  0  0  0  0  0  0  # atno 17342 bound_to 10162
  139.4851  144.4650  151.9495 LP  0  0  0  0  0  0  0  0  0  0  0  0  # atno 17343 bound_to 10162
  156.8209  130.9358  151.3641 LP  0  0  0  0  0  0  0  0  0  0  0  0  # atno 17370 bound_to 10713
  157.6475  130.8856  149.9566 LP  0  0  0  0  0  0  0  0  0  0  0  0  # atno 17371 bound_to 10713
  140.0172  134.6602  155.9293 LP  0  0  0  0  0  0  0  0  0  0  0  0  # atno 17394 bound_to 11000
  141.1767  133.6541  156.4859 LP  0  0  0  0  0  0  0  0  0  0  0  0  # atno 17395 bound_to 11000

$$$$
