AV-unprocessed.smi:2083|AV-procd|sdf|8493|dock7
  -GOLD-   2272011203D 1   1.00000     0.00000
 Structure written by MMmdl.
 45 46  0  0  0  0  0  0  0  0  2 V2000
  144.9637  131.2431  150.8955 C   0  0  0  0  0  0  0  0  0  0  0  0
  145.0937  132.6843  151.2516 C   0  0  0  0  0  0  0  0  0  0  0  0
  146.1555  133.5445  151.2778 C   0  0  0  0  0  0  0  0  0  0  0  0
  145.5692  134.7629  151.7123 C   0  0  0  0  0  0  0  0  0  0  0  0
  146.3564  135.9308  151.8814 N   0  0  0  0  0  0  0  0  0  0  0  0
  145.9263  137.1722  152.1646 C   0  0  0  0  0  0  0  0  0  0  0  0
  144.7469  137.5067  152.2804 O   0  0  0  0  0  0  0  0  0  0  0  0
  146.9507  138.0249  152.3112 N   0  0  0  0  0  0  0  0  0  0  0  0
  146.8176  139.4446  152.6260 C   0  0  0  0  0  0  0  0  0  0  0  0
  146.3863  139.6992  154.0905 C   0  0  1  0  0  0  0  0  0  0  0  0
  147.5352  139.4835  155.0996 C   0  0  0  0  0  0  0  0  0  0  0  0
  145.7343  141.0355  154.2249 N   0  3  2  0  0  0  0  0  0  0  0  0
  146.5606  142.1935  153.7857 C   0  0  0  0  0  0  0  0  0  0  0  0
  145.7164  143.4758  153.7290 C   0  0  0  0  0  0  0  0  0  0  0  0
  145.0554  143.7574  155.0862 C   0  0  0  0  0  0  0  0  0  0  0  0
  144.2547  142.5390  155.5833 C   0  0  1  0  0  0  0  0  0  0  0  0
  142.9313  142.3475  154.8219 C   0  0  0  0  0  0  0  0  0  0  0  0
  145.1288  141.2671  155.5648 C   0  0  0  0  0  0  0  0  0  0  0  0
  144.2678  134.6563  151.9325 N   0  0  0  0  0  0  0  0  0  0  0  0
  143.9565  133.3235  151.6385 O   0  0  0  0  0  0  0  0  0  0  0  0
  145.8981  130.8562  150.4888 H   0  0  0  0  0  0  0  0  0  0  0  0
  144.1842  131.0983  150.1475 H   0  0  0  0  0  0  0  0  0  0  0  0
  144.7055  130.6507  151.7734 H   0  0  0  0  0  0  0  0  0  0  0  0
  147.1840  133.3320  151.0266 H   0  0  0  0  0  0  0  0  0  0  0  0
  147.3534  135.8028  151.7923 H   0  0  0  0  0  0  0  0  0  0  0  0
  147.8885  137.6690  152.1943 H   0  0  0  0  0  0  0  0  0  0  0  0
  147.7828  139.9072  152.4230 H   0  0  0  0  0  0  0  0  0  0  0  0
  146.1068  139.9030  151.9363 H   0  0  0  0  0  0  0  0  0  0  0  0
  145.6203  138.9568  154.3180 H   0  0  0  0  0  0  0  0  0  0  0  0
  147.8875  138.4520  155.0788 H   0  0  0  0  0  0  0  0  0  0  0  0
  147.2169  139.6864  156.1220 H   0  0  0  0  0  0  0  0  0  0  0  0
  148.3925  140.1205  154.8811 H   0  0  0  0  0  0  0  0  0  0  0  0
  147.3953  142.3391  154.4726 H   0  0  0  0  0  0  0  0  0  0  0  0
  146.9892  142.0083  152.8016 H   0  0  0  0  0  0  0  0  0  0  0  0
  146.3439  144.3203  153.4422 H   0  0  0  0  0  0  0  0  0  0  0  0
  144.9555  143.3839  152.9533 H   0  0  0  0  0  0  0  0  0  0  0  0
  145.8302  143.9990  155.8153 H   0  0  0  0  0  0  0  0  0  0  0  0
  144.4146  144.6374  155.0207 H   0  0  0  0  0  0  0  0  0  0  0  0
  143.9833  142.7321  156.6221 H   0  0  0  0  0  0  0  0  0  0  0  0
  143.0951  142.1233  153.7679 H   0  0  0  0  0  0  0  0  0  0  0  0
  142.3148  143.2453  154.8778 H   0  0  0  0  0  0  0  0  0  0  0  0
  142.3517  141.5272  155.2462 H   0  0  0  0  0  0  0  0  0  0  0  0
  144.5232  140.4092  155.8599 H   0  0  0  0  0  0  0  0  0  0  0  0
  145.9220  141.3576  156.3082 H   0  0  0  0  0  0  0  0  0  0  0  0
  144.9487  141.0024  153.5909 H   0  0  0  0  0  0  0  0  0  0  0  0
  1  2  1  0  0  0  0
  1 21  1  0  0  0  0
  1 22  1  0  0  0  0
  1 23  1  0  0  0  0
  2 20  1  0  0  0  0
  2  3  2  0  0  0  0
  3  4  1  0  0  0  0
  3 24  1  0  0  0  0
  4  5  1  0  0  0  0
  4 19  2  0  0  0  0
  5  6  1  0  0  0  0
  5 25  1  0  0  0  0
  6  7  2  0  0  0  0
  6  8  1  0  0  0  0
  8  9  1  0  0  0  0
  8 26  1  0  0  0  0
  9 10  1  0  0  0  0
  9 27  1  0  0  0  0
  9 28  1  0  0  0  0
 10 11  1  0  0  0  0
 10 12  1  0  0  0  0
 10 29  1  0  0  0  0
 11 30  1  0  0  0  0
 11 31  1  0  0  0  0
 11 32  1  0  0  0  0
 12 18  1  0  0  0  0
 12 13  1  0  0  0  0
 12 45  1  0  0  0  0
 13 14  1  0  0  0  0
 13 33  1  0  0  0  0
 13 34  1  0  0  0  0
 14 15  1  0  0  0  0
 14 35  1  0  0  0  0
 14 36  1  0  0  0  0
 15 16  1  0  0  0  0
 15 37  1  0  0  0  0
 15 38  1  0  0  0  0
 16 17  1  0  0  0  0
 16 18  1  0  0  0  0
 16 39  1  0  0  0  0
 17 40  1  0  0  0  0
 17 41  1  0  0  0  0
 17 42  1  0  0  0  0
 18 43  1  0  0  0  0
 18 44  1  0  0  0  0
 19 20  1  0  0  0  0
M  CHG  1  12   1
M  END
> <s_m_source_file>
AV-unprocessed.smi

> <i_m_source_file_index>
2083

> <i_lp_mmshare_version>
43012

> <i_f3d_flags>
0

> <s_epik_input>
W0NIM11jMVtjSF1jKG5vMSlbTkhdQyg9TylbTkhdW0NIMl1bQ0BIXShbQ0gzXSlOMltDSDJdW0NIMl1bQ0gyXVtDQEBIXShbQ0gzXSlbQ0gyXTI=

> <s_epik_cmdline>
J2VwaWtfcHl0aG9uJywgJy1waCcsICc3LjAnLCAnLXRuJywgJzgnLCAnLW1hJywgJzIwMCcsICctbWV0YWxfYmluZGluZycsICctaW1hZScsICc8aW5maWxlLm1hZT4nLCAnLW9tYWUnLCAnPG91dGZpbGUubWFlPic=

> <r_epik_Ionization_Penalty>
0.00216453

> <r_epik_Ionization_Penalty_Charging>
0.00212879

> <r_epik_Ionization_Penalty_Neutral>
3.57418e-05

> <r_epik_State_Penalty>
0.00146033

> <r_epik_Charging_Adjusted_Penalty>
0.00358912

> <i_epik_Tot_Q>
1

> <i_epik_Tot_abs_Q>
1

> <r_epik_Metal_State_Penalty>
0.0215827

> <b_epik_Metal_Only>
0

> <s_lp_Force_Field>
OPLS_2005

> <r_lp_Energy>
19.7178

> <b_lp_Chiralities_Consistent>
1

> <s_lp_Variant>
AV-unprocessed.smi:2083-4

> <Gold.Version>
5.8.1

> <Gold.Id.Protein>
6NUR|6NUR_protein|mol2

> <Gold.PLP.Fitness>
41.4487

> <Gold.PLP.PLP>
-29.9556

> <Gold.PLP.part.hbond>
-3.0000

> <Gold.PLP.part.metal>
0.0000

> <Gold.PLP.part.buried>
-6.5170

> <Gold.PLP.part.nonpolar>
-21.1355

> <Gold.PLP.part.repulsive>
1.3470

> <Gold.PLP.ligand.clash>
0.0000

> <Gold.PLP.ligand.torsion>
0.3063

> <Gold.PLP.Chemscore.Hbond>
4.0000

> <Gold.PLP.Chemscore.CHOScore>
0.0000

> <Gold.PLP.Chemscore.Metal>
0.0000

> <Gold.Chemscore.Hbonds>
donor molecule, donor type, donor heavy atom, donor atom, acceptor molecule, acceptor atom, score
      L1  H     5    25       P1  7948  1.00
      L1  H     8    26       P1  7948  0.96
      L1  H    12    45       P1 10175  2.00

> <Gold.PLP.Chemscore.Internal.Correction>
0.1057

> <Gold.Rescore>
     Score         DG    S(hbond)    S(metal)    S(lipo)     H(rot)  DE(clash)    DE(int)     intcor
     16.68     -18.28       2.86        0.00      61.61       1.55       0.02       1.58       ----

> <Gold.Chemscore.Fitness>
16.6806

> <Gold.Chemscore.DG>
-18.2759

> <Gold.Chemscore.ZeroCoef>
-5.4800

> <Gold.Chemscore.Hbond>
2.8587

> <Gold.Chemscore.Metal>
0.0000

> <Gold.Chemscore.Lipo>
61.6147

> <Gold.Chemscore.Internal_Hbond>
0.0000

> <Gold.Chemscore.DEClash>
0.0199

> <Gold.Chemscore.DEInternal>
1.5754

> <Gold.Chemscore.Rot>
1.5474

> <Gold.Chemscore.Internal.Correction>
   9.000000E+99

> <Gold.Chemscore.Hbonds>
donor molecule, donor type, donor heavy atom, donor atom, acceptor molecule, acceptor atom, score
      L1  H     5    25       P1  7948  0.99
      L1  H     8    26       P1  7948  0.92
      L1  H    12    45       P1 10175  0.70

> <Gold.Chemscore.Hbond.Weighted>
-9.5482

> <Gold.Chemscore.Metal.Weighted>
-0.0000

> <Gold.Chemscore.Lipo.Weighted>
-7.2089

> <Gold.Chemscore.Internal_Hbond.Weighted>
0.0000

> <Gold.Chemscore.DEClash.Weighted>
0.0199

> <Gold.Chemscore.DEInternal.Weighted>
1.5754

> <Gold.Chemscore.Rot.Weighted>
3.9612

> <Gold.Chemscore.Internal.Correction.Weighted>
   9.000000E+99

> <Gold.Protein.RotatedTorsions>
[ 6907 6896 6895 6894 ] final  107.57 input  -60.11 | X-H torsion
[ 7974 7965 7964 7962 ] final -153.79 input  175.53 | X-H torsion
[ 8008 7997 7996 7995 ] final -152.93 input   59.86 | X-H torsion
[ 10167 10162 10161 10158 ] final   -4.88 input  -65.29 | X-H torsion
[ 10718 10713 10712 10709 ] final   40.45 input   66.30 | X-H torsion
[ 10763 10752 10751 10750 ] final  160.31 input  -60.55 | X-H torsion
[ 11005 11000 10999 10996 ] final  133.07 input  -57.11 | X-H torsion

> <Gold.Protein.ActiveResidues>
 VAL166  LYS551  ARG553  GLY616  TRP617  ASP618  TYR619  PRO620  LYS621  CYS622 
 ASP623  PHE694  ASN695  SER759  ASP760  ASP761  ALA762  ILE779  LEU786  VAL792 
 PHE793  MET794  SER795  GLU796  ALA797  LYS798  CYS799  TRP800  GLU811  SER814 

> <Gold.Protein.RotatedAtoms>
  152.5149  133.9215  159.7536 H   0  0  0  0  0  0  0  0  0  0  0  0  # atno 6907 bound_to 6896
  150.9586  133.6462  159.2765 H   0  0  0  0  0  0  0  0  0  0  0  0  # atno 6908 bound_to 6896
  151.3715  135.0928  159.9520 H   0  0  0  0  0  0  0  0  0  0  0  0  # atno 6909 bound_to 6896
  144.7722  140.4477  143.5899 H   0  0  0  0  0  0  0  0  0  0  0  0  # atno 7974 bound_to 7965
  155.6629  140.0724  157.2548 H   0  0  0  0  0  0  0  0  0  0  0  0  # atno 8008 bound_to 7997
  154.4139  140.1713  156.1846 H   0  0  0  0  0  0  0  0  0  0  0  0  # atno 8009 bound_to 7997
  155.9682  140.3364  155.6555 H   0  0  0  0  0  0  0  0  0  0  0  0  # atno 8010 bound_to 7997
  140.6943  143.6373  150.8468 H   0  0  0  0  0  0  0  0  0  0  0  0  # atno 10167 bound_to 10162
  157.3823  130.7760  149.7202 H   0  0  0  0  0  0  0  0  0  0  0  0  # atno 10718 bound_to 10713
  154.2454  135.2773  155.2837 H   0  0  0  0  0  0  0  0  0  0  0  0  # atno 10763 bound_to 10752
  154.5510  135.5675  153.6925 H   0  0  0  0  0  0  0  0  0  0  0  0  # atno 10764 bound_to 10752
  152.9991  135.6274  154.2600 H   0  0  0  0  0  0  0  0  0  0  0  0  # atno 10765 bound_to 10752
  139.9829  134.9542  156.9673 H   0  0  0  0  0  0  0  0  0  0  0  0  # atno 11005 bound_to 11000
  145.6290  139.1534  143.2980 LP  0  0  0  0  0  0  0  0  0  0  0  0  # atno 17320 bound_to 7965
  146.1877  140.6395  142.9160 LP  0  0  0  0  0  0  0  0  0  0  0  0  # atno 17321 bound_to 7965
  140.0089  143.5664  152.2846 LP  0  0  0  0  0  0  0  0  0  0  0  0  # atno 17342 bound_to 10162
  139.6380  144.7652  151.2397 LP  0  0  0  0  0  0  0  0  0  0  0  0  # atno 17343 bound_to 10162
  155.9778  130.4058  150.3686 LP  0  0  0  0  0  0  0  0  0  0  0  0  # atno 17370 bound_to 10713
  157.1791  131.0388  151.2757 LP  0  0  0  0  0  0  0  0  0  0  0  0  # atno 17371 bound_to 10713
  140.5060  134.1049  155.7260 LP  0  0  0  0  0  0  0  0  0  0  0  0  # atno 17394 bound_to 11000
  141.1498  133.8989  157.2125 LP  0  0  0  0  0  0  0  0  0  0  0  0  # atno 17395 bound_to 11000

$$$$
