AV-unprocessed.smi:2671|AV-procd|sdf|10350|dock1
  -GOLD-   2272014373D 1   1.00000     0.00000
 Structure written by MMmdl.
 29 30  0  0  0  0  0  0  0  0  1 V2000
  154.5256  140.2363  160.1439 O   0  0  0  0  0  0  0  0  0  0  0  0
  153.6937  140.8185  159.4514 C   0  0  0  0  0  0  0  0  0  0  0  0
  153.2446  142.1739  159.7909 C   0  0  0  0  0  0  0  0  0  0  0  0
  152.3369  142.7912  159.0087 C   0  0  0  0  0  0  0  0  0  0  0  0
  151.8019  144.1851  159.2956 C   0  0  0  0  0  0  0  0  0  0  0  0
  152.1997  145.0372  158.3511 F   0  0  0  0  0  0  0  0  0  0  0  0
  150.4695  144.1703  159.3065 F   0  0  0  0  0  0  0  0  0  0  0  0
  152.2242  144.6425  160.4762 F   0  0  0  0  0  0  0  0  0  0  0  0
  151.8192  142.1469  157.8981 N   0  0  0  0  0  0  0  0  0  0  0  0
  152.2574  140.8616  157.5954 C   0  0  0  0  0  0  0  0  0  0  0  0
  151.4655  140.1834  156.0937 S   0  0  0  0  0  0  0  0  0  0  0  0
  150.0899  141.3262  155.7534 C   0  0  0  0  0  0  0  0  0  0  0  0
  149.5450  141.1434  154.3310 C   0  0  2  0  0  0  0  0  0  0  0  0
  148.3172  141.9994  154.0262 C   0  0  0  0  0  0  0  0  0  0  0  0
  147.6757  141.2176  152.9032 C   0  0  0  0  0  0  0  0  0  0  0  0
  147.9157  139.7787  153.3509 C   0  0  0  0  0  0  0  0  0  0  0  0
  149.1163  139.8002  154.1198 O   0  0  0  0  0  0  0  0  0  0  0  0
  153.1365  140.2193  158.3098 N   0  0  0  0  0  0  0  0  0  0  0  0
  151.1297  142.6386  157.3481 H   0  0  0  0  0  0  0  0  0  0  0  0
  153.6408  142.6716  160.6640 H   0  0  0  0  0  0  0  0  0  0  0  0
  150.4441  142.3500  155.8772 H   0  0  0  0  0  0  0  0  0  0  0  0
  149.2925  141.1616  156.4788 H   0  0  0  0  0  0  0  0  0  0  0  0
  150.3229  141.3663  153.5989 H   0  0  0  0  0  0  0  0  0  0  0  0
  147.6465  142.0336  154.8860 H   0  0  0  0  0  0  0  0  0  0  0  0
  148.5695  143.0228  153.7471 H   0  0  0  0  0  0  0  0  0  0  0  0
  146.6198  141.4510  152.7637 H   0  0  0  0  0  0  0  0  0  0  0  0
  148.1973  141.4126  151.9651 H   0  0  0  0  0  0  0  0  0  0  0  0
  147.1018  139.4388  153.9923 H   0  0  0  0  0  0  0  0  0  0  0  0
  147.9940  139.0901  152.5094 H   0  0  0  0  0  0  0  0  0  0  0  0
  1  2  2  0  0  0  0
  2 18  1  0  0  0  0
  2  3  1  0  0  0  0
  3 20  1  0  0  0  0
  3  4  2  0  0  0  0
  4  5  1  0  0  0  0
  4  9  1  0  0  0  0
  5  6  1  0  0  0  0
  5  7  1  0  0  0  0
  5  8  1  0  0  0  0
  9 10  1  0  0  0  0
  9 19  1  0  0  0  0
 10 11  1  0  0  0  0
 10 18  2  0  0  0  0
 11 12  1  0  0  0  0
 12 13  1  0  0  0  0
 12 21  1  0  0  0  0
 12 22  1  0  0  0  0
 13 17  1  0  0  0  0
 13 14  1  0  0  0  0
 13 23  1  0  0  0  0
 14 15  1  0  0  0  0
 14 24  1  0  0  0  0
 14 25  1  0  0  0  0
 15 16  1  0  0  0  0
 15 26  1  0  0  0  0
 15 27  1  0  0  0  0
 16 17  1  0  0  0  0
 16 28  1  0  0  0  0
 16 29  1  0  0  0  0
M  END
> <s_m_source_file>
AV-unprocessed.smi

> <i_m_source_file_index>
2671

> <i_lp_mmshare_version>
43012

> <i_f3d_flags>
0

> <s_epik_input>
W09IXWMxW2NIXWMoQyhGKShGKUYpbmMobjEpU1tDSDJdW0NAQEhdMltDSDJdW0NIMl1bQ0gyXU8y

> <s_epik_cmdline>
J2VwaWtfcHl0aG9uJywgJy1waCcsICc3LjAnLCAnLXRuJywgJzgnLCAnLW1hJywgJzIwMCcsICctbWV0YWxfYmluZGluZycsICctaW1hZScsICc8aW5maWxlLm1hZT4nLCAnLW9tYWUnLCAnPG91dGZpbGUubWFlPic=

> <r_lp_tautomer_probability>
0.273662

> <r_epik_Ionization_Penalty>
1.33793

> <r_epik_Ionization_Penalty_Charging>
1.33793

> <r_epik_Ionization_Penalty_Neutral>
8.2996e-08

> <r_epik_State_Penalty>
1.59174

> <r_epik_Charging_Adjusted_Penalty>
2.92967

> <i_epik_Tot_Q>
0

> <i_epik_Tot_abs_Q>
0

> <r_epik_Metal_State_Penalty>
2.31522

> <b_epik_Metal_Only>
0

> <s_lp_Force_Field>
OPLS_2005

> <r_lp_Energy>
28.2074

> <b_lp_Chiralities_Consistent>
1

> <s_lp_Variant>
AV-unprocessed.smi:2671-5

> <Gold.Version>
5.8.1

> <Gold.Id.Protein>
6NUR|6NUR_protein|mol2

> <Gold.PLP.Fitness>
43.2399

> <Gold.PLP.PLP>
-41.0288

> <Gold.PLP.part.hbond>
-1.0000

> <Gold.PLP.part.metal>
0.0000

> <Gold.PLP.part.buried>
-5.3550

> <Gold.PLP.part.nonpolar>
-34.4561

> <Gold.PLP.part.repulsive>
0.1866

> <Gold.PLP.ligand.clash>
0.0000

> <Gold.PLP.ligand.torsion>
0.3805

> <Gold.PLP.Chemscore.Hbond>
0.9760

> <Gold.PLP.Chemscore.CHOScore>
0.0000

> <Gold.PLP.Chemscore.Metal>
0.0000

> <Gold.Chemscore.Hbonds>
donor molecule, donor type, donor heavy atom, donor atom, acceptor molecule, acceptor atom, score
      P1  H  7997  8008       L1    18  0.96

> <Gold.PLP.Chemscore.Internal.Correction>
0.0441

> <Gold.Rescore>
     Score         DG    S(hbond)    S(metal)    S(lipo)     H(rot)  DE(clash)    DE(int)     intcor
      9.89     -10.31       0.08        0.00      75.99       1.69       0.10       0.32       ----

> <Gold.Chemscore.Fitness>
9.8914

> <Gold.Chemscore.DG>
-10.3075

> <Gold.Chemscore.ZeroCoef>
-5.4800

> <Gold.Chemscore.Hbond>
0.0805

> <Gold.Chemscore.Metal>
0.0000

> <Gold.Chemscore.Lipo>
75.9933

> <Gold.Chemscore.Internal_Hbond>
0.0000

> <Gold.Chemscore.DEClash>
0.0995

> <Gold.Chemscore.DEInternal>
0.3166

> <Gold.Chemscore.Rot>
1.6924

> <Gold.Chemscore.Internal.Correction>
   9.000000E+99

> <Gold.Chemscore.Hbonds>
donor molecule, donor type, donor heavy atom, donor atom, acceptor molecule, acceptor atom, score
      P1  H  7997  8008       L1    18  0.13

> <Gold.Chemscore.Hbond.Weighted>
-0.2687

> <Gold.Chemscore.Metal.Weighted>
-0.0000

> <Gold.Chemscore.Lipo.Weighted>
-8.8912

> <Gold.Chemscore.Internal_Hbond.Weighted>
0.0000

> <Gold.Chemscore.DEClash.Weighted>
0.0995

> <Gold.Chemscore.DEInternal.Weighted>
0.3166

> <Gold.Chemscore.Rot.Weighted>
4.3324

> <Gold.Chemscore.Internal.Correction.Weighted>
   9.000000E+99

> <Gold.Protein.RotatedTorsions>
[ 6907 6896 6895 6894 ] final -119.36 input  -60.11 | X-H torsion
[ 7974 7965 7964 7962 ] final  178.90 input  175.53 | X-H torsion
[ 8008 7997 7996 7995 ] final  -84.66 input   59.86 | X-H torsion
[ 10167 10162 10161 10158 ] final   72.07 input  -65.29 | X-H torsion
[ 10718 10713 10712 10709 ] final   -4.56 input   66.30 | X-H torsion
[ 10763 10752 10751 10750 ] final -101.84 input  -60.55 | X-H torsion
[ 11005 11000 10999 10996 ] final   30.27 input  -57.11 | X-H torsion

> <Gold.Protein.ActiveResidues>
 VAL166  LYS551  ARG553  GLY616  TRP617  ASP618  TYR619  PRO620  LYS621  CYS622 
 ASP623  PHE694  ASN695  SER759  ASP760  ASP761  ALA762  ILE779  LEU786  VAL792 
 PHE793  MET794  SER795  GLU796  ALA797  LYS798  CYS799  TRP800  GLU811  SER814 

> <Gold.Protein.RotatedAtoms>
  150.8298  133.8110  159.3103 H   0  0  0  0  0  0  0  0  0  0  0  0  # atno 6907 bound_to 6896
  151.5843  135.1055  160.0034 H   0  0  0  0  0  0  0  0  0  0  0  0  # atno 6908 bound_to 6896
  152.4379  133.7353  159.6667 H   0  0  0  0  0  0  0  0  0  0  0  0  # atno 6909 bound_to 6896
  144.7151  140.0467  143.6436 H   0  0  0  0  0  0  0  0  0  0  0  0  # atno 7974 bound_to 7965
  154.6322  140.0602  156.9745 H   0  0  0  0  0  0  0  0  0  0  0  0  # atno 8008 bound_to 7997
  155.1648  140.3286  155.4386 H   0  0  0  0  0  0  0  0  0  0  0  0  # atno 8009 bound_to 7997
  156.2488  140.1924  156.6753 H   0  0  0  0  0  0  0  0  0  0  0  0  # atno 8010 bound_to 7997
  140.0393  144.5403  150.7447 H   0  0  0  0  0  0  0  0  0  0  0  0  # atno 10167 bound_to 10162
  156.7595  130.5265  149.5788 H   0  0  0  0  0  0  0  0  0  0  0  0  # atno 10718 bound_to 10713
  154.7688  135.4883  153.9608 H   0  0  0  0  0  0  0  0  0  0  0  0  # atno 10763 bound_to 10752
  153.1342  135.6759  153.9137 H   0  0  0  0  0  0  0  0  0  0  0  0  # atno 10764 bound_to 10752
  153.8832  135.3129  155.3424 H   0  0  0  0  0  0  0  0  0  0  0  0  # atno 10765 bound_to 10752
  140.2961  134.2809  155.7764 H   0  0  0  0  0  0  0  0  0  0  0  0  # atno 11005 bound_to 11000
  145.9978  139.3066  143.0946 LP  0  0  0  0  0  0  0  0  0  0  0  0  # atno 17320 bound_to 7965
  145.8828  140.9352  143.0592 LP  0  0  0  0  0  0  0  0  0  0  0  0  # atno 17321 bound_to 7965
  140.7267  143.2644  151.4094 LP  0  0  0  0  0  0  0  0  0  0  0  0  # atno 17342 bound_to 10162
  139.6024  144.1267  152.2213 LP  0  0  0  0  0  0  0  0  0  0  0  0  # atno 17343 bound_to 10162
  156.1348  130.6203  151.0385 LP  0  0  0  0  0  0  0  0  0  0  0  0  # atno 17370 bound_to 10713
  157.6741  131.0854  150.7539 LP  0  0  0  0  0  0  0  0  0  0  0  0  # atno 17371 bound_to 10713
  141.2137  133.7616  156.9697 LP  0  0  0  0  0  0  0  0  0  0  0  0  # atno 17394 bound_to 11000
  140.1151  134.9452  157.2122 LP  0  0  0  0  0  0  0  0  0  0  0  0  # atno 17395 bound_to 11000

$$$$
