AV-unprocessed.smi:2709|AV-procd|sdf|10462|dock9
  -GOLD-   2272014503D 1   1.00000     0.00000
 Structure written by MMmdl.
 40 42  0  0  0  0  0  0  0  0  1 V2000
  146.6979  132.2178  152.2759 C   0  0  0  0  0  0  0  0  0  0  0  0
  146.5988  133.6238  152.4283 O   0  0  0  0  0  0  0  0  0  0  0  0
  145.3507  134.0538  152.9655 C   0  0  2  0  0  0  0  0  0  0  0  0
  144.2685  133.6455  151.9642 C   0  0  0  0  0  0  0  0  0  0  0  0
  144.2842  134.7575  150.9188 C   0  0  0  0  0  0  0  0  0  0  0  0
  144.5632  136.0350  151.7151 C   0  0  0  0  0  0  0  0  0  0  0  0
  145.2750  135.5976  153.0105 C   0  0  2  0  0  0  0  0  0  0  0  0
  146.5865  136.2314  153.1322 N   0  0  0  0  0  0  0  0  0  0  0  0
  146.9446  137.0674  154.1161 C   0  0  0  0  0  0  0  0  0  0  0  0
  146.1907  137.3995  155.0304 O   0  0  0  0  0  0  0  0  0  0  0  0
  148.2118  137.4857  153.9593 N   0  0  0  0  0  0  0  0  0  0  0  0
  148.9557  138.3848  154.7702 C   0  0  0  0  0  0  0  0  0  0  0  0
  149.8296  139.2993  154.1458 C   0  0  0  0  0  0  0  0  0  0  0  0
  150.5703  140.1801  154.8521 N   0  0  0  0  0  0  0  0  0  0  0  0
  150.4529  140.1363  156.1820 C   0  0  0  0  0  0  0  0  0  0  0  0
  151.2325  141.1509  156.9600 C   0  0  0  0  0  0  0  0  0  0  0  0
  150.5682  141.9855  158.0360 C   0  0  0  0  0  0  0  0  0  0  0  0
  151.0031  142.6341  156.7512 C   0  0  0  0  0  0  0  0  0  0  0  0
  149.6651  139.3179  156.8845 N   0  0  0  0  0  0  0  0  0  0  0  0
  148.9191  138.4345  156.1860 C   0  0  0  0  0  0  0  0  0  0  0  0
  147.6789  131.9601  151.8772 H   0  0  0  0  0  0  0  0  0  0  0  0
  145.9421  131.8451  151.5833 H   0  0  0  0  0  0  0  0  0  0  0  0
  146.5793  131.7084  153.2332 H   0  0  0  0  0  0  0  0  0  0  0  0
  145.1573  133.6199  153.9488 H   0  0  0  0  0  0  0  0  0  0  0  0
  144.4372  132.6576  151.5342 H   0  0  0  0  0  0  0  0  0  0  0  0
  143.2976  133.6281  152.4614 H   0  0  0  0  0  0  0  0  0  0  0  0
  145.0951  134.5811  150.2108 H   0  0  0  0  0  0  0  0  0  0  0  0
  143.3550  134.8120  150.3509 H   0  0  0  0  0  0  0  0  0  0  0  0
  145.1451  136.7453  151.1262 H   0  0  0  0  0  0  0  0  0  0  0  0
  143.6223  136.5261  151.9666 H   0  0  0  0  0  0  0  0  0  0  0  0
  144.6472  135.8981  153.8518 H   0  0  0  0  0  0  0  0  0  0  0  0
  147.2690  136.0053  152.4239 H   0  0  0  0  0  0  0  0  0  0  0  0
  148.6847  137.1611  153.1285 H   0  0  0  0  0  0  0  0  0  0  0  0
  149.9320  139.3313  153.0707 H   0  0  0  0  0  0  0  0  0  0  0  0
  152.2525  140.8144  157.1358 H   0  0  0  0  0  0  0  0  0  0  0  0
  149.4991  141.8561  158.1936 H   0  0  0  0  0  0  0  0  0  0  0  0
  151.1484  142.2015  158.9307 H   0  0  0  0  0  0  0  0  0  0  0  0
  151.8745  143.2849  156.7852 H   0  0  0  0  0  0  0  0  0  0  0  0
  150.2232  142.9358  156.0548 H   0  0  0  0  0  0  0  0  0  0  0  0
  148.3126  137.7708  156.7813 H   0  0  0  0  0  0  0  0  0  0  0  0
  1  2  1  0  0  0  0
  1 21  1  0  0  0  0
  1 22  1  0  0  0  0
  1 23  1  0  0  0  0
  2  3  1  0  0  0  0
  3  7  1  0  0  0  0
  3  4  1  0  0  0  0
  3 24  1  0  0  0  0
  4  5  1  0  0  0  0
  4 25  1  0  0  0  0
  4 26  1  0  0  0  0
  5  6  1  0  0  0  0
  5 27  1  0  0  0  0
  5 28  1  0  0  0  0
  6  7  1  0  0  0  0
  6 29  1  0  0  0  0
  6 30  1  0  0  0  0
  7  8  1  0  0  0  0
  7 31  1  0  0  0  0
  8  9  1  0  0  0  0
  8 32  1  0  0  0  0
  9 10  2  0  0  0  0
  9 11  1  0  0  0  0
 11 12  1  0  0  0  0
 11 33  1  0  0  0  0
 12 20  1  0  0  0  0
 12 13  2  0  0  0  0
 13 14  1  0  0  0  0
 13 34  1  0  0  0  0
 14 15  2  0  0  0  0
 15 16  1  0  0  0  0
 15 19  1  0  0  0  0
 16 18  1  0  0  0  0
 16 17  1  0  0  0  0
 16 35  1  0  0  0  0
 17 18  1  0  0  0  0
 17 36  1  0  0  0  0
 17 37  1  0  0  0  0
 18 38  1  0  0  0  0
 18 39  1  0  0  0  0
 19 20  2  0  0  0  0
 20 40  1  0  0  0  0
M  END
> <s_m_source_file>
AV-unprocessed.smi

> <i_m_source_file_index>
2709

> <i_lp_mmshare_version>
43012

> <i_f3d_flags>
0

> <s_epik_input>
W0NIM11PW0NAQEhdMVtDSDJdW0NIMl1bQ0gyXVtDQEhdMVtOSF1DKD1PKVtOSF1jMltjSF1uYyhuW2NIXTIpW0NIXTNbQ0gyXVtDSDJdMw==

> <s_epik_cmdline>
J2VwaWtfcHl0aG9uJywgJy1waCcsICc3LjAnLCAnLXRuJywgJzgnLCAnLW1hJywgJzIwMCcsICctbWV0YWxfYmluZGluZycsICctaW1hZScsICc8aW5maWxlLm1hZT4nLCAnLW9tYWUnLCAnPG91dGZpbGUubWFlPic=

> <r_lp_tautomer_probability>
1

> <r_epik_Ionization_Penalty>
2.49969e-05

> <r_epik_Ionization_Penalty_Charging>
0

> <r_epik_Ionization_Penalty_Neutral>
2.49969e-05

> <r_epik_State_Penalty>
-0

> <r_epik_Charging_Adjusted_Penalty>
0

> <i_epik_Tot_Q>
0

> <i_epik_Tot_abs_Q>
0

> <r_epik_Metal_State_Penalty>
-0

> <b_epik_Metal_Only>
0

> <s_lp_Force_Field>
OPLS_2005

> <r_lp_Energy>
20.8159

> <b_lp_Chiralities_Consistent>
1

> <s_lp_Variant>
AV-unprocessed.smi:2709-3

> <Gold.Version>
5.8.1

> <Gold.Id.Protein>
6NUR|6NUR_protein|mol2

> <Gold.PLP.Fitness>
35.3566

> <Gold.PLP.PLP>
-24.2170

> <Gold.PLP.part.hbond>
-3.0000

> <Gold.PLP.part.metal>
0.0000

> <Gold.PLP.part.buried>
-2.4559

> <Gold.PLP.part.nonpolar>
-19.2409

> <Gold.PLP.part.repulsive>
0.2209

> <Gold.PLP.ligand.clash>
0.0000

> <Gold.PLP.ligand.torsion>
0.4366

> <Gold.PLP.Chemscore.Hbond>
2.9600

> <Gold.PLP.Chemscore.CHOScore>
1.0000

> <Gold.PLP.Chemscore.Metal>
0.0000

> <Gold.Chemscore.Hbonds>
donor molecule, donor type, donor heavy atom, donor atom, acceptor molecule, acceptor atom, score
      L1  H     8    32       P1  7948  0.94
      L1  H    11    33       P1  7948  1.00
      P1  H  7989  7998       L1    14  1.00
      L1  C    13    34       P1  7957  1.00

> <Gold.PLP.Chemscore.Internal.Correction>
0.1328

> <Gold.Rescore>
     Score         DG    S(hbond)    S(metal)    S(lipo)     H(rot)  DE(clash)    DE(int)     intcor
     16.28     -16.81       2.38        0.00      59.91       1.41       0.11       0.42       ----

> <Gold.Chemscore.Fitness>
16.2807

> <Gold.Chemscore.DG>
-16.8105

> <Gold.Chemscore.ZeroCoef>
-5.4800

> <Gold.Chemscore.Hbond>
2.3756

> <Gold.Chemscore.Metal>
0.0000

> <Gold.Chemscore.Lipo>
59.9069

> <Gold.Chemscore.Internal_Hbond>
0.0000

> <Gold.Chemscore.DEClash>
0.1081

> <Gold.Chemscore.DEInternal>
0.4217

> <Gold.Chemscore.Rot>
1.4114

> <Gold.Chemscore.Internal.Correction>
   9.000000E+99

> <Gold.Chemscore.Hbonds>
donor molecule, donor type, donor heavy atom, donor atom, acceptor molecule, acceptor atom, score
      L1  H     8    32       P1  7948  0.91
      L1  H    11    33       P1  7948  0.97
      P1  H  7989  7998       L1    14  0.25

> <Gold.Chemscore.Hbond.Weighted>
-7.9346

> <Gold.Chemscore.Metal.Weighted>
-0.0000

> <Gold.Chemscore.Lipo.Weighted>
-7.0091

> <Gold.Chemscore.Internal_Hbond.Weighted>
0.0000

> <Gold.Chemscore.DEClash.Weighted>
0.1081

> <Gold.Chemscore.DEInternal.Weighted>
0.4217

> <Gold.Chemscore.Rot.Weighted>
3.6133

> <Gold.Chemscore.Internal.Correction.Weighted>
   9.000000E+99

> <Gold.Protein.RotatedTorsions>
[ 6907 6896 6895 6894 ] final -100.35 input  -60.11 | X-H torsion
[ 7974 7965 7964 7962 ] final  -74.50 input  175.53 | X-H torsion
[ 8008 7997 7996 7995 ] final -126.13 input   59.86 | X-H torsion
[ 10167 10162 10161 10158 ] final  122.87 input  -65.29 | X-H torsion
[ 10718 10713 10712 10709 ] final   11.46 input   66.30 | X-H torsion
[ 10763 10752 10751 10750 ] final   59.36 input  -60.55 | X-H torsion
[ 11005 11000 10999 10996 ] final   76.58 input  -57.11 | X-H torsion

> <Gold.Protein.ActiveResidues>
 VAL166  LYS551  ARG553  GLY616  TRP617  ASP618  TYR619  PRO620  LYS621  CYS622 
 ASP623  PHE694  ASN695  SER759  ASP760  ASP761  ALA762  ILE779  LEU786  VAL792 
 PHE793  MET794  SER795  GLU796  ALA797  LYS798  CYS799  TRP800  GLU811  SER814 

> <Gold.Protein.RotatedAtoms>
  150.7113  134.0900  159.3927 H   0  0  0  0  0  0  0  0  0  0  0  0  # atno 6907 bound_to 6896
  151.8885  135.0423  160.0505 H   0  0  0  0  0  0  0  0  0  0  0  0  # atno 6908 bound_to 6896
  152.2510  133.5180  159.5362 H   0  0  0  0  0  0  0  0  0  0  0  0  # atno 6909 bound_to 6896
  145.6383  140.9318  143.1049 H   0  0  0  0  0  0  0  0  0  0  0  0  # atno 7974 bound_to 7965
  155.2247  140.0423  157.2953 H   0  0  0  0  0  0  0  0  0  0  0  0  # atno 8008 bound_to 7997
  154.5927  140.2431  155.7870 H   0  0  0  0  0  0  0  0  0  0  0  0  # atno 8009 bound_to 7997
  156.2270  140.2951  156.0100 H   0  0  0  0  0  0  0  0  0  0  0  0  # atno 8010 bound_to 7997
  139.5833  144.6995  151.3473 H   0  0  0  0  0  0  0  0  0  0  0  0  # atno 10167 bound_to 10162
  156.9958  130.6060  149.5691 H   0  0  0  0  0  0  0  0  0  0  0  0  # atno 10718 bound_to 10713
  152.9892  135.5574  154.5701 H   0  0  0  0  0  0  0  0  0  0  0  0  # atno 10763 bound_to 10752
  154.5103  135.2802  155.1350 H   0  0  0  0  0  0  0  0  0  0  0  0  # atno 10764 bound_to 10752
  154.2745  135.6356  153.5376 H   0  0  0  0  0  0  0  0  0  0  0  0  # atno 10765 bound_to 10752
  139.9292  134.7612  156.1413 H   0  0  0  0  0  0  0  0  0  0  0  0  # atno 11005 bound_to 11000
  144.7167  139.8172  143.7396 LP  0  0  0  0  0  0  0  0  0  0  0  0  # atno 17320 bound_to 7965
  146.1301  139.4335  143.0174 LP  0  0  0  0  0  0  0  0  0  0  0  0  # atno 17321 bound_to 7965
  140.7108  143.7395  150.7564 LP  0  0  0  0  0  0  0  0  0  0  0  0  # atno 17342 bound_to 10162
  140.0933  143.4857  152.2466 LP  0  0  0  0  0  0  0  0  0  0  0  0  # atno 17343 bound_to 10162
  156.0189  130.5284  150.8219 LP  0  0  0  0  0  0  0  0  0  0  0  0  # atno 17370 bound_to 10713
  157.5426  131.0941  150.9807 LP  0  0  0  0  0  0  0  0  0  0  0  0  # atno 17371 bound_to 10713
  141.0870  133.6730  156.2457 LP  0  0  0  0  0  0  0  0  0  0  0  0  # atno 17394 bound_to 11000
  140.6250  134.5323  157.5552 LP  0  0  0  0  0  0  0  0  0  0  0  0  # atno 17395 bound_to 11000

$$$$
