AV-unprocessed.smi:2613|AV-procd|sdf|10213|dock1
  -GOLD-   2272014223D 1   1.00000     0.00000
 Structure written by MMmdl.
 28 29  0  0  0  0  0  0  0  0  3 V2000
  151.4800  145.1980  159.1081 C   0  0  0  0  0  0  0  0  0  0  0  0
  151.6289  143.8453  158.4977 C   0  0  0  0  0  0  0  0  0  0  0  0
  151.1549  143.4563  157.2805 N   0  3  0  0  0  0  0  0  0  0  0  0
  151.4823  142.1189  157.0521 C   0  0  0  0  0  0  0  0  0  0  0  0
  151.2174  141.2901  155.9678 C   0  0  0  0  0  0  0  0  0  0  0  0
  151.6874  139.9563  156.0412 C   0  0  0  0  0  0  0  0  0  0  0  0
  151.4280  139.0097  154.9007 C   0  0  0  0  0  0  0  0  0  0  0  0
  150.8156  139.4291  153.8938 O   0  0  0  0  0  0  0  0  0  0  0  0
  151.8350  137.8302  154.9939 O   0  5  0  0  0  0  0  0  0  0  0  0
  152.3972  139.5130  157.1839 C   0  0  0  0  0  0  0  0  0  0  0  0
  152.6610  140.3636  158.2776 C   0  0  0  0  0  0  0  0  0  0  0  0
  152.1897  141.6706  158.1842 C   0  0  0  0  0  0  0  0  0  0  0  0
  152.2587  142.7687  159.0482 N   0  0  0  0  0  0  0  0  0  0  0  0
  152.9429  142.6263  160.3393 C   0  0  0  0  0  0  0  0  0  0  0  0
  152.2422  143.4226  161.4486 C   0  0  0  0  0  0  0  0  0  0  0  0
  151.6788  142.5313  162.3852 O   0  0  0  0  0  0  0  0  0  0  0  0
  150.8640  145.8383  158.4763 H   0  0  0  0  0  0  0  0  0  0  0  0
  152.4575  145.6652  159.2284 H   0  0  0  0  0  0  0  0  0  0  0  0
  151.0083  145.1187  160.0878 H   0  0  0  0  0  0  0  0  0  0  0  0
  150.6736  141.6508  155.1066 H   0  0  0  0  0  0  0  0  0  0  0  0
  152.7534  138.4940  157.2342 H   0  0  0  0  0  0  0  0  0  0  0  0
  153.2024  140.0045  159.1401 H   0  0  0  0  0  0  0  0  0  0  0  0
  153.0057  141.5667  160.5900 H   0  0  0  0  0  0  0  0  0  0  0  0
  153.9682  142.9759  160.2123 H   0  0  0  0  0  0  0  0  0  0  0  0
  152.9506  144.0748  161.9604 H   0  0  0  0  0  0  0  0  0  0  0  0
  151.4528  144.0531  161.0385 H   0  0  0  0  0  0  0  0  0  0  0  0
  152.2958  141.8340  162.5483 H   0  0  0  0  0  0  0  0  0  0  0  0
  150.6429  144.0621  156.6521 H   0  0  0  0  0  0  0  0  0  0  0  0
  1  2  1  0  0  0  0
  1 17  1  0  0  0  0
  1 18  1  0  0  0  0
  1 19  1  0  0  0  0
  2 13  1  0  0  0  0
  2  3  2  0  0  0  0
  3  4  1  0  0  0  0
  3 28  1  0  0  0  0
  4 12  2  0  0  0  0
  4  5  1  0  0  0  0
  5  6  2  0  0  0  0
  5 20  1  0  0  0  0
  6  7  1  0  0  0  0
  6 10  1  0  0  0  0
  7  8  2  0  0  0  0
  7  9  1  0  0  0  0
 10 11  2  0  0  0  0
 10 21  1  0  0  0  0
 11 12  1  0  0  0  0
 11 22  1  0  0  0  0
 12 13  1  0  0  0  0
 13 14  1  0  0  0  0
 14 15  1  0  0  0  0
 14 23  1  0  0  0  0
 14 24  1  0  0  0  0
 15 16  1  0  0  0  0
 15 25  1  0  0  0  0
 15 26  1  0  0  0  0
 16 27  1  0  0  0  0
M  CHG  1   3   1
M  CHG  1   9  -1
M  END
> <s_m_source_file>
AV-unprocessed.smi

> <i_m_source_file_index>
2613

> <i_lp_mmshare_version>
43012

> <i_f3d_flags>
0

> <s_epik_input>
W09IXVtDSDJdW0NIMl1uKGMobjEpW0NIM10pYyhjMTIpW2NIXVtjSF1jKFtjSF0yKUMoPU8pW09IXQ==

> <s_epik_cmdline>
J2VwaWtfcHl0aG9uJywgJy1waCcsICc3LjAnLCAnLXRuJywgJzgnLCAnLW1hJywgJzIwMCcsICctbWV0YWxfYmluZGluZycsICctaW1hZScsICc8aW5maWxlLm1hZT4nLCAnLW9tYWUnLCAnPG91dGZpbGUubWFlPic=

> <r_epik_Ionization_Penalty>
0.929425

> <r_epik_Ionization_Penalty_Charging>
0.929425

> <r_epik_Ionization_Penalty_Neutral>
5.76694e-08

> <r_epik_State_Penalty>
0.971794

> <r_epik_Charging_Adjusted_Penalty>
1.90122

> <i_epik_Tot_Q>
0

> <i_epik_Tot_abs_Q>
2

> <r_epik_Metal_State_Penalty>
4.93694

> <b_epik_Metal_Only>
0

> <s_lp_Force_Field>
OPLS_2005

> <r_lp_Energy>
5.88702

> <b_lp_Chiralities_Consistent>
1

> <s_lp_Variant>
AV-unprocessed.smi:2613-2

> <Gold.Version>
5.8.1

> <Gold.Id.Protein>
6NUR|6NUR_protein|mol2

> <Gold.PLP.Fitness>
49.9735

> <Gold.PLP.PLP>
-39.3597

> <Gold.PLP.part.hbond>
-4.0000

> <Gold.PLP.part.metal>
0.0000

> <Gold.PLP.part.buried>
-6.2537

> <Gold.PLP.part.nonpolar>
-29.5918

> <Gold.PLP.part.repulsive>
0.4197

> <Gold.PLP.ligand.clash>
0.0000

> <Gold.PLP.ligand.torsion>
0.6945

> <Gold.PLP.Chemscore.Hbond>
4.0000

> <Gold.PLP.Chemscore.CHOScore>
0.0000

> <Gold.PLP.Chemscore.Metal>
0.0000

> <Gold.Chemscore.Hbonds>
donor molecule, donor type, donor heavy atom, donor atom, acceptor molecule, acceptor atom, score
      L1  H     3    28       P1  8028  1.66
      P1  H  6933  6945       L1    16  1.00
      P1  H  7989  7998       L1     8  1.00

> <Gold.PLP.Chemscore.Internal.Correction>
0.0028

> <Gold.Rescore>
     Score         DG    S(hbond)    S(metal)    S(lipo)     H(rot)  DE(clash)    DE(int)     intcor
     17.65     -19.05       2.79        0.00      77.07       1.86       0.68       0.73       ----

> <Gold.Chemscore.Fitness>
17.6519

> <Gold.Chemscore.DG>
-19.0547

> <Gold.Chemscore.ZeroCoef>
-5.4800

> <Gold.Chemscore.Hbond>
2.7886

> <Gold.Chemscore.Metal>
0.0000

> <Gold.Chemscore.Lipo>
77.0675

> <Gold.Chemscore.Internal_Hbond>
0.0000

> <Gold.Chemscore.DEClash>
0.6777

> <Gold.Chemscore.DEInternal>
0.7251

> <Gold.Chemscore.Rot>
1.8579

> <Gold.Chemscore.Internal.Correction>
   9.000000E+99

> <Gold.Chemscore.Hbonds>
donor molecule, donor type, donor heavy atom, donor atom, acceptor molecule, acceptor atom, score
      L1  H     3    28       P1  8028  0.79
      P1  H  6933  6945       L1    16  0.59
      P1  H  7989  7998       L1     8  0.44

> <Gold.Chemscore.Hbond.Weighted>
-9.3139

> <Gold.Chemscore.Metal.Weighted>
-0.0000

> <Gold.Chemscore.Lipo.Weighted>
-9.0169

> <Gold.Chemscore.Internal_Hbond.Weighted>
0.0000

> <Gold.Chemscore.DEClash.Weighted>
0.6777

> <Gold.Chemscore.DEInternal.Weighted>
0.7251

> <Gold.Chemscore.Rot.Weighted>
4.7561

> <Gold.Chemscore.Internal.Correction.Weighted>
   9.000000E+99

> <Gold.Protein.RotatedTorsions>
[ 6907 6896 6895 6894 ] final  104.85 input  -60.11 | X-H torsion
[ 7974 7965 7964 7962 ] final -141.97 input  175.53 | X-H torsion
[ 8008 7997 7996 7995 ] final  162.31 input   59.86 | X-H torsion
[ 10167 10162 10161 10158 ] final -168.73 input  -65.29 | X-H torsion
[ 10718 10713 10712 10709 ] final   62.12 input   66.30 | X-H torsion
[ 10763 10752 10751 10750 ] final -120.77 input  -60.55 | X-H torsion
[ 11005 11000 10999 10996 ] final -156.15 input  -57.11 | X-H torsion

> <Gold.Protein.ActiveResidues>
 VAL166  LYS551  ARG553  GLY616  TRP617  ASP618  TYR619  PRO620  LYS621  CYS622 
 ASP623  PHE694  ASN695  SER759  ASP760  ASP761  ALA762  ILE779  LEU786  VAL792 
 PHE793  MET794  SER795  GLU796  ALA797  LYS798  CYS799  TRP800  GLU811  SER814 

> <Gold.Protein.RotatedAtoms>
  152.5250  133.9615  159.7719 H   0  0  0  0  0  0  0  0  0  0  0  0  # atno 6907 bound_to 6896
  150.9905  133.6146  159.2716 H   0  0  0  0  0  0  0  0  0  0  0  0  # atno 6908 bound_to 6896
  151.3292  135.0843  159.9385 H   0  0  0  0  0  0  0  0  0  0  0  0  # atno 6909 bound_to 6896
  144.8479  140.6015  143.5409 H   0  0  0  0  0  0  0  0  0  0  0  0  # atno 7974 bound_to 7965
  156.2040  140.1754  156.7838 H   0  0  0  0  0  0  0  0  0  0  0  0  # atno 8008 bound_to 7997
  154.5630  140.0696  156.8879 H   0  0  0  0  0  0  0  0  0  0  0  0  # atno 8009 bound_to 7997
  155.2812  140.3349  155.4260 H   0  0  0  0  0  0  0  0  0  0  0  0  # atno 8010 bound_to 7997
  139.5966  144.1098  152.1696 H   0  0  0  0  0  0  0  0  0  0  0  0  # atno 10167 bound_to 10162
  157.5877  130.9032  149.9547 H   0  0  0  0  0  0  0  0  0  0  0  0  # atno 10718 bound_to 10713
  154.8652  135.4191  154.2513 H   0  0  0  0  0  0  0  0  0  0  0  0  # atno 10763 bound_to 10752
  153.3459  135.6996  153.6834 H   0  0  0  0  0  0  0  0  0  0  0  0  # atno 10764 bound_to 10752
  153.5793  135.3576  155.2841 H   0  0  0  0  0  0  0  0  0  0  0  0  # atno 10765 bound_to 10752
  140.6787  134.4168  157.5228 H   0  0  0  0  0  0  0  0  0  0  0  0  # atno 11005 bound_to 11000
  145.4560  139.1518  143.3892 LP  0  0  0  0  0  0  0  0  0  0  0  0  # atno 17320 bound_to 7965
  146.2760  140.4688  142.8795 LP  0  0  0  0  0  0  0  0  0  0  0  0  # atno 17321 bound_to 7965
  140.0685  144.5799  150.7209 LP  0  0  0  0  0  0  0  0  0  0  0  0  # atno 17342 bound_to 10162
  140.7217  143.2595  151.4256 LP  0  0  0  0  0  0  0  0  0  0  0  0  # atno 17343 bound_to 10162
  156.0928  130.3662  150.0362 LP  0  0  0  0  0  0  0  0  0  0  0  0  # atno 17370 bound_to 10713
  156.8490  130.9452  151.3627 LP  0  0  0  0  0  0  0  0  0  0  0  0  # atno 17371 bound_to 10713
  139.8958  134.8673  156.2113 LP  0  0  0  0  0  0  0  0  0  0  0  0  # atno 17394 bound_to 11000
  141.0335  133.6976  156.1471 LP  0  0  0  0  0  0  0  0  0  0  0  0  # atno 17395 bound_to 11000

$$$$
