AV-unprocessed.smi:3058|AV-procd|sdf|11676|dock4
  -GOLD-   2272017 83D 1   1.00000     0.00000
 Structure written by MMmdl.
 39 41  0  0  0  0  0  0  0  0  2 V2000
  154.3867  139.2898  157.9667 O   0  0  0  0  0  0  0  0  0  0  0  0
  153.2397  139.5891  158.3001 C   0  0  0  0  0  0  0  0  0  0  0  0
  152.9622  140.3000  159.4052 N   0  0  0  0  0  0  0  0  0  0  0  0
  153.9506  140.8585  160.3259 C   0  0  0  0  0  0  0  0  0  0  0  0
  153.2987  141.6672  161.4657 C   0  0  0  0  0  0  0  0  0  0  0  0
  152.5766  142.9175  160.9916 C   0  0  0  0  0  0  0  0  0  0  0  0
  152.6235  143.3065  159.6340 C   0  0  0  0  0  0  0  0  0  0  0  0
  151.9771  144.4933  159.2316 C   0  0  0  0  0  0  0  0  0  0  0  0
  151.2953  145.2640  160.1954 C   0  0  0  0  0  0  0  0  0  0  0  0
  151.2678  144.8583  161.4838 N   0  3  0  0  0  0  0  0  0  0  0  0
  151.8735  143.7280  161.9091 C   0  0  0  0  0  0  0  0  0  0  0  0
  152.0356  139.1878  157.4310 C   0  0  1  0  0  0  0  0  0  0  0  0
  151.3306  140.4033  156.7783 C   0  0  0  0  0  0  0  0  0  0  0  0
  151.3394  140.0525  155.2773 C   0  0  2  0  0  0  0  0  0  0  0  0
  150.3865  138.8690  155.0216 C   0  0  0  0  0  0  0  0  0  0  0  0
  151.1533  137.6778  155.6289 C   0  0  0  0  0  0  0  0  0  0  0  0
  152.4241  138.3460  156.1887 C   0  0  1  0  0  0  0  0  0  0  0  0
  152.7027  139.3955  155.1124 C   0  0  0  0  0  0  0  0  0  0  0  0
  151.9921  140.4946  159.6087 H   0  0  0  0  0  0  0  0  0  0  0  0
  154.5276  140.0353  160.7475 H   0  0  0  0  0  0  0  0  0  0  0  0
  154.6662  141.4814  159.7864 H   0  0  0  0  0  0  0  0  0  0  0  0
  152.5951  141.0332  162.0069 H   0  0  0  0  0  0  0  0  0  0  0  0
  154.0610  141.9573  162.1895 H   0  0  0  0  0  0  0  0  0  0  0  0
  153.1601  142.7110  158.9099 H   0  0  0  0  0  0  0  0  0  0  0  0
  152.0085  144.8105  158.1995 H   0  0  0  0  0  0  0  0  0  0  0  0
  150.7766  146.1861  159.9766 H   0  0  0  0  0  0  0  0  0  0  0  0
  151.7918  143.5167  162.9654 H   0  0  0  0  0  0  0  0  0  0  0  0
  151.3296  138.6316  158.0505 H   0  0  0  0  0  0  0  0  0  0  0  0
  150.3177  140.5410  157.1585 H   0  0  0  0  0  0  0  0  0  0  0  0
  151.8697  141.3367  156.9506 H   0  0  0  0  0  0  0  0  0  0  0  0
  151.1585  140.9085  154.6263 H   0  0  0  0  0  0  0  0  0  0  0  0
  149.4107  139.0175  155.4860 H   0  0  0  0  0  0  0  0  0  0  0  0
  150.2295  138.7183  153.9529 H   0  0  0  0  0  0  0  0  0  0  0  0
  150.5790  137.1570  156.3960 H   0  0  0  0  0  0  0  0  0  0  0  0
  151.4074  136.9527  154.8547 H   0  0  0  0  0  0  0  0  0  0  0  0
  153.2413  137.6445  156.3620 H   0  0  0  0  0  0  0  0  0  0  0  0
  152.8575  138.9662  154.1207 H   0  0  0  0  0  0  0  0  0  0  0  0
  153.5344  140.0632  155.3377 H   0  0  0  0  0  0  0  0  0  0  0  0
  150.7725  145.4330  162.1663 H   0  0  0  0  0  0  0  0  0  0  0  0
  1  2  2  0  0  0  0
  2  3  1  0  0  0  0
  2 12  1  0  0  0  0
  3  4  1  0  0  0  0
  3 19  1  0  0  0  0
  4  5  1  0  0  0  0
  4 20  1  0  0  0  0
  4 21  1  0  0  0  0
  5  6  1  0  0  0  0
  5 22  1  0  0  0  0
  5 23  1  0  0  0  0
  6 11  1  0  0  0  0
  6  7  2  0  0  0  0
  7  8  1  0  0  0  0
  7 24  1  0  0  0  0
  8  9  2  0  0  0  0
  8 25  1  0  0  0  0
  9 10  1  0  0  0  0
  9 26  1  0  0  0  0
 10 11  2  0  0  0  0
 10 39  1  0  0  0  0
 11 27  1  0  0  0  0
 12 17  1  0  0  0  0
 12 13  1  0  0  0  0
 12 28  1  0  0  0  0
 13 14  1  0  0  0  0
 13 29  1  0  0  0  0
 13 30  1  0  0  0  0
 14 18  1  0  0  0  0
 14 15  1  0  0  0  0
 14 31  1  0  0  0  0
 15 16  1  0  0  0  0
 15 32  1  0  0  0  0
 15 33  1  0  0  0  0
 16 17  1  0  0  0  0
 16 34  1  0  0  0  0
 16 35  1  0  0  0  0
 17 18  1  0  0  0  0
 17 36  1  0  0  0  0
 18 37  1  0  0  0  0
 18 38  1  0  0  0  0
M  CHG  1  10   1
M  END
> <s_m_source_file>
AV-unprocessed.smi

> <i_m_source_file_index>
3058

> <i_lp_mmshare_version>
43012

> <i_f3d_flags>
0

> <s_epik_input>
W0NIMl0xW0NIMl1bQ0BIXShbQ0gyXTIpW0NAQEhdKFtDSDJdW0NAQEhdMTIpQyg9TylbTkhdW0NIMl1bQ0gyXWMzW2NIXVtjSF1bY0hdbltjSF0z

> <s_epik_cmdline>
J2VwaWtfcHl0aG9uJywgJy1waCcsICc3LjAnLCAnLXRuJywgJzgnLCAnLW1hJywgJzIwMCcsICctbWV0YWxfYmluZGluZycsICctaW1hZScsICc8aW5maWxlLm1hZT4nLCAnLW9tYWUnLCAnPG91dGZpbGUubWFlPic=

> <r_epik_Ionization_Penalty>
2.24375

> <r_epik_Ionization_Penalty_Charging>
2.24375

> <r_epik_Ionization_Penalty_Neutral>
1.89995e-08

> <r_epik_State_Penalty>
2.39035

> <r_epik_Charging_Adjusted_Penalty>
4.63411

> <i_epik_Tot_Q>
1

> <i_epik_Tot_abs_Q>
1

> <r_epik_Metal_State_Penalty>
2.40369

> <b_epik_Metal_Only>
0

> <s_lp_Force_Field>
OPLS_2005

> <r_lp_Energy>
53.8629

> <b_lp_Chiralities_Consistent>
1

> <s_lp_Variant>
AV-unprocessed.smi:3058-8

> <Gold.Version>
5.8.1

> <Gold.Id.Protein>
6NUR|6NUR_protein|mol2

> <Gold.PLP.Fitness>
47.2657

> <Gold.PLP.PLP>
-44.7433

> <Gold.PLP.part.hbond>
-2.0000

> <Gold.PLP.part.metal>
0.0000

> <Gold.PLP.part.buried>
-3.2482

> <Gold.PLP.part.nonpolar>
-39.0140

> <Gold.PLP.part.repulsive>
0.2327

> <Gold.PLP.ligand.clash>
0.0000

> <Gold.PLP.ligand.torsion>
0.0756

> <Gold.PLP.Chemscore.Hbond>
0.8800

> <Gold.PLP.Chemscore.CHOScore>
0.0000

> <Gold.PLP.Chemscore.Metal>
0.0000

> <Gold.Chemscore.Hbonds>
donor molecule, donor type, donor heavy atom, donor atom, acceptor molecule, acceptor atom, score
      P1  H  7997  8010       L1     1  0.21

> <Gold.PLP.Chemscore.Internal.Correction>
0.0336

> <Gold.Rescore>
     Score         DG    S(hbond)    S(metal)    S(lipo)     H(rot)  DE(clash)    DE(int)     intcor
     17.10     -18.02       0.70        0.00     118.95       1.45       0.14       0.78       ----

> <Gold.Chemscore.Fitness>
17.1019

> <Gold.Chemscore.DG>
-18.0200

> <Gold.Chemscore.ZeroCoef>
-5.4800

> <Gold.Chemscore.Hbond>
0.7026

> <Gold.Chemscore.Metal>
0.0000

> <Gold.Chemscore.Lipo>
118.9522

> <Gold.Chemscore.Internal_Hbond>
0.0000

> <Gold.Chemscore.DEClash>
0.1423

> <Gold.Chemscore.DEInternal>
0.7758

> <Gold.Chemscore.Rot>
1.4548

> <Gold.Chemscore.Internal.Correction>
   9.000000E+99

> <Gold.Chemscore.Hbonds>
donor molecule, donor type, donor heavy atom, donor atom, acceptor molecule, acceptor atom, score
      P1  H  7997  8010       L1     1  0.20

> <Gold.Chemscore.Hbond.Weighted>
-2.3468

> <Gold.Chemscore.Metal.Weighted>
-0.0000

> <Gold.Chemscore.Lipo.Weighted>
-13.9174

> <Gold.Chemscore.Internal_Hbond.Weighted>
0.0000

> <Gold.Chemscore.DEClash.Weighted>
0.1423

> <Gold.Chemscore.DEInternal.Weighted>
0.7758

> <Gold.Chemscore.Rot.Weighted>
3.7242

> <Gold.Chemscore.Internal.Correction.Weighted>
   9.000000E+99

> <Gold.Protein.RotatedTorsions>
[ 6907 6896 6895 6894 ] final -101.83 input  -60.11 | X-H torsion
[ 7974 7965 7964 7962 ] final   59.34 input  175.53 | X-H torsion
[ 8008 7997 7996 7995 ] final   -3.72 input   59.86 | X-H torsion
[ 10167 10162 10161 10158 ] final -165.70 input  -65.29 | X-H torsion
[ 10718 10713 10712 10709 ] final   99.54 input   66.30 | X-H torsion
[ 10763 10752 10751 10750 ] final  111.09 input  -60.55 | X-H torsion
[ 11005 11000 10999 10996 ] final   33.83 input  -57.11 | X-H torsion

> <Gold.Protein.ActiveResidues>
 VAL166  LYS551  ARG553  GLY616  TRP617  ASP618  TYR619  PRO620  LYS621  CYS622 
 ASP623  PHE694  ASN695  SER759  ASP760  ASP761  ALA762  ILE779  LEU786  VAL792 
 PHE793  MET794  SER795  GLU796  ALA797  LYS798  CYS799  TRP800  GLU811  SER814 

> <Gold.Protein.RotatedAtoms>
  150.7171  134.0674  159.3852 H   0  0  0  0  0  0  0  0  0  0  0  0  # atno 6907 bound_to 6896
  151.8655  135.0506  160.0483 H   0  0  0  0  0  0  0  0  0  0  0  0  # atno 6908 bound_to 6896
  152.2684  133.5324  159.5460 H   0  0  0  0  0  0  0  0  0  0  0  0  # atno 6909 bound_to 6896
  145.9082  139.3634  143.0551 H   0  0  0  0  0  0  0  0  0  0  0  0  # atno 7974 bound_to 7965
  154.6219  140.2502  155.7539 H   0  0  0  0  0  0  0  0  0  0  0  0  # atno 8008 bound_to 7997
  156.2431  140.2925  156.0450 H   0  0  0  0  0  0  0  0  0  0  0  0  # atno 8009 bound_to 7997
  155.1883  140.0391  157.2886 H   0  0  0  0  0  0  0  0  0  0  0  0  # atno 8010 bound_to 7997
  139.6164  144.0711  152.1892 H   0  0  0  0  0  0  0  0  0  0  0  0  # atno 10167 bound_to 10162
  157.6874  131.0672  150.4964 H   0  0  0  0  0  0  0  0  0  0  0  0  # atno 10718 bound_to 10713
  153.4584  135.3728  155.2324 H   0  0  0  0  0  0  0  0  0  0  0  0  # atno 10763 bound_to 10752
  154.8757  135.3902  154.3955 H   0  0  0  0  0  0  0  0  0  0  0  0  # atno 10764 bound_to 10752
  153.4524  135.7086  153.6164 H   0  0  0  0  0  0  0  0  0  0  0  0  # atno 10765 bound_to 10752
  140.2591  134.3213  155.7864 H   0  0  0  0  0  0  0  0  0  0  0  0  # atno 11005 bound_to 11000
  145.8705  140.9423  143.0653 LP  0  0  0  0  0  0  0  0  0  0  0  0  # atno 17320 bound_to 7965
  144.6741  140.0648  143.7475 LP  0  0  0  0  0  0  0  0  0  0  0  0  # atno 17321 bound_to 7965
  140.0342  144.6057  150.7463 LP  0  0  0  0  0  0  0  0  0  0  0  0  # atno 17342 bound_to 10162
  140.7354  143.2740  151.3799 LP  0  0  0  0  0  0  0  0  0  0  0  0  # atno 17343 bound_to 10162
  156.5288  130.4179  149.6212 LP  0  0  0  0  0  0  0  0  0  0  0  0  # atno 17370 bound_to 10713
  156.3088  130.7217  151.2105 LP  0  0  0  0  0  0  0  0  0  0  0  0  # atno 17371 bound_to 10713
  141.2192  133.7399  156.9158 LP  0  0  0  0  0  0  0  0  0  0  0  0  # atno 17394 bound_to 11000
  140.1482  134.9248  157.2558 LP  0  0  0  0  0  0  0  0  0  0  0  0  # atno 17395 bound_to 11000

$$$$
