AV-unprocessed.smi:3290|AV-procd|sdf|12611|dock10
  -GOLD-   2272018543D 1   1.00000     0.00000
 Structure written by MMmdl.
 43 44  0  0  0  0  0  0  0  0  2 V2000
  153.7353  141.2483  160.2637 C   0  0  0  0  0  0  0  0  0  0  0  0
  152.7122  142.3975  160.3176 C   0  0  2  0  0  0  0  0  0  0  0  0
  152.5991  143.0495  158.9229 C   0  0  0  0  0  0  0  0  0  0  0  0
  151.5559  144.1744  158.8935 C   0  0  0  0  0  0  0  0  0  0  0  0
  151.8696  145.2340  159.9549 C   0  0  0  0  0  0  0  0  0  0  0  0
  151.9684  144.5972  161.3477 C   0  0  0  0  0  0  0  0  0  0  0  0
  153.0240  143.4697  161.4045 C   0  0  1  0  0  0  0  0  0  0  0  0
  153.0805  142.8988  162.8397 C   0  0  0  0  0  0  0  0  0  0  0  0
  154.3071  142.1133  163.0830 N   0  3  0  0  0  0  0  0  0  0  0  0
  154.5784  141.8487  164.5101 C   0  0  0  0  0  0  0  0  0  0  0  0
  155.6879  142.7643  165.0551 C   0  0  2  0  0  0  0  0  0  0  0  0
  156.9354  142.3072  164.5689 O   0  0  0  0  0  0  0  0  0  0  0  0
  155.6574  142.8136  166.5747 C   0  0  0  0  0  0  0  0  0  0  0  0
  155.6228  141.6218  167.3288 C   0  0  0  0  0  0  0  0  0  0  0  0
  155.6061  141.7138  168.7351 C   0  0  0  0  0  0  0  0  0  0  0  0
  155.6244  142.8877  169.4014 N   0  0  0  0  0  0  0  0  0  0  0  0
  155.6592  144.0258  168.6758 C   0  0  0  0  0  0  0  0  0  0  0  0
  155.6783  144.0443  167.2669 C   0  0  0  0  0  0  0  0  0  0  0  0
  154.7503  141.6240  160.1303 H   0  0  0  0  0  0  0  0  0  0  0  0
  153.5220  140.5748  159.4331 H   0  0  0  0  0  0  0  0  0  0  0  0
  153.7112  140.6411  161.1678 H   0  0  0  0  0  0  0  0  0  0  0  0
  151.7422  141.9546  160.5496 H   0  0  0  0  0  0  0  0  0  0  0  0
  153.5694  143.4477  158.6220 H   0  0  0  0  0  0  0  0  0  0  0  0
  152.3329  142.2974  158.1791 H   0  0  0  0  0  0  0  0  0  0  0  0
  151.5302  144.6334  157.9048 H   0  0  0  0  0  0  0  0  0  0  0  0
  150.5625  143.7595  159.0691 H   0  0  0  0  0  0  0  0  0  0  0  0
  152.8078  145.7339  159.7107 H   0  0  0  0  0  0  0  0  0  0  0  0
  151.0976  146.0041  159.9507 H   0  0  0  0  0  0  0  0  0  0  0  0
  152.2102  145.3738  162.0744 H   0  0  0  0  0  0  0  0  0  0  0  0
  150.9926  144.2027  161.6351 H   0  0  0  0  0  0  0  0  0  0  0  0
  153.9901  143.9246  161.1780 H   0  0  0  0  0  0  0  0  0  0  0  0
  153.0726  143.7113  163.5678 H   0  0  0  0  0  0  0  0  0  0  0  0
  152.1971  142.2910  163.0404 H   0  0  0  0  0  0  0  0  0  0  0  0
  154.2134  141.2237  162.6134 H   0  0  0  0  0  0  0  0  0  0  0  0
  153.6576  142.0097  165.0730 H   0  0  0  0  0  0  0  0  0  0  0  0
  154.8541  140.8008  164.6402 H   0  0  0  0  0  0  0  0  0  0  0  0
  155.5409  143.7759  164.6739 H   0  0  0  0  0  0  0  0  0  0  0  0
  157.6092  142.5722  165.1771 H   0  0  0  0  0  0  0  0  0  0  0  0
  155.6101  140.6553  166.8466 H   0  0  0  0  0  0  0  0  0  0  0  0
  155.5795  140.8197  169.3405 H   0  0  0  0  0  0  0  0  0  0  0  0
  155.6751  144.9498  169.2344 H   0  0  0  0  0  0  0  0  0  0  0  0
  155.7101  144.9840  166.7351 H   0  0  0  0  0  0  0  0  0  0  0  0
  155.0942  142.6058  162.6859 H   0  0  0  0  0  0  0  0  0  0  0  0
  1  2  1  0  0  0  0
  1 19  1  0  0  0  0
  1 20  1  0  0  0  0
  1 21  1  0  0  0  0
  2  7  1  0  0  0  0
  2  3  1  0  0  0  0
  2 22  1  0  0  0  0
  3  4  1  0  0  0  0
  3 23  1  0  0  0  0
  3 24  1  0  0  0  0
  4  5  1  0  0  0  0
  4 25  1  0  0  0  0
  4 26  1  0  0  0  0
  5  6  1  0  0  0  0
  5 27  1  0  0  0  0
  5 28  1  0  0  0  0
  6  7  1  0  0  0  0
  6 29  1  0  0  0  0
  6 30  1  0  0  0  0
  7  8  1  0  0  0  0
  7 31  1  0  0  0  0
  8  9  1  0  0  0  0
  8 32  1  0  0  0  0
  8 33  1  0  0  0  0
  9 10  1  0  0  0  0
  9 34  1  0  0  0  0
  9 43  1  0  0  0  0
 10 11  1  0  0  0  0
 10 35  1  0  0  0  0
 10 36  1  0  0  0  0
 11 12  1  0  0  0  0
 11 13  1  0  0  0  0
 11 37  1  0  0  0  0
 12 38  1  0  0  0  0
 13 18  1  0  0  0  0
 13 14  2  0  0  0  0
 14 15  1  0  0  0  0
 14 39  1  0  0  0  0
 15 16  2  0  0  0  0
 15 40  1  0  0  0  0
 16 17  1  0  0  0  0
 17 18  2  0  0  0  0
 17 41  1  0  0  0  0
 18 42  1  0  0  0  0
M  CHG  1   9   1
M  END
> <s_m_source_file>
AV-unprocessed.smi

> <i_m_source_file_index>
3290

> <i_lp_mmshare_version>
43012

> <i_f3d_flags>
0

> <s_epik_input>
W0NIM11bQ0BASF0xW0NIMl1bQ0gyXVtDSDJdW0NIMl1bQ0BIXTFbQ0gyXVtOSF1bQ0gyXVtDQEhdKFtPSF0pYzJbY0hdW2NIXW5bY0hdW2NIXTI=

> <s_epik_cmdline>
J2VwaWtfcHl0aG9uJywgJy1waCcsICc3LjAnLCAnLXRuJywgJzgnLCAnLW1hJywgJzIwMCcsICctbWV0YWxfYmluZGluZycsICctaW1hZScsICc8aW5maWxlLm1hZT4nLCAnLW9tYWUnLCAnPG91dGZpbGUubWFlPic=

> <r_lp_tautomer_probability>
1

> <r_epik_Ionization_Penalty>
0.00420552

> <r_epik_Ionization_Penalty_Charging>
0.00207255

> <r_epik_Ionization_Penalty_Neutral>
0.00213297

> <r_epik_State_Penalty>
-0

> <r_epik_Charging_Adjusted_Penalty>
0.00207255

> <i_epik_Tot_Q>
1

> <i_epik_Tot_abs_Q>
1

> <r_epik_Metal_State_Penalty>
-0

> <b_epik_Metal_Only>
0

> <s_lp_Force_Field>
OPLS_2005

> <r_lp_Energy>
17.3626

> <b_lp_Chiralities_Consistent>
1

> <s_lp_Variant>
AV-unprocessed.smi:3290-1

> <Gold.Version>
5.8.1

> <Gold.Id.Protein>
6NUR|6NUR_protein|mol2

> <Gold.PLP.Fitness>
47.1139

> <Gold.PLP.PLP>
-48.7030

> <Gold.PLP.part.hbond>
-2.0000

> <Gold.PLP.part.metal>
0.0000

> <Gold.PLP.part.buried>
-4.2841

> <Gold.PLP.part.nonpolar>
-41.3350

> <Gold.PLP.part.repulsive>
0.2398

> <Gold.PLP.ligand.clash>
0.0000

> <Gold.PLP.ligand.torsion>
0.8279

> <Gold.PLP.Chemscore.Hbond>
0.0000

> <Gold.PLP.Chemscore.CHOScore>
0.0000

> <Gold.PLP.Chemscore.Metal>
0.0000

> <Gold.PLP.Chemscore.Internal.Correction>
0.0667

> <Gold.Rescore>
     Score         DG    S(hbond)    S(metal)    S(lipo)     H(rot)  DE(clash)    DE(int)     intcor
     14.42     -16.86       0.00        0.00     142.14       2.05       1.83       0.61       ----

> <Gold.Chemscore.Fitness>
14.4224

> <Gold.Chemscore.DG>
-16.8633

> <Gold.Chemscore.ZeroCoef>
-5.4800

> <Gold.Chemscore.Hbond>
0.0000

> <Gold.Chemscore.Metal>
0.0000

> <Gold.Chemscore.Lipo>
142.1434

> <Gold.Chemscore.Internal_Hbond>
0.0000

> <Gold.Chemscore.DEClash>
1.8292

> <Gold.Chemscore.DEInternal>
0.6118

> <Gold.Chemscore.Rot>
2.0498

> <Gold.Chemscore.Internal.Correction>
   9.000000E+99

> <Gold.Chemscore.Hbond.Weighted>
-0.0000

> <Gold.Chemscore.Metal.Weighted>
-0.0000

> <Gold.Chemscore.Lipo.Weighted>
-16.6308

> <Gold.Chemscore.Internal_Hbond.Weighted>
0.0000

> <Gold.Chemscore.DEClash.Weighted>
1.8292

> <Gold.Chemscore.DEInternal.Weighted>
0.6118

> <Gold.Chemscore.Rot.Weighted>
5.2475

> <Gold.Chemscore.Internal.Correction.Weighted>
   9.000000E+99

> <Gold.Protein.RotatedTorsions>
[ 6907 6896 6895 6894 ] final   50.27 input  -60.11 | X-H torsion
[ 7974 7965 7964 7962 ] final   94.10 input  175.53 | X-H torsion
[ 8008 7997 7996 7995 ] final   81.56 input   59.86 | X-H torsion
[ 10167 10162 10161 10158 ] final   83.09 input  -65.29 | X-H torsion
[ 10718 10713 10712 10709 ] final    2.27 input   66.30 | X-H torsion
[ 10763 10752 10751 10750 ] final   53.13 input  -60.55 | X-H torsion
[ 11005 11000 10999 10996 ] final  132.68 input  -57.11 | X-H torsion

> <Gold.Protein.ActiveResidues>
 VAL166  LYS551  ARG553  GLY616  TRP617  ASP618  TYR619  PRO620  LYS621  CYS622 
 ASP623  PHE694  ASN695  SER759  ASP760  ASP761  ALA762  ILE779  LEU786  VAL792 
 PHE793  MET794  SER795  GLU796  ALA797  LYS798  CYS799  TRP800  GLU811  SER814 

> <Gold.Protein.RotatedAtoms>
  152.3000  134.7622  160.0359 H   0  0  0  0  0  0  0  0  0  0  0  0  # atno 6907 bound_to 6896
  151.8138  133.3380  159.3571 H   0  0  0  0  0  0  0  0  0  0  0  0  # atno 6908 bound_to 6896
  150.7269  134.5568  159.5866 H   0  0  0  0  0  0  0  0  0  0  0  0  # atno 6909 bound_to 6896
  145.4701  139.2282  143.2940 H   0  0  0  0  0  0  0  0  0  0  0  0  # atno 7974 bound_to 7965
  155.8988  140.3434  155.6011 H   0  0  0  0  0  0  0  0  0  0  0  0  # atno 8008 bound_to 7997
  155.7524  140.0821  157.2214 H   0  0  0  0  0  0  0  0  0  0  0  0  # atno 8009 bound_to 7997
  154.4041  140.1551  156.2726 H   0  0  0  0  0  0  0  0  0  0  0  0  # atno 8010 bound_to 7997
  139.9219  144.6207  150.8431 H   0  0  0  0  0  0  0  0  0  0  0  0  # atno 10167 bound_to 10162
  156.8606  130.5585  149.5663 H   0  0  0  0  0  0  0  0  0  0  0  0  # atno 10718 bound_to 10713
  152.9793  135.5789  154.4691 H   0  0  0  0  0  0  0  0  0  0  0  0  # atno 10763 bound_to 10752
  154.4256  135.2772  155.1948 H   0  0  0  0  0  0  0  0  0  0  0  0  # atno 10764 bound_to 10752
  154.3679  135.6174  153.5778 H   0  0  0  0  0  0  0  0  0  0  0  0  # atno 10765 bound_to 10752
  139.9805  134.9549  156.9617 H   0  0  0  0  0  0  0  0  0  0  0  0  # atno 11005 bound_to 11000
  146.2402  140.5478  142.8937 LP  0  0  0  0  0  0  0  0  0  0  0  0  # atno 17320 bound_to 7965
  144.7950  140.6106  143.6516 LP  0  0  0  0  0  0  0  0  0  0  0  0  # atno 17321 bound_to 7965
  140.7660  143.3290  151.2451 LP  0  0  0  0  0  0  0  0  0  0  0  0  # atno 17342 bound_to 10162
  139.6854  143.9783  152.2831 LP  0  0  0  0  0  0  0  0  0  0  0  0  # atno 17343 bound_to 10162
  156.0779  130.5796  150.9508 LP  0  0  0  0  0  0  0  0  0  0  0  0  # atno 17370 bound_to 10713
  157.6252  131.0926  150.8547 LP  0  0  0  0  0  0  0  0  0  0  0  0  # atno 17371 bound_to 10713
  140.5106  134.1006  155.7269 LP  0  0  0  0  0  0  0  0  0  0  0  0  # atno 17394 bound_to 11000
  141.1478  133.9024  157.2174 LP  0  0  0  0  0  0  0  0  0  0  0  0  # atno 17395 bound_to 11000

$$$$
