AV-unprocessed.smi:218|AV-procd|sdf|1677|dock7
  -GOLD-   2262020103D 1   1.00000     0.00000
 Structure written by MMmdl.
 54 57  0  0  0  0  0  0  0  0  1 V2000
  149.9192  142.4601  158.6577 C   0  0  0  0  0  0  0  0  0  0  0  0
  151.2228  142.7124  157.8910 C   0  0  0  0  0  0  0  0  0  0  0  0
  151.8903  144.0222  158.3448 C   0  0  0  0  0  0  0  0  0  0  0  0
  150.8804  142.7836  156.5056 O   0  0  0  0  0  0  0  0  0  0  0  0
  150.5465  141.6356  155.8131 C   0  0  0  0  0  0  0  0  0  0  0  0
  149.3132  141.6032  155.1315 C   0  0  0  0  0  0  0  0  0  0  0  0
  148.9600  140.4415  154.4130 C   0  0  0  0  0  0  0  0  0  0  0  0
  147.6459  140.3607  153.6537 C   0  0  0  0  0  0  0  0  0  0  0  0
  147.5232  139.2122  152.7618 N   0  0  0  0  0  0  0  0  0  0  0  0
  147.0087  138.0487  153.2167 C   0  0  0  0  0  0  0  0  0  0  0  0
  147.0971  137.7074  154.5293 N   0  0  0  0  0  0  0  0  0  0  0  0
  146.5772  136.5526  154.9567 C   0  0  0  0  0  0  0  0  0  0  0  0
  145.9349  135.6154  154.2549 N   0  0  0  0  0  0  0  0  0  0  0  0
  145.8408  135.9585  152.9376 C   0  0  0  0  0  0  0  0  0  0  0  0
  146.3488  137.1464  152.3436 C   0  0  0  0  0  0  0  0  0  0  0  0
  146.0714  137.1469  150.9828 N   0  0  0  0  0  0  0  0  0  0  0  0
  145.4348  136.0225  150.7896 C   0  0  0  0  0  0  0  0  0  0  0  0
  145.2509  135.2481  151.9159 N   0  0  0  0  0  0  0  0  0  0  0  0
  144.5722  133.9237  152.0555 C   0  0  1  0  0  0  0  0  0  0  0  0
  143.7767  133.7286  150.9214 O   0  0  0  0  0  0  0  0  0  0  0  0
  144.2388  132.6163  150.1568 C   0  0  1  0  0  0  0  0  0  0  0  0
  144.0681  132.9107  148.6580 C   0  0  0  0  0  0  0  0  0  0  0  0
  142.8465  132.3832  148.1868 O   0  0  0  0  0  0  0  0  0  0  0  0
  145.6864  132.4155  150.6107 C   0  0  2  0  0  0  0  0  0  0  0  0
  146.1597  131.0959  150.4207 O   0  0  0  0  0  0  0  0  0  0  0  0
  145.6272  132.8113  152.0789 C   0  0  2  0  0  0  0  0  0  0  0  0
  145.2250  131.7531  152.9296 O   0  0  0  0  0  0  0  0  0  0  0  0
  149.8520  139.3511  154.4164 C   0  0  0  0  0  0  0  0  0  0  0  0
  151.0590  139.4747  155.1311 C   0  0  0  0  0  0  0  0  0  0  0  0
  151.4050  140.5858  155.8148 N   0  0  0  0  0  0  0  0  0  0  0  0
  143.9782  134.0124  152.9663 H   0  0  0  0  0  0  0  0  0  0  0  0
  143.6309  131.7578  150.4485 H   0  0  0  0  0  0  0  0  0  0  0  0
  146.3405  133.1083  150.0794 H   0  0  0  0  0  0  0  0  0  0  0  0
  146.5866  133.1857  152.4397 H   0  0  0  0  0  0  0  0  0  0  0  0
  150.1015  142.3835  159.7299 H   0  0  0  0  0  0  0  0  0  0  0  0
  149.4512  141.5300  158.3343 H   0  0  0  0  0  0  0  0  0  0  0  0
  149.2029  143.2662  158.4966 H   0  0  0  0  0  0  0  0  0  0  0  0
  151.8834  141.8672  158.0904 H   0  0  0  0  0  0  0  0  0  0  0  0
  152.1169  143.9951  159.4108 H   0  0  0  0  0  0  0  0  0  0  0  0
  151.2387  144.8775  158.1645 H   0  0  0  0  0  0  0  0  0  0  0  0
  152.8265  144.2041  157.8177 H   0  0  0  0  0  0  0  0  0  0  0  0
  148.6556  142.4597  155.1564 H   0  0  0  0  0  0  0  0  0  0  0  0
  146.8102  140.3660  154.3548 H   0  0  0  0  0  0  0  0  0  0  0  0
  147.5461  141.2654  153.0540 H   0  0  0  0  0  0  0  0  0  0  0  0
  148.0367  139.2770  151.8946 H   0  0  0  0  0  0  0  0  0  0  0  0
  146.6918  136.3518  156.0117 H   0  0  0  0  0  0  0  0  0  0  0  0
  145.0799  135.7311  149.8122 H   0  0  0  0  0  0  0  0  0  0  0  0
  144.0595  133.9873  148.4865 H   0  0  0  0  0  0  0  0  0  0  0  0
  144.8941  132.4989  148.0778 H   0  0  0  0  0  0  0  0  0  0  0  0
  142.7145  132.6770  147.2978 H   0  0  0  0  0  0  0  0  0  0  0  0
  147.0875  131.1370  150.2429 H   0  0  0  0  0  0  0  0  0  0  0  0
  144.5238  132.0637  153.4820 H   0  0  0  0  0  0  0  0  0  0  0  0
  149.6224  138.4417  153.8810 H   0  0  0  0  0  0  0  0  0  0  0  0
  151.7666  138.6593  155.1534 H   0  0  0  0  0  0  0  0  0  0  0  0
  1  2  1  0  0  0  0
  1 35  1  0  0  0  0
  1 36  1  0  0  0  0
  1 37  1  0  0  0  0
  2  3  1  0  0  0  0
  2  4  1  0  0  0  0
  2 38  1  0  0  0  0
  3 39  1  0  0  0  0
  3 40  1  0  0  0  0
  3 41  1  0  0  0  0
  4  5  1  0  0  0  0
  5 30  1  0  0  0  0
  5  6  2  0  0  0  0
  6  7  1  0  0  0  0
  6 42  1  0  0  0  0
  7  8  1  0  0  0  0
  7 28  2  0  0  0  0
  8  9  1  0  0  0  0
  8 43  1  0  0  0  0
  8 44  1  0  0  0  0
  9 10  1  0  0  0  0
  9 45  1  0  0  0  0
 10 15  1  0  0  0  0
 10 11  2  0  0  0  0
 11 12  1  0  0  0  0
 12 13  2  0  0  0  0
 12 46  1  0  0  0  0
 13 14  1  0  0  0  0
 14 18  1  0  0  0  0
 14 15  2  0  0  0  0
 15 16  1  0  0  0  0
 16 17  2  0  0  0  0
 17 18  1  0  0  0  0
 17 47  1  0  0  0  0
 18 19  1  0  0  0  0
 19 31  1  0  0  0  0
 19 26  1  0  0  0  0
 19 20  1  0  0  0  0
 20 21  1  0  0  0  0
 21 32  1  0  0  0  0
 21 22  1  0  0  0  0
 21 24  1  0  0  0  0
 22 23  1  0  0  0  0
 22 48  1  0  0  0  0
 22 49  1  0  0  0  0
 23 50  1  0  0  0  0
 24 33  1  0  0  0  0
 24 25  1  0  0  0  0
 24 26  1  0  0  0  0
 25 51  1  0  0  0  0
 26 34  1  0  0  0  0
 26 27  1  0  0  0  0
 27 52  1  0  0  0  0
 28 29  1  0  0  0  0
 28 53  1  0  0  0  0
 29 30  2  0  0  0  0
 29 54  1  0  0  0  0
M  END
> <s_m_source_file>
AV-unprocessed.smi

> <i_m_source_file_index>
218

> <i_lp_mmshare_version>
43012

> <i_f3d_flags>
0

> <s_epik_input>
W0NIM11bQ0hdKFtDSDNdKU9jMVtjSF1jKFtjSF1bY0hdbjEpW0NIMl1bTkhdYyhuW2NIXW4yKWMoYzIzKW5bY0hdbjNbQ0BASF00T1tDQEhdKFtDSDJdW09IXSlbQ0BASF0oW09IXSlbQ0BIXTRbT0hd

> <s_epik_cmdline>
J2VwaWtfcHl0aG9uJywgJy1waCcsICc3LjAnLCAnLXRuJywgJzgnLCAnLW1hJywgJzIwMCcsICctbWV0YWxfYmluZGluZycsICctaW1hZScsICc8aW5maWxlLm1hZT4nLCAnLW9tYWUnLCAnPG91dGZpbGUubWFlPic=

> <r_lp_tautomer_probability>
1

> <r_epik_Ionization_Penalty>
0.00457014

> <r_epik_Ionization_Penalty_Charging>
0

> <r_epik_Ionization_Penalty_Neutral>
0.00457014

> <r_epik_State_Penalty>
-0

> <r_epik_Charging_Adjusted_Penalty>
0

> <i_epik_Tot_Q>
0

> <i_epik_Tot_abs_Q>
0

> <r_epik_Metal_State_Penalty>
-0

> <b_epik_Metal_Only>
0

> <s_epik_Chemistry_Notes>
This compound contains an acetal/aminal-like group ( X-CH(R)-Y where X, Y are N, S, or O) that may be acid/base labile, releasing an aldehyde.

> <s_lp_Force_Field>
OPLS_2005

> <r_lp_Energy>
38.234

> <b_lp_Chiralities_Consistent>
1

> <s_lp_Variant>
AV-unprocessed.smi:218-16

> <Gold.Version>
5.8.1

> <Gold.Id.Protein>
6NUR|6NUR_protein|mol2

> <Gold.PLP.Fitness>
56.2380

> <Gold.PLP.PLP>
-45.6242

> <Gold.PLP.part.hbond>
-6.6172

> <Gold.PLP.part.metal>
0.0000

> <Gold.PLP.part.buried>
1.8091

> <Gold.PLP.part.nonpolar>
-43.1053

> <Gold.PLP.part.repulsive>
3.1707

> <Gold.PLP.ligand.clash>
0.0000

> <Gold.PLP.ligand.torsion>
1.5430

> <Gold.PLP.Chemscore.Hbond>
3.5435

> <Gold.PLP.Chemscore.CHOScore>
1.0000

> <Gold.PLP.Chemscore.Metal>
0.0000

> <Gold.Chemscore.Hbonds>
donor molecule, donor type, donor heavy atom, donor atom, acceptor molecule, acceptor atom, score
      L1  H     9    45       P1  7957  0.86
      L1  H    23    50       P1 10195  0.96
      L1  H    25    51       P1 10747  1.00
      L1  H    27    52       P1 10957  0.21
      P1  H 10785 10796       L1    23  0.20
      L1  C    17    47       P1  7921  0.88

> <Gold.PLP.Chemscore.Internal.Correction>
0.0693

> <Gold.Rescore>
     Score         DG    S(hbond)    S(metal)    S(lipo)     H(rot)  DE(clash)    DE(int)     intcor
      9.30     -15.00       2.89        0.00     106.23       4.90       4.49       1.21       ----

> <Gold.Chemscore.Fitness>
9.3017

> <Gold.Chemscore.DG>
-15.0021

> <Gold.Chemscore.ZeroCoef>
-5.4800

> <Gold.Chemscore.Hbond>
2.8876

> <Gold.Chemscore.Metal>
0.0000

> <Gold.Chemscore.Lipo>
106.2325

> <Gold.Chemscore.Internal_Hbond>
0.0000

> <Gold.Chemscore.DEClash>
4.4928

> <Gold.Chemscore.DEInternal>
1.2077

> <Gold.Chemscore.Rot>
4.9029

> <Gold.Chemscore.Internal.Correction>
   9.000000E+99

> <Gold.Chemscore.Hbonds>
donor molecule, donor type, donor heavy atom, donor atom, acceptor molecule, acceptor atom, score
      L1  H     9    45       P1  7957  0.85
      L1  H    23    50       P1 10195  0.90
      L1  H    25    51       P1 10747  1.00
      L1  H    27    52       P1 10957  0.01
      P1  H  7954  7966       L1    16  0.02
      P1  H 10785 10796       L1    23  0.04

> <Gold.Chemscore.Hbond.Weighted>
-9.6445

> <Gold.Chemscore.Metal.Weighted>
-0.0000

> <Gold.Chemscore.Lipo.Weighted>
-12.4292

> <Gold.Chemscore.Internal_Hbond.Weighted>
0.0000

> <Gold.Chemscore.DEClash.Weighted>
4.4928

> <Gold.Chemscore.DEInternal.Weighted>
1.2077

> <Gold.Chemscore.Rot.Weighted>
12.5515

> <Gold.Chemscore.Internal.Correction.Weighted>
   9.000000E+99

> <Gold.Protein.RotatedTorsions>
[ 6907 6896 6895 6894 ] final  107.30 input  -60.11 | X-H torsion
[ 7974 7965 7964 7962 ] final   34.51 input  175.53 | X-H torsion
[ 8008 7997 7996 7995 ] final  -70.79 input   59.86 | X-H torsion
[ 10167 10162 10161 10158 ] final   63.73 input  -65.29 | X-H torsion
[ 10718 10713 10712 10709 ] final   68.10 input   66.30 | X-H torsion
[ 10763 10752 10751 10750 ] final -138.48 input  -60.55 | X-H torsion
[ 11005 11000 10999 10996 ] final -129.66 input  -57.11 | X-H torsion

> <Gold.Protein.ActiveResidues>
 VAL166  LYS551  ARG553  GLY616  TRP617  ASP618  TYR619  PRO620  LYS621  CYS622 
 ASP623  PHE694  ASN695  SER759  ASP760  ASP761  ALA762  ILE779  LEU786  VAL792 
 PHE793  MET794  SER795  GLU796  ALA797  LYS798  CYS799  TRP800  GLU811  SER814 

> <Gold.Protein.RotatedAtoms>
  152.5160  133.9254  159.7554 H   0  0  0  0  0  0  0  0  0  0  0  0  # atno 6907 bound_to 6896
  150.9617  133.6430  159.2760 H   0  0  0  0  0  0  0  0  0  0  0  0  # atno 6908 bound_to 6896
  151.3673  135.0921  159.9507 H   0  0  0  0  0  0  0  0  0  0  0  0  # atno 6909 bound_to 6896
  146.1347  139.6259  142.9203 H   0  0  0  0  0  0  0  0  0  0  0  0  # atno 7974 bound_to 7965
  154.5038  140.0828  156.7853 H   0  0  0  0  0  0  0  0  0  0  0  0  # atno 8008 bound_to 7997
  155.3940  140.3434  155.4235 H   0  0  0  0  0  0  0  0  0  0  0  0  # atno 8009 bound_to 7997
  156.1490  140.1552  156.8788 H   0  0  0  0  0  0  0  0  0  0  0  0  # atno 8010 bound_to 7997
  140.1298  144.4653  150.6871 H   0  0  0  0  0  0  0  0  0  0  0  0  # atno 10167 bound_to 10162
  157.6269  130.9356  150.0332 H   0  0  0  0  0  0  0  0  0  0  0  0  # atno 10718 bound_to 10713
  154.8636  135.3611  154.5391 H   0  0  0  0  0  0  0  0  0  0  0  0  # atno 10763 bound_to 10752
  153.6014  135.7012  153.5388 H   0  0  0  0  0  0  0  0  0  0  0  0  # atno 10764 bound_to 10752
  153.3288  135.4130  155.1439 H   0  0  0  0  0  0  0  0  0  0  0  0  # atno 10765 bound_to 10752
  140.9413  134.1190  157.4148 H   0  0  0  0  0  0  0  0  0  0  0  0  # atno 11005 bound_to 11000
  145.5181  141.0433  143.2450 LP  0  0  0  0  0  0  0  0  0  0  0  0  # atno 17320 bound_to 7965
  144.7728  139.6697  143.7188 LP  0  0  0  0  0  0  0  0  0  0  0  0  # atno 17321 bound_to 7965
  140.6823  143.2333  151.5351 LP  0  0  0  0  0  0  0  0  0  0  0  0  # atno 17342 bound_to 10162
  139.5525  144.2359  152.1556 LP  0  0  0  0  0  0  0  0  0  0  0  0  # atno 17343 bound_to 10162
  156.1448  130.3642  149.9528 LP  0  0  0  0  0  0  0  0  0  0  0  0  # atno 17370 bound_to 10713
  156.7561  130.9133  151.3639 LP  0  0  0  0  0  0  0  0  0  0  0  0  # atno 17371 bound_to 10713
  139.8821  135.0037  156.6205 LP  0  0  0  0  0  0  0  0  0  0  0  0  # atno 17394 bound_to 11000
  140.7731  133.8722  155.8507 LP  0  0  0  0  0  0  0  0  0  0  0  0  # atno 17395 bound_to 11000

$$$$
