AV-unprocessed.smi:1834|AV-procd|sdf|7469|dock2
  -GOLD-   22720 9163D 1   1.00000     0.00000
 Structure written by MMmdl.
 46 47  0  0  0  0  0  0  0  0  2 V2000
  148.0243  127.9086  152.0286 C   0  0  0  0  0  0  0  0  0  0  0  0
  148.3698  128.8076  153.2249 C   0  0  0  0  0  0  0  0  0  0  0  0
  148.1378  130.2471  152.9437 N   0  3  1  0  0  0  0  0  0  0  0  0
  146.7046  130.5411  152.6886 C   0  0  0  0  0  0  0  0  0  0  0  0
  146.5104  132.0027  152.2605 C   0  0  0  0  0  0  0  0  0  0  0  0
  147.0820  132.9637  153.3096 C   0  0  0  0  0  0  0  0  0  0  0  0
  148.5610  132.6348  153.5974 C   0  0  1  0  0  0  0  0  0  0  0  0
  149.1788  133.5375  154.6871 C   0  0  0  0  0  0  0  0  0  0  0  0
  149.3027  134.9300  154.2631 N   0  0  0  0  0  0  0  0  0  0  0  0
  149.8597  135.9153  154.9834 C   0  0  0  0  0  0  0  0  0  0  0  0
  150.3164  135.7517  156.1149 O   0  0  0  0  0  0  0  0  0  0  0  0
  149.8428  137.0786  154.3095 N   0  0  0  0  0  0  0  0  0  0  0  0
  150.3074  138.2945  154.7024 C   0  0  0  0  0  0  0  0  0  0  0  0
  149.6183  139.3459  155.2428 C   0  0  0  0  0  0  0  0  0  0  0  0
  150.6380  140.3228  155.4362 C   0  0  0  0  0  0  0  0  0  0  0  0
  150.4983  141.7038  156.0056 C   0  0  0  0  0  0  0  0  0  0  0  0
  151.8346  139.8991  155.0451 N   0  0  0  0  0  0  0  0  0  0  0  0
  151.6348  138.6434  154.5899 N   0  0  0  0  0  0  0  0  0  0  0  0
  152.7496  137.8708  154.0779 C   0  0  0  0  0  0  0  0  0  0  0  0
  148.7013  131.1470  153.9861 C   0  0  0  0  0  0  0  0  0  0  0  0
  148.1150  126.8571  152.3024 H   0  0  0  0  0  0  0  0  0  0  0  0
  148.6877  128.0775  151.1811 H   0  0  0  0  0  0  0  0  0  0  0  0
  146.9999  128.0740  151.6941 H   0  0  0  0  0  0  0  0  0  0  0  0
  147.7398  128.4998  154.0604 H   0  0  0  0  0  0  0  0  0  0  0  0
  149.4014  128.6482  153.5421 H   0  0  0  0  0  0  0  0  0  0  0  0
  146.3257  129.8871  151.9022 H   0  0  0  0  0  0  0  0  0  0  0  0
  146.1215  130.3295  153.5865 H   0  0  0  0  0  0  0  0  0  0  0  0
  147.0006  132.1727  151.3010 H   0  0  0  0  0  0  0  0  0  0  0  0
  145.4505  132.2082  152.1067 H   0  0  0  0  0  0  0  0  0  0  0  0
  146.9753  133.9870  152.9493 H   0  0  0  0  0  0  0  0  0  0  0  0
  146.4996  132.8947  154.2297 H   0  0  0  0  0  0  0  0  0  0  0  0
  149.1257  132.7925  152.6768 H   0  0  0  0  0  0  0  0  0  0  0  0
  148.6068  133.4609  155.6135 H   0  0  0  0  0  0  0  0  0  0  0  0
  150.1827  133.1854  154.9265 H   0  0  0  0  0  0  0  0  0  0  0  0
  148.9522  135.1567  153.3437 H   0  0  0  0  0  0  0  0  0  0  0  0
  149.4403  137.0519  153.3843 H   0  0  0  0  0  0  0  0  0  0  0  0
  148.5658  139.4254  155.4698 H   0  0  0  0  0  0  0  0  0  0  0  0
  149.4685  141.9058  156.3010 H   0  0  0  0  0  0  0  0  0  0  0  0
  150.7885  142.4601  155.2760 H   0  0  0  0  0  0  0  0  0  0  0  0
  151.1268  141.8304  156.8874 H   0  0  0  0  0  0  0  0  0  0  0  0
  152.8203  136.9270  154.6193 H   0  0  0  0  0  0  0  0  0  0  0  0
  153.6857  138.4179  154.2005 H   0  0  0  0  0  0  0  0  0  0  0  0
  152.5960  137.6649  153.0181 H   0  0  0  0  0  0  0  0  0  0  0  0
  148.2001  130.9571  154.9369 H   0  0  0  0  0  0  0  0  0  0  0  0
  149.7564  130.9216  154.1382 H   0  0  0  0  0  0  0  0  0  0  0  0
  148.6240  130.4516  152.0823 H   0  0  0  0  0  0  0  0  0  0  0  0
  1  2  1  0  0  0  0
  1 21  1  0  0  0  0
  1 22  1  0  0  0  0
  1 23  1  0  0  0  0
  2  3  1  0  0  0  0
  2 24  1  0  0  0  0
  2 25  1  0  0  0  0
  3 20  1  0  0  0  0
  3  4  1  0  0  0  0
  3 46  1  0  0  0  0
  4  5  1  0  0  0  0
  4 26  1  0  0  0  0
  4 27  1  0  0  0  0
  5  6  1  0  0  0  0
  5 28  1  0  0  0  0
  5 29  1  0  0  0  0
  6  7  1  0  0  0  0
  6 30  1  0  0  0  0
  6 31  1  0  0  0  0
  7  8  1  0  0  0  0
  7 20  1  0  0  0  0
  7 32  1  0  0  0  0
  8  9  1  0  0  0  0
  8 33  1  0  0  0  0
  8 34  1  0  0  0  0
  9 10  1  0  0  0  0
  9 35  1  0  0  0  0
 10 11  2  0  0  0  0
 10 12  1  0  0  0  0
 12 13  1  0  0  0  0
 12 36  1  0  0  0  0
 13 18  1  0  0  0  0
 13 14  2  0  0  0  0
 14 15  1  0  0  0  0
 14 37  1  0  0  0  0
 15 16  1  0  0  0  0
 15 17  2  0  0  0  0
 16 38  1  0  0  0  0
 16 39  1  0  0  0  0
 16 40  1  0  0  0  0
 17 18  1  0  0  0  0
 18 19  1  0  0  0  0
 19 41  1  0  0  0  0
 19 42  1  0  0  0  0
 19 43  1  0  0  0  0
 20 44  1  0  0  0  0
 20 45  1  0  0  0  0
M  CHG  1   3   1
M  END
> <s_m_source_file>
AV-unprocessed.smi

> <i_m_source_file_index>
1834

> <i_lp_mmshare_version>
43012

> <i_f3d_flags>
0

> <s_epik_input>
W0NIM11bQ0gyXU4xW0NIMl1bQ0gyXVtDSDJdW0NASF0oW0NIMl0xKVtDSDJdW05IXUMoPU8pW05IXWMyW2NIXWMoW0NIM10pbm4yW0NIM10=

> <s_epik_cmdline>
J2VwaWtfcHl0aG9uJywgJy1waCcsICc3LjAnLCAnLXRuJywgJzgnLCAnLW1hJywgJzIwMCcsICctbWV0YWxfYmluZGluZycsICctaW1hZScsICc8aW5maWxlLm1hZT4nLCAnLW9tYWUnLCAnPG91dGZpbGUubWFlPic=

> <r_lp_tautomer_probability>
1

> <r_epik_Ionization_Penalty>
0.000466842

> <r_epik_Ionization_Penalty_Charging>
0.000378984

> <r_epik_Ionization_Penalty_Neutral>
8.78572e-05

> <r_epik_State_Penalty>
0.000231434

> <r_epik_Charging_Adjusted_Penalty>
0.000610418

> <i_epik_Tot_Q>
1

> <i_epik_Tot_abs_Q>
1

> <r_epik_Metal_State_Penalty>
-0

> <b_epik_Metal_Only>
0

> <s_lp_Force_Field>
OPLS_2005

> <r_lp_Energy>
20.6354

> <b_lp_Chiralities_Consistent>
1

> <s_lp_Variant>
AV-unprocessed.smi:1834-1

> <Gold.Version>
5.8.1

> <Gold.Id.Protein>
6NUR|6NUR_protein|mol2

> <Gold.PLP.Fitness>
46.0441

> <Gold.PLP.PLP>
-36.1041

> <Gold.PLP.part.hbond>
-4.0000

> <Gold.PLP.part.metal>
0.0000

> <Gold.PLP.part.buried>
-2.9003

> <Gold.PLP.part.nonpolar>
-29.4108

> <Gold.PLP.part.repulsive>
0.1397

> <Gold.PLP.ligand.clash>
0.0000

> <Gold.PLP.ligand.torsion>
0.8179

> <Gold.PLP.Chemscore.Hbond>
3.8470

> <Gold.PLP.Chemscore.CHOScore>
0.0000

> <Gold.PLP.Chemscore.Metal>
0.0000

> <Gold.Chemscore.Hbonds>
donor molecule, donor type, donor heavy atom, donor atom, acceptor molecule, acceptor atom, score
      L1  H     3    46       P1 10747  1.00
      L1  H     9    35       P1  7948  1.00
      L1  H    12    36       P1  7948  1.00
      P1  H  7989  7998       L1    17  0.48

> <Gold.PLP.Chemscore.Internal.Correction>
0.0348

> <Gold.Rescore>
     Score         DG    S(hbond)    S(metal)    S(lipo)     H(rot)  DE(clash)    DE(int)     intcor
     18.78     -21.40       3.11        0.00      78.47       1.43       1.79       0.83       ----

> <Gold.Chemscore.Fitness>
18.7781

> <Gold.Chemscore.DG>
-21.3978

> <Gold.Chemscore.ZeroCoef>
-5.4800

> <Gold.Chemscore.Hbond>
3.1123

> <Gold.Chemscore.Metal>
0.0000

> <Gold.Chemscore.Lipo>
78.4706

> <Gold.Chemscore.Internal_Hbond>
0.0000

> <Gold.Chemscore.DEClash>
1.7936

> <Gold.Chemscore.DEInternal>
0.8260

> <Gold.Chemscore.Rot>
1.4291

> <Gold.Chemscore.Internal.Correction>
   9.000000E+99

> <Gold.Chemscore.Hbonds>
donor molecule, donor type, donor heavy atom, donor atom, acceptor molecule, acceptor atom, score
      L1  H     3    46       P1 10747  0.65
      L1  H     9    35       P1  7948  0.42
      L1  H    12    36       P1  7948  0.88
      P1  H  7989  7998       L1    17  0.01

> <Gold.Chemscore.Hbond.Weighted>
-10.3952

> <Gold.Chemscore.Metal.Weighted>
-0.0000

> <Gold.Chemscore.Lipo.Weighted>
-9.1811

> <Gold.Chemscore.Internal_Hbond.Weighted>
0.0000

> <Gold.Chemscore.DEClash.Weighted>
1.7936

> <Gold.Chemscore.DEInternal.Weighted>
0.8260

> <Gold.Chemscore.Rot.Weighted>
3.6584

> <Gold.Chemscore.Internal.Correction.Weighted>
   9.000000E+99

> <Gold.Protein.RotatedTorsions>
[ 6907 6896 6895 6894 ] final  146.79 input  -60.11 | X-H torsion
[ 7974 7965 7964 7962 ] final   40.36 input  175.53 | X-H torsion
[ 8008 7997 7996 7995 ] final  -11.33 input   59.86 | X-H torsion
[ 10167 10162 10161 10158 ] final   -2.37 input  -65.29 | X-H torsion
[ 10718 10713 10712 10709 ] final  160.06 input   66.30 | X-H torsion
[ 10763 10752 10751 10750 ] final  119.87 input  -60.55 | X-H torsion
[ 11005 11000 10999 10996 ] final  137.63 input  -57.11 | X-H torsion

> <Gold.Protein.ActiveResidues>
 VAL166  LYS551  ARG553  GLY616  TRP617  ASP618  TYR619  PRO620  LYS621  CYS622 
 ASP623  PHE694  ASN695  SER759  ASP760  ASP761  ALA762  ILE779  LEU786  VAL792 
 PHE793  MET794  SER795  GLU796  ALA797  LYS798  CYS799  TRP800  GLU811  SER814 

> <Gold.Protein.RotatedAtoms>
  152.1633  133.4596  159.4871 H   0  0  0  0  0  0  0  0  0  0  0  0  # atno 6907 bound_to 6896
  150.6909  134.2044  159.4344 H   0  0  0  0  0  0  0  0  0  0  0  0  # atno 6908 bound_to 6896
  151.9948  134.9960  160.0613 H   0  0  0  0  0  0  0  0  0  0  0  0  # atno 6909 bound_to 6896
  146.0911  139.5543  142.9475 H   0  0  0  0  0  0  0  0  0  0  0  0  # atno 7974 bound_to 7965
  154.5474  140.2305  155.8540 H   0  0  0  0  0  0  0  0  0  0  0  0  # atno 8008 bound_to 7997
  156.1916  140.3076  155.9304 H   0  0  0  0  0  0  0  0  0  0  0  0  # atno 8009 bound_to 7997
  155.3137  140.0437  157.3027 H   0  0  0  0  0  0  0  0  0  0  0  0  # atno 8010 bound_to 7997
  140.6848  143.6665  150.8222 H   0  0  0  0  0  0  0  0  0  0  0  0  # atno 10167 bound_to 10162
  157.1556  131.0574  151.2258 H   0  0  0  0  0  0  0  0  0  0  0  0  # atno 10718 bound_to 10713
  153.5897  135.3468  155.2906 H   0  0  0  0  0  0  0  0  0  0  0  0  # atno 10763 bound_to 10752
  154.8654  135.4202  154.2530 H   0  0  0  0  0  0  0  0  0  0  0  0  # atno 10764 bound_to 10752
  153.3334  135.7045  153.6999 H   0  0  0  0  0  0  0  0  0  0  0  0  # atno 10765 bound_to 10752
  140.0127  134.9432  157.0311 H   0  0  0  0  0  0  0  0  0  0  0  0  # atno 11005 bound_to 11000
  145.6037  141.0351  143.2004 LP  0  0  0  0  0  0  0  0  0  0  0  0  # atno 17320 bound_to 7965
  144.7361  139.7582  143.7329 LP  0  0  0  0  0  0  0  0  0  0  0  0  # atno 17321 bound_to 7965
  140.0370  143.5384  152.2735 LP  0  0  0  0  0  0  0  0  0  0  0  0  # atno 17342 bound_to 10162
  139.6198  144.7627  151.2765 LP  0  0  0  0  0  0  0  0  0  0  0  0  # atno 17343 bound_to 10162
  157.4180  130.7422  149.6891 LP  0  0  0  0  0  0  0  0  0  0  0  0  # atno 17370 bound_to 10713
  155.9763  130.4078  150.3791 LP  0  0  0  0  0  0  0  0  0  0  0  0  # atno 17371 bound_to 10713
  140.4526  134.1567  155.7183 LP  0  0  0  0  0  0  0  0  0  0  0  0  # atno 17394 bound_to 11000
  141.1722  133.8586  157.1535 LP  0  0  0  0  0  0  0  0  0  0  0  0  # atno 17395 bound_to 11000

$$$$
