AV-unprocessed.smi:255|AV-procd|sdf|1950|dock10
  -GOLD-   2262021 83D 1   1.00000     0.00000
 Structure written by MMmdl.
 44 47  0  0  0  0  0  0  0  0  1 V2000
  152.4194  144.8350  158.4236 O   0  0  0  0  0  0  0  0  0  0  0  0
  151.6711  143.6646  158.6722 C   0  0  0  0  0  0  0  0  0  0  0  0
  152.6142  142.4793  158.9484 C   0  0  1  0  0  0  0  0  0  0  0  0
  153.1839  142.4448  160.3671 C   0  0  0  0  0  0  0  0  0  0  0  0
  153.6494  140.9952  160.4959 C   0  0  2  0  0  0  0  0  0  0  0  0
  154.8879  140.8812  160.0143 F   0  0  0  0  0  0  0  0  0  0  0  0
  152.6865  140.2061  159.5970 C   0  0  0  0  0  0  0  0  0  0  0  0
  151.9455  141.1906  158.8139 N   0  0  0  0  0  0  0  0  0  0  0  0
  151.6415  140.8065  157.5549 C   0  0  0  0  0  0  0  0  0  0  0  0
  152.5551  140.1406  156.8009 N   0  0  0  0  0  0  0  0  0  0  0  0
  152.2422  139.7626  155.5576 C   0  0  0  0  0  0  0  0  0  0  0  0
  151.1007  139.9487  154.8902 N   0  0  0  0  0  0  0  0  0  0  0  0
  150.1877  140.6270  155.6442 C   0  0  0  0  0  0  0  0  0  0  0  0
  150.3751  141.0820  156.9787 C   0  0  0  0  0  0  0  0  0  0  0  0
  149.2278  141.7161  157.4351 N   0  0  0  0  0  0  0  0  0  0  0  0
  148.4036  141.6355  156.4266 C   0  0  0  0  0  0  0  0  0  0  0  0
  148.9039  141.0175  155.3010 N   0  0  0  0  0  0  0  0  0  0  0  0
  148.2007  140.7881  154.0465 C   0  0  0  0  0  0  0  0  0  0  0  0
  147.9718  139.2981  153.6801 C   0  0  1  0  0  0  0  0  0  0  0  0
  149.2465  138.7570  153.3837 O   0  0  0  0  0  0  0  0  0  0  0  0
  147.3453  138.4418  154.7812 C   0  0  0  0  0  0  0  0  0  0  0  0
  146.5873  137.3790  153.9977 C   0  0  0  0  0  0  0  0  0  0  0  0
  146.0523  138.1228  152.9176 O   0  0  0  0  0  0  0  0  0  0  0  0
  147.0475  139.0366  152.4699 C   0  0  0  0  0  0  0  0  0  0  0  0
  153.4465  142.5180  158.2429 H   0  0  0  0  0  0  0  0  0  0  0  0
  153.6644  140.6388  161.5262 H   0  0  0  0  0  0  0  0  0  0  0  0
  151.8305  145.5089  158.1210 H   0  0  0  0  0  0  0  0  0  0  0  0
  150.9984  143.8340  159.5136 H   0  0  0  0  0  0  0  0  0  0  0  0
  151.0500  143.4686  157.7975 H   0  0  0  0  0  0  0  0  0  0  0  0
  153.9843  143.1677  160.5270 H   0  0  0  0  0  0  0  0  0  0  0  0
  152.3962  142.6445  161.0953 H   0  0  0  0  0  0  0  0  0  0  0  0
  153.2201  139.4817  158.9793 H   0  0  0  0  0  0  0  0  0  0  0  0
  151.9721  139.6515  160.2062 H   0  0  0  0  0  0  0  0  0  0  0  0
  153.0171  139.2360  155.0206 H   0  0  0  0  0  0  0  0  0  0  0  0
  147.3995  142.0311  156.4772 H   0  0  0  0  0  0  0  0  0  0  0  0
  147.2423  141.3067  154.0998 H   0  0  0  0  0  0  0  0  0  0  0  0
  148.7652  141.2813  153.2540 H   0  0  0  0  0  0  0  0  0  0  0  0
  149.1274  137.8991  153.0058 H   0  0  0  0  0  0  0  0  0  0  0  0
  148.0711  138.0233  155.4798 H   0  0  0  0  0  0  0  0  0  0  0  0
  146.6213  139.0083  155.3628 H   0  0  0  0  0  0  0  0  0  0  0  0
  147.2618  136.6086  153.6207 H   0  0  0  0  0  0  0  0  0  0  0  0
  145.8034  136.8995  154.5841 H   0  0  0  0  0  0  0  0  0  0  0  0
  146.5618  139.9332  152.0926 H   0  0  0  0  0  0  0  0  0  0  0  0
  147.5890  138.5932  151.6325 H   0  0  0  0  0  0  0  0  0  0  0  0
  1  2  1  0  0  0  0
  1 27  1  0  0  0  0
  2  3  1  0  0  0  0
  2 28  1  0  0  0  0
  2 29  1  0  0  0  0
  3 25  1  0  0  0  0
  3  8  1  0  0  0  0
  3  4  1  0  0  0  0
  4  5  1  0  0  0  0
  4 30  1  0  0  0  0
  4 31  1  0  0  0  0
  5 26  1  0  0  0  0
  5  6  1  0  0  0  0
  5  7  1  0  0  0  0
  7  8  1  0  0  0  0
  7 32  1  0  0  0  0
  7 33  1  0  0  0  0
  8  9  1  0  0  0  0
  9 14  1  0  0  0  0
  9 10  2  0  0  0  0
 10 11  1  0  0  0  0
 11 12  2  0  0  0  0
 11 34  1  0  0  0  0
 12 13  1  0  0  0  0
 13 17  1  0  0  0  0
 13 14  2  0  0  0  0
 14 15  1  0  0  0  0
 15 16  2  0  0  0  0
 16 17  1  0  0  0  0
 16 35  1  0  0  0  0
 17 18  1  0  0  0  0
 18 19  1  0  0  0  0
 18 36  1  0  0  0  0
 18 37  1  0  0  0  0
 19 24  1  0  0  0  0
 19 20  1  0  0  0  0
 19 21  1  0  0  0  0
 20 38  1  0  0  0  0
 21 22  1  0  0  0  0
 21 39  1  0  0  0  0
 21 40  1  0  0  0  0
 22 23  1  0  0  0  0
 22 41  1  0  0  0  0
 22 42  1  0  0  0  0
 23 24  1  0  0  0  0
 24 43  1  0  0  0  0
 24 44  1  0  0  0  0
M  END
> <s_m_source_file>
AV-unprocessed.smi

> <i_m_source_file_index>
255

> <i_lp_mmshare_version>
43012

> <i_f3d_flags>
0

> <s_epik_input>
W09IXVtDSDJdW0NAQEhdMVtDSDJdW0NASF0oRilbQ0gyXU4xYyhuW2NIXW4yKWMoYzIzKW5bY0hdbjNbQ0gyXVtDQEBdNChbT0hdKVtDSDJdW0NIMl1PW0NIMl00

> <s_epik_cmdline>
J2VwaWtfcHl0aG9uJywgJy1waCcsICc3LjAnLCAnLXRuJywgJzgnLCAnLW1hJywgJzIwMCcsICctbWV0YWxfYmluZGluZycsICctaW1hZScsICc8aW5maWxlLm1hZT4nLCAnLW9tYWUnLCAnPG91dGZpbGUubWFlPic=

> <r_lp_tautomer_probability>
1

> <r_epik_Ionization_Penalty>
0.0058098

> <r_epik_Ionization_Penalty_Charging>
0

> <r_epik_Ionization_Penalty_Neutral>
0.0058098

> <r_epik_State_Penalty>
0.00411166

> <r_epik_Charging_Adjusted_Penalty>
0.00411166

> <i_epik_Tot_Q>
0

> <i_epik_Tot_abs_Q>
0

> <r_epik_Metal_State_Penalty>
-0

> <b_epik_Metal_Only>
0

> <s_lp_Force_Field>
OPLS_2005

> <r_lp_Energy>
51.0345

> <b_lp_Chiralities_Consistent>
1

> <s_lp_Variant>
AV-unprocessed.smi:255-2

> <Gold.Version>
5.8.1

> <Gold.Id.Protein>
6NUR|6NUR_protein|mol2

> <Gold.PLP.Fitness>
50.9720

> <Gold.PLP.PLP>
-43.6123

> <Gold.PLP.part.hbond>
-4.0000

> <Gold.PLP.part.metal>
0.0000

> <Gold.PLP.part.buried>
-3.7865

> <Gold.PLP.part.nonpolar>
-35.6226

> <Gold.PLP.part.repulsive>
0.4123

> <Gold.PLP.ligand.clash>
0.0000

> <Gold.PLP.ligand.torsion>
0.8556

> <Gold.PLP.Chemscore.Hbond>
3.0000

> <Gold.PLP.Chemscore.CHOScore>
0.0000

> <Gold.PLP.Chemscore.Metal>
0.0000

> <Gold.Chemscore.Hbonds>
donor molecule, donor type, donor heavy atom, donor atom, acceptor molecule, acceptor atom, score
      L1  H    20    38       P1  7948  1.00
      P1  H  7989  7998       L1    12  1.00
      P1  H  7997  8009       L1    10  0.95

> <Gold.PLP.Chemscore.Internal.Correction>
0.0709

> <Gold.Rescore>
     Score         DG    S(hbond)    S(metal)    S(lipo)     H(rot)  DE(clash)    DE(int)     intcor
     11.00     -12.32       1.73        0.00      81.84       3.33       0.44       0.87       ----

> <Gold.Chemscore.Fitness>
11.0043

> <Gold.Chemscore.DG>
-12.3171

> <Gold.Chemscore.ZeroCoef>
-5.4800

> <Gold.Chemscore.Hbond>
1.7305

> <Gold.Chemscore.Metal>
0.0000

> <Gold.Chemscore.Lipo>
81.8384

> <Gold.Chemscore.Internal_Hbond>
0.0000

> <Gold.Chemscore.DEClash>
0.4416

> <Gold.Chemscore.DEInternal>
0.8712

> <Gold.Chemscore.Rot>
3.3273

> <Gold.Chemscore.Internal.Correction>
   9.000000E+99

> <Gold.Chemscore.Hbonds>
donor molecule, donor type, donor heavy atom, donor atom, acceptor molecule, acceptor atom, score
      L1  H    20    38       P1  7948  0.95
      P1  H  7989  7998       L1    12  0.30
      P1  H  7997  8009       L1    10  0.21

> <Gold.Chemscore.Hbond.Weighted>
-5.7799

> <Gold.Chemscore.Metal.Weighted>
-0.0000

> <Gold.Chemscore.Lipo.Weighted>
-9.5751

> <Gold.Chemscore.Internal_Hbond.Weighted>
0.0000

> <Gold.Chemscore.DEClash.Weighted>
0.4416

> <Gold.Chemscore.DEInternal.Weighted>
0.8712

> <Gold.Chemscore.Rot.Weighted>
8.5179

> <Gold.Chemscore.Internal.Correction.Weighted>
   9.000000E+99

> <Gold.Protein.RotatedTorsions>
[ 6907 6896 6895 6894 ] final  109.49 input  -60.11 | X-H torsion
[ 7974 7965 7964 7962 ] final   46.20 input  175.53 | X-H torsion
[ 8008 7997 7996 7995 ] final  177.88 input   59.86 | X-H torsion
[ 10167 10162 10161 10158 ] final   58.24 input  -65.29 | X-H torsion
[ 10718 10713 10712 10709 ] final  103.03 input   66.30 | X-H torsion
[ 10763 10752 10751 10750 ] final  172.83 input  -60.55 | X-H torsion
[ 11005 11000 10999 10996 ] final   33.19 input  -57.11 | X-H torsion

> <Gold.Protein.ActiveResidues>
 VAL166  LYS551  ARG553  GLY616  TRP617  ASP618  TYR619  PRO620  LYS621  CYS622 
 ASP623  PHE694  ASN695  SER759  ASP760  ASP761  ALA762  ILE779  LEU786  VAL792 
 PHE793  MET794  SER795  GLU796  ALA797  LYS798  CYS799  TRP800  GLU811  SER814 

> <Gold.Protein.RotatedAtoms>
  152.5064  133.8936  159.7405 H   0  0  0  0  0  0  0  0  0  0  0  0  # atno 6907 bound_to 6896
  150.9369  133.6693  159.2805 H   0  0  0  0  0  0  0  0  0  0  0  0  # atno 6908 bound_to 6896
  151.4018  135.0977  159.9611 H   0  0  0  0  0  0  0  0  0  0  0  0  # atno 6909 bound_to 6896
  146.0412  139.4882  142.9777 H   0  0  0  0  0  0  0  0  0  0  0  0  # atno 7974 bound_to 7965
  156.0608  140.1347  156.9943 H   0  0  0  0  0  0  0  0  0  0  0  0  # atno 8008 bound_to 7997
  154.4481  140.0992  156.6585 H   0  0  0  0  0  0  0  0  0  0  0  0  # atno 8009 bound_to 7997
  155.5380  140.3460  155.4443 H   0  0  0  0  0  0  0  0  0  0  0  0  # atno 8010 bound_to 7997
  140.1893  144.4101  150.6578 H   0  0  0  0  0  0  0  0  0  0  0  0  # atno 10167 bound_to 10162
  157.6785  131.0768  150.5493 H   0  0  0  0  0  0  0  0  0  0  0  0  # atno 10718 bound_to 10713
  154.4315  135.2760  155.1909 H   0  0  0  0  0  0  0  0  0  0  0  0  # atno 10763 bound_to 10752
  154.3813  135.6087  153.5796 H   0  0  0  0  0  0  0  0  0  0  0  0  # atno 10764 bound_to 10752
  152.9836  135.5881  154.4628 H   0  0  0  0  0  0  0  0  0  0  0  0  # atno 10765 bound_to 10752
  140.2656  134.3141  155.7843 H   0  0  0  0  0  0  0  0  0  0  0  0  # atno 11005 bound_to 11000
  145.6882  141.0172  143.1570 LP  0  0  0  0  0  0  0  0  0  0  0  0  # atno 17320 bound_to 7965
  144.7075  139.8501  143.7425 LP  0  0  0  0  0  0  0  0  0  0  0  0  # atno 17321 bound_to 7965
  140.6466  143.2215  151.6171 LP  0  0  0  0  0  0  0  0  0  0  0  0  # atno 17342 bound_to 10162
  139.5262  144.3051  152.1040 LP  0  0  0  0  0  0  0  0  0  0  0  0  # atno 17343 bound_to 10162
  156.5798  130.4301  149.5982 LP  0  0  0  0  0  0  0  0  0  0  0  0  # atno 17370 bound_to 10713
  156.2671  130.6995  151.1781 LP  0  0  0  0  0  0  0  0  0  0  0  0  # atno 17371 bound_to 10713
  141.2184  133.7436  156.9255 LP  0  0  0  0  0  0  0  0  0  0  0  0  # atno 17394 bound_to 11000
  140.1422  134.9286  157.2482 LP  0  0  0  0  0  0  0  0  0  0  0  0  # atno 17395 bound_to 11000

$$$$
