AV-unprocessed.smi:2895|AV-procd|sdf|11130|dock10
  -GOLD-   2272016 03D 1   1.00000     0.00000
 Structure written by MMmdl.
 53 56  0  0  0  0  0  0  0  0  2 V2000
  148.8640  142.0731  154.0881 O   0  0  0  0  0  0  0  0  0  0  0  0
  148.8053  141.0594  154.7849 C   0  0  0  0  0  0  0  0  0  0  0  0
  149.6946  140.8171  155.7633 N   0  0  0  0  0  0  0  0  0  0  0  0
  150.8075  141.6877  156.1252 C   0  0  0  0  0  0  0  0  0  0  0  0
  151.4598  141.2622  157.4517 C   0  0  0  0  0  0  0  0  0  0  0  0
  151.7538  142.4477  158.3506 C   0  0  0  0  0  0  0  0  0  0  0  0
  152.2345  142.2525  159.6618 C   0  0  0  0  0  0  0  0  0  0  0  0
  152.4975  143.3860  160.4570 C   0  0  0  0  0  0  0  0  0  0  0  0
  152.3107  144.6528  160.0275 N   0  0  0  0  0  0  0  0  0  0  0  0
  151.8489  144.8317  158.7711 C   0  0  0  0  0  0  0  0  0  0  0  0
  151.5566  143.7674  157.8944 C   0  0  0  0  0  0  0  0  0  0  0  0
  147.8428  140.1127  154.6381 N   0  0  0  0  0  0  0  0  0  0  0  0
  147.6353  138.9345  155.4956 C   0  0  0  0  0  0  0  0  0  0  0  0
  147.9090  137.6520  154.6823 C   0  0  0  0  0  0  0  0  0  0  0  0
  147.0768  137.5767  153.4439 N   0  3  0  0  0  0  0  0  0  0  0  0
  145.6585  137.1634  153.6970 C   0  0  2  0  0  0  0  0  0  0  0  0
  145.5324  135.6835  154.1526 C   0  0  0  0  0  0  0  0  0  0  0  0
  144.4876  135.0920  153.1938 C   0  0  1  0  0  0  0  0  0  0  0  0
  143.1087  135.7134  153.4740 C   0  0  0  0  0  0  0  0  0  0  0  0
  143.2664  137.1393  152.9178 C   0  0  0  0  0  0  0  0  0  0  0  0
  144.7332  137.1645  152.4451 C   0  0  2  0  0  0  0  0  0  0  0  0
  144.8873  135.7552  151.8844 C   0  0  0  0  0  0  0  0  0  0  0  0
  147.2332  138.8250  152.6409 C   0  0  0  0  0  0  0  0  0  0  0  0
  146.9481  140.0894  153.4752 C   0  0  0  0  0  0  0  0  0  0  0  0
  149.5858  139.9719  156.3044 H   0  0  0  0  0  0  0  0  0  0  0  0
  151.5445  141.7005  155.3204 H   0  0  0  0  0  0  0  0  0  0  0  0
  150.4244  142.7050  156.2117 H   0  0  0  0  0  0  0  0  0  0  0  0
  150.8110  140.5615  157.9790 H   0  0  0  0  0  0  0  0  0  0  0  0
  152.3949  140.7335  157.2639 H   0  0  0  0  0  0  0  0  0  0  0  0
  152.4014  141.2584  160.0506 H   0  0  0  0  0  0  0  0  0  0  0  0
  152.8681  143.2717  161.4650 H   0  0  0  0  0  0  0  0  0  0  0  0
  151.7091  145.8544  158.4538 H   0  0  0  0  0  0  0  0  0  0  0  0
  151.1908  143.9643  156.8974 H   0  0  0  0  0  0  0  0  0  0  0  0
  148.2547  138.9226  156.3920 H   0  0  0  0  0  0  0  0  0  0  0  0
  146.6080  138.9422  155.8618 H   0  0  0  0  0  0  0  0  0  0  0  0
  148.9572  137.6436  154.3801 H   0  0  0  0  0  0  0  0  0  0  0  0
  147.7857  136.7778  155.3187 H   0  0  0  0  0  0  0  0  0  0  0  0
  145.2392  137.8213  154.4587 H   0  0  0  0  0  0  0  0  0  0  0  0
  146.4636  135.1312  154.0225 H   0  0  0  0  0  0  0  0  0  0  0  0
  145.2370  135.5948  155.1988 H   0  0  0  0  0  0  0  0  0  0  0  0
  144.4808  134.0018  153.1745 H   0  0  0  0  0  0  0  0  0  0  0  0
  142.3221  135.1781  152.9405 H   0  0  0  0  0  0  0  0  0  0  0  0
  142.8606  135.7048  154.5361 H   0  0  0  0  0  0  0  0  0  0  0  0
  142.5889  137.2960  152.0775 H   0  0  0  0  0  0  0  0  0  0  0  0
  143.0511  137.9059  153.6630 H   0  0  0  0  0  0  0  0  0  0  0  0
  144.8990  137.9530  151.7156 H   0  0  0  0  0  0  0  0  0  0  0  0
  145.9065  135.5219  151.5706 H   0  0  0  0  0  0  0  0  0  0  0  0
  144.2014  135.5375  151.0637 H   0  0  0  0  0  0  0  0  0  0  0  0
  148.2659  138.8639  152.2910 H   0  0  0  0  0  0  0  0  0  0  0  0
  146.6340  138.8246  151.7350 H   0  0  0  0  0  0  0  0  0  0  0  0
  145.9124  140.1019  153.8163 H   0  0  0  0  0  0  0  0  0  0  0  0
  147.0548  140.9702  152.8405 H   0  0  0  0  0  0  0  0  0  0  0  0
  147.4691  136.8325  152.8849 H   0  0  0  0  0  0  0  0  0  0  0  0
  1  2  2  0  0  0  0
  2  3  1  0  0  0  0
  2 12  1  0  0  0  0
  3  4  1  0  0  0  0
  3 25  1  0  0  0  0
  4  5  1  0  0  0  0
  4 26  1  0  0  0  0
  4 27  1  0  0  0  0
  5  6  1  0  0  0  0
  5 28  1  0  0  0  0
  5 29  1  0  0  0  0
  6 11  1  0  0  0  0
  6  7  2  0  0  0  0
  7  8  1  0  0  0  0
  7 30  1  0  0  0  0
  8  9  2  0  0  0  0
  8 31  1  0  0  0  0
  9 10  1  0  0  0  0
 10 11  2  0  0  0  0
 10 32  1  0  0  0  0
 11 33  1  0  0  0  0
 12 24  1  0  0  0  0
 12 13  1  0  0  0  0
 13 14  1  0  0  0  0
 13 34  1  0  0  0  0
 13 35  1  0  0  0  0
 14 15  1  0  0  0  0
 14 36  1  0  0  0  0
 14 37  1  0  0  0  0
 15 16  1  0  0  0  0
 15 23  1  0  0  0  0
 15 53  1  0  0  0  0
 16 21  1  0  0  0  0
 16 17  1  0  0  0  0
 16 38  1  0  0  0  0
 17 18  1  0  0  0  0
 17 39  1  0  0  0  0
 17 40  1  0  0  0  0
 18 22  1  0  0  0  0
 18 19  1  0  0  0  0
 18 41  1  0  0  0  0
 19 20  1  0  0  0  0
 19 42  1  0  0  0  0
 19 43  1  0  0  0  0
 20 21  1  0  0  0  0
 20 44  1  0  0  0  0
 20 45  1  0  0  0  0
 21 22  1  0  0  0  0
 21 46  1  0  0  0  0
 22 47  1  0  0  0  0
 22 48  1  0  0  0  0
 23 24  1  0  0  0  0
 23 49  1  0  0  0  0
 23 50  1  0  0  0  0
 24 51  1  0  0  0  0
 24 52  1  0  0  0  0
M  CHG  1  15   1
M  END
> <s_m_source_file>
AV-unprocessed.smi

> <i_m_source_file_index>
2895

> <i_lp_mmshare_version>
43012

> <i_f3d_flags>
0

> <s_epik_input>
W0NIMl0xW0NIMl1bQ0BASF0oW0NIMl0yKVtDQEBIXShbQ0gyXVtDQEhdMTIpTihbQ0gyXVtDSDJdMylbQ0gyXVtDSDJdTjNDKD1PKVtOSF1bQ0gyXVtDSDJdYzRbY0hdW2NIXW5bY0hdW2NIXTQ=

> <s_epik_cmdline>
J2VwaWtfcHl0aG9uJywgJy1waCcsICc3LjAnLCAnLXRuJywgJzgnLCAnLW1hJywgJzIwMCcsICctbWV0YWxfYmluZGluZycsICctaW1hZScsICc8aW5maWxlLm1hZT4nLCAnLW9tYWUnLCAnPG91dGZpbGUubWFlPic=

> <r_epik_Ionization_Penalty>
0.0566172

> <r_epik_Ionization_Penalty_Charging>
0.00262064

> <r_epik_Ionization_Penalty_Neutral>
0.0539965

> <r_epik_State_Penalty>
0.0463959

> <r_epik_Charging_Adjusted_Penalty>
0.0490165

> <i_epik_Tot_Q>
1

> <i_epik_Tot_abs_Q>
1

> <r_epik_Metal_State_Penalty>
0.0424856

> <b_epik_Metal_Only>
0

> <s_lp_Force_Field>
OPLS_2005

> <r_lp_Energy>
100.404

> <b_lp_Chiralities_Consistent>
1

> <s_lp_Variant>
AV-unprocessed.smi:2895-3

> <Gold.Version>
5.8.1

> <Gold.Id.Protein>
6NUR|6NUR_protein|mol2

> <Gold.PLP.Fitness>
46.1758

> <Gold.PLP.PLP>
-40.4854

> <Gold.PLP.part.hbond>
-2.0000

> <Gold.PLP.part.metal>
0.0000

> <Gold.PLP.part.buried>
-3.6732

> <Gold.PLP.part.nonpolar>
-35.9894

> <Gold.PLP.part.repulsive>
0.8832

> <Gold.PLP.ligand.clash>
0.0000

> <Gold.PLP.ligand.torsion>
0.5743

> <Gold.PLP.Chemscore.Hbond>
2.2560

> <Gold.PLP.Chemscore.CHOScore>
0.0000

> <Gold.PLP.Chemscore.Metal>
0.0000

> <Gold.Chemscore.Hbonds>
donor molecule, donor type, donor heavy atom, donor atom, acceptor molecule, acceptor atom, score
      L1  H    15    53       P1  7948  1.86
      P1  H  8011  8017       L1     1  0.37

> <Gold.PLP.Chemscore.Internal.Correction>
0.0710

> <Gold.Rescore>
     Score         DG    S(hbond)    S(metal)    S(lipo)     H(rot)  DE(clash)    DE(int)     intcor
     18.58     -19.56       1.28        0.00     113.93       1.37       0.50       0.48       ----

> <Gold.Chemscore.Fitness>
18.5797

> <Gold.Chemscore.DG>
-19.5626

> <Gold.Chemscore.ZeroCoef>
-5.4800

> <Gold.Chemscore.Hbond>
1.2777

> <Gold.Chemscore.Metal>
0.0000

> <Gold.Chemscore.Lipo>
113.9347

> <Gold.Chemscore.Internal_Hbond>
0.0000

> <Gold.Chemscore.DEClash>
0.4990

> <Gold.Chemscore.DEInternal>
0.4840

> <Gold.Chemscore.Rot>
1.3731

> <Gold.Chemscore.Internal.Correction>
   9.000000E+99

> <Gold.Chemscore.Hbonds>
donor molecule, donor type, donor heavy atom, donor atom, acceptor molecule, acceptor atom, score
      L1  H    15    53       P1  7948  0.91
      P1  H  8011  8017       L1     1  0.34

> <Gold.Chemscore.Hbond.Weighted>
-4.2674

> <Gold.Chemscore.Metal.Weighted>
-0.0000

> <Gold.Chemscore.Lipo.Weighted>
-13.3304

> <Gold.Chemscore.Internal_Hbond.Weighted>
0.0000

> <Gold.Chemscore.DEClash.Weighted>
0.4990

> <Gold.Chemscore.DEInternal.Weighted>
0.4840

> <Gold.Chemscore.Rot.Weighted>
3.5152

> <Gold.Chemscore.Internal.Correction.Weighted>
   9.000000E+99

> <Gold.Protein.RotatedTorsions>
[ 6907 6896 6895 6894 ] final   32.53 input  -60.11 | X-H torsion
[ 7974 7965 7964 7962 ] final   99.62 input  175.53 | X-H torsion
[ 8008 7997 7996 7995 ] final   28.32 input   59.86 | X-H torsion
[ 10167 10162 10161 10158 ] final   97.13 input  -65.29 | X-H torsion
[ 10718 10713 10712 10709 ] final  -37.18 input   66.30 | X-H torsion
[ 10763 10752 10751 10750 ] final   -3.97 input  -60.55 | X-H torsion
[ 11005 11000 10999 10996 ] final   -4.93 input  -57.11 | X-H torsion

> <Gold.Protein.ActiveResidues>
 VAL166  LYS551  ARG553  GLY616  TRP617  ASP618  TYR619  PRO620  LYS621  CYS622 
 ASP623  PHE694  ASN695  SER759  ASP760  ASP761  ALA762  ILE779  LEU786  VAL792 
 PHE793  MET794  SER795  GLU796  ALA797  LYS798  CYS799  TRP800  GLU811  SER814 

> <Gold.Protein.RotatedAtoms>
  152.0758  134.9504  160.0573 H   0  0  0  0  0  0  0  0  0  0  0  0  # atno 6907 bound_to 6896
  152.0812  133.4149  159.4510 H   0  0  0  0  0  0  0  0  0  0  0  0  # atno 6908 bound_to 6896
  150.6836  134.2900  159.4706 H   0  0  0  0  0  0  0  0  0  0  0  0  # atno 6909 bound_to 6896
  145.3964  139.2354  143.3324 H   0  0  0  0  0  0  0  0  0  0  0  0  # atno 7974 bound_to 7965
  155.0568  140.3186  155.4673 H   0  0  0  0  0  0  0  0  0  0  0  0  # atno 8008 bound_to 7997
  156.2822  140.2136  156.5639 H   0  0  0  0  0  0  0  0  0  0  0  0  # atno 8009 bound_to 7997
  154.7165  140.0493  157.0587 H   0  0  0  0  0  0  0  0  0  0  0  0  # atno 8010 bound_to 7997
  139.7830  144.6881  150.9997 H   0  0  0  0  0  0  0  0  0  0  0  0  # atno 10167 bound_to 10162
  156.3182  130.4262  149.7985 H   0  0  0  0  0  0  0  0  0  0  0  0  # atno 10718 bound_to 10713
  153.3785  135.6997  153.6583 H   0  0  0  0  0  0  0  0  0  0  0  0  # atno 10763 bound_to 10752
  153.5204  135.3613  155.2630 H   0  0  0  0  0  0  0  0  0  0  0  0  # atno 10764 bound_to 10752
  154.8690  135.4156  154.3078 H   0  0  0  0  0  0  0  0  0  0  0  0  # atno 10765 bound_to 10752
  140.6856  133.9115  155.8584 H   0  0  0  0  0  0  0  0  0  0  0  0  # atno 11005 bound_to 11000
  146.2773  140.4654  142.8790 LP  0  0  0  0  0  0  0  0  0  0  0  0  # atno 17320 bound_to 7965
  144.8404  140.6849  143.6233 LP  0  0  0  0  0  0  0  0  0  0  0  0  # atno 17321 bound_to 7965
  140.7819  143.4463  151.0478 LP  0  0  0  0  0  0  0  0  0  0  0  0  # atno 17342 bound_to 10162
  139.8142  143.7908  152.3173 LP  0  0  0  0  0  0  0  0  0  0  0  0  # atno 17343 bound_to 10162
  156.5303  130.8255  151.3235 LP  0  0  0  0  0  0  0  0  0  0  0  0  # atno 17370 bound_to 10713
  157.7406  130.9853  150.2389 LP  0  0  0  0  0  0  0  0  0  0  0  0  # atno 17371 bound_to 10713
  141.0282  134.0793  157.4044 LP  0  0  0  0  0  0  0  0  0  0  0  0  # atno 17394 bound_to 11000
  139.8938  135.0132  156.6920 LP  0  0  0  0  0  0  0  0  0  0  0  0  # atno 17395 bound_to 11000

$$$$
