AV-unprocessed.smi:104|AV-procd|sdf|995|dock6
  -GOLD-   2262017573D 1   1.00000     0.00000
 Structure written by MMmdl.
 47 49  0  0  0  0  0  0  0  0  1 V2000
  151.4304  137.6402  155.4333 C   0  0  0  0  0  0  0  0  0  0  0  0
  150.2156  138.0145  156.2721 C   0  0  0  0  0  0  0  0  0  0  0  0
  149.6770  139.1166  156.1651 O   0  0  0  0  0  0  0  0  0  0  0  0
  149.8396  137.0247  157.0978 O   0  0  0  0  0  0  0  0  0  0  0  0
  148.7627  137.2228  158.0008 C   0  0  0  0  0  0  0  0  0  0  0  0
  148.6270  135.9924  158.9075 C   0  0  2  0  0  0  0  0  0  0  0  0
  148.9920  134.8307  158.1558 O   0  0  0  0  0  0  0  0  0  0  0  0
  147.9141  133.9530  158.0767 C   0  0  2  0  0  0  0  0  0  0  0  0
  147.8859  133.3121  156.7281 N   0  0  0  0  0  0  0  0  0  0  0  0
  147.8362  131.9737  156.4130 C   0  0  0  0  0  0  0  0  0  0  0  0
  147.7780  130.6182  157.7496 Br  0  0  0  0  0  0  0  0  0  0  0  0
  147.8125  131.6595  155.1480 N   0  0  0  0  0  0  0  0  0  0  0  0
  147.8360  132.9011  154.5245 C   0  0  0  0  0  0  0  0  0  0  0  0
  147.8253  133.3245  153.1713 C   0  0  0  0  0  0  0  0  0  0  0  0
  147.7920  132.4715  152.1381 N   0  0  0  0  0  0  0  0  0  0  0  0
  147.8480  134.6521  152.9080 N   0  0  0  0  0  0  0  0  0  0  0  0
  147.8788  135.5247  153.9203 C   0  0  0  0  0  0  0  0  0  0  0  0
  147.8936  135.2798  155.2329 N   0  0  0  0  0  0  0  0  0  0  0  0
  147.8747  133.9413  155.4993 C   0  0  0  0  0  0  0  0  0  0  0  0
  146.6641  134.7857  158.3012 C   0  0  1  0  0  0  0  0  0  0  0  0
  145.5822  133.9761  158.7425 O   0  0  0  0  0  0  0  0  0  0  0  0
  144.5109  134.5437  159.3172 C   0  0  0  0  0  0  0  0  0  0  0  0
  143.5555  133.5147  159.9064 C   0  0  0  0  0  0  0  0  0  0  0  0
  144.2837  135.7511  159.3920 O   0  0  0  0  0  0  0  0  0  0  0  0
  147.1691  135.7680  159.3455 C   0  0  1  0  0  0  0  0  0  0  0  0
  147.1357  135.1821  160.6445 O   0  0  0  0  0  0  0  0  0  0  0  0
  147.4367  135.9167  161.7290 C   0  0  0  0  0  0  0  0  0  0  0  0
  147.2051  135.1555  163.0271 C   0  0  0  0  0  0  0  0  0  0  0  0
  147.8586  137.0731  161.7272 O   0  0  0  0  0  0  0  0  0  0  0  0
  151.3451  136.6143  155.0741 H   0  0  0  0  0  0  0  0  0  0  0  0
  152.3403  137.7262  156.0274 H   0  0  0  0  0  0  0  0  0  0  0  0
  151.5167  138.3008  154.5702 H   0  0  0  0  0  0  0  0  0  0  0  0
  148.9733  138.1092  158.5999 H   0  0  0  0  0  0  0  0  0  0  0  0
  147.8234  137.4050  157.4775 H   0  0  0  0  0  0  0  0  0  0  0  0
  149.2855  136.1016  159.7704 H   0  0  0  0  0  0  0  0  0  0  0  0
  148.0415  133.1463  158.7991 H   0  0  0  0  0  0  0  0  0  0  0  0
  147.7732  131.4761  152.3075 H   0  0  0  0  0  0  0  0  0  0  0  0
  147.7878  132.8255  151.1924 H   0  0  0  0  0  0  0  0  0  0  0  0
  147.8941  136.5678  153.6400 H   0  0  0  0  0  0  0  0  0  0  0  0
  146.4285  135.3083  157.3723 H   0  0  0  0  0  0  0  0  0  0  0  0
  143.4082  132.6886  159.2102 H   0  0  0  0  0  0  0  0  0  0  0  0
  142.5859  133.9681  160.1136 H   0  0  0  0  0  0  0  0  0  0  0  0
  143.9579  133.1165  160.8381 H   0  0  0  0  0  0  0  0  0  0  0  0
  146.5803  136.6866  159.3258 H   0  0  0  0  0  0  0  0  0  0  0  0
  146.2171  134.6944  163.0258 H   0  0  0  0  0  0  0  0  0  0  0  0
  147.2704  135.8284  163.8823 H   0  0  0  0  0  0  0  0  0  0  0  0
  147.9541  134.3723  163.1444 H   0  0  0  0  0  0  0  0  0  0  0  0
  1  2  1  0  0  0  0
  1 30  1  0  0  0  0
  1 31  1  0  0  0  0
  1 32  1  0  0  0  0
  2  3  2  0  0  0  0
  2  4  1  0  0  0  0
  4  5  1  0  0  0  0
  5  6  1  0  0  0  0
  5 33  1  0  0  0  0
  5 34  1  0  0  0  0
  6 25  1  0  0  0  0
  6  7  1  0  0  0  0
  6 35  1  0  0  0  0
  7  8  1  0  0  0  0
  8  9  1  0  0  0  0
  8 20  1  0  0  0  0
  8 36  1  0  0  0  0
  9 19  1  0  0  0  0
  9 10  1  0  0  0  0
 10 11  1  0  0  0  0
 10 12  2  0  0  0  0
 12 13  1  0  0  0  0
 13 19  2  0  0  0  0
 13 14  1  0  0  0  0
 14 15  1  0  0  0  0
 14 16  2  0  0  0  0
 15 37  1  0  0  0  0
 15 38  1  0  0  0  0
 16 17  1  0  0  0  0
 17 18  2  0  0  0  0
 17 39  1  0  0  0  0
 18 19  1  0  0  0  0
 20 21  1  0  0  0  0
 20 25  1  0  0  0  0
 20 40  1  0  0  0  0
 21 22  1  0  0  0  0
 22 23  1  0  0  0  0
 22 24  2  0  0  0  0
 23 41  1  0  0  0  0
 23 42  1  0  0  0  0
 23 43  1  0  0  0  0
 25 26  1  0  0  0  0
 25 44  1  0  0  0  0
 26 27  1  0  0  0  0
 27 28  1  0  0  0  0
 27 29  2  0  0  0  0
 28 45  1  0  0  0  0
 28 46  1  0  0  0  0
 28 47  1  0  0  0  0
M  END
> <s_m_source_file>
AV-unprocessed.smi

> <i_m_source_file_index>
104

> <i_lp_mmshare_version>
43012

> <i_f3d_flags>
0

> <s_epik_input>
W0NIM11DKD1PKU9bQ0gyXVtDQEBIXTFPW0NASF0oW0NAQEhdKE9DKD1PKVtDSDNdKVtDQEhdMU9DKD1PKVtDSDNdKW4oYyhCciluMiljKGMyMyluW2NIXW5jM1tOSDJd

> <s_epik_cmdline>
J2VwaWtfcHl0aG9uJywgJy1waCcsICc3LjAnLCAnLXRuJywgJzgnLCAnLW1hJywgJzIwMCcsICctbWV0YWxfYmluZGluZycsICctaW1hZScsICc8aW5maWxlLm1hZT4nLCAnLW9tYWUnLCAnPG91dGZpbGUubWFlPic=

> <r_lp_tautomer_probability>
1

> <r_epik_Ionization_Penalty>
7.36622e-05

> <r_epik_Ionization_Penalty_Charging>
0

> <r_epik_Ionization_Penalty_Neutral>
7.36622e-05

> <r_epik_State_Penalty>
-0

> <r_epik_Charging_Adjusted_Penalty>
0

> <i_epik_Tot_Q>
0

> <i_epik_Tot_abs_Q>
0

> <r_epik_Metal_State_Penalty>
-0

> <b_epik_Metal_Only>
0

> <s_epik_Chemistry_Notes>
This compound has an ester and may undergo hydrolysis at high or low pH. This compound contains an acetal/aminal-like group ( X-CH(R)-Y where X, Y are N, S, or O) that may be acid/base labile, releasing an aldehyde.

> <s_lp_Force_Field>
OPLS_2005

> <r_lp_Energy>
18.6996

> <b_lp_Chiralities_Consistent>
1

> <s_lp_Variant>
AV-unprocessed.smi:104-3

> <Gold.Version>
5.8.1

> <Gold.Id.Protein>
6NUR|6NUR_protein|mol2

> <Gold.PLP.Fitness>
37.1063

> <Gold.PLP.PLP>
-23.8236

> <Gold.PLP.part.hbond>
-4.0000

> <Gold.PLP.part.metal>
0.0000

> <Gold.PLP.part.buried>
-3.5243

> <Gold.PLP.part.nonpolar>
-17.2808

> <Gold.PLP.part.repulsive>
0.2954

> <Gold.PLP.ligand.clash>
0.0000

> <Gold.PLP.ligand.torsion>
0.6595

> <Gold.PLP.Chemscore.Hbond>
3.8240

> <Gold.PLP.Chemscore.CHOScore>
1.0000

> <Gold.PLP.Chemscore.Metal>
0.0000

> <Gold.Chemscore.Hbonds>
donor molecule, donor type, donor heavy atom, donor atom, acceptor molecule, acceptor atom, score
      P1  H  6896  6907       L1     7  0.43
      P1  H  6931  6943       L1    29  1.00
      P1  H  6934  6947       L1    29  0.38
      L1  C    17    39       P1  7948  0.28

> <Gold.PLP.Chemscore.Internal.Correction>
0.1297

> <Gold.Rescore>
     Score         DG    S(hbond)    S(metal)    S(lipo)     H(rot)  DE(clash)    DE(int)     intcor
      7.34      -8.20       2.97        0.00      32.84       4.31       0.00       0.85       ----

> <Gold.Chemscore.Fitness>
7.3439

> <Gold.Chemscore.DG>
-8.2009

> <Gold.Chemscore.ZeroCoef>
-5.4800

> <Gold.Chemscore.Hbond>
2.9654

> <Gold.Chemscore.Metal>
0.0000

> <Gold.Chemscore.Lipo>
32.8389

> <Gold.Chemscore.Internal_Hbond>
0.0000

> <Gold.Chemscore.DEClash>
0.0036

> <Gold.Chemscore.DEInternal>
0.8534

> <Gold.Chemscore.Rot>
4.3070

> <Gold.Chemscore.Internal.Correction>
   9.000000E+99

> <Gold.Chemscore.Hbonds>
donor molecule, donor type, donor heavy atom, donor atom, acceptor molecule, acceptor atom, score
      P1  H  6896  6907       L1     7  0.03
      P1  H  6931  6943       L1    29  0.99
      P1  H  6934  6947       L1    29  0.38

> <Gold.Chemscore.Hbond.Weighted>
-9.9046

> <Gold.Chemscore.Metal.Weighted>
-0.0000

> <Gold.Chemscore.Lipo.Weighted>
-3.8422

> <Gold.Chemscore.Internal_Hbond.Weighted>
0.0000

> <Gold.Chemscore.DEClash.Weighted>
0.0036

> <Gold.Chemscore.DEInternal.Weighted>
0.8534

> <Gold.Chemscore.Rot.Weighted>
11.0259

> <Gold.Chemscore.Internal.Correction.Weighted>
   9.000000E+99

> <Gold.Protein.RotatedTorsions>
[ 6907 6896 6895 6894 ] final  -81.32 input  -60.11 | X-H torsion
[ 7974 7965 7964 7962 ] final  -35.88 input  175.53 | X-H torsion
[ 8008 7997 7996 7995 ] final   90.37 input   59.86 | X-H torsion
[ 10167 10162 10161 10158 ] final   63.38 input  -65.29 | X-H torsion
[ 10718 10713 10712 10709 ] final  119.96 input   66.30 | X-H torsion
[ 10763 10752 10751 10750 ] final   69.87 input  -60.55 | X-H torsion
[ 11005 11000 10999 10996 ] final -134.99 input  -57.11 | X-H torsion

> <Gold.Protein.ActiveResidues>
 VAL166  LYS551  ARG553  GLY616  TRP617  ASP618  TYR619  PRO620  LYS621  CYS622 
 ASP623  PHE694  ASN695  SER759  ASP760  ASP761  ALA762  ILE779  LEU786  VAL792 
 PHE793  MET794  SER795  GLU796  ALA797  LYS798  CYS799  TRP800  GLU811  SER814 

> <Gold.Protein.RotatedAtoms>
  150.6914  134.3836  159.5044 H   0  0  0  0  0  0  0  0  0  0  0  0  # atno 6907 bound_to 6896
  152.1634  134.8890  160.0549 H   0  0  0  0  0  0  0  0  0  0  0  0  # atno 6908 bound_to 6896
  151.9944  133.3767  159.4194 H   0  0  0  0  0  0  0  0  0  0  0  0  # atno 6909 bound_to 6896
  146.0709  140.6212  142.8953 H   0  0  0  0  0  0  0  0  0  0  0  0  # atno 7974 bound_to 7965
  156.0112  140.3350  155.6942 H   0  0  0  0  0  0  0  0  0  0  0  0  # atno 8008 bound_to 7997
  155.6155  140.0669  157.2711 H   0  0  0  0  0  0  0  0  0  0  0  0  # atno 8009 bound_to 7997
  154.4282  140.1786  156.1305 H   0  0  0  0  0  0  0  0  0  0  0  0  # atno 8010 bound_to 7997
  140.1337  144.4619  150.6850 H   0  0  0  0  0  0  0  0  0  0  0  0  # atno 10167 bound_to 10162
  157.5924  131.1062  150.7969 H   0  0  0  0  0  0  0  0  0  0  0  0  # atno 10718 bound_to 10713
  153.0310  135.5194  154.7354 H   0  0  0  0  0  0  0  0  0  0  0  0  # atno 10763 bound_to 10752
  154.6370  135.2907  155.0152 H   0  0  0  0  0  0  0  0  0  0  0  0  # atno 10764 bound_to 10752
  154.1083  135.6626  153.4933 H   0  0  0  0  0  0  0  0  0  0  0  0  # atno 10765 bound_to 10752
  140.8939  134.1777  157.4508 H   0  0  0  0  0  0  0  0  0  0  0  0  # atno 11005 bound_to 11000
  144.7231  140.4438  143.6993 LP  0  0  0  0  0  0  0  0  0  0  0  0  # atno 17320 bound_to 7965
  145.6393  139.1547  143.2925 LP  0  0  0  0  0  0  0  0  0  0  0  0  # atno 17321 bound_to 7965
  140.6802  143.2323  151.5405 LP  0  0  0  0  0  0  0  0  0  0  0  0  # atno 17342 bound_to 10162
  139.5506  144.2404  152.1524 LP  0  0  0  0  0  0  0  0  0  0  0  0  # atno 17343 bound_to 10162
  156.8388  130.5041  149.5323 LP  0  0  0  0  0  0  0  0  0  0  0  0  # atno 17370 bound_to 10713
  156.0981  130.5948  150.9848 LP  0  0  0  0  0  0  0  0  0  0  0  0  # atno 17371 bound_to 10713
  139.8733  134.9870  156.5349 LP  0  0  0  0  0  0  0  0  0  0  0  0  # atno 17394 bound_to 11000
  140.8313  133.8276  155.8987 LP  0  0  0  0  0  0  0  0  0  0  0  0  # atno 17395 bound_to 11000

$$$$
