AV-unprocessed.smi:1170|AV-procd|sdf|4941|dock1
  -GOLD-   22720 3523D 1   1.00000     0.00000
 Structure written by MMmdl.
 34 35  0  0  0  0  0  0  0  0  1 V2000
  152.4292  138.9890  154.7670 C   0  0  0  0  0  0  0  0  0  0  0  0
  151.2644  138.0256  155.0064 C   0  0  0  0  0  0  0  0  0  0  0  0
  150.2714  138.2532  154.0109 O   0  0  0  0  0  0  0  0  0  0  0  0
  149.5276  139.4168  154.0677 C   0  0  0  0  0  0  0  0  0  0  0  0
  150.0606  140.4934  154.6981 N   0  0  0  0  0  0  0  0  0  0  0  0
  149.3336  141.6277  154.7590 C   0  0  0  0  0  0  0  0  0  0  0  0
  148.0452  141.7470  154.2068 C   0  0  0  0  0  0  0  0  0  0  0  0
  147.4901  140.6318  153.5523 C   0  0  0  0  0  0  0  0  0  0  0  0
  148.2474  139.4381  153.4663 C   0  0  0  0  0  0  0  0  0  0  0  0
  147.7817  138.2474  152.8417 N   0  0  0  0  0  0  0  0  0  0  0  0
  146.5175  137.8273  152.6652 C   0  0  0  0  0  0  0  0  0  0  0  0
  145.5081  138.4227  153.0412 O   0  0  0  0  0  0  0  0  0  0  0  0
  146.4844  136.6634  152.0013 N   0  0  0  0  0  0  0  0  0  0  0  0
  145.2702  135.9475  151.6314 C   0  0  0  0  0  0  0  0  0  0  0  0
  145.4923  134.6786  150.8300 C   0  0  0  0  0  0  0  0  0  0  0  0
  144.4698  133.5653  150.8277 C   0  0  0  0  0  0  0  0  0  0  0  0
  145.7893  133.3751  151.5343 C   0  0  0  0  0  0  0  0  0  0  0  0
  153.2098  138.8499  155.5149 H   0  0  0  0  0  0  0  0  0  0  0  0
  152.0964  140.0258  154.8198 H   0  0  0  0  0  0  0  0  0  0  0  0
  152.8741  138.8287  153.7847 H   0  0  0  0  0  0  0  0  0  0  0  0
  151.6250  136.9968  154.9586 H   0  0  0  0  0  0  0  0  0  0  0  0
  150.8503  138.1934  156.0018 H   0  0  0  0  0  0  0  0  0  0  0  0
  149.7899  142.4633  155.2689 H   0  0  0  0  0  0  0  0  0  0  0  0
  147.4927  142.6714  154.2875 H   0  0  0  0  0  0  0  0  0  0  0  0
  146.4949  140.7125  153.1446 H   0  0  0  0  0  0  0  0  0  0  0  0
  148.4991  137.6813  152.4127 H   0  0  0  0  0  0  0  0  0  0  0  0
  147.3615  136.2454  151.7270 H   0  0  0  0  0  0  0  0  0  0  0  0
  144.7553  135.6785  152.5537 H   0  0  0  0  0  0  0  0  0  0  0  0
  144.5964  136.6131  151.0892 H   0  0  0  0  0  0  0  0  0  0  0  0
  146.0345  134.8373  149.8995 H   0  0  0  0  0  0  0  0  0  0  0  0
  143.5828  133.6890  151.4458 H   0  0  0  0  0  0  0  0  0  0  0  0
  144.3149  133.0307  149.8930 H   0  0  0  0  0  0  0  0  0  0  0  0
  146.5143  132.7077  151.0733 H   0  0  0  0  0  0  0  0  0  0  0  0
  145.7796  133.3732  152.6227 H   0  0  0  0  0  0  0  0  0  0  0  0
  1  2  1  0  0  0  0
  1 18  1  0  0  0  0
  1 19  1  0  0  0  0
  1 20  1  0  0  0  0
  2  3  1  0  0  0  0
  2 21  1  0  0  0  0
  2 22  1  0  0  0  0
  3  4  1  0  0  0  0
  4  9  1  0  0  0  0
  4  5  2  0  0  0  0
  5  6  1  0  0  0  0
  6  7  2  0  0  0  0
  6 23  1  0  0  0  0
  7  8  1  0  0  0  0
  7 24  1  0  0  0  0
  8  9  2  0  0  0  0
  8 25  1  0  0  0  0
  9 10  1  0  0  0  0
 10 11  1  0  0  0  0
 10 26  1  0  0  0  0
 11 12  2  0  0  0  0
 11 13  1  0  0  0  0
 13 14  1  0  0  0  0
 13 27  1  0  0  0  0
 14 15  1  0  0  0  0
 14 28  1  0  0  0  0
 14 29  1  0  0  0  0
 15 17  1  0  0  0  0
 15 16  1  0  0  0  0
 15 30  1  0  0  0  0
 16 17  1  0  0  0  0
 16 31  1  0  0  0  0
 16 32  1  0  0  0  0
 17 33  1  0  0  0  0
 17 34  1  0  0  0  0
M  END
> <s_m_source_file>
AV-unprocessed.smi

> <i_m_source_file_index>
1170

> <i_lp_mmshare_version>
43012

> <i_f3d_flags>
0

> <s_epik_input>
W0NIM11bQ0gyXU9jMW5bY0hdW2NIXVtjSF1jMVtOSF1DKD1PKVtOSF1bQ0gyXVtDSF0yW0NIMl1bQ0gyXTI=

> <s_epik_cmdline>
J2VwaWtfcHl0aG9uJywgJy1waCcsICc3LjAnLCAnLXRuJywgJzgnLCAnLW1hJywgJzIwMCcsICctbWV0YWxfYmluZGluZycsICctaW1hZScsICc8aW5maWxlLm1hZT4nLCAnLW9tYWUnLCAnPG91dGZpbGUubWFlPic=

> <r_lp_tautomer_probability>
1

> <r_epik_Ionization_Penalty>
0.00011974

> <r_epik_Ionization_Penalty_Charging>
0

> <r_epik_Ionization_Penalty_Neutral>
0.00011974

> <r_epik_State_Penalty>
-0

> <r_epik_Charging_Adjusted_Penalty>
0

> <i_epik_Tot_Q>
0

> <i_epik_Tot_abs_Q>
0

> <r_epik_Metal_State_Penalty>
-0

> <b_epik_Metal_Only>
0

> <s_lp_Force_Field>
OPLS_2005

> <r_lp_Energy>
14.6744

> <b_lp_Chiralities_Consistent>
1

> <s_lp_Variant>
AV-unprocessed.smi:1170-1

> <Gold.Version>
5.8.1

> <Gold.Id.Protein>
6NUR|6NUR_protein|mol2

> <Gold.PLP.Fitness>
40.2604

> <Gold.PLP.PLP>
-29.6473

> <Gold.PLP.part.hbond>
-3.8313

> <Gold.PLP.part.metal>
0.0000

> <Gold.PLP.part.buried>
1.6655

> <Gold.PLP.part.nonpolar>
-30.2365

> <Gold.PLP.part.repulsive>
2.8269

> <Gold.PLP.ligand.clash>
0.0000

> <Gold.PLP.ligand.torsion>
0.8053

> <Gold.PLP.Chemscore.Hbond>
2.9120

> <Gold.PLP.Chemscore.CHOScore>
0.9684

> <Gold.PLP.Chemscore.Metal>
0.0000

> <Gold.Chemscore.Hbonds>
donor molecule, donor type, donor heavy atom, donor atom, acceptor molecule, acceptor atom, score
      L1  H    10    26       P1  7948  0.99
      L1  H    13    27       P1  7948  0.99
      P1  H  7989  7998       L1     5  0.91
      L1  C     6    23       P1  8028  0.97

> <Gold.PLP.Chemscore.Internal.Correction>
0.5825

> <Gold.Rescore>
     Score         DG    S(hbond)    S(metal)    S(lipo)     H(rot)  DE(clash)    DE(int)     intcor
     11.71     -15.15       1.97        0.00      60.68       1.56       0.45       2.99       ----

> <Gold.Chemscore.Fitness>
11.7108

> <Gold.Chemscore.DG>
-15.1492

> <Gold.Chemscore.ZeroCoef>
-5.4800

> <Gold.Chemscore.Hbond>
1.9680

> <Gold.Chemscore.Metal>
0.0000

> <Gold.Chemscore.Lipo>
60.6777

> <Gold.Chemscore.Internal_Hbond>
0.0000

> <Gold.Chemscore.DEClash>
0.4524

> <Gold.Chemscore.DEInternal>
2.9860

> <Gold.Chemscore.Rot>
1.5638

> <Gold.Chemscore.Internal.Correction>
   9.000000E+99

> <Gold.Chemscore.Hbonds>
donor molecule, donor type, donor heavy atom, donor atom, acceptor molecule, acceptor atom, score
      L1  H    10    26       P1  7948  0.93
      L1  H    13    27       P1  7948  0.90
      P1  H  7989  7998       L1     5  0.12

> <Gold.Chemscore.Hbond.Weighted>
-6.5732

> <Gold.Chemscore.Metal.Weighted>
-0.0000

> <Gold.Chemscore.Lipo.Weighted>
-7.0993

> <Gold.Chemscore.Internal_Hbond.Weighted>
0.0000

> <Gold.Chemscore.DEClash.Weighted>
0.4524

> <Gold.Chemscore.DEInternal.Weighted>
2.9860

> <Gold.Chemscore.Rot.Weighted>
4.0033

> <Gold.Chemscore.Internal.Correction.Weighted>
   9.000000E+99

> <Gold.Protein.RotatedTorsions>
[ 6907 6896 6895 6894 ] final -108.81 input  -60.11 | X-H torsion
[ 7974 7965 7964 7962 ] final   57.65 input  175.53 | X-H torsion
[ 8008 7997 7996 7995 ] final -101.88 input   59.86 | X-H torsion
[ 10167 10162 10161 10158 ] final  136.59 input  -65.29 | X-H torsion
[ 10718 10713 10712 10709 ] final  164.97 input   66.30 | X-H torsion
[ 10763 10752 10751 10750 ] final  127.91 input  -60.55 | X-H torsion
[ 11005 11000 10999 10996 ] final -127.47 input  -57.11 | X-H torsion

> <Gold.Protein.ActiveResidues>
 VAL166  LYS551  ARG553  GLY616  TRP617  ASP618  TYR619  PRO620  LYS621  CYS622 
 ASP623  PHE694  ASN695  SER759  ASP760  ASP761  ALA762  ILE779  LEU786  VAL792 
 PHE793  MET794  SER795  GLU796  ALA797  LYS798  CYS799  TRP800  GLU811  SER814 

> <Gold.Protein.RotatedAtoms>
  150.7524  133.9623  159.3519 H   0  0  0  0  0  0  0  0  0  0  0  0  # atno 6907 bound_to 6896
  151.7550  135.0822  160.0346 H   0  0  0  0  0  0  0  0  0  0  0  0  # atno 6908 bound_to 6896
  152.3441  133.6064  159.5933 H   0  0  0  0  0  0  0  0  0  0  0  0  # atno 6909 bound_to 6896
  145.9267  139.3774  143.0445 H   0  0  0  0  0  0  0  0  0  0  0  0  # atno 7974 bound_to 7965
  154.8488  140.0432  157.1590 H   0  0  0  0  0  0  0  0  0  0  0  0  # atno 8008 bound_to 7997
  154.8966  140.2994  155.5320 H   0  0  0  0  0  0  0  0  0  0  0  0  # atno 8009 bound_to 7997
  156.2995  140.2383  156.3988 H   0  0  0  0  0  0  0  0  0  0  0  0  # atno 8010 bound_to 7997
  139.5174  144.6456  151.5449 H   0  0  0  0  0  0  0  0  0  0  0  0  # atno 10167 bound_to 10162
  157.0868  131.0407  151.2553 H   0  0  0  0  0  0  0  0  0  0  0  0  # atno 10718 bound_to 10713
  153.7170  135.3259  155.3258 H   0  0  0  0  0  0  0  0  0  0  0  0  # atno 10763 bound_to 10752
  154.8367  135.4490  154.1256 H   0  0  0  0  0  0  0  0  0  0  0  0  # atno 10764 bound_to 10752
  153.2365  135.6966  153.7910 H   0  0  0  0  0  0  0  0  0  0  0  0  # atno 10765 bound_to 10752
  140.9597  134.0953  157.3981 H   0  0  0  0  0  0  0  0  0  0  0  0  # atno 11005 bound_to 11000
  145.8479  140.9545  143.0765 LP  0  0  0  0  0  0  0  0  0  0  0  0  # atno 17320 bound_to 7965
  144.6759  140.0369  143.7481 LP  0  0  0  0  0  0  0  0  0  0  0  0  # atno 17321 bound_to 7965
  140.6239  143.9205  150.6549 LP  0  0  0  0  0  0  0  0  0  0  0  0  # atno 17342 bound_to 10162
  140.2487  143.3609  152.1424 LP  0  0  0  0  0  0  0  0  0  0  0  0  # atno 17343 bound_to 10162
  157.4754  130.7733  149.7363 LP  0  0  0  0  0  0  0  0  0  0  0  0  # atno 17370 bound_to 10713
  155.9908  130.3942  150.3010 LP  0  0  0  0  0  0  0  0  0  0  0  0  # atno 17371 bound_to 10713
  139.8874  135.0089  156.6557 LP  0  0  0  0  0  0  0  0  0  0  0  0  # atno 17394 bound_to 11000
  140.7485  133.8917  155.8330 LP  0  0  0  0  0  0  0  0  0  0  0  0  # atno 17395 bound_to 11000

$$$$
