AV-unprocessed.smi:1010|AV-procd|sdf|4415|dock10
  -GOLD-   22720 2363D 1   1.00000     0.00000
 Structure written by MMmdl.
 55 57  0  0  0  0  0  0  0  0  2 V2000
  144.5075  134.9654  154.8653 C   0  0  0  0  0  0  0  0  0  0  0  0
  143.7743  134.4269  153.6917 N   0  3  0  0  0  0  0  0  0  0  0  0
  142.5615  135.2446  153.4263 C   0  0  0  0  0  0  0  0  0  0  0  0
  144.5989  134.0819  152.4726 C   0  0  0  0  0  0  0  0  0  0  0  0
  144.9659  135.4123  151.7360 C   0  0  0  0  0  0  0  0  0  0  0  0
  146.1248  136.0985  152.3058 N   0  0  0  0  0  0  0  0  0  0  0  0
  146.1567  137.3619  152.7505 C   0  0  0  0  0  0  0  0  0  0  0  0
  145.1849  138.1164  152.7288 O   0  0  0  0  0  0  0  0  0  0  0  0
  147.3845  137.6887  153.1835 N   0  0  0  0  0  0  0  0  0  0  0  0
  147.8541  138.9661  153.5966 C   0  0  0  0  0  0  0  0  0  0  0  0
  147.0863  140.1389  153.3951 C   0  0  0  0  0  0  0  0  0  0  0  0
  147.5642  141.3674  153.8829 C   0  0  0  0  0  0  0  0  0  0  0  0
  148.7889  141.3781  154.5710 C   0  0  0  0  0  0  0  0  0  0  0  0
  149.5241  140.2683  154.7832 N   0  0  0  0  0  0  0  0  0  0  0  0
  149.0830  139.0780  154.3077 C   0  0  0  0  0  0  0  0  0  0  0  0
  149.9015  137.9501  154.5460 N   0  0  0  0  0  0  0  0  0  0  0  0
  149.3980  136.8213  155.3214 C   0  0  0  0  0  0  0  0  0  0  0  0
  150.6383  136.0142  155.6935 C   0  0  0  0  0  0  0  0  0  0  0  0
  151.6816  137.1055  155.9125 C   0  0  0  0  0  0  0  0  0  0  0  0
  151.3022  138.1810  154.8885 C   0  0  0  0  0  0  0  0  0  0  0  0
  145.8924  133.3185  152.8727 C   0  0  0  0  0  0  0  0  0  0  0  0
  146.6629  132.7526  151.6624 C   0  0  0  0  0  0  0  0  0  0  0  0
  145.8166  131.9307  150.8694 O   0  0  0  0  0  0  0  0  0  0  0  0
  144.7003  132.6309  150.3370 C   0  0  0  0  0  0  0  0  0  0  0  0
  143.8255  133.1419  151.4948 C   0  0  0  0  0  0  0  0  0  0  0  0
  145.0684  135.8639  154.6063 H   0  0  0  0  0  0  0  0  0  0  0  0
  145.1900  134.2271  155.2855 H   0  0  0  0  0  0  0  0  0  0  0  0
  143.8148  135.2260  155.6665 H   0  0  0  0  0  0  0  0  0  0  0  0
  142.8197  136.2813  153.2077 H   0  0  0  0  0  0  0  0  0  0  0  0
  141.9123  135.2464  154.3024 H   0  0  0  0  0  0  0  0  0  0  0  0
  141.9679  134.8594  152.5994 H   0  0  0  0  0  0  0  0  0  0  0  0
  145.1192  135.2524  150.6689 H   0  0  0  0  0  0  0  0  0  0  0  0
  144.1464  136.1263  151.7800 H   0  0  0  0  0  0  0  0  0  0  0  0
  146.9765  135.5594  152.3704 H   0  0  0  0  0  0  0  0  0  0  0  0
  148.0992  136.9844  153.0711 H   0  0  0  0  0  0  0  0  0  0  0  0
  146.1297  140.1118  152.8957 H   0  0  0  0  0  0  0  0  0  0  0  0
  146.9986  142.2767  153.7446 H   0  0  0  0  0  0  0  0  0  0  0  0
  149.1867  142.3005  154.9675 H   0  0  0  0  0  0  0  0  0  0  0  0
  148.9041  137.1649  156.2310 H   0  0  0  0  0  0  0  0  0  0  0  0
  148.6854  136.2296  154.7459 H   0  0  0  0  0  0  0  0  0  0  0  0
  150.4876  135.3827  156.5694 H   0  0  0  0  0  0  0  0  0  0  0  0
  150.9350  135.3764  154.8597 H   0  0  0  0  0  0  0  0  0  0  0  0
  151.5814  137.5076  156.9217 H   0  0  0  0  0  0  0  0  0  0  0  0
  152.7046  136.7480  155.7937 H   0  0  0  0  0  0  0  0  0  0  0  0
  151.9073  138.0659  153.9889 H   0  0  0  0  0  0  0  0  0  0  0  0
  151.4690  139.1840  155.2841 H   0  0  0  0  0  0  0  0  0  0  0  0
  146.5663  133.9612  153.4396 H   0  0  0  0  0  0  0  0  0  0  0  0
  145.6379  132.4864  153.5300 H   0  0  0  0  0  0  0  0  0  0  0  0
  147.0929  133.5464  151.0514 H   0  0  0  0  0  0  0  0  0  0  0  0
  147.5005  132.1484  152.0109 H   0  0  0  0  0  0  0  0  0  0  0  0
  145.0264  133.4353  149.6778 H   0  0  0  0  0  0  0  0  0  0  0  0
  144.1260  131.9405  149.7191 H   0  0  0  0  0  0  0  0  0  0  0  0
  143.4838  132.2438  152.0081 H   0  0  0  0  0  0  0  0  0  0  0  0
  142.9295  133.6253  151.1040 H   0  0  0  0  0  0  0  0  0  0  0  0
  143.4172  133.5364  154.0089 H   0  0  0  0  0  0  0  0  0  0  0  0
  1  2  1  0  0  0  0
  1 26  1  0  0  0  0
  1 27  1  0  0  0  0
  1 28  1  0  0  0  0
  2  3  1  0  0  0  0
  2  4  1  0  0  0  0
  2 55  1  0  0  0  0
  3 29  1  0  0  0  0
  3 30  1  0  0  0  0
  3 31  1  0  0  0  0
  4 25  1  0  0  0  0
  4  5  1  0  0  0  0
  4 21  1  0  0  0  0
  5  6  1  0  0  0  0
  5 32  1  0  0  0  0
  5 33  1  0  0  0  0
  6  7  1  0  0  0  0
  6 34  1  0  0  0  0
  7  8  2  0  0  0  0
  7  9  1  0  0  0  0
  9 10  1  0  0  0  0
  9 35  1  0  0  0  0
 10 15  1  0  0  0  0
 10 11  2  0  0  0  0
 11 12  1  0  0  0  0
 11 36  1  0  0  0  0
 12 13  2  0  0  0  0
 12 37  1  0  0  0  0
 13 14  1  0  0  0  0
 13 38  1  0  0  0  0
 14 15  2  0  0  0  0
 15 16  1  0  0  0  0
 16 20  1  0  0  0  0
 16 17  1  0  0  0  0
 17 18  1  0  0  0  0
 17 39  1  0  0  0  0
 17 40  1  0  0  0  0
 18 19  1  0  0  0  0
 18 41  1  0  0  0  0
 18 42  1  0  0  0  0
 19 20  1  0  0  0  0
 19 43  1  0  0  0  0
 19 44  1  0  0  0  0
 20 45  1  0  0  0  0
 20 46  1  0  0  0  0
 21 22  1  0  0  0  0
 21 47  1  0  0  0  0
 21 48  1  0  0  0  0
 22 23  1  0  0  0  0
 22 49  1  0  0  0  0
 22 50  1  0  0  0  0
 23 24  1  0  0  0  0
 24 25  1  0  0  0  0
 24 51  1  0  0  0  0
 24 52  1  0  0  0  0
 25 53  1  0  0  0  0
 25 54  1  0  0  0  0
M  CHG  1   2   1
M  END
> <s_m_source_file>
AV-unprocessed.smi

> <i_m_source_file_index>
1010

> <i_lp_mmshare_version>
43012

> <i_f3d_flags>
0

> <s_epik_input>
W0NIMl0xW0NIMl1PW0NIMl1bQ0gyXUMxKE4oW0NIM10pW0NIM10pW0NIMl1bTkhdQyg9TylbTkhdYzJbY0hdW2NIXVtjSF1uYzJOM1tDSDJdW0NIMl1bQ0gyXVtDSDJdMw==

> <s_epik_cmdline>
J2VwaWtfcHl0aG9uJywgJy1waCcsICc3LjAnLCAnLXRuJywgJzgnLCAnLW1hJywgJzIwMCcsICctbWV0YWxfYmluZGluZycsICctaW1hZScsICc8aW5maWxlLm1hZT4nLCAnLW9tYWUnLCAnPG91dGZpbGUubWFlPic=

> <r_lp_tautomer_probability>
1

> <r_epik_Ionization_Penalty>
0.0977718

> <r_epik_Ionization_Penalty_Charging>
0.0128317

> <r_epik_Ionization_Penalty_Neutral>
0.0849401

> <r_epik_State_Penalty>
0.0837778

> <r_epik_Charging_Adjusted_Penalty>
0.0966095

> <i_epik_Tot_Q>
1

> <i_epik_Tot_abs_Q>
1

> <r_epik_Metal_State_Penalty>
0.0755623

> <b_epik_Metal_Only>
0

> <s_lp_Force_Field>
OPLS_2005

> <r_lp_Energy>
58.4563

> <b_lp_Chiralities_Consistent>
1

> <s_lp_Variant>
AV-unprocessed.smi:1010-1

> <Gold.Version>
5.8.1

> <Gold.Id.Protein>
6NUR|6NUR_protein|mol2

> <Gold.PLP.Fitness>
48.6601

> <Gold.PLP.PLP>
-36.2973

> <Gold.PLP.part.hbond>
-3.0000

> <Gold.PLP.part.metal>
0.0000

> <Gold.PLP.part.buried>
-5.9541

> <Gold.PLP.part.nonpolar>
-31.8435

> <Gold.PLP.part.repulsive>
3.3105

> <Gold.PLP.ligand.clash>
0.0000

> <Gold.PLP.ligand.torsion>
0.8792

> <Gold.PLP.Chemscore.Hbond>
3.5606

> <Gold.PLP.Chemscore.CHOScore>
1.0000

> <Gold.PLP.Chemscore.Metal>
0.0000

> <Gold.Chemscore.Hbonds>
donor molecule, donor type, donor heavy atom, donor atom, acceptor molecule, acceptor atom, score
      L1  H     2    55       P1 10957  1.79
      L1  H     6    34       P1  7948  0.42
      L1  H     9    35       P1  7948  0.78
      L1  C    13    38       P1  8028  1.00

> <Gold.PLP.Chemscore.Internal.Correction>
0.4395

> <Gold.Rescore>
     Score         DG    S(hbond)    S(metal)    S(lipo)     H(rot)  DE(clash)    DE(int)     intcor
     16.68     -20.55       2.44        0.00      94.30       1.60       1.53       2.34       ----

> <Gold.Chemscore.Fitness>
16.6829

> <Gold.Chemscore.DG>
-20.5492

> <Gold.Chemscore.ZeroCoef>
-5.4800

> <Gold.Chemscore.Hbond>
2.4371

> <Gold.Chemscore.Metal>
0.0000

> <Gold.Chemscore.Lipo>
94.3047

> <Gold.Chemscore.Internal_Hbond>
0.0000

> <Gold.Chemscore.DEClash>
1.5270

> <Gold.Chemscore.DEInternal>
2.3393

> <Gold.Chemscore.Rot>
1.6033

> <Gold.Chemscore.Internal.Correction>
   9.000000E+99

> <Gold.Chemscore.Hbonds>
donor molecule, donor type, donor heavy atom, donor atom, acceptor molecule, acceptor atom, score
      L1  H     2    55       P1 10957  0.86
      L1  H     6    34       P1  7948  0.40
      L1  H     9    35       P1  7948  0.78

> <Gold.Chemscore.Hbond.Weighted>
-8.1401

> <Gold.Chemscore.Metal.Weighted>
-0.0000

> <Gold.Chemscore.Lipo.Weighted>
-11.0337

> <Gold.Chemscore.Internal_Hbond.Weighted>
0.0000

> <Gold.Chemscore.DEClash.Weighted>
1.5270

> <Gold.Chemscore.DEInternal.Weighted>
2.3393

> <Gold.Chemscore.Rot.Weighted>
4.1046

> <Gold.Chemscore.Internal.Correction.Weighted>
   9.000000E+99

> <Gold.Protein.RotatedTorsions>
[ 6907 6896 6895 6894 ] final   -2.24 input  -60.11 | X-H torsion
[ 7974 7965 7964 7962 ] final  -88.77 input  175.53 | X-H torsion
[ 8008 7997 7996 7995 ] final  -62.48 input   59.86 | X-H torsion
[ 10167 10162 10161 10158 ] final   24.88 input  -65.29 | X-H torsion
[ 10718 10713 10712 10709 ] final   17.74 input   66.30 | X-H torsion
[ 10763 10752 10751 10750 ] final  129.81 input  -60.55 | X-H torsion
[ 11005 11000 10999 10996 ] final   85.65 input  -57.11 | X-H torsion

> <Gold.Protein.ActiveResidues>
 VAL166  LYS551  ARG553  GLY616  TRP617  ASP618  TYR619  PRO620  LYS621  CYS622 
 ASP623  PHE694  ASN695  SER759  ASP760  ASP761  ALA762  ILE779  LEU786  VAL792 
 PHE793  MET794  SER795  GLU796  ALA797  LYS798  CYS799  TRP800  GLU811  SER814 

> <Gold.Protein.RotatedAtoms>
  151.5332  135.1068  159.9907 H   0  0  0  0  0  0  0  0  0  0  0  0  # atno 6907 bound_to 6896
  152.4569  133.7738  159.6824 H   0  0  0  0  0  0  0  0  0  0  0  0  # atno 6908 bound_to 6896
  150.8516  133.7713  159.3048 H   0  0  0  0  0  0  0  0  0  0  0  0  # atno 6909 bound_to 6896
  145.4487  140.9560  143.2034 H   0  0  0  0  0  0  0  0  0  0  0  0  # atno 7974 bound_to 7965
  154.4502  140.0995  156.6594 H   0  0  0  0  0  0  0  0  0  0  0  0  # atno 8008 bound_to 7997
  155.5310  140.3481  155.4408 H   0  0  0  0  0  0  0  0  0  0  0  0  # atno 8009 bound_to 7997
  156.0664  140.1339  156.9869 H   0  0  0  0  0  0  0  0  0  0  0  0  # atno 8010 bound_to 7997
  140.5152  144.0095  150.6390 H   0  0  0  0  0  0  0  0  0  0  0  0  # atno 10167 bound_to 10162
  157.0864  130.6409  149.5838 H   0  0  0  0  0  0  0  0  0  0  0  0  # atno 10718 bound_to 10713
  153.7478  135.3214  155.3316 H   0  0  0  0  0  0  0  0  0  0  0  0  # atno 10763 bound_to 10752
  154.8273  135.4560  154.0962 H   0  0  0  0  0  0  0  0  0  0  0  0  # atno 10764 bound_to 10752
  153.2155  135.6941  153.8144 H   0  0  0  0  0  0  0  0  0  0  0  0  # atno 10765 bound_to 10752
  139.8965  134.8301  156.2612 H   0  0  0  0  0  0  0  0  0  0  0  0  # atno 11005 bound_to 11000
  144.8075  139.6024  143.7044 LP  0  0  0  0  0  0  0  0  0  0  0  0  # atno 17320 bound_to 7965
  146.2516  139.6212  142.9423 LP  0  0  0  0  0  0  0  0  0  0  0  0  # atno 17321 bound_to 7965
  140.3428  143.3009  152.0570 LP  0  0  0  0  0  0  0  0  0  0  0  0  # atno 17342 bound_to 10162
  139.4907  144.6430  151.6838 LP  0  0  0  0  0  0  0  0  0  0  0  0  # atno 17343 bound_to 10162
  155.9909  130.4962  150.7279 LP  0  0  0  0  0  0  0  0  0  0  0  0  # atno 17370 bound_to 10713
  157.4757  131.0897  151.0592 LP  0  0  0  0  0  0  0  0  0  0  0  0  # atno 17371 bound_to 10713
  141.0161  133.7067  156.1191 LP  0  0  0  0  0  0  0  0  0  0  0  0  # atno 17394 bound_to 11000
  140.7299  134.4266  157.5567 LP  0  0  0  0  0  0  0  0  0  0  0  0  # atno 17395 bound_to 11000

$$$$
