AV-unprocessed.smi:2723|AV-procd|sdf|10506|dock5
  -GOLD-   2272014553D 1   1.00000     0.00000
 Structure written by MMmdl.
 35 36  0  0  0  0  0  0  0  0  1 V2000
  146.4533  138.4634  152.0636 C   0  0  0  0  0  0  0  0  0  0  0  0
  147.0416  139.8489  152.3505 C   0  0  0  0  0  0  0  0  0  0  0  0
  146.7982  140.3022  153.7993 C   0  0  0  0  0  0  0  0  0  0  0  0
  147.8808  139.8828  154.6813 N   0  0  0  0  0  0  0  0  0  0  0  0
  149.1378  140.3528  154.6375 C   0  0  0  0  0  0  0  0  0  0  0  0
  149.5195  141.1923  153.8221 O   0  0  0  0  0  0  0  0  0  0  0  0
  150.1177  139.7889  155.6684 C   0  0  0  0  0  0  0  0  0  0  0  0
  150.6959  140.8943  156.5049 C   0  0  0  0  0  0  0  0  0  0  0  0
  150.5386  142.2454  156.3109 C   0  0  0  0  0  0  0  0  0  0  0  0
  151.3777  143.1815  157.5167 S   0  0  0  0  0  0  0  0  0  0  0  0
  151.9309  141.6742  158.2530 C   0  0  0  0  0  0  0  0  0  0  0  0
  152.7661  141.5513  159.4031 N   0  0  0  0  0  0  0  0  0  0  0  0
  152.7341  142.5322  160.4840 C   0  0  0  0  0  0  0  0  0  0  0  0
  153.5768  141.9366  161.6169 C   0  0  0  0  0  0  0  0  0  0  0  0
  154.3715  140.8012  160.9750 C   0  0  0  0  0  0  0  0  0  0  0  0
  153.6742  140.5882  159.6414 C   0  0  0  0  0  0  0  0  0  0  0  0
  153.9565  139.6376  158.9134 O   0  0  0  0  0  0  0  0  0  0  0  0
  151.4942  140.5851  157.6114 N   0  0  0  0  0  0  0  0  0  0  0  0
  146.6376  138.1697  151.0298 H   0  0  0  0  0  0  0  0  0  0  0  0
  145.3752  138.4515  152.2260 H   0  0  0  0  0  0  0  0  0  0  0  0
  146.8989  137.7058  152.7088 H   0  0  0  0  0  0  0  0  0  0  0  0
  148.1120  139.8300  152.1418 H   0  0  0  0  0  0  0  0  0  0  0  0
  146.6063  140.5739  151.6615 H   0  0  0  0  0  0  0  0  0  0  0  0
  146.7312  141.3895  153.8414 H   0  0  0  0  0  0  0  0  0  0  0  0
  145.8448  139.9182  154.1665 H   0  0  0  0  0  0  0  0  0  0  0  0
  147.6564  139.1945  155.3853 H   0  0  0  0  0  0  0  0  0  0  0  0
  149.5989  139.0559  156.2881 H   0  0  0  0  0  0  0  0  0  0  0  0
  150.9125  139.2478  155.1536 H   0  0  0  0  0  0  0  0  0  0  0  0
  149.9765  142.7443  155.5354 H   0  0  0  0  0  0  0  0  0  0  0  0
  153.1675  143.4690  160.1305 H   0  0  0  0  0  0  0  0  0  0  0  0
  151.7139  142.7337  160.8147 H   0  0  0  0  0  0  0  0  0  0  0  0
  154.2245  142.6838  162.0765 H   0  0  0  0  0  0  0  0  0  0  0  0
  152.9271  141.5383  162.3977 H   0  0  0  0  0  0  0  0  0  0  0  0
  155.4079  141.0912  160.7989 H   0  0  0  0  0  0  0  0  0  0  0  0
  154.3595  139.8951  161.5816 H   0  0  0  0  0  0  0  0  0  0  0  0
  1  2  1  0  0  0  0
  1 19  1  0  0  0  0
  1 20  1  0  0  0  0
  1 21  1  0  0  0  0
  2  3  1  0  0  0  0
  2 22  1  0  0  0  0
  2 23  1  0  0  0  0
  3  4  1  0  0  0  0
  3 24  1  0  0  0  0
  3 25  1  0  0  0  0
  4  5  1  0  0  0  0
  4 26  1  0  0  0  0
  5  6  2  0  0  0  0
  5  7  1  0  0  0  0
  7  8  1  0  0  0  0
  7 27  1  0  0  0  0
  7 28  1  0  0  0  0
  8 18  1  0  0  0  0
  8  9  2  0  0  0  0
  9 10  1  0  0  0  0
  9 29  1  0  0  0  0
 10 11  1  0  0  0  0
 11 12  1  0  0  0  0
 11 18  2  0  0  0  0
 12 16  1  0  0  0  0
 12 13  1  0  0  0  0
 13 14  1  0  0  0  0
 13 30  1  0  0  0  0
 13 31  1  0  0  0  0
 14 15  1  0  0  0  0
 14 32  1  0  0  0  0
 14 33  1  0  0  0  0
 15 16  1  0  0  0  0
 15 34  1  0  0  0  0
 15 35  1  0  0  0  0
 16 17  2  0  0  0  0
M  END
> <s_m_source_file>
AV-unprocessed.smi

> <i_m_source_file_index>
2723

> <i_lp_mmshare_version>
43012

> <i_f3d_flags>
0

> <s_epik_input>
W0NIM11bQ0gyXVtDSDJdW05IXUMoPU8pW0NIMl1jMVtjSF1zYyhuMSlOMltDSDJdW0NIMl1bQ0gyXUMyPU8=

> <s_epik_cmdline>
J2VwaWtfcHl0aG9uJywgJy1waCcsICc3LjAnLCAnLXRuJywgJzgnLCAnLW1hJywgJzIwMCcsICctbWV0YWxfYmluZGluZycsICctaW1hZScsICc8aW5maWxlLm1hZT4nLCAnLW9tYWUnLCAnPG91dGZpbGUubWFlPic=

> <r_lp_tautomer_probability>
1

> <r_epik_Ionization_Penalty>
2.96769e-05

> <r_epik_Ionization_Penalty_Charging>
0

> <r_epik_Ionization_Penalty_Neutral>
2.96769e-05

> <r_epik_State_Penalty>
-0

> <r_epik_Charging_Adjusted_Penalty>
0

> <i_epik_Tot_Q>
0

> <i_epik_Tot_abs_Q>
0

> <r_epik_Metal_State_Penalty>
-0

> <b_epik_Metal_Only>
0

> <s_lp_Force_Field>
OPLS_2005

> <r_lp_Energy>
15.8709

> <b_lp_Chiralities_Consistent>
1

> <s_lp_Variant>
AV-unprocessed.smi:2723-1

> <Gold.Version>
5.8.1

> <Gold.Id.Protein>
6NUR|6NUR_protein|mol2

> <Gold.PLP.Fitness>
45.0447

> <Gold.PLP.PLP>
-37.1533

> <Gold.PLP.part.hbond>
-3.0000

> <Gold.PLP.part.metal>
0.0000

> <Gold.PLP.part.buried>
0.3678

> <Gold.PLP.part.nonpolar>
-36.1387

> <Gold.PLP.part.repulsive>
1.4406

> <Gold.PLP.ligand.clash>
0.0000

> <Gold.PLP.ligand.torsion>
0.6955

> <Gold.PLP.Chemscore.Hbond>
2.0820

> <Gold.PLP.Chemscore.CHOScore>
1.0000

> <Gold.PLP.Chemscore.Metal>
0.0000

> <Gold.Chemscore.Hbonds>
donor molecule, donor type, donor heavy atom, donor atom, acceptor molecule, acceptor atom, score
      P1  H  7989  7998       L1     6  0.23
      P1  H  7997  8009       L1    17  1.00
      P1  H  8011  8017       L1     6  0.86
      L1  C     9    29       P1  8028  0.97

> <Gold.PLP.Chemscore.Internal.Correction>
0.0364

> <Gold.Rescore>
     Score         DG    S(hbond)    S(metal)    S(lipo)     H(rot)  DE(clash)    DE(int)     intcor
     13.82     -17.36       1.91        0.00      82.99       1.64       0.48       3.06       ----

> <Gold.Chemscore.Fitness>
13.8227

> <Gold.Chemscore.DG>
-17.3558

> <Gold.Chemscore.ZeroCoef>
-5.4800

> <Gold.Chemscore.Hbond>
1.9088

> <Gold.Chemscore.Metal>
0.0000

> <Gold.Chemscore.Lipo>
82.9923

> <Gold.Chemscore.Internal_Hbond>
0.0000

> <Gold.Chemscore.DEClash>
0.4771

> <Gold.Chemscore.DEInternal>
3.0559

> <Gold.Chemscore.Rot>
1.6444

> <Gold.Chemscore.Internal.Correction>
   9.000000E+99

> <Gold.Chemscore.Hbonds>
donor molecule, donor type, donor heavy atom, donor atom, acceptor molecule, acceptor atom, score
      P1  H  7989  7998       L1     6  0.16
      P1  H  7997  8009       L1    17  0.91
      P1  H  8011  8017       L1     6  0.86

> <Gold.Chemscore.Hbond.Weighted>
-6.3752

> <Gold.Chemscore.Metal.Weighted>
-0.0000

> <Gold.Chemscore.Lipo.Weighted>
-9.7101

> <Gold.Chemscore.Internal_Hbond.Weighted>
0.0000

> <Gold.Chemscore.DEClash.Weighted>
0.4771

> <Gold.Chemscore.DEInternal.Weighted>
3.0559

> <Gold.Chemscore.Rot.Weighted>
4.2096

> <Gold.Chemscore.Internal.Correction.Weighted>
   9.000000E+99

> <Gold.Protein.RotatedTorsions>
[ 6907 6896 6895 6894 ] final   27.32 input  -60.11 | X-H torsion
[ 7974 7965 7964 7962 ] final   58.48 input  175.53 | X-H torsion
[ 8008 7997 7996 7995 ] final  122.15 input   59.86 | X-H torsion
[ 10167 10162 10161 10158 ] final  173.26 input  -65.29 | X-H torsion
[ 10718 10713 10712 10709 ] final -119.43 input   66.30 | X-H torsion
[ 10763 10752 10751 10750 ] final -178.69 input  -60.55 | X-H torsion
[ 11005 11000 10999 10996 ] final   42.41 input  -57.11 | X-H torsion

> <Gold.Protein.ActiveResidues>
 VAL166  LYS551  ARG553  GLY616  TRP617  ASP618  TYR619  PRO620  LYS621  CYS622 
 ASP623  PHE694  ASN695  SER759  ASP760  ASP761  ALA762  ILE779  LEU786  VAL792 
 PHE793  MET794  SER795  GLU796  ALA797  LYS798  CYS799  TRP800  GLU811  SER814 

> <Gold.Protein.RotatedAtoms>
  152.0005  134.9931  160.0564 H   0  0  0  0  0  0  0  0  0  0  0  0  # atno 6907 bound_to 6896
  152.1523  133.4525  159.4828 H   0  0  0  0  0  0  0  0  0  0  0  0  # atno 6908 bound_to 6896
  150.6877  134.2091  159.4395 H   0  0  0  0  0  0  0  0  0  0  0  0  # atno 6909 bound_to 6896
  145.9177  139.3704  143.0497 H   0  0  0  0  0  0  0  0  0  0  0  0  # atno 7974 bound_to 7965
  156.2716  140.2792  156.1422 H   0  0  0  0  0  0  0  0  0  0  0  0  # atno 8008 bound_to 7997
  155.0941  140.0389  157.2695 H   0  0  0  0  0  0  0  0  0  0  0  0  # atno 8009 bound_to 7997
  154.6866  140.2620  155.6860 H   0  0  0  0  0  0  0  0  0  0  0  0  # atno 8010 bound_to 7997
  139.5102  144.3281  152.0138 H   0  0  0  0  0  0  0  0  0  0  0  0  # atno 10167 bound_to 10162
  156.1180  130.6301  150.9415 H   0  0  0  0  0  0  0  0  0  0  0  0  # atno 10718 bound_to 10713
  154.5445  135.2808  155.1065 H   0  0  0  0  0  0  0  0  0  0  0  0  # atno 10763 bound_to 10752
  154.2535  135.6335  153.5252 H   0  0  0  0  0  0  0  0  0  0  0  0  # atno 10764 bound_to 10752
  152.9987  135.5588  154.5993 H   0  0  0  0  0  0  0  0  0  0  0  0  # atno 10765 bound_to 10752
  140.1741  134.4185  155.8239 H   0  0  0  0  0  0  0  0  0  0  0  0  # atno 11005 bound_to 11000
  145.8590  140.9486  143.0710 LP  0  0  0  0  0  0  0  0  0  0  0  0  # atno 17320 bound_to 7965
  144.6749  140.0506  143.7479 LP  0  0  0  0  0  0  0  0  0  0  0  0  # atno 17321 bound_to 7965
  140.2721  144.3952  150.6147 LP  0  0  0  0  0  0  0  0  0  0  0  0  # atno 17342 bound_to 10162
  140.6080  143.2168  151.6941 LP  0  0  0  0  0  0  0  0  0  0  0  0  # atno 17343 bound_to 10162
  157.6364  131.0915  150.8340 LP  0  0  0  0  0  0  0  0  0  0  0  0  # atno 17370 bound_to 10713
  156.8441  130.5058  149.5318 LP  0  0  0  0  0  0  0  0  0  0  0  0  # atno 17371 bound_to 10713
  141.2219  133.6970  156.7816 LP  0  0  0  0  0  0  0  0  0  0  0  0  # atno 17394 bound_to 11000
  140.2342  134.8662  157.3508 LP  0  0  0  0  0  0  0  0  0  0  0  0  # atno 17395 bound_to 11000

$$$$
