AV-unprocessed.smi:3292|AV-procd|sdf|12628|dock10
  -GOLD-   2272018563D 1   1.00000     0.00000
 Structure written by MMmdl.
 38 39  0  0  0  0  0  0  0  0  1 V2000
  146.8387  132.8297  154.7630 C   0  0  0  0  0  0  0  0  0  0  0  0
  147.7990  132.9042  153.5646 C   0  0  1  0  0  0  0  0  0  0  0  0
  147.0798  132.8070  152.2015 C   0  0  0  0  0  0  0  0  0  0  0  0
  145.9472  133.7072  152.0995 N   0  0  0  0  0  0  0  0  0  0  0  0
  145.9065  134.9261  151.4357 C   0  0  0  0  0  0  0  0  0  0  0  0
  144.6359  135.4265  151.6104 C   0  0  0  0  0  0  0  0  0  0  0  0
  143.8841  134.5391  152.3771 N   0  0  0  0  0  0  0  0  0  0  0  0
  144.7277  133.5471  152.6317 C   0  0  0  0  0  0  0  0  0  0  0  0
  148.5645  134.1456  153.6382 N   0  0  0  0  0  0  0  0  0  0  0  0
  149.3241  134.5230  154.6764 C   0  0  0  0  0  0  0  0  0  0  0  0
  149.4552  133.8661  155.7094 O   0  0  0  0  0  0  0  0  0  0  0  0
  149.9324  135.6955  154.4480 N   0  0  0  0  0  0  0  0  0  0  0  0
  150.8421  136.3690  155.3698 C   0  0  0  0  0  0  0  0  0  0  0  0
  150.5107  137.8665  155.5142 C   0  0  1  0  0  0  0  0  0  0  0  0
  151.6075  138.6745  156.1769 C   0  0  0  0  0  0  0  0  0  0  0  0
  151.2334  140.1002  155.7822 C   0  0  0  0  0  0  0  0  0  0  0  0
  150.5932  139.9986  154.5135 O   0  0  0  0  0  0  0  0  0  0  0  0
  150.3478  138.6316  154.1989 C   0  0  0  0  0  0  0  0  0  0  0  0
  146.3136  131.8747  154.7960 H   0  0  0  0  0  0  0  0  0  0  0  0
  146.0896  133.6209  154.7208 H   0  0  0  0  0  0  0  0  0  0  0  0
  147.3791  132.9323  155.7047 H   0  0  0  0  0  0  0  0  0  0  0  0
  148.4914  132.0647  153.6525 H   0  0  0  0  0  0  0  0  0  0  0  0
  147.7741  133.0281  151.3893 H   0  0  0  0  0  0  0  0  0  0  0  0
  146.7167  131.7923  152.0326 H   0  0  0  0  0  0  0  0  0  0  0  0
  146.7608  135.3241  150.9078 H   0  0  0  0  0  0  0  0  0  0  0  0
  144.2093  136.3499  151.2478 H   0  0  0  0  0  0  0  0  0  0  0  0
  144.4502  132.6817  153.2155 H   0  0  0  0  0  0  0  0  0  0  0  0
  148.5201  134.7549  152.8345 H   0  0  0  0  0  0  0  0  0  0  0  0
  149.7592  136.1556  153.5663 H   0  0  0  0  0  0  0  0  0  0  0  0
  150.7469  135.8821  156.3407 H   0  0  0  0  0  0  0  0  0  0  0  0
  151.8799  136.2306  155.0614 H   0  0  0  0  0  0  0  0  0  0  0  0
  149.5978  137.9807  156.1015 H   0  0  0  0  0  0  0  0  0  0  0  0
  151.6539  138.5321  157.2569 H   0  0  0  0  0  0  0  0  0  0  0  0
  152.5800  138.4142  155.7557 H   0  0  0  0  0  0  0  0  0  0  0  0
  150.5219  140.5177  156.4956 H   0  0  0  0  0  0  0  0  0  0  0  0
  152.0995  140.7610  155.7409 H   0  0  0  0  0  0  0  0  0  0  0  0
  151.0926  138.3100  153.4696 H   0  0  0  0  0  0  0  0  0  0  0  0
  149.3609  138.4980  153.7551 H   0  0  0  0  0  0  0  0  0  0  0  0
  1  2  1  0  0  0  0
  1 19  1  0  0  0  0
  1 20  1  0  0  0  0
  1 21  1  0  0  0  0
  2  3  1  0  0  0  0
  2  9  1  0  0  0  0
  2 22  1  0  0  0  0
  3  4  1  0  0  0  0
  3 23  1  0  0  0  0
  3 24  1  0  0  0  0
  4  8  1  0  0  0  0
  4  5  1  0  0  0  0
  5  6  2  0  0  0  0
  5 25  1  0  0  0  0
  6  7  1  0  0  0  0
  6 26  1  0  0  0  0
  7  8  2  0  0  0  0
  8 27  1  0  0  0  0
  9 10  1  0  0  0  0
  9 28  1  0  0  0  0
 10 11  2  0  0  0  0
 10 12  1  0  0  0  0
 12 13  1  0  0  0  0
 12 29  1  0  0  0  0
 13 14  1  0  0  0  0
 13 30  1  0  0  0  0
 13 31  1  0  0  0  0
 14 18  1  0  0  0  0
 14 15  1  0  0  0  0
 14 32  1  0  0  0  0
 15 16  1  0  0  0  0
 15 33  1  0  0  0  0
 15 34  1  0  0  0  0
 16 17  1  0  0  0  0
 16 35  1  0  0  0  0
 16 36  1  0  0  0  0
 17 18  1  0  0  0  0
 18 37  1  0  0  0  0
 18 38  1  0  0  0  0
M  END
> <s_m_source_file>
AV-unprocessed.smi

> <i_m_source_file_index>
3292

> <i_lp_mmshare_version>
43012

> <i_f3d_flags>
0

> <s_epik_input>
W2NIXTFuW2NIXVtjSF1uMVtDSDJdW0NAQEhdKFtDSDNdKVtOSF1DKD1PKVtOSF1bQ0gyXVtDQEBIXTJbQ0gyXVtDSDJdT1tDSDJdMg==

> <s_epik_cmdline>
J2VwaWtfcHl0aG9uJywgJy1waCcsICc3LjAnLCAnLXRuJywgJzgnLCAnLW1hJywgJzIwMCcsICctbWV0YWxfYmluZGluZycsICctaW1hZScsICc8aW5maWxlLm1hZT4nLCAnLW9tYWUnLCAnPG91dGZpbGUubWFlPic=

> <r_lp_tautomer_probability>
1

> <r_epik_Ionization_Penalty>
0.621291

> <r_epik_Ionization_Penalty_Charging>
0.621234

> <r_epik_Ionization_Penalty_Neutral>
5.72199e-05

> <r_epik_State_Penalty>
0.637278

> <r_epik_Charging_Adjusted_Penalty>
1.25851

> <i_epik_Tot_Q>
0

> <i_epik_Tot_abs_Q>
0

> <r_epik_Metal_State_Penalty>
0.306757

> <b_epik_Metal_Only>
0

> <s_lp_Force_Field>
OPLS_2005

> <r_lp_Energy>
18.205

> <b_lp_Chiralities_Consistent>
1

> <s_lp_Variant>
AV-unprocessed.smi:3292-8

> <Gold.Version>
5.8.1

> <Gold.Id.Protein>
6NUR|6NUR_protein|mol2

> <Gold.PLP.Fitness>
44.9897

> <Gold.PLP.PLP>
-27.9825

> <Gold.PLP.part.hbond>
-3.4171

> <Gold.PLP.part.metal>
0.0000

> <Gold.PLP.part.buried>
-3.6096

> <Gold.PLP.part.nonpolar>
-21.4845

> <Gold.PLP.part.repulsive>
0.3156

> <Gold.PLP.ligand.clash>
0.0000

> <Gold.PLP.ligand.torsion>
0.4833

> <Gold.PLP.Chemscore.Hbond>
3.0000

> <Gold.PLP.Chemscore.CHOScore>
2.9740

> <Gold.PLP.Chemscore.Metal>
0.0000

> <Gold.Chemscore.Hbonds>
donor molecule, donor type, donor heavy atom, donor atom, acceptor molecule, acceptor atom, score
      L1  H     9    28       P1  7948  1.00
      L1  H    12    29       P1  7948  0.95
      P1  H  7989  7998       L1    17  1.00
      L1  C     5    25       P1  7948  1.00
      L1  C     6    26       P1 10171  0.65
      L1  C     8    27       P1 10957  1.00

> <Gold.PLP.Chemscore.Internal.Correction>
0.0518

> <Gold.Rescore>
     Score         DG    S(hbond)    S(metal)    S(lipo)     H(rot)  DE(clash)    DE(int)     intcor
     13.50     -14.04       2.48        0.00      49.68       2.16       0.01       0.53       ----

> <Gold.Chemscore.Fitness>
13.4998

> <Gold.Chemscore.DG>
-14.0365

> <Gold.Chemscore.ZeroCoef>
-5.4800

> <Gold.Chemscore.Hbond>
2.4755

> <Gold.Chemscore.Metal>
0.0000

> <Gold.Chemscore.Lipo>
49.6760

> <Gold.Chemscore.Internal_Hbond>
0.0000

> <Gold.Chemscore.DEClash>
0.0089

> <Gold.Chemscore.DEInternal>
0.5278

> <Gold.Chemscore.Rot>
2.1577

> <Gold.Chemscore.Internal.Correction>
   9.000000E+99

> <Gold.Chemscore.Hbonds>
donor molecule, donor type, donor heavy atom, donor atom, acceptor molecule, acceptor atom, score
      L1  H     9    28       P1  7948  0.29
      L1  H    12    29       P1  7948  0.21
      P1  H  7989  7998       L1    17  0.38

> <Gold.Chemscore.Hbond.Weighted>
-8.2681

> <Gold.Chemscore.Metal.Weighted>
-0.0000

> <Gold.Chemscore.Lipo.Weighted>
-5.8121

> <Gold.Chemscore.Internal_Hbond.Weighted>
0.0000

> <Gold.Chemscore.DEClash.Weighted>
0.0089

> <Gold.Chemscore.DEInternal.Weighted>
0.5278

> <Gold.Chemscore.Rot.Weighted>
5.5237

> <Gold.Chemscore.Internal.Correction.Weighted>
   9.000000E+99

> <Gold.Protein.RotatedTorsions>
[ 6907 6896 6895 6894 ] final  165.26 input  -60.11 | X-H torsion
[ 7974 7965 7964 7962 ] final  -93.90 input  175.53 | X-H torsion
[ 8008 7997 7996 7995 ] final -138.66 input   59.86 | X-H torsion
[ 10167 10162 10161 10158 ] final   23.41 input  -65.29 | X-H torsion
[ 10718 10713 10712 10709 ] final  -56.23 input   66.30 | X-H torsion
[ 10763 10752 10751 10750 ] final  -99.52 input  -60.55 | X-H torsion
[ 11005 11000 10999 10996 ] final  -27.32 input  -57.11 | X-H torsion

> <Gold.Protein.ActiveResidues>
 VAL166  LYS551  ARG553  GLY616  TRP617  ASP618  TYR619  PRO620  LYS621  CYS622 
 ASP623  PHE694  ASN695  SER759  ASP760  ASP761  ALA762  ILE779  LEU786  VAL792 
 PHE793  MET794  SER795  GLU796  ALA797  LYS798  CYS799  TRP800  GLU811  SER814 

> <Gold.Protein.RotatedAtoms>
  151.8972  133.3529  159.3818 H   0  0  0  0  0  0  0  0  0  0  0  0  # atno 6907 bound_to 6896
  150.7089  134.4864  159.5504 H   0  0  0  0  0  0  0  0  0  0  0  0  # atno 6908 bound_to 6896
  152.2446  134.8195  160.0506 H   0  0  0  0  0  0  0  0  0  0  0  0  # atno 6909 bound_to 6896
  145.3804  140.9517  143.2397 H   0  0  0  0  0  0  0  0  0  0  0  0  # atno 7974 bound_to 7965
  155.4320  140.0526  157.3017 H   0  0  0  0  0  0  0  0  0  0  0  0  # atno 8008 bound_to 7997
  154.4855  140.2099  155.9622 H   0  0  0  0  0  0  0  0  0  0  0  0  # atno 8009 bound_to 7997
  156.1269  140.3178  155.8295 H   0  0  0  0  0  0  0  0  0  0  0  0  # atno 8010 bound_to 7997
  140.5271  143.9904  150.6446 H   0  0  0  0  0  0  0  0  0  0  0  0  # atno 10167 bound_to 10162
  156.1305  130.4160  150.0277 H   0  0  0  0  0  0  0  0  0  0  0  0  # atno 10718 bound_to 10713
  154.7505  135.4969  153.9280 H   0  0  0  0  0  0  0  0  0  0  0  0  # atno 10763 bound_to 10752
  153.1138  135.6715  153.9462 H   0  0  0  0  0  0  0  0  0  0  0  0  # atno 10764 bound_to 10752
  153.9213  135.3088  155.3426 H   0  0  0  0  0  0  0  0  0  0  0  0  # atno 10765 bound_to 10752
  140.9108  133.7462  156.0668 H   0  0  0  0  0  0  0  0  0  0  0  0  # atno 11005 bound_to 11000
  144.8512  139.5319  143.6855 LP  0  0  0  0  0  0  0  0  0  0  0  0  # atno 17320 bound_to 7965
  146.2845  139.6966  142.9205 LP  0  0  0  0  0  0  0  0  0  0  0  0  # atno 17321 bound_to 7965
  140.3269  143.3102  152.0727 LP  0  0  0  0  0  0  0  0  0  0  0  0  # atno 17342 bound_to 10162
  139.4942  144.6536  151.6622 LP  0  0  0  0  0  0  0  0  0  0  0  0  # atno 17343 bound_to 10162
  156.8191  130.9352  151.3642 LP  0  0  0  0  0  0  0  0  0  0  0  0  # atno 17370 bound_to 10713
  157.6483  130.8863  149.9582 LP  0  0  0  0  0  0  0  0  0  0  0  0  # atno 17371 bound_to 10713
  140.8112  134.3397  157.5411 LP  0  0  0  0  0  0  0  0  0  0  0  0  # atno 17394 bound_to 11000
  139.8757  134.9255  156.3377 LP  0  0  0  0  0  0  0  0  0  0  0  0  # atno 17395 bound_to 11000

$$$$
