AV-unprocessed.smi:2223|AV-procd|sdf|8989|dock3
  -GOLD-   2272012203D 1   1.00000     0.00000
 Structure written by MMmdl.
 46 47  0  0  0  0  0  0  0  0  1 V2000
  144.3349  132.1125  150.0118 C   0  0  0  0  0  0  0  0  0  0  0  0
  144.1609  133.2069  151.0438 C   0  0  0  0  0  0  0  0  0  0  0  0
  142.8925  133.4917  151.5848 C   0  0  0  0  0  0  0  0  0  0  0  0
  142.7940  134.5188  152.5437 C   0  0  0  0  0  0  0  0  0  0  0  0
  141.4609  134.8764  153.1666 C   0  0  0  0  0  0  0  0  0  0  0  0
  143.8568  135.2360  152.9671 N   0  0  0  0  0  0  0  0  0  0  0  0
  145.0835  134.9699  152.4535 C   0  0  0  0  0  0  0  0  0  0  0  0
  146.2622  135.6685  152.8262 N   0  0  0  0  0  0  0  0  0  0  0  0
  146.4250  136.5497  153.8287 C   0  0  0  0  0  0  0  0  0  0  0  0
  145.5532  136.8908  154.6285 O   0  0  0  0  0  0  0  0  0  0  0  0
  147.6802  137.0197  153.8609 N   0  0  0  0  0  0  0  0  0  0  0  0
  148.1862  137.9856  154.8324 C   0  0  2  0  0  0  0  0  0  0  0  0
  148.4291  139.3544  154.1943 C   0  0  0  0  0  0  0  0  0  0  0  0
  149.8244  139.7310  154.6597 C   0  0  0  0  0  0  0  0  0  0  0  0
  150.3147  140.8280  154.3953 O   0  0  0  0  0  0  0  0  0  0  0  0
  150.4100  138.7386  155.3567 N   0  0  0  0  0  0  0  0  0  0  0  0
  151.7854  138.7375  155.9217 C   0  0  0  0  0  0  0  0  0  0  0  0
  152.8126  138.9127  154.7814 C   0  0  0  0  0  0  0  0  0  0  0  0
  152.1110  137.4110  156.6493 C   0  0  0  0  0  0  0  0  0  0  0  0
  151.9422  139.8830  156.9475 C   0  0  0  0  0  0  0  0  0  0  0  0
  149.5479  137.5583  155.4086 C   0  0  0  0  0  0  0  0  0  0  0  0
  145.2692  133.9573  151.4857 C   0  0  0  0  0  0  0  0  0  0  0  0
  143.3899  131.8864  149.5168 H   0  0  0  0  0  0  0  0  0  0  0  0
  144.7002  131.2022  150.4875 H   0  0  0  0  0  0  0  0  0  0  0  0
  145.0529  132.4142  149.2488 H   0  0  0  0  0  0  0  0  0  0  0  0
  142.0191  132.9373  151.2735 H   0  0  0  0  0  0  0  0  0  0  0  0
  140.6354  134.4218  152.6183 H   0  0  0  0  0  0  0  0  0  0  0  0
  141.3142  135.9570  153.1643 H   0  0  0  0  0  0  0  0  0  0  0  0
  141.4211  134.5261  154.1982 H   0  0  0  0  0  0  0  0  0  0  0  0
  147.0756  135.4776  152.2603 H   0  0  0  0  0  0  0  0  0  0  0  0
  148.3332  136.6860  153.1672 H   0  0  0  0  0  0  0  0  0  0  0  0
  147.4658  138.1038  155.6445 H   0  0  0  0  0  0  0  0  0  0  0  0
  148.4157  139.3152  153.1041 H   0  0  0  0  0  0  0  0  0  0  0  0
  147.6963  140.0923  154.5225 H   0  0  0  0  0  0  0  0  0  0  0  0
  153.8343  138.8625  155.1593 H   0  0  0  0  0  0  0  0  0  0  0  0
  152.7103  139.8721  154.2745 H   0  0  0  0  0  0  0  0  0  0  0  0
  152.7039  138.1300  154.0296 H   0  0  0  0  0  0  0  0  0  0  0  0
  152.0469  136.5505  155.9825 H   0  0  0  0  0  0  0  0  0  0  0  0
  151.4440  137.2367  157.4941 H   0  0  0  0  0  0  0  0  0  0  0  0
  153.1259  137.4227  157.0485 H   0  0  0  0  0  0  0  0  0  0  0  0
  152.9194  139.8479  157.4299 H   0  0  0  0  0  0  0  0  0  0  0  0
  151.1884  139.8144  157.7328 H   0  0  0  0  0  0  0  0  0  0  0  0
  151.8553  140.8689  156.4919 H   0  0  0  0  0  0  0  0  0  0  0  0
  149.4209  137.1915  156.4273 H   0  0  0  0  0  0  0  0  0  0  0  0
  150.0010  136.7621  154.8153 H   0  0  0  0  0  0  0  0  0  0  0  0
  146.2521  133.7550  151.0850 H   0  0  0  0  0  0  0  0  0  0  0  0
  1  2  1  0  0  0  0
  1 23  1  0  0  0  0
  1 24  1  0  0  0  0
  1 25  1  0  0  0  0
  2 22  1  0  0  0  0
  2  3  2  0  0  0  0
  3  4  1  0  0  0  0
  3 26  1  0  0  0  0
  4  5  1  0  0  0  0
  4  6  2  0  0  0  0
  5 27  1  0  0  0  0
  5 28  1  0  0  0  0
  5 29  1  0  0  0  0
  6  7  1  0  0  0  0
  7  8  1  0  0  0  0
  7 22  2  0  0  0  0
  8  9  1  0  0  0  0
  8 30  1  0  0  0  0
  9 10  2  0  0  0  0
  9 11  1  0  0  0  0
 11 12  1  0  0  0  0
 11 31  1  0  0  0  0
 12 21  1  0  0  0  0
 12 13  1  0  0  0  0
 12 32  1  0  0  0  0
 13 14  1  0  0  0  0
 13 33  1  0  0  0  0
 13 34  1  0  0  0  0
 14 15  2  0  0  0  0
 14 16  1  0  0  0  0
 16 17  1  0  0  0  0
 16 21  1  0  0  0  0
 17 18  1  0  0  0  0
 17 19  1  0  0  0  0
 17 20  1  0  0  0  0
 18 35  1  0  0  0  0
 18 36  1  0  0  0  0
 18 37  1  0  0  0  0
 19 38  1  0  0  0  0
 19 39  1  0  0  0  0
 19 40  1  0  0  0  0
 20 41  1  0  0  0  0
 20 42  1  0  0  0  0
 20 43  1  0  0  0  0
 21 44  1  0  0  0  0
 21 45  1  0  0  0  0
 22 46  1  0  0  0  0
M  END
> <s_m_source_file>
AV-unprocessed.smi

> <i_m_source_file_index>
2223

> <i_lp_mmshare_version>
43012

> <i_f3d_flags>
0

> <s_epik_input>
W0NIM11jMVtjSF1jKFtDSDNdKW5jKFtjSF0xKVtOSF1DKD1PKVtOSF1bQ0BASF0yW0NIMl1DKD1PKU4oW0NIMl0yKUMoW0NIM10pKFtDSDNdKVtDSDNd

> <s_epik_cmdline>
J2VwaWtfcHl0aG9uJywgJy1waCcsICc3LjAnLCAnLXRuJywgJzgnLCAnLW1hJywgJzIwMCcsICctbWV0YWxfYmluZGluZycsICctaW1hZScsICc8aW5maWxlLm1hZT4nLCAnLW9tYWUnLCAnPG91dGZpbGUubWFlPic=

> <r_lp_tautomer_probability>
1

> <r_epik_Ionization_Penalty>
0.000228403

> <r_epik_Ionization_Penalty_Charging>
0

> <r_epik_Ionization_Penalty_Neutral>
0.000228403

> <r_epik_State_Penalty>
-0

> <r_epik_Charging_Adjusted_Penalty>
0

> <i_epik_Tot_Q>
0

> <i_epik_Tot_abs_Q>
0

> <r_epik_Metal_State_Penalty>
-0

> <b_epik_Metal_Only>
0

> <s_lp_Force_Field>
OPLS_2005

> <r_lp_Energy>
26.8517

> <b_lp_Chiralities_Consistent>
1

> <s_lp_Variant>
AV-unprocessed.smi:2223-1

> <Gold.Version>
5.8.1

> <Gold.Id.Protein>
6NUR|6NUR_protein|mol2

> <Gold.PLP.Fitness>
40.4189

> <Gold.PLP.PLP>
-33.2367

> <Gold.PLP.part.hbond>
-2.5058

> <Gold.PLP.part.metal>
0.0000

> <Gold.PLP.part.buried>
-2.3498

> <Gold.PLP.part.nonpolar>
-28.7193

> <Gold.PLP.part.repulsive>
0.2754

> <Gold.PLP.ligand.clash>
0.0000

> <Gold.PLP.ligand.torsion>
0.2009

> <Gold.PLP.Chemscore.Hbond>
2.5103

> <Gold.PLP.Chemscore.CHOScore>
0.0000

> <Gold.PLP.Chemscore.Metal>
0.0000

> <Gold.Chemscore.Hbonds>
donor molecule, donor type, donor heavy atom, donor atom, acceptor molecule, acceptor atom, score
      L1  H     8    30       P1  7948  0.84
      L1  H    11    31       P1  7948  0.96
      P1  H  7989  7998       L1    15  0.74

> <Gold.PLP.Chemscore.Internal.Correction>
0.0532

> <Gold.Rescore>
     Score         DG    S(hbond)    S(metal)    S(lipo)     H(rot)  DE(clash)    DE(int)     intcor
     17.88     -19.41       2.44        0.00      75.88       1.21       0.10       1.44       ----

> <Gold.Chemscore.Fitness>
17.8802

> <Gold.Chemscore.DG>
-19.4145

> <Gold.Chemscore.ZeroCoef>
-5.4800

> <Gold.Chemscore.Hbond>
2.4378

> <Gold.Chemscore.Metal>
0.0000

> <Gold.Chemscore.Lipo>
75.8834

> <Gold.Chemscore.Internal_Hbond>
0.0000

> <Gold.Chemscore.DEClash>
0.0961

> <Gold.Chemscore.DEInternal>
1.4383

> <Gold.Chemscore.Rot>
1.2055

> <Gold.Chemscore.Internal.Correction>
   9.000000E+99

> <Gold.Chemscore.Hbonds>
donor molecule, donor type, donor heavy atom, donor atom, acceptor molecule, acceptor atom, score
      L1  H     8    30       P1  7948  0.77
      L1  H    11    31       P1  7948  0.91
      P1  H  7989  7998       L1    15  0.70

> <Gold.Chemscore.Hbond.Weighted>
-8.1422

> <Gold.Chemscore.Metal.Weighted>
-0.0000

> <Gold.Chemscore.Lipo.Weighted>
-8.8784

> <Gold.Chemscore.Internal_Hbond.Weighted>
0.0000

> <Gold.Chemscore.DEClash.Weighted>
0.0961

> <Gold.Chemscore.DEInternal.Weighted>
1.4383

> <Gold.Chemscore.Rot.Weighted>
3.0861

> <Gold.Chemscore.Internal.Correction.Weighted>
   9.000000E+99

> <Gold.Protein.RotatedTorsions>
[ 6907 6896 6895 6894 ] final  128.34 input  -60.11 | X-H torsion
[ 7974 7965 7964 7962 ] final -132.45 input  175.53 | X-H torsion
[ 8008 7997 7996 7995 ] final   73.33 input   59.86 | X-H torsion
[ 10167 10162 10161 10158 ] final  117.08 input  -65.29 | X-H torsion
[ 10718 10713 10712 10709 ] final   87.93 input   66.30 | X-H torsion
[ 10763 10752 10751 10750 ] final  -62.40 input  -60.55 | X-H torsion
[ 11005 11000 10999 10996 ] final  -78.60 input  -57.11 | X-H torsion

> <Gold.Protein.ActiveResidues>
 VAL166  LYS551  ARG553  GLY616  TRP617  ASP618  TYR619  PRO620  LYS621  CYS622 
 ASP623  PHE694  ASN695  SER759  ASP760  ASP761  ALA762  ILE779  LEU786  VAL792 
 PHE793  MET794  SER795  GLU796  ALA797  LYS798  CYS799  TRP800  GLU811  SER814 

> <Gold.Protein.RotatedAtoms>
  152.3729  133.6442  159.6100 H   0  0  0  0  0  0  0  0  0  0  0  0  # atno 6907 bound_to 6896
  150.7682  133.9241  159.3416 H   0  0  0  0  0  0  0  0  0  0  0  0  # atno 6908 bound_to 6896
  151.7060  135.0922  160.0310 H   0  0  0  0  0  0  0  0  0  0  0  0  # atno 6909 bound_to 6896
  144.9284  140.7099  143.4921 H   0  0  0  0  0  0  0  0  0  0  0  0  # atno 7974 bound_to 7965
  155.7821  140.3481  155.5303 H   0  0  0  0  0  0  0  0  0  0  0  0  # atno 8008 bound_to 7997
  155.8718  140.0988  157.1565 H   0  0  0  0  0  0  0  0  0  0  0  0  # atno 8009 bound_to 7997
  154.4018  140.1339  156.4075 H   0  0  0  0  0  0  0  0  0  0  0  0  # atno 8010 bound_to 7997
  139.6203  144.7100  151.2649 H   0  0  0  0  0  0  0  0  0  0  0  0  # atno 10167 bound_to 10162
  157.6945  131.0275  150.3198 H   0  0  0  0  0  0  0  0  0  0  0  0  # atno 10718 bound_to 10713
  154.2993  135.6238  153.5418 H   0  0  0  0  0  0  0  0  0  0  0  0  # atno 10763 bound_to 10752
  152.9842  135.5674  154.5302 H   0  0  0  0  0  0  0  0  0  0  0  0  # atno 10764 bound_to 10752
  154.4929  135.2868  155.1458 H   0  0  0  0  0  0  0  0  0  0  0  0  # atno 10765 bound_to 10752
  141.1665  133.7070  156.7997 H   0  0  0  0  0  0  0  0  0  0  0  0  # atno 11005 bound_to 11000
  145.3181  139.1797  143.4602 LP  0  0  0  0  0  0  0  0  0  0  0  0  # atno 17320 bound_to 7965
  146.3236  140.3195  142.8632 LP  0  0  0  0  0  0  0  0  0  0  0  0  # atno 17321 bound_to 7965
  140.7378  143.6668  150.8116 LP  0  0  0  0  0  0  0  0  0  0  0  0  # atno 17342 bound_to 10162
  140.0278  143.5475  152.2773 LP  0  0  0  0  0  0  0  0  0  0  0  0  # atno 17343 bound_to 10162
  156.3687  130.3859  149.7193 LP  0  0  0  0  0  0  0  0  0  0  0  0  # atno 17370 bound_to 10713
  156.4614  130.7954  151.2974 LP  0  0  0  0  0  0  0  0  0  0  0  0  # atno 17371 bound_to 10713
  140.2265  134.8717  157.3432 LP  0  0  0  0  0  0  0  0  0  0  0  0  # atno 17394 bound_to 11000
  140.1934  134.4344  155.7703 LP  0  0  0  0  0  0  0  0  0  0  0  0  # atno 17395 bound_to 11000

$$$$
