AV-unprocessed.smi:270|AV-procd|sdf|2045|dock7
  -GOLD-   2262021273D 1   1.00000     0.00000
 Structure written by MMmdl.
 54 57  0  0  0  0  0  0  0  0  1 V2000
  152.0441  144.9548  158.1178 C   0  0  0  0  0  0  0  0  0  0  0  0
  151.8104  143.7748  159.0740 C   0  0  2  0  0  0  0  0  0  0  0  0
  153.0522  143.4850  159.7113 O   0  0  0  0  0  0  0  0  0  0  0  0
  153.1094  142.0988  159.9974 C   0  0  0  0  0  0  0  0  0  0  0  0
  152.4883  141.4826  158.7535 C   0  0  0  0  0  0  0  0  0  0  0  0
  151.3408  142.4370  158.4346 C   0  0  1  0  0  0  0  0  0  0  0  0
  150.1994  141.9967  159.1522 O   0  0  0  0  0  0  0  0  0  0  0  0
  150.9699  142.4829  156.9286 C   0  0  0  0  0  0  0  0  0  0  0  0
  150.4334  141.2265  156.4264 N   0  0  0  0  0  0  0  0  0  0  0  0
  149.1077  140.8622  156.3642 C   0  0  0  0  0  0  0  0  0  0  0  0
  148.8793  139.6766  155.8699 N   0  0  0  0  0  0  0  0  0  0  0  0
  150.1423  139.1826  155.5637 C   0  0  0  0  0  0  0  0  0  0  0  0
  150.6131  137.9590  155.0033 C   0  0  0  0  0  0  0  0  0  0  0  0
  149.7702  136.8869  154.5901 N   0  0  0  0  0  0  0  0  0  0  0  0
  148.7856  136.4276  155.5588 C   0  0  0  0  0  0  0  0  0  0  0  0
  149.1486  135.0014  155.1326 C   0  0  0  0  0  0  0  0  0  0  0  0
  148.2373  134.4261  154.2093 O   0  0  0  0  0  0  0  0  0  0  0  0
  147.0921  133.8722  154.8369 C   0  0  0  0  0  0  0  0  0  0  0  0
  146.2479  133.1542  153.7776 C   0  0  0  0  0  0  0  0  0  0  0  0
  145.0468  133.4197  153.7123 O   0  0  0  0  0  0  0  0  0  0  0  0
  146.8432  132.2643  152.9491 N   0  0  0  0  0  0  0  0  0  0  0  0
  148.2626  131.9093  153.0388 C   0  0  0  0  0  0  0  0  0  0  0  0
  146.0727  131.5750  151.9107 C   0  0  0  0  0  0  0  0  0  0  0  0
  150.3840  135.5732  154.4353 C   0  0  0  0  0  0  0  0  0  0  0  0
  151.9575  137.8605  154.8203 N   0  0  0  0  0  0  0  0  0  0  0  0
  152.7793  138.8512  155.1778 C   0  0  0  0  0  0  0  0  0  0  0  0
  152.4757  140.0284  155.7240 N   0  0  0  0  0  0  0  0  0  0  0  0
  151.1302  140.1534  155.8982 C   0  0  0  0  0  0  0  0  0  0  0  0
  151.1272  145.2369  157.6000 H   0  0  0  0  0  0  0  0  0  0  0  0
  152.8017  144.7201  157.3697 H   0  0  0  0  0  0  0  0  0  0  0  0
  152.3900  145.8305  158.6672 H   0  0  0  0  0  0  0  0  0  0  0  0
  151.1089  144.0940  159.8473 H   0  0  0  0  0  0  0  0  0  0  0  0
  154.1325  141.7642  160.1698 H   0  0  0  0  0  0  0  0  0  0  0  0
  152.5162  141.8787  160.8863 H   0  0  0  0  0  0  0  0  0  0  0  0
  153.2262  141.5016  157.9509 H   0  0  0  0  0  0  0  0  0  0  0  0
  152.1767  140.4466  158.8947 H   0  0  0  0  0  0  0  0  0  0  0  0
  149.6705  141.4659  158.5765 H   0  0  0  0  0  0  0  0  0  0  0  0
  150.2339  143.2656  156.7399 H   0  0  0  0  0  0  0  0  0  0  0  0
  151.8443  142.7315  156.3269 H   0  0  0  0  0  0  0  0  0  0  0  0
  148.3099  141.5069  156.7033 H   0  0  0  0  0  0  0  0  0  0  0  0
  149.0590  136.6443  156.5926 H   0  0  0  0  0  0  0  0  0  0  0  0
  147.7673  136.7352  155.3201 H   0  0  0  0  0  0  0  0  0  0  0  0
  149.4038  134.3419  155.9638 H   0  0  0  0  0  0  0  0  0  0  0  0
  147.4019  133.1571  155.6010 H   0  0  0  0  0  0  0  0  0  0  0  0
  146.4990  134.6370  155.3393 H   0  0  0  0  0  0  0  0  0  0  0  0
  148.8896  132.7639  152.7823 H   0  0  0  0  0  0  0  0  0  0  0  0
  148.5313  131.0956  152.3646 H   0  0  0  0  0  0  0  0  0  0  0  0
  148.5249  131.5793  154.0444 H   0  0  0  0  0  0  0  0  0  0  0  0
  145.4890  130.7658  152.3513 H   0  0  0  0  0  0  0  0  0  0  0  0
  146.7104  131.1458  151.1374 H   0  0  0  0  0  0  0  0  0  0  0  0
  145.3842  132.2543  151.4055 H   0  0  0  0  0  0  0  0  0  0  0  0
  150.5018  135.2653  153.3961 H   0  0  0  0  0  0  0  0  0  0  0  0
  151.2947  135.4349  155.0200 H   0  0  0  0  0  0  0  0  0  0  0  0
  153.8297  138.6754  154.9984 H   0  0  0  0  0  0  0  0  0  0  0  0
  1  2  1  0  0  0  0
  1 29  1  0  0  0  0
  1 30  1  0  0  0  0
  1 31  1  0  0  0  0
  2  6  1  0  0  0  0
  2  3  1  0  0  0  0
  2 32  1  0  0  0  0
  3  4  1  0  0  0  0
  4  5  1  0  0  0  0
  4 33  1  0  0  0  0
  4 34  1  0  0  0  0
  5  6  1  0  0  0  0
  5 35  1  0  0  0  0
  5 36  1  0  0  0  0
  6  7  1  0  0  0  0
  6  8  1  0  0  0  0
  7 37  1  0  0  0  0
  8  9  1  0  0  0  0
  8 38  1  0  0  0  0
  8 39  1  0  0  0  0
  9 28  1  0  0  0  0
  9 10  1  0  0  0  0
 10 11  2  0  0  0  0
 10 40  1  0  0  0  0
 11 12  1  0  0  0  0
 12 28  2  0  0  0  0
 12 13  1  0  0  0  0
 13 14  1  0  0  0  0
 13 25  2  0  0  0  0
 14 24  1  0  0  0  0
 14 15  1  0  0  0  0
 15 16  1  0  0  0  0
 15 41  1  0  0  0  0
 15 42  1  0  0  0  0
 16 17  1  0  0  0  0
 16 24  1  0  0  0  0
 16 43  1  0  0  0  0
 17 18  1  0  0  0  0
 18 19  1  0  0  0  0
 18 44  1  0  0  0  0
 18 45  1  0  0  0  0
 19 20  2  0  0  0  0
 19 21  1  0  0  0  0
 21 22  1  0  0  0  0
 21 23  1  0  0  0  0
 22 46  1  0  0  0  0
 22 47  1  0  0  0  0
 22 48  1  0  0  0  0
 23 49  1  0  0  0  0
 23 50  1  0  0  0  0
 23 51  1  0  0  0  0
 24 52  1  0  0  0  0
 24 53  1  0  0  0  0
 25 26  1  0  0  0  0
 26 27  2  0  0  0  0
 26 54  1  0  0  0  0
 27 28  1  0  0  0  0
M  END
> <s_m_source_file>
AV-unprocessed.smi

> <i_m_source_file_index>
270

> <i_lp_mmshare_version>
43012

> <i_f3d_flags>
0

> <s_epik_input>
W0NIMl0xW0NIMl1PW0NAQEhdKFtDSDNdKVtDQEBdMShbT0hdKVtDSDJdbihbY0hdbjIpYyhjMjMpbltjSF1uYzNONFtDSDJdW0NIXShbQ0gyXTQpT1tDSDJdQyg9TylOKFtDSDNdKVtDSDNd

> <s_epik_cmdline>
J2VwaWtfcHl0aG9uJywgJy1waCcsICc3LjAnLCAnLXRuJywgJzgnLCAnLW1hJywgJzIwMCcsICctbWV0YWxfYmluZGluZycsICctaW1hZScsICc8aW5maWxlLm1hZT4nLCAnLW9tYWUnLCAnPG91dGZpbGUubWFlPic=

> <r_lp_tautomer_probability>
1

> <r_epik_Ionization_Penalty>
0.00375854

> <r_epik_Ionization_Penalty_Charging>
0

> <r_epik_Ionization_Penalty_Neutral>
0.00375854

> <r_epik_State_Penalty>
-0

> <r_epik_Charging_Adjusted_Penalty>
0

> <i_epik_Tot_Q>
0

> <i_epik_Tot_abs_Q>
0

> <r_epik_Metal_State_Penalty>
-0

> <b_epik_Metal_Only>
0

> <s_lp_Force_Field>
OPLS_2005

> <r_lp_Energy>
54.2687

> <b_lp_Chiralities_Consistent>
1

> <s_lp_Variant>
AV-unprocessed.smi:270-1

> <Gold.Version>
5.8.1

> <Gold.Id.Protein>
6NUR|6NUR_protein|mol2

> <Gold.PLP.Fitness>
47.1269

> <Gold.PLP.PLP>
-43.4145

> <Gold.PLP.part.hbond>
-2.7173

> <Gold.PLP.part.metal>
0.0000

> <Gold.PLP.part.buried>
-6.6750

> <Gold.PLP.part.nonpolar>
-35.8614

> <Gold.PLP.part.repulsive>
2.0477

> <Gold.PLP.ligand.clash>
0.0000

> <Gold.PLP.ligand.torsion>
0.9808

> <Gold.PLP.Chemscore.Hbond>
1.7644

> <Gold.PLP.Chemscore.CHOScore>
0.0000

> <Gold.PLP.Chemscore.Metal>
0.0000

> <Gold.Chemscore.Hbonds>
donor molecule, donor type, donor heavy atom, donor atom, acceptor molecule, acceptor atom, score
      P1  H  7997  8009       L1    27  0.40

> <Gold.PLP.Chemscore.Internal.Correction>
0.3807

> <Gold.Rescore>
     Score         DG    S(hbond)    S(metal)    S(lipo)     H(rot)  DE(clash)    DE(int)     intcor
     10.34     -13.76       1.49        0.00      96.68       3.12       1.67       1.75       ----

> <Gold.Chemscore.Fitness>
10.3386

> <Gold.Chemscore.DG>
-13.7599

> <Gold.Chemscore.ZeroCoef>
-5.4800

> <Gold.Chemscore.Hbond>
1.4865

> <Gold.Chemscore.Metal>
0.0000

> <Gold.Chemscore.Lipo>
96.6754

> <Gold.Chemscore.Internal_Hbond>
0.0000

> <Gold.Chemscore.DEClash>
1.6685

> <Gold.Chemscore.DEInternal>
1.7528

> <Gold.Chemscore.Rot>
3.1234

> <Gold.Chemscore.Internal.Correction>
   9.000000E+99

> <Gold.Chemscore.Hbonds>
donor molecule, donor type, donor heavy atom, donor atom, acceptor molecule, acceptor atom, score
      P1  H  7997  8009       L1    27  0.01
      P1  H 10752 10765       L1    25  0.02

> <Gold.Chemscore.Hbond.Weighted>
-4.9648

> <Gold.Chemscore.Metal.Weighted>
-0.0000

> <Gold.Chemscore.Lipo.Weighted>
-11.3110

> <Gold.Chemscore.Internal_Hbond.Weighted>
0.0000

> <Gold.Chemscore.DEClash.Weighted>
1.6685

> <Gold.Chemscore.DEInternal.Weighted>
1.7528

> <Gold.Chemscore.Rot.Weighted>
7.9959

> <Gold.Chemscore.Internal.Correction.Weighted>
   9.000000E+99

> <Gold.Protein.RotatedTorsions>
[ 6907 6896 6895 6894 ] final  -39.35 input  -60.11 | X-H torsion
[ 7974 7965 7964 7962 ] final  -69.24 input  175.53 | X-H torsion
[ 8008 7997 7996 7995 ] final -164.47 input   59.86 | X-H torsion
[ 10167 10162 10161 10158 ] final -153.31 input  -65.29 | X-H torsion
[ 10718 10713 10712 10709 ] final -145.93 input   66.30 | X-H torsion
[ 10763 10752 10751 10750 ] final -175.34 input  -60.55 | X-H torsion
[ 11005 11000 10999 10996 ] final  -76.54 input  -57.11 | X-H torsion

> <Gold.Protein.ActiveResidues>
 VAL166  LYS551  ARG553  GLY616  TRP617  ASP618  TYR619  PRO620  LYS621  CYS622 
 ASP623  PHE694  ASN695  SER759  ASP760  ASP761  ALA762  ILE779  LEU786  VAL792 
 PHE793  MET794  SER795  GLU796  ALA797  LYS798  CYS799  TRP800  GLU811  SER814 

> <Gold.Protein.RotatedAtoms>
  150.9914  134.9248  159.7901 H   0  0  0  0  0  0  0  0  0  0  0  0  # atno 6907 bound_to 6896
  152.5252  134.3276  159.9181 H   0  0  0  0  0  0  0  0  0  0  0  0  # atno 6908 bound_to 6896
  151.3282  133.3970  159.2694 H   0  0  0  0  0  0  0  0  0  0  0  0  # atno 6909 bound_to 6896
  145.7063  140.9096  143.0704 H   0  0  0  0  0  0  0  0  0  0  0  0  # atno 7974 bound_to 7965
  155.8360  140.0941  157.1763 H   0  0  0  0  0  0  0  0  0  0  0  0  # atno 8008 bound_to 7997
  154.3980  140.1410  156.3732 H   0  0  0  0  0  0  0  0  0  0  0  0  # atno 8009 bound_to 7997
  155.8115  140.3449  155.5463 H   0  0  0  0  0  0  0  0  0  0  0  0  # atno 8010 bound_to 7997
  139.7108  143.9112  152.2467 H   0  0  0  0  0  0  0  0  0  0  0  0  # atno 10167 bound_to 10162
  156.3886  130.7874  151.2074 H   0  0  0  0  0  0  0  0  0  0  0  0  # atno 10718 bound_to 10713
  154.5856  135.2840  155.0688 H   0  0  0  0  0  0  0  0  0  0  0  0  # atno 10763 bound_to 10752
  154.2008  135.6424  153.5090 H   0  0  0  0  0  0  0  0  0  0  0  0  # atno 10764 bound_to 10752
  153.0103  135.5468  154.6524 H   0  0  0  0  0  0  0  0  0  0  0  0  # atno 10765 bound_to 10752
  141.1654  133.6987  156.7684 H   0  0  0  0  0  0  0  0  0  0  0  0  # atno 11005 bound_to 11000
  144.6954  139.9015  143.7459 LP  0  0  0  0  0  0  0  0  0  0  0  0  # atno 17320 bound_to 7965
  146.0752  139.3740  143.0498 LP  0  0  0  0  0  0  0  0  0  0  0  0  # atno 17321 bound_to 7965
  139.8980  144.6928  150.8696 LP  0  0  0  0  0  0  0  0  0  0  0  0  # atno 17342 bound_to 10162
  140.7732  143.3535  151.1967 LP  0  0  0  0  0  0  0  0  0  0  0  0  # atno 17343 bound_to 10162
  157.7497  131.0322  150.4217 LP  0  0  0  0  0  0  0  0  0  0  0  0  # atno 17370 bound_to 10713
  156.4475  130.4004  149.6657 LP  0  0  0  0  0  0  0  0  0  0  0  0  # atno 17371 bound_to 10713
  140.2482  134.8561  157.3641 LP  0  0  0  0  0  0  0  0  0  0  0  0  # atno 17394 bound_to 11000
  140.1729  134.4586  155.7820 LP  0  0  0  0  0  0  0  0  0  0  0  0  # atno 17395 bound_to 11000

$$$$
