AV-unprocessed.smi:1936|AV-procd|sdf|7832|dock3
  -GOLD-   22720 9583D 1   1.00000     0.00000
 Structure written by MMmdl.
 39 40  0  0  0  0  0  0  0  0  2 V2000
  144.9650  137.2025  154.4542 C   0  0  0  0  0  0  0  0  0  0  0  0
  145.5875  137.5732  153.1015 C   0  0  1  0  0  0  0  0  0  0  0  0
  146.7869  138.5339  153.2717 C   0  0  0  0  0  0  0  0  0  0  0  0
  146.3754  139.9003  153.6841 N   0  3  0  0  0  0  0  0  0  0  0  0
  146.0938  140.0213  155.1343 C   0  0  0  0  0  0  0  0  0  0  0  0
  145.5844  141.4352  155.4569 C   0  0  0  0  0  0  0  0  0  0  0  0
  146.5492  142.3936  155.0389 O   0  0  0  0  0  0  0  0  0  0  0  0
  146.7786  142.3423  153.6361 C   0  0  0  0  0  0  0  0  0  0  0  0
  147.3187  140.9552  153.2479 C   0  0  0  0  0  0  0  0  0  0  0  0
  146.0042  136.3542  152.4095 N   0  0  0  0  0  0  0  0  0  0  0  0
  145.1883  135.4042  151.9249 C   0  0  0  0  0  0  0  0  0  0  0  0
  143.9697  135.3971  152.0960 O   0  0  0  0  0  0  0  0  0  0  0  0
  145.8441  134.3318  151.0575 C   0  0  0  0  0  0  0  0  0  0  0  0
  145.3707  133.0133  151.4418 N   0  0  0  0  0  0  0  0  0  0  0  0
  146.1091  131.9292  151.8682 C   0  0  0  0  0  0  0  0  0  0  0  0
  145.2314  130.9155  152.1262 C   0  0  0  0  0  0  0  0  0  0  0  0
  143.9615  131.4814  151.8244 C   0  0  0  0  0  0  0  0  0  0  0  0
  144.0471  132.7388  151.4213 N   0  0  0  0  0  0  0  0  0  0  0  0
  144.6212  138.0918  154.9833 H   0  0  0  0  0  0  0  0  0  0  0  0
  145.6817  136.6897  155.0966 H   0  0  0  0  0  0  0  0  0  0  0  0
  144.1047  136.5449  154.3238 H   0  0  0  0  0  0  0  0  0  0  0  0
  144.8112  138.0742  152.5218 H   0  0  0  0  0  0  0  0  0  0  0  0
  147.5115  138.1326  153.9817 H   0  0  0  0  0  0  0  0  0  0  0  0
  147.3049  138.5972  152.3133 H   0  0  0  0  0  0  0  0  0  0  0  0
  145.3483  139.2875  155.4394 H   0  0  0  0  0  0  0  0  0  0  0  0
  147.0003  139.8118  155.7043 H   0  0  0  0  0  0  0  0  0  0  0  0
  144.6269  141.6250  154.9684 H   0  0  0  0  0  0  0  0  0  0  0  0
  145.4222  141.5408  156.5297 H   0  0  0  0  0  0  0  0  0  0  0  0
  145.8550  142.5642  153.0998 H   0  0  0  0  0  0  0  0  0  0  0  0
  147.4976  143.1158  153.3656 H   0  0  0  0  0  0  0  0  0  0  0  0
  148.2952  140.7881  153.7053 H   0  0  0  0  0  0  0  0  0  0  0  0
  147.4547  140.9078  152.1667 H   0  0  0  0  0  0  0  0  0  0  0  0
  146.9916  136.2615  152.2164 H   0  0  0  0  0  0  0  0  0  0  0  0
  145.6278  134.5007  150.0012 H   0  0  0  0  0  0  0  0  0  0  0  0
  146.9279  134.3700  151.1761 H   0  0  0  0  0  0  0  0  0  0  0  0
  147.1852  131.9695  151.9520 H   0  0  0  0  0  0  0  0  0  0  0  0
  145.4612  129.9199  152.4761 H   0  0  0  0  0  0  0  0  0  0  0  0
  142.9868  131.0212  151.8912 H   0  0  0  0  0  0  0  0  0  0  0  0
  145.5079  140.0879  153.2012 H   0  0  0  0  0  0  0  0  0  0  0  0
  1  2  1  0  0  0  0
  1 19  1  0  0  0  0
  1 20  1  0  0  0  0
  1 21  1  0  0  0  0
  2  3  1  0  0  0  0
  2 10  1  0  0  0  0
  2 22  1  0  0  0  0
  3  4  1  0  0  0  0
  3 23  1  0  0  0  0
  3 24  1  0  0  0  0
  4  9  1  0  0  0  0
  4  5  1  0  0  0  0
  4 39  1  0  0  0  0
  5  6  1  0  0  0  0
  5 25  1  0  0  0  0
  5 26  1  0  0  0  0
  6  7  1  0  0  0  0
  6 27  1  0  0  0  0
  6 28  1  0  0  0  0
  7  8  1  0  0  0  0
  8  9  1  0  0  0  0
  8 29  1  0  0  0  0
  8 30  1  0  0  0  0
  9 31  1  0  0  0  0
  9 32  1  0  0  0  0
 10 11  1  0  0  0  0
 10 33  1  0  0  0  0
 11 12  2  0  0  0  0
 11 13  1  0  0  0  0
 13 14  1  0  0  0  0
 13 34  1  0  0  0  0
 13 35  1  0  0  0  0
 14 18  1  0  0  0  0
 14 15  1  0  0  0  0
 15 16  2  0  0  0  0
 15 36  1  0  0  0  0
 16 17  1  0  0  0  0
 16 37  1  0  0  0  0
 17 18  2  0  0  0  0
 17 38  1  0  0  0  0
M  CHG  1   4   1
M  END
> <s_m_source_file>
AV-unprocessed.smi

> <i_m_source_file_index>
1936

> <i_lp_mmshare_version>
43012

> <i_f3d_flags>
0

> <s_epik_input>
W0NIMl0xW0NIMl1PW0NIMl1bQ0gyXU4xW0NIMl1bQ0BASF0oW0NIM10pW05IXUMoPU8pW0NIMl1uMltjSF1bY0hdW2NIXW4y

> <s_epik_cmdline>
J2VwaWtfcHl0aG9uJywgJy1waCcsICc3LjAnLCAnLXRuJywgJzgnLCAnLW1hJywgJzIwMCcsICctbWV0YWxfYmluZGluZycsICctaW1hZScsICc8aW5maWxlLm1hZT4nLCAnLW9tYWUnLCAnPG91dGZpbGUubWFlPic=

> <r_lp_tautomer_probability>
1

> <r_epik_Ionization_Penalty>
0.748405

> <r_epik_Ionization_Penalty_Charging>
0.748396

> <r_epik_Ionization_Penalty_Neutral>
9.02181e-06

> <r_epik_State_Penalty>
0.775162

> <r_epik_Charging_Adjusted_Penalty>
1.52356

> <i_epik_Tot_Q>
1

> <i_epik_Tot_abs_Q>
1

> <r_epik_Metal_State_Penalty>
0.775167

> <b_epik_Metal_Only>
0

> <s_lp_Force_Field>
OPLS_2005

> <r_lp_Energy>
20.1582

> <b_lp_Chiralities_Consistent>
1

> <s_lp_Variant>
AV-unprocessed.smi:1936-4

> <Gold.Version>
5.8.1

> <Gold.Id.Protein>
6NUR|6NUR_protein|mol2

> <Gold.PLP.Fitness>
41.4625

> <Gold.PLP.PLP>
-27.5438

> <Gold.PLP.part.hbond>
-2.0000

> <Gold.PLP.part.metal>
0.0000

> <Gold.PLP.part.buried>
-5.1117

> <Gold.PLP.part.nonpolar>
-21.3557

> <Gold.PLP.part.repulsive>
0.5694

> <Gold.PLP.ligand.clash>
0.0000

> <Gold.PLP.ligand.torsion>
0.5655

> <Gold.PLP.Chemscore.Hbond>
3.0000

> <Gold.PLP.Chemscore.CHOScore>
1.9965

> <Gold.PLP.Chemscore.Metal>
0.0000

> <Gold.Chemscore.Hbonds>
donor molecule, donor type, donor heavy atom, donor atom, acceptor molecule, acceptor atom, score
      L1  H     4    39       P1 10175  2.00
      L1  H    10    33       P1  7948  1.00
      L1  C    15    36       P1 10747  0.56

> <Gold.PLP.Chemscore.Internal.Correction>
0.0602

> <Gold.Rescore>
     Score         DG    S(hbond)    S(metal)    S(lipo)     H(rot)  DE(clash)    DE(int)     intcor
     12.73     -14.77       1.99        0.00      64.97       1.93       0.06       1.99       ----

> <Gold.Chemscore.Fitness>
12.7263

> <Gold.Chemscore.DG>
-14.7684

> <Gold.Chemscore.ZeroCoef>
-5.4800

> <Gold.Chemscore.Hbond>
1.9874

> <Gold.Chemscore.Metal>
0.0000

> <Gold.Chemscore.Lipo>
64.9708

> <Gold.Chemscore.Internal_Hbond>
0.0000

> <Gold.Chemscore.DEClash>
0.0571

> <Gold.Chemscore.DEInternal>
1.9850

> <Gold.Chemscore.Rot>
1.9340

> <Gold.Chemscore.Internal.Correction>
   9.000000E+99

> <Gold.Chemscore.Hbonds>
donor molecule, donor type, donor heavy atom, donor atom, acceptor molecule, acceptor atom, score
      L1  H     4    39       P1 10175  0.96
      L1  H    10    33       P1  7948  0.98

> <Gold.Chemscore.Hbond.Weighted>
-6.6379

> <Gold.Chemscore.Metal.Weighted>
-0.0000

> <Gold.Chemscore.Lipo.Weighted>
-7.6016

> <Gold.Chemscore.Internal_Hbond.Weighted>
0.0000

> <Gold.Chemscore.DEClash.Weighted>
0.0571

> <Gold.Chemscore.DEInternal.Weighted>
1.9850

> <Gold.Chemscore.Rot.Weighted>
4.9510

> <Gold.Chemscore.Internal.Correction.Weighted>
   9.000000E+99

> <Gold.Protein.RotatedTorsions>
[ 6907 6896 6895 6894 ] final   55.15 input  -60.11 | X-H torsion
[ 7974 7965 7964 7962 ] final   94.03 input  175.53 | X-H torsion
[ 8008 7997 7996 7995 ] final   53.33 input   59.86 | X-H torsion
[ 10167 10162 10161 10158 ] final -102.41 input  -65.29 | X-H torsion
[ 10718 10713 10712 10709 ] final   54.31 input   66.30 | X-H torsion
[ 10763 10752 10751 10750 ] final   72.20 input  -60.55 | X-H torsion
[ 11005 11000 10999 10996 ] final -104.67 input  -57.11 | X-H torsion

> <Gold.Protein.ActiveResidues>
 VAL166  LYS551  ARG553  GLY616  TRP617  ASP618  TYR619  PRO620  LYS621  CYS622 
 ASP623  PHE694  ASN695  SER759  ASP760  ASP761  ALA762  ILE779  LEU786  VAL792 
 PHE793  MET794  SER795  GLU796  ALA797  LYS798  CYS799  TRP800  GLU811  SER814 

> <Gold.Protein.RotatedAtoms>
  152.3510  134.7005  160.0236 H   0  0  0  0  0  0  0  0  0  0  0  0  # atno 6907 bound_to 6896
  151.7359  133.3314  159.3361 H   0  0  0  0  0  0  0  0  0  0  0  0  # atno 6908 bound_to 6896
  150.7540  134.6255  159.6203 H   0  0  0  0  0  0  0  0  0  0  0  0  # atno 6909 bound_to 6896
  145.4711  139.2282  143.2935 H   0  0  0  0  0  0  0  0  0  0  0  0  # atno 7974 bound_to 7965
  155.4665  140.3463  155.4320 H   0  0  0  0  0  0  0  0  0  0  0  0  # atno 8008 bound_to 7997
  156.1128  140.1465  156.9344 H   0  0  0  0  0  0  0  0  0  0  0  0  # atno 8009 bound_to 7997
  154.4768  140.0882  156.7260 H   0  0  0  0  0  0  0  0  0  0  0  0  # atno 8010 bound_to 7997
  140.2310  143.3607  152.0887 H   0  0  0  0  0  0  0  0  0  0  0  0  # atno 10167 bound_to 10162
  157.5245  130.8588  149.8603 H   0  0  0  0  0  0  0  0  0  0  0  0  # atno 10718 bound_to 10713
  153.0445  135.5108  154.7709 H   0  0  0  0  0  0  0  0  0  0  0  0  # atno 10763 bound_to 10752
  154.6620  135.2940  154.9856 H   0  0  0  0  0  0  0  0  0  0  0  0  # atno 10764 bound_to 10752
  154.0704  135.6678  153.4876 H   0  0  0  0  0  0  0  0  0  0  0  0  # atno 10765 bound_to 10752
  141.1090  133.8742  157.1639 H   0  0  0  0  0  0  0  0  0  0  0  0  # atno 11005 bound_to 11000
  146.2396  140.5489  142.8940 LP  0  0  0  0  0  0  0  0  0  0  0  0  # atno 17320 bound_to 7965
  144.7945  140.6096  143.6519 LP  0  0  0  0  0  0  0  0  0  0  0  0  # atno 17321 bound_to 7965
  139.5110  144.6893  151.5802 LP  0  0  0  0  0  0  0  0  0  0  0  0  # atno 17342 bound_to 10162
  140.6185  143.9303  150.6507 LP  0  0  0  0  0  0  0  0  0  0  0  0  # atno 17343 bound_to 10162
  156.0377  130.3747  150.1517 LP  0  0  0  0  0  0  0  0  0  0  0  0  # atno 17370 bound_to 10713
  156.9704  130.9833  151.3460 LP  0  0  0  0  0  0  0  0  0  0  0  0  # atno 17371 bound_to 10713
  139.9974  135.0041  157.0112 LP  0  0  0  0  0  0  0  0  0  0  0  0  # atno 17394 bound_to 11000
  140.4827  134.1273  155.7219 LP  0  0  0  0  0  0  0  0  0  0  0  0  # atno 17395 bound_to 11000

$$$$
