AV-unprocessed.smi:1983|AV-procd|sdf|8034|dock3
  -GOLD-   2272010233D 1   1.00000     0.00000
 Structure written by MMmdl.
 50 51  0  0  0  0  0  0  0  0  2 V2000
  148.7078  134.3651  156.2808 C   0  0  0  0  0  0  0  0  0  0  0  0
  149.9807  134.8915  155.5955 C   0  0  2  0  0  0  0  0  0  0  0  0
  151.0456  135.3454  156.6092 C   0  0  0  0  0  0  0  0  0  0  0  0
  152.0938  136.0262  155.9529 O   0  0  0  0  0  0  0  0  0  0  0  0
  149.6555  136.0066  154.7100 N   0  0  0  0  0  0  0  0  0  0  0  0
  149.3180  137.2404  155.1107 C   0  0  0  0  0  0  0  0  0  0  0  0
  149.2630  137.5951  156.2885 O   0  0  0  0  0  0  0  0  0  0  0  0
  149.0459  138.0452  154.0739 N   0  0  0  0  0  0  0  0  0  0  0  0
  148.6287  139.4373  154.1954 C   0  0  0  0  0  0  0  0  0  0  0  0
  149.4225  140.2115  155.2338 C   0  0  0  0  0  0  0  0  0  0  0  0
  148.7719  141.0548  156.1605 C   0  0  0  0  0  0  0  0  0  0  0  0
  149.5366  141.7583  157.1139 C   0  0  0  0  0  0  0  0  0  0  0  0
  150.9432  141.6067  157.1235 C   0  0  0  0  0  0  0  0  0  0  0  0
  151.7893  142.2639  158.0269 N   0  0  0  0  0  0  0  0  0  0  0  0
  151.2282  143.5162  158.5143 C   0  0  0  0  0  0  0  0  0  0  0  0
  152.2621  144.2589  159.3828 C   0  0  1  0  0  0  0  0  0  0  0  0
  151.6781  145.5254  160.0179 C   0  0  0  0  0  0  0  0  0  0  0  0
  152.7012  143.3948  160.4292 O   0  0  0  0  0  0  0  0  0  0  0  0
  153.3250  142.2096  159.9396 C   0  0  1  0  0  0  0  0  0  0  0  0
  153.8342  141.4000  161.1366 C   0  0  0  0  0  0  0  0  0  0  0  0
  152.3025  141.4223  159.0999 C   0  0  0  0  0  0  0  0  0  0  0  0
  151.5251  140.7977  156.2101 N   0  3  0  0  0  0  0  0  0  0  0  0
  150.8282  140.1041  155.2841 C   0  0  0  0  0  0  0  0  0  0  0  0
  148.9327  133.5181  156.9296 H   0  0  0  0  0  0  0  0  0  0  0  0
  147.9748  134.0262  155.5480 H   0  0  0  0  0  0  0  0  0  0  0  0
  148.2369  135.1358  156.8917 H   0  0  0  0  0  0  0  0  0  0  0  0
  150.4114  134.0897  154.9920 H   0  0  0  0  0  0  0  0  0  0  0  0
  150.6107  136.0316  157.3372 H   0  0  0  0  0  0  0  0  0  0  0  0
  151.4476  134.4978  157.1653 H   0  0  0  0  0  0  0  0  0  0  0  0
  151.9490  136.9560  156.0385 H   0  0  0  0  0  0  0  0  0  0  0  0
  149.6750  135.8175  153.7185 H   0  0  0  0  0  0  0  0  0  0  0  0
  149.1128  137.6651  153.1408 H   0  0  0  0  0  0  0  0  0  0  0  0
  148.7613  139.9198  153.2267 H   0  0  0  0  0  0  0  0  0  0  0  0
  147.5615  139.4864  154.4198 H   0  0  0  0  0  0  0  0  0  0  0  0
  147.6971  141.1623  156.1417 H   0  0  0  0  0  0  0  0  0  0  0  0
  149.0430  142.4087  157.8209 H   0  0  0  0  0  0  0  0  0  0  0  0
  150.9297  144.1404  157.6708 H   0  0  0  0  0  0  0  0  0  0  0  0
  150.3291  143.3077  159.0962 H   0  0  0  0  0  0  0  0  0  0  0  0
  153.1206  144.5414  158.7708 H   0  0  0  0  0  0  0  0  0  0  0  0
  151.3383  146.2267  159.2555 H   0  0  0  0  0  0  0  0  0  0  0  0
  152.4238  146.0350  160.6284 H   0  0  0  0  0  0  0  0  0  0  0  0
  150.8284  145.2896  160.6591 H   0  0  0  0  0  0  0  0  0  0  0  0
  154.1795  142.4848  159.3184 H   0  0  0  0  0  0  0  0  0  0  0  0
  154.3292  140.4850  160.8095 H   0  0  0  0  0  0  0  0  0  0  0  0
  153.0161  141.1196  161.8008 H   0  0  0  0  0  0  0  0  0  0  0  0
  154.5536  141.9763  161.7189 H   0  0  0  0  0  0  0  0  0  0  0  0
  151.4833  141.0877  159.7374 H   0  0  0  0  0  0  0  0  0  0  0  0
  152.7694  140.5323  158.6756 H   0  0  0  0  0  0  0  0  0  0  0  0
  151.4141  139.4926  154.6132 H   0  0  0  0  0  0  0  0  0  0  0  0
  152.5409  140.7020  156.2236 H   0  0  0  0  0  0  0  0  0  0  0  0
  1  2  1  0  0  0  0
  1 24  1  0  0  0  0
  1 25  1  0  0  0  0
  1 26  1  0  0  0  0
  2  3  1  0  0  0  0
  2  5  1  0  0  0  0
  2 27  1  0  0  0  0
  3  4  1  0  0  0  0
  3 28  1  0  0  0  0
  3 29  1  0  0  0  0
  4 30  1  0  0  0  0
  5  6  1  0  0  0  0
  5 31  1  0  0  0  0
  6  7  2  0  0  0  0
  6  8  1  0  0  0  0
  8  9  1  0  0  0  0
  8 32  1  0  0  0  0
  9 10  1  0  0  0  0
  9 33  1  0  0  0  0
  9 34  1  0  0  0  0
 10 23  1  0  0  0  0
 10 11  2  0  0  0  0
 11 12  1  0  0  0  0
 11 35  1  0  0  0  0
 12 13  2  0  0  0  0
 12 36  1  0  0  0  0
 13 14  1  0  0  0  0
 13 22  1  0  0  0  0
 14 21  1  0  0  0  0
 14 15  1  0  0  0  0
 15 16  1  0  0  0  0
 15 37  1  0  0  0  0
 15 38  1  0  0  0  0
 16 17  1  0  0  0  0
 16 18  1  0  0  0  0
 16 39  1  0  0  0  0
 17 40  1  0  0  0  0
 17 41  1  0  0  0  0
 17 42  1  0  0  0  0
 18 19  1  0  0  0  0
 19 20  1  0  0  0  0
 19 21  1  0  0  0  0
 19 43  1  0  0  0  0
 20 44  1  0  0  0  0
 20 45  1  0  0  0  0
 20 46  1  0  0  0  0
 21 47  1  0  0  0  0
 21 48  1  0  0  0  0
 22 23  2  0  0  0  0
 22 50  1  0  0  0  0
 23 49  1  0  0  0  0
M  CHG  1  22   1
M  END
> <s_m_source_file>
AV-unprocessed.smi

> <i_m_source_file_index>
1983

> <i_lp_mmshare_version>
43012

> <i_f3d_flags>
0

> <s_epik_input>
W09IXVtDSDJdW0NAQEhdKFtDSDNdKVtOSF1DKD1PKVtOSF1bQ0gyXWMxW2NIXVtjSF1jKG5bY0hdMSlOMltDSDJdW0NAQEhdKFtDSDNdKU9bQ0BASF0oW0NIM10pW0NIMl0y

> <s_epik_cmdline>
J2VwaWtfcHl0aG9uJywgJy1waCcsICc3LjAnLCAnLXRuJywgJzgnLCAnLW1hJywgJzIwMCcsICctbWV0YWxfYmluZGluZycsICctaW1hZScsICc8aW5maWxlLm1hZT4nLCAnLW9tYWUnLCAnPG91dGZpbGUubWFlPic=

> <r_lp_tautomer_probability>
0.999994

> <r_epik_Ionization_Penalty>
2.55677

> <r_epik_Ionization_Penalty_Charging>
2.55673

> <r_epik_Ionization_Penalty_Neutral>
3.71772e-05

> <r_epik_State_Penalty>
2.72571

> <r_epik_Charging_Adjusted_Penalty>
5.28244

> <i_epik_Tot_Q>
1

> <i_epik_Tot_abs_Q>
1

> <r_epik_Metal_State_Penalty>
2.73364

> <b_epik_Metal_Only>
0

> <s_lp_Force_Field>
OPLS_2005

> <r_lp_Energy>
19.4893

> <b_lp_Chiralities_Consistent>
1

> <s_lp_Variant>
AV-unprocessed.smi:1983-7

> <Gold.Version>
5.8.1

> <Gold.Id.Protein>
6NUR|6NUR_protein|mol2

> <Gold.PLP.Fitness>
47.1910

> <Gold.PLP.PLP>
-40.0643

> <Gold.PLP.part.hbond>
-3.0000

> <Gold.PLP.part.metal>
0.0000

> <Gold.PLP.part.buried>
-3.4715

> <Gold.PLP.part.nonpolar>
-33.5846

> <Gold.PLP.part.repulsive>
0.2663

> <Gold.PLP.ligand.clash>
0.0000

> <Gold.PLP.ligand.torsion>
1.0371

> <Gold.PLP.Chemscore.Hbond>
3.0000

> <Gold.PLP.Chemscore.CHOScore>
0.0000

> <Gold.PLP.Chemscore.Metal>
0.0000

> <Gold.Chemscore.Hbonds>
donor molecule, donor type, donor heavy atom, donor atom, acceptor molecule, acceptor atom, score
      L1  H     5    31       P1  7948  0.94
      L1  H     8    32       P1  7948  1.00
      P1  H 10752 10764       L1     4  0.96

> <Gold.PLP.Chemscore.Internal.Correction>
0.2010

> <Gold.Rescore>
     Score         DG    S(hbond)    S(metal)    S(lipo)     H(rot)  DE(clash)    DE(int)     intcor
     15.58     -19.32       2.62        0.00     101.63       2.66       0.33       3.40       ----

> <Gold.Chemscore.Fitness>
15.5769

> <Gold.Chemscore.DG>
-19.3168

> <Gold.Chemscore.ZeroCoef>
-5.4800

> <Gold.Chemscore.Hbond>
2.6242

> <Gold.Chemscore.Metal>
0.0000

> <Gold.Chemscore.Lipo>
101.6337

> <Gold.Chemscore.Internal_Hbond>
0.0000

> <Gold.Chemscore.DEClash>
0.3350

> <Gold.Chemscore.DEInternal>
3.4049

> <Gold.Chemscore.Rot>
2.6637

> <Gold.Chemscore.Internal.Correction>
   9.000000E+99

> <Gold.Chemscore.Hbonds>
donor molecule, donor type, donor heavy atom, donor atom, acceptor molecule, acceptor atom, score
      L1  H     5    31       P1  7948  0.20
      L1  H     8    32       P1  7948  0.97
      P1  H 10752 10764       L1     4  0.85

> <Gold.Chemscore.Hbond.Weighted>
-8.7647

> <Gold.Chemscore.Metal.Weighted>
-0.0000

> <Gold.Chemscore.Lipo.Weighted>
-11.8911

> <Gold.Chemscore.Internal_Hbond.Weighted>
0.0000

> <Gold.Chemscore.DEClash.Weighted>
0.3350

> <Gold.Chemscore.DEInternal.Weighted>
3.4049

> <Gold.Chemscore.Rot.Weighted>
6.8191

> <Gold.Chemscore.Internal.Correction.Weighted>
   9.000000E+99

> <Gold.Protein.RotatedTorsions>
[ 6907 6896 6895 6894 ] final  117.07 input  -60.11 | X-H torsion
[ 7974 7965 7964 7962 ] final -151.44 input  175.53 | X-H torsion
[ 8008 7997 7996 7995 ] final  106.63 input   59.86 | X-H torsion
[ 10167 10162 10161 10158 ] final -176.40 input  -65.29 | X-H torsion
[ 10718 10713 10712 10709 ] final  160.64 input   66.30 | X-H torsion
[ 10763 10752 10751 10750 ] final  -53.37 input  -60.55 | X-H torsion
[ 11005 11000 10999 10996 ] final  100.46 input  -57.11 | X-H torsion

> <Gold.Protein.ActiveResidues>
 VAL166  LYS551  ARG553  GLY616  TRP617  ASP618  TYR619  PRO620  LYS621  CYS622 
 ASP623  PHE694  ASN695  SER759  ASP760  ASP761  ALA762  ILE779  LEU786  VAL792 
 PHE793  MET794  SER795  GLU796  ALA797  LYS798  CYS799  TRP800  GLU811  SER814 

> <Gold.Protein.RotatedAtoms>
  152.4636  133.7875  159.6883 H   0  0  0  0  0  0  0  0  0  0  0  0  # atno 6907 bound_to 6896
  150.8591  133.7661  159.3005 H   0  0  0  0  0  0  0  0  0  0  0  0  # atno 6908 bound_to 6896
  151.5232  135.1070  159.9935 H   0  0  0  0  0  0  0  0  0  0  0  0  # atno 6909 bound_to 6896
  144.7850  140.4798  143.5812 H   0  0  0  0  0  0  0  0  0  0  0  0  # atno 7974 bound_to 7965
  156.1759  140.3109  155.9058 H   0  0  0  0  0  0  0  0  0  0  0  0  # atno 8008 bound_to 7997
  155.3489  140.0470  157.3063 H   0  0  0  0  0  0  0  0  0  0  0  0  # atno 8009 bound_to 7997
  154.5289  140.2224  155.8849 H   0  0  0  0  0  0  0  0  0  0  0  0  # atno 8010 bound_to 7997
  139.5531  144.2057  152.1113 H   0  0  0  0  0  0  0  0  0  0  0  0  # atno 10167 bound_to 10162
  157.1476  131.0556  151.2296 H   0  0  0  0  0  0  0  0  0  0  0  0  # atno 10718 bound_to 10713
  154.1578  135.6479  153.4978 H   0  0  0  0  0  0  0  0  0  0  0  0  # atno 10763 bound_to 10752
  153.0119  135.5353  154.6742 H   0  0  0  0  0  0  0  0  0  0  0  0  # atno 10764 bound_to 10752
  154.6047  135.2947  155.0469 H   0  0  0  0  0  0  0  0  0  0  0  0  # atno 10765 bound_to 10752
  139.8771  134.9141  156.4759 H   0  0  0  0  0  0  0  0  0  0  0  0  # atno 11005 bound_to 11000
  145.5946  139.1498  143.3163 LP  0  0  0  0  0  0  0  0  0  0  0  0  # atno 17320 bound_to 7965
  146.2077  140.6071  142.9073 LP  0  0  0  0  0  0  0  0  0  0  0  0  # atno 17321 bound_to 7965
  140.1556  144.5073  150.6662 LP  0  0  0  0  0  0  0  0  0  0  0  0  # atno 17342 bound_to 10162
  140.6798  143.2321  151.5412 LP  0  0  0  0  0  0  0  0  0  0  0  0  # atno 17343 bound_to 10162
  157.4250  130.7458  149.6943 LP  0  0  0  0  0  0  0  0  0  0  0  0  # atno 17370 bound_to 10713
  155.9776  130.4060  150.3699 LP  0  0  0  0  0  0  0  0  0  0  0  0  # atno 17371 bound_to 10713
  140.8762  133.7951  155.9417 LP  0  0  0  0  0  0  0  0  0  0  0  0  # atno 17394 bound_to 11000
  140.8902  134.2505  157.5098 LP  0  0  0  0  0  0  0  0  0  0  0  0  # atno 17395 bound_to 11000

$$$$
