AV-unprocessed.smi:3252|AV-procd|sdf|12442|dock10
  -GOLD-   2272018333D 1   1.00000     0.00000
 Structure written by MMmdl.
 37 38  0  0  0  0  0  0  0  0  2 V2000
  144.4769  144.1137  154.3773 C   0  0  0  0  0  0  0  0  0  0  0  0
  145.6617  143.3422  153.7787 C   0  0  0  0  0  0  0  0  0  0  0  0
  145.7001  141.9246  154.2167 N   0  3  2  0  0  0  0  0  0  0  0  0
  145.5856  141.7886  155.6881 C   0  0  0  0  0  0  0  0  0  0  0  0
  145.5868  140.3065  156.0948 C   0  0  0  0  0  0  0  0  0  0  0  0
  146.7645  139.6818  155.6020 O   0  0  0  0  0  0  0  0  0  0  0  0
  146.8366  139.7104  154.1799 C   0  0  2  0  0  0  0  0  0  0  0  0
  148.0917  138.9390  153.7493 C   0  0  0  0  0  0  0  0  0  0  0  0
  149.2641  139.8020  153.7050 N   0  0  0  0  0  0  0  0  0  0  0  0
  149.8582  140.2623  154.8877 C   0  0  0  0  0  0  0  0  0  0  0  0
  150.4895  139.3274  155.7352 C   0  0  0  0  0  0  0  0  0  0  0  0
  151.0925  139.7856  156.9231 C   0  0  0  0  0  0  0  0  0  0  0  0
  151.0436  141.1617  157.2211 C   0  0  0  0  0  0  0  0  0  0  0  0
  151.6532  141.6840  158.4320 C   0  0  0  0  0  0  0  0  0  0  0  0
  152.1386  142.1003  159.3962 N   0  0  0  0  0  0  0  0  0  0  0  0
  150.3891  142.0192  156.3135 C   0  0  0  0  0  0  0  0  0  0  0  0
  149.8096  141.5856  155.1728 N   0  0  0  0  0  0  0  0  0  0  0  0
  146.8846  141.1810  153.7200 C   0  0  0  0  0  0  0  0  0  0  0  0
  144.5350  145.1692  154.1111 H   0  0  0  0  0  0  0  0  0  0  0  0
  144.4732  144.0490  155.4658 H   0  0  0  0  0  0  0  0  0  0  0  0
  143.5194  143.7423  154.0130 H   0  0  0  0  0  0  0  0  0  0  0  0
  145.6465  143.3976  152.6893 H   0  0  0  0  0  0  0  0  0  0  0  0
  146.5789  143.8373  154.1009 H   0  0  0  0  0  0  0  0  0  0  0  0
  146.4159  142.3082  156.1690 H   0  0  0  0  0  0  0  0  0  0  0  0
  144.6662  142.2617  156.0353 H   0  0  0  0  0  0  0  0  0  0  0  0
  145.5667  140.2145  157.1808 H   0  0  0  0  0  0  0  0  0  0  0  0
  144.7008  139.7952  155.7154 H   0  0  0  0  0  0  0  0  0  0  0  0
  145.9548  139.2264  153.7549 H   0  0  0  0  0  0  0  0  0  0  0  0
  148.2848  138.1324  154.4578 H   0  0  0  0  0  0  0  0  0  0  0  0
  147.9349  138.4794  152.7724 H   0  0  0  0  0  0  0  0  0  0  0  0
  149.7211  139.9635  152.8192 H   0  0  0  0  0  0  0  0  0  0  0  0
  150.5142  138.2770  155.4836 H   0  0  0  0  0  0  0  0  0  0  0  0
  151.5824  139.0892  157.5886 H   0  0  0  0  0  0  0  0  0  0  0  0
  150.3265  143.0813  156.5014 H   0  0  0  0  0  0  0  0  0  0  0  0
  146.9195  141.2142  152.6315 H   0  0  0  0  0  0  0  0  0  0  0  0
  147.7954  141.6603  154.0836 H   0  0  0  0  0  0  0  0  0  0  0  0
  144.8833  141.4776  153.8250 H   0  0  0  0  0  0  0  0  0  0  0  0
  1  2  1  0  0  0  0
  1 19  1  0  0  0  0
  1 20  1  0  0  0  0
  1 21  1  0  0  0  0
  2  3  1  0  0  0  0
  2 22  1  0  0  0  0
  2 23  1  0  0  0  0
  3 18  1  0  0  0  0
  3  4  1  0  0  0  0
  3 37  1  0  0  0  0
  4  5  1  0  0  0  0
  4 24  1  0  0  0  0
  4 25  1  0  0  0  0
  5  6  1  0  0  0  0
  5 26  1  0  0  0  0
  5 27  1  0  0  0  0
  6  7  1  0  0  0  0
  7  8  1  0  0  0  0
  7 18  1  0  0  0  0
  7 28  1  0  0  0  0
  8  9  1  0  0  0  0
  8 29  1  0  0  0  0
  8 30  1  0  0  0  0
  9 10  1  0  0  0  0
  9 31  1  0  0  0  0
 10 17  1  0  0  0  0
 10 11  2  0  0  0  0
 11 12  1  0  0  0  0
 11 32  1  0  0  0  0
 12 13  2  0  0  0  0
 12 33  1  0  0  0  0
 13 14  1  0  0  0  0
 13 16  1  0  0  0  0
 14 15  3  0  0  0  0
 16 17  2  0  0  0  0
 16 34  1  0  0  0  0
 18 35  1  0  0  0  0
 18 36  1  0  0  0  0
M  CHG  1   3   1
M  END
> <s_m_source_file>
AV-unprocessed.smi

> <i_m_source_file_index>
3252

> <i_lp_mmshare_version>
43012

> <i_f3d_flags>
0

> <s_epik_input>
W0NIM11bQ0gyXU4xW0NIMl1bQ0gyXU9bQ0BIXShbQ0gyXTEpW0NIMl1bTkhdYzJbY0hdW2NIXWMoQyNOKVtjSF1uMg==

> <s_epik_cmdline>
J2VwaWtfcHl0aG9uJywgJy1waCcsICc3LjAnLCAnLXRuJywgJzgnLCAnLW1hJywgJzIwMCcsICctbWV0YWxfYmluZGluZycsICctaW1hZScsICc8aW5maWxlLm1hZT4nLCAnLW9tYWUnLCAnPG91dGZpbGUubWFlPic=

> <r_epik_Ionization_Penalty>
0.178512

> <r_epik_Ionization_Penalty_Charging>
0.178504

> <r_epik_Ionization_Penalty_Neutral>
8.15545e-06

> <r_epik_State_Penalty>
0.167974

> <r_epik_Charging_Adjusted_Penalty>
0.346478

> <i_epik_Tot_Q>
1

> <i_epik_Tot_abs_Q>
1

> <r_epik_Metal_State_Penalty>
0.167974

> <b_epik_Metal_Only>
0

> <s_lp_Force_Field>
OPLS_2005

> <r_lp_Energy>
17.709

> <b_lp_Chiralities_Consistent>
1

> <s_lp_Variant>
AV-unprocessed.smi:3252-4

> <Gold.Version>
5.8.1

> <Gold.Id.Protein>
6NUR|6NUR_protein|mol2

> <Gold.PLP.Fitness>
36.6060

> <Gold.PLP.PLP>
-26.7838

> <Gold.PLP.part.hbond>
-2.5332

> <Gold.PLP.part.metal>
0.0000

> <Gold.PLP.part.buried>
-4.1662

> <Gold.PLP.part.nonpolar>
-22.7891

> <Gold.PLP.part.repulsive>
0.3151

> <Gold.PLP.ligand.clash>
0.0000

> <Gold.PLP.ligand.torsion>
1.0682

> <Gold.PLP.Chemscore.Hbond>
2.9825

> <Gold.PLP.Chemscore.CHOScore>
1.0000

> <Gold.PLP.Chemscore.Metal>
0.0000

> <Gold.Chemscore.Hbonds>
donor molecule, donor type, donor heavy atom, donor atom, acceptor molecule, acceptor atom, score
      L1  H     3    37       P1 10175  1.85
      L1  H     9    31       P1  7957  0.98
      L1  C    16    34       P1  8028  1.00

> <Gold.PLP.Chemscore.Internal.Correction>
0.0112

> <Gold.Rescore>
     Score         DG    S(hbond)    S(metal)    S(lipo)     H(rot)  DE(clash)    DE(int)     intcor
     12.57     -13.71       1.72        0.00      53.43       1.47       0.02       1.13       ----

> <Gold.Chemscore.Fitness>
12.5670

> <Gold.Chemscore.DG>
-13.7134

> <Gold.Chemscore.ZeroCoef>
-5.4800

> <Gold.Chemscore.Hbond>
1.7187

> <Gold.Chemscore.Metal>
0.0000

> <Gold.Chemscore.Lipo>
53.4292

> <Gold.Chemscore.Internal_Hbond>
0.0000

> <Gold.Chemscore.DEClash>
0.0195

> <Gold.Chemscore.DEInternal>
1.1269

> <Gold.Chemscore.Rot>
1.4681

> <Gold.Chemscore.Internal.Correction>
   9.000000E+99

> <Gold.Chemscore.Hbonds>
donor molecule, donor type, donor heavy atom, donor atom, acceptor molecule, acceptor atom, score
      L1  H     3    37       P1 10175  0.20
      L1  H     9    31       P1  7957  0.93

> <Gold.Chemscore.Hbond.Weighted>
-5.7406

> <Gold.Chemscore.Metal.Weighted>
-0.0000

> <Gold.Chemscore.Lipo.Weighted>
-6.2512

> <Gold.Chemscore.Internal_Hbond.Weighted>
0.0000

> <Gold.Chemscore.DEClash.Weighted>
0.0195

> <Gold.Chemscore.DEInternal.Weighted>
1.1269

> <Gold.Chemscore.Rot.Weighted>
3.7584

> <Gold.Chemscore.Internal.Correction.Weighted>
   9.000000E+99

> <Gold.Protein.RotatedTorsions>
[ 6907 6896 6895 6894 ] final  -44.71 input  -60.11 | X-H torsion
[ 7974 7965 7964 7962 ] final  -55.09 input  175.53 | X-H torsion
[ 8008 7997 7996 7995 ] final   26.02 input   59.86 | X-H torsion
[ 10167 10162 10161 10158 ] final  -60.15 input  -65.29 | X-H torsion
[ 10718 10713 10712 10709 ] final  160.75 input   66.30 | X-H torsion
[ 10763 10752 10751 10750 ] final   61.27 input  -60.55 | X-H torsion
[ 11005 11000 10999 10996 ] final  -88.46 input  -57.11 | X-H torsion

> <Gold.Protein.ActiveResidues>
 VAL166  LYS551  ARG553  GLY616  TRP617  ASP618  TYR619  PRO620  LYS621  CYS622 
 ASP623  PHE694  ASN695  SER759  ASP760  ASP761  ALA762  ILE779  LEU786  VAL792 
 PHE793  MET794  SER795  GLU796  ALA797  LYS798  CYS799  TRP800  GLU811  SER814 

> <Gold.Protein.RotatedAtoms>
  150.9299  134.8714  159.7543 H   0  0  0  0  0  0  0  0  0  0  0  0  # atno 6907 bound_to 6896
  152.5033  134.4095  159.9454 H   0  0  0  0  0  0  0  0  0  0  0  0  # atno 6908 bound_to 6896
  151.4123  133.3684  159.2780 H   0  0  0  0  0  0  0  0  0  0  0  0  # atno 6909 bound_to 6896
  145.8781  140.8165  142.9854 H   0  0  0  0  0  0  0  0  0  0  0  0  # atno 7974 bound_to 7965
  155.0207  140.3147  155.4794 H   0  0  0  0  0  0  0  0  0  0  0  0  # atno 8008 bound_to 7997
  156.2892  140.2198  156.5267 H   0  0  0  0  0  0  0  0  0  0  0  0  # atno 8009 bound_to 7997
  154.7454  140.0470  157.0835 H   0  0  0  0  0  0  0  0  0  0  0  0  # atno 8010 bound_to 7997
  140.6090  143.2381  151.5755 H   0  0  0  0  0  0  0  0  0  0  0  0  # atno 10167 bound_to 10162
  157.1461  131.0552  151.2303 H   0  0  0  0  0  0  0  0  0  0  0  0  # atno 10718 bound_to 10713
  152.9945  135.5506  154.6007 H   0  0  0  0  0  0  0  0  0  0  0  0  # atno 10763 bound_to 10752
  154.5349  135.2816  155.1149 H   0  0  0  0  0  0  0  0  0  0  0  0  # atno 10764 bound_to 10752
  154.2450  135.6409  153.5273 H   0  0  0  0  0  0  0  0  0  0  0  0  # atno 10765 bound_to 10752
  141.1601  133.7571  156.9454 H   0  0  0  0  0  0  0  0  0  0  0  0  # atno 11005 bound_to 11000
  144.6726  140.1342  143.7441 LP  0  0  0  0  0  0  0  0  0  0  0  0  # atno 17320 bound_to 7965
  145.9056  139.2456  143.1468 LP  0  0  0  0  0  0  0  0  0  0  0  0  # atno 17321 bound_to 7965
  139.5346  144.2817  152.1224 LP  0  0  0  0  0  0  0  0  0  0  0  0  # atno 17342 bound_to 10162
  140.2012  144.4656  150.6430 LP  0  0  0  0  0  0  0  0  0  0  0  0  # atno 17343 bound_to 10162
  157.4263  130.7466  149.6954 LP  0  0  0  0  0  0  0  0  0  0  0  0  # atno 17370 bound_to 10713
  155.9779  130.4057  150.3681 LP  0  0  0  0  0  0  0  0  0  0  0  0  # atno 17371 bound_to 10713
  140.1293  134.9366  157.2314 LP  0  0  0  0  0  0  0  0  0  0  0  0  # atno 17394 bound_to 11000
  140.2973  134.3172  155.7299 LP  0  0  0  0  0  0  0  0  0  0  0  0  # atno 17395 bound_to 11000

$$$$
