AV-unprocessed.smi:1896|AV-procd|sdf|7682|dock10
  -GOLD-   22720 9423D 1   1.00000     0.00000
 Structure written by MMmdl.
 47 48  0  0  0  0  0  0  0  0  2 V2000
  150.2869  145.1853  159.8636 C   0  0  0  0  0  0  0  0  0  0  0  0
  151.3142  144.1416  160.1980 C   0  0  0  0  0  0  0  0  0  0  0  0
  151.6887  143.9809  161.4561 N   0  0  0  0  0  0  0  0  0  0  0  0
  152.6070  142.9947  161.4194 N   0  0  0  0  0  0  0  0  0  0  0  0
  153.2329  142.5591  162.6528 C   0  0  0  0  0  0  0  0  0  0  0  0
  152.8129  142.5308  160.1348 C   0  0  0  0  0  0  0  0  0  0  0  0
  153.7867  141.4384  159.8299 C   0  0  0  0  0  0  0  0  0  0  0  0
  151.9919  143.2540  159.3110 C   0  0  0  0  0  0  0  0  0  0  0  0
  151.8337  143.1527  157.8152 C   0  0  0  0  0  0  0  0  0  0  0  0
  150.8490  142.0326  157.4814 C   0  0  0  0  0  0  0  0  0  0  0  0
  150.9093  140.9605  158.0829 O   0  0  0  0  0  0  0  0  0  0  0  0
  149.9492  142.2929  156.5193 N   0  0  0  0  0  0  0  0  0  0  0  0
  148.9557  141.3510  156.0102 C   0  0  0  0  0  0  0  0  0  0  0  0
  148.9688  141.2284  154.4641 C   0  0  2  0  0  0  0  0  0  0  0  0
  147.5381  141.0817  153.8972 C   0  0  0  0  0  0  0  0  0  0  0  0
  149.8352  140.0886  154.0425 N   0  3  0  0  0  0  0  0  0  0  0  0
  151.1264  139.9573  154.7533 C   0  0  0  0  0  0  0  0  0  0  0  0
  151.5637  138.5168  154.5166 C   0  0  0  0  0  0  0  0  0  0  0  0
  150.2489  137.7483  154.5678 C   0  0  0  0  0  0  0  0  0  0  0  0
  149.1901  138.7511  154.0887 C   0  0  0  0  0  0  0  0  0  0  0  0
  150.7452  146.0299  159.3493 H   0  0  0  0  0  0  0  0  0  0  0  0
  149.7943  145.5688  160.7579 H   0  0  0  0  0  0  0  0  0  0  0  0
  149.5136  144.7787  159.2121 H   0  0  0  0  0  0  0  0  0  0  0  0
  152.9110  141.5445  162.8873 H   0  0  0  0  0  0  0  0  0  0  0  0
  152.9577  143.2178  163.4776 H   0  0  0  0  0  0  0  0  0  0  0  0
  154.3172  142.5726  162.5412 H   0  0  0  0  0  0  0  0  0  0  0  0
  153.7979  141.2029  158.7659 H   0  0  0  0  0  0  0  0  0  0  0  0
  153.5297  140.5278  160.3710 H   0  0  0  0  0  0  0  0  0  0  0  0
  154.7975  141.7298  160.1159 H   0  0  0  0  0  0  0  0  0  0  0  0
  151.4666  144.0872  157.3893 H   0  0  0  0  0  0  0  0  0  0  0  0
  152.7866  142.9557  157.3226 H   0  0  0  0  0  0  0  0  0  0  0  0
  149.9784  143.2040  156.0842 H   0  0  0  0  0  0  0  0  0  0  0  0
  149.1850  140.3925  156.4748 H   0  0  0  0  0  0  0  0  0  0  0  0
  147.9554  141.6166  156.3569 H   0  0  0  0  0  0  0  0  0  0  0  0
  149.3978  142.1419  154.0487 H   0  0  0  0  0  0  0  0  0  0  0  0
  146.9058  141.9239  154.1758 H   0  0  0  0  0  0  0  0  0  0  0  0
  147.0592  140.1733  154.2637 H   0  0  0  0  0  0  0  0  0  0  0  0
  147.5266  141.0511  152.8081 H   0  0  0  0  0  0  0  0  0  0  0  0
  151.8674  140.6708  154.3917 H   0  0  0  0  0  0  0  0  0  0  0  0
  150.9793  140.1261  155.8216 H   0  0  0  0  0  0  0  0  0  0  0  0
  152.0115  138.4224  153.5262 H   0  0  0  0  0  0  0  0  0  0  0  0
  152.2903  138.1668  155.2506 H   0  0  0  0  0  0  0  0  0  0  0  0
  150.2727  136.8412  153.9629 H   0  0  0  0  0  0  0  0  0  0  0  0
  150.0363  137.4542  155.5966 H   0  0  0  0  0  0  0  0  0  0  0  0
  148.3386  138.7354  154.7709 H   0  0  0  0  0  0  0  0  0  0  0  0
  148.8239  138.4961  153.0937 H   0  0  0  0  0  0  0  0  0  0  0  0
  150.0749  140.2461  153.0738 H   0  0  0  0  0  0  0  0  0  0  0  0
  1  2  1  0  0  0  0
  1 21  1  0  0  0  0
  1 22  1  0  0  0  0
  1 23  1  0  0  0  0
  2  8  1  0  0  0  0
  2  3  2  0  0  0  0
  3  4  1  0  0  0  0
  4  5  1  0  0  0  0
  4  6  1  0  0  0  0
  5 24  1  0  0  0  0
  5 25  1  0  0  0  0
  5 26  1  0  0  0  0
  6  7  1  0  0  0  0
  6  8  2  0  0  0  0
  7 27  1  0  0  0  0
  7 28  1  0  0  0  0
  7 29  1  0  0  0  0
  8  9  1  0  0  0  0
  9 10  1  0  0  0  0
  9 30  1  0  0  0  0
  9 31  1  0  0  0  0
 10 11  2  0  0  0  0
 10 12  1  0  0  0  0
 12 13  1  0  0  0  0
 12 32  1  0  0  0  0
 13 14  1  0  0  0  0
 13 33  1  0  0  0  0
 13 34  1  0  0  0  0
 14 15  1  0  0  0  0
 14 16  1  0  0  0  0
 14 35  1  0  0  0  0
 15 36  1  0  0  0  0
 15 37  1  0  0  0  0
 15 38  1  0  0  0  0
 16 20  1  0  0  0  0
 16 17  1  0  0  0  0
 16 47  1  0  0  0  0
 17 18  1  0  0  0  0
 17 39  1  0  0  0  0
 17 40  1  0  0  0  0
 18 19  1  0  0  0  0
 18 41  1  0  0  0  0
 18 42  1  0  0  0  0
 19 20  1  0  0  0  0
 19 43  1  0  0  0  0
 19 44  1  0  0  0  0
 20 45  1  0  0  0  0
 20 46  1  0  0  0  0
M  CHG  1  16   1
M  END
> <s_m_source_file>
AV-unprocessed.smi

> <i_m_source_file_index>
1896

> <i_lp_mmshare_version>
43012

> <i_f3d_flags>
0

> <s_epik_input>
W0NIM11jMW5uKFtDSDNdKWMoW0NIM10pYzFbQ0gyXUMoPU8pW05IXVtDSDJdW0NASF0oW0NIM10pTjJbQ0gyXVtDSDJdW0NIMl1bQ0gyXTI=

> <s_epik_cmdline>
J2VwaWtfcHl0aG9uJywgJy1waCcsICc3LjAnLCAnLXRuJywgJzgnLCAnLW1hJywgJzIwMCcsICctbWV0YWxfYmluZGluZycsICctaW1hZScsICc8aW5maWxlLm1hZT4nLCAnLW9tYWUnLCAnPG91dGZpbGUubWFlPic=

> <r_lp_tautomer_probability>
1

> <r_epik_Ionization_Penalty>
0.00723064

> <r_epik_Ionization_Penalty_Charging>
0.0050435

> <r_epik_Ionization_Penalty_Neutral>
0.00218714

> <r_epik_State_Penalty>
-0

> <r_epik_Charging_Adjusted_Penalty>
0.0050435

> <i_epik_Tot_Q>
1

> <i_epik_Tot_abs_Q>
1

> <r_epik_Metal_State_Penalty>
-0

> <b_epik_Metal_Only>
0

> <s_lp_Force_Field>
OPLS_2005

> <r_lp_Energy>
25.1325

> <b_lp_Chiralities_Consistent>
1

> <s_lp_Variant>
AV-unprocessed.smi:1896-1

> <Gold.Version>
5.8.1

> <Gold.Id.Protein>
6NUR|6NUR_protein|mol2

> <Gold.PLP.Fitness>
51.2637

> <Gold.PLP.PLP>
-48.6964

> <Gold.PLP.part.hbond>
-2.0000

> <Gold.PLP.part.metal>
0.0000

> <Gold.PLP.part.buried>
-5.4423

> <Gold.PLP.part.nonpolar>
-43.6821

> <Gold.PLP.part.repulsive>
1.3867

> <Gold.PLP.ligand.clash>
0.0000

> <Gold.PLP.ligand.torsion>
1.3964

> <Gold.PLP.Chemscore.Hbond>
1.7680

> <Gold.PLP.Chemscore.CHOScore>
0.0000

> <Gold.PLP.Chemscore.Metal>
0.0000

> <Gold.Chemscore.Hbonds>
donor molecule, donor type, donor heavy atom, donor atom, acceptor molecule, acceptor atom, score
      L1  H    12    32       P1  8028  0.86
      L1  H    16    47       P1  7957  0.99

> <Gold.PLP.Chemscore.Internal.Correction>
0.0561

> <Gold.Rescore>
     Score         DG    S(hbond)    S(metal)    S(lipo)     H(rot)  DE(clash)    DE(int)     intcor
     19.23     -21.30       1.94        0.00     115.88       1.65       0.73       1.33       ----

> <Gold.Chemscore.Fitness>
19.2348

> <Gold.Chemscore.DG>
-21.3025

> <Gold.Chemscore.ZeroCoef>
-5.4800

> <Gold.Chemscore.Hbond>
1.9422

> <Gold.Chemscore.Metal>
0.0000

> <Gold.Chemscore.Lipo>
115.8835

> <Gold.Chemscore.Internal_Hbond>
0.0000

> <Gold.Chemscore.DEClash>
0.7337

> <Gold.Chemscore.DEInternal>
1.3340

> <Gold.Chemscore.Rot>
1.6495

> <Gold.Chemscore.Internal.Correction>
   9.000000E+99

> <Gold.Chemscore.Hbonds>
donor molecule, donor type, donor heavy atom, donor atom, acceptor molecule, acceptor atom, score
      L1  H    12    32       P1  8028  0.85
      L1  H    16    47       P1  7957  0.92

> <Gold.Chemscore.Hbond.Weighted>
-6.4868

> <Gold.Chemscore.Metal.Weighted>
-0.0000

> <Gold.Chemscore.Lipo.Weighted>
-13.5584

> <Gold.Chemscore.Internal_Hbond.Weighted>
0.0000

> <Gold.Chemscore.DEClash.Weighted>
0.7337

> <Gold.Chemscore.DEInternal.Weighted>
1.3340

> <Gold.Chemscore.Rot.Weighted>
4.2227

> <Gold.Chemscore.Internal.Correction.Weighted>
   9.000000E+99

> <Gold.Protein.RotatedTorsions>
[ 6907 6896 6895 6894 ] final   53.67 input  -60.11 | X-H torsion
[ 7974 7965 7964 7962 ] final  -82.41 input  175.53 | X-H torsion
[ 8008 7997 7996 7995 ] final   81.74 input   59.86 | X-H torsion
[ 10167 10162 10161 10158 ] final  -59.17 input  -65.29 | X-H torsion
[ 10718 10713 10712 10709 ] final  172.98 input   66.30 | X-H torsion
[ 10763 10752 10751 10750 ] final -150.41 input  -60.55 | X-H torsion
[ 11005 11000 10999 10996 ] final   61.61 input  -57.11 | X-H torsion

> <Gold.Protein.ActiveResidues>
 VAL166  LYS551  ARG553  GLY616  TRP617  ASP618  TYR619  PRO620  LYS621  CYS622 
 ASP623  PHE694  ASN695  SER759  ASP760  ASP761  ALA762  ILE779  LEU786  VAL792 
 PHE793  MET794  SER795  GLU796  ALA797  LYS798  CYS799  TRP800  GLU811  SER814 

> <Gold.Protein.RotatedAtoms>
  152.3360  134.7197  160.0276 H   0  0  0  0  0  0  0  0  0  0  0  0  # atno 6907 bound_to 6896
  151.7597  133.3327  159.3422 H   0  0  0  0  0  0  0  0  0  0  0  0  # atno 6908 bound_to 6896
  150.7451  134.6049  159.6100 H   0  0  0  0  0  0  0  0  0  0  0  0  # atno 6909 bound_to 6896
  145.5337  140.9518  143.1589 H   0  0  0  0  0  0  0  0  0  0  0  0  # atno 7974 bound_to 7965
  155.9012  140.3433  155.6028 H   0  0  0  0  0  0  0  0  0  0  0  0  # atno 8008 bound_to 7997
  155.7497  140.0818  157.2226 H   0  0  0  0  0  0  0  0  0  0  0  0  # atno 8009 bound_to 7997
  154.4044  140.1555  156.2697 H   0  0  0  0  0  0  0  0  0  0  0  0  # atno 8010 bound_to 7997
  140.6152  143.2400  151.5615 H   0  0  0  0  0  0  0  0  0  0  0  0  # atno 10167 bound_to 10162
  156.9710  131.0090  151.2905 H   0  0  0  0  0  0  0  0  0  0  0  0  # atno 10718 bound_to 10713
  154.8120  135.3285  154.7279 H   0  0  0  0  0  0  0  0  0  0  0  0  # atno 10763 bound_to 10752
  153.7926  135.6910  153.4873 H   0  0  0  0  0  0  0  0  0  0  0  0  # atno 10764 bound_to 10752
  153.1906  135.4552  155.0091 H   0  0  0  0  0  0  0  0  0  0  0  0  # atno 10765 bound_to 10752
  140.0149  134.6240  155.9724 H   0  0  0  0  0  0  0  0  0  0  0  0  # atno 11005 bound_to 11000
  144.7613  139.6951  143.7233 LP  0  0  0  0  0  0  0  0  0  0  0  0  # atno 17320 bound_to 7965
  146.2027  139.5332  142.9732 LP  0  0  0  0  0  0  0  0  0  0  0  0  # atno 17321 bound_to 7965
  139.5392  144.2694  152.1316 LP  0  0  0  0  0  0  0  0  0  0  0  0  # atno 17342 bound_to 10162
  140.1901  144.4760  150.6483 LP  0  0  0  0  0  0  0  0  0  0  0  0  # atno 17343 bound_to 10162
  157.5592  130.8234  149.8244 LP  0  0  0  0  0  0  0  0  0  0  0  0  # atno 17370 bound_to 10713
  156.0283  130.3772  150.1761 LP  0  0  0  0  0  0  0  0  0  0  0  0  # atno 17371 bound_to 10713
  141.1736  133.6539  156.4744 LP  0  0  0  0  0  0  0  0  0  0  0  0  # atno 17394 bound_to 11000
  140.4488  134.6947  157.5029 LP  0  0  0  0  0  0  0  0  0  0  0  0  # atno 17395 bound_to 11000

$$$$
