AV-unprocessed.smi:2751|AV-procd|sdf|10601|dock1
  -GOLD-   2272015 53D 1   1.00000     0.00000
 Structure written by MMmdl.
 34 35  0  0  0  0  0  0  0  0  1 V2000
  150.2921  139.8785  154.1273 O   0  0  0  0  0  0  0  0  0  0  0  0
  149.6781  139.5285  155.1404 C   0  0  0  0  0  0  0  0  0  0  0  0
  150.1658  139.7572  156.3690 N   0  0  0  0  0  0  0  0  0  0  0  0
  151.4270  140.4264  156.6691 C   0  0  0  0  0  0  0  0  0  0  0  0
  151.6298  140.6025  158.1839 C   0  0  0  0  0  0  0  0  0  0  0  0
  152.2075  141.9781  158.5529 C   0  0  2  0  0  0  0  0  0  0  0  0
  152.1296  142.2482  160.0684 C   0  0  0  0  0  0  0  0  0  0  0  0
  152.6400  143.6568  160.3936 C   0  0  0  0  0  0  0  0  0  0  0  0
  151.8998  144.6858  159.5330 C   0  0  0  0  0  0  0  0  0  0  0  0
  151.9823  144.2973  158.0484 C   0  0  0  0  0  0  0  0  0  0  0  0
  151.4667  142.9827  157.8620 O   0  0  0  0  0  0  0  0  0  0  0  0
  148.4505  138.8867  155.2277 N   0  0  0  0  0  0  0  0  0  0  0  0
  147.7426  138.6861  154.1581 C   0  0  0  0  0  0  0  0  0  0  0  0
  147.9416  138.9960  152.8152 N   0  0  0  0  0  0  0  0  0  0  0  0
  146.8581  138.5526  152.1098 C   0  0  0  0  0  0  0  0  0  0  0  0
  146.0128  137.9871  152.9662 C   0  0  0  0  0  0  0  0  0  0  0  0
  146.5271  138.0532  154.2264 O   0  0  0  0  0  0  0  0  0  0  0  0
  149.6166  139.4475  157.1580 H   0  0  0  0  0  0  0  0  0  0  0  0
  152.2597  139.8728  156.2319 H   0  0  0  0  0  0  0  0  0  0  0  0
  151.4134  141.4003  156.1792 H   0  0  0  0  0  0  0  0  0  0  0  0
  150.6824  140.4519  158.7031 H   0  0  0  0  0  0  0  0  0  0  0  0
  152.3048  139.8267  158.5473 H   0  0  0  0  0  0  0  0  0  0  0  0
  153.2506  142.0175  158.2332 H   0  0  0  0  0  0  0  0  0  0  0  0
  151.0977  142.1480  160.4079 H   0  0  0  0  0  0  0  0  0  0  0  0
  152.7120  141.5070  160.6162 H   0  0  0  0  0  0  0  0  0  0  0  0
  152.5035  143.8767  161.4526 H   0  0  0  0  0  0  0  0  0  0  0  0
  153.7110  143.7141  160.1955 H   0  0  0  0  0  0  0  0  0  0  0  0
  150.8540  144.7346  159.8387 H   0  0  0  0  0  0  0  0  0  0  0  0
  152.3190  145.6802  159.6883 H   0  0  0  0  0  0  0  0  0  0  0  0
  151.3981  144.9932  157.4459 H   0  0  0  0  0  0  0  0  0  0  0  0
  153.0110  144.3507  157.6882 H   0  0  0  0  0  0  0  0  0  0  0  0
  148.7300  139.4650  152.3926 H   0  0  0  0  0  0  0  0  0  0  0  0
  146.8066  138.6935  151.0402 H   0  0  0  0  0  0  0  0  0  0  0  0
  145.0493  137.5151  152.8423 H   0  0  0  0  0  0  0  0  0  0  0  0
  1  2  2  0  0  0  0
  2 12  1  0  0  0  0
  2  3  1  0  0  0  0
  3  4  1  0  0  0  0
  3 18  1  0  0  0  0
  4  5  1  0  0  0  0
  4 19  1  0  0  0  0
  4 20  1  0  0  0  0
  5  6  1  0  0  0  0
  5 21  1  0  0  0  0
  5 22  1  0  0  0  0
  6 11  1  0  0  0  0
  6  7  1  0  0  0  0
  6 23  1  0  0  0  0
  7  8  1  0  0  0  0
  7 24  1  0  0  0  0
  7 25  1  0  0  0  0
  8  9  1  0  0  0  0
  8 26  1  0  0  0  0
  8 27  1  0  0  0  0
  9 10  1  0  0  0  0
  9 28  1  0  0  0  0
  9 29  1  0  0  0  0
 10 11  1  0  0  0  0
 10 30  1  0  0  0  0
 10 31  1  0  0  0  0
 12 13  2  0  0  0  0
 13 17  1  0  0  0  0
 13 14  1  0  0  0  0
 14 32  1  0  0  0  0
 14 15  1  0  0  0  0
 15 33  1  0  0  0  0
 15 16  2  0  0  0  0
 16 34  1  0  0  0  0
 16 17  1  0  0  0  0
M  END
> <s_m_source_file>
AV-unprocessed.smi

> <i_m_source_file_index>
2751

> <i_lp_mmshare_version>
43012

> <i_f3d_flags>
0

> <s_epik_input>
bzFbY0hdW2NIXW5jMVtOSF1DKD1PKVtOSF1bQ0gyXVtDSDJdW0NAQEhdMltDSDJdW0NIMl1bQ0gyXVtDSDJdTzI=

> <s_epik_cmdline>
J2VwaWtfcHl0aG9uJywgJy1waCcsICc3LjAnLCAnLXRuJywgJzgnLCAnLW1hJywgJzIwMCcsICctbWV0YWxfYmluZGluZycsICctaW1hZScsICc8aW5maWxlLm1hZT4nLCAnLW9tYWUnLCAnPG91dGZpbGUubWFlPic=

> <r_lp_tautomer_probability>
0.107061

> <r_epik_Ionization_Penalty>
1.421

> <r_epik_Ionization_Penalty_Charging>
1.42064

> <r_epik_Ionization_Penalty_Neutral>
0.0003614

> <r_epik_State_Penalty>
2.61489

> <r_epik_Charging_Adjusted_Penalty>
4.03553

> <i_epik_Tot_Q>
0

> <i_epik_Tot_abs_Q>
0

> <r_epik_Metal_State_Penalty>
3.57288

> <b_epik_Metal_Only>
0

> <s_lp_Force_Field>
OPLS_2005

> <r_lp_Energy>
32.5826

> <b_lp_Chiralities_Consistent>
1

> <s_lp_Variant>
AV-unprocessed.smi:2751-7

> <Gold.Version>
5.8.1

> <Gold.Id.Protein>
6NUR|6NUR_protein|mol2

> <Gold.PLP.Fitness>
38.2166

> <Gold.PLP.PLP>
-32.9657

> <Gold.PLP.part.hbond>
-2.5391

> <Gold.PLP.part.metal>
0.0000

> <Gold.PLP.part.buried>
-4.7418

> <Gold.PLP.part.nonpolar>
-27.1743

> <Gold.PLP.part.repulsive>
1.2402

> <Gold.PLP.ligand.clash>
0.0000

> <Gold.PLP.ligand.torsion>
0.3829

> <Gold.PLP.Chemscore.Hbond>
2.0000

> <Gold.PLP.Chemscore.CHOScore>
0.0000

> <Gold.PLP.Chemscore.Metal>
0.0000

> <Gold.Chemscore.Hbonds>
donor molecule, donor type, donor heavy atom, donor atom, acceptor molecule, acceptor atom, score
      L1  H    14    32       P1  7957  1.00
      P1  H  7989  7998       L1     1  1.00

> <Gold.PLP.Chemscore.Internal.Correction>
0.0166

> <Gold.Rescore>
     Score         DG    S(hbond)    S(metal)    S(lipo)     H(rot)  DE(clash)    DE(int)     intcor
     17.53     -18.01       1.97        0.00      86.61       1.63       0.09       0.40       ----

> <Gold.Chemscore.Fitness>
17.5287

> <Gold.Chemscore.DG>
-18.0141

> <Gold.Chemscore.ZeroCoef>
-5.4800

> <Gold.Chemscore.Hbond>
1.9701

> <Gold.Chemscore.Metal>
0.0000

> <Gold.Chemscore.Lipo>
86.6148

> <Gold.Chemscore.Internal_Hbond>
0.0000

> <Gold.Chemscore.DEClash>
0.0859

> <Gold.Chemscore.DEInternal>
0.3995

> <Gold.Chemscore.Rot>
1.6328

> <Gold.Chemscore.Internal.Correction>
   9.000000E+99

> <Gold.Chemscore.Hbonds>
donor molecule, donor type, donor heavy atom, donor atom, acceptor molecule, acceptor atom, score
      L1  H    14    32       P1  7957  0.97
      P1  H  7989  7998       L1     1  0.98

> <Gold.Chemscore.Hbond.Weighted>
-6.5801

> <Gold.Chemscore.Metal.Weighted>
-0.0000

> <Gold.Chemscore.Lipo.Weighted>
-10.1339

> <Gold.Chemscore.Internal_Hbond.Weighted>
0.0000

> <Gold.Chemscore.DEClash.Weighted>
0.0859

> <Gold.Chemscore.DEInternal.Weighted>
0.3995

> <Gold.Chemscore.Rot.Weighted>
4.1799

> <Gold.Chemscore.Internal.Correction.Weighted>
   9.000000E+99

> <Gold.Protein.RotatedTorsions>
[ 6907 6896 6895 6894 ] final -143.20 input  -60.11 | X-H torsion
[ 7974 7965 7964 7962 ] final   86.26 input  175.53 | X-H torsion
[ 8008 7997 7996 7995 ] final   74.78 input   59.86 | X-H torsion
[ 10167 10162 10161 10158 ] final   90.32 input  -65.29 | X-H torsion
[ 10718 10713 10712 10709 ] final   72.36 input   66.30 | X-H torsion
[ 10763 10752 10751 10750 ] final  -10.20 input  -60.55 | X-H torsion
[ 11005 11000 10999 10996 ] final   14.87 input  -57.11 | X-H torsion

> <Gold.Protein.ActiveResidues>
 VAL166  LYS551  ARG553  GLY616  TRP617  ASP618  TYR619  PRO620  LYS621  CYS622 
 ASP623  PHE694  ASN695  SER759  ASP760  ASP761  ALA762  ILE779  LEU786  VAL792 
 PHE793  MET794  SER795  GLU796  ALA797  LYS798  CYS799  TRP800  GLU811  SER814 

> <Gold.Protein.RotatedAtoms>
  151.0973  133.5270  159.2611 H   0  0  0  0  0  0  0  0  0  0  0  0  # atno 6907 bound_to 6896
  151.2115  135.0482  159.8923 H   0  0  0  0  0  0  0  0  0  0  0  0  # atno 6908 bound_to 6896
  152.5440  134.0788  159.8280 H   0  0  0  0  0  0  0  0  0  0  0  0  # atno 6909 bound_to 6896
  145.5746  139.2317  143.2387 H   0  0  0  0  0  0  0  0  0  0  0  0  # atno 7974 bound_to 7965
  155.8033  140.3475  155.5415 H   0  0  0  0  0  0  0  0  0  0  0  0  # atno 8008 bound_to 7997
  155.8516  140.0957  157.1691 H   0  0  0  0  0  0  0  0  0  0  0  0  # atno 8009 bound_to 7997
  154.4008  140.1375  156.3838 H   0  0  0  0  0  0  0  0  0  0  0  0  # atno 8010 bound_to 7997
  139.8485  144.6605  150.9198 H   0  0  0  0  0  0  0  0  0  0  0  0  # atno 10167 bound_to 10162
  157.6497  130.9575  150.0917 H   0  0  0  0  0  0  0  0  0  0  0  0  # atno 10718 bound_to 10713
  153.4658  135.7016  153.6023 H   0  0  0  0  0  0  0  0  0  0  0  0  # atno 10763 bound_to 10752
  153.4298  135.3805  155.2163 H   0  0  0  0  0  0  0  0  0  0  0  0  # atno 10764 bound_to 10752
  154.8726  135.3948  154.4090 H   0  0  0  0  0  0  0  0  0  0  0  0  # atno 10765 bound_to 10752
  140.4646  134.1092  155.7722 H   0  0  0  0  0  0  0  0  0  0  0  0  # atno 11005 bound_to 11000
  146.1760  140.6572  142.9211 LP  0  0  0  0  0  0  0  0  0  0  0  0  # atno 17320 bound_to 7965
  144.7422  140.4972  143.6861 LP  0  0  0  0  0  0  0  0  0  0  0  0  # atno 17321 bound_to 7965
  140.7790  143.3848  151.1412 LP  0  0  0  0  0  0  0  0  0  0  0  0  # atno 17342 bound_to 10162
  139.7489  143.8809  152.3071 LP  0  0  0  0  0  0  0  0  0  0  0  0  # atno 17343 bound_to 10162
  156.1865  130.3652  149.8966 LP  0  0  0  0  0  0  0  0  0  0  0  0  # atno 17370 bound_to 10713
  156.6906  130.8894  151.3587 LP  0  0  0  0  0  0  0  0  0  0  0  0  # atno 17371 bound_to 10713
  141.1605  133.8801  157.1860 LP  0  0  0  0  0  0  0  0  0  0  0  0  # atno 17394 bound_to 11000
  139.9923  135.0060  157.0004 LP  0  0  0  0  0  0  0  0  0  0  0  0  # atno 17395 bound_to 11000

$$$$
