AV-unprocessed.smi:2946|AV-procd|sdf|11281|dock10
  -GOLD-   2272016173D 1   1.00000     0.00000
 Structure written by MMmdl.
 35 36  0  0  0  0  0  0  0  0  1 V2000
  150.6853  144.5054  158.5903 C   0  0  0  0  0  0  0  0  0  0  0  0
  151.4028  143.2465  158.5814 N   0  0  0  0  0  0  0  0  0  0  0  0
  151.2148  142.2322  157.6382 C   0  0  0  0  0  0  0  0  0  0  0  0
  150.2625  142.4406  156.6461 N   0  0  0  0  0  0  0  0  0  0  0  0
  149.9127  141.5191  155.5750 C   0  0  0  0  0  0  0  0  0  0  0  0
  148.3992  141.2621  155.5110 C   0  0  1  0  0  0  0  0  0  0  0  0
  147.5959  142.2657  154.6795 C   0  0  0  0  0  0  0  0  0  0  0  0
  146.3971  141.4350  154.2815 C   0  0  0  0  0  0  0  0  0  0  0  0
  147.0314  140.0678  154.0434 C   0  0  0  0  0  0  0  0  0  0  0  0
  148.1155  139.9764  154.9639 O   0  0  0  0  0  0  0  0  0  0  0  0
  151.9477  141.0849  157.6901 C   0  0  0  0  0  0  0  0  0  0  0  0
  151.8423  140.0408  156.7196 C   0  0  0  0  0  0  0  0  0  0  0  0
  151.7660  139.2064  155.9203 N   0  0  0  0  0  0  0  0  0  0  0  0
  152.9407  140.8464  158.7351 C   0  0  0  0  0  0  0  0  0  0  0  0
  153.6321  139.8274  158.8056 O   0  0  0  0  0  0  0  0  0  0  0  0
  153.0645  141.8849  159.6802 N   0  0  0  0  0  0  0  0  0  0  0  0
  154.0410  141.6864  160.7333 C   0  0  0  0  0  0  0  0  0  0  0  0
  152.3303  143.0889  159.6406 C   0  0  0  0  0  0  0  0  0  0  0  0
  152.4878  143.9734  160.4875 O   0  0  0  0  0  0  0  0  0  0  0  0
  150.0729  144.6042  157.6971 H   0  0  0  0  0  0  0  0  0  0  0  0
  151.4221  145.3109  158.6059 H   0  0  0  0  0  0  0  0  0  0  0  0
  150.0564  144.5129  159.4824 H   0  0  0  0  0  0  0  0  0  0  0  0
  149.4707  142.9957  156.9382 H   0  0  0  0  0  0  0  0  0  0  0  0
  150.2612  141.9381  154.6308 H   0  0  0  0  0  0  0  0  0  0  0  0
  150.4241  140.5664  155.7103 H   0  0  0  0  0  0  0  0  0  0  0  0
  147.9999  141.2655  156.5263 H   0  0  0  0  0  0  0  0  0  0  0  0
  147.3286  143.1627  155.2384 H   0  0  0  0  0  0  0  0  0  0  0  0
  148.1411  142.5731  153.7871 H   0  0  0  0  0  0  0  0  0  0  0  0
  145.6867  141.3819  155.1077 H   0  0  0  0  0  0  0  0  0  0  0  0
  145.8768  141.8226  153.4051 H   0  0  0  0  0  0  0  0  0  0  0  0
  146.3237  139.2495  154.1775 H   0  0  0  0  0  0  0  0  0  0  0  0
  147.4308  140.0066  153.0305 H   0  0  0  0  0  0  0  0  0  0  0  0
  153.9477  142.4443  161.5106 H   0  0  0  0  0  0  0  0  0  0  0  0
  155.0264  141.7350  160.2672 H   0  0  0  0  0  0  0  0  0  0  0  0
  153.8580  140.7060  161.1775 H   0  0  0  0  0  0  0  0  0  0  0  0
  1  2  1  0  0  0  0
  1 20  1  0  0  0  0
  1 21  1  0  0  0  0
  1 22  1  0  0  0  0
  2 18  1  0  0  0  0
  2  3  1  0  0  0  0
  3  4  1  0  0  0  0
  3 11  2  0  0  0  0
  4  5  1  0  0  0  0
  4 23  1  0  0  0  0
  5  6  1  0  0  0  0
  5 24  1  0  0  0  0
  5 25  1  0  0  0  0
  6 10  1  0  0  0  0
  6  7  1  0  0  0  0
  6 26  1  0  0  0  0
  7  8  1  0  0  0  0
  7 27  1  0  0  0  0
  7 28  1  0  0  0  0
  8  9  1  0  0  0  0
  8 29  1  0  0  0  0
  8 30  1  0  0  0  0
  9 10  1  0  0  0  0
  9 31  1  0  0  0  0
  9 32  1  0  0  0  0
 11 12  1  0  0  0  0
 11 14  1  0  0  0  0
 12 13  3  0  0  0  0
 14 15  2  0  0  0  0
 14 16  1  0  0  0  0
 16 17  1  0  0  0  0
 16 18  1  0  0  0  0
 17 33  1  0  0  0  0
 17 34  1  0  0  0  0
 17 35  1  0  0  0  0
 18 19  2  0  0  0  0
M  END
> <s_m_source_file>
AV-unprocessed.smi

> <i_m_source_file_index>
2946

> <i_lp_mmshare_version>
43012

> <i_f3d_flags>
0

> <s_epik_input>
Tz1jMW4oW0NIM10pYyg9TyljKEMjTiljKG4xW0NIM10pW05IXVtDSDJdW0NAQEhdMltDSDJdW0NIMl1bQ0gyXU8y

> <s_epik_cmdline>
J2VwaWtfcHl0aG9uJywgJy1waCcsICc3LjAnLCAnLXRuJywgJzgnLCAnLW1hJywgJzIwMCcsICctbWV0YWxfYmluZGluZycsICctaW1hZScsICc8aW5maWxlLm1hZT4nLCAnLW9tYWUnLCAnPG91dGZpbGUubWFlPic=

> <r_epik_Ionization_Penalty>
0.000541801

> <r_epik_Ionization_Penalty_Charging>
8.97317e-10

> <r_epik_Ionization_Penalty_Neutral>
0.000541801

> <r_epik_State_Penalty>
0.000338907

> <r_epik_Charging_Adjusted_Penalty>
0.000338908

> <i_epik_Tot_Q>
0

> <i_epik_Tot_abs_Q>
0

> <r_epik_Metal_State_Penalty>
-0

> <b_epik_Metal_Only>
0

> <s_lp_Force_Field>
OPLS_2005

> <r_lp_Energy>
39.9681

> <b_lp_Chiralities_Consistent>
1

> <s_lp_Variant>
AV-unprocessed.smi:2946-2

> <Gold.Version>
5.8.1

> <Gold.Id.Protein>
6NUR|6NUR_protein|mol2

> <Gold.PLP.Fitness>
40.0847

> <Gold.PLP.PLP>
-36.1463

> <Gold.PLP.part.hbond>
-2.0000

> <Gold.PLP.part.metal>
0.0000

> <Gold.PLP.part.buried>
-0.6939

> <Gold.PLP.part.nonpolar>
-32.7553

> <Gold.PLP.part.repulsive>
0.2054

> <Gold.PLP.ligand.clash>
9.8971

> <Gold.PLP.ligand.torsion>
0.3470

> <Gold.PLP.Chemscore.Hbond>
1.5440

> <Gold.PLP.Chemscore.CHOScore>
0.0000

> <Gold.PLP.Chemscore.Metal>
0.0000

> <Gold.Chemscore.Hbonds>
donor molecule, donor type, donor heavy atom, donor atom, acceptor molecule, acceptor atom, score
      L1  H     4    23       P1  8028  0.19
      P1  H  7997  8009       L1    15  1.00

> <Gold.PLP.Chemscore.Internal.Correction>
9.8975

> <Gold.Rescore>
     Score         DG    S(hbond)    S(metal)    S(lipo)     H(rot)  DE(clash)    DE(int)     intcor
      9.38     -12.64       1.09        0.00      58.26       1.29       0.36       2.90       ----

> <Gold.Chemscore.Fitness>
9.3795

> <Gold.Chemscore.DG>
-12.6378

> <Gold.Chemscore.ZeroCoef>
-5.4800

> <Gold.Chemscore.Hbond>
1.0944

> <Gold.Chemscore.Metal>
0.0000

> <Gold.Chemscore.Lipo>
58.2621

> <Gold.Chemscore.Internal_Hbond>
0.0000

> <Gold.Chemscore.DEClash>
0.3573

> <Gold.Chemscore.DEInternal>
2.9009

> <Gold.Chemscore.Rot>
1.2946

> <Gold.Chemscore.Internal.Correction>
   9.000000E+99

> <Gold.Chemscore.Hbonds>
donor molecule, donor type, donor heavy atom, donor atom, acceptor molecule, acceptor atom, score
      L1  H     4    23       P1  8028  0.19
      P1  H  7997  8009       L1    15  0.29

> <Gold.Chemscore.Hbond.Weighted>
-3.6552

> <Gold.Chemscore.Metal.Weighted>
-0.0000

> <Gold.Chemscore.Lipo.Weighted>
-6.8167

> <Gold.Chemscore.Internal_Hbond.Weighted>
0.0000

> <Gold.Chemscore.DEClash.Weighted>
0.3573

> <Gold.Chemscore.DEInternal.Weighted>
2.9009

> <Gold.Chemscore.Rot.Weighted>
3.3141

> <Gold.Chemscore.Internal.Correction.Weighted>
   9.000000E+99

> <Gold.Protein.RotatedTorsions>
[ 6907 6896 6895 6894 ] final -101.73 input  -60.11 | X-H torsion
[ 7974 7965 7964 7962 ] final  116.90 input  175.53 | X-H torsion
[ 8008 7997 7996 7995 ] final  138.78 input   59.86 | X-H torsion
[ 10167 10162 10161 10158 ] final  149.23 input  -65.29 | X-H torsion
[ 10718 10713 10712 10709 ] final  -56.69 input   66.30 | X-H torsion
[ 10763 10752 10751 10750 ] final   60.54 input  -60.55 | X-H torsion
[ 11005 11000 10999 10996 ] final   89.99 input  -57.11 | X-H torsion

> <Gold.Protein.ActiveResidues>
 VAL166  LYS551  ARG553  GLY616  TRP617  ASP618  TYR619  PRO620  LYS621  CYS622 
 ASP623  PHE694  ASN695  SER759  ASP760  ASP761  ALA762  ILE779  LEU786  VAL792 
 PHE793  MET794  SER795  GLU796  ALA797  LYS798  CYS799  TRP800  GLU811  SER814 

> <Gold.Protein.RotatedAtoms>
  150.7166  134.0690  159.3857 H   0  0  0  0  0  0  0  0  0  0  0  0  # atno 6907 bound_to 6896
  151.8671  135.0500  160.0485 H   0  0  0  0  0  0  0  0  0  0  0  0  # atno 6908 bound_to 6896
  152.2672  133.5314  159.5453 H   0  0  0  0  0  0  0  0  0  0  0  0  # atno 6909 bound_to 6896
  145.1739  139.3086  143.4453 H   0  0  0  0  0  0  0  0  0  0  0  0  # atno 7974 bound_to 7965
  156.2995  140.2385  156.4129 H   0  0  0  0  0  0  0  0  0  0  0  0  # atno 8008 bound_to 7997
  154.8425  140.0428  157.1570 H   0  0  0  0  0  0  0  0  0  0  0  0  # atno 8009 bound_to 7997
  154.9087  140.2987  155.5281 H   0  0  0  0  0  0  0  0  0  0  0  0  # atno 8010 bound_to 7997
  139.4864  144.5618  151.7218 H   0  0  0  0  0  0  0  0  0  0  0  0  # atno 10167 bound_to 10162
  156.1269  130.4162  150.0339 H   0  0  0  0  0  0  0  0  0  0  0  0  # atno 10718 bound_to 10713
  152.9924  135.5532  154.5891 H   0  0  0  0  0  0  0  0  0  0  0  0  # atno 10763 bound_to 10752
  154.5256  135.2810  155.1227 H   0  0  0  0  0  0  0  0  0  0  0  0  # atno 10764 bound_to 10752
  154.2562  135.6389  153.5311 H   0  0  0  0  0  0  0  0  0  0  0  0  # atno 10765 bound_to 10752
  139.8864  134.8586  156.3220 H   0  0  0  0  0  0  0  0  0  0  0  0  # atno 11005 bound_to 11000
  146.3464  140.1895  142.8589 LP  0  0  0  0  0  0  0  0  0  0  0  0  # atno 17320 bound_to 7965
  145.0204  140.8789  143.5170 LP  0  0  0  0  0  0  0  0  0  0  0  0  # atno 17321 bound_to 7965
  140.5189  144.0910  150.6016 LP  0  0  0  0  0  0  0  0  0  0  0  0  # atno 17342 bound_to 10162
  140.3861  143.2777  152.0114 LP  0  0  0  0  0  0  0  0  0  0  0  0  # atno 17343 bound_to 10162
  156.8262  130.9376  151.3639 LP  0  0  0  0  0  0  0  0  0  0  0  0  # atno 17370 bound_to 10713
  157.6450  130.8837  149.9521 LP  0  0  0  0  0  0  0  0  0  0  0  0  # atno 17371 bound_to 10713
  140.9780  133.7285  156.0630 LP  0  0  0  0  0  0  0  0  0  0  0  0  # atno 17394 bound_to 11000
  140.7786  134.3751  157.5492 LP  0  0  0  0  0  0  0  0  0  0  0  0  # atno 17395 bound_to 11000

$$$$
