AV-unprocessed.smi:275|AV-procd|sdf|2067|dock8
  -GOLD-   2262021323D 1   1.00000     0.00000
 Structure written by MMmdl.
 65 69  0  0  0  0  0  0  0  0  1 V2000
  138.5629  137.3947  158.0728 C   0  0  0  0  0  0  0  0  0  0  0  0
  137.6113  137.7012  156.9073 C   0  0  0  0  0  0  0  0  0  0  0  0
  136.5503  136.5837  156.7940 C   0  0  0  0  0  0  0  0  0  0  0  0
  138.3975  138.0398  155.6125 C   0  0  1  0  0  0  0  0  0  0  0  0
  139.0846  136.8604  155.0802 N   0  0  0  0  0  0  0  0  0  0  0  0
  140.4716  137.0095  154.7468 C   0  0  0  0  0  0  0  0  0  0  0  0
  141.0384  138.2431  154.8455 N   0  0  0  0  0  0  0  0  0  0  0  0
  142.3220  138.4522  154.5442 C   0  0  0  0  0  0  0  0  0  0  0  0
  143.2258  137.5772  154.1085 N   0  0  0  0  0  0  0  0  0  0  0  0
  142.6751  136.3396  153.9694 C   0  0  0  0  0  0  0  0  0  0  0  0
  141.3257  135.9751  154.2537 C   0  0  0  0  0  0  0  0  0  0  0  0
  141.1457  134.6261  153.9668 N   0  0  0  0  0  0  0  0  0  0  0  0
  142.3133  134.2171  153.5547 C   0  0  0  0  0  0  0  0  0  0  0  0
  143.2932  135.1805  153.5344 N   0  0  0  0  0  0  0  0  0  0  0  0
  144.6759  135.0002  153.1274 C   0  0  0  0  0  0  0  0  0  0  0  0
  144.8388  134.7801  151.6027 C   0  0  2  0  0  0  0  0  0  0  0  0
  144.3733  135.9986  150.7681 C   0  0  0  0  0  0  0  0  0  0  0  0
  145.2879  137.0712  150.8635 O   0  0  0  0  0  0  0  0  0  0  0  0
  144.1665  133.4611  151.1445 C   0  0  1  0  0  0  0  0  0  0  0  0
  144.1646  133.2308  149.6434 C   0  0  0  0  0  0  0  0  0  0  0  0
  143.9010  131.7320  149.5484 C   0  0  0  0  0  0  0  0  0  0  0  0
  144.5116  131.1608  150.6998 O   0  0  0  0  0  0  0  0  0  0  0  0
  144.8716  132.1863  151.6199 C   0  0  0  0  0  0  0  0  0  0  0  0
  138.1556  136.7524  153.9563 C   0  0  0  0  0  0  0  0  0  0  0  0
  137.7316  138.2037  154.2193 C   0  0  0  0  0  0  0  0  0  0  0  0
  138.3952  139.2378  153.2822 C   0  0  0  0  0  0  0  0  0  0  0  0
  138.0918  140.6943  153.6715 C   0  0  0  0  0  0  0  0  0  0  0  0
  136.5822  140.9576  153.6804 C   0  0  0  0  0  0  0  0  0  0  0  0
  135.8532  139.9342  154.5578 C   0  0  0  0  0  0  0  0  0  0  0  0
  136.2174  138.4930  154.1567 C   0  0  0  0  0  0  0  0  0  0  0  0
  139.1398  136.4890  157.8837 H   0  0  0  0  0  0  0  0  0  0  0  0
  138.0130  137.2483  159.0027 H   0  0  0  0  0  0  0  0  0  0  0  0
  139.2649  138.2129  158.2351 H   0  0  0  0  0  0  0  0  0  0  0  0
  137.0722  138.5993  157.2058 H   0  0  0  0  0  0  0  0  0  0  0  0
  137.0051  135.6174  156.5743 H   0  0  0  0  0  0  0  0  0  0  0  0
  135.8078  136.7821  156.0247 H   0  0  0  0  0  0  0  0  0  0  0  0
  136.0068  136.4747  157.7327 H   0  0  0  0  0  0  0  0  0  0  0  0
  139.0635  138.8868  155.7691 H   0  0  0  0  0  0  0  0  0  0  0  0
  142.6738  139.4655  154.6698 H   0  0  0  0  0  0  0  0  0  0  0  0
  142.4946  133.1946  153.2567 H   0  0  0  0  0  0  0  0  0  0  0  0
  145.2292  135.8826  153.4495 H   0  0  0  0  0  0  0  0  0  0  0  0
  145.0969  134.1580  153.6776 H   0  0  0  0  0  0  0  0  0  0  0  0
  145.9084  134.6750  151.4149 H   0  0  0  0  0  0  0  0  0  0  0  0
  144.2550  135.7330  149.7176 H   0  0  0  0  0  0  0  0  0  0  0  0
  143.3943  136.3448  151.0990 H   0  0  0  0  0  0  0  0  0  0  0  0
  144.8431  137.8687  150.6200 H   0  0  0  0  0  0  0  0  0  0  0  0
  143.1342  133.4344  151.4983 H   0  0  0  0  0  0  0  0  0  0  0  0
  143.4116  133.8184  149.1173 H   0  0  0  0  0  0  0  0  0  0  0  0
  145.1418  133.4665  149.2191 H   0  0  0  0  0  0  0  0  0  0  0  0
  142.8297  131.5313  149.5875 H   0  0  0  0  0  0  0  0  0  0  0  0
  144.2947  131.2961  148.6299 H   0  0  0  0  0  0  0  0  0  0  0  0
  145.9553  132.3074  151.5872 H   0  0  0  0  0  0  0  0  0  0  0  0
  144.5945  131.9116  152.6380 H   0  0  0  0  0  0  0  0  0  0  0  0
  138.5825  136.5913  152.9664 H   0  0  0  0  0  0  0  0  0  0  0  0
  137.3660  136.0290  154.1577 H   0  0  0  0  0  0  0  0  0  0  0  0
  139.4771  139.1060  153.2651 H   0  0  0  0  0  0  0  0  0  0  0  0
  138.0706  139.0692  152.2545 H   0  0  0  0  0  0  0  0  0  0  0  0
  138.5082  140.9082  154.6566 H   0  0  0  0  0  0  0  0  0  0  0  0
  138.5820  141.3757  152.9755 H   0  0  0  0  0  0  0  0  0  0  0  0
  136.3776  141.9692  154.0319 H   0  0  0  0  0  0  0  0  0  0  0  0
  136.1983  140.8993  152.6610 H   0  0  0  0  0  0  0  0  0  0  0  0
  136.1093  140.1075  155.6026 H   0  0  0  0  0  0  0  0  0  0  0  0
  134.7758  140.0809  154.4778 H   0  0  0  0  0  0  0  0  0  0  0  0
  135.8515  138.3072  153.1460 H   0  0  0  0  0  0  0  0  0  0  0  0
  135.6573  137.8062  154.7864 H   0  0  0  0  0  0  0  0  0  0  0  0
  1  2  1  0  0  0  0
  1 31  1  0  0  0  0
  1 32  1  0  0  0  0
  1 33  1  0  0  0  0
  2  3  1  0  0  0  0
  2  4  1  0  0  0  0
  2 34  1  0  0  0  0
  3 35  1  0  0  0  0
  3 36  1  0  0  0  0
  3 37  1  0  0  0  0
  4 25  1  0  0  0  0
  4  5  1  0  0  0  0
  4 38  1  0  0  0  0
  5  6  1  0  0  0  0
  5 24  1  0  0  0  0
  6 11  1  0  0  0  0
  6  7  2  0  0  0  0
  7  8  1  0  0  0  0
  8  9  2  0  0  0  0
  8 39  1  0  0  0  0
  9 10  1  0  0  0  0
 10 14  1  0  0  0  0
 10 11  2  0  0  0  0
 11 12  1  0  0  0  0
 12 13  2  0  0  0  0
 13 14  1  0  0  0  0
 13 40  1  0  0  0  0
 14 15  1  0  0  0  0
 15 16  1  0  0  0  0
 15 41  1  0  0  0  0
 15 42  1  0  0  0  0
 16 17  1  0  0  0  0
 16 19  1  0  0  0  0
 16 43  1  0  0  0  0
 17 18  1  0  0  0  0
 17 44  1  0  0  0  0
 17 45  1  0  0  0  0
 18 46  1  0  0  0  0
 19 23  1  0  0  0  0
 19 20  1  0  0  0  0
 19 47  1  0  0  0  0
 20 21  1  0  0  0  0
 20 48  1  0  0  0  0
 20 49  1  0  0  0  0
 21 22  1  0  0  0  0
 21 50  1  0  0  0  0
 21 51  1  0  0  0  0
 22 23  1  0  0  0  0
 23 52  1  0  0  0  0
 23 53  1  0  0  0  0
 24 25  1  0  0  0  0
 24 54  1  0  0  0  0
 24 55  1  0  0  0  0
 25 30  1  0  0  0  0
 25 26  1  0  0  0  0
 26 27  1  0  0  0  0
 26 56  1  0  0  0  0
 26 57  1  0  0  0  0
 27 28  1  0  0  0  0
 27 58  1  0  0  0  0
 27 59  1  0  0  0  0
 28 29  1  0  0  0  0
 28 60  1  0  0  0  0
 28 61  1  0  0  0  0
 29 30  1  0  0  0  0
 29 62  1  0  0  0  0
 29 63  1  0  0  0  0
 30 64  1  0  0  0  0
 30 65  1  0  0  0  0
M  END
> <s_m_source_file>
AV-unprocessed.smi

> <i_m_source_file_index>
275

> <i_lp_mmshare_version>
43012

> <i_f3d_flags>
0

> <s_epik_input>
W0NIMl0xW0NIMl1bQ0gyXVtDSDJdW0NIMl1DMTJbQ0BIXShbQ0hdKFtDSDNdKVtDSDNdKU4oW0NIMl0yKWMobltjSF1uMyljKGMzNCluW2NIXW40W0NIMl1bQ0BIXShbQ0gyXVtPSF0pW0NAQEhdNVtDSDJdW0NIMl1PW0NIMl01

> <s_epik_cmdline>
J2VwaWtfcHl0aG9uJywgJy1waCcsICc3LjAnLCAnLXRuJywgJzgnLCAnLW1hJywgJzIwMCcsICctbWV0YWxfYmluZGluZycsICctaW1hZScsICc8aW5maWxlLm1hZT4nLCAnLW9tYWUnLCAnPG91dGZpbGUubWFlPic=

> <r_lp_tautomer_probability>
1

> <r_epik_Ionization_Penalty>
0.00375122

> <r_epik_Ionization_Penalty_Charging>
0

> <r_epik_Ionization_Penalty_Neutral>
0.00375122

> <r_epik_State_Penalty>
0.00260593

> <r_epik_Charging_Adjusted_Penalty>
0.00260593

> <i_epik_Tot_Q>
0

> <i_epik_Tot_abs_Q>
0

> <r_epik_Metal_State_Penalty>
-0

> <b_epik_Metal_Only>
0

> <s_lp_Force_Field>
OPLS_2005

> <r_lp_Energy>
69.8585

> <b_lp_Chiralities_Consistent>
1

> <s_lp_Variant>
AV-unprocessed.smi:275-6

> <Gold.Version>
5.8.1

> <Gold.Id.Protein>
6NUR|6NUR_protein|mol2

> <Gold.PLP.Fitness>
46.8138

> <Gold.PLP.PLP>
-38.0118

> <Gold.PLP.part.hbond>
-2.6804

> <Gold.PLP.part.metal>
0.0000

> <Gold.PLP.part.buried>
2.3493

> <Gold.PLP.part.nonpolar>
-38.8631

> <Gold.PLP.part.repulsive>
0.5707

> <Gold.PLP.ligand.clash>
0.0000

> <Gold.PLP.ligand.torsion>
0.7183

> <Gold.PLP.Chemscore.Hbond>
1.8868

> <Gold.PLP.Chemscore.CHOScore>
1.3666

> <Gold.PLP.Chemscore.Metal>
0.0000

> <Gold.Chemscore.Hbonds>
donor molecule, donor type, donor heavy atom, donor atom, acceptor molecule, acceptor atom, score
      L1  H    18    46       P1 10171  0.81
      P1  H 11000 11005       L1    12  0.90
      L1  C     8    39       P1 10175  0.60
      L1  C    13    40       P1 10957  0.76

> <Gold.PLP.Chemscore.Internal.Correction>
0.4786

> <Gold.Rescore>
     Score         DG    S(hbond)    S(metal)    S(lipo)     H(rot)  DE(clash)    DE(int)     intcor
     13.74     -16.18       1.47        0.00     104.92       2.54       1.71       0.73       ----

> <Gold.Chemscore.Fitness>
13.7386

> <Gold.Chemscore.DG>
-16.1757

> <Gold.Chemscore.ZeroCoef>
-5.4800

> <Gold.Chemscore.Hbond>
1.4722

> <Gold.Chemscore.Metal>
0.0000

> <Gold.Chemscore.Lipo>
104.9167

> <Gold.Chemscore.Internal_Hbond>
0.0000

> <Gold.Chemscore.DEClash>
1.7119

> <Gold.Chemscore.DEInternal>
0.7252

> <Gold.Chemscore.Rot>
2.5377

> <Gold.Chemscore.Internal.Correction>
   9.000000E+99

> <Gold.Chemscore.Hbonds>
donor molecule, donor type, donor heavy atom, donor atom, acceptor molecule, acceptor atom, score
      L1  H    18    46       P1 10171  0.75
      P1  H 11000 11005       L1    12  0.17

> <Gold.Chemscore.Hbond.Weighted>
-4.9170

> <Gold.Chemscore.Metal.Weighted>
-0.0000

> <Gold.Chemscore.Lipo.Weighted>
-12.2753

> <Gold.Chemscore.Internal_Hbond.Weighted>
0.0000

> <Gold.Chemscore.DEClash.Weighted>
1.7119

> <Gold.Chemscore.DEInternal.Weighted>
0.7252

> <Gold.Chemscore.Rot.Weighted>
6.4966

> <Gold.Chemscore.Internal.Correction.Weighted>
   9.000000E+99

> <Gold.Protein.RotatedTorsions>
[ 6907 6896 6895 6894 ] final  -89.87 input  -60.11 | X-H torsion
[ 7974 7965 7964 7962 ] final  -90.18 input  175.53 | X-H torsion
[ 8008 7997 7996 7995 ] final  -45.23 input   59.86 | X-H torsion
[ 10167 10162 10161 10158 ] final  -72.36 input  -65.29 | X-H torsion
[ 10718 10713 10712 10709 ] final -172.48 input   66.30 | X-H torsion
[ 10763 10752 10751 10750 ] final -124.33 input  -60.55 | X-H torsion
[ 11005 11000 10999 10996 ] final    5.88 input  -57.11 | X-H torsion

> <Gold.Protein.ActiveResidues>
 VAL166  LYS551  ARG553  GLY616  TRP617  ASP618  TYR619  PRO620  LYS621  CYS622 
 ASP623  PHE694  ASN695  SER759  ASP760  ASP761  ALA762  ILE779  LEU786  VAL792 
 PHE793  MET794  SER795  GLU796  ALA797  LYS798  CYS799  TRP800  GLU811  SER814 

> <Gold.Protein.RotatedAtoms>
  150.6877  134.2519  159.4514 H   0  0  0  0  0  0  0  0  0  0  0  0  # atno 6907 bound_to 6896
  152.0456  134.9682  160.0583 H   0  0  0  0  0  0  0  0  0  0  0  0  # atno 6908 bound_to 6896
  152.1167  133.4295  159.4693 H   0  0  0  0  0  0  0  0  0  0  0  0  # atno 6909 bound_to 6896
  145.4299  140.9555  143.2134 H   0  0  0  0  0  0  0  0  0  0  0  0  # atno 7974 bound_to 7965
  154.4000  140.1402  156.3813 H   0  0  0  0  0  0  0  0  0  0  0  0  # atno 8008 bound_to 7997
  155.8001  140.3476  155.5377 H   0  0  0  0  0  0  0  0  0  0  0  0  # atno 8009 bound_to 7997
  155.8492  140.0939  157.1676 H   0  0  0  0  0  0  0  0  0  0  0  0  # atno 8010 bound_to 7997
  140.5198  143.2333  151.7449 H   0  0  0  0  0  0  0  0  0  0  0  0  # atno 10167 bound_to 10162
  156.7562  130.9396  151.3116 H   0  0  0  0  0  0  0  0  0  0  0  0  # atno 10718 bound_to 10713
  154.8721  135.4067  154.3089 H   0  0  0  0  0  0  0  0  0  0  0  0  # atno 10763 bound_to 10752
  153.3936  135.7015  153.6482 H   0  0  0  0  0  0  0  0  0  0  0  0  # atno 10764 bound_to 10752
  153.5255  135.3678  155.2623 H   0  0  0  0  0  0  0  0  0  0  0  0  # atno 10765 bound_to 10752
  140.5658  134.0149  155.7989 H   0  0  0  0  0  0  0  0  0  0  0  0  # atno 11005 bound_to 11000
  144.8189  139.5826  143.6995 LP  0  0  0  0  0  0  0  0  0  0  0  0  # atno 17320 bound_to 7965
  146.2612  139.6415  142.9360 LP  0  0  0  0  0  0  0  0  0  0  0  0  # atno 17321 bound_to 7965
  139.4920  144.4270  151.9914 LP  0  0  0  0  0  0  0  0  0  0  0  0  # atno 17342 bound_to 10162
  140.3367  144.3253  150.5976 LP  0  0  0  0  0  0  0  0  0  0  0  0  # atno 17343 bound_to 10162
  157.6755  130.9090  150.0140 LP  0  0  0  0  0  0  0  0  0  0  0  0  # atno 17370 bound_to 10713
  156.1368  130.3642  149.9644 LP  0  0  0  0  0  0  0  0  0  0  0  0  # atno 17371 bound_to 10713
  141.1087  133.9652  157.2950 LP  0  0  0  0  0  0  0  0  0  0  0  0  # atno 17394 bound_to 11000
  139.9386  135.0194  156.8635 LP  0  0  0  0  0  0  0  0  0  0  0  0  # atno 17395 bound_to 11000

$$$$
