AV-unprocessed.smi:225|AV-procd|sdf|1724|dock4
  -GOLD-   2262020203D 1   1.00000     0.00000
 Structure written by MMmdl.
 56 59  0  0  0  0  0  0  0  0  1 V2000
  153.2364  138.8286  155.5402 O   0  0  0  0  0  0  0  0  0  0  0  0
  152.5642  138.6635  156.7694 C   0  0  0  0  0  0  0  0  0  0  0  0
  152.1387  140.0391  157.3098 C   0  0  0  0  0  0  0  0  0  0  0  0
  151.2386  140.7540  156.4002 N   0  0  0  0  0  0  0  0  0  0  0  0
  150.7684  142.0755  156.8185 C   0  0  0  0  0  0  0  0  0  0  0  0
  151.6987  142.7612  157.8414 C   0  0  0  0  0  0  0  0  0  0  0  0
  151.4340  142.2210  159.2611 C   0  0  0  0  0  0  0  0  0  0  0  0
  152.3516  142.8829  160.3022 C   0  0  0  0  0  0  0  0  0  0  0  0
  152.2119  144.4124  160.2746 C   0  0  0  0  0  0  0  0  0  0  0  0
  152.4700  144.9648  158.8646 C   0  0  0  0  0  0  0  0  0  0  0  0
  151.5511  144.2977  157.8285 C   0  0  0  0  0  0  0  0  0  0  0  0
  150.2830  140.0300  155.7615 C   0  0  0  0  0  0  0  0  0  0  0  0
  150.5194  139.5342  154.5173 N   0  0  0  0  0  0  0  0  0  0  0  0
  149.5873  138.8102  153.8910 C   0  0  0  0  0  0  0  0  0  0  0  0
  148.3722  138.4641  154.3198 N   0  0  0  0  0  0  0  0  0  0  0  0
  148.1307  138.9524  155.5699 C   0  0  0  0  0  0  0  0  0  0  0  0
  149.0214  139.7401  156.3526 C   0  0  0  0  0  0  0  0  0  0  0  0
  148.4245  140.0665  157.5636 N   0  0  0  0  0  0  0  0  0  0  0  0
  147.2510  139.4993  157.5037 C   0  0  0  0  0  0  0  0  0  0  0  0
  146.9948  138.7987  156.3464 N   0  0  0  0  0  0  0  0  0  0  0  0
  145.7775  138.0721  156.0163 C   0  0  0  0  0  0  0  0  0  0  0  0
  144.5411  138.9833  155.8192 C   0  0  2  0  0  0  0  0  0  0  0  0
  144.8643  140.0007  154.8892 O   0  0  0  0  0  0  0  0  0  0  0  0
  144.0796  139.6319  157.1265 C   0  0  0  0  0  0  0  0  0  0  0  0
  142.7728  138.9143  157.4424 C   0  0  0  0  0  0  0  0  0  0  0  0
  142.2267  138.6861  156.1561 O   0  0  0  0  0  0  0  0  0  0  0  0
  143.2874  138.2310  155.3290 C   0  0  0  0  0  0  0  0  0  0  0  0
  153.0174  138.1009  154.9784 H   0  0  0  0  0  0  0  0  0  0  0  0
  151.6918  138.0282  156.6135 H   0  0  0  0  0  0  0  0  0  0  0  0
  153.2262  138.1448  157.4628 H   0  0  0  0  0  0  0  0  0  0  0  0
  151.6669  139.9319  158.2874 H   0  0  0  0  0  0  0  0  0  0  0  0
  153.0320  140.6390  157.4793 H   0  0  0  0  0  0  0  0  0  0  0  0
  150.6299  142.7362  155.9613 H   0  0  0  0  0  0  0  0  0  0  0  0
  149.7783  141.9501  157.2583 H   0  0  0  0  0  0  0  0  0  0  0  0
  152.7325  142.5202  157.5942 H   0  0  0  0  0  0  0  0  0  0  0  0
  150.3918  142.3942  159.5330 H   0  0  0  0  0  0  0  0  0  0  0  0
  151.5820  141.1407  159.2820 H   0  0  0  0  0  0  0  0  0  0  0  0
  152.1164  142.5064  161.2981 H   0  0  0  0  0  0  0  0  0  0  0  0
  153.3880  142.6067  160.1039 H   0  0  0  0  0  0  0  0  0  0  0  0
  151.2095  144.6941  160.5997 H   0  0  0  0  0  0  0  0  0  0  0  0
  152.9060  144.8628  160.9847 H   0  0  0  0  0  0  0  0  0  0  0  0
  152.3183  146.0445  158.8549 H   0  0  0  0  0  0  0  0  0  0  0  0
  153.5121  144.7962  158.5905 H   0  0  0  0  0  0  0  0  0  0  0  0
  151.7812  144.6913  156.8380 H   0  0  0  0  0  0  0  0  0  0  0  0
  150.5158  144.5696  158.0370 H   0  0  0  0  0  0  0  0  0  0  0  0
  149.8547  138.4547  152.9070 H   0  0  0  0  0  0  0  0  0  0  0  0
  146.5368  139.5764  158.3105 H   0  0  0  0  0  0  0  0  0  0  0  0
  145.9637  137.4944  155.1100 H   0  0  0  0  0  0  0  0  0  0  0  0
  145.5883  137.3445  156.8068 H   0  0  0  0  0  0  0  0  0  0  0  0
  144.2278  139.9810  154.1910 H   0  0  0  0  0  0  0  0  0  0  0  0
  144.8050  139.5447  157.9362 H   0  0  0  0  0  0  0  0  0  0  0  0
  143.8743  140.6945  156.9862 H   0  0  0  0  0  0  0  0  0  0  0  0
  142.9580  137.9610  157.9401 H   0  0  0  0  0  0  0  0  0  0  0  0
  142.1049  139.5081  158.0667 H   0  0  0  0  0  0  0  0  0  0  0  0
  143.0662  138.3895  154.2727 H   0  0  0  0  0  0  0  0  0  0  0  0
  143.3851  137.1567  155.4871 H   0  0  0  0  0  0  0  0  0  0  0  0
  1  2  1  0  0  0  0
  1 28  1  0  0  0  0
  2  3  1  0  0  0  0
  2 29  1  0  0  0  0
  2 30  1  0  0  0  0
  3  4  1  0  0  0  0
  3 31  1  0  0  0  0
  3 32  1  0  0  0  0
  4  5  1  0  0  0  0
  4 12  1  0  0  0  0
  5  6  1  0  0  0  0
  5 33  1  0  0  0  0
  5 34  1  0  0  0  0
  6 11  1  0  0  0  0
  6  7  1  0  0  0  0
  6 35  1  0  0  0  0
  7  8  1  0  0  0  0
  7 36  1  0  0  0  0
  7 37  1  0  0  0  0
  8  9  1  0  0  0  0
  8 38  1  0  0  0  0
  8 39  1  0  0  0  0
  9 10  1  0  0  0  0
  9 40  1  0  0  0  0
  9 41  1  0  0  0  0
 10 11  1  0  0  0  0
 10 42  1  0  0  0  0
 10 43  1  0  0  0  0
 11 44  1  0  0  0  0
 11 45  1  0  0  0  0
 12 17  1  0  0  0  0
 12 13  2  0  0  0  0
 13 14  1  0  0  0  0
 14 15  2  0  0  0  0
 14 46  1  0  0  0  0
 15 16  1  0  0  0  0
 16 20  1  0  0  0  0
 16 17  2  0  0  0  0
 17 18  1  0  0  0  0
 18 19  2  0  0  0  0
 19 20  1  0  0  0  0
 19 47  1  0  0  0  0
 20 21  1  0  0  0  0
 21 22  1  0  0  0  0
 21 48  1  0  0  0  0
 21 49  1  0  0  0  0
 22 27  1  0  0  0  0
 22 23  1  0  0  0  0
 22 24  1  0  0  0  0
 23 50  1  0  0  0  0
 24 25  1  0  0  0  0
 24 51  1  0  0  0  0
 24 52  1  0  0  0  0
 25 26  1  0  0  0  0
 25 53  1  0  0  0  0
 25 54  1  0  0  0  0
 26 27  1  0  0  0  0
 27 55  1  0  0  0  0
 27 56  1  0  0  0  0
M  END
> <s_m_source_file>
AV-unprocessed.smi

> <i_m_source_file_index>
225

> <i_lp_mmshare_version>
43012

> <i_f3d_flags>
0

> <s_epik_input>
W0NIMl0xW0NIMl1bQ0gyXVtDSDJdW0NIMl1bQ0hdMVtDSDJdTihbQ0gyXVtDSDJdW09IXSljKG5bY0hdbjIpYyhjMjMpbltjSF1uM1tDSDJdW0NAQF00KFtPSF0pW0NIMl1bQ0gyXU9bQ0gyXTQ=

> <s_epik_cmdline>
J2VwaWtfcHl0aG9uJywgJy1waCcsICc3LjAnLCAnLXRuJywgJzgnLCAnLW1hJywgJzIwMCcsICctbWV0YWxfYmluZGluZycsICctaW1hZScsICc8aW5maWxlLm1hZT4nLCAnLW9tYWUnLCAnPG91dGZpbGUubWFlPic=

> <r_lp_tautomer_probability>
1

> <r_epik_Ionization_Penalty>
0.00405109

> <r_epik_Ionization_Penalty_Charging>
0

> <r_epik_Ionization_Penalty_Neutral>
0.00405109

> <r_epik_State_Penalty>
0.00270467

> <r_epik_Charging_Adjusted_Penalty>
0.00270467

> <i_epik_Tot_Q>
0

> <i_epik_Tot_abs_Q>
0

> <r_epik_Metal_State_Penalty>
-0

> <b_epik_Metal_Only>
0

> <s_lp_Force_Field>
OPLS_2005

> <r_lp_Energy>
36.6988

> <b_lp_Chiralities_Consistent>
1

> <s_lp_Variant>
AV-unprocessed.smi:225-2

> <Gold.Version>
5.8.1

> <Gold.Id.Protein>
6NUR|6NUR_protein|mol2

> <Gold.PLP.Fitness>
46.7824

> <Gold.PLP.PLP>
-34.1804

> <Gold.PLP.part.hbond>
-3.0000

> <Gold.PLP.part.metal>
0.0000

> <Gold.PLP.part.buried>
-4.9485

> <Gold.PLP.part.nonpolar>
-27.3238

> <Gold.PLP.part.repulsive>
0.3511

> <Gold.PLP.ligand.clash>
0.0000

> <Gold.PLP.ligand.torsion>
1.1015

> <Gold.PLP.Chemscore.Hbond>
3.0000

> <Gold.PLP.Chemscore.CHOScore>
1.5863

> <Gold.PLP.Chemscore.Metal>
0.0000

> <Gold.Chemscore.Hbonds>
donor molecule, donor type, donor heavy atom, donor atom, acceptor molecule, acceptor atom, score
      L1  H    23    50       P1 10175  1.00
      P1  H  7989  7998       L1    13  1.00
      P1  H  7997  8010       L1     1  1.00
      L1  C    14    46       P1  7948  0.82
      L1  C    14    46       P1  7957  0.73

> <Gold.PLP.Chemscore.Internal.Correction>
1.0461

> <Gold.Rescore>
     Score         DG    S(hbond)    S(metal)    S(lipo)     H(rot)  DE(clash)    DE(int)     intcor
     12.58     -14.90       2.44        0.00      93.11       3.76       0.42       1.90       ----

> <Gold.Chemscore.Fitness>
12.5798

> <Gold.Chemscore.DG>
-14.9013

> <Gold.Chemscore.ZeroCoef>
-5.4800

> <Gold.Chemscore.Hbond>
2.4442

> <Gold.Chemscore.Metal>
0.0000

> <Gold.Chemscore.Lipo>
93.1150

> <Gold.Chemscore.Internal_Hbond>
0.0000

> <Gold.Chemscore.DEClash>
0.4177

> <Gold.Chemscore.DEInternal>
1.9038

> <Gold.Chemscore.Rot>
3.7644

> <Gold.Chemscore.Internal.Correction>
   9.000000E+99

> <Gold.Chemscore.Hbonds>
donor molecule, donor type, donor heavy atom, donor atom, acceptor molecule, acceptor atom, score
      L1  H    23    50       P1 10175  0.95
      P1  H  7989  7998       L1    13  0.65
      P1  H  7997  8010       L1     1  0.25

> <Gold.Chemscore.Hbond.Weighted>
-8.1637

> <Gold.Chemscore.Metal.Weighted>
-0.0000

> <Gold.Chemscore.Lipo.Weighted>
-10.8945

> <Gold.Chemscore.Internal_Hbond.Weighted>
0.0000

> <Gold.Chemscore.DEClash.Weighted>
0.4177

> <Gold.Chemscore.DEInternal.Weighted>
1.9038

> <Gold.Chemscore.Rot.Weighted>
9.6369

> <Gold.Chemscore.Internal.Correction.Weighted>
   9.000000E+99

> <Gold.Protein.RotatedTorsions>
[ 6907 6896 6895 6894 ] final  -79.91 input  -60.11 | X-H torsion
[ 7974 7965 7964 7962 ] final -118.73 input  175.53 | X-H torsion
[ 8008 7997 7996 7995 ] final   97.68 input   59.86 | X-H torsion
[ 10167 10162 10161 10158 ] final  -98.50 input  -65.29 | X-H torsion
[ 10718 10713 10712 10709 ] final  170.67 input   66.30 | X-H torsion
[ 10763 10752 10751 10750 ] final   96.60 input  -60.55 | X-H torsion
[ 11005 11000 10999 10996 ] final   79.16 input  -57.11 | X-H torsion

> <Gold.Protein.ActiveResidues>
 VAL166  LYS551  ARG553  GLY616  TRP617  ASP618  TYR619  PRO620  LYS621  CYS622 
 ASP623  PHE694  ASN695  SER759  ASP760  ASP761  ALA762  ILE779  LEU786  VAL792 
 PHE793  MET794  SER795  GLU796  ALA797  LYS798  CYS799  TRP800  GLU811  SER814 

> <Gold.Protein.RotatedAtoms>
  150.6940  134.4050  159.5135 H   0  0  0  0  0  0  0  0  0  0  0  0  # atno 6907 bound_to 6896
  152.1817  134.8745  160.0535 H   0  0  0  0  0  0  0  0  0  0  0  0  # atno 6908 bound_to 6896
  151.9733  133.3698  159.4116 H   0  0  0  0  0  0  0  0  0  0  0  0  # atno 6909 bound_to 6896
  145.0705  140.8356  143.4098 H   0  0  0  0  0  0  0  0  0  0  0  0  # atno 7974 bound_to 7965
  156.0927  140.3255  155.7836 H   0  0  0  0  0  0  0  0  0  0  0  0  # atno 8008 bound_to 7997
  155.4970  140.0566  157.2962 H   0  0  0  0  0  0  0  0  0  0  0  0  # atno 8009 bound_to 7997
  154.4647  140.1983  156.0166 H   0  0  0  0  0  0  0  0  0  0  0  0  # atno 8010 bound_to 7997
  140.2723  143.3336  152.0523 H   0  0  0  0  0  0  0  0  0  0  0  0  # atno 10167 bound_to 10162
  157.0048  131.0187  151.2820 H   0  0  0  0  0  0  0  0  0  0  0  0  # atno 10718 bound_to 10713
  153.2669  135.4213  155.0949 H   0  0  0  0  0  0  0  0  0  0  0  0  # atno 10763 bound_to 10752
  154.8441  135.3462  154.6299 H   0  0  0  0  0  0  0  0  0  0  0  0  # atno 10764 bound_to 10752
  153.6718  135.7043  153.5202 H   0  0  0  0  0  0  0  0  0  0  0  0  # atno 10765 bound_to 10752
  139.9183  134.7821  156.1743 H   0  0  0  0  0  0  0  0  0  0  0  0  # atno 11005 bound_to 11000
  145.1298  139.2639  143.5545 LP  0  0  0  0  0  0  0  0  0  0  0  0  # atno 17320 bound_to 7965
  146.3528  140.0945  142.8611 LP  0  0  0  0  0  0  0  0  0  0  0  0  # atno 17321 bound_to 7965
  139.4985  144.6648  151.6381 LP  0  0  0  0  0  0  0  0  0  0  0  0  # atno 17342 bound_to 10162
  140.5880  143.9830  150.6307 LP  0  0  0  0  0  0  0  0  0  0  0  0  # atno 17343 bound_to 10162
  157.5364  130.8091  149.7976 LP  0  0  0  0  0  0  0  0  0  0  0  0  # atno 17370 bound_to 10713
  156.0158  130.3814  150.2117 LP  0  0  0  0  0  0  0  0  0  0  0  0  # atno 17371 bound_to 10713
  141.0681  133.6809  156.2085 LP  0  0  0  0  0  0  0  0  0  0  0  0  # atno 17394 bound_to 11000
  140.6552  134.5026  157.5580 LP  0  0  0  0  0  0  0  0  0  0  0  0  # atno 17395 bound_to 11000

$$$$
