AV-unprocessed.smi:578|AV-procd|sdf|2983|dock2
  -GOLD-   2262023493D 1   1.00000     0.00000
 Structure written by MMmdl.
 33 34  0  0  0  0  0  0  0  0  3 V2000
  152.4778  144.8778  158.4618 C   0  0  0  0  0  0  0  0  0  0  0  0
  151.4215  143.9703  159.1171 C   0  0  1  0  0  0  0  0  0  0  0  0
  151.1747  142.6567  158.3477 C   0  0  0  0  0  0  0  0  0  0  0  0
  152.2803  141.7279  158.5439 N   0  0  0  0  0  0  0  0  0  0  0  0
  152.1692  140.5636  157.7717 C   0  0  0  0  0  0  0  0  0  0  0  0
  151.7099  140.6624  156.4411 C   0  0  0  0  0  0  0  0  0  0  0  0
  151.5978  139.4939  155.6620 C   0  0  0  0  0  0  0  0  0  0  0  0
  151.9283  138.2984  156.1946 N   0  3  0  0  0  0  0  0  0  0  0  0
  152.3718  138.1460  157.4636 C   0  0  0  0  0  0  0  0  0  0  0  0
  152.7090  136.7681  157.9515 C   0  0  0  0  0  0  0  0  0  0  0  0
  152.7117  135.8239  157.1314 O   0  0  0  0  0  0  0  0  0  0  0  0
  152.9756  136.6138  159.1642 O   0  5  0  0  0  0  0  0  0  0  0  0
  152.5023  139.2884  158.2869 C   0  0  0  0  0  0  0  0  0  0  0  0
  152.5443  141.4716  159.9529 C   0  0  0  0  0  0  0  0  0  0  0  0
  152.8255  142.7965  160.6844 C   0  0  2  0  0  0  0  0  0  0  0  0
  153.0061  142.5918  162.1920 C   0  0  0  0  0  0  0  0  0  0  0  0
  151.7285  143.6892  160.4858 O   0  0  0  0  0  0  0  0  0  0  0  0
  152.1607  145.1798  157.4634 H   0  0  0  0  0  0  0  0  0  0  0  0
  153.4432  144.3831  158.3581 H   0  0  0  0  0  0  0  0  0  0  0  0
  152.6270  145.7853  159.0473 H   0  0  0  0  0  0  0  0  0  0  0  0
  150.4863  144.5308  159.1244 H   0  0  0  0  0  0  0  0  0  0  0  0
  150.2530  142.1965  158.7064 H   0  0  0  0  0  0  0  0  0  0  0  0
  151.0365  142.8597  157.2848 H   0  0  0  0  0  0  0  0  0  0  0  0
  151.4476  141.6225  156.0211 H   0  0  0  0  0  0  0  0  0  0  0  0
  151.2569  139.4787  154.6374 H   0  0  0  0  0  0  0  0  0  0  0  0
  152.8538  139.1878  159.3039 H   0  0  0  0  0  0  0  0  0  0  0  0
  151.6861  140.9725  160.4052 H   0  0  0  0  0  0  0  0  0  0  0  0
  153.3980  140.7999  160.0516 H   0  0  0  0  0  0  0  0  0  0  0  0
  153.7394  143.2447  160.2935 H   0  0  0  0  0  0  0  0  0  0  0  0
  153.8392  141.9196  162.3995 H   0  0  0  0  0  0  0  0  0  0  0  0
  152.1100  142.1641  162.6427 H   0  0  0  0  0  0  0  0  0  0  0  0
  153.2108  143.5390  162.6917 H   0  0  0  0  0  0  0  0  0  0  0  0
  151.8418  137.4607  155.6180 H   0  0  0  0  0  0  0  0  0  0  0  0
  1  2  1  0  0  0  0
  1 18  1  0  0  0  0
  1 19  1  0  0  0  0
  1 20  1  0  0  0  0
  2 17  1  0  0  0  0
  2  3  1  0  0  0  0
  2 21  1  0  0  0  0
  3  4  1  0  0  0  0
  3 22  1  0  0  0  0
  3 23  1  0  0  0  0
  4  5  1  0  0  0  0
  4 14  1  0  0  0  0
  5 13  1  0  0  0  0
  5  6  2  0  0  0  0
  6  7  1  0  0  0  0
  6 24  1  0  0  0  0
  7  8  2  0  0  0  0
  7 25  1  0  0  0  0
  8  9  1  0  0  0  0
  8 33  1  0  0  0  0
  9 10  1  0  0  0  0
  9 13  2  0  0  0  0
 10 11  2  0  0  0  0
 10 12  1  0  0  0  0
 13 26  1  0  0  0  0
 14 15  1  0  0  0  0
 14 27  1  0  0  0  0
 14 28  1  0  0  0  0
 15 16  1  0  0  0  0
 15 17  1  0  0  0  0
 15 29  1  0  0  0  0
 16 30  1  0  0  0  0
 16 31  1  0  0  0  0
 16 32  1  0  0  0  0
M  CHG  1   8   1
M  CHG  1  12  -1
M  END
> <s_m_source_file>
AV-unprocessed.smi

> <i_m_source_file_index>
578

> <i_lp_mmshare_version>
43012

> <i_f3d_flags>
0

> <s_epik_input>
W0NIM11bQ0BASF0xW0NIMl1OKFtDSDJdW0NASF0oTzEpW0NIM10pYzJbY0hdW2NIXW5jKFtjSF0yKUMoPU8pW09IXQ==

> <s_epik_cmdline>
J2VwaWtfcHl0aG9uJywgJy1waCcsICc3LjAnLCAnLXRuJywgJzgnLCAnLW1hJywgJzIwMCcsICctbWV0YWxfYmluZGluZycsICctaW1hZScsICc8aW5maWxlLm1hZT4nLCAnLW9tYWUnLCAnPG91dGZpbGUubWFlPic=

> <r_epik_Ionization_Penalty>
0.0203651

> <r_epik_Ionization_Penalty_Charging>
0.0203651

> <r_epik_Ionization_Penalty_Neutral>
3.18831e-12

> <r_epik_State_Penalty>
0.0163096

> <r_epik_Charging_Adjusted_Penalty>
0.0366747

> <i_epik_Tot_Q>
0

> <i_epik_Tot_abs_Q>
2

> <r_epik_Metal_State_Penalty>
1.99323

> <b_epik_Metal_Only>
0

> <s_lp_Force_Field>
OPLS_2005

> <r_lp_Energy>
19.2527

> <b_lp_Chiralities_Consistent>
1

> <s_lp_Variant>
AV-unprocessed.smi:578-3

> <Gold.Version>
5.8.1

> <Gold.Id.Protein>
6NUR|6NUR_protein|mol2

> <Gold.PLP.Fitness>
45.6530

> <Gold.PLP.PLP>
-34.4652

> <Gold.PLP.part.hbond>
-2.0000

> <Gold.PLP.part.metal>
0.0000

> <Gold.PLP.part.buried>
-5.4712

> <Gold.PLP.part.nonpolar>
-27.5740

> <Gold.PLP.part.repulsive>
0.2007

> <Gold.PLP.ligand.clash>
0.1243

> <Gold.PLP.ligand.torsion>
0.3924

> <Gold.PLP.Chemscore.Hbond>
4.0000

> <Gold.PLP.Chemscore.CHOScore>
0.0000

> <Gold.PLP.Chemscore.Metal>
0.0000

> <Gold.Chemscore.Hbonds>
donor molecule, donor type, donor heavy atom, donor atom, acceptor molecule, acceptor atom, score
      P1  H  6896  6907       L1    12  1.98
      P1  H 10752 10765       L1    11  2.00

> <Gold.PLP.Chemscore.Internal.Correction>
0.0969

> <Gold.Rescore>
     Score         DG    S(hbond)    S(metal)    S(lipo)     H(rot)  DE(clash)    DE(int)     intcor
     20.16     -20.58       1.88        0.00      97.21       1.00       0.05       0.37       ----

> <Gold.Chemscore.Fitness>
20.1607

> <Gold.Chemscore.DG>
-20.5813

> <Gold.Chemscore.ZeroCoef>
-5.4800

> <Gold.Chemscore.Hbond>
1.8826

> <Gold.Chemscore.Metal>
0.0000

> <Gold.Chemscore.Lipo>
97.2069

> <Gold.Chemscore.Internal_Hbond>
0.0000

> <Gold.Chemscore.DEClash>
0.0515

> <Gold.Chemscore.DEInternal>
0.3690

> <Gold.Chemscore.Rot>
1.0000

> <Gold.Chemscore.Internal.Correction>
   9.000000E+99

> <Gold.Chemscore.Hbonds>
donor molecule, donor type, donor heavy atom, donor atom, acceptor molecule, acceptor atom, score
      P1  H  6896  6907       L1    12  0.80
      P1  H 10752 10765       L1    11  0.94

> <Gold.Chemscore.Hbond.Weighted>
-6.2880

> <Gold.Chemscore.Metal.Weighted>
-0.0000

> <Gold.Chemscore.Lipo.Weighted>
-11.3732

> <Gold.Chemscore.Internal_Hbond.Weighted>
0.0000

> <Gold.Chemscore.DEClash.Weighted>
0.0515

> <Gold.Chemscore.DEInternal.Weighted>
0.3690

> <Gold.Chemscore.Rot.Weighted>
2.5600

> <Gold.Chemscore.Internal.Correction.Weighted>
   9.000000E+99

> <Gold.Protein.RotatedTorsions>
[ 6907 6896 6895 6894 ] final   30.96 input  -60.11 | X-H torsion
[ 7974 7965 7964 7962 ] final   35.54 input  175.53 | X-H torsion
[ 8008 7997 7996 7995 ] final  178.07 input   59.86 | X-H torsion
[ 10167 10162 10161 10158 ] final   28.27 input  -65.29 | X-H torsion
[ 10718 10713 10712 10709 ] final  -93.33 input   66.30 | X-H torsion
[ 10763 10752 10751 10750 ] final -128.95 input  -60.55 | X-H torsion
[ 11005 11000 10999 10996 ] final   45.73 input  -57.11 | X-H torsion

> <Gold.Protein.ActiveResidues>
 VAL166  LYS551  ARG553  GLY616  TRP617  ASP618  TYR619  PRO620  LYS621  CYS622 
 ASP623  PHE694  ASN695  SER759  ASP760  ASP761  ALA762  ILE779  LEU786  VAL792 
 PHE793  MET794  SER795  GLU796  ALA797  LYS798  CYS799  TRP800  GLU811  SER814 

> <Gold.Protein.RotatedAtoms>
  152.0535  134.9639  160.0574 H   0  0  0  0  0  0  0  0  0  0  0  0  # atno 6907 bound_to 6896
  152.1030  133.4255  159.4604 H   0  0  0  0  0  0  0  0  0  0  0  0  # atno 6908 bound_to 6896
  150.6840  134.2657  159.4611 H   0  0  0  0  0  0  0  0  0  0  0  0  # atno 6909 bound_to 6896
  146.1276  139.6130  142.9248 H   0  0  0  0  0  0  0  0  0  0  0  0  # atno 7974 bound_to 7965
  156.0587  140.1342  156.9967 H   0  0  0  0  0  0  0  0  0  0  0  0  # atno 8008 bound_to 7997
  154.4470  140.0996  156.6555 H   0  0  0  0  0  0  0  0  0  0  0  0  # atno 8009 bound_to 7997
  155.5411  140.3461  155.4449 H   0  0  0  0  0  0  0  0  0  0  0  0  # atno 8010 bound_to 7997
  140.4867  144.0532  150.6283 H   0  0  0  0  0  0  0  0  0  0  0  0  # atno 10167 bound_to 10162
  156.0012  130.5023  150.5761 H   0  0  0  0  0  0  0  0  0  0  0  0  # atno 10718 bound_to 10713
  154.8757  135.3911  154.3840 H   0  0  0  0  0  0  0  0  0  0  0  0  # atno 10763 bound_to 10752
  153.4584  135.7029  153.6070 H   0  0  0  0  0  0  0  0  0  0  0  0  # atno 10764 bound_to 10752
  153.4580  135.3818  155.2290 H   0  0  0  0  0  0  0  0  0  0  0  0  # atno 10765 bound_to 10752
  140.1433  134.4555  155.8434 H   0  0  0  0  0  0  0  0  0  0  0  0  # atno 11005 bound_to 11000
  145.5332  141.0426  143.2372 LP  0  0  0  0  0  0  0  0  0  0  0  0  # atno 17320 bound_to 7965
  144.7658  139.6849  143.7215 LP  0  0  0  0  0  0  0  0  0  0  0  0  # atno 17321 bound_to 7965
  140.3789  143.2813  152.0193 LP  0  0  0  0  0  0  0  0  0  0  0  0  # atno 17342 bound_to 10162
  139.4843  144.6171  151.7326 LP  0  0  0  0  0  0  0  0  0  0  0  0  # atno 17343 bound_to 10162
  157.3648  131.0756  151.1607 LP  0  0  0  0  0  0  0  0  0  0  0  0  # atno 17370 bound_to 10713
  157.2379  130.6556  149.5877 LP  0  0  0  0  0  0  0  0  0  0  0  0  # atno 17371 bound_to 10713
  141.2189  133.6842  156.7287 LP  0  0  0  0  0  0  0  0  0  0  0  0  # atno 17394 bound_to 11000
  140.2695  134.8403  157.3834 LP  0  0  0  0  0  0  0  0  0  0  0  0  # atno 17395 bound_to 11000

$$$$
