AV-unprocessed.smi:3290|AV-procd|sdf|12614|dock3
  -GOLD-   2272018543D 1   1.00000     0.00000
 Structure written by MMmdl.
 43 44  0  0  0  0  0  0  0  0  2 V2000
  149.2722  144.4338  159.7046 C   0  0  0  0  0  0  0  0  0  0  0  0
  150.6138  143.8645  159.2094 C   0  0  1  0  0  0  0  0  0  0  0  0
  151.7436  144.3118  160.1614 C   0  0  0  0  0  0  0  0  0  0  0  0
  153.1201  143.8170  159.6983 C   0  0  0  0  0  0  0  0  0  0  0  0
  153.1248  142.2927  159.5413 C   0  0  0  0  0  0  0  0  0  0  0  0
  152.0135  141.8390  158.5850 C   0  0  0  0  0  0  0  0  0  0  0  0
  150.6162  142.3159  159.0411 C   0  0  2  0  0  0  0  0  0  0  0  0
  149.5498  141.7965  158.0498 C   0  0  0  0  0  0  0  0  0  0  0  0
  149.8425  142.1923  156.6574 N   0  3  0  0  0  0  0  0  0  0  0  0
  149.0713  141.4477  155.6418 C   0  0  0  0  0  0  0  0  0  0  0  0
  149.9557  141.0320  154.4533 C   0  0  2  0  0  0  0  0  0  0  0  0
  149.1473  140.9254  153.2973 O   0  0  0  0  0  0  0  0  0  0  0  0
  150.6930  139.7347  154.7457 C   0  0  0  0  0  0  0  0  0  0  0  0
  150.3567  138.5371  154.0777 C   0  0  0  0  0  0  0  0  0  0  0  0
  151.0714  137.3647  154.3948 C   0  0  0  0  0  0  0  0  0  0  0  0
  152.0638  137.3266  155.3095 N   0  0  0  0  0  0  0  0  0  0  0  0
  152.3796  138.4738  155.9472 C   0  0  0  0  0  0  0  0  0  0  0  0
  151.7273  139.6994  155.7044 C   0  0  0  0  0  0  0  0  0  0  0  0
  148.9537  143.9536  160.6304 H   0  0  0  0  0  0  0  0  0  0  0  0
  148.4818  144.3090  158.9652 H   0  0  0  0  0  0  0  0  0  0  0  0
  149.3503  145.5040  159.8989 H   0  0  0  0  0  0  0  0  0  0  0  0
  150.8137  144.3109  158.2339 H   0  0  0  0  0  0  0  0  0  0  0  0
  151.7625  145.3999  160.2346 H   0  0  0  0  0  0  0  0  0  0  0  0
  151.5455  143.9407  161.1680 H   0  0  0  0  0  0  0  0  0  0  0  0
  153.3800  144.2860  158.7485 H   0  0  0  0  0  0  0  0  0  0  0  0
  153.8850  144.1203  160.4138 H   0  0  0  0  0  0  0  0  0  0  0  0
  154.0947  141.9600  159.1701 H   0  0  0  0  0  0  0  0  0  0  0  0
  152.9873  141.8216  160.5154 H   0  0  0  0  0  0  0  0  0  0  0  0
  152.2224  142.2153  157.5824 H   0  0  0  0  0  0  0  0  0  0  0  0
  152.0330  140.7508  158.5141 H   0  0  0  0  0  0  0  0  0  0  0  0
  150.4268  141.8609  160.0152 H   0  0  0  0  0  0  0  0  0  0  0  0
  149.4559  140.7121  158.1226 H   0  0  0  0  0  0  0  0  0  0  0  0
  148.5734  142.2125  158.3021 H   0  0  0  0  0  0  0  0  0  0  0  0
  149.6357  143.1756  156.5522 H   0  0  0  0  0  0  0  0  0  0  0  0
  148.6475  140.5587  156.1116 H   0  0  0  0  0  0  0  0  0  0  0  0
  148.2340  142.0579  155.2989 H   0  0  0  0  0  0  0  0  0  0  0  0
  150.6935  141.8130  154.2630 H   0  0  0  0  0  0  0  0  0  0  0  0
  149.4869  140.2266  152.7580 H   0  0  0  0  0  0  0  0  0  0  0  0
  149.5691  138.5120  153.3388 H   0  0  0  0  0  0  0  0  0  0  0  0
  150.8387  136.4329  153.9010 H   0  0  0  0  0  0  0  0  0  0  0  0
  153.1760  138.4137  156.6742 H   0  0  0  0  0  0  0  0  0  0  0  0
  152.0194  140.5879  156.2446 H   0  0  0  0  0  0  0  0  0  0  0  0
  150.8269  142.0500  156.4831 H   0  0  0  0  0  0  0  0  0  0  0  0
  1  2  1  0  0  0  0
  1 19  1  0  0  0  0
  1 20  1  0  0  0  0
  1 21  1  0  0  0  0
  2  7  1  0  0  0  0
  2  3  1  0  0  0  0
  2 22  1  0  0  0  0
  3  4  1  0  0  0  0
  3 23  1  0  0  0  0
  3 24  1  0  0  0  0
  4  5  1  0  0  0  0
  4 25  1  0  0  0  0
  4 26  1  0  0  0  0
  5  6  1  0  0  0  0
  5 27  1  0  0  0  0
  5 28  1  0  0  0  0
  6  7  1  0  0  0  0
  6 29  1  0  0  0  0
  6 30  1  0  0  0  0
  7  8  1  0  0  0  0
  7 31  1  0  0  0  0
  8  9  1  0  0  0  0
  8 32  1  0  0  0  0
  8 33  1  0  0  0  0
  9 10  1  0  0  0  0
  9 34  1  0  0  0  0
  9 43  1  0  0  0  0
 10 11  1  0  0  0  0
 10 35  1  0  0  0  0
 10 36  1  0  0  0  0
 11 12  1  0  0  0  0
 11 13  1  0  0  0  0
 11 37  1  0  0  0  0
 12 38  1  0  0  0  0
 13 18  1  0  0  0  0
 13 14  2  0  0  0  0
 14 15  1  0  0  0  0
 14 39  1  0  0  0  0
 15 16  2  0  0  0  0
 15 40  1  0  0  0  0
 16 17  1  0  0  0  0
 17 18  2  0  0  0  0
 17 41  1  0  0  0  0
 18 42  1  0  0  0  0
M  CHG  1   9   1
M  END
> <s_m_source_file>
AV-unprocessed.smi

> <i_m_source_file_index>
3290

> <i_lp_mmshare_version>
43012

> <i_f3d_flags>
0

> <s_epik_input>
W0NIM11bQ0BASF0xW0NIMl1bQ0gyXVtDSDJdW0NIMl1bQ0BIXTFbQ0gyXVtOSF1bQ0gyXVtDQEhdKFtPSF0pYzJbY0hdW2NIXW5bY0hdW2NIXTI=

> <s_epik_cmdline>
J2VwaWtfcHl0aG9uJywgJy1waCcsICc3LjAnLCAnLXRuJywgJzgnLCAnLW1hJywgJzIwMCcsICctbWV0YWxfYmluZGluZycsICctaW1hZScsICc8aW5maWxlLm1hZT4nLCAnLW9tYWUnLCAnPG91dGZpbGUubWFlPic=

> <r_lp_tautomer_probability>
1

> <r_epik_Ionization_Penalty>
0.00420552

> <r_epik_Ionization_Penalty_Charging>
0.00207255

> <r_epik_Ionization_Penalty_Neutral>
0.00213297

> <r_epik_State_Penalty>
-0

> <r_epik_Charging_Adjusted_Penalty>
0.00207255

> <i_epik_Tot_Q>
1

> <i_epik_Tot_abs_Q>
1

> <r_epik_Metal_State_Penalty>
-0

> <b_epik_Metal_Only>
0

> <s_lp_Force_Field>
OPLS_2005

> <r_lp_Energy>
17.7323

> <b_lp_Chiralities_Consistent>
1

> <s_lp_Variant>
AV-unprocessed.smi:3290-4

> <Gold.Version>
5.8.1

> <Gold.Id.Protein>
6NUR|6NUR_protein|mol2

> <Gold.PLP.Fitness>
49.5312

> <Gold.PLP.PLP>
-35.3526

> <Gold.PLP.part.hbond>
-4.3658

> <Gold.PLP.part.metal>
0.0000

> <Gold.PLP.part.buried>
1.3397

> <Gold.PLP.part.nonpolar>
-31.8579

> <Gold.PLP.part.repulsive>
0.0900

> <Gold.PLP.ligand.clash>
0.0000

> <Gold.PLP.ligand.torsion>
0.8952

> <Gold.PLP.Chemscore.Hbond>
4.3728

> <Gold.PLP.Chemscore.CHOScore>
0.9280

> <Gold.PLP.Chemscore.Metal>
0.0000

> <Gold.Chemscore.Hbonds>
donor molecule, donor type, donor heavy atom, donor atom, acceptor molecule, acceptor atom, score
      L1  H     9    34       P1  8028  2.00
      L1  H    12    38       P1  7957  0.66
      P1  H  8011  8017       L1    12  0.95
      P1  H 10752 10763       L1    16  0.73
      L1  C    15    40       P1  7948  0.10
      L1  C    15    40       P1  7949  0.75

> <Gold.PLP.Chemscore.Internal.Correction>
0.0667

> <Gold.Rescore>
     Score         DG    S(hbond)    S(metal)    S(lipo)     H(rot)  DE(clash)    DE(int)     intcor
     18.61     -21.40       2.12        0.00     120.36       2.05       2.08       0.71       ----

> <Gold.Chemscore.Fitness>
18.6052

> <Gold.Chemscore.DG>
-21.3982

> <Gold.Chemscore.ZeroCoef>
-5.4800

> <Gold.Chemscore.Hbond>
2.1208

> <Gold.Chemscore.Metal>
0.0000

> <Gold.Chemscore.Lipo>
120.3610

> <Gold.Chemscore.Internal_Hbond>
0.0000

> <Gold.Chemscore.DEClash>
2.0795

> <Gold.Chemscore.DEInternal>
0.7135

> <Gold.Chemscore.Rot>
2.0498

> <Gold.Chemscore.Internal.Correction>
   9.000000E+99

> <Gold.Chemscore.Hbonds>
donor molecule, donor type, donor heavy atom, donor atom, acceptor molecule, acceptor atom, score
      L1  H     9    34       P1  8028  0.97
      L1  H    12    38       P1  7957  0.63
      P1  H  8011  8017       L1    12  0.05
      P1  H 10752 10763       L1    16  0.25

> <Gold.Chemscore.Hbond.Weighted>
-7.0834

> <Gold.Chemscore.Metal.Weighted>
-0.0000

> <Gold.Chemscore.Lipo.Weighted>
-14.0822

> <Gold.Chemscore.Internal_Hbond.Weighted>
0.0000

> <Gold.Chemscore.DEClash.Weighted>
2.0795

> <Gold.Chemscore.DEInternal.Weighted>
0.7135

> <Gold.Chemscore.Rot.Weighted>
5.2475

> <Gold.Chemscore.Internal.Correction.Weighted>
   9.000000E+99

> <Gold.Protein.RotatedTorsions>
[ 6907 6896 6895 6894 ] final  -96.69 input  -60.11 | X-H torsion
[ 7974 7965 7964 7962 ] final   22.17 input  175.53 | X-H torsion
[ 8008 7997 7996 7995 ] final  -12.59 input   59.86 | X-H torsion
[ 10167 10162 10161 10158 ] final   57.15 input  -65.29 | X-H torsion
[ 10718 10713 10712 10709 ] final   50.50 input   66.30 | X-H torsion
[ 10763 10752 10751 10750 ] final   75.72 input  -60.55 | X-H torsion
[ 11005 11000 10999 10996 ] final   87.03 input  -57.11 | X-H torsion

> <Gold.Protein.ActiveResidues>
 VAL166  LYS551  ARG553  GLY616  TRP617  ASP618  TYR619  PRO620  LYS621  CYS622 
 ASP623  PHE694  ASN695  SER759  ASP760  ASP761  ALA762  ILE779  LEU786  VAL792 
 PHE793  MET794  SER795  GLU796  ALA797  LYS798  CYS799  TRP800  GLU811  SER814 

> <Gold.Protein.RotatedAtoms>
  150.6995  134.1464  159.4123 H   0  0  0  0  0  0  0  0  0  0  0  0  # atno 6907 bound_to 6896
  151.9447  135.0195  160.0547 H   0  0  0  0  0  0  0  0  0  0  0  0  # atno 6908 bound_to 6896
  152.2063  133.4843  159.5122 H   0  0  0  0  0  0  0  0  0  0  0  0  # atno 6909 bound_to 6896
  146.2040  139.7924  142.8740 H   0  0  0  0  0  0  0  0  0  0  0  0  # atno 7974 bound_to 7965
  154.5364  140.2272  155.8715 H   0  0  0  0  0  0  0  0  0  0  0  0  # atno 8008 bound_to 7997
  156.1815  140.3099  155.9121 H   0  0  0  0  0  0  0  0  0  0  0  0  # atno 8009 bound_to 7997
  155.3346  140.0447  157.3034 H   0  0  0  0  0  0  0  0  0  0  0  0  # atno 8010 bound_to 7997
  140.2010  144.3987  150.6529 H   0  0  0  0  0  0  0  0  0  0  0  0  # atno 10167 bound_to 10162
  157.4890  130.8364  149.8181 H   0  0  0  0  0  0  0  0  0  0  0  0  # atno 10718 bound_to 10713
  153.0675  135.4978  154.8231 H   0  0  0  0  0  0  0  0  0  0  0  0  # atno 10763 bound_to 10752
  154.6974  135.2995  154.9393 H   0  0  0  0  0  0  0  0  0  0  0  0  # atno 10764 bound_to 10752
  154.0128  135.6752  153.4819 H   0  0  0  0  0  0  0  0  0  0  0  0  # atno 10765 bound_to 10752
  139.8929  134.8395  156.2803 H   0  0  0  0  0  0  0  0  0  0  0  0  # atno 11005 bound_to 11000
  145.3384  141.0282  143.3406 LP  0  0  0  0  0  0  0  0  0  0  0  0  # atno 17320 bound_to 7965
  144.8749  139.4985  143.6750 LP  0  0  0  0  0  0  0  0  0  0  0  0  # atno 17321 bound_to 7965
  140.6390  143.2200  151.6332 LP  0  0  0  0  0  0  0  0  0  0  0  0  # atno 17342 bound_to 10162
  139.5217  144.3185  152.0931 LP  0  0  0  0  0  0  0  0  0  0  0  0  # atno 17343 bound_to 10162
  156.0163  130.3812  150.2101 LP  0  0  0  0  0  0  0  0  0  0  0  0  # atno 17370 bound_to 10713
  157.0289  131.0001  151.3318 LP  0  0  0  0  0  0  0  0  0  0  0  0  # atno 17371 bound_to 10713
  141.0043  133.7133  156.1010 LP  0  0  0  0  0  0  0  0  0  0  0  0  # atno 17394 bound_to 11000
  140.7455  134.4103  157.5549 LP  0  0  0  0  0  0  0  0  0  0  0  0  # atno 17395 bound_to 11000

$$$$
