AV-unprocessed.smi:1918|AV-procd|sdf|7769|dock6
  -GOLD-   22720 9513D 1   1.00000     0.00000
 Structure written by MMmdl.
 35 37  0  0  0  0  0  0  0  0  1 V2000
  151.6051  140.5284  156.7210 C   0  0  0  0  0  0  0  0  0  0  0  0
  151.8209  141.4112  157.9090 C   0  0  0  0  0  0  0  0  0  0  0  0
  151.5110  142.7080  157.8956 N   0  0  0  0  0  0  0  0  0  0  0  0
  151.8688  143.1182  159.1655 C   0  0  0  0  0  0  0  0  0  0  0  0
  151.7893  144.3897  159.7776 C   0  0  0  0  0  0  0  0  0  0  0  0
  152.2238  144.5703  161.1073 C   0  0  0  0  0  0  0  0  0  0  0  0
  152.7422  143.4848  161.8430 C   0  0  0  0  0  0  0  0  0  0  0  0
  152.8290  142.2094  161.2526 C   0  0  0  0  0  0  0  0  0  0  0  0
  152.3943  142.0348  159.9252 C   0  0  0  0  0  0  0  0  0  0  0  0
  152.3444  140.9406  159.0679 N   0  0  0  0  0  0  0  0  0  0  0  0
  152.7710  139.5844  159.3840 C   0  0  0  0  0  0  0  0  0  0  0  0
  154.2222  139.5244  159.9004 C   0  0  2  0  0  0  0  0  0  0  0  0
  155.1015  139.2179  158.8346 O   0  0  0  0  0  0  0  0  0  0  0  0
  154.3512  138.5482  161.0622 C   0  0  0  0  0  0  0  0  0  0  0  0
  153.9743  137.1953  160.9053 C   0  0  0  0  0  0  0  0  0  0  0  0
  154.0850  136.2954  161.9828 C   0  0  0  0  0  0  0  0  0  0  0  0
  154.5691  136.7423  163.2266 C   0  0  0  0  0  0  0  0  0  0  0  0
  154.6753  135.8773  164.2629 F   0  0  0  0  0  0  0  0  0  0  0  0
  154.9392  138.0902  163.3928 C   0  0  0  0  0  0  0  0  0  0  0  0
  154.8291  138.9923  162.3165 C   0  0  0  0  0  0  0  0  0  0  0  0
  155.1814  140.2880  162.4974 F   0  0  0  0  0  0  0  0  0  0  0  0
  151.2555  141.1118  155.8686 H   0  0  0  0  0  0  0  0  0  0  0  0
  150.8565  139.7689  156.9472 H   0  0  0  0  0  0  0  0  0  0  0  0
  152.5357  140.0357  156.4394 H   0  0  0  0  0  0  0  0  0  0  0  0
  151.3935  145.2274  159.2226 H   0  0  0  0  0  0  0  0  0  0  0  0
  152.1594  145.5468  161.5648 H   0  0  0  0  0  0  0  0  0  0  0  0
  153.0738  143.6318  162.8605 H   0  0  0  0  0  0  0  0  0  0  0  0
  153.2261  141.3754  161.8123 H   0  0  0  0  0  0  0  0  0  0  0  0
  152.0926  139.1914  160.1423 H   0  0  0  0  0  0  0  0  0  0  0  0
  152.6474  138.9464  158.5090 H   0  0  0  0  0  0  0  0  0  0  0  0
  154.5112  140.5156  160.2510 H   0  0  0  0  0  0  0  0  0  0  0  0
  155.9897  139.3320  159.1366 H   0  0  0  0  0  0  0  0  0  0  0  0
  153.5949  136.8416  159.9577 H   0  0  0  0  0  0  0  0  0  0  0  0
  153.7966  135.2623  161.8554 H   0  0  0  0  0  0  0  0  0  0  0  0
  155.3064  138.4342  164.3485 H   0  0  0  0  0  0  0  0  0  0  0  0
  1  2  1  0  0  0  0
  1 22  1  0  0  0  0
  1 23  1  0  0  0  0
  1 24  1  0  0  0  0
  2 10  1  0  0  0  0
  2  3  2  0  0  0  0
  3  4  1  0  0  0  0
  4  9  2  0  0  0  0
  4  5  1  0  0  0  0
  5  6  2  0  0  0  0
  5 25  1  0  0  0  0
  6  7  1  0  0  0  0
  6 26  1  0  0  0  0
  7  8  2  0  0  0  0
  7 27  1  0  0  0  0
  8  9  1  0  0  0  0
  8 28  1  0  0  0  0
  9 10  1  0  0  0  0
 10 11  1  0  0  0  0
 11 12  1  0  0  0  0
 11 29  1  0  0  0  0
 11 30  1  0  0  0  0
 12 13  1  0  0  0  0
 12 14  1  0  0  0  0
 12 31  1  0  0  0  0
 13 32  1  0  0  0  0
 14 20  1  0  0  0  0
 14 15  2  0  0  0  0
 15 16  1  0  0  0  0
 15 33  1  0  0  0  0
 16 17  2  0  0  0  0
 16 34  1  0  0  0  0
 17 18  1  0  0  0  0
 17 19  1  0  0  0  0
 19 20  2  0  0  0  0
 19 35  1  0  0  0  0
 20 21  1  0  0  0  0
M  END
> <s_m_source_file>
AV-unprocessed.smi

> <i_m_source_file_index>
1918

> <i_lp_mmshare_version>
43012

> <i_f3d_flags>
0

> <s_epik_input>
W2NIXTFbY0hdW2NIXVtjSF1jKGMxMiluKGMobjIpW0NIM10pW0NIMl1bQ0BIXShbT0hdKWMzW2NIXVtjSF1jKEYpW2NIXWMzRg==

> <s_epik_cmdline>
J2VwaWtfcHl0aG9uJywgJy1waCcsICc3LjAnLCAnLXRuJywgJzgnLCAnLW1hJywgJzIwMCcsICctbWV0YWxfYmluZGluZycsICctaW1hZScsICc8aW5maWxlLm1hZT4nLCAnLW9tYWUnLCAnPG91dGZpbGUubWFlPic=

> <r_epik_Ionization_Penalty>
0.129663

> <r_epik_Ionization_Penalty_Charging>
0

> <r_epik_Ionization_Penalty_Neutral>
0.129663

> <r_epik_State_Penalty>
0.119073

> <r_epik_Charging_Adjusted_Penalty>
0.119073

> <i_epik_Tot_Q>
0

> <i_epik_Tot_abs_Q>
0

> <r_epik_Metal_State_Penalty>
0.000131867

> <b_epik_Metal_Only>
0

> <s_lp_Force_Field>
OPLS_2005

> <r_lp_Energy>
11.5863

> <b_lp_Chiralities_Consistent>
1

> <s_lp_Variant>
AV-unprocessed.smi:1918-1

> <Gold.Version>
5.8.1

> <Gold.Id.Protein>
6NUR|6NUR_protein|mol2

> <Gold.PLP.Fitness>
49.0235

> <Gold.PLP.PLP>
-47.2138

> <Gold.PLP.part.hbond>
-1.0000

> <Gold.PLP.part.metal>
0.0000

> <Gold.PLP.part.buried>
-4.7268

> <Gold.PLP.part.nonpolar>
-40.8744

> <Gold.PLP.part.repulsive>
0.0502

> <Gold.PLP.ligand.clash>
0.0000

> <Gold.PLP.ligand.torsion>
0.6084

> <Gold.PLP.Chemscore.Hbond>
1.0000

> <Gold.PLP.Chemscore.CHOScore>
0.0000

> <Gold.PLP.Chemscore.Metal>
0.0000

> <Gold.Chemscore.Hbonds>
donor molecule, donor type, donor heavy atom, donor atom, acceptor molecule, acceptor atom, score
      P1  H  7997  8009       L1    13  0.90

> <Gold.PLP.Chemscore.Internal.Correction>
0.0265

> <Gold.Rescore>
     Score         DG    S(hbond)    S(metal)    S(lipo)     H(rot)  DE(clash)    DE(int)     intcor
     18.05     -18.67       0.95        0.00     126.81       1.88       0.15       0.47       ----

> <Gold.Chemscore.Fitness>
18.0541

> <Gold.Chemscore.DG>
-18.6745

> <Gold.Chemscore.ZeroCoef>
-5.4800

> <Gold.Chemscore.Hbond>
0.9524

> <Gold.Chemscore.Metal>
0.0000

> <Gold.Chemscore.Lipo>
126.8051

> <Gold.Chemscore.Internal_Hbond>
0.0000

> <Gold.Chemscore.DEClash>
0.1475

> <Gold.Chemscore.DEInternal>
0.4729

> <Gold.Chemscore.Rot>
1.8839

> <Gold.Chemscore.Internal.Correction>
   9.000000E+99

> <Gold.Chemscore.Hbonds>
donor molecule, donor type, donor heavy atom, donor atom, acceptor molecule, acceptor atom, score
      P1  H  7997  8009       L1    13  0.18

> <Gold.Chemscore.Hbond.Weighted>
-3.1810

> <Gold.Chemscore.Metal.Weighted>
-0.0000

> <Gold.Chemscore.Lipo.Weighted>
-14.8362

> <Gold.Chemscore.Internal_Hbond.Weighted>
0.0000

> <Gold.Chemscore.DEClash.Weighted>
0.1475

> <Gold.Chemscore.DEInternal.Weighted>
0.4729

> <Gold.Chemscore.Rot.Weighted>
4.8227

> <Gold.Chemscore.Internal.Correction.Weighted>
   9.000000E+99

> <Gold.Protein.RotatedTorsions>
[ 6907 6896 6895 6894 ] final  -96.72 input  -60.11 | X-H torsion
[ 7974 7965 7964 7962 ] final  -44.11 input  175.53 | X-H torsion
[ 8008 7997 7996 7995 ] final  112.06 input   59.86 | X-H torsion
[ 10167 10162 10161 10158 ] final  172.89 input  -65.29 | X-H torsion
[ 10718 10713 10712 10709 ] final  148.03 input   66.30 | X-H torsion
[ 10763 10752 10751 10750 ] final  167.62 input  -60.55 | X-H torsion
[ 11005 11000 10999 10996 ] final  168.30 input  -57.11 | X-H torsion

> <Gold.Protein.ActiveResidues>
 VAL166  LYS551  ARG553  GLY616  TRP617  ASP618  TYR619  PRO620  LYS621  CYS622 
 ASP623  PHE694  ASN695  SER759  ASP760  ASP761  ALA762  ILE779  LEU786  VAL792 
 PHE793  MET794  SER795  GLU796  ALA797  LYS798  CYS799  TRP800  GLU811  SER814 

> <Gold.Protein.RotatedAtoms>
  150.6996  134.1459  159.4122 H   0  0  0  0  0  0  0  0  0  0  0  0  # atno 6907 bound_to 6896
  151.9443  135.0197  160.0547 H   0  0  0  0  0  0  0  0  0  0  0  0  # atno 6908 bound_to 6896
  152.2067  133.4845  159.5124 H   0  0  0  0  0  0  0  0  0  0  0  0  # atno 6909 bound_to 6896
  145.9953  140.7136  142.9297 H   0  0  0  0  0  0  0  0  0  0  0  0  # atno 7974 bound_to 7965
  156.2166  140.3007  155.9855 H   0  0  0  0  0  0  0  0  0  0  0  0  # atno 8008 bound_to 7997
  155.2589  140.0429  157.3012 H   0  0  0  0  0  0  0  0  0  0  0  0  # atno 8009 bound_to 7997
  154.5777  140.2366  155.8106 H   0  0  0  0  0  0  0  0  0  0  0  0  # atno 8010 bound_to 7997
  139.5091  144.3322  152.0100 H   0  0  0  0  0  0  0  0  0  0  0  0  # atno 10167 bound_to 10162
  157.3137  131.0892  151.1296 H   0  0  0  0  0  0  0  0  0  0  0  0  # atno 10718 bound_to 10713
  154.3565  135.2753  155.2343 H   0  0  0  0  0  0  0  0  0  0  0  0  # atno 10763 bound_to 10752
  154.4550  135.5921  153.6221 H   0  0  0  0  0  0  0  0  0  0  0  0  # atno 10764 bound_to 10752
  152.9846  135.6051  154.3781 H   0  0  0  0  0  0  0  0  0  0  0  0  # atno 10765 bound_to 10752
  140.2858  134.7713  157.3797 H   0  0  0  0  0  0  0  0  0  0  0  0  # atno 11005 bound_to 11000
  144.6901  140.3139  143.7243 LP  0  0  0  0  0  0  0  0  0  0  0  0  # atno 17320 bound_to 7965
  145.7570  139.1812  143.2289 LP  0  0  0  0  0  0  0  0  0  0  0  0  # atno 17321 bound_to 7965
  140.2762  144.3910  150.6134 LP  0  0  0  0  0  0  0  0  0  0  0  0  # atno 17342 bound_to 10162
  140.6052  143.2167  151.6994 LP  0  0  0  0  0  0  0  0  0  0  0  0  # atno 17343 bound_to 10162
  157.2608  130.6658  149.5974 LP  0  0  0  0  0  0  0  0  0  0  0  0  # atno 17370 bound_to 10713
  155.9680  130.4509  150.5715 LP  0  0  0  0  0  0  0  0  0  0  0  0  # atno 17371 bound_to 10713
  140.1241  134.5181  155.8159 LP  0  0  0  0  0  0  0  0  0  0  0  0  # atno 17394 bound_to 11000
  141.2155  133.6766  156.6919 LP  0  0  0  0  0  0  0  0  0  0  0  0  # atno 17395 bound_to 11000

$$$$
