AV-unprocessed.smi:2237|AV-procd|sdf|9052|dock1
  -GOLD-   2272012253D 1   1.00000     0.00000
 Structure written by MMmdl.
 54 56  0  0  0  0  0  0  0  0  2 V2000
  152.3632  144.9106  158.4024 C   0  0  0  0  0  0  0  0  0  0  0  0
  152.0453  143.4335  158.2995 C   0  0  0  0  0  0  0  0  0  0  0  0
  152.5203  142.5215  159.2623 C   0  0  0  0  0  0  0  0  0  0  0  0
  152.1887  141.1634  159.1090 C   0  0  0  0  0  0  0  0  0  0  0  0
  151.4022  140.7760  158.0070 C   0  0  0  0  0  0  0  0  0  0  0  0
  150.9677  141.7546  157.0848 C   0  0  0  0  0  0  0  0  0  0  0  0
  150.1790  141.2625  156.0111 N   0  0  0  0  0  0  0  0  0  0  0  0
  149.2193  140.3211  156.0486 C   0  0  0  0  0  0  0  0  0  0  0  0
  148.8401  139.7273  157.0586 O   0  0  0  0  0  0  0  0  0  0  0  0
  148.7069  140.1012  154.8287 N   0  0  0  0  0  0  0  0  0  0  0  0
  147.6545  139.1369  154.5219 C   0  0  2  0  0  0  0  0  0  0  0  0
  148.1429  137.7157  154.8287 C   0  0  0  0  0  0  0  0  0  0  0  0
  147.0950  136.6595  154.4367 C   0  0  0  0  0  0  0  0  0  0  0  0
  146.7079  136.7686  152.9996 N   0  3  1  0  0  0  0  0  0  0  0  0
  145.7741  135.7044  152.5048 C   0  0  0  0  0  0  0  0  0  0  0  0
  146.3185  134.2622  152.6487 C   0  0  0  0  0  0  0  0  0  0  0  0
  145.3647  133.2247  152.0313 C   0  0  0  0  0  0  0  0  0  0  0  0
  145.1596  133.5118  150.6137 N   0  0  0  0  0  0  0  0  0  0  0  0
  144.3084  132.4838  150.0314 C   0  0  0  0  0  0  0  0  0  0  0  0
  144.5161  134.8147  150.4649 C   0  0  0  0  0  0  0  0  0  0  0  0
  145.4325  135.9221  151.0127 C   0  0  0  0  0  0  0  0  0  0  0  0
  146.2094  138.1410  152.6952 C   0  0  0  0  0  0  0  0  0  0  0  0
  147.2488  139.2186  153.0423 C   0  0  0  0  0  0  0  0  0  0  0  0
  151.2928  143.0620  157.2414 N   0  0  0  0  0  0  0  0  0  0  0  0
  152.7747  145.1579  159.3813 H   0  0  0  0  0  0  0  0  0  0  0  0
  151.4628  145.5075  158.2532 H   0  0  0  0  0  0  0  0  0  0  0  0
  153.0927  145.1926  157.6428 H   0  0  0  0  0  0  0  0  0  0  0  0
  153.1226  142.8507  160.0963 H   0  0  0  0  0  0  0  0  0  0  0  0
  152.5313  140.4301  159.8240 H   0  0  0  0  0  0  0  0  0  0  0  0
  151.1385  139.7365  157.8758 H   0  0  0  0  0  0  0  0  0  0  0  0
  150.3739  141.6704  155.1088 H   0  0  0  0  0  0  0  0  0  0  0  0
  149.0759  140.6358  154.0557 H   0  0  0  0  0  0  0  0  0  0  0  0
  146.7827  139.3442  155.1461 H   0  0  0  0  0  0  0  0  0  0  0  0
  149.0710  137.5183  154.2898 H   0  0  0  0  0  0  0  0  0  0  0  0
  148.3773  137.6232  155.8900 H   0  0  0  0  0  0  0  0  0  0  0  0
  147.5392  135.6879  154.6482 H   0  0  0  0  0  0  0  0  0  0  0  0
  146.2070  136.7539  155.0639 H   0  0  0  0  0  0  0  0  0  0  0  0
  144.8548  135.7635  153.0902 H   0  0  0  0  0  0  0  0  0  0  0  0
  147.2977  134.1789  152.1745 H   0  0  0  0  0  0  0  0  0  0  0  0
  146.4498  134.0020  153.6992 H   0  0  0  0  0  0  0  0  0  0  0  0
  145.7937  132.2278  152.1417 H   0  0  0  0  0  0  0  0  0  0  0  0
  144.4100  133.2229  152.5603 H   0  0  0  0  0  0  0  0  0  0  0  0
  144.1508  132.6740  148.9692 H   0  0  0  0  0  0  0  0  0  0  0  0
  143.3335  132.4478  150.5200 H   0  0  0  0  0  0  0  0  0  0  0  0
  144.7744  131.5022  150.1259 H   0  0  0  0  0  0  0  0  0  0  0  0
  144.3140  135.0013  149.4092 H   0  0  0  0  0  0  0  0  0  0  0  0
  143.5550  134.8257  150.9822 H   0  0  0  0  0  0  0  0  0  0  0  0
  144.9336  136.8766  150.8546 H   0  0  0  0  0  0  0  0  0  0  0  0
  146.3509  135.9563  150.4242 H   0  0  0  0  0  0  0  0  0  0  0  0
  145.9596  138.2426  151.6410 H   0  0  0  0  0  0  0  0  0  0  0  0
  145.2880  138.3235  153.2508 H   0  0  0  0  0  0  0  0  0  0  0  0
  146.8393  140.2045  152.8184 H   0  0  0  0  0  0  0  0  0  0  0  0
  148.1267  139.0967  152.4059 H   0  0  0  0  0  0  0  0  0  0  0  0
  147.5647  136.6475  152.4784 H   0  0  0  0  0  0  0  0  0  0  0  0
  1  2  1  0  0  0  0
  1 25  1  0  0  0  0
  1 26  1  0  0  0  0
  1 27  1  0  0  0  0
  2 24  1  0  0  0  0
  2  3  2  0  0  0  0
  3  4  1  0  0  0  0
  3 28  1  0  0  0  0
  4  5  2  0  0  0  0
  4 29  1  0  0  0  0
  5  6  1  0  0  0  0
  5 30  1  0  0  0  0
  6  7  1  0  0  0  0
  6 24  2  0  0  0  0
  7  8  1  0  0  0  0
  7 31  1  0  0  0  0
  8  9  2  0  0  0  0
  8 10  1  0  0  0  0
 10 11  1  0  0  0  0
 10 32  1  0  0  0  0
 11 23  1  0  0  0  0
 11 12  1  0  0  0  0
 11 33  1  0  0  0  0
 12 13  1  0  0  0  0
 12 34  1  0  0  0  0
 12 35  1  0  0  0  0
 13 14  1  0  0  0  0
 13 36  1  0  0  0  0
 13 37  1  0  0  0  0
 14 15  1  0  0  0  0
 14 22  1  0  0  0  0
 14 54  1  0  0  0  0
 15 21  1  0  0  0  0
 15 16  1  0  0  0  0
 15 38  1  0  0  0  0
 16 17  1  0  0  0  0
 16 39  1  0  0  0  0
 16 40  1  0  0  0  0
 17 18  1  0  0  0  0
 17 41  1  0  0  0  0
 17 42  1  0  0  0  0
 18 19  1  0  0  0  0
 18 20  1  0  0  0  0
 19 43  1  0  0  0  0
 19 44  1  0  0  0  0
 19 45  1  0  0  0  0
 20 21  1  0  0  0  0
 20 46  1  0  0  0  0
 20 47  1  0  0  0  0
 21 48  1  0  0  0  0
 21 49  1  0  0  0  0
 22 23  1  0  0  0  0
 22 50  1  0  0  0  0
 22 51  1  0  0  0  0
 23 52  1  0  0  0  0
 23 53  1  0  0  0  0
M  CHG  1  14   1
M  END
> <s_m_source_file>
AV-unprocessed.smi

> <i_m_source_file_index>
2237

> <i_lp_mmshare_version>
43012

> <i_f3d_flags>
0

> <s_epik_input>
W0NIM11jMVtjSF1bY0hdW2NIXWMobjEpW05IXUMoPU8pW05IXVtDSF0yW0NIMl1bQ0gyXU4oW0NIMl1bQ0gyXTIpW0NIXTNbQ0gyXVtDSDJdTihbQ0gzXSlbQ0gyXVtDSDJdMw==

> <s_epik_cmdline>
J2VwaWtfcHl0aG9uJywgJy1waCcsICc3LjAnLCAnLXRuJywgJzgnLCAnLW1hJywgJzIwMCcsICctbWV0YWxfYmluZGluZycsICctaW1hZScsICc8aW5maWxlLm1hZT4nLCAnLW9tYWUnLCAnPG91dGZpbGUubWFlPic=

> <r_epik_Ionization_Penalty>
1.37251

> <r_epik_Ionization_Penalty_Charging>
0.00081195

> <r_epik_Ionization_Penalty_Neutral>
1.3717

> <r_epik_State_Penalty>
1.55149

> <r_epik_Charging_Adjusted_Penalty>
1.5523

> <i_epik_Tot_Q>
1

> <i_epik_Tot_abs_Q>
1

> <r_epik_Metal_State_Penalty>
1.55149

> <b_epik_Metal_Only>
0

> <s_lp_Force_Field>
OPLS_2005

> <r_lp_Energy>
32.6589

> <b_lp_Chiralities_Consistent>
1

> <s_lp_Variant>
AV-unprocessed.smi:2237-7

> <Gold.Version>
5.8.1

> <Gold.Id.Protein>
6NUR|6NUR_protein|mol2

> <Gold.PLP.Fitness>
44.9906

> <Gold.PLP.PLP>
-39.6620

> <Gold.PLP.part.hbond>
-1.0000

> <Gold.PLP.part.metal>
0.0000

> <Gold.PLP.part.buried>
-4.8840

> <Gold.PLP.part.nonpolar>
-34.1793

> <Gold.PLP.part.repulsive>
0.4456

> <Gold.PLP.ligand.clash>
0.0000

> <Gold.PLP.ligand.torsion>
0.3526

> <Gold.PLP.Chemscore.Hbond>
2.0000

> <Gold.PLP.Chemscore.CHOScore>
0.0000

> <Gold.PLP.Chemscore.Metal>
0.0000

> <Gold.Chemscore.Hbonds>
donor molecule, donor type, donor heavy atom, donor atom, acceptor molecule, acceptor atom, score
      L1  H    14    54       P1  7948  2.00

> <Gold.PLP.Chemscore.Internal.Correction>
0.0337

> <Gold.Rescore>
     Score         DG    S(hbond)    S(metal)    S(lipo)     H(rot)  DE(clash)    DE(int)     intcor
     16.70     -18.38       0.99        0.00     108.45       1.21       0.09       1.58       ----

> <Gold.Chemscore.Fitness>
16.7039

> <Gold.Chemscore.DG>
-18.3800

> <Gold.Chemscore.ZeroCoef>
-5.4800

> <Gold.Chemscore.Hbond>
0.9916

> <Gold.Chemscore.Metal>
0.0000

> <Gold.Chemscore.Lipo>
108.4526

> <Gold.Chemscore.Internal_Hbond>
0.0000

> <Gold.Chemscore.DEClash>
0.0939

> <Gold.Chemscore.DEInternal>
1.5821

> <Gold.Chemscore.Rot>
1.2113

> <Gold.Chemscore.Internal.Correction>
   9.000000E+99

> <Gold.Chemscore.Hbonds>
donor molecule, donor type, donor heavy atom, donor atom, acceptor molecule, acceptor atom, score
      L1  H    14    54       P1  7948  0.97

> <Gold.Chemscore.Hbond.Weighted>
-3.3119

> <Gold.Chemscore.Metal.Weighted>
-0.0000

> <Gold.Chemscore.Lipo.Weighted>
-12.6890

> <Gold.Chemscore.Internal_Hbond.Weighted>
0.0000

> <Gold.Chemscore.DEClash.Weighted>
0.0939

> <Gold.Chemscore.DEInternal.Weighted>
1.5821

> <Gold.Chemscore.Rot.Weighted>
3.1009

> <Gold.Chemscore.Internal.Correction.Weighted>
   9.000000E+99

> <Gold.Protein.RotatedTorsions>
[ 6907 6896 6895 6894 ] final   51.78 input  -60.11 | X-H torsion
[ 7974 7965 7964 7962 ] final  -94.13 input  175.53 | X-H torsion
[ 8008 7997 7996 7995 ] final  122.35 input   59.86 | X-H torsion
[ 10167 10162 10161 10158 ] final   -3.21 input  -65.29 | X-H torsion
[ 10718 10713 10712 10709 ] final   22.96 input   66.30 | X-H torsion
[ 10763 10752 10751 10750 ] final   52.85 input  -60.55 | X-H torsion
[ 11005 11000 10999 10996 ] final -122.07 input  -57.11 | X-H torsion

> <Gold.Protein.ActiveResidues>
 VAL166  LYS551  ARG553  GLY616  TRP617  ASP618  TYR619  PRO620  LYS621  CYS622 
 ASP623  PHE694  ASN695  SER759  ASP760  ASP761  ALA762  ILE779  LEU786  VAL792 
 PHE793  MET794  SER795  GLU796  ALA797  LYS798  CYS799  TRP800  GLU811  SER814 

> <Gold.Protein.RotatedAtoms>
  152.3163  134.7435  160.0324 H   0  0  0  0  0  0  0  0  0  0  0  0  # atno 6907 bound_to 6896
  151.7899  133.3353  159.3504 H   0  0  0  0  0  0  0  0  0  0  0  0  # atno 6908 bound_to 6896
  150.7346  134.5783  159.5970 H   0  0  0  0  0  0  0  0  0  0  0  0  # atno 6909 bound_to 6896
  145.3774  140.9513  143.2413 H   0  0  0  0  0  0  0  0  0  0  0  0  # atno 7974 bound_to 7965
  156.2724  140.2788  156.1453 H   0  0  0  0  0  0  0  0  0  0  0  0  # atno 8008 bound_to 7997
  155.0910  140.0388  157.2686 H   0  0  0  0  0  0  0  0  0  0  0  0  # atno 8009 bound_to 7997
  154.6889  140.2625  155.6838 H   0  0  0  0  0  0  0  0  0  0  0  0  # atno 8010 bound_to 7997
  140.6881  143.6566  150.8303 H   0  0  0  0  0  0  0  0  0  0  0  0  # atno 10167 bound_to 10162
  157.1595  130.6710  149.6039 H   0  0  0  0  0  0  0  0  0  0  0  0  # atno 10718 bound_to 10713
  152.9791  135.5799  154.4645 H   0  0  0  0  0  0  0  0  0  0  0  0  # atno 10763 bound_to 10752
  154.4217  135.2772  155.1973 H   0  0  0  0  0  0  0  0  0  0  0  0  # atno 10764 bound_to 10752
  154.3719  135.6166  153.5798 H   0  0  0  0  0  0  0  0  0  0  0  0  # atno 10765 bound_to 10752
  141.0023  134.0385  157.3522 H   0  0  0  0  0  0  0  0  0  0  0  0  # atno 11005 bound_to 11000
  144.8532  139.5289  143.6846 LP  0  0  0  0  0  0  0  0  0  0  0  0  # atno 17320 bound_to 7965
  146.2858  139.6999  142.9197 LP  0  0  0  0  0  0  0  0  0  0  0  0  # atno 17321 bound_to 7965
  140.0276  143.5477  152.2774 LP  0  0  0  0  0  0  0  0  0  0  0  0  # atno 17342 bound_to 10162
  139.6258  144.7637  151.2642 LP  0  0  0  0  0  0  0  0  0  0  0  0  # atno 17343 bound_to 10162
  155.9756  130.4716  150.6472 LP  0  0  0  0  0  0  0  0  0  0  0  0  # atno 17370 bound_to 10713
  157.4146  131.0828  151.1189 LP  0  0  0  0  0  0  0  0  0  0  0  0  # atno 17371 bound_to 10713
  139.9045  135.0175  156.7422 LP  0  0  0  0  0  0  0  0  0  0  0  0  # atno 17394 bound_to 11000
  140.6870  133.9424  155.7943 LP  0  0  0  0  0  0  0  0  0  0  0  0  # atno 17395 bound_to 11000

$$$$
