AV-unprocessed.smi:2336|AV-procd|sdf|9332|dock1
  -GOLD-   2272012553D 1   1.00000     0.00000
 Structure written by MMmdl.
 49 50  0  0  0  0  0  0  0  0  1 V2000
  145.1843  140.7339  155.3080 C   0  0  0  0  0  0  0  0  0  0  0  0
  146.6338  140.8463  154.8021 C   0  0  0  0  0  0  0  0  0  0  0  0
  146.7934  142.0758  153.8877 C   0  0  0  0  0  0  0  0  0  0  0  0
  147.1983  139.5094  154.2087 C   0  0  1  0  0  0  0  0  0  0  0  0
  146.5603  139.1791  152.8271 C   0  0  0  0  0  0  0  0  0  0  0  0
  146.8176  137.8023  152.4151 N   0  0  0  0  0  0  0  0  0  0  0  0
  145.8856  136.8736  152.1647 C   0  0  0  0  0  0  0  0  0  0  0  0
  144.6769  137.0695  152.2898 O   0  0  0  0  0  0  0  0  0  0  0  0
  146.4530  135.7189  151.7773 N   0  0  0  0  0  0  0  0  0  0  0  0
  145.8287  134.5111  151.3626 C   0  0  0  0  0  0  0  0  0  0  0  0
  144.5901  134.4492  150.6788 C   0  0  0  0  0  0  0  0  0  0  0  0
  144.0912  133.1865  150.3004 C   0  0  0  0  0  0  0  0  0  0  0  0
  144.7355  132.0266  150.5487 N   0  0  0  0  0  0  0  0  0  0  0  0
  145.9214  132.0907  151.1898 C   0  0  0  0  0  0  0  0  0  0  0  0
  146.5092  133.3004  151.6107 C   0  0  0  0  0  0  0  0  0  0  0  0
  147.7067  133.2942  152.2452 F   0  0  0  0  0  0  0  0  0  0  0  0
  148.6817  139.4154  154.2039 N   0  0  0  0  0  0  0  0  0  0  0  0
  149.1582  138.0355  154.3976 C   0  0  0  0  0  0  0  0  0  0  0  0
  150.6941  137.9337  154.3675 C   0  0  0  0  0  0  0  0  0  0  0  0
  151.3027  138.7654  155.3992 N   0  0  0  0  0  0  0  0  0  0  0  0
  152.7538  138.6634  155.3818 C   0  0  0  0  0  0  0  0  0  0  0  0
  150.8589  140.1407  155.2044 C   0  0  0  0  0  0  0  0  0  0  0  0
  149.3230  140.2487  155.2342 C   0  0  0  0  0  0  0  0  0  0  0  0
  144.4644  140.6925  154.4909 H   0  0  0  0  0  0  0  0  0  0  0  0
  144.9211  141.5991  155.9172 H   0  0  0  0  0  0  0  0  0  0  0  0
  145.0484  139.8466  155.9268 H   0  0  0  0  0  0  0  0  0  0  0  0
  147.1956  141.0591  155.7098 H   0  0  0  0  0  0  0  0  0  0  0  0
  146.1260  142.0336  153.0282 H   0  0  0  0  0  0  0  0  0  0  0  0
  147.8135  142.1751  153.5171 H   0  0  0  0  0  0  0  0  0  0  0  0
  146.5557  142.9912  154.4301 H   0  0  0  0  0  0  0  0  0  0  0  0
  146.8384  138.7304  154.8830 H   0  0  0  0  0  0  0  0  0  0  0  0
  145.4805  139.3196  152.8639 H   0  0  0  0  0  0  0  0  0  0  0  0
  146.8866  139.8855  152.0656 H   0  0  0  0  0  0  0  0  0  0  0  0
  147.7867  137.5495  152.2859 H   0  0  0  0  0  0  0  0  0  0  0  0
  147.4616  135.6882  151.8117 H   0  0  0  0  0  0  0  0  0  0  0  0
  144.0245  135.3325  150.4267 H   0  0  0  0  0  0  0  0  0  0  0  0
  143.1501  133.1072  149.7764 H   0  0  0  0  0  0  0  0  0  0  0  0
  146.4191  131.1495  151.3707 H   0  0  0  0  0  0  0  0  0  0  0  0
  148.7822  137.6397  155.3425 H   0  0  0  0  0  0  0  0  0  0  0  0
  148.7814  137.3834  153.6121 H   0  0  0  0  0  0  0  0  0  0  0  0
  150.9890  136.8940  154.5126 H   0  0  0  0  0  0  0  0  0  0  0  0
  151.0614  138.2276  153.3827 H   0  0  0  0  0  0  0  0  0  0  0  0
  153.1934  139.2781  156.1679 H   0  0  0  0  0  0  0  0  0  0  0  0
  153.1615  138.9926  154.4249 H   0  0  0  0  0  0  0  0  0  0  0  0
  153.0702  137.6335  155.5497 H   0  0  0  0  0  0  0  0  0  0  0  0
  151.2792  140.7765  155.9843 H   0  0  0  0  0  0  0  0  0  0  0  0
  151.2334  140.5246  154.2539 H   0  0  0  0  0  0  0  0  0  0  0  0
  149.0849  141.2993  155.0818 H   0  0  0  0  0  0  0  0  0  0  0  0
  148.9506  139.9765  156.2230 H   0  0  0  0  0  0  0  0  0  0  0  0
  1  2  1  0  0  0  0
  1 24  1  0  0  0  0
  1 25  1  0  0  0  0
  1 26  1  0  0  0  0
  2  3  1  0  0  0  0
  2  4  1  0  0  0  0
  2 27  1  0  0  0  0
  3 28  1  0  0  0  0
  3 29  1  0  0  0  0
  3 30  1  0  0  0  0
  4  5  1  0  0  0  0
  4 17  1  0  0  0  0
  4 31  1  0  0  0  0
  5  6  1  0  0  0  0
  5 32  1  0  0  0  0
  5 33  1  0  0  0  0
  6  7  1  0  0  0  0
  6 34  1  0  0  0  0
  7  8  2  0  0  0  0
  7  9  1  0  0  0  0
  9 10  1  0  0  0  0
  9 35  1  0  0  0  0
 10 15  1  0  0  0  0
 10 11  2  0  0  0  0
 11 12  1  0  0  0  0
 11 36  1  0  0  0  0
 12 13  2  0  0  0  0
 12 37  1  0  0  0  0
 13 14  1  0  0  0  0
 14 15  2  0  0  0  0
 14 38  1  0  0  0  0
 15 16  1  0  0  0  0
 17 23  1  0  0  0  0
 17 18  1  0  0  0  0
 18 19  1  0  0  0  0
 18 39  1  0  0  0  0
 18 40  1  0  0  0  0
 19 20  1  0  0  0  0
 19 41  1  0  0  0  0
 19 42  1  0  0  0  0
 20 21  1  0  0  0  0
 20 22  1  0  0  0  0
 21 43  1  0  0  0  0
 21 44  1  0  0  0  0
 21 45  1  0  0  0  0
 22 23  1  0  0  0  0
 22 46  1  0  0  0  0
 22 47  1  0  0  0  0
 23 48  1  0  0  0  0
 23 49  1  0  0  0  0
M  END
> <s_m_source_file>
AV-unprocessed.smi

> <i_m_source_file_index>
2336

> <i_lp_mmshare_version>
43012

> <i_f3d_flags>
0

> <s_epik_input>
W0NIMl0xW0NIMl1OKFtDSDNdKVtDSDJdW0NIMl1OMVtDQEhdKFtDSF0oW0NIM10pW0NIM10pW0NIMl1bTkhdQyg9TylbTkhdYzJbY0hdW2NIXW5bY0hdYzJG

> <s_epik_cmdline>
J2VwaWtfcHl0aG9uJywgJy1waCcsICc3LjAnLCAnLXRuJywgJzgnLCAnLW1hJywgJzIwMCcsICctbWV0YWxfYmluZGluZycsICctaW1hZScsICc8aW5maWxlLm1hZT4nLCAnLW9tYWUnLCAnPG91dGZpbGUubWFlPic=

> <r_epik_Ionization_Penalty>
2.58102

> <r_epik_Ionization_Penalty_Charging>
0

> <r_epik_Ionization_Penalty_Neutral>
2.58102

> <r_epik_State_Penalty>
2.00874

> <r_epik_Charging_Adjusted_Penalty>
2.00874

> <i_epik_Tot_Q>
0

> <i_epik_Tot_abs_Q>
0

> <r_epik_Metal_State_Penalty>
2.00867

> <b_epik_Metal_Only>
0

> <s_lp_Force_Field>
OPLS_2005

> <r_lp_Energy>
52.4608

> <b_lp_Chiralities_Consistent>
1

> <s_lp_Variant>
AV-unprocessed.smi:2336-6

> <Gold.Version>
5.8.1

> <Gold.Id.Protein>
6NUR|6NUR_protein|mol2

> <Gold.PLP.Fitness>
44.2232

> <Gold.PLP.PLP>
-36.5763

> <Gold.PLP.part.hbond>
-1.8779

> <Gold.PLP.part.metal>
0.0000

> <Gold.PLP.part.buried>
-2.3520

> <Gold.PLP.part.nonpolar>
-33.2434

> <Gold.PLP.part.repulsive>
1.3482

> <Gold.PLP.ligand.clash>
0.0000

> <Gold.PLP.ligand.torsion>
1.1671

> <Gold.PLP.Chemscore.Hbond>
1.9193

> <Gold.PLP.Chemscore.CHOScore>
1.2573

> <Gold.PLP.Chemscore.Metal>
0.0000

> <Gold.Chemscore.Hbonds>
donor molecule, donor type, donor heavy atom, donor atom, acceptor molecule, acceptor atom, score
      L1  H     6    34       P1  7948  0.93
      L1  H     9    35       P1  7948  1.00
      L1  C    12    37       P1 10186  1.00
      L1  C    14    38       P1 10747  0.25

> <Gold.PLP.Chemscore.Internal.Correction>
0.4514

> <Gold.Rescore>
     Score         DG    S(hbond)    S(metal)    S(lipo)     H(rot)  DE(clash)    DE(int)     intcor
     16.40     -17.75       1.92        0.00      85.62       1.63       0.05       1.31       ----

> <Gold.Chemscore.Fitness>
16.3974

> <Gold.Chemscore.DG>
-17.7535

> <Gold.Chemscore.ZeroCoef>
-5.4800

> <Gold.Chemscore.Hbond>
1.9229

> <Gold.Chemscore.Metal>
0.0000

> <Gold.Chemscore.Lipo>
85.6232

> <Gold.Chemscore.Internal_Hbond>
0.0000

> <Gold.Chemscore.DEClash>
0.0460

> <Gold.Chemscore.DEInternal>
1.3101

> <Gold.Chemscore.Rot>
1.6277

> <Gold.Chemscore.Internal.Correction>
   9.000000E+99

> <Gold.Chemscore.Hbonds>
donor molecule, donor type, donor heavy atom, donor atom, acceptor molecule, acceptor atom, score
      L1  H     6    34       P1  7948  0.91
      L1  H     9    35       P1  7948  0.95

> <Gold.Chemscore.Hbond.Weighted>
-6.4225

> <Gold.Chemscore.Metal.Weighted>
-0.0000

> <Gold.Chemscore.Lipo.Weighted>
-10.0179

> <Gold.Chemscore.Internal_Hbond.Weighted>
0.0000

> <Gold.Chemscore.DEClash.Weighted>
0.0460

> <Gold.Chemscore.DEInternal.Weighted>
1.3101

> <Gold.Chemscore.Rot.Weighted>
4.1670

> <Gold.Chemscore.Internal.Correction.Weighted>
   9.000000E+99

> <Gold.Protein.RotatedTorsions>
[ 6907 6896 6895 6894 ] final  151.68 input  -60.11 | X-H torsion
[ 7974 7965 7964 7962 ] final  112.22 input  175.53 | X-H torsion
[ 8008 7997 7996 7995 ] final  116.82 input   59.86 | X-H torsion
[ 10167 10162 10161 10158 ] final -147.80 input  -65.29 | X-H torsion
[ 10718 10713 10712 10709 ] final   91.76 input   66.30 | X-H torsion
[ 10763 10752 10751 10750 ] final -141.88 input  -60.55 | X-H torsion
[ 11005 11000 10999 10996 ] final  153.61 input  -57.11 | X-H torsion

> <Gold.Protein.ActiveResidues>
 VAL166  LYS551  ARG553  GLY616  TRP617  ASP618  TYR619  PRO620  LYS621  CYS622 
 ASP623  PHE694  ASN695  SER759  ASP760  ASP761  ALA762  ILE779  LEU786  VAL792 
 PHE793  MET794  SER795  GLU796  ALA797  LYS798  CYS799  TRP800  GLU811  SER814 

> <Gold.Protein.RotatedAtoms>
  152.0973  133.4231  159.4570 H   0  0  0  0  0  0  0  0  0  0  0  0  # atno 6907 bound_to 6896
  150.6863  134.2802  159.4633 H   0  0  0  0  0  0  0  0  0  0  0  0  # atno 6908 bound_to 6896
  152.0659  134.9564  160.0625 H   0  0  0  0  0  0  0  0  0  0  0  0  # atno 6909 bound_to 6896
  145.2324  139.2814  143.4161 H   0  0  0  0  0  0  0  0  0  0  0  0  # atno 7974 bound_to 7965
  156.2460  140.2909  156.0582 H   0  0  0  0  0  0  0  0  0  0  0  0  # atno 8008 bound_to 7997
  155.1805  140.0404  157.2898 H   0  0  0  0  0  0  0  0  0  0  0  0  # atno 8009 bound_to 7997
  154.6263  140.2488  155.7495 H   0  0  0  0  0  0  0  0  0  0  0  0  # atno 8010 bound_to 7997
  139.7589  143.8407  152.2603 H   0  0  0  0  0  0  0  0  0  0  0  0  # atno 10167 bound_to 10162
  157.6960  131.0419  150.3778 H   0  0  0  0  0  0  0  0  0  0  0  0  # atno 10718 bound_to 10713
  154.8529  135.3512  154.5938 H   0  0  0  0  0  0  0  0  0  0  0  0  # atno 10763 bound_to 10752
  153.6548  135.6992  153.5201 H   0  0  0  0  0  0  0  0  0  0  0  0  # atno 10764 bound_to 10752
  153.2865  135.4247  155.1085 H   0  0  0  0  0  0  0  0  0  0  0  0  # atno 10765 bound_to 10752
  140.1413  134.8737  157.2335 H   0  0  0  0  0  0  0  0  0  0  0  0  # atno 11005 bound_to 11000
  146.3350  140.2662  142.8604 LP  0  0  0  0  0  0  0  0  0  0  0  0  # atno 17320 bound_to 7965
  144.9665  140.8326  143.5482 LP  0  0  0  0  0  0  0  0  0  0  0  0  # atno 17321 bound_to 7965
  139.8407  144.7211  150.9335 LP  0  0  0  0  0  0  0  0  0  0  0  0  # atno 17342 bound_to 10162
  140.7805  143.3986  151.1187 LP  0  0  0  0  0  0  0  0  0  0  0  0  # atno 17343 bound_to 10162
  156.4196  130.3950  149.6834 LP  0  0  0  0  0  0  0  0  0  0  0  0  # atno 17370 bound_to 10713
  156.4090  130.7712  151.2724 LP  0  0  0  0  0  0  0  0  0  0  0  0  # atno 17371 bound_to 10713
  140.2718  134.3451  155.7371 LP  0  0  0  0  0  0  0  0  0  0  0  0  # atno 17394 bound_to 11000
  141.2186  133.7428  156.9235 LP  0  0  0  0  0  0  0  0  0  0  0  0  # atno 17395 bound_to 11000

$$$$
