AV-unprocessed.smi:2761|AV-procd|sdf|10635|dock5
  -GOLD-   2272015 83D 1   1.00000     0.00000
 Structure written by MMmdl.
 26 27  0  0  0  0  0  0  0  0  2 V2000
  154.0657  140.2359  160.9841 O   0  0  0  0  0  0  0  0  0  0  0  0
  153.4136  140.8499  160.1367 C   0  0  0  0  0  0  0  0  0  0  0  0
  152.8047  140.2900  159.0691 N   0  0  0  0  0  0  0  0  0  0  0  0
  152.7888  138.9445  158.6883 C   0  0  0  0  0  0  0  0  0  0  0  0
  152.5822  138.7778  157.2725 C   0  0  0  0  0  0  0  0  0  0  0  0
  152.5511  137.5155  156.7908 C   0  0  0  0  0  0  0  0  0  0  0  0
  152.7219  136.3594  157.6747 C   0  0  0  0  0  0  0  0  0  0  0  0
  152.6874  135.2295  157.1927 O   0  0  0  0  0  0  0  0  0  0  0  0
  152.9141  136.5941  159.0118 N   0  5  0  0  0  0  0  0  0  0  0  0
  152.9449  137.9538  159.5130 N   0  0  0  0  0  0  0  0  0  0  0  0
  153.2275  142.3688  160.2678 C   0  0  1  0  0  0  0  0  0  0  0  0
  152.5627  143.0114  159.0276 C   0  0  0  0  0  0  0  0  0  0  0  0
  152.3940  144.4050  159.2537 O   0  0  0  0  0  0  0  0  0  0  0  0
  151.5751  144.6494  160.3886 C   0  0  0  0  0  0  0  0  0  0  0  0
  152.2388  144.0240  161.6259 C   0  0  0  0  0  0  0  0  0  0  0  0
  152.4090  142.6303  161.4055 O   0  0  0  0  0  0  0  0  0  0  0  0
  152.3032  140.9334  158.4751 H   0  0  0  0  0  0  0  0  0  0  0  0
  152.4524  139.6053  156.5904 H   0  0  0  0  0  0  0  0  0  0  0  0
  152.3974  137.3543  155.7340 H   0  0  0  0  0  0  0  0  0  0  0  0
  154.2137  142.8094  160.4249 H   0  0  0  0  0  0  0  0  0  0  0  0
  153.1883  142.8815  158.1439 H   0  0  0  0  0  0  0  0  0  0  0  0
  151.5974  142.5501  158.8104 H   0  0  0  0  0  0  0  0  0  0  0  0
  151.4621  145.7254  160.5219 H   0  0  0  0  0  0  0  0  0  0  0  0
  150.5773  144.2372  160.2310 H   0  0  0  0  0  0  0  0  0  0  0  0
  153.2016  144.4940  161.8313 H   0  0  0  0  0  0  0  0  0  0  0  0
  151.6138  144.1716  162.5067 H   0  0  0  0  0  0  0  0  0  0  0  0
  1  2  2  0  0  0  0
  2  3  1  0  0  0  0
  2 11  1  0  0  0  0
  3 17  1  0  0  0  0
  3  4  1  0  0  0  0
  4  5  1  0  0  0  0
  4 10  2  0  0  0  0
  5  6  2  0  0  0  0
  5 18  1  0  0  0  0
  6  7  1  0  0  0  0
  6 19  1  0  0  0  0
  7  8  2  0  0  0  0
  7  9  1  0  0  0  0
  9 10  1  0  0  0  0
 11 16  1  0  0  0  0
 11 12  1  0  0  0  0
 11 20  1  0  0  0  0
 12 13  1  0  0  0  0
 12 21  1  0  0  0  0
 12 22  1  0  0  0  0
 13 14  1  0  0  0  0
 14 15  1  0  0  0  0
 14 23  1  0  0  0  0
 14 24  1  0  0  0  0
 15 16  1  0  0  0  0
 15 25  1  0  0  0  0
 15 26  1  0  0  0  0
M  CHG  1   9  -1
M  END
> <s_m_source_file>
AV-unprocessed.smi

> <i_m_source_file_index>
2761

> <i_lp_mmshare_version>
43012

> <i_f3d_flags>
0

> <s_epik_input>
TzFbQ0gyXVtDSDJdT1tDSDJdW0NASF0xQyg9TylbTkhdYzJbY0hdW2NIXWMoW09IXSlubjI=

> <s_epik_cmdline>
J2VwaWtfcHl0aG9uJywgJy1waCcsICc3LjAnLCAnLXRuJywgJzgnLCAnLW1hJywgJzIwMCcsICctbWV0YWxfYmluZGluZycsICctaW1hZScsICc8aW5maWxlLm1hZT4nLCAnLW9tYWUnLCAnPG91dGZpbGUubWFlPic=

> <r_lp_tautomer_probability>
1

> <r_epik_Ionization_Penalty>
4.21844

> <r_epik_Ionization_Penalty_Charging>
0.119247

> <r_epik_Ionization_Penalty_Neutral>
4.0992

> <r_epik_State_Penalty>
4.09486

> <r_epik_Charging_Adjusted_Penalty>
4.2141

> <i_epik_Tot_Q>
-1

> <i_epik_Tot_abs_Q>
1

> <r_epik_Metal_State_Penalty>
0.651223

> <b_epik_Metal_Only>
1

> <s_lp_Force_Field>
OPLS_2005

> <r_lp_Energy>
28.3135

> <b_lp_Chiralities_Consistent>
1

> <s_lp_Variant>
AV-unprocessed.smi:2761-4

> <Gold.Version>
5.8.1

> <Gold.Id.Protein>
6NUR|6NUR_protein|mol2

> <Gold.PLP.Fitness>
35.5279

> <Gold.PLP.PLP>
-28.3411

> <Gold.PLP.part.hbond>
-2.5320

> <Gold.PLP.part.metal>
0.0000

> <Gold.PLP.part.buried>
-5.7457

> <Gold.PLP.part.nonpolar>
-20.5980

> <Gold.PLP.part.repulsive>
0.1842

> <Gold.PLP.ligand.clash>
0.6364

> <Gold.PLP.ligand.torsion>
0.2774

> <Gold.PLP.Chemscore.Hbond>
2.7920

> <Gold.PLP.Chemscore.CHOScore>
0.0000

> <Gold.PLP.Chemscore.Metal>
0.0000

> <Gold.Chemscore.Hbonds>
donor molecule, donor type, donor heavy atom, donor atom, acceptor molecule, acceptor atom, score
      P1  H  6896  6908       L1     9  1.72
      P1  H 10752 10763       L1     8  0.93

> <Gold.PLP.Chemscore.Internal.Correction>
0.0020

> <Gold.Rescore>
     Score         DG    S(hbond)    S(metal)    S(lipo)     H(rot)  DE(clash)    DE(int)     intcor
     13.57     -14.99       1.66        0.00      55.89       1.00       0.05       1.37       ----

> <Gold.Chemscore.Fitness>
13.5736

> <Gold.Chemscore.DG>
-14.9917

> <Gold.Chemscore.ZeroCoef>
-5.4800

> <Gold.Chemscore.Hbond>
1.6565

> <Gold.Chemscore.Metal>
0.0000

> <Gold.Chemscore.Lipo>
55.8881

> <Gold.Chemscore.Internal_Hbond>
0.0000

> <Gold.Chemscore.DEClash>
0.0458

> <Gold.Chemscore.DEInternal>
1.3723

> <Gold.Chemscore.Rot>
1.0000

> <Gold.Chemscore.Internal.Correction>
   9.000000E+99

> <Gold.Chemscore.Hbonds>
donor molecule, donor type, donor heavy atom, donor atom, acceptor molecule, acceptor atom, score
      P1  H  6896  6908       L1     9  0.47
      P1  H 10752 10763       L1     8  0.53

> <Gold.Chemscore.Hbond.Weighted>
-5.5328

> <Gold.Chemscore.Metal.Weighted>
-0.0000

> <Gold.Chemscore.Lipo.Weighted>
-6.5389

> <Gold.Chemscore.Internal_Hbond.Weighted>
0.0000

> <Gold.Chemscore.DEClash.Weighted>
0.0458

> <Gold.Chemscore.DEInternal.Weighted>
1.3723

> <Gold.Chemscore.Rot.Weighted>
2.5600

> <Gold.Chemscore.Internal.Correction.Weighted>
   9.000000E+99

> <Gold.Protein.RotatedTorsions>
[ 6907 6896 6895 6894 ] final  -93.32 input  -60.11 | X-H torsion
[ 7974 7965 7964 7962 ] final -101.43 input  175.53 | X-H torsion
[ 8008 7997 7996 7995 ] final   70.44 input   59.86 | X-H torsion
[ 10167 10162 10161 10158 ] final -102.42 input  -65.29 | X-H torsion
[ 10718 10713 10712 10709 ] final  149.15 input   66.30 | X-H torsion
[ 10763 10752 10751 10750 ] final  105.20 input  -60.55 | X-H torsion
[ 11005 11000 10999 10996 ] final -148.75 input  -57.11 | X-H torsion

> <Gold.Protein.ActiveResidues>
 VAL166  LYS551  ARG553  GLY616  TRP617  ASP618  TYR619  PRO620  LYS621  CYS622 
 ASP623  PHE694  ASN695  SER759  ASP760  ASP761  ALA762  ILE779  LEU786  VAL792 
 PHE793  MET794  SER795  GLU796  ALA797  LYS798  CYS799  TRP800  GLU811  SER814 

> <Gold.Protein.RotatedAtoms>
  150.6920  134.1985  159.4312 H   0  0  0  0  0  0  0  0  0  0  0  0  # atno 6907 bound_to 6896
  151.9953  134.9955  160.0572 H   0  0  0  0  0  0  0  0  0  0  0  0  # atno 6908 bound_to 6896
  152.1629  133.4559  159.4907 H   0  0  0  0  0  0  0  0  0  0  0  0  # atno 6909 bound_to 6896
  145.2818  140.9328  143.2928 H   0  0  0  0  0  0  0  0  0  0  0  0  # atno 7974 bound_to 7965
  155.7388  140.3490  155.5094 H   0  0  0  0  0  0  0  0  0  0  0  0  # atno 8008 bound_to 7997
  155.9113  140.1051  157.1298 H   0  0  0  0  0  0  0  0  0  0  0  0  # atno 8009 bound_to 7997
  154.4056  140.1267  156.4548 H   0  0  0  0  0  0  0  0  0  0  0  0  # atno 8010 bound_to 7997
  140.2309  143.3607  152.0887 H   0  0  0  0  0  0  0  0  0  0  0  0  # atno 10167 bound_to 10162
  157.2997  131.0868  151.1399 H   0  0  0  0  0  0  0  0  0  0  0  0  # atno 10718 bound_to 10713
  153.3762  135.3917  155.1824 H   0  0  0  0  0  0  0  0  0  0  0  0  # atno 10763 bound_to 10752
  154.8701  135.3714  154.4914 H   0  0  0  0  0  0  0  0  0  0  0  0  # atno 10764 bound_to 10752
  153.5387  135.7085  153.5708 H   0  0  0  0  0  0  0  0  0  0  0  0  # atno 10765 bound_to 10752
  140.7580  134.3331  157.5109 H   0  0  0  0  0  0  0  0  0  0  0  0  # atno 11005 bound_to 11000
  144.9247  139.4369  143.6524 LP  0  0  0  0  0  0  0  0  0  0  0  0  # atno 17320 bound_to 7965
  146.3214  139.8126  142.8943 LP  0  0  0  0  0  0  0  0  0  0  0  0  # atno 17321 bound_to 7965
  139.5110  144.6894  151.5801 LP  0  0  0  0  0  0  0  0  0  0  0  0  # atno 17342 bound_to 10162
  140.6186  143.9302  150.6508 LP  0  0  0  0  0  0  0  0  0  0  0  0  # atno 17343 bound_to 10162
  157.2763  130.6728  149.6044 LP  0  0  0  0  0  0  0  0  0  0  0  0  # atno 17370 bound_to 10713
  155.9671  130.4463  150.5537 LP  0  0  0  0  0  0  0  0  0  0  0  0  # atno 17371 bound_to 10713
  139.8776  134.9184  156.3202 LP  0  0  0  0  0  0  0  0  0  0  0  0  # atno 17394 bound_to 11000
  140.9689  133.7340  156.0507 LP  0  0  0  0  0  0  0  0  0  0  0  0  # atno 17395 bound_to 11000

$$$$
