AV-unprocessed.smi:54|AV-procd|sdf|559|dock3
  -GOLD-   2262016463D 1   1.00000     0.00000
 Structure written by MMmdl.
 43 45  0  0  0  0  0  0  0  0  2 V2000
  152.5383  144.0050  158.2793 C   0  0  0  0  0  0  0  0  0  0  0  0
  151.9658  143.0244  159.3161 C   0  0  0  0  0  0  0  0  0  0  0  0
  152.9908  142.7183  160.4206 C   0  0  0  0  0  0  0  0  0  0  0  0
  151.4943  141.7302  158.6379 C   0  0  0  0  0  0  0  0  0  0  0  0
  150.3345  141.3498  158.8116 O   0  0  0  0  0  0  0  0  0  0  0  0
  152.4285  141.0947  157.8968 N   0  0  0  0  0  0  0  0  0  0  0  0
  152.3216  139.8997  157.1766 C   0  0  0  0  0  0  0  0  0  0  0  0
  151.1411  139.7333  156.6326 N   0  0  0  0  0  0  0  0  0  0  0  0
  151.0345  138.5454  155.9353 C   0  0  0  0  0  0  0  0  0  0  0  0
  151.9933  137.5809  155.7826 C   0  0  0  0  0  0  0  0  0  0  0  0
  151.5286  136.5166  155.0200 N   0  0  0  0  0  0  0  0  0  0  0  0
  150.2837  136.8973  154.7414 C   0  0  0  0  0  0  0  0  0  0  0  0
  149.9102  138.0882  155.2497 N   0  0  0  0  0  0  0  0  0  0  0  0
  148.5627  138.7269  155.0830 C   0  0  2  0  0  0  0  0  0  0  0  0
  147.7402  137.8912  154.3200 O   0  0  0  0  0  0  0  0  0  0  0  0
  147.3349  138.5464  153.1183 C   0  0  1  0  0  0  0  0  0  0  0  0
  145.9440  138.0482  152.6968 C   0  0  0  0  0  0  0  0  0  0  0  0
  145.5942  138.5913  151.4414 O   0  0  0  0  0  0  0  0  0  0  0  0
  147.3648  140.0222  153.5181 C   0  0  2  0  0  0  0  0  0  0  0  0
  147.4034  140.9037  152.4125 O   0  0  0  0  0  0  0  0  0  0  0  0
  148.6179  140.0964  154.3788 C   0  0  2  0  0  0  0  0  0  0  0  0
  149.7929  140.2955  153.6063 O   0  0  0  0  0  0  0  0  0  0  0  0
  153.3016  137.8244  156.4348 C   0  0  0  0  0  0  0  0  0  0  0  0
  154.1903  136.9816  156.3263 O   0  0  0  0  0  0  0  0  0  0  0  0
  153.4051  139.0004  157.1224 N   0  5  0  0  0  0  0  0  0  0  0  0
  148.1577  138.7875  156.0941 H   0  0  0  0  0  0  0  0  0  0  0  0
  148.0699  138.3694  152.3313 H   0  0  0  0  0  0  0  0  0  0  0  0
  146.4909  140.2542  154.1291 H   0  0  0  0  0  0  0  0  0  0  0  0
  148.5546  140.8933  155.1204 H   0  0  0  0  0  0  0  0  0  0  0  0
  151.8125  144.2190  157.4938 H   0  0  0  0  0  0  0  0  0  0  0  0
  153.4365  143.6087  157.8039 H   0  0  0  0  0  0  0  0  0  0  0  0
  152.8037  144.9537  158.7462 H   0  0  0  0  0  0  0  0  0  0  0  0
  151.1038  143.5018  159.7854 H   0  0  0  0  0  0  0  0  0  0  0  0
  152.5881  142.0156  161.1511 H   0  0  0  0  0  0  0  0  0  0  0  0
  153.2659  143.6263  160.9578 H   0  0  0  0  0  0  0  0  0  0  0  0
  153.9054  142.2869  160.0120 H   0  0  0  0  0  0  0  0  0  0  0  0
  153.3467  141.5128  157.9250 H   0  0  0  0  0  0  0  0  0  0  0  0
  149.6174  136.2863  154.1506 H   0  0  0  0  0  0  0  0  0  0  0  0
  145.9047  136.9591  152.6657 H   0  0  0  0  0  0  0  0  0  0  0  0
  145.1929  138.3789  153.4146 H   0  0  0  0  0  0  0  0  0  0  0  0
  144.8145  139.1146  151.5470 H   0  0  0  0  0  0  0  0  0  0  0  0
  148.2181  140.7618  151.9540 H   0  0  0  0  0  0  0  0  0  0  0  0
  149.5772  140.1827  152.6931 H   0  0  0  0  0  0  0  0  0  0  0  0
  1  2  1  0  0  0  0
  1 30  1  0  0  0  0
  1 31  1  0  0  0  0
  1 32  1  0  0  0  0
  2  3  1  0  0  0  0
  2  4  1  0  0  0  0
  2 33  1  0  0  0  0
  3 34  1  0  0  0  0
  3 35  1  0  0  0  0
  3 36  1  0  0  0  0
  4  5  2  0  0  0  0
  4  6  1  0  0  0  0
  6 37  1  0  0  0  0
  6  7  1  0  0  0  0
  7 25  1  0  0  0  0
  7  8  2  0  0  0  0
  8  9  1  0  0  0  0
  9 13  1  0  0  0  0
  9 10  2  0  0  0  0
 10 11  1  0  0  0  0
 10 23  1  0  0  0  0
 11 12  2  0  0  0  0
 12 13  1  0  0  0  0
 12 38  1  0  0  0  0
 13 14  1  0  0  0  0
 14 26  1  0  0  0  0
 14 21  1  0  0  0  0
 14 15  1  0  0  0  0
 15 16  1  0  0  0  0
 16 27  1  0  0  0  0
 16 17  1  0  0  0  0
 16 19  1  0  0  0  0
 17 18  1  0  0  0  0
 17 39  1  0  0  0  0
 17 40  1  0  0  0  0
 18 41  1  0  0  0  0
 19 28  1  0  0  0  0
 19 20  1  0  0  0  0
 19 21  1  0  0  0  0
 20 42  1  0  0  0  0
 21 29  1  0  0  0  0
 21 22  1  0  0  0  0
 22 43  1  0  0  0  0
 23 24  2  0  0  0  0
 23 25  1  0  0  0  0
M  CHG  1  25  -1
M  END
> <s_m_source_file>
AV-unprocessed.smi

> <i_m_source_file_index>
54

> <i_lp_mmshare_version>
43012

> <i_f3d_flags>
0

> <s_epik_input>
W0NIM11bQ0hdKFtDSDNdKUMoPU8pW05IXWMobjEpW25IXWMoPU8pYyhjMTIpbltjSF1uMltDQEBIXTNPW0NASF0oW0NIMl1bT0hdKVtDQEBIXShbT0hdKVtDQEhdM1tPSF0=

> <s_epik_cmdline>
J2VwaWtfcHl0aG9uJywgJy1waCcsICc3LjAnLCAnLXRuJywgJzgnLCAnLW1hJywgJzIwMCcsICctbWV0YWxfYmluZGluZycsICctaW1hZScsICc8aW5maWxlLm1hZT4nLCAnLW9tYWUnLCAnPG91dGZpbGUubWFlPic=

> <r_lp_tautomer_probability>
0.85571

> <r_epik_Ionization_Penalty>
1.75936

> <r_epik_Ionization_Penalty_Charging>
4.55893e-11

> <r_epik_Ionization_Penalty_Neutral>
1.75936

> <r_epik_State_Penalty>
1.72072

> <r_epik_Charging_Adjusted_Penalty>
1.72072

> <i_epik_Tot_Q>
-1

> <i_epik_Tot_abs_Q>
1

> <r_epik_Metal_State_Penalty>
0.400338

> <b_epik_Metal_Only>
1

> <s_epik_Chemistry_Notes>
This compound contains an acetal/aminal-like group ( X-CH(R)-Y where X, Y are N, S, or O) that may be acid/base labile, releasing an aldehyde.

> <s_lp_Force_Field>
OPLS_2005

> <r_lp_Energy>
68.2846

> <b_lp_Chiralities_Consistent>
1

> <s_lp_Variant>
AV-unprocessed.smi:54-31

> <Gold.Version>
5.8.1

> <Gold.Id.Protein>
6NUR|6NUR_protein|mol2

> <Gold.PLP.Fitness>
56.0029

> <Gold.PLP.PLP>
-33.2657

> <Gold.PLP.part.hbond>
-8.1025

> <Gold.PLP.part.metal>
0.0000

> <Gold.PLP.part.buried>
-0.3559

> <Gold.PLP.part.nonpolar>
-26.3293

> <Gold.PLP.part.repulsive>
0.3485

> <Gold.PLP.ligand.clash>
0.0000

> <Gold.PLP.ligand.torsion>
0.4005

> <Gold.PLP.Chemscore.Hbond>
6.8350

> <Gold.PLP.Chemscore.CHOScore>
1.0000

> <Gold.PLP.Chemscore.Metal>
0.0000

> <Gold.Chemscore.Hbonds>
donor molecule, donor type, donor heavy atom, donor atom, acceptor molecule, acceptor atom, score
      L1  H    18    41       P1 10175  1.00
      L1  H    20    42       P1  7957  1.00
      L1  H    22    43       P1  7957  1.00
      P1  H  7989  7998       L1    22  0.59
      P1  H  7997  8009       L1    25  1.76
      P1  H 10752 10764       L1    11  1.00
      P1  H 10752 10765       L1    24  0.34
      L1  C    12    38       P1  7948  1.00

> <Gold.PLP.Chemscore.Internal.Correction>
0.0331

> <Gold.Rescore>
     Score         DG    S(hbond)    S(metal)    S(lipo)     H(rot)  DE(clash)    DE(int)     intcor
     15.64     -18.26       4.63        0.00      65.13       4.02       0.87       1.75       ----

> <Gold.Chemscore.Fitness>
15.6384

> <Gold.Chemscore.DG>
-18.2628

> <Gold.Chemscore.ZeroCoef>
-5.4800

> <Gold.Chemscore.Hbond>
4.6264

> <Gold.Chemscore.Metal>
0.0000

> <Gold.Chemscore.Lipo>
65.1256

> <Gold.Chemscore.Internal_Hbond>
0.0000

> <Gold.Chemscore.DEClash>
0.8712

> <Gold.Chemscore.DEInternal>
1.7531

> <Gold.Chemscore.Rot>
4.0192

> <Gold.Chemscore.Internal.Correction>
   9.000000E+99

> <Gold.Chemscore.Hbonds>
donor molecule, donor type, donor heavy atom, donor atom, acceptor molecule, acceptor atom, score
      L1  H    18    41       P1 10175  0.87
      L1  H    20    42       P1  7957  1.00
      L1  H    22    43       P1  7957  0.94
      P1  H  7989  7998       L1    22  0.15
      P1  H  7997  8009       L1    25  0.16
      P1  H 10752 10764       L1    11  0.55
      P1  H 10752 10765       L1    24  0.32

> <Gold.Chemscore.Hbond.Weighted>
-15.4523

> <Gold.Chemscore.Metal.Weighted>
-0.0000

> <Gold.Chemscore.Lipo.Weighted>
-7.6197

> <Gold.Chemscore.Internal_Hbond.Weighted>
0.0000

> <Gold.Chemscore.DEClash.Weighted>
0.8712

> <Gold.Chemscore.DEInternal.Weighted>
1.7531

> <Gold.Chemscore.Rot.Weighted>
10.2893

> <Gold.Chemscore.Internal.Correction.Weighted>
   9.000000E+99

> <Gold.Protein.RotatedTorsions>
[ 6907 6896 6895 6894 ] final  -19.20 input  -60.11 | X-H torsion
[ 7974 7965 7964 7962 ] final  141.90 input  175.53 | X-H torsion
[ 8008 7997 7996 7995 ] final  162.84 input   59.86 | X-H torsion
[ 10167 10162 10161 10158 ] final  -55.25 input  -65.29 | X-H torsion
[ 10718 10713 10712 10709 ] final -163.68 input   66.30 | X-H torsion
[ 10763 10752 10751 10750 ] final  -61.46 input  -60.55 | X-H torsion
[ 11005 11000 10999 10996 ] final   98.79 input  -57.11 | X-H torsion

> <Gold.Protein.ActiveResidues>
 VAL166  LYS551  ARG553  GLY616  TRP617  ASP618  TYR619  PRO620  LYS621  CYS622 
 ASP623  PHE694  ASN695  SER759  ASP760  ASP761  ALA762  ILE779  LEU786  VAL792 
 PHE793  MET794  SER795  GLU796  ALA797  LYS798  CYS799  TRP800  GLU811  SER814 

> <Gold.Protein.RotatedAtoms>
  151.2667  135.0671  159.9118 H   0  0  0  0  0  0  0  0  0  0  0  0  # atno 6907 bound_to 6896
  152.5357  134.0173  159.7976 H   0  0  0  0  0  0  0  0  0  0  0  0  # atno 6908 bound_to 6896
  151.0405  133.5660  159.2682 H   0  0  0  0  0  0  0  0  0  0  0  0  # atno 6909 bound_to 6896
  144.9055  139.5364  143.5733 H   0  0  0  0  0  0  0  0  0  0  0  0  # atno 7974 bound_to 7965
  156.2001  140.1739  156.7916 H   0  0  0  0  0  0  0  0  0  0  0  0  # atno 8008 bound_to 7997
  154.5581  140.0705  156.8806 H   0  0  0  0  0  0  0  0  0  0  0  0  # atno 8009 bound_to 7997
  155.2900  140.3354  155.4255 H   0  0  0  0  0  0  0  0  0  0  0  0  # atno 8010 bound_to 7997
  140.6385  143.2495  151.5053 H   0  0  0  0  0  0  0  0  0  0  0  0  # atno 10167 bound_to 10162
  156.6282  130.8918  151.2972 H   0  0  0  0  0  0  0  0  0  0  0  0  # atno 10718 bound_to 10713
  154.2850  135.6264  153.5362 H   0  0  0  0  0  0  0  0  0  0  0  0  # atno 10763 bound_to 10752
  152.9860  135.5642  154.5453 H   0  0  0  0  0  0  0  0  0  0  0  0  # atno 10764 bound_to 10752
  154.5052  135.2874  155.1364 H   0  0  0  0  0  0  0  0  0  0  0  0  # atno 10765 bound_to 10752
  139.8771  134.9065  156.4508 H   0  0  0  0  0  0  0  0  0  0  0  0  # atno 11005 bound_to 11000
  146.3131  139.7819  142.9004 LP  0  0  0  0  0  0  0  0  0  0  0  0  # atno 17320 bound_to 7965
  145.3543  141.0313  143.3321 LP  0  0  0  0  0  0  0  0  0  0  0  0  # atno 17321 bound_to 7965
  139.5594  144.2193  152.1667 LP  0  0  0  0  0  0  0  0  0  0  0  0  # atno 17342 bound_to 10162
  140.1456  144.5162  150.6717 LP  0  0  0  0  0  0  0  0  0  0  0  0  # atno 17343 bound_to 10162
  157.7208  130.9556  150.1430 LP  0  0  0  0  0  0  0  0  0  0  0  0  # atno 17370 bound_to 10713
  156.2256  130.3677  149.8504 LP  0  0  0  0  0  0  0  0  0  0  0  0  # atno 17371 bound_to 10713
  140.8933  133.7832  155.9596 LP  0  0  0  0  0  0  0  0  0  0  0  0  # atno 17394 bound_to 11000
  140.8730  134.2703  157.5181 LP  0  0  0  0  0  0  0  0  0  0  0  0  # atno 17395 bound_to 11000

$$$$
