AV-unprocessed.smi:2684|AV-procd|sdf|10378|dock7
  -GOLD-   2272014403D 1   1.00000     0.00000
 Structure written by MMmdl.
 45 46  0  0  0  0  0  0  0  0  2 V2000
  144.2870  132.3267  149.7386 C   0  0  0  0  0  0  0  0  0  0  0  0
  144.3445  133.4499  150.7333 C   0  0  0  0  0  0  0  0  0  0  0  0
  143.6713  133.5470  151.9843 C   0  0  0  0  0  0  0  0  0  0  0  0
  143.9499  134.6667  152.6321 N   0  0  0  0  0  0  0  0  0  0  0  0
  144.8091  135.3206  151.8221 N   0  0  0  0  0  0  0  0  0  0  0  0
  145.3539  136.6029  152.2309 C   0  0  0  0  0  0  0  0  0  0  0  0
  144.6679  137.1885  153.4872 C   0  0  2  0  0  0  0  0  0  0  0  0
  143.1499  137.2740  153.2800 C   0  0  0  0  0  0  0  0  0  0  0  0
  145.1933  138.5350  153.8126 N   0  3  0  0  0  0  0  0  0  0  0  0
  144.9956  138.9663  155.2133 C   0  0  0  0  0  0  0  0  0  0  0  0
  146.3022  138.9014  156.0155 C   0  0  0  0  0  0  0  0  0  0  0  0
  146.2926  138.3969  157.1368 O   0  0  0  0  0  0  0  0  0  0  0  0
  147.4462  139.3713  155.4851 N   0  0  0  0  0  0  0  0  0  0  0  0
  148.7813  139.4002  156.0817 C   0  0  0  0  0  0  0  0  0  0  0  0
  149.2718  140.8403  156.3159 C   0  0  0  0  0  0  0  0  0  0  0  0
  150.7274  140.8387  156.8103 C   0  0  0  0  0  0  0  0  0  0  0  0
  151.5582  140.1580  155.8765 O   0  0  0  0  0  0  0  0  0  0  0  0
  151.2063  138.7882  155.7153 C   0  0  0  0  0  0  0  0  0  0  0  0
  149.7755  138.6745  155.1633 C   0  0  0  0  0  0  0  0  0  0  0  0
  145.0557  134.6139  150.6636 C   0  0  0  0  0  0  0  0  0  0  0  0
  143.6239  131.5268  150.0682 H   0  0  0  0  0  0  0  0  0  0  0  0
  145.2696  131.8826  149.5777 H   0  0  0  0  0  0  0  0  0  0  0  0
  143.9241  132.6662  148.7683 H   0  0  0  0  0  0  0  0  0  0  0  0
  142.9973  132.8369  152.4407 H   0  0  0  0  0  0  0  0  0  0  0  0
  146.4250  136.4861  152.4024 H   0  0  0  0  0  0  0  0  0  0  0  0
  145.2501  137.2925  151.3919 H   0  0  0  0  0  0  0  0  0  0  0  0
  144.8388  136.5251  154.3371 H   0  0  0  0  0  0  0  0  0  0  0  0
  142.7260  136.2911  153.0720 H   0  0  0  0  0  0  0  0  0  0  0  0
  142.8974  137.9281  152.4444 H   0  0  0  0  0  0  0  0  0  0  0  0
  142.6526  137.6626  154.1694 H   0  0  0  0  0  0  0  0  0  0  0  0
  146.1792  138.5573  153.5951 H   0  0  0  0  0  0  0  0  0  0  0  0
  144.6310  139.9938  155.2193 H   0  0  0  0  0  0  0  0  0  0  0  0
  144.2215  138.3586  155.6700 H   0  0  0  0  0  0  0  0  0  0  0  0
  147.3865  139.7307  154.5429 H   0  0  0  0  0  0  0  0  0  0  0  0
  148.7683  138.8610  157.0280 H   0  0  0  0  0  0  0  0  0  0  0  0
  149.2074  141.4101  155.3879 H   0  0  0  0  0  0  0  0  0  0  0  0
  148.6415  141.3548  157.0408 H   0  0  0  0  0  0  0  0  0  0  0  0
  151.0866  141.8621  156.9202 H   0  0  0  0  0  0  0  0  0  0  0  0
  150.8037  140.3680  157.7919 H   0  0  0  0  0  0  0  0  0  0  0  0
  151.9114  138.3225  155.0266 H   0  0  0  0  0  0  0  0  0  0  0  0
  151.2999  138.2643  156.6676 H   0  0  0  0  0  0  0  0  0  0  0  0
  149.4997  137.6243  155.0612 H   0  0  0  0  0  0  0  0  0  0  0  0
  149.7424  139.1061  154.1616 H   0  0  0  0  0  0  0  0  0  0  0  0
  145.7206  134.9871  149.8983 H   0  0  0  0  0  0  0  0  0  0  0  0
  144.7250  139.2108  153.2257 H   0  0  0  0  0  0  0  0  0  0  0  0
  1  2  1  0  0  0  0
  1 21  1  0  0  0  0
  1 22  1  0  0  0  0
  1 23  1  0  0  0  0
  2 20  2  0  0  0  0
  2  3  1  0  0  0  0
  3  4  2  0  0  0  0
  3 24  1  0  0  0  0
  4  5  1  0  0  0  0
  5  6  1  0  0  0  0
  5 20  1  0  0  0  0
  6  7  1  0  0  0  0
  6 25  1  0  0  0  0
  6 26  1  0  0  0  0
  7  8  1  0  0  0  0
  7  9  1  0  0  0  0
  7 27  1  0  0  0  0
  8 28  1  0  0  0  0
  8 29  1  0  0  0  0
  8 30  1  0  0  0  0
  9 10  1  0  0  0  0
  9 31  1  0  0  0  0
  9 45  1  0  0  0  0
 10 11  1  0  0  0  0
 10 32  1  0  0  0  0
 10 33  1  0  0  0  0
 11 12  2  0  0  0  0
 11 13  1  0  0  0  0
 13 14  1  0  0  0  0
 13 34  1  0  0  0  0
 14 19  1  0  0  0  0
 14 15  1  0  0  0  0
 14 35  1  0  0  0  0
 15 16  1  0  0  0  0
 15 36  1  0  0  0  0
 15 37  1  0  0  0  0
 16 17  1  0  0  0  0
 16 38  1  0  0  0  0
 16 39  1  0  0  0  0
 17 18  1  0  0  0  0
 18 19  1  0  0  0  0
 18 40  1  0  0  0  0
 18 41  1  0  0  0  0
 19 42  1  0  0  0  0
 19 43  1  0  0  0  0
 20 44  1  0  0  0  0
M  CHG  1   9   1
M  END
> <s_m_source_file>
AV-unprocessed.smi

> <i_m_source_file_index>
2684

> <i_lp_mmshare_version>
43012

> <i_f3d_flags>
0

> <s_epik_input>
W0NIM11jMVtjSF1ubihbY0hdMSlbQ0gyXVtDQEhdKFtDSDNdKVtOSF1bQ0gyXUMoPU8pW05IXVtDSF0yW0NIMl1bQ0gyXU9bQ0gyXVtDSDJdMg==

> <s_epik_cmdline>
J2VwaWtfcHl0aG9uJywgJy1waCcsICc3LjAnLCAnLXRuJywgJzgnLCAnLW1hJywgJzIwMCcsICctbWV0YWxfYmluZGluZycsICctaW1hZScsICc8aW5maWxlLm1hZT4nLCAnLW9tYWUnLCAnPG91dGZpbGUubWFlPic=

> <r_lp_tautomer_probability>
1

> <r_epik_Ionization_Penalty>
0.128576

> <r_epik_Ionization_Penalty_Charging>
0.128567

> <r_epik_Ionization_Penalty_Neutral>
8.60003e-06

> <r_epik_State_Penalty>
0.117991

> <r_epik_Charging_Adjusted_Penalty>
0.246558

> <i_epik_Tot_Q>
1

> <i_epik_Tot_abs_Q>
1

> <r_epik_Metal_State_Penalty>
0.118015

> <b_epik_Metal_Only>
0

> <s_lp_Force_Field>
OPLS_2005

> <r_lp_Energy>
10.3737

> <b_lp_Chiralities_Consistent>
1

> <s_lp_Variant>
AV-unprocessed.smi:2684-1

> <Gold.Version>
5.8.1

> <Gold.Id.Protein>
6NUR|6NUR_protein|mol2

> <Gold.PLP.Fitness>
45.2299

> <Gold.PLP.PLP>
-32.6779

> <Gold.PLP.part.hbond>
-1.7699

> <Gold.PLP.part.metal>
0.0000

> <Gold.PLP.part.buried>
-3.5847

> <Gold.PLP.part.nonpolar>
-27.2369

> <Gold.PLP.part.repulsive>
0.1597

> <Gold.PLP.ligand.clash>
0.0000

> <Gold.PLP.ligand.torsion>
0.8209

> <Gold.PLP.Chemscore.Hbond>
2.8320

> <Gold.PLP.Chemscore.CHOScore>
1.8739

> <Gold.PLP.Chemscore.Metal>
0.0000

> <Gold.Chemscore.Hbonds>
donor molecule, donor type, donor heavy atom, donor atom, acceptor molecule, acceptor atom, score
      L1  H     9    45       P1 10175  2.00
      L1  C     3    24       P1 10957  0.69
      L1  C    20    44       P1  7921  1.00

> <Gold.PLP.Chemscore.Internal.Correction>
0.0761

> <Gold.Rescore>
     Score         DG    S(hbond)    S(metal)    S(lipo)     H(rot)  DE(clash)    DE(int)     intcor
     12.66     -14.84       1.74        0.00      74.91       2.04       0.06       2.12       ----

> <Gold.Chemscore.Fitness>
12.6597

> <Gold.Chemscore.DG>
-14.8402

> <Gold.Chemscore.ZeroCoef>
-5.4800

> <Gold.Chemscore.Hbond>
1.7449

> <Gold.Chemscore.Metal>
0.0000

> <Gold.Chemscore.Lipo>
74.9075

> <Gold.Chemscore.Internal_Hbond>
0.0000

> <Gold.Chemscore.DEClash>
0.0599

> <Gold.Chemscore.DEInternal>
2.1206

> <Gold.Chemscore.Rot>
2.0437

> <Gold.Chemscore.Internal.Correction>
   9.000000E+99

> <Gold.Chemscore.Hbonds>
donor molecule, donor type, donor heavy atom, donor atom, acceptor molecule, acceptor atom, score
      L1  H     9    45       P1 10175  1.00
      P1  H  7989  7998       L1    17  0.01

> <Gold.Chemscore.Hbond.Weighted>
-5.8278

> <Gold.Chemscore.Metal.Weighted>
-0.0000

> <Gold.Chemscore.Lipo.Weighted>
-8.7642

> <Gold.Chemscore.Internal_Hbond.Weighted>
0.0000

> <Gold.Chemscore.DEClash.Weighted>
0.0599

> <Gold.Chemscore.DEInternal.Weighted>
2.1206

> <Gold.Chemscore.Rot.Weighted>
5.2318

> <Gold.Chemscore.Internal.Correction.Weighted>
   9.000000E+99

> <Gold.Protein.RotatedTorsions>
[ 6907 6896 6895 6894 ] final  111.10 input  -60.11 | X-H torsion
[ 7974 7965 7964 7962 ] final   48.18 input  175.53 | X-H torsion
[ 8008 7997 7996 7995 ] final  177.28 input   59.86 | X-H torsion
[ 10167 10162 10161 10158 ] final -106.14 input  -65.29 | X-H torsion
[ 10718 10713 10712 10709 ] final  131.29 input   66.30 | X-H torsion
[ 10763 10752 10751 10750 ] final -139.70 input  -60.55 | X-H torsion
[ 11005 11000 10999 10996 ] final -130.28 input  -57.11 | X-H torsion

> <Gold.Protein.ActiveResidues>
 VAL166  LYS551  ARG553  GLY616  TRP617  ASP618  TYR619  PRO620  LYS621  CYS622 
 ASP623  PHE694  ASN695  SER759  ASP760  ASP761  ALA762  ILE779  LEU786  VAL792 
 PHE793  MET794  SER795  GLU796  ALA797  LYS798  CYS799  TRP800  GLU811  SER814 

> <Gold.Protein.RotatedAtoms>
  152.4986  133.8706  159.7296 H   0  0  0  0  0  0  0  0  0  0  0  0  # atno 6907 bound_to 6896
  150.9193  133.6891  159.2842 H   0  0  0  0  0  0  0  0  0  0  0  0  # atno 6908 bound_to 6896
  151.4273  135.1010  159.9684 H   0  0  0  0  0  0  0  0  0  0  0  0  # atno 6909 bound_to 6896
  146.0228  139.4671  142.9886 H   0  0  0  0  0  0  0  0  0  0  0  0  # atno 7974 bound_to 7965
  156.0674  140.1362  156.9870 H   0  0  0  0  0  0  0  0  0  0  0  0  # atno 8008 bound_to 7997
  154.4513  140.0979  156.6678 H   0  0  0  0  0  0  0  0  0  0  0  0  # atno 8009 bound_to 7997
  155.5283  140.3458  155.4423 H   0  0  0  0  0  0  0  0  0  0  0  0  # atno 8010 bound_to 7997
  140.1910  143.3892  152.1206 H   0  0  0  0  0  0  0  0  0  0  0  0  # atno 10167 bound_to 10162
  157.4981  131.1093  150.9464 H   0  0  0  0  0  0  0  0  0  0  0  0  # atno 10718 bound_to 10713
  154.8601  135.3574  154.5589 H   0  0  0  0  0  0  0  0  0  0  0  0  # atno 10763 bound_to 10752
  153.6205  135.7006  153.5317 H   0  0  0  0  0  0  0  0  0  0  0  0  # atno 10764 bound_to 10752
  153.3133  135.4172  155.1314 H   0  0  0  0  0  0  0  0  0  0  0  0  # atno 10765 bound_to 10752
  140.9359  134.1258  157.4194 H   0  0  0  0  0  0  0  0  0  0  0  0  # atno 11005 bound_to 11000
  145.7166  141.0089  143.1425 LP  0  0  0  0  0  0  0  0  0  0  0  0  # atno 17320 bound_to 7965
  144.6997  139.8820  143.7448 LP  0  0  0  0  0  0  0  0  0  0  0  0  # atno 17321 bound_to 7965
  139.5256  144.7098  151.5242 LP  0  0  0  0  0  0  0  0  0  0  0  0  # atno 17342 bound_to 10162
  140.6456  143.8801  150.6734 LP  0  0  0  0  0  0  0  0  0  0  0  0  # atno 17343 bound_to 10162
  157.0144  130.5649  149.5324 LP  0  0  0  0  0  0  0  0  0  0  0  0  # atno 17370 bound_to 10713
  156.0213  130.5307  150.8282 LP  0  0  0  0  0  0  0  0  0  0  0  0  # atno 17371 bound_to 10713
  139.8808  135.0020  156.6104 LP  0  0  0  0  0  0  0  0  0  0  0  0  # atno 17394 bound_to 11000
  140.7800  133.8668  155.8560 LP  0  0  0  0  0  0  0  0  0  0  0  0  # atno 17395 bound_to 11000

$$$$
