AV-unprocessed.smi:2795|AV-procd|sdf|10780|dock6
  -GOLD-   2272015213D 1   1.00000     0.00000
 Structure written by MMmdl.
 36 37  0  0  0  0  0  0  0  0  1 V2000
  149.3537  141.9444  157.4939 C   0  0  0  0  0  0  0  0  0  0  0  0
  149.6084  141.1268  156.3249 N   0  0  0  0  0  0  0  0  0  0  0  0
  149.7308  141.5494  155.0592 C   0  0  0  0  0  0  0  0  0  0  0  0
  149.9627  140.5858  154.1783 N   0  0  0  0  0  0  0  0  0  0  0  0
  149.9922  139.4297  154.9536 C   0  0  0  0  0  0  0  0  0  0  0  0
  149.7741  139.7454  156.2782 C   0  0  0  0  0  0  0  0  0  0  0  0
  149.7091  138.8765  157.4969 C   0  0  0  0  0  0  0  0  0  0  0  0
  148.5574  137.8554  157.4874 C   0  0  0  0  0  0  0  0  0  0  0  0
  148.2624  137.3686  158.8300 N   0  0  0  0  0  0  0  0  0  0  0  0
  148.6603  136.1872  159.3268 C   0  0  0  0  0  0  0  0  0  0  0  0
  149.3106  135.3677  158.6774 O   0  0  0  0  0  0  0  0  0  0  0  0
  148.2599  135.8854  160.7746 C   0  0  2  0  0  0  0  0  0  0  0  0
  147.3253  134.6598  160.8681 C   0  0  0  0  0  0  0  0  0  0  0  0
  146.8715  134.4425  162.3155 C   0  0  0  0  0  0  0  0  0  0  0  0
  146.2654  135.7385  162.8639 C   0  0  0  0  0  0  0  0  0  0  0  0
  147.2418  136.9097  162.6706 C   0  0  0  0  0  0  0  0  0  0  0  0
  147.5921  137.0331  161.2951 O   0  0  0  0  0  0  0  0  0  0  0  0
  149.3533  143.0010  157.2238 H   0  0  0  0  0  0  0  0  0  0  0  0
  150.1286  141.7715  158.2412 H   0  0  0  0  0  0  0  0  0  0  0  0
  148.3830  141.6862  157.9178 H   0  0  0  0  0  0  0  0  0  0  0  0
  149.6479  142.5885  154.7755 H   0  0  0  0  0  0  0  0  0  0  0  0
  150.1671  138.4653  154.4999 H   0  0  0  0  0  0  0  0  0  0  0  0
  150.6585  138.3503  157.6019 H   0  0  0  0  0  0  0  0  0  0  0  0
  149.6160  139.5109  158.3792 H   0  0  0  0  0  0  0  0  0  0  0  0
  147.6526  138.3186  157.0928 H   0  0  0  0  0  0  0  0  0  0  0  0
  148.7913  137.0160  156.8304 H   0  0  0  0  0  0  0  0  0  0  0  0
  147.7238  137.9775  159.4290 H   0  0  0  0  0  0  0  0  0  0  0  0
  149.1620  135.7026  161.3627 H   0  0  0  0  0  0  0  0  0  0  0  0
  146.4470  134.8038  160.2366 H   0  0  0  0  0  0  0  0  0  0  0  0
  147.8317  133.7667  160.5002 H   0  0  0  0  0  0  0  0  0  0  0  0
  146.1465  133.6298  162.3691 H   0  0  0  0  0  0  0  0  0  0  0  0
  147.7238  134.1456  162.9282 H   0  0  0  0  0  0  0  0  0  0  0  0
  145.3312  135.9545  162.3443 H   0  0  0  0  0  0  0  0  0  0  0  0
  146.0175  135.6225  163.9193 H   0  0  0  0  0  0  0  0  0  0  0  0
  146.7795  137.8403  163.0000 H   0  0  0  0  0  0  0  0  0  0  0  0
  148.1404  136.7702  163.2734 H   0  0  0  0  0  0  0  0  0  0  0  0
  1  2  1  0  0  0  0
  1 18  1  0  0  0  0
  1 19  1  0  0  0  0
  1 20  1  0  0  0  0
  2  6  1  0  0  0  0
  2  3  1  0  0  0  0
  3  4  2  0  0  0  0
  3 21  1  0  0  0  0
  4  5  1  0  0  0  0
  5  6  2  0  0  0  0
  5 22  1  0  0  0  0
  6  7  1  0  0  0  0
  7  8  1  0  0  0  0
  7 23  1  0  0  0  0
  7 24  1  0  0  0  0
  8  9  1  0  0  0  0
  8 25  1  0  0  0  0
  8 26  1  0  0  0  0
  9 10  1  0  0  0  0
  9 27  1  0  0  0  0
 10 11  2  0  0  0  0
 10 12  1  0  0  0  0
 12 17  1  0  0  0  0
 12 13  1  0  0  0  0
 12 28  1  0  0  0  0
 13 14  1  0  0  0  0
 13 29  1  0  0  0  0
 13 30  1  0  0  0  0
 14 15  1  0  0  0  0
 14 31  1  0  0  0  0
 14 32  1  0  0  0  0
 15 16  1  0  0  0  0
 15 33  1  0  0  0  0
 15 34  1  0  0  0  0
 16 17  1  0  0  0  0
 16 35  1  0  0  0  0
 16 36  1  0  0  0  0
M  END
> <s_m_source_file>
AV-unprocessed.smi

> <i_m_source_file_index>
2795

> <i_lp_mmshare_version>
43012

> <i_f3d_flags>
0

> <s_epik_input>
W0NIM11uMVtjSF1uW2NIXWMxW0NIMl1bQ0gyXVtOSF1DKD1PKVtDQEBIXTJbQ0gyXVtDSDJdW0NIMl1bQ0gyXU8y

> <s_epik_cmdline>
J2VwaWtfcHl0aG9uJywgJy1waCcsICc3LjAnLCAnLXRuJywgJzgnLCAnLW1hJywgJzIwMCcsICctbWV0YWxfYmluZGluZycsICctaW1hZScsICc8aW5maWxlLm1hZT4nLCAnLW9tYWUnLCAnPG91dGZpbGUubWFlPic=

> <r_lp_tautomer_probability>
1

> <r_epik_Ionization_Penalty>
0.870864

> <r_epik_Ionization_Penalty_Charging>
0.870864

> <r_epik_Ionization_Penalty_Neutral>
4.06047e-08

> <r_epik_State_Penalty>
0.90819

> <r_epik_Charging_Adjusted_Penalty>
1.77905

> <i_epik_Tot_Q>
0

> <i_epik_Tot_abs_Q>
0

> <r_epik_Metal_State_Penalty>
0.360563

> <b_epik_Metal_Only>
0

> <s_lp_Force_Field>
OPLS_2005

> <r_lp_Energy>
9.35516

> <b_lp_Chiralities_Consistent>
1

> <s_lp_Variant>
AV-unprocessed.smi:2795-3

> <Gold.Version>
5.8.1

> <Gold.Id.Protein>
6NUR|6NUR_protein|mol2

> <Gold.PLP.Fitness>
40.1718

> <Gold.PLP.PLP>
-28.6219

> <Gold.PLP.part.hbond>
-4.0000

> <Gold.PLP.part.metal>
0.0000

> <Gold.PLP.part.buried>
-3.7479

> <Gold.PLP.part.nonpolar>
-22.1213

> <Gold.PLP.part.repulsive>
0.6775

> <Gold.PLP.ligand.clash>
0.0000

> <Gold.PLP.ligand.torsion>
0.2505

> <Gold.PLP.Chemscore.Hbond>
3.0154

> <Gold.PLP.Chemscore.CHOScore>
1.0000

> <Gold.PLP.Chemscore.Metal>
0.0000

> <Gold.Chemscore.Hbonds>
donor molecule, donor type, donor heavy atom, donor atom, acceptor molecule, acceptor atom, score
      P1  H  6896  6907       L1    11  1.00
      P1  H  6931  6943       L1    17  0.30
      P1  H  6934  6947       L1    17  0.83
      P1  H  7989  7998       L1     4  0.74
      L1  C     3    21       P1  8028  1.00

> <Gold.PLP.Chemscore.Internal.Correction>
0.0047

> <Gold.Rescore>
     Score         DG    S(hbond)    S(metal)    S(lipo)     H(rot)  DE(clash)    DE(int)     intcor
     14.98     -15.25       2.25        0.00      57.82       1.76       0.07       0.20       ----

> <Gold.Chemscore.Fitness>
14.9847

> <Gold.Chemscore.DG>
-15.2536

> <Gold.Chemscore.ZeroCoef>
-5.4800

> <Gold.Chemscore.Hbond>
2.2486

> <Gold.Chemscore.Metal>
0.0000

> <Gold.Chemscore.Lipo>
57.8226

> <Gold.Chemscore.Internal_Hbond>
0.0000

> <Gold.Chemscore.DEClash>
0.0690

> <Gold.Chemscore.DEInternal>
0.1999

> <Gold.Chemscore.Rot>
1.7585

> <Gold.Chemscore.Internal.Correction>
   9.000000E+99

> <Gold.Chemscore.Hbonds>
donor molecule, donor type, donor heavy atom, donor atom, acceptor molecule, acceptor atom, score
      P1  H  6896  6907       L1    11  0.71
      P1  H  6934  6947       L1    17  0.27
      P1  H  7989  7998       L1     4  0.33

> <Gold.Chemscore.Hbond.Weighted>
-7.5102

> <Gold.Chemscore.Metal.Weighted>
-0.0000

> <Gold.Chemscore.Lipo.Weighted>
-6.7652

> <Gold.Chemscore.Internal_Hbond.Weighted>
0.0000

> <Gold.Chemscore.DEClash.Weighted>
0.0690

> <Gold.Chemscore.DEInternal.Weighted>
0.1999

> <Gold.Chemscore.Rot.Weighted>
4.5018

> <Gold.Chemscore.Internal.Correction.Weighted>
   9.000000E+99

> <Gold.Protein.RotatedTorsions>
[ 6907 6896 6895 6894 ] final  -51.36 input  -60.11 | X-H torsion
[ 7974 7965 7964 7962 ] final -138.26 input  175.53 | X-H torsion
[ 8008 7997 7996 7995 ] final -176.12 input   59.86 | X-H torsion
[ 10167 10162 10161 10158 ] final   68.86 input  -65.29 | X-H torsion
[ 10718 10713 10712 10709 ] final -120.82 input   66.30 | X-H torsion
[ 10763 10752 10751 10750 ] final  -55.02 input  -60.55 | X-H torsion
[ 11005 11000 10999 10996 ] final  -73.13 input  -57.11 | X-H torsion

> <Gold.Protein.ActiveResidues>
 VAL166  LYS551  ARG553  GLY616  TRP617  ASP618  TYR619  PRO620  LYS621  CYS622 
 ASP623  PHE694  ASN695  SER759  ASP760  ASP761  ALA762  ILE779  LEU786  VAL792 
 PHE793  MET794  SER795  GLU796  ALA797  LYS798  CYS799  TRP800  GLU811  SER814 

> <Gold.Protein.RotatedAtoms>
  150.8619  134.7973  159.7088 H   0  0  0  0  0  0  0  0  0  0  0  0  # atno 6907 bound_to 6896
  152.4653  134.5086  159.9757 H   0  0  0  0  0  0  0  0  0  0  0  0  # atno 6908 bound_to 6896
  151.5189  133.3432  159.2933 H   0  0  0  0  0  0  0  0  0  0  0  0  # atno 6909 bound_to 6896
  144.8773  140.6456  143.5228 H   0  0  0  0  0  0  0  0  0  0  0  0  # atno 7974 bound_to 7965
  155.9909  140.1201  157.0639 H   0  0  0  0  0  0  0  0  0  0  0  0  # atno 8008 bound_to 7997
  154.4211  140.1126  156.5633 H   0  0  0  0  0  0  0  0  0  0  0  0  # atno 8009 bound_to 7997
  155.6344  140.3473  155.4696 H   0  0  0  0  0  0  0  0  0  0  0  0  # atno 8010 bound_to 7997
  140.0740  144.5128  150.7207 H   0  0  0  0  0  0  0  0  0  0  0  0  # atno 10167 bound_to 10162
  156.1288  130.6380  150.9587 H   0  0  0  0  0  0  0  0  0  0  0  0  # atno 10718 bound_to 10713
  154.1841  135.6438  153.5042 H   0  0  0  0  0  0  0  0  0  0  0  0  # atno 10763 bound_to 10752
  153.0051  135.5413  154.6484 H   0  0  0  0  0  0  0  0  0  0  0  0  # atno 10764 bound_to 10752
  154.5855  135.2929  155.0661 H   0  0  0  0  0  0  0  0  0  0  0  0  # atno 10765 bound_to 10752
  141.1618  133.6868  156.7165 H   0  0  0  0  0  0  0  0  0  0  0  0  # atno 11005 bound_to 11000
  145.4018  139.1596  143.4173 LP  0  0  0  0  0  0  0  0  0  0  0  0  # atno 17320 bound_to 7965
  146.2971  140.4116  142.8717 LP  0  0  0  0  0  0  0  0  0  0  0  0  # atno 17321 bound_to 7965
  140.7111  143.2506  151.4578 LP  0  0  0  0  0  0  0  0  0  0  0  0  # atno 17342 bound_to 10162
  139.5819  144.1691  152.1979 LP  0  0  0  0  0  0  0  0  0  0  0  0  # atno 17343 bound_to 10162
  157.6468  131.0903  150.8136 LP  0  0  0  0  0  0  0  0  0  0  0  0  # atno 17370 bound_to 10713
  156.8223  130.4988  149.5341 LP  0  0  0  0  0  0  0  0  0  0  0  0  # atno 17371 bound_to 10713
  140.2848  134.8288  157.3965 LP  0  0  0  0  0  0  0  0  0  0  0  0  # atno 17394 bound_to 11000
  140.1400  134.4984  155.8038 LP  0  0  0  0  0  0  0  0  0  0  0  0  # atno 17395 bound_to 11000

$$$$
