AV-unprocessed.smi:2496|AV-procd|sdf|9827|dock3
  -GOLD-   2272013453D 1   1.00000     0.00000
 Structure written by MMmdl.
 40 40  0  0  0  0  0  0  0  0  1 V2000
  151.4057  139.0211  154.8474 C   0  0  0  0  0  0  0  0  0  0  0  0
  150.3391  140.0741  154.9464 C   0  0  0  0  0  0  0  0  0  0  0  0
  150.6374  141.2479  155.4808 N   0  0  0  0  0  0  0  0  0  0  0  0
  149.4825  141.9315  155.4209 N   0  0  0  0  0  0  0  0  0  0  0  0
  148.4545  141.2109  154.8599 C   0  0  0  0  0  0  0  0  0  0  0  0
  147.0860  141.7896  154.7113 C   0  0  0  0  0  0  0  0  0  0  0  0
  148.9744  139.9846  154.5313 C   0  0  0  0  0  0  0  0  0  0  0  0
  148.2981  138.7858  153.8951 C   0  0  2  0  0  0  0  0  0  0  0  0
  146.9342  139.1584  153.2842 C   0  0  0  0  0  0  0  0  0  0  0  0
  148.2103  137.6373  154.9147 C   0  0  0  0  0  0  0  0  0  0  0  0
  147.9605  137.8611  156.0998 O   0  0  0  0  0  0  0  0  0  0  0  0
  148.4256  136.4032  154.4304 N   0  0  0  0  0  0  0  0  0  0  0  0
  148.4809  135.1699  155.2120 C   0  0  1  0  0  0  0  0  0  0  0  0
  147.2544  134.3099  154.8584 C   0  0  0  0  0  0  0  0  0  0  0  0
  149.8333  134.4492  154.9677 C   0  0  0  0  0  0  0  0  0  0  0  0
  151.0299  135.4158  155.0223 C   0  0  0  0  0  0  0  0  0  0  0  0
  149.8539  133.6809  153.6309 C   0  0  0  0  0  0  0  0  0  0  0  0
  149.4099  142.8786  155.7648 H   0  0  0  0  0  0  0  0  0  0  0  0
  151.1163  138.1233  155.3937 H   0  0  0  0  0  0  0  0  0  0  0  0
  152.3565  139.3653  155.2560 H   0  0  0  0  0  0  0  0  0  0  0  0
  151.5763  138.7380  153.8087 H   0  0  0  0  0  0  0  0  0  0  0  0
  146.3203  141.0501  154.9447 H   0  0  0  0  0  0  0  0  0  0  0  0
  146.9230  142.1355  153.6908 H   0  0  0  0  0  0  0  0  0  0  0  0
  146.9421  142.6380  155.3809 H   0  0  0  0  0  0  0  0  0  0  0  0
  148.9110  138.4072  153.0764 H   0  0  0  0  0  0  0  0  0  0  0  0
  146.2339  139.5200  154.0373 H   0  0  0  0  0  0  0  0  0  0  0  0
  146.4747  138.3022  152.7892 H   0  0  0  0  0  0  0  0  0  0  0  0
  147.0474  139.9429  152.5355 H   0  0  0  0  0  0  0  0  0  0  0  0
  148.6190  136.3185  153.4428 H   0  0  0  0  0  0  0  0  0  0  0  0
  148.4251  135.4176  156.2737 H   0  0  0  0  0  0  0  0  0  0  0  0
  147.1787  133.4304  155.4971 H   0  0  0  0  0  0  0  0  0  0  0  0
  147.2928  133.9710  153.8227 H   0  0  0  0  0  0  0  0  0  0  0  0
  146.3302  134.8739  154.9885 H   0  0  0  0  0  0  0  0  0  0  0  0
  149.9730  133.7146  155.7624 H   0  0  0  0  0  0  0  0  0  0  0  0
  150.9288  136.2126  154.2847 H   0  0  0  0  0  0  0  0  0  0  0  0
  151.9650  134.8933  154.8186 H   0  0  0  0  0  0  0  0  0  0  0  0
  151.1357  135.8775  156.0035 H   0  0  0  0  0  0  0  0  0  0  0  0
  149.6573  134.3469  152.7901 H   0  0  0  0  0  0  0  0  0  0  0  0
  149.1099  132.8842  153.6056 H   0  0  0  0  0  0  0  0  0  0  0  0
  150.8234  133.2117  153.4620 H   0  0  0  0  0  0  0  0  0  0  0  0
  1  2  1  0  0  0  0
  1 19  1  0  0  0  0
  1 20  1  0  0  0  0
  1 21  1  0  0  0  0
  2  7  1  0  0  0  0
  2  3  2  0  0  0  0
  3  4  1  0  0  0  0
  4 18  1  0  0  0  0
  4  5  1  0  0  0  0
  5  6  1  0  0  0  0
  5  7  2  0  0  0  0
  6 22  1  0  0  0  0
  6 23  1  0  0  0  0
  6 24  1  0  0  0  0
  7  8  1  0  0  0  0
  8  9  1  0  0  0  0
  8 10  1  0  0  0  0
  8 25  1  0  0  0  0
  9 26  1  0  0  0  0
  9 27  1  0  0  0  0
  9 28  1  0  0  0  0
 10 11  2  0  0  0  0
 10 12  1  0  0  0  0
 12 13  1  0  0  0  0
 12 29  1  0  0  0  0
 13 14  1  0  0  0  0
 13 15  1  0  0  0  0
 13 30  1  0  0  0  0
 14 31  1  0  0  0  0
 14 32  1  0  0  0  0
 14 33  1  0  0  0  0
 15 16  1  0  0  0  0
 15 17  1  0  0  0  0
 15 34  1  0  0  0  0
 16 35  1  0  0  0  0
 16 36  1  0  0  0  0
 16 37  1  0  0  0  0
 17 38  1  0  0  0  0
 17 39  1  0  0  0  0
 17 40  1  0  0  0  0
M  END
> <s_m_source_file>
AV-unprocessed.smi

> <i_m_source_file_index>
2496

> <i_lp_mmshare_version>
43012

> <i_f3d_flags>
0

> <s_epik_input>
W0NIM11jMW5bbkhdYyhbQ0gzXSljMVtDQEhdKFtDSDNdKUMoPU8pW05IXVtDQEhdKFtDSDNdKVtDSF0oW0NIM10pW0NIM10=

> <s_epik_cmdline>
J2VwaWtfcHl0aG9uJywgJy1waCcsICc3LjAnLCAnLXRuJywgJzgnLCAnLW1hJywgJzIwMCcsICctbWV0YWxfYmluZGluZycsICctaW1hZScsICc8aW5maWxlLm1hZT4nLCAnLW9tYWUnLCAnPG91dGZpbGUubWFlPic=

> <r_lp_tautomer_probability>
1

> <r_epik_Ionization_Penalty>
0.000456212

> <r_epik_Ionization_Penalty_Charging>
0

> <r_epik_Ionization_Penalty_Neutral>
0.000456212

> <r_epik_State_Penalty>
-0

> <r_epik_Charging_Adjusted_Penalty>
0

> <i_epik_Tot_Q>
0

> <i_epik_Tot_abs_Q>
0

> <r_epik_Metal_State_Penalty>
-0

> <b_epik_Metal_Only>
0

> <s_lp_Force_Field>
OPLS_2005

> <r_lp_Energy>
1.42294

> <b_lp_Chiralities_Consistent>
1

> <s_lp_Variant>
AV-unprocessed.smi:2496-3

> <Gold.Version>
5.8.1

> <Gold.Id.Protein>
6NUR|6NUR_protein|mol2

> <Gold.PLP.Fitness>
32.4654

> <Gold.PLP.PLP>
-28.7782

> <Gold.PLP.part.hbond>
-3.0000

> <Gold.PLP.part.metal>
0.0000

> <Gold.PLP.part.buried>
0.4032

> <Gold.PLP.part.nonpolar>
-25.1864

> <Gold.PLP.part.repulsive>
0.2702

> <Gold.PLP.ligand.clash>
0.0955

> <Gold.PLP.ligand.torsion>
1.1740

> <Gold.PLP.Chemscore.Hbond>
2.0000

> <Gold.PLP.Chemscore.CHOScore>
0.0000

> <Gold.PLP.Chemscore.Metal>
0.0000

> <Gold.Chemscore.Hbonds>
donor molecule, donor type, donor heavy atom, donor atom, acceptor molecule, acceptor atom, score
      L1  H     4    18       P1  8028  1.00
      L1  H    12    29       P1  7948  1.00

> <Gold.PLP.Chemscore.Internal.Correction>
0.1307

> <Gold.Rescore>
     Score         DG    S(hbond)    S(metal)    S(lipo)     H(rot)  DE(clash)    DE(int)     intcor
     14.39     -16.45       1.99        0.00      69.07       1.47       0.08       1.97       ----

> <Gold.Chemscore.Fitness>
14.3924

> <Gold.Chemscore.DG>
-16.4478

> <Gold.Chemscore.ZeroCoef>
-5.4800

> <Gold.Chemscore.Hbond>
1.9882

> <Gold.Chemscore.Metal>
0.0000

> <Gold.Chemscore.Lipo>
69.0654

> <Gold.Chemscore.Internal_Hbond>
0.0000

> <Gold.Chemscore.DEClash>
0.0806

> <Gold.Chemscore.DEInternal>
1.9748

> <Gold.Chemscore.Rot>
1.4662

> <Gold.Chemscore.Internal.Correction>
   9.000000E+99

> <Gold.Chemscore.Hbonds>
donor molecule, donor type, donor heavy atom, donor atom, acceptor molecule, acceptor atom, score
      L1  H     4    18       P1  8028  0.97
      L1  H    12    29       P1  7948  0.99

> <Gold.Chemscore.Hbond.Weighted>
-6.6406

> <Gold.Chemscore.Metal.Weighted>
-0.0000

> <Gold.Chemscore.Lipo.Weighted>
-8.0807

> <Gold.Chemscore.Internal_Hbond.Weighted>
0.0000

> <Gold.Chemscore.DEClash.Weighted>
0.0806

> <Gold.Chemscore.DEInternal.Weighted>
1.9748

> <Gold.Chemscore.Rot.Weighted>
3.7534

> <Gold.Chemscore.Internal.Correction.Weighted>
   9.000000E+99

> <Gold.Protein.RotatedTorsions>
[ 6907 6896 6895 6894 ] final  170.41 input  -60.11 | X-H torsion
[ 7974 7965 7964 7962 ] final -179.37 input  175.53 | X-H torsion
[ 8008 7997 7996 7995 ] final  -40.59 input   59.86 | X-H torsion
[ 10167 10162 10161 10158 ] final  -69.63 input  -65.29 | X-H torsion
[ 10718 10713 10712 10709 ] final -137.37 input   66.30 | X-H torsion
[ 10763 10752 10751 10750 ] final   87.49 input  -60.55 | X-H torsion
[ 11005 11000 10999 10996 ] final   85.19 input  -57.11 | X-H torsion

> <Gold.Protein.ActiveResidues>
 VAL166  LYS551  ARG553  GLY616  TRP617  ASP618  TYR619  PRO620  LYS621  CYS622 
 ASP623  PHE694  ASN695  SER759  ASP760  ASP761  ALA762  ILE779  LEU786  VAL792 
 PHE793  MET794  SER795  GLU796  ALA797  LYS798  CYS799  TRP800  GLU811  SER814 

> <Gold.Protein.RotatedAtoms>
  151.8165  133.3388  159.3570 H   0  0  0  0  0  0  0  0  0  0  0  0  # atno 6907 bound_to 6896
  150.7309  134.5615  159.5854 H   0  0  0  0  0  0  0  0  0  0  0  0  # atno 6908 bound_to 6896
  152.3037  134.7581  160.0403 H   0  0  0  0  0  0  0  0  0  0  0  0  # atno 6909 bound_to 6896
  144.7136  140.0728  143.6428 H   0  0  0  0  0  0  0  0  0  0  0  0  # atno 7974 bound_to 7965
  154.4011  140.1521  156.3052 H   0  0  0  0  0  0  0  0  0  0  0  0  # atno 8008 bound_to 7997
  155.8665  140.3451  155.5770 H   0  0  0  0  0  0  0  0  0  0  0  0  # atno 8009 bound_to 7997
  155.7822  140.0845  157.2043 H   0  0  0  0  0  0  0  0  0  0  0  0  # atno 8010 bound_to 7997
  140.5415  143.2315  151.7080 H   0  0  0  0  0  0  0  0  0  0  0  0  # atno 10167 bound_to 10162
  156.2874  130.7355  151.1371 H   0  0  0  0  0  0  0  0  0  0  0  0  # atno 10718 bound_to 10713
  153.1674  135.4541  154.9855 H   0  0  0  0  0  0  0  0  0  0  0  0  # atno 10763 bound_to 10752
  154.7941  135.3231  154.7710 H   0  0  0  0  0  0  0  0  0  0  0  0  # atno 10764 bound_to 10752
  153.8191  135.6948  153.4884 H   0  0  0  0  0  0  0  0  0  0  0  0  # atno 10765 bound_to 10752
  139.8978  134.8269  156.2548 H   0  0  0  0  0  0  0  0  0  0  0  0  # atno 11005 bound_to 11000
  145.9768  139.2911  143.1065 LP  0  0  0  0  0  0  0  0  0  0  0  0  # atno 17320 bound_to 7965
  145.9055  140.9215  143.0481 LP  0  0  0  0  0  0  0  0  0  0  0  0  # atno 17321 bound_to 7965
  139.4991  144.3961  152.0230 LP  0  0  0  0  0  0  0  0  0  0  0  0  # atno 17342 bound_to 10162
  140.3070  144.3582  150.6044 LP  0  0  0  0  0  0  0  0  0  0  0  0  # atno 17343 bound_to 10162
  157.7332  131.0592  150.5587 LP  0  0  0  0  0  0  0  0  0  0  0  0  # atno 17370 bound_to 10713
  156.5699  130.4277  149.6024 LP  0  0  0  0  0  0  0  0  0  0  0  0  # atno 17371 bound_to 10713
  141.0200  133.7046  156.1253 LP  0  0  0  0  0  0  0  0  0  0  0  0  # atno 17394 bound_to 11000
  140.7247  134.4320  157.5572 LP  0  0  0  0  0  0  0  0  0  0  0  0  # atno 17395 bound_to 11000

$$$$
