AV-unprocessed.smi:910|AV-procd|sdf|4134|dock3
  -GOLD-   22720 2 43D 1   1.00000     0.00000
 Structure written by MMmdl.
 45 46  0  0  0  0  0  0  0  0  2 V2000
  147.5456  136.5419  163.4447 C   0  0  0  0  0  0  0  0  0  0  0  0
  148.0317  136.0229  162.1285 C   0  0  0  0  0  0  0  0  0  0  0  0
  148.4729  136.8662  161.1209 N   0  0  0  0  0  0  0  0  0  0  0  0
  148.8332  136.0699  160.1123 C   0  0  0  0  0  0  0  0  0  0  0  0
  149.3315  136.4655  158.9302 N   0  5  0  0  0  0  0  0  0  0  0  0
  150.5150  137.1176  158.8920 C   0  0  0  0  0  0  0  0  0  0  0  0
  151.3725  137.1246  159.7785 O   0  0  0  0  0  0  0  0  0  0  0  0
  150.7057  137.8252  157.7688 N   0  0  0  0  0  0  0  0  0  0  0  0
  151.8149  138.7391  157.5130 C   0  0  0  0  0  0  0  0  0  0  0  0
  151.3006  140.1510  157.1915 C   0  0  0  0  0  0  0  0  0  0  0  0
  152.0036  141.0924  157.9879 O   0  0  0  0  0  0  0  0  0  0  0  0
  151.2194  141.7674  158.9630 C   0  0  2  0  0  0  0  0  0  0  0  0
  150.2539  142.6987  158.2069 C   0  0  0  0  0  0  0  0  0  0  0  0
  151.0028  143.8166  157.4606 C   0  0  0  0  0  0  0  0  0  0  0  0
  151.9050  144.6162  158.4123 C   0  0  0  0  0  0  0  0  0  0  0  0
  152.8771  143.6953  159.1662 C   0  0  0  0  0  0  0  0  0  0  0  0
  152.1287  142.5776  159.9205 C   0  0  2  0  0  0  0  0  0  0  0  0
  153.0952  141.6954  160.7248 C   0  0  0  0  0  0  0  0  0  0  0  0
  148.6363  134.7526  160.4026 O   0  0  0  0  0  0  0  0  0  0  0  0
  148.1344  134.7351  161.6753 C   0  0  0  0  0  0  0  0  0  0  0  0
  147.8195  133.4115  162.2844 C   0  0  0  0  0  0  0  0  0  0  0  0
  146.4897  136.8075  163.3945 H   0  0  0  0  0  0  0  0  0  0  0  0
  148.0984  137.4314  163.7479 H   0  0  0  0  0  0  0  0  0  0  0  0
  147.6634  135.7972  164.2320 H   0  0  0  0  0  0  0  0  0  0  0  0
  149.9813  137.7812  157.0674 H   0  0  0  0  0  0  0  0  0  0  0  0
  152.5117  138.7605  158.3522 H   0  0  0  0  0  0  0  0  0  0  0  0
  152.3707  138.3523  156.6590 H   0  0  0  0  0  0  0  0  0  0  0  0
  151.4658  140.3823  156.1387 H   0  0  0  0  0  0  0  0  0  0  0  0
  150.2260  140.2042  157.3704 H   0  0  0  0  0  0  0  0  0  0  0  0
  150.6226  141.0562  159.5378 H   0  0  0  0  0  0  0  0  0  0  0  0
  149.6538  142.1206  157.5036 H   0  0  0  0  0  0  0  0  0  0  0  0
  149.5534  143.1443  158.9141 H   0  0  0  0  0  0  0  0  0  0  0  0
  151.6084  143.3839  156.6631 H   0  0  0  0  0  0  0  0  0  0  0  0
  150.2886  144.4833  156.9773 H   0  0  0  0  0  0  0  0  0  0  0  0
  152.4645  145.3657  157.8519 H   0  0  0  0  0  0  0  0  0  0  0  0
  151.2889  145.1612  159.1284 H   0  0  0  0  0  0  0  0  0  0  0  0
  153.5862  143.2586  158.4622 H   0  0  0  0  0  0  0  0  0  0  0  0
  153.4693  144.2864  159.8655 H   0  0  0  0  0  0  0  0  0  0  0  0
  151.4748  143.0612  160.6476 H   0  0  0  0  0  0  0  0  0  0  0  0
  153.8265  141.2109  160.0780 H   0  0  0  0  0  0  0  0  0  0  0  0
  152.5594  140.9177  161.2693 H   0  0  0  0  0  0  0  0  0  0  0  0
  153.6479  142.2875  161.4545 H   0  0  0  0  0  0  0  0  0  0  0  0
  148.5261  133.1768  163.0802 H   0  0  0  0  0  0  0  0  0  0  0  0
  147.8704  132.6157  161.5410 H   0  0  0  0  0  0  0  0  0  0  0  0
  146.8163  133.4120  162.7106 H   0  0  0  0  0  0  0  0  0  0  0  0
  1 22  1  0  0  0  0
  1 23  1  0  0  0  0
  1 24  1  0  0  0  0
  1  2  1  0  0  0  0
  2  3  1  0  0  0  0
  2 20  2  0  0  0  0
  3  4  2  0  0  0  0
  4 19  1  0  0  0  0
  4  5  1  0  0  0  0
  5  6  1  0  0  0  0
  6  8  1  0  0  0  0
  6  7  2  0  0  0  0
  8  9  1  0  0  0  0
  8 25  1  0  0  0  0
  9 10  1  0  0  0  0
  9 26  1  0  0  0  0
  9 27  1  0  0  0  0
 10 11  1  0  0  0  0
 10 28  1  0  0  0  0
 10 29  1  0  0  0  0
 11 12  1  0  0  0  0
 12 17  1  0  0  0  0
 12 13  1  0  0  0  0
 12 30  1  0  0  0  0
 13 14  1  0  0  0  0
 13 31  1  0  0  0  0
 13 32  1  0  0  0  0
 14 15  1  0  0  0  0
 14 33  1  0  0  0  0
 14 34  1  0  0  0  0
 15 16  1  0  0  0  0
 15 35  1  0  0  0  0
 15 36  1  0  0  0  0
 16 17  1  0  0  0  0
 16 37  1  0  0  0  0
 16 38  1  0  0  0  0
 17 18  1  0  0  0  0
 17 39  1  0  0  0  0
 18 40  1  0  0  0  0
 18 41  1  0  0  0  0
 18 42  1  0  0  0  0
 19 20  1  0  0  0  0
 20 21  1  0  0  0  0
 21 43  1  0  0  0  0
 21 44  1  0  0  0  0
 21 45  1  0  0  0  0
M  CHG  1   5  -1
M  END
> <s_m_source_file>
AV-unprocessed.smi

> <i_m_source_file_index>
910

> <i_lp_mmshare_version>
43012

> <i_f3d_flags>
0

> <s_epik_input>
W0NIM11jMW5jKG9jMVtDSDNdKVtOSF1DKD1PKVtOSF1bQ0gyXVtDSDJdT1tDQEBIXTJbQ0gyXVtDSDJdW0NIMl1bQ0gyXVtDQEhdMltDSDNd

> <s_epik_cmdline>
J2VwaWtfcHl0aG9uJywgJy1waCcsICc3LjAnLCAnLXRuJywgJzgnLCAnLW1hJywgJzIwMCcsICctbWV0YWxfYmluZGluZycsICctaW1hZScsICc8aW5maWxlLm1hZT4nLCAnLW9tYWUnLCAnPG91dGZpbGUubWFlPic=

> <r_lp_tautomer_probability>
0.107061

> <r_epik_Ionization_Penalty>
10.1763

> <r_epik_Ionization_Penalty_Charging>
7.13067

> <r_epik_Ionization_Penalty_Neutral>
3.04564

> <r_epik_State_Penalty>
5.57927

> <r_epik_Charging_Adjusted_Penalty>
12.7099

> <i_epik_Tot_Q>
-1

> <i_epik_Tot_abs_Q>
1

> <r_epik_Metal_State_Penalty>
1.52303

> <b_epik_Metal_Only>
1

> <s_lp_Force_Field>
OPLS_2005

> <r_lp_Energy>
5.26856

> <b_lp_Chiralities_Consistent>
1

> <s_lp_Variant>
AV-unprocessed.smi:910-19

> <Gold.Version>
5.8.1

> <Gold.Id.Protein>
6NUR|6NUR_protein|mol2

> <Gold.PLP.Fitness>
51.5391

> <Gold.PLP.PLP>
-46.8039

> <Gold.PLP.part.hbond>
-2.8771

> <Gold.PLP.part.metal>
0.0000

> <Gold.PLP.part.buried>
-4.9679

> <Gold.PLP.part.nonpolar>
-39.0708

> <Gold.PLP.part.repulsive>
0.0442

> <Gold.PLP.ligand.clash>
0.0000

> <Gold.PLP.ligand.torsion>
1.4350

> <Gold.PLP.Chemscore.Hbond>
2.4983

> <Gold.PLP.Chemscore.CHOScore>
0.0000

> <Gold.PLP.Chemscore.Metal>
0.0000

> <Gold.Chemscore.Hbonds>
donor molecule, donor type, donor heavy atom, donor atom, acceptor molecule, acceptor atom, score
      P1  H  6896  6909       L1     7  0.45
      P1  H  6931  6943       L1     3  1.00

> <Gold.PLP.Chemscore.Internal.Correction>
0.1106

> <Gold.Rescore>
     Score         DG    S(hbond)    S(metal)    S(lipo)     H(rot)  DE(clash)    DE(int)     intcor
     21.63     -23.54       2.57        0.00     116.39       1.62       0.48       1.43       ----

> <Gold.Chemscore.Fitness>
21.6279

> <Gold.Chemscore.DG>
-23.5401

> <Gold.Chemscore.ZeroCoef>
-5.4800

> <Gold.Chemscore.Hbond>
2.5695

> <Gold.Chemscore.Metal>
0.0000

> <Gold.Chemscore.Lipo>
116.3856

> <Gold.Chemscore.Internal_Hbond>
0.0000

> <Gold.Chemscore.DEClash>
0.4792

> <Gold.Chemscore.DEInternal>
1.4330

> <Gold.Chemscore.Rot>
1.6169

> <Gold.Chemscore.Internal.Correction>
   9.000000E+99

> <Gold.Chemscore.Hbonds>
donor molecule, donor type, donor heavy atom, donor atom, acceptor molecule, acceptor atom, score
      P1  H  6896  6909       L1     7  0.01
      P1  H  6931  6943       L1     3  0.55
      P1  H  6934  6947       L1     3  0.01

> <Gold.Chemscore.Hbond.Weighted>
-8.5822

> <Gold.Chemscore.Metal.Weighted>
-0.0000

> <Gold.Chemscore.Lipo.Weighted>
-13.6171

> <Gold.Chemscore.Internal_Hbond.Weighted>
0.0000

> <Gold.Chemscore.DEClash.Weighted>
0.4792

> <Gold.Chemscore.DEInternal.Weighted>
1.4330

> <Gold.Chemscore.Rot.Weighted>
4.1393

> <Gold.Chemscore.Internal.Correction.Weighted>
   9.000000E+99

> <Gold.Protein.RotatedTorsions>
[ 6907 6896 6895 6894 ] final   96.02 input  -60.11 | X-H torsion
[ 7974 7965 7964 7962 ] final -137.88 input  175.53 | X-H torsion
[ 8008 7997 7996 7995 ] final  -24.56 input   59.86 | X-H torsion
[ 10167 10162 10161 10158 ] final   52.54 input  -65.29 | X-H torsion
[ 10718 10713 10712 10709 ] final  -86.78 input   66.30 | X-H torsion
[ 10763 10752 10751 10750 ] final  -70.31 input  -60.55 | X-H torsion
[ 11005 11000 10999 10996 ] final -157.80 input  -57.11 | X-H torsion

> <Gold.Protein.ActiveResidues>
 VAL166  LYS551  ARG553  GLY616  TRP617  ASP618  TYR619  PRO620  LYS621  CYS622 
 ASP623  PHE694  ASN695  SER759  ASP760  ASP761  ALA762  ILE779  LEU786  VAL792 
 PHE793  MET794  SER795  GLU796  ALA797  LYS798  CYS799  TRP800  GLU811  SER814 

> <Gold.Protein.RotatedAtoms>
  152.5439  134.0950  159.8293 H   0  0  0  0  0  0  0  0  0  0  0  0  # atno 6907 bound_to 6896
  151.1035  133.5218  159.2616 H   0  0  0  0  0  0  0  0  0  0  0  0  # atno 6908 bound_to 6896
  151.1964  135.0433  159.8908 H   0  0  0  0  0  0  0  0  0  0  0  0  # atno 6909 bound_to 6896
  144.8805  140.6500  143.5209 H   0  0  0  0  0  0  0  0  0  0  0  0  # atno 7974 bound_to 7965
  154.4522  140.1950  156.0483 H   0  0  0  0  0  0  0  0  0  0  0  0  # atno 8008 bound_to 7997
  156.0673  140.3289  155.7505 H   0  0  0  0  0  0  0  0  0  0  0  0  # atno 8009 bound_to 7997
  155.5319  140.0578  157.2878 H   0  0  0  0  0  0  0  0  0  0  0  0  # atno 8010 bound_to 7997
  140.2503  144.3486  150.6350 H   0  0  0  0  0  0  0  0  0  0  0  0  # atno 10167 bound_to 10162
  155.9988  130.4777  150.4767 H   0  0  0  0  0  0  0  0  0  0  0  0  # atno 10718 bound_to 10713
  154.4158  135.5998  153.5980 H   0  0  0  0  0  0  0  0  0  0  0  0  # atno 10763 bound_to 10752
  152.9792  135.5940  154.4014 H   0  0  0  0  0  0  0  0  0  0  0  0  # atno 10764 bound_to 10752
  154.3833  135.2841  155.2177 H   0  0  0  0  0  0  0  0  0  0  0  0  # atno 10765 bound_to 10752
  140.6607  134.4353  157.5234 H   0  0  0  0  0  0  0  0  0  0  0  0  # atno 11005 bound_to 11000
  145.3964  139.1606  143.4201 LP  0  0  0  0  0  0  0  0  0  0  0  0  # atno 17320 bound_to 7965
  146.2991  140.4057  142.8711 LP  0  0  0  0  0  0  0  0  0  0  0  0  # atno 17321 bound_to 7965
  140.6046  143.2167  151.7006 LP  0  0  0  0  0  0  0  0  0  0  0  0  # atno 17342 bound_to 10162
  139.5048  144.3739  152.0443 LP  0  0  0  0  0  0  0  0  0  0  0  0  # atno 17343 bound_to 10162
  157.2777  131.0600  151.2218 LP  0  0  0  0  0  0  0  0  0  0  0  0  # atno 17370 bound_to 10713
  157.3276  130.6969  149.6305 LP  0  0  0  0  0  0  0  0  0  0  0  0  # atno 17371 bound_to 10713
  139.9014  134.8547  156.1881 LP  0  0  0  0  0  0  0  0  0  0  0  0  # atno 17394 bound_to 11000
  141.0467  133.6909  156.1697 LP  0  0  0  0  0  0  0  0  0  0  0  0  # atno 17395 bound_to 11000

$$$$
