AV-unprocessed.smi:148|AV-procd|sdf|1204|dock8
  -GOLD-   2262018373D 1   1.00000     0.00000
 Structure written by MMmdl.
 63 67  0  0  0  0  0  0  0  0  1 V2000
  147.3203  135.0809  153.2249 O   0  0  0  0  0  0  0  0  0  0  0  0
  147.4279  134.7506  154.5943 C   0  0  0  0  0  0  0  0  0  0  0  0
  148.6525  133.8416  154.8637 C   0  0  2  0  0  0  0  0  0  0  0  0
  149.9996  134.5874  154.6912 C   0  0  0  0  0  0  0  0  0  0  0  0
  150.0738  135.8119  155.4685 N   0  0  0  0  0  0  0  0  0  0  0  0
  149.3922  136.0860  156.6328 C   0  0  0  0  0  0  0  0  0  0  0  0
  149.6084  137.2690  157.1398 N   0  0  0  0  0  0  0  0  0  0  0  0
  150.5111  137.8504  156.2590 C   0  0  0  0  0  0  0  0  0  0  0  0
  151.1389  139.1215  156.1865 C   0  0  0  0  0  0  0  0  0  0  0  0
  150.8986  140.0923  157.0965 N   0  0  0  0  0  0  0  0  0  0  0  0
  152.0867  140.3546  157.9123 C   0  0  0  0  0  0  0  0  0  0  0  0
  151.7386  141.1871  159.1501 C   0  0  0  0  0  0  0  0  0  0  0  0
  151.0474  142.4840  158.7257 C   0  0  0  0  0  0  0  0  0  0  0  0
  149.8164  142.1636  157.8679 C   0  0  0  0  0  0  0  0  0  0  0  0
  150.1565  141.2855  156.6335 C   0  0  2  0  0  0  0  0  0  0  0  0
  148.8771  140.9488  155.7875 C   0  0  2  0  0  0  0  0  0  0  0  0
  147.9785  139.8477  156.4087 C   0  0  0  0  0  0  0  0  0  0  0  0
  147.4930  138.9311  155.2796 C   0  0  0  0  0  0  0  0  0  0  0  0
  147.8588  139.6534  153.9912 C   0  0  0  0  0  0  0  0  0  0  0  0
  149.1271  140.4194  154.3573 C   0  0  1  0  0  0  0  0  0  0  0  0
  149.3401  141.4527  153.4160 O   0  0  0  0  0  0  0  0  0  0  0  0
  151.9923  139.3538  155.1541 N   0  0  0  0  0  0  0  0  0  0  0  0
  152.2064  138.4022  154.2403 C   0  0  0  0  0  0  0  0  0  0  0  0
  151.6781  137.1782  154.1697 N   0  0  0  0  0  0  0  0  0  0  0  0
  150.8266  136.9437  155.2095 C   0  0  0  0  0  0  0  0  0  0  0  0
  148.6148  132.5349  154.0315 C   0  0  2  0  0  0  0  0  0  0  0  0
  147.2939  131.7868  154.0720 C   0  0  0  0  0  0  0  0  0  0  0  0
  147.6998  130.3979  153.5944 C   0  0  0  0  0  0  0  0  0  0  0  0
  149.0166  130.1969  154.0935 O   0  0  0  0  0  0  0  0  0  0  0  0
  149.5715  131.4391  154.5168 C   0  0  0  0  0  0  0  0  0  0  0  0
  148.0934  135.5604  152.9689 H   0  0  0  0  0  0  0  0  0  0  0  0
  147.4877  135.6728  155.1722 H   0  0  0  0  0  0  0  0  0  0  0  0
  146.5056  134.2629  154.9086 H   0  0  0  0  0  0  0  0  0  0  0  0
  148.5877  133.5517  155.9135 H   0  0  0  0  0  0  0  0  0  0  0  0
  150.8318  133.9535  154.9977 H   0  0  0  0  0  0  0  0  0  0  0  0
  150.1674  134.8281  153.6408 H   0  0  0  0  0  0  0  0  0  0  0  0
  148.7161  135.3784  157.0907 H   0  0  0  0  0  0  0  0  0  0  0  0
  152.5404  139.4127  158.2256 H   0  0  0  0  0  0  0  0  0  0  0  0
  152.8306  140.8835  157.3145 H   0  0  0  0  0  0  0  0  0  0  0  0
  151.0829  140.6147  159.8076 H   0  0  0  0  0  0  0  0  0  0  0  0
  152.6404  141.4088  159.7211 H   0  0  0  0  0  0  0  0  0  0  0  0
  150.7550  143.0599  159.6042 H   0  0  0  0  0  0  0  0  0  0  0  0
  151.7409  143.1065  158.1586 H   0  0  0  0  0  0  0  0  0  0  0  0
  149.0745  141.6547  158.4849 H   0  0  0  0  0  0  0  0  0  0  0  0
  149.3735  143.1102  157.5612 H   0  0  0  0  0  0  0  0  0  0  0  0
  150.8338  141.8670  156.0062 H   0  0  0  0  0  0  0  0  0  0  0  0
  148.2761  141.8545  155.6877 H   0  0  0  0  0  0  0  0  0  0  0  0
  148.5173  139.2536  157.1472 H   0  0  0  0  0  0  0  0  0  0  0  0
  147.1231  140.2928  156.9159 H   0  0  0  0  0  0  0  0  0  0  0  0
  148.0229  137.9789  155.3276 H   0  0  0  0  0  0  0  0  0  0  0  0
  146.4257  138.7177  155.3451 H   0  0  0  0  0  0  0  0  0  0  0  0
  148.0028  138.9717  153.1522 H   0  0  0  0  0  0  0  0  0  0  0  0
  147.0599  140.3480  153.7259 H   0  0  0  0  0  0  0  0  0  0  0  0
  149.9733  139.7310  154.3497 H   0  0  0  0  0  0  0  0  0  0  0  0
  149.3986  141.0669  152.5553 H   0  0  0  0  0  0  0  0  0  0  0  0
  152.8949  138.6605  153.4493 H   0  0  0  0  0  0  0  0  0  0  0  0
  148.8504  132.7581  152.9895 H   0  0  0  0  0  0  0  0  0  0  0  0
  146.9139  131.7357  155.0934 H   0  0  0  0  0  0  0  0  0  0  0  0
  146.5252  132.2343  153.4417 H   0  0  0  0  0  0  0  0  0  0  0  0
  147.0172  129.6202  153.9375 H   0  0  0  0  0  0  0  0  0  0  0  0
  147.7318  130.3655  152.5046 H   0  0  0  0  0  0  0  0  0  0  0  0
  150.5813  131.5672  154.1262 H   0  0  0  0  0  0  0  0  0  0  0  0
  149.6313  131.4289  155.6061 H   0  0  0  0  0  0  0  0  0  0  0  0
  1  2  1  0  0  0  0
  1 31  1  0  0  0  0
  2  3  1  0  0  0  0
  2 32  1  0  0  0  0
  2 33  1  0  0  0  0
  3  4  1  0  0  0  0
  3 26  1  0  0  0  0
  3 34  1  0  0  0  0
  4  5  1  0  0  0  0
  4 35  1  0  0  0  0
  4 36  1  0  0  0  0
  5 25  1  0  0  0  0
  5  6  1  0  0  0  0
  6  7  2  0  0  0  0
  6 37  1  0  0  0  0
  7  8  1  0  0  0  0
  8 25  2  0  0  0  0
  8  9  1  0  0  0  0
  9 10  1  0  0  0  0
  9 22  2  0  0  0  0
 10 15  1  0  0  0  0
 10 11  1  0  0  0  0
 11 12  1  0  0  0  0
 11 38  1  0  0  0  0
 11 39  1  0  0  0  0
 12 13  1  0  0  0  0
 12 40  1  0  0  0  0
 12 41  1  0  0  0  0
 13 14  1  0  0  0  0
 13 42  1  0  0  0  0
 13 43  1  0  0  0  0
 14 15  1  0  0  0  0
 14 44  1  0  0  0  0
 14 45  1  0  0  0  0
 15 16  1  0  0  0  0
 15 46  1  0  0  0  0
 16 20  1  0  0  0  0
 16 17  1  0  0  0  0
 16 47  1  0  0  0  0
 17 18  1  0  0  0  0
 17 48  1  0  0  0  0
 17 49  1  0  0  0  0
 18 19  1  0  0  0  0
 18 50  1  0  0  0  0
 18 51  1  0  0  0  0
 19 20  1  0  0  0  0
 19 52  1  0  0  0  0
 19 53  1  0  0  0  0
 20 21  1  0  0  0  0
 20 54  1  0  0  0  0
 21 55  1  0  0  0  0
 22 23  1  0  0  0  0
 23 24  2  0  0  0  0
 23 56  1  0  0  0  0
 24 25  1  0  0  0  0
 26 30  1  0  0  0  0
 26 27  1  0  0  0  0
 26 57  1  0  0  0  0
 27 28  1  0  0  0  0
 27 58  1  0  0  0  0
 27 59  1  0  0  0  0
 28 29  1  0  0  0  0
 28 60  1  0  0  0  0
 28 61  1  0  0  0  0
 29 30  1  0  0  0  0
 30 62  1  0  0  0  0
 30 63  1  0  0  0  0
M  END
> <s_m_source_file>
AV-unprocessed.smi

> <i_m_source_file_index>
148

> <i_lp_mmshare_version>
43012

> <i_f3d_flags>
0

> <s_epik_input>
W0NIMl0xT1tDSDJdW0NIMl1bQ0BIXTFbQ0BIXShbQ0gyXVtPSF0pW0NIMl1uKFtjSF1uMiljKGMyMyluW2NIXW5jM040W0NIMl1bQ0gyXVtDSDJdW0NIMl1bQ0BIXTRbQ0BASF01W0NIMl1bQ0gyXVtDSDJdW0NASF01W09IXQ==

> <s_epik_cmdline>
J2VwaWtfcHl0aG9uJywgJy1waCcsICc3LjAnLCAnLXRuJywgJzgnLCAnLW1hJywgJzIwMCcsICctbWV0YWxfYmluZGluZycsICctaW1hZScsICc8aW5maWxlLm1hZT4nLCAnLW9tYWUnLCAnPG91dGZpbGUubWFlPic=

> <r_lp_tautomer_probability>
1

> <r_epik_Ionization_Penalty>
0.00556303

> <r_epik_Ionization_Penalty_Charging>
0

> <r_epik_Ionization_Penalty_Neutral>
0.00556303

> <r_epik_State_Penalty>
0.00401767

> <r_epik_Charging_Adjusted_Penalty>
0.00401767

> <i_epik_Tot_Q>
0

> <i_epik_Tot_abs_Q>
0

> <r_epik_Metal_State_Penalty>
-0

> <b_epik_Metal_Only>
0

> <s_lp_Force_Field>
OPLS_2005

> <r_lp_Energy>
68.5956

> <b_lp_Chiralities_Consistent>
1

> <s_lp_Variant>
AV-unprocessed.smi:148-3

> <Gold.Version>
5.8.1

> <Gold.Id.Protein>
6NUR|6NUR_protein|mol2

> <Gold.PLP.Fitness>
48.7972

> <Gold.PLP.PLP>
-40.0604

> <Gold.PLP.part.hbond>
-5.5092

> <Gold.PLP.part.metal>
0.0000

> <Gold.PLP.part.buried>
-8.8891

> <Gold.PLP.part.nonpolar>
-27.7454

> <Gold.PLP.part.repulsive>
1.4103

> <Gold.PLP.ligand.clash>
0.0000

> <Gold.PLP.ligand.torsion>
0.8589

> <Gold.PLP.Chemscore.Hbond>
3.2806

> <Gold.PLP.Chemscore.CHOScore>
0.0000

> <Gold.PLP.Chemscore.Metal>
0.0000

> <Gold.Chemscore.Hbonds>
donor molecule, donor type, donor heavy atom, donor atom, acceptor molecule, acceptor atom, score
      L1  H     1    31       P1  7948  0.99
      L1  H    21    55       P1  7957  1.00
      P1  H  7989  7998       L1    22  0.20
      P1  H 10752 10765       L1    24  1.00

> <Gold.PLP.Chemscore.Internal.Correction>
0.6127

> <Gold.Rescore>
     Score         DG    S(hbond)    S(metal)    S(lipo)     H(rot)  DE(clash)    DE(int)     intcor
     14.09     -16.09       2.65        0.00      87.63       3.32       0.29       1.72       ----

> <Gold.Chemscore.Fitness>
14.0857

> <Gold.Chemscore.DG>
-16.0903

> <Gold.Chemscore.ZeroCoef>
-5.4800

> <Gold.Chemscore.Hbond>
2.6521

> <Gold.Chemscore.Metal>
0.0000

> <Gold.Chemscore.Lipo>
87.6275

> <Gold.Chemscore.Internal_Hbond>
0.0000

> <Gold.Chemscore.DEClash>
0.2852

> <Gold.Chemscore.DEInternal>
1.7194

> <Gold.Chemscore.Rot>
3.3203

> <Gold.Chemscore.Internal.Correction>
   9.000000E+99

> <Gold.Chemscore.Hbonds>
donor molecule, donor type, donor heavy atom, donor atom, acceptor molecule, acceptor atom, score
      L1  H     1    31       P1  7948  0.88
      L1  H    21    55       P1  7957  1.00
      P1  H  7989  7998       L1    22  0.01
      P1  H 10752 10765       L1    24  0.62

> <Gold.Chemscore.Hbond.Weighted>
-8.8579

> <Gold.Chemscore.Metal.Weighted>
-0.0000

> <Gold.Chemscore.Lipo.Weighted>
-10.2524

> <Gold.Chemscore.Internal_Hbond.Weighted>
0.0000

> <Gold.Chemscore.DEClash.Weighted>
0.2852

> <Gold.Chemscore.DEInternal.Weighted>
1.7194

> <Gold.Chemscore.Rot.Weighted>
8.5000

> <Gold.Chemscore.Internal.Correction.Weighted>
   9.000000E+99

> <Gold.Protein.RotatedTorsions>
[ 6907 6896 6895 6894 ] final  -11.83 input  -60.11 | X-H torsion
[ 7974 7965 7964 7962 ] final -141.46 input  175.53 | X-H torsion
[ 8008 7997 7996 7995 ] final   90.50 input   59.86 | X-H torsion
[ 10167 10162 10161 10158 ] final  -43.62 input  -65.29 | X-H torsion
[ 10718 10713 10712 10709 ] final  -65.64 input   66.30 | X-H torsion
[ 10763 10752 10751 10750 ] final  146.28 input  -60.55 | X-H torsion
[ 11005 11000 10999 10996 ] final   61.82 input  -57.11 | X-H torsion

> <Gold.Protein.ActiveResidues>
 VAL166  LYS551  ARG553  GLY616  TRP617  ASP618  TYR619  PRO620  LYS621  CYS622 
 ASP623  PHE694  ASN695  SER759  ASP760  ASP761  ALA762  ILE779  LEU786  VAL792 
 PHE793  MET794  SER795  GLU796  ALA797  LYS798  CYS799  TRP800  GLU811  SER814 

> <Gold.Protein.RotatedAtoms>
  151.3800  135.0938  159.9492 H   0  0  0  0  0  0  0  0  0  0  0  0  # atno 6907 bound_to 6896
  152.5111  133.9081  159.7485 H   0  0  0  0  0  0  0  0  0  0  0  0  # atno 6908 bound_to 6896
  150.9513  133.6491  159.2800 H   0  0  0  0  0  0  0  0  0  0  0  0  # atno 6909 bound_to 6896
  144.8518  140.6077  143.5385 H   0  0  0  0  0  0  0  0  0  0  0  0  # atno 7974 bound_to 7965
  156.0127  140.3348  155.6957 H   0  0  0  0  0  0  0  0  0  0  0  0  # atno 8008 bound_to 7997
  155.6135  140.0667  157.2717 H   0  0  0  0  0  0  0  0  0  0  0  0  # atno 8009 bound_to 7997
  154.4287  140.1789  156.1284 H   0  0  0  0  0  0  0  0  0  0  0  0  # atno 8010 bound_to 7997
  140.6927  143.2973  151.3379 H   0  0  0  0  0  0  0  0  0  0  0  0  # atno 10167 bound_to 10162
  156.0658  130.4250  150.1593 H   0  0  0  0  0  0  0  0  0  0  0  0  # atno 10718 bound_to 10713
  154.0192  135.2907  155.3383 H   0  0  0  0  0  0  0  0  0  0  0  0  # atno 10763 bound_to 10752
  154.7056  135.5170  153.8594 H   0  0  0  0  0  0  0  0  0  0  0  0  # atno 10764 bound_to 10752
  153.0688  135.6640  154.0416 H   0  0  0  0  0  0  0  0  0  0  0  0  # atno 10765 bound_to 10752
  140.0134  134.6261  155.9745 H   0  0  0  0  0  0  0  0  0  0  0  0  # atno 11005 bound_to 11000
  145.4485  139.1526  143.3931 LP  0  0  0  0  0  0  0  0  0  0  0  0  # atno 17320 bound_to 7965
  146.2791  140.4610  142.8783 LP  0  0  0  0  0  0  0  0  0  0  0  0  # atno 17321 bound_to 7965
  139.6347  144.0654  152.2505 LP  0  0  0  0  0  0  0  0  0  0  0  0  # atno 17342 bound_to 10162
  140.0140  144.6203  150.7623 LP  0  0  0  0  0  0  0  0  0  0  0  0  # atno 17343 bound_to 10162
  156.9653  130.9817  151.3470 LP  0  0  0  0  0  0  0  0  0  0  0  0  # atno 17370 bound_to 10713
  157.5698  130.8303  149.8377 LP  0  0  0  0  0  0  0  0  0  0  0  0  # atno 17371 bound_to 10713
  141.1727  133.6538  156.4710 LP  0  0  0  0  0  0  0  0  0  0  0  0  # atno 17394 bound_to 11000
  140.4513  134.6926  157.5041 LP  0  0  0  0  0  0  0  0  0  0  0  0  # atno 17395 bound_to 11000

$$$$
