AV-unprocessed.smi:1554|AV-procd|sdf|6243|dock9
  -GOLD-   22720 6423D 1   1.00000     0.00000
 Structure written by MMmdl.
 47 49  0  0  0  0  0  0  0  0  1 V2000
  153.3049  143.3705  163.3839 C   0  0  0  0  0  0  0  0  0  0  0  0
  152.9348  142.9019  161.9876 C   0  0  0  0  0  0  0  0  0  0  0  0
  152.0037  143.6527  161.2350 C   0  0  0  0  0  0  0  0  0  0  0  0
  151.6342  143.2519  159.9322 C   0  0  0  0  0  0  0  0  0  0  0  0
  150.7584  143.8295  159.0288 N   0  0  0  0  0  0  0  0  0  0  0  0
  150.8432  142.9908  158.0003 C   0  0  0  0  0  0  0  0  0  0  0  0
  151.6696  141.9355  158.1310 N   0  0  0  0  0  0  0  0  0  0  0  0
  151.9168  140.8937  157.1497 C   0  0  0  0  0  0  0  0  0  0  0  0
  150.8268  140.8308  156.0626 C   0  0  1  0  0  0  0  0  0  0  0  0
  151.2168  139.9111  155.0616 O   0  0  0  0  0  0  0  0  0  0  0  0
  149.4760  140.3704  156.6462 C   0  0  0  0  0  0  0  0  0  0  0  0
  148.3812  140.2383  155.6826 N   0  0  0  0  0  0  0  0  0  0  0  0
  148.4277  141.2498  154.6288 C   0  0  0  0  0  0  0  0  0  0  0  0
  147.2499  141.1117  153.6491 C   0  0  0  0  0  0  0  0  0  0  0  0
  146.0210  141.1747  154.3648 O   0  0  0  0  0  0  0  0  0  0  0  0
  145.9115  140.1711  155.3699 C   0  0  2  0  0  0  0  0  0  0  0  0
  144.5539  140.3283  156.0628 C   0  0  0  0  0  0  0  0  0  0  0  0
  147.0882  140.3173  156.3542 C   0  0  0  0  0  0  0  0  0  0  0  0
  152.2224  142.0673  159.4004 C   0  0  0  0  0  0  0  0  0  0  0  0
  153.1504  141.3124  160.1393 C   0  0  0  0  0  0  0  0  0  0  0  0
  153.5129  141.7298  161.4369 C   0  0  0  0  0  0  0  0  0  0  0  0
  154.5220  140.9113  162.2227 C   0  0  0  0  0  0  0  0  0  0  0  0
  152.7036  144.2276  163.6881 H   0  0  0  0  0  0  0  0  0  0  0  0
  154.3537  143.6656  163.4202 H   0  0  0  0  0  0  0  0  0  0  0  0
  153.1426  142.5757  164.1121 H   0  0  0  0  0  0  0  0  0  0  0  0
  151.5652  144.5467  161.6530 H   0  0  0  0  0  0  0  0  0  0  0  0
  150.2699  143.1515  157.0990 H   0  0  0  0  0  0  0  0  0  0  0  0
  152.8974  141.0608  156.7019 H   0  0  0  0  0  0  0  0  0  0  0  0
  151.9756  139.9402  157.6761 H   0  0  0  0  0  0  0  0  0  0  0  0
  150.7374  141.8177  155.6100 H   0  0  0  0  0  0  0  0  0  0  0  0
  151.6774  139.1978  155.4772 H   0  0  0  0  0  0  0  0  0  0  0  0
  149.6351  139.4114  157.1419 H   0  0  0  0  0  0  0  0  0  0  0  0
  149.1729  141.0614  157.4343 H   0  0  0  0  0  0  0  0  0  0  0  0
  148.4132  142.2469  155.0714 H   0  0  0  0  0  0  0  0  0  0  0  0
  149.3549  141.1714  154.0632 H   0  0  0  0  0  0  0  0  0  0  0  0
  147.2742  141.9140  152.9115 H   0  0  0  0  0  0  0  0  0  0  0  0
  147.3121  140.1704  153.1010 H   0  0  0  0  0  0  0  0  0  0  0  0
  145.9514  139.1891  154.8951 H   0  0  0  0  0  0  0  0  0  0  0  0
  144.4181  139.5725  156.8368 H   0  0  0  0  0  0  0  0  0  0  0  0
  143.7372  140.2227  155.3485 H   0  0  0  0  0  0  0  0  0  0  0  0
  144.4617  141.3084  156.5316 H   0  0  0  0  0  0  0  0  0  0  0  0
  147.0203  139.5366  157.1130 H   0  0  0  0  0  0  0  0  0  0  0  0
  147.0044  141.2699  156.8802 H   0  0  0  0  0  0  0  0  0  0  0  0
  153.5834  140.4225  159.7067 H   0  0  0  0  0  0  0  0  0  0  0  0
  154.9075  140.0808  161.6305 H   0  0  0  0  0  0  0  0  0  0  0  0
  154.0618  140.4980  163.1204 H   0  0  0  0  0  0  0  0  0  0  0  0
  155.3687  141.5302  162.5200 H   0  0  0  0  0  0  0  0  0  0  0  0
  1  2  1  0  0  0  0
  1 23  1  0  0  0  0
  1 24  1  0  0  0  0
  1 25  1  0  0  0  0
  2 21  1  0  0  0  0
  2  3  2  0  0  0  0
  3  4  1  0  0  0  0
  3 26  1  0  0  0  0
  4 19  2  0  0  0  0
  4  5  1  0  0  0  0
  5  6  2  0  0  0  0
  6  7  1  0  0  0  0
  6 27  1  0  0  0  0
  7  8  1  0  0  0  0
  7 19  1  0  0  0  0
  8  9  1  0  0  0  0
  8 28  1  0  0  0  0
  8 29  1  0  0  0  0
  9 10  1  0  0  0  0
  9 11  1  0  0  0  0
  9 30  1  0  0  0  0
 10 31  1  0  0  0  0
 11 12  1  0  0  0  0
 11 32  1  0  0  0  0
 11 33  1  0  0  0  0
 12 18  1  0  0  0  0
 12 13  1  0  0  0  0
 13 14  1  0  0  0  0
 13 34  1  0  0  0  0
 13 35  1  0  0  0  0
 14 15  1  0  0  0  0
 14 36  1  0  0  0  0
 14 37  1  0  0  0  0
 15 16  1  0  0  0  0
 16 17  1  0  0  0  0
 16 18  1  0  0  0  0
 16 38  1  0  0  0  0
 17 39  1  0  0  0  0
 17 40  1  0  0  0  0
 17 41  1  0  0  0  0
 18 42  1  0  0  0  0
 18 43  1  0  0  0  0
 19 20  1  0  0  0  0
 20 21  2  0  0  0  0
 20 44  1  0  0  0  0
 21 22  1  0  0  0  0
 22 45  1  0  0  0  0
 22 46  1  0  0  0  0
 22 47  1  0  0  0  0
M  END
> <s_m_source_file>
AV-unprocessed.smi

> <i_m_source_file_index>
1554

> <i_lp_mmshare_version>
43012

> <i_f3d_flags>
0

> <s_epik_input>
W0NIM11jKFtjSF0xKWMoW0NIM10pW2NIXWMoYzEyKW4oW2NIXW4yKVtDSDJdW0NASF0oW09IXSlbQ0gyXU4zW0NIMl1bQ0gyXU9bQ0BASF0oW0NIM10pW0NIMl0z

> <s_epik_cmdline>
J2VwaWtfcHl0aG9uJywgJy1waCcsICc3LjAnLCAnLXRuJywgJzgnLCAnLW1hJywgJzIwMCcsICctbWV0YWxfYmluZGluZycsICctaW1hZScsICc8aW5maWxlLm1hZT4nLCAnLW9tYWUnLCAnPG91dGZpbGUubWFlPic=

> <r_epik_Ionization_Penalty>
0.345108

> <r_epik_Ionization_Penalty_Charging>
0

> <r_epik_Ionization_Penalty_Neutral>
0.345108

> <r_epik_State_Penalty>
0.314544

> <r_epik_Charging_Adjusted_Penalty>
0.314544

> <i_epik_Tot_Q>
0

> <i_epik_Tot_abs_Q>
0

> <r_epik_Metal_State_Penalty>
0.239719

> <b_epik_Metal_Only>
0

> <s_lp_Force_Field>
OPLS_2005

> <r_lp_Energy>
29.2504

> <b_lp_Chiralities_Consistent>
1

> <s_lp_Variant>
AV-unprocessed.smi:1554-4

> <Gold.Version>
5.8.1

> <Gold.Id.Protein>
6NUR|6NUR_protein|mol2

> <Gold.PLP.Fitness>
50.7119

> <Gold.PLP.PLP>
-45.7343

> <Gold.PLP.part.hbond>
-1.0000

> <Gold.PLP.part.metal>
0.0000

> <Gold.PLP.part.buried>
-6.4897

> <Gold.PLP.part.nonpolar>
-36.7062

> <Gold.PLP.part.repulsive>
0.3378

> <Gold.PLP.ligand.clash>
0.0000

> <Gold.PLP.ligand.torsion>
0.5135

> <Gold.PLP.Chemscore.Hbond>
1.0000

> <Gold.PLP.Chemscore.CHOScore>
1.0000

> <Gold.PLP.Chemscore.Metal>
0.0000

> <Gold.Chemscore.Hbonds>
donor molecule, donor type, donor heavy atom, donor atom, acceptor molecule, acceptor atom, score
      P1  H  7989  7998       L1    10  1.00
      L1  C     6    27       P1  8028  1.00

> <Gold.PLP.Chemscore.Internal.Correction>
0.0046

> <Gold.Rescore>
     Score         DG    S(hbond)    S(metal)    S(lipo)     H(rot)  DE(clash)    DE(int)     intcor
     17.34     -17.83       0.95        0.00     121.98       1.98       0.08       0.41       ----

> <Gold.Chemscore.Fitness>
17.3362

> <Gold.Chemscore.DG>
-17.8312

> <Gold.Chemscore.ZeroCoef>
-5.4800

> <Gold.Chemscore.Hbond>
0.9463

> <Gold.Chemscore.Metal>
0.0000

> <Gold.Chemscore.Lipo>
121.9785

> <Gold.Chemscore.Internal_Hbond>
0.0000

> <Gold.Chemscore.DEClash>
0.0815

> <Gold.Chemscore.DEInternal>
0.4135

> <Gold.Chemscore.Rot>
1.9848

> <Gold.Chemscore.Internal.Correction>
   9.000000E+99

> <Gold.Chemscore.Hbonds>
donor molecule, donor type, donor heavy atom, donor atom, acceptor molecule, acceptor atom, score
      P1  H  7989  7998       L1    10  0.70

> <Gold.Chemscore.Hbond.Weighted>
-3.1607

> <Gold.Chemscore.Metal.Weighted>
-0.0000

> <Gold.Chemscore.Lipo.Weighted>
-14.2715

> <Gold.Chemscore.Internal_Hbond.Weighted>
0.0000

> <Gold.Chemscore.DEClash.Weighted>
0.0815

> <Gold.Chemscore.DEInternal.Weighted>
0.4135

> <Gold.Chemscore.Rot.Weighted>
5.0810

> <Gold.Chemscore.Internal.Correction.Weighted>
   9.000000E+99

> <Gold.Protein.RotatedTorsions>
[ 6907 6896 6895 6894 ] final   73.66 input  -60.11 | X-H torsion
[ 7974 7965 7964 7962 ] final   31.84 input  175.53 | X-H torsion
[ 8008 7997 7996 7995 ] final -153.74 input   59.86 | X-H torsion
[ 10167 10162 10161 10158 ] final   76.25 input  -65.29 | X-H torsion
[ 10718 10713 10712 10709 ] final  110.71 input   66.30 | X-H torsion
[ 10763 10752 10751 10750 ] final  -25.11 input  -60.55 | X-H torsion
[ 11005 11000 10999 10996 ] final   63.43 input  -57.11 | X-H torsion

> <Gold.Protein.ActiveResidues>
 VAL166  LYS551  ARG553  GLY616  TRP617  ASP618  TYR619  PRO620  LYS621  CYS622 
 ASP623  PHE694  ASN695  SER759  ASP760  ASP761  ALA762  ILE779  LEU786  VAL792 
 PHE793  MET794  SER795  GLU796  ALA797  LYS798  CYS799  TRP800  GLU811  SER814 

> <Gold.Protein.RotatedAtoms>
  152.4935  134.4388  159.9536 H   0  0  0  0  0  0  0  0  0  0  0  0  # atno 6907 bound_to 6896
  151.4371  133.3647  159.2784 H   0  0  0  0  0  0  0  0  0  0  0  0  # atno 6908 bound_to 6896
  150.9113  134.8553  159.7487 H   0  0  0  0  0  0  0  0  0  0  0  0  # atno 6909 bound_to 6896
  146.1524  139.6603  142.9089 H   0  0  0  0  0  0  0  0  0  0  0  0  # atno 7974 bound_to 7965
  155.6756  140.0738  157.2504 H   0  0  0  0  0  0  0  0  0  0  0  0  # atno 8008 bound_to 7997
  154.4115  140.1691  156.1978 H   0  0  0  0  0  0  0  0  0  0  0  0  # atno 8009 bound_to 7997
  155.9579  140.3372  155.6468 H   0  0  0  0  0  0  0  0  0  0  0  0  # atno 8010 bound_to 7997
  139.9943  144.5734  150.7791 H   0  0  0  0  0  0  0  0  0  0  0  0  # atno 10167 bound_to 10162
  157.6481  131.0937  150.6642 H   0  0  0  0  0  0  0  0  0  0  0  0  # atno 10718 bound_to 10713
  153.6945  135.6960  153.5080 H   0  0  0  0  0  0  0  0  0  0  0  0  # atno 10763 bound_to 10752
  153.2388  135.4313  155.0674 H   0  0  0  0  0  0  0  0  0  0  0  0  # atno 10764 bound_to 10752
  154.8363  135.3502  154.6486 H   0  0  0  0  0  0  0  0  0  0  0  0  # atno 10765 bound_to 10752
  140.0025  134.6420  155.9907 H   0  0  0  0  0  0  0  0  0  0  0  0  # atno 11005 bound_to 11000
  145.4790  141.0437  143.2656 LP  0  0  0  0  0  0  0  0  0  0  0  0  # atno 17320 bound_to 7965
  144.7921  139.6308  143.7109 LP  0  0  0  0  0  0  0  0  0  0  0  0  # atno 17321 bound_to 7965
  140.7443  143.2859  151.3466 LP  0  0  0  0  0  0  0  0  0  0  0  0  # atno 17342 bound_to 10162
  139.6317  144.0707  152.2482 LP  0  0  0  0  0  0  0  0  0  0  0  0  # atno 17343 bound_to 10162
  156.6956  130.4608  149.5587 LP  0  0  0  0  0  0  0  0  0  0  0  0  # atno 17370 bound_to 10713
  156.1831  130.6511  151.0974 LP  0  0  0  0  0  0  0  0  0  0  0  0  # atno 17371 bound_to 10713
  141.1653  133.6537  156.4457 LP  0  0  0  0  0  0  0  0  0  0  0  0  # atno 17394 bound_to 11000
  140.4701  134.6761  157.5125 LP  0  0  0  0  0  0  0  0  0  0  0  0  # atno 17395 bound_to 11000

$$$$
