AV-unprocessed.smi:3145|AV-procd|sdf|11982|dock4
  -GOLD-   2272017383D 1   1.00000     0.00000
 Structure written by MMmdl.
 34 34  0  0  0  0  0  0  0  0  1 V2000
  147.0234  131.7074  153.3600 C   0  0  0  0  0  0  0  0  0  0  0  0
  147.3870  132.9499  152.5351 C   0  0  1  0  0  0  0  0  0  0  0  0
  146.1181  133.7245  152.1131 C   0  0  0  0  0  0  0  0  0  0  0  0
  145.4199  133.1173  150.9933 N   0  0  0  0  0  0  0  0  0  0  0  0
  145.9572  132.4680  149.9018 C   0  0  0  0  0  0  0  0  0  0  0  0
  144.9165  132.0725  149.1112 C   0  0  0  0  0  0  0  0  0  0  0  0
  143.7662  132.5269  149.8146 C   0  0  0  0  0  0  0  0  0  0  0  0
  144.0699  133.1517  150.9407 N   0  0  0  0  0  0  0  0  0  0  0  0
  148.2408  133.7919  153.3671 N   0  0  0  0  0  0  0  0  0  0  0  0
  147.5241  134.3508  154.5203 C   0  0  0  0  0  0  0  0  0  0  0  0
  148.4392  135.2278  155.3695 C   0  0  0  0  0  0  0  0  0  0  0  0
  148.5065  135.0579  156.5864 O   0  0  0  0  0  0  0  0  0  0  0  0
  149.1414  136.1611  154.7113 N   0  0  0  0  0  0  0  0  0  0  0  0
  150.0649  137.0957  155.3388 C   0  0  0  0  0  0  0  0  0  0  0  0
  150.8162  137.9148  154.2827 C   0  0  0  0  0  0  0  0  0  0  0  0
  150.9884  139.3268  154.6582 C   0  0  0  0  0  0  0  0  0  0  0  0
  151.1232  140.4374  154.9531 N   0  0  0  0  0  0  0  0  0  0  0  0
  146.3909  131.0296  152.7860 H   0  0  0  0  0  0  0  0  0  0  0  0
  146.4826  131.9738  154.2691 H   0  0  0  0  0  0  0  0  0  0  0  0
  147.9153  131.1518  153.6520 H   0  0  0  0  0  0  0  0  0  0  0  0
  147.9252  132.6088  151.6486 H   0  0  0  0  0  0  0  0  0  0  0  0
  145.4184  133.7690  152.9487 H   0  0  0  0  0  0  0  0  0  0  0  0
  146.3633  134.7589  151.8647 H   0  0  0  0  0  0  0  0  0  0  0  0
  147.0234  132.3468  149.7788 H   0  0  0  0  0  0  0  0  0  0  0  0
  144.9681  131.5385  148.1740 H   0  0  0  0  0  0  0  0  0  0  0  0
  142.7270  132.4202  149.5425 H   0  0  0  0  0  0  0  0  0  0  0  0
  148.6413  134.5270  152.8019 H   0  0  0  0  0  0  0  0  0  0  0  0
  146.6694  134.9323  154.1718 H   0  0  0  0  0  0  0  0  0  0  0  0
  147.1317  133.5561  155.1546 H   0  0  0  0  0  0  0  0  0  0  0  0
  149.0188  136.2293  153.7106 H   0  0  0  0  0  0  0  0  0  0  0  0
  149.5046  137.7668  155.9912 H   0  0  0  0  0  0  0  0  0  0  0  0
  150.7722  136.5522  155.9670 H   0  0  0  0  0  0  0  0  0  0  0  0
  151.8014  137.4877  154.0930 H   0  0  0  0  0  0  0  0  0  0  0  0
  150.2706  137.8940  153.3393 H   0  0  0  0  0  0  0  0  0  0  0  0
  1  2  1  0  0  0  0
  1 18  1  0  0  0  0
  1 19  1  0  0  0  0
  1 20  1  0  0  0  0
  2  3  1  0  0  0  0
  2  9  1  0  0  0  0
  2 21  1  0  0  0  0
  3  4  1  0  0  0  0
  3 22  1  0  0  0  0
  3 23  1  0  0  0  0
  4  8  1  0  0  0  0
  4  5  1  0  0  0  0
  5  6  2  0  0  0  0
  5 24  1  0  0  0  0
  6  7  1  0  0  0  0
  6 25  1  0  0  0  0
  7  8  2  0  0  0  0
  7 26  1  0  0  0  0
  9 10  1  0  0  0  0
  9 27  1  0  0  0  0
 10 11  1  0  0  0  0
 10 28  1  0  0  0  0
 10 29  1  0  0  0  0
 11 12  2  0  0  0  0
 11 13  1  0  0  0  0
 13 14  1  0  0  0  0
 13 30  1  0  0  0  0
 14 15  1  0  0  0  0
 14 31  1  0  0  0  0
 14 32  1  0  0  0  0
 15 16  1  0  0  0  0
 15 33  1  0  0  0  0
 15 34  1  0  0  0  0
 16 17  3  0  0  0  0
M  END
> <s_m_source_file>
AV-unprocessed.smi

> <i_m_source_file_index>
3145

> <i_lp_mmshare_version>
43012

> <i_f3d_flags>
0

> <s_epik_input>
bjFbY0hdW2NIXVtjSF1uMVtDSDJdW0NAQEhdKFtDSDNdKVtOSF1bQ0gyXUMoPU8pW05IXVtDSDJdW0NIMl1DI04=

> <s_epik_cmdline>
J2VwaWtfcHl0aG9uJywgJy1waCcsICc3LjAnLCAnLXRuJywgJzgnLCAnLW1hJywgJzIwMCcsICctbWV0YWxfYmluZGluZycsICctaW1hZScsICc8aW5maWxlLm1hZT4nLCAnLW9tYWUnLCAnPG91dGZpbGUubWFlPic=

> <r_lp_tautomer_probability>
1

> <r_epik_Ionization_Penalty>
0.765991

> <r_epik_Ionization_Penalty_Charging>
0

> <r_epik_Ionization_Penalty_Neutral>
0.765991

> <r_epik_State_Penalty>
0.794192

> <r_epik_Charging_Adjusted_Penalty>
0.794192

> <i_epik_Tot_Q>
0

> <i_epik_Tot_abs_Q>
0

> <r_epik_Metal_State_Penalty>
0.806127

> <b_epik_Metal_Only>
0

> <s_lp_Force_Field>
OPLS_2005

> <r_lp_Energy>
5.51507

> <b_lp_Chiralities_Consistent>
1

> <s_lp_Variant>
AV-unprocessed.smi:3145-4

> <Gold.Version>
5.8.1

> <Gold.Id.Protein>
6NUR|6NUR_protein|mol2

> <Gold.PLP.Fitness>
42.5324

> <Gold.PLP.PLP>
-30.2520

> <Gold.PLP.part.hbond>
-3.0000

> <Gold.PLP.part.metal>
0.0000

> <Gold.PLP.part.buried>
-4.3596

> <Gold.PLP.part.nonpolar>
-24.8778

> <Gold.PLP.part.repulsive>
0.2338

> <Gold.PLP.ligand.clash>
0.0000

> <Gold.PLP.ligand.torsion>
0.9015

> <Gold.PLP.Chemscore.Hbond>
2.4875

> <Gold.PLP.Chemscore.CHOScore>
2.1621

> <Gold.PLP.Chemscore.Metal>
0.0000

> <Gold.Chemscore.Hbonds>
donor molecule, donor type, donor heavy atom, donor atom, acceptor molecule, acceptor atom, score
      L1  H     9    27       P1  7948  0.75
      L1  H    13    30       P1  7948  1.00
      P1  H  7989  7998       L1    17  0.70
      L1  C     5    24       P1 10747  1.00
      L1  C     7    26       P1 10186  0.66
      L1  C     7    26       P1 10952  0.30

> <Gold.PLP.Chemscore.Internal.Correction>
0.1345

> <Gold.Rescore>
     Score         DG    S(hbond)    S(metal)    S(lipo)     H(rot)  DE(clash)    DE(int)     intcor
     11.02     -12.09       1.79        0.00      66.77       2.80       0.07       1.00       ----

> <Gold.Chemscore.Fitness>
11.0190

> <Gold.Chemscore.DG>
-12.0940

> <Gold.Chemscore.ZeroCoef>
-5.4800

> <Gold.Chemscore.Hbond>
1.7878

> <Gold.Chemscore.Metal>
0.0000

> <Gold.Chemscore.Lipo>
66.7707

> <Gold.Chemscore.Internal_Hbond>
0.0000

> <Gold.Chemscore.DEClash>
0.0727

> <Gold.Chemscore.DEInternal>
1.0023

> <Gold.Chemscore.Rot>
2.8006

> <Gold.Chemscore.Internal.Correction>
   9.000000E+99

> <Gold.Chemscore.Hbonds>
donor molecule, donor type, donor heavy atom, donor atom, acceptor molecule, acceptor atom, score
      L1  H     9    27       P1  7948  0.09
      L1  H    13    30       P1  7948  0.98
      P1  H  7989  7998       L1    17  0.07

> <Gold.Chemscore.Hbond.Weighted>
-5.9714

> <Gold.Chemscore.Metal.Weighted>
-0.0000

> <Gold.Chemscore.Lipo.Weighted>
-7.8122

> <Gold.Chemscore.Internal_Hbond.Weighted>
0.0000

> <Gold.Chemscore.DEClash.Weighted>
0.0727

> <Gold.Chemscore.DEInternal.Weighted>
1.0023

> <Gold.Chemscore.Rot.Weighted>
7.1696

> <Gold.Chemscore.Internal.Correction.Weighted>
   9.000000E+99

> <Gold.Protein.RotatedTorsions>
[ 6907 6896 6895 6894 ] final  113.46 input  -60.11 | X-H torsion
[ 7974 7965 7964 7962 ] final -143.56 input  175.53 | X-H torsion
[ 8008 7997 7996 7995 ] final -157.65 input   59.86 | X-H torsion
[ 10167 10162 10161 10158 ] final  139.38 input  -65.29 | X-H torsion
[ 10718 10713 10712 10709 ] final    4.46 input   66.30 | X-H torsion
[ 10763 10752 10751 10750 ] final  -63.92 input  -60.55 | X-H torsion
[ 11005 11000 10999 10996 ] final  -87.08 input  -57.11 | X-H torsion

> <Gold.Protein.ActiveResidues>
 VAL166  LYS551  ARG553  GLY616  TRP617  ASP618  TYR619  PRO620  LYS621  CYS622 
 ASP623  PHE694  ASN695  SER759  ASP760  ASP761  ALA762  ILE779  LEU786  VAL792 
 PHE793  MET794  SER795  GLU796  ALA797  LYS798  CYS799  TRP800  GLU811  SER814 

> <Gold.Protein.RotatedAtoms>
  152.4859  133.8372  159.7133 H   0  0  0  0  0  0  0  0  0  0  0  0  # atno 6907 bound_to 6896
  150.8946  133.7189  159.2902 H   0  0  0  0  0  0  0  0  0  0  0  0  # atno 6908 bound_to 6896
  151.4651  135.1045  159.9788 H   0  0  0  0  0  0  0  0  0  0  0  0  # atno 6909 bound_to 6896
  144.8361  140.5820  143.5483 H   0  0  0  0  0  0  0  0  0  0  0  0  # atno 7974 bound_to 7965
  155.7356  140.0807  157.2269 H   0  0  0  0  0  0  0  0  0  0  0  0  # atno 8008 bound_to 7997
  154.4028  140.1587  156.2613 H   0  0  0  0  0  0  0  0  0  0  0  0  # atno 8009 bound_to 7997
  155.9068  140.3406  155.6071 H   0  0  0  0  0  0  0  0  0  0  0  0  # atno 8010 bound_to 7997
  139.5080  144.6298  151.5847 H   0  0  0  0  0  0  0  0  0  0  0  0  # atno 10167 bound_to 10162
  156.8929  130.5694  149.5649 H   0  0  0  0  0  0  0  0  0  0  0  0  # atno 10718 bound_to 10713
  154.3223  135.6194  153.5513 H   0  0  0  0  0  0  0  0  0  0  0  0  # atno 10763 bound_to 10752
  152.9819  135.5727  154.5056 H   0  0  0  0  0  0  0  0  0  0  0  0  # atno 10764 bound_to 10752
  154.4727  135.2860  155.1607 H   0  0  0  0  0  0  0  0  0  0  0  0  # atno 10765 bound_to 10752
  141.1622  133.7491  156.9255 H   0  0  0  0  0  0  0  0  0  0  0  0  # atno 11005 bound_to 11000
  145.4793  139.1497  143.3771 LP  0  0  0  0  0  0  0  0  0  0  0  0  # atno 17320 bound_to 7965
  146.2659  140.4928  142.8834 LP  0  0  0  0  0  0  0  0  0  0  0  0  # atno 17321 bound_to 7965
  140.6027  143.9581  150.6397 LP  0  0  0  0  0  0  0  0  0  0  0  0  # atno 17342 bound_to 10162
  140.2798  143.3397  152.1162 LP  0  0  0  0  0  0  0  0  0  0  0  0  # atno 17343 bound_to 10162
  156.0620  130.5671  150.9212 LP  0  0  0  0  0  0  0  0  0  0  0  0  # atno 17370 bound_to 10713
  157.6073  131.0938  150.8857 LP  0  0  0  0  0  0  0  0  0  0  0  0  # atno 17371 bound_to 10713
  140.1422  134.9286  157.2482 LP  0  0  0  0  0  0  0  0  0  0  0  0  # atno 17394 bound_to 11000
  140.2823  134.3336  155.7339 LP  0  0  0  0  0  0  0  0  0  0  0  0  # atno 17395 bound_to 11000

$$$$
