AV-unprocessed.smi:248|AV-procd|sdf|1896|dock4
  -GOLD-   2262020563D 1   1.00000     0.00000
 Structure written by MMmdl.
 62 65  0  0  0  0  0  0  0  0  1 V2000
  151.1831  141.9327  158.1141 C   0  0  0  0  0  0  0  0  0  0  0  0
  151.6094  143.0547  159.0726 C   0  0  0  0  0  0  0  0  0  0  0  0
  150.9585  144.3856  158.6581 C   0  0  0  0  0  0  0  0  0  0  0  0
  153.1523  143.1223  159.1725 C   0  0  0  0  0  0  0  0  0  0  0  0
  153.6964  142.3684  160.3120 N   0  0  0  0  0  0  0  0  0  0  0  0
  154.9503  141.6612  160.0257 C   0  0  0  0  0  0  0  0  0  0  0  0
  155.2078  140.5042  160.9950 C   0  0  0  0  0  0  0  0  0  0  0  0
  155.0572  140.9801  162.3613 N   0  0  0  0  0  0  0  0  0  0  0  0
  155.5521  140.1045  163.2656 C   0  0  0  0  0  0  0  0  0  0  0  0
  156.3366  140.5479  164.2824 N   0  0  0  0  0  0  0  0  0  0  0  0
  156.8134  139.6809  165.1806 C   0  0  0  0  0  0  0  0  0  0  0  0
  156.6318  138.3598  165.2440 N   0  0  0  0  0  0  0  0  0  0  0  0
  155.8486  137.9140  164.2199 C   0  0  0  0  0  0  0  0  0  0  0  0
  155.2672  138.7161  163.1991 C   0  0  0  0  0  0  0  0  0  0  0  0
  154.5218  137.9262  162.3350 N   0  0  0  0  0  0  0  0  0  0  0  0
  154.6523  136.7216  162.8201 C   0  0  0  0  0  0  0  0  0  0  0  0
  155.4469  136.6178  163.9414 N   0  0  0  0  0  0  0  0  0  0  0  0
  155.7507  135.4008  164.6837 C   0  0  0  0  0  0  0  0  0  0  0  0
  156.5083  134.2970  163.8783 C   0  0  0  0  0  0  0  0  0  0  0  0
  157.2330  134.9635  162.6748 C   0  0  0  0  0  0  0  0  0  0  0  0
  157.9166  134.0431  161.8467 O   0  0  0  0  0  0  0  0  0  0  0  0
  157.5388  133.5458  164.7608 C   0  0  0  0  0  0  0  0  0  0  0  0
  156.8685  132.6509  165.8201 C   0  0  0  0  0  0  0  0  0  0  0  0
  155.9873  131.7292  165.1905 O   0  0  0  0  0  0  0  0  0  0  0  0
  154.9212  132.3679  164.4994 C   0  0  0  0  0  0  0  0  0  0  0  0
  155.4812  133.2515  163.3693 C   0  0  0  0  0  0  0  0  0  0  0  0
  153.7601  141.5822  162.6990 C   0  0  1  0  0  0  0  0  0  0  0  0
  153.8794  142.4204  163.9919 C   0  0  0  0  0  0  0  0  0  0  0  0
  153.1364  142.4102  161.5479 C   0  0  0  0  0  0  0  0  0  0  0  0
  152.1182  143.0626  161.7834 O   0  0  0  0  0  0  0  0  0  0  0  0
  151.5362  142.1229  157.1003 H   0  0  0  0  0  0  0  0  0  0  0  0
  150.0975  141.8376  158.0758 H   0  0  0  0  0  0  0  0  0  0  0  0
  151.5844  140.9698  158.4312 H   0  0  0  0  0  0  0  0  0  0  0  0
  151.2201  142.7971  160.0584 H   0  0  0  0  0  0  0  0  0  0  0  0
  151.3488  144.7363  157.7023 H   0  0  0  0  0  0  0  0  0  0  0  0
  151.1322  145.1656  159.3991 H   0  0  0  0  0  0  0  0  0  0  0  0
  149.8783  144.2784  158.5563 H   0  0  0  0  0  0  0  0  0  0  0  0
  153.5902  142.7257  158.2551 H   0  0  0  0  0  0  0  0  0  0  0  0
  153.4755  144.1642  159.2060 H   0  0  0  0  0  0  0  0  0  0  0  0
  154.9504  141.2821  159.0031 H   0  0  0  0  0  0  0  0  0  0  0  0
  155.7666  142.3819  160.0914 H   0  0  0  0  0  0  0  0  0  0  0  0
  154.4997  139.6950  160.8069 H   0  0  0  0  0  0  0  0  0  0  0  0
  156.2089  140.1012  160.8317 H   0  0  0  0  0  0  0  0  0  0  0  0
  157.4275  140.1060  165.9610 H   0  0  0  0  0  0  0  0  0  0  0  0
  154.1735  135.8668  162.3649 H   0  0  0  0  0  0  0  0  0  0  0  0
  156.3011  135.6919  165.5771 H   0  0  0  0  0  0  0  0  0  0  0  0
  154.8045  134.9986  165.0488 H   0  0  0  0  0  0  0  0  0  0  0  0
  156.5186  135.5073  162.0556 H   0  0  0  0  0  0  0  0  0  0  0  0
  157.9707  135.6881  163.0194 H   0  0  0  0  0  0  0  0  0  0  0  0
  157.4319  133.2321  161.8337 H   0  0  0  0  0  0  0  0  0  0  0  0
  158.1590  132.9014  164.1368 H   0  0  0  0  0  0  0  0  0  0  0  0
  158.2297  134.2416  165.2356 H   0  0  0  0  0  0  0  0  0  0  0  0
  157.6280  132.0886  166.3630 H   0  0  0  0  0  0  0  0  0  0  0  0
  156.3270  133.2368  166.5625 H   0  0  0  0  0  0  0  0  0  0  0  0
  154.2729  131.5992  164.0785 H   0  0  0  0  0  0  0  0  0  0  0  0
  154.3081  132.9399  165.1963 H   0  0  0  0  0  0  0  0  0  0  0  0
  154.6640  133.7445  162.8417 H   0  0  0  0  0  0  0  0  0  0  0  0
  155.9466  132.5857  162.6424 H   0  0  0  0  0  0  0  0  0  0  0  0
  153.0486  140.7762  162.8858 H   0  0  0  0  0  0  0  0  0  0  0  0
  152.9320  142.8888  164.2606 H   0  0  0  0  0  0  0  0  0  0  0  0
  154.6212  143.2122  163.8808 H   0  0  0  0  0  0  0  0  0  0  0  0
  154.1743  141.8081  164.8443 H   0  0  0  0  0  0  0  0  0  0  0  0
  1  2  1  0  0  0  0
  1 31  1  0  0  0  0
  1 32  1  0  0  0  0
  1 33  1  0  0  0  0
  2  3  1  0  0  0  0
  2  4  1  0  0  0  0
  2 34  1  0  0  0  0
  3 35  1  0  0  0  0
  3 36  1  0  0  0  0
  3 37  1  0  0  0  0
  4  5  1  0  0  0  0
  4 38  1  0  0  0  0
  4 39  1  0  0  0  0
  5 29  1  0  0  0  0
  5  6  1  0  0  0  0
  6  7  1  0  0  0  0
  6 40  1  0  0  0  0
  6 41  1  0  0  0  0
  7  8  1  0  0  0  0
  7 42  1  0  0  0  0
  7 43  1  0  0  0  0
  8  9  1  0  0  0  0
  8 27  1  0  0  0  0
  9 14  1  0  0  0  0
  9 10  2  0  0  0  0
 10 11  1  0  0  0  0
 11 12  2  0  0  0  0
 11 44  1  0  0  0  0
 12 13  1  0  0  0  0
 13 17  1  0  0  0  0
 13 14  2  0  0  0  0
 14 15  1  0  0  0  0
 15 16  2  0  0  0  0
 16 17  1  0  0  0  0
 16 45  1  0  0  0  0
 17 18  1  0  0  0  0
 18 19  1  0  0  0  0
 18 46  1  0  0  0  0
 18 47  1  0  0  0  0
 19 26  1  0  0  0  0
 19 20  1  0  0  0  0
 19 22  1  0  0  0  0
 20 21  1  0  0  0  0
 20 48  1  0  0  0  0
 20 49  1  0  0  0  0
 21 50  1  0  0  0  0
 22 23  1  0  0  0  0
 22 51  1  0  0  0  0
 22 52  1  0  0  0  0
 23 24  1  0  0  0  0
 23 53  1  0  0  0  0
 23 54  1  0  0  0  0
 24 25  1  0  0  0  0
 25 26  1  0  0  0  0
 25 55  1  0  0  0  0
 25 56  1  0  0  0  0
 26 57  1  0  0  0  0
 26 58  1  0  0  0  0
 27 28  1  0  0  0  0
 27 29  1  0  0  0  0
 27 59  1  0  0  0  0
 28 60  1  0  0  0  0
 28 61  1  0  0  0  0
 28 62  1  0  0  0  0
 29 30  2  0  0  0  0
M  END
> <s_m_source_file>
AV-unprocessed.smi

> <i_m_source_file_index>
248

> <i_lp_mmshare_version>
43012

> <i_f3d_flags>
0

> <s_epik_input>
W0NIM11bQ0hdKFtDSDNdKVtDSDJdTjFbQ0gyXVtDSDJdTihbQ0BASF0oW0NIM10pQzE9TyljKG5bY0hdbjIpYyhjMjMpbltjSF1uM1tDSDJdQzQoW0NIMl1bT0hdKVtDSDJdW0NIMl1PW0NIMl1bQ0gyXTQ=

> <s_epik_cmdline>
J2VwaWtfcHl0aG9uJywgJy1waCcsICc3LjAnLCAnLXRuJywgJzgnLCAnLW1hJywgJzIwMCcsICctbWV0YWxfYmluZGluZycsICctaW1hZScsICc8aW5maWxlLm1hZT4nLCAnLW9tYWUnLCAnPG91dGZpbGUubWFlPic=

> <r_lp_tautomer_probability>
1

> <r_epik_Ionization_Penalty>
0.000593973

> <r_epik_Ionization_Penalty_Charging>
0

> <r_epik_Ionization_Penalty_Neutral>
0.000593973

> <r_epik_State_Penalty>
0.000283267

> <r_epik_Charging_Adjusted_Penalty>
0.000283267

> <i_epik_Tot_Q>
0

> <i_epik_Tot_abs_Q>
0

> <r_epik_Metal_State_Penalty>
-0

> <b_epik_Metal_Only>
0

> <s_lp_Force_Field>
OPLS_2005

> <r_lp_Energy>
46.1111

> <b_lp_Chiralities_Consistent>
1

> <s_lp_Variant>
AV-unprocessed.smi:248-1

> <Gold.Version>
5.8.1

> <Gold.Id.Protein>
6NUR|6NUR_protein|mol2

> <Gold.PLP.Fitness>
48.2236

> <Gold.PLP.PLP>
-52.0197

> <Gold.PLP.part.hbond>
-1.0000

> <Gold.PLP.part.metal>
0.0000

> <Gold.PLP.part.buried>
-4.4144

> <Gold.PLP.part.nonpolar>
-45.7445

> <Gold.PLP.part.repulsive>
0.2002

> <Gold.PLP.ligand.clash>
0.0000

> <Gold.PLP.ligand.torsion>
2.1014

> <Gold.PLP.Chemscore.Hbond>
0.0000

> <Gold.PLP.Chemscore.CHOScore>
0.0000

> <Gold.PLP.Chemscore.Metal>
0.0000

> <Gold.PLP.Chemscore.Internal.Correction>
0.4068

> <Gold.Rescore>
     Score         DG    S(hbond)    S(metal)    S(lipo)     H(rot)  DE(clash)    DE(int)     intcor
      8.64     -12.70       0.00        0.00     121.95       2.75       0.83       3.24       ----

> <Gold.Chemscore.Fitness>
8.6351

> <Gold.Chemscore.DG>
-12.7022

> <Gold.Chemscore.ZeroCoef>
-5.4800

> <Gold.Chemscore.Hbond>
0.0000

> <Gold.Chemscore.Metal>
0.0000

> <Gold.Chemscore.Lipo>
121.9495

> <Gold.Chemscore.Internal_Hbond>
0.0000

> <Gold.Chemscore.DEClash>
0.8259

> <Gold.Chemscore.DEInternal>
3.2412

> <Gold.Chemscore.Rot>
2.7523

> <Gold.Chemscore.Internal.Correction>
   9.000000E+99

> <Gold.Chemscore.Hbonds>
donor molecule, donor type, donor heavy atom, donor atom, acceptor molecule, acceptor atom, score
      P1  H  6933  6945       L1    30  0.02

> <Gold.Chemscore.Hbond.Weighted>
-0.0000

> <Gold.Chemscore.Metal.Weighted>
-0.0000

> <Gold.Chemscore.Lipo.Weighted>
-14.2681

> <Gold.Chemscore.Internal_Hbond.Weighted>
0.0000

> <Gold.Chemscore.DEClash.Weighted>
0.8259

> <Gold.Chemscore.DEInternal.Weighted>
3.2412

> <Gold.Chemscore.Rot.Weighted>
7.0459

> <Gold.Chemscore.Internal.Correction.Weighted>
   9.000000E+99

> <Gold.Protein.RotatedTorsions>
[ 6907 6896 6895 6894 ] final  130.27 input  -60.11 | X-H torsion
[ 7974 7965 7964 7962 ] final  -18.68 input  175.53 | X-H torsion
[ 8008 7997 7996 7995 ] final   72.53 input   59.86 | X-H torsion
[ 10167 10162 10161 10158 ] final  -35.70 input  -65.29 | X-H torsion
[ 10718 10713 10712 10709 ] final   70.62 input   66.30 | X-H torsion
[ 10763 10752 10751 10750 ] final -161.40 input  -60.55 | X-H torsion
[ 11005 11000 10999 10996 ] final  -60.25 input  -57.11 | X-H torsion

> <Gold.Protein.ActiveResidues>
 VAL166  LYS551  ARG553  GLY616  TRP617  ASP618  TYR619  PRO620  LYS621  CYS622 
 ASP623  PHE694  ASN695  SER759  ASP760  ASP761  ALA762  ILE779  LEU786  VAL792 
 PHE793  MET794  SER795  GLU796  ALA797  LYS798  CYS799  TRP800  GLU811  SER814 

> <Gold.Protein.RotatedAtoms>
  152.3542  133.6217  159.5966 H   0  0  0  0  0  0  0  0  0  0  0  0  # atno 6907 bound_to 6896
  150.7558  133.9526  159.3499 H   0  0  0  0  0  0  0  0  0  0  0  0  # atno 6908 bound_to 6896
  151.7374  135.0863  160.0361 H   0  0  0  0  0  0  0  0  0  0  0  0  # atno 6909 bound_to 6896
  146.1880  140.3956  142.8469 H   0  0  0  0  0  0  0  0  0  0  0  0  # atno 7974 bound_to 7965
  155.7702  140.3484  155.5243 H   0  0  0  0  0  0  0  0  0  0  0  0  # atno 8008 bound_to 7997
  155.8829  140.1005  157.1494 H   0  0  0  0  0  0  0  0  0  0  0  0  # atno 8009 bound_to 7997
  154.4026  140.1319  156.4206 H   0  0  0  0  0  0  0  0  0  0  0  0  # atno 8010 bound_to 7997
  140.7159  143.3459  151.2257 H   0  0  0  0  0  0  0  0  0  0  0  0  # atno 10167 bound_to 10162
  157.6409  130.9486  150.0675 H   0  0  0  0  0  0  0  0  0  0  0  0  # atno 10718 bound_to 10713
  154.7306  135.3045  154.8897 H   0  0  0  0  0  0  0  0  0  0  0  0  # atno 10763 bound_to 10752
  153.9741  135.6738  153.4752 H   0  0  0  0  0  0  0  0  0  0  0  0  # atno 10764 bound_to 10752
  153.0915  135.4957  154.8620 H   0  0  0  0  0  0  0  0  0  0  0  0  # atno 10765 bound_to 10752
  141.1280  133.6621  156.5194 H   0  0  0  0  0  0  0  0  0  0  0  0  # atno 11005 bound_to 11000
  144.8432  140.6890  143.6216 LP  0  0  0  0  0  0  0  0  0  0  0  0  # atno 17320 bound_to 7965
  145.3881  139.1622  143.4244 LP  0  0  0  0  0  0  0  0  0  0  0  0  # atno 17321 bound_to 7965
  139.6978  143.9583  152.2891 LP  0  0  0  0  0  0  0  0  0  0  0  0  # atno 17342 bound_to 10162
  139.9266  144.6767  150.8406 LP  0  0  0  0  0  0  0  0  0  0  0  0  # atno 17343 bound_to 10162
  156.1689  130.3646  149.9193 LP  0  0  0  0  0  0  0  0  0  0  0  0  # atno 17370 bound_to 10713
  156.7173  130.8993  151.3615 LP  0  0  0  0  0  0  0  0  0  0  0  0  # atno 17371 bound_to 10713
  140.4304  134.7106  157.4939 LP  0  0  0  0  0  0  0  0  0  0  0  0  # atno 17394 bound_to 11000
  140.0297  134.6424  155.9123 LP  0  0  0  0  0  0  0  0  0  0  0  0  # atno 17395 bound_to 11000

$$$$
