AV-unprocessed.smi:212|AV-procd|sdf|1631|dock7
  -GOLD-   2262019583D 1   1.00000     0.00000
 Structure written by MMmdl.
 65 68  0  0  0  0  0  0  0  0  2 V2000
  147.8129  134.2734  156.8568 C   0  0  0  0  0  0  0  0  0  0  0  0
  148.3197  135.2710  155.8013 C   0  0  2  0  0  0  0  0  0  0  0  0
  147.7610  134.9660  154.3958 C   0  0  0  0  0  0  0  0  0  0  0  0
  148.3848  133.7493  153.8112 N   0  3  1  0  0  0  0  0  0  0  0  0
  147.7827  133.3447  152.5136 C   0  0  0  0  0  0  0  0  0  0  0  0
  146.8029  132.1565  152.6591 C   0  0  0  0  0  0  0  0  0  0  0  0
  146.0811  132.2280  154.0153 C   0  0  0  0  0  0  0  0  0  0  0  0
  145.7769  132.1029  151.5122 C   0  0  0  0  0  0  0  0  0  0  0  0
  147.5355  130.9473  152.6558 O   0  0  0  0  0  0  0  0  0  0  0  0
  149.8653  133.8473  153.7663 C   0  0  0  0  0  0  0  0  0  0  0  0
  150.4404  134.1577  155.1606 C   0  0  0  0  0  0  0  0  0  0  0  0
  149.7837  135.3202  155.7616 N   0  0  0  0  0  0  0  0  0  0  0  0
  150.3331  136.5499  155.5764 C   0  0  0  0  0  0  0  0  0  0  0  0
  151.0260  136.8200  154.4379 N   0  0  0  0  0  0  0  0  0  0  0  0
  151.5588  138.0294  154.2404 C   0  0  0  0  0  0  0  0  0  0  0  0
  151.5214  139.0976  155.0383 N   0  0  0  0  0  0  0  0  0  0  0  0
  150.8357  138.8321  156.1865 C   0  0  0  0  0  0  0  0  0  0  0  0
  150.2171  137.5978  156.5336 C   0  0  0  0  0  0  0  0  0  0  0  0
  149.6251  137.7021  157.7873 N   0  0  0  0  0  0  0  0  0  0  0  0
  149.8751  138.9286  158.1577 C   0  0  0  0  0  0  0  0  0  0  0  0
  150.5987  139.6761  157.2570 N   0  0  0  0  0  0  0  0  0  0  0  0
  151.0164  141.0575  157.4155 C   0  0  0  0  0  0  0  0  0  0  0  0
  151.7159  141.3464  158.7728 C   0  0  1  0  0  0  0  0  0  0  0  0
  153.0902  140.6480  158.9227 C   0  0  0  0  0  0  0  0  0  0  0  0
  153.2100  139.5234  158.0756 O   0  0  0  0  0  0  0  0  0  0  0  0
  151.8541  142.8610  159.0822 C   0  0  1  0  0  0  0  0  0  0  0  0
  150.6240  143.7313  158.8304 C   0  0  0  0  0  0  0  0  0  0  0  0
  150.6918  144.7976  159.9293 C   0  0  0  0  0  0  0  0  0  0  0  0
  151.9586  144.6222  160.5497 O   0  0  0  0  0  0  0  0  0  0  0  0
  152.2580  143.2376  160.5087 C   0  0  0  0  0  0  0  0  0  0  0  0
  146.7247  134.2938  156.9194 H   0  0  0  0  0  0  0  0  0  0  0  0
  148.2019  134.5226  157.8445 H   0  0  0  0  0  0  0  0  0  0  0  0
  148.1087  133.2489  156.6306 H   0  0  0  0  0  0  0  0  0  0  0  0
  147.9252  136.2456  156.0868 H   0  0  0  0  0  0  0  0  0  0  0  0
  146.6778  134.8540  154.4440 H   0  0  0  0  0  0  0  0  0  0  0  0
  147.9559  135.8128  153.7356 H   0  0  0  0  0  0  0  0  0  0  0  0
  147.2889  134.1982  152.0455 H   0  0  0  0  0  0  0  0  0  0  0  0
  148.5716  133.0517  151.8185 H   0  0  0  0  0  0  0  0  0  0  0  0
  145.4849  133.1375  154.0979 H   0  0  0  0  0  0  0  0  0  0  0  0
  146.7893  132.2240  154.8450 H   0  0  0  0  0  0  0  0  0  0  0  0
  145.4076  131.3814  154.1549 H   0  0  0  0  0  0  0  0  0  0  0  0
  145.1917  133.0216  151.4657 H   0  0  0  0  0  0  0  0  0  0  0  0
  145.0782  131.2757  151.6435 H   0  0  0  0  0  0  0  0  0  0  0  0
  146.2574  131.9685  150.5423 H   0  0  0  0  0  0  0  0  0  0  0  0
  148.1248  130.9534  151.9165 H   0  0  0  0  0  0  0  0  0  0  0  0
  150.2866  132.9091  153.4034 H   0  0  0  0  0  0  0  0  0  0  0  0
  150.1529  134.6217  153.0539 H   0  0  0  0  0  0  0  0  0  0  0  0
  150.2898  133.3009  155.8174 H   0  0  0  0  0  0  0  0  0  0  0  0
  151.5205  134.3004  155.1068 H   0  0  0  0  0  0  0  0  0  0  0  0
  152.0910  138.1602  153.3096 H   0  0  0  0  0  0  0  0  0  0  0  0
  149.5431  139.3235  159.1070 H   0  0  0  0  0  0  0  0  0  0  0  0
  151.6679  141.3098  156.5797 H   0  0  0  0  0  0  0  0  0  0  0  0
  150.1248  141.6726  157.3031 H   0  0  0  0  0  0  0  0  0  0  0  0
  151.0692  140.9463  159.5557 H   0  0  0  0  0  0  0  0  0  0  0  0
  153.9049  141.3452  158.7251 H   0  0  0  0  0  0  0  0  0  0  0  0
  153.2269  140.2860  159.9422 H   0  0  0  0  0  0  0  0  0  0  0  0
  153.2674  138.7478  158.6126 H   0  0  0  0  0  0  0  0  0  0  0  0
  152.6475  143.2523  158.4427 H   0  0  0  0  0  0  0  0  0  0  0  0
  150.6659  144.1776  157.8362 H   0  0  0  0  0  0  0  0  0  0  0  0
  149.6870  143.1806  158.9000 H   0  0  0  0  0  0  0  0  0  0  0  0
  150.5841  145.8095  159.5383 H   0  0  0  0  0  0  0  0  0  0  0  0
  149.9064  144.6336  160.6685 H   0  0  0  0  0  0  0  0  0  0  0  0
  151.6618  142.7301  161.2665 H   0  0  0  0  0  0  0  0  0  0  0  0
  153.3121  143.0480  160.7125 H   0  0  0  0  0  0  0  0  0  0  0  0
  148.1814  132.9957  154.4521 H   0  0  0  0  0  0  0  0  0  0  0  0
  1  2  1  0  0  0  0
  1 31  1  0  0  0  0
  1 32  1  0  0  0  0
  1 33  1  0  0  0  0
  2 12  1  0  0  0  0
  2  3  1  0  0  0  0
  2 34  1  0  0  0  0
  3  4  1  0  0  0  0
  3 35  1  0  0  0  0
  3 36  1  0  0  0  0
  4  5  1  0  0  0  0
  4 10  1  0  0  0  0
  4 65  1  0  0  0  0
  5  6  1  0  0  0  0
  5 37  1  0  0  0  0
  5 38  1  0  0  0  0
  6  7  1  0  0  0  0
  6  8  1  0  0  0  0
  6  9  1  0  0  0  0
  7 39  1  0  0  0  0
  7 40  1  0  0  0  0
  7 41  1  0  0  0  0
  8 42  1  0  0  0  0
  8 43  1  0  0  0  0
  8 44  1  0  0  0  0
  9 45  1  0  0  0  0
 10 11  1  0  0  0  0
 10 46  1  0  0  0  0
 10 47  1  0  0  0  0
 11 12  1  0  0  0  0
 11 48  1  0  0  0  0
 11 49  1  0  0  0  0
 12 13  1  0  0  0  0
 13 18  1  0  0  0  0
 13 14  2  0  0  0  0
 14 15  1  0  0  0  0
 15 16  2  0  0  0  0
 15 50  1  0  0  0  0
 16 17  1  0  0  0  0
 17 21  1  0  0  0  0
 17 18  2  0  0  0  0
 18 19  1  0  0  0  0
 19 20  2  0  0  0  0
 20 21  1  0  0  0  0
 20 51  1  0  0  0  0
 21 22  1  0  0  0  0
 22 23  1  0  0  0  0
 22 52  1  0  0  0  0
 22 53  1  0  0  0  0
 23 24  1  0  0  0  0
 23 26  1  0  0  0  0
 23 54  1  0  0  0  0
 24 25  1  0  0  0  0
 24 55  1  0  0  0  0
 24 56  1  0  0  0  0
 25 57  1  0  0  0  0
 26 30  1  0  0  0  0
 26 27  1  0  0  0  0
 26 58  1  0  0  0  0
 27 28  1  0  0  0  0
 27 59  1  0  0  0  0
 27 60  1  0  0  0  0
 28 29  1  0  0  0  0
 28 61  1  0  0  0  0
 28 62  1  0  0  0  0
 29 30  1  0  0  0  0
 30 63  1  0  0  0  0
 30 64  1  0  0  0  0
M  CHG  1   4   1
M  END
> <s_m_source_file>
AV-unprocessed.smi

> <i_m_source_file_index>
212

> <i_lp_mmshare_version>
43012

> <i_f3d_flags>
0

> <s_epik_input>
W0NIM11bQ0BASF0xW0NIMl1OKFtDSDJdQyhbQ0gzXSkoW0NIM10pW09IXSlbQ0gyXVtDSDJdTjFjKG5bY0hdbjIpYyhjMjMpbltjSF1uM1tDSDJdW0NASF0oW0NIMl1bT0hdKVtDQEBIXTRbQ0gyXVtDSDJdT1tDSDJdNA==

> <s_epik_cmdline>
J2VwaWtfcHl0aG9uJywgJy1waCcsICc3LjAnLCAnLXRuJywgJzgnLCAnLW1hJywgJzIwMCcsICctbWV0YWxfYmluZGluZycsICctaW1hZScsICc8aW5maWxlLm1hZT4nLCAnLW9tYWUnLCAnPG91dGZpbGUubWFlPic=

> <r_lp_tautomer_probability>
1

> <r_epik_Ionization_Penalty>
0.00182193

> <r_epik_Ionization_Penalty_Charging>
0.00173996

> <r_epik_Ionization_Penalty_Neutral>
8.19718e-05

> <r_epik_State_Penalty>
-0

> <r_epik_Charging_Adjusted_Penalty>
0.00173996

> <i_epik_Tot_Q>
1

> <i_epik_Tot_abs_Q>
1

> <r_epik_Metal_State_Penalty>
-0

> <b_epik_Metal_Only>
0

> <s_lp_Force_Field>
OPLS_2005

> <r_lp_Energy>
59.1595

> <b_lp_Chiralities_Consistent>
1

> <s_lp_Variant>
AV-unprocessed.smi:212-15

> <Gold.Version>
5.8.1

> <Gold.Id.Protein>
6NUR|6NUR_protein|mol2

> <Gold.PLP.Fitness>
46.6685

> <Gold.PLP.PLP>
-41.8862

> <Gold.PLP.part.hbond>
-3.1503

> <Gold.PLP.part.metal>
0.0000

> <Gold.PLP.part.buried>
-6.8332

> <Gold.PLP.part.nonpolar>
-31.3967

> <Gold.PLP.part.repulsive>
0.3008

> <Gold.PLP.ligand.clash>
0.0000

> <Gold.PLP.ligand.torsion>
2.5724

> <Gold.PLP.Chemscore.Hbond>
2.9500

> <Gold.PLP.Chemscore.CHOScore>
0.0000

> <Gold.PLP.Chemscore.Metal>
0.0000

> <Gold.Chemscore.Hbonds>
donor molecule, donor type, donor heavy atom, donor atom, acceptor molecule, acceptor atom, score
      L1  H     9    45       P1 10747  1.00
      P1  H  7989  7998       L1    16  0.23
      P1  H  7997  8010       L1    25  1.00
      P1  H 10752 10764       L1    14  0.37

> <Gold.PLP.Chemscore.Internal.Correction>
1.0771

> <Gold.Rescore>
     Score         DG    S(hbond)    S(metal)    S(lipo)     H(rot)  DE(clash)    DE(int)     intcor
     11.24     -16.67       2.30        0.00     104.36       3.40       1.13       4.30       ----

> <Gold.Chemscore.Fitness>
11.2394

> <Gold.Chemscore.DG>
-16.6674

> <Gold.Chemscore.ZeroCoef>
-5.4800

> <Gold.Chemscore.Hbond>
2.2988

> <Gold.Chemscore.Metal>
0.0000

> <Gold.Chemscore.Lipo>
104.3571

> <Gold.Chemscore.Internal_Hbond>
0.0000

> <Gold.Chemscore.DEClash>
1.1265

> <Gold.Chemscore.DEInternal>
4.3015

> <Gold.Chemscore.Rot>
3.3986

> <Gold.Chemscore.Internal.Correction>
   9.000000E+99

> <Gold.Chemscore.Hbonds>
donor molecule, donor type, donor heavy atom, donor atom, acceptor molecule, acceptor atom, score
      L1  H     9    45       P1 10747  1.00
      P1  H  7989  7998       L1    16  0.08
      P1  H  7997  8010       L1    25  0.30
      P1  H 10752 10764       L1    14  0.05

> <Gold.Chemscore.Hbond.Weighted>
-7.6781

> <Gold.Chemscore.Metal.Weighted>
-0.0000

> <Gold.Chemscore.Lipo.Weighted>
-12.2098

> <Gold.Chemscore.Internal_Hbond.Weighted>
0.0000

> <Gold.Chemscore.DEClash.Weighted>
1.1265

> <Gold.Chemscore.DEInternal.Weighted>
4.3015

> <Gold.Chemscore.Rot.Weighted>
8.7005

> <Gold.Chemscore.Internal.Correction.Weighted>
   9.000000E+99

> <Gold.Protein.RotatedTorsions>
[ 6907 6896 6895 6894 ] final   -9.92 input  -60.11 | X-H torsion
[ 7974 7965 7964 7962 ] final  -14.13 input  175.53 | X-H torsion
[ 8008 7997 7996 7995 ] final   38.65 input   59.86 | X-H torsion
[ 10167 10162 10161 10158 ] final  -11.11 input  -65.29 | X-H torsion
[ 10718 10713 10712 10709 ] final  164.85 input   66.30 | X-H torsion
[ 10763 10752 10751 10750 ] final  -57.13 input  -60.55 | X-H torsion
[ 11005 11000 10999 10996 ] final -100.02 input  -57.11 | X-H torsion

> <Gold.Protein.ActiveResidues>
 VAL166  LYS551  ARG553  GLY616  TRP617  ASP618  TYR619  PRO620  LYS621  CYS622 
 ASP623  PHE694  ASN695  SER759  ASP760  ASP761  ALA762  ILE779  LEU786  VAL792 
 PHE793  MET794  SER795  GLU796  ALA797  LYS798  CYS799  TRP800  GLU811  SER814 

> <Gold.Protein.RotatedAtoms>
  151.4102  135.0984  159.9582 H   0  0  0  0  0  0  0  0  0  0  0  0  # atno 6907 bound_to 6896
  152.5022  133.8805  159.7354 H   0  0  0  0  0  0  0  0  0  0  0  0  # atno 6908 bound_to 6896
  150.9298  133.6724  159.2841 H   0  0  0  0  0  0  0  0  0  0  0  0  # atno 6909 bound_to 6896
  146.2087  140.3303  142.8398 H   0  0  0  0  0  0  0  0  0  0  0  0  # atno 7974 bound_to 7965
  155.2236  140.3333  155.4312 H   0  0  0  0  0  0  0  0  0  0  0  0  # atno 8008 bound_to 7997
  156.2323  140.1856  156.7257 H   0  0  0  0  0  0  0  0  0  0  0  0  # atno 8009 bound_to 7997
  154.5999  140.0625  156.9340 H   0  0  0  0  0  0  0  0  0  0  0  0  # atno 8010 bound_to 7997
  140.7130  143.5675  150.9129 H   0  0  0  0  0  0  0  0  0  0  0  0  # atno 10167 bound_to 10162
  157.0885  131.0411  151.2547 H   0  0  0  0  0  0  0  0  0  0  0  0  # atno 10718 bound_to 10713
  154.2175  135.6383  153.5134 H   0  0  0  0  0  0  0  0  0  0  0  0  # atno 10763 bound_to 10752
  152.9976  135.5489  154.6149 H   0  0  0  0  0  0  0  0  0  0  0  0  # atno 10764 bound_to 10752
  154.5601  135.2908  155.0901 H   0  0  0  0  0  0  0  0  0  0  0  0  # atno 10765 bound_to 10752
  141.1286  133.8367  157.1048 H   0  0  0  0  0  0  0  0  0  0  0  0  # atno 11005 bound_to 11000
  144.8857  140.7458  143.5958 LP  0  0  0  0  0  0  0  0  0  0  0  0  # atno 17320 bound_to 7965
  145.3224  139.1784  143.4580 LP  0  0  0  0  0  0  0  0  0  0  0  0  # atno 17321 bound_to 7965
  139.9400  143.6392  152.3056 LP  0  0  0  0  0  0  0  0  0  0  0  0  # atno 17342 bound_to 10162
  139.6874  144.7650  151.1499 LP  0  0  0  0  0  0  0  0  0  0  0  0  # atno 17343 bound_to 10162
  157.4741  130.7726  149.7351 LP  0  0  0  0  0  0  0  0  0  0  0  0  # atno 17370 bound_to 10713
  155.9904  130.3944  150.3029 LP  0  0  0  0  0  0  0  0  0  0  0  0  # atno 17371 bound_to 10713
  140.0311  134.9901  157.0782 LP  0  0  0  0  0  0  0  0  0  0  0  0  # atno 17394 bound_to 11000
  140.4284  134.1806  155.7167 LP  0  0  0  0  0  0  0  0  0  0  0  0  # atno 17395 bound_to 11000

$$$$
