AV-unprocessed.smi:2153|AV-procd|sdf|8769|dock9
  -GOLD-   2272011553D 1   1.00000     0.00000
 Structure written by MMmdl.
 48 49  0  0  0  0  0  0  0  0  1 V2000
  153.4344  141.2503  160.7035 C   0  0  0  0  0  0  0  0  0  0  0  0
  152.4088  142.2893  160.2227 C   0  0  1  0  0  0  0  0  0  0  0  0
  152.5313  143.5934  161.0368 C   0  0  0  0  0  0  0  0  0  0  0  0
  151.5165  144.6510  160.5775 C   0  0  0  0  0  0  0  0  0  0  0  0
  151.6681  144.9407  159.0790 C   0  0  0  0  0  0  0  0  0  0  0  0
  151.5400  143.6514  158.2575 C   0  0  0  0  0  0  0  0  0  0  0  0
  152.5454  142.5698  158.7087 C   0  0  2  0  0  0  0  0  0  0  0  0
  152.2572  141.3604  158.0190 O   0  0  0  0  0  0  0  0  0  0  0  0
  150.9402  140.8629  158.2136 C   0  0  0  0  0  0  0  0  0  0  0  0
  150.7263  139.6558  157.2858 C   0  0  0  0  0  0  0  0  0  0  0  0
  149.4373  139.0145  157.5269 N   0  0  0  0  0  0  0  0  0  0  0  0
  149.1842  138.1108  158.4859 C   0  0  0  0  0  0  0  0  0  0  0  0
  150.0065  137.7762  159.3381 O   0  0  0  0  0  0  0  0  0  0  0  0
  147.7888  137.4788  158.4726 C   0  0  0  0  0  0  0  0  0  0  0  0
  147.7734  136.2103  159.2121 N   0  0  0  0  0  0  0  0  0  0  0  0
  148.0217  135.0285  158.5371 C   0  0  0  0  0  0  0  0  0  0  0  0
  148.0634  133.8197  159.1389 C   0  0  0  0  0  0  0  0  0  0  0  0
  147.8518  133.6904  160.5755 C   0  0  0  0  0  0  0  0  0  0  0  0
  147.8812  132.6083  161.1624 O   0  0  0  0  0  0  0  0  0  0  0  0
  147.6071  134.9145  161.2434 N   0  0  0  0  0  0  0  0  0  0  0  0
  147.3872  134.8972  162.6746 C   0  0  0  0  0  0  0  0  0  0  0  0
  147.5407  136.1728  160.6043 C   0  0  0  0  0  0  0  0  0  0  0  0
  147.2939  137.2065  161.2300 O   0  0  0  0  0  0  0  0  0  0  0  0
  154.4553  141.5946  160.5358 H   0  0  0  0  0  0  0  0  0  0  0  0
  153.3139  140.3013  160.1804 H   0  0  0  0  0  0  0  0  0  0  0  0
  153.3208  141.0510  161.7693 H   0  0  0  0  0  0  0  0  0  0  0  0
  151.4134  141.8793  160.4017 H   0  0  0  0  0  0  0  0  0  0  0  0
  152.3836  143.3862  162.0972 H   0  0  0  0  0  0  0  0  0  0  0  0
  153.5409  143.9948  160.9395 H   0  0  0  0  0  0  0  0  0  0  0  0
  150.5035  144.3032  160.7836 H   0  0  0  0  0  0  0  0  0  0  0  0
  151.6505  145.5698  161.1490 H   0  0  0  0  0  0  0  0  0  0  0  0
  150.9122  145.6593  158.7614 H   0  0  0  0  0  0  0  0  0  0  0  0
  152.6373  145.4030  158.8879 H   0  0  0  0  0  0  0  0  0  0  0  0
  150.5320  143.2574  158.3675 H   0  0  0  0  0  0  0  0  0  0  0  0
  151.6604  143.8874  157.2010 H   0  0  0  0  0  0  0  0  0  0  0  0
  153.5662  142.8944  158.4972 H   0  0  0  0  0  0  0  0  0  0  0  0
  150.7667  140.5664  159.2476 H   0  0  0  0  0  0  0  0  0  0  0  0
  150.2204  141.6507  157.9900 H   0  0  0  0  0  0  0  0  0  0  0  0
  150.8021  139.9595  156.2409 H   0  0  0  0  0  0  0  0  0  0  0  0
  151.5090  138.9164  157.4561 H   0  0  0  0  0  0  0  0  0  0  0  0
  148.6970  139.2300  156.8752 H   0  0  0  0  0  0  0  0  0  0  0  0
  147.0686  138.1804  158.8969 H   0  0  0  0  0  0  0  0  0  0  0  0
  147.4686  137.3196  157.4416 H   0  0  0  0  0  0  0  0  0  0  0  0
  148.1959  135.0714  157.4717 H   0  0  0  0  0  0  0  0  0  0  0  0
  148.2630  132.9362  158.5503 H   0  0  0  0  0  0  0  0  0  0  0  0
  147.9704  135.7066  163.1177 H   0  0  0  0  0  0  0  0  0  0  0  0
  147.7226  133.9553  163.1082 H   0  0  0  0  0  0  0  0  0  0  0  0
  146.3173  135.0415  162.8325 H   0  0  0  0  0  0  0  0  0  0  0  0
  1  2  1  0  0  0  0
  1 24  1  0  0  0  0
  1 25  1  0  0  0  0
  1 26  1  0  0  0  0
  2  7  1  0  0  0  0
  2  3  1  0  0  0  0
  2 27  1  0  0  0  0
  3  4  1  0  0  0  0
  3 28  1  0  0  0  0
  3 29  1  0  0  0  0
  4  5  1  0  0  0  0
  4 30  1  0  0  0  0
  4 31  1  0  0  0  0
  5  6  1  0  0  0  0
  5 32  1  0  0  0  0
  5 33  1  0  0  0  0
  6  7  1  0  0  0  0
  6 34  1  0  0  0  0
  6 35  1  0  0  0  0
  7  8  1  0  0  0  0
  7 36  1  0  0  0  0
  8  9  1  0  0  0  0
  9 10  1  0  0  0  0
  9 37  1  0  0  0  0
  9 38  1  0  0  0  0
 10 11  1  0  0  0  0
 10 39  1  0  0  0  0
 10 40  1  0  0  0  0
 11 12  1  0  0  0  0
 11 41  1  0  0  0  0
 12 13  2  0  0  0  0
 12 14  1  0  0  0  0
 14 15  1  0  0  0  0
 14 42  1  0  0  0  0
 14 43  1  0  0  0  0
 15 22  1  0  0  0  0
 15 16  1  0  0  0  0
 16 17  2  0  0  0  0
 16 44  1  0  0  0  0
 17 18  1  0  0  0  0
 17 45  1  0  0  0  0
 18 19  2  0  0  0  0
 18 20  1  0  0  0  0
 20 21  1  0  0  0  0
 20 22  1  0  0  0  0
 21 46  1  0  0  0  0
 21 47  1  0  0  0  0
 21 48  1  0  0  0  0
 22 23  2  0  0  0  0
M  END
> <s_m_source_file>
AV-unprocessed.smi

> <i_m_source_file_index>
2153

> <i_lp_mmshare_version>
43012

> <i_f3d_flags>
0

> <s_epik_input>
W0NIM11bQ0BASF0xW0NIMl1bQ0gyXVtDSDJdW0NIMl1bQ0BIXTFPW0NIMl1bQ0gyXVtOSF1DKD1PKVtDSDJdbjJbY0hdW2NIXWMoPU8pbihbQ0gzXSljMj1P

> <s_epik_cmdline>
J2VwaWtfcHl0aG9uJywgJy1waCcsICc3LjAnLCAnLXRuJywgJzgnLCAnLW1hJywgJzIwMCcsICctbWV0YWxfYmluZGluZycsICctaW1hZScsICc8aW5maWxlLm1hZT4nLCAnLW9tYWUnLCAnPG91dGZpbGUubWFlPic=

> <r_lp_tautomer_probability>
1

> <r_epik_Ionization_Penalty>
4.02205e-08

> <r_epik_Ionization_Penalty_Charging>
1.23606e-08

> <r_epik_Ionization_Penalty_Neutral>
2.78599e-08

> <r_epik_State_Penalty>
-0

> <r_epik_Charging_Adjusted_Penalty>
1.23606e-08

> <i_epik_Tot_Q>
0

> <i_epik_Tot_abs_Q>
0

> <r_epik_Metal_State_Penalty>
-0

> <b_epik_Metal_Only>
0

> <s_lp_Force_Field>
OPLS_2005

> <r_lp_Energy>
17.7366

> <b_lp_Chiralities_Consistent>
1

> <s_lp_Variant>
AV-unprocessed.smi:2153-4

> <Gold.Version>
5.8.1

> <Gold.Id.Protein>
6NUR|6NUR_protein|mol2

> <Gold.PLP.Fitness>
50.6174

> <Gold.PLP.PLP>
-46.8741

> <Gold.PLP.part.hbond>
-3.0000

> <Gold.PLP.part.metal>
0.0000

> <Gold.PLP.part.buried>
-5.5206

> <Gold.PLP.part.nonpolar>
-37.8194

> <Gold.PLP.part.repulsive>
0.0848

> <Gold.PLP.ligand.clash>
0.0000

> <Gold.PLP.ligand.torsion>
0.8393

> <Gold.PLP.Chemscore.Hbond>
1.7920

> <Gold.PLP.Chemscore.CHOScore>
0.0000

> <Gold.PLP.Chemscore.Metal>
0.0000

> <Gold.Chemscore.Hbonds>
donor molecule, donor type, donor heavy atom, donor atom, acceptor molecule, acceptor atom, score
      P1  H  6931  6943       L1    23  0.63
      P1  H  6934  6947       L1    23  1.00

> <Gold.PLP.Chemscore.Internal.Correction>
0.0459

> <Gold.Rescore>
     Score         DG    S(hbond)    S(metal)    S(lipo)     H(rot)  DE(clash)    DE(int)     intcor
     17.18     -18.20       1.77        0.00     106.22       2.20       0.17       0.85       ----

> <Gold.Chemscore.Fitness>
17.1751

> <Gold.Chemscore.DG>
-18.1981

> <Gold.Chemscore.ZeroCoef>
-5.4800

> <Gold.Chemscore.Hbond>
1.7707

> <Gold.Chemscore.Metal>
0.0000

> <Gold.Chemscore.Lipo>
106.2211

> <Gold.Chemscore.Internal_Hbond>
0.0000

> <Gold.Chemscore.DEClash>
0.1692

> <Gold.Chemscore.DEInternal>
0.8539

> <Gold.Chemscore.Rot>
2.1968

> <Gold.Chemscore.Internal.Correction>
   9.000000E+99

> <Gold.Chemscore.Hbonds>
donor molecule, donor type, donor heavy atom, donor atom, acceptor molecule, acceptor atom, score
      P1  H  6931  6943       L1    23  0.55
      P1  H  6934  6947       L1    23  0.96

> <Gold.Chemscore.Hbond.Weighted>
-5.9140

> <Gold.Chemscore.Metal.Weighted>
-0.0000

> <Gold.Chemscore.Lipo.Weighted>
-12.4279

> <Gold.Chemscore.Internal_Hbond.Weighted>
0.0000

> <Gold.Chemscore.DEClash.Weighted>
0.1692

> <Gold.Chemscore.DEInternal.Weighted>
0.8539

> <Gold.Chemscore.Rot.Weighted>
5.6238

> <Gold.Chemscore.Internal.Correction.Weighted>
   9.000000E+99

> <Gold.Protein.RotatedTorsions>
[ 6907 6896 6895 6894 ] final -160.35 input  -60.11 | X-H torsion
[ 7974 7965 7964 7962 ] final  -14.97 input  175.53 | X-H torsion
[ 8008 7997 7996 7995 ] final   11.78 input   59.86 | X-H torsion
[ 10167 10162 10161 10158 ] final  -37.89 input  -65.29 | X-H torsion
[ 10718 10713 10712 10709 ] final -107.09 input   66.30 | X-H torsion
[ 10763 10752 10751 10750 ] final  160.72 input  -60.55 | X-H torsion
[ 11005 11000 10999 10996 ] final  -67.37 input  -57.11 | X-H torsion

> <Gold.Protein.ActiveResidues>
 VAL166  LYS551  ARG553  GLY616  TRP617  ASP618  TYR619  PRO620  LYS621  CYS622 
 ASP623  PHE694  ASN695  SER759  ASP760  ASP761  ALA762  ILE779  LEU786  VAL792 
 PHE793  MET794  SER795  GLU796  ALA797  LYS798  CYS799  TRP800  GLU811  SER814 

> <Gold.Protein.RotatedAtoms>
  151.3477  133.3937  159.2676 H   0  0  0  0  0  0  0  0  0  0  0  0  # atno 6907 bound_to 6896
  150.9827  134.9179  159.7864 H   0  0  0  0  0  0  0  0  0  0  0  0  # atno 6908 bound_to 6896
  152.5222  134.3441  159.9280 H   0  0  0  0  0  0  0  0  0  0  0  0  # atno 6909 bound_to 6896
  146.2052  140.3426  142.8409 H   0  0  0  0  0  0  0  0  0  0  0  0  # atno 7974 bound_to 7965
  154.8116  140.2869  155.5849 H   0  0  0  0  0  0  0  0  0  0  0  0  # atno 8008 bound_to 7997
  156.2989  140.2567  156.2935 H   0  0  0  0  0  0  0  0  0  0  0  0  # atno 8009 bound_to 7997
  154.9441  140.0380  157.2101 H   0  0  0  0  0  0  0  0  0  0  0  0  # atno 8010 bound_to 7997
  140.7106  143.3312  151.2564 H   0  0  0  0  0  0  0  0  0  0  0  0  # atno 10167 bound_to 10162
  156.0420  130.5645  150.7773 H   0  0  0  0  0  0  0  0  0  0  0  0  # atno 10718 bound_to 10713
  154.2518  135.2771  155.2813 H   0  0  0  0  0  0  0  0  0  0  0  0  # atno 10763 bound_to 10752
  154.5459  135.5689  153.6883 H   0  0  0  0  0  0  0  0  0  0  0  0  # atno 10764 bound_to 10752
  152.9979  135.6262  154.2665 H   0  0  0  0  0  0  0  0  0  0  0  0  # atno 10765 bound_to 10752
  141.1506  133.6718  156.6282 H   0  0  0  0  0  0  0  0  0  0  0  0  # atno 11005 bound_to 11000
  144.8775  140.7356  143.6008 LP  0  0  0  0  0  0  0  0  0  0  0  0  # atno 17320 bound_to 7965
  145.3346  139.1749  143.4518 LP  0  0  0  0  0  0  0  0  0  0  0  0  # atno 17321 bound_to 7965
  139.6795  143.9879  152.2800 LP  0  0  0  0  0  0  0  0  0  0  0  0  # atno 17342 bound_to 10162
  139.9504  144.6624  150.8177 LP  0  0  0  0  0  0  0  0  0  0  0  0  # atno 17343 bound_to 10162
  157.5250  131.0933  151.0029 LP  0  0  0  0  0  0  0  0  0  0  0  0  # atno 17370 bound_to 10713
  157.0350  130.5726  149.5348 LP  0  0  0  0  0  0  0  0  0  0  0  0  # atno 17371 bound_to 10713
  140.3487  134.7787  157.4451 LP  0  0  0  0  0  0  0  0  0  0  0  0  # atno 17394 bound_to 11000
  140.0878  134.5642  155.8474 LP  0  0  0  0  0  0  0  0  0  0  0  0  # atno 17395 bound_to 11000

$$$$
