AV-unprocessed.smi:1|AV-procd|sdf|4|dock10
  -GOLD-   2262015 83D 1   1.00000     0.00000
 Structure written by MMmdl.
 57 62  0  0  0  0  0  0  0  0  1 V2000
  152.9703  140.3807  159.5930 O   0  0  0  0  0  0  0  0  0  0  0  0
  152.4566  141.2012  158.8318 C   0  0  0  0  0  0  0  0  0  0  0  0
  151.9465  140.8291  157.5239 N   0  0  0  0  0  0  0  0  0  0  0  0
  151.9892  139.6175  156.9219 C   0  0  0  0  0  0  0  0  0  0  0  0
  152.7735  139.3663  155.8408 N   0  0  0  0  0  0  0  0  0  0  0  0
  152.7865  138.1503  155.2877 C   0  0  0  0  0  0  0  0  0  0  0  0
  152.1067  137.0616  155.6526 N   0  0  0  0  0  0  0  0  0  0  0  0
  151.3132  137.3043  156.7352 C   0  0  0  0  0  0  0  0  0  0  0  0
  151.1996  138.5477  157.4184 C   0  0  0  0  0  0  0  0  0  0  0  0
  150.2994  138.4270  158.4683 N   0  0  0  0  0  0  0  0  0  0  0  0
  149.9075  137.1830  158.4064 C   0  0  0  0  0  0  0  0  0  0  0  0
  150.4750  136.4318  157.4008 N   0  0  0  0  0  0  0  0  0  0  0  0
  150.2162  134.9922  157.0919 C   0  0  1  0  0  0  0  0  0  0  0  0
  148.9212  134.8543  156.5865 O   0  0  0  0  0  0  0  0  0  0  0  0
  148.9512  134.3572  155.2509 C   0  0  2  0  0  0  0  0  0  0  0  0
  147.7196  133.4927  154.9581 C   0  0  0  0  0  0  0  0  0  0  0  0
  147.4411  133.5403  153.5688 O   0  0  0  0  0  0  0  0  0  0  0  0
  146.2862  134.0762  153.1304 C   0  0  0  0  0  0  0  0  0  0  0  0
  145.6863  134.9788  153.7182 O   0  0  0  0  0  0  0  0  0  0  0  0
  145.8074  133.4610  151.8588 C   0  0  0  0  0  0  0  0  0  0  0  0
  144.6430  133.9707  151.2381 C   0  0  0  0  0  0  0  0  0  0  0  0
  144.1659  133.4097  150.0375 C   0  0  0  0  0  0  0  0  0  0  0  0
  144.8475  132.3320  149.4430 C   0  0  0  0  0  0  0  0  0  0  0  0
  146.0071  131.8158  150.0503 C   0  0  0  0  0  0  0  0  0  0  0  0
  146.4861  132.3755  151.2509 C   0  0  0  0  0  0  0  0  0  0  0  0
  150.2821  133.6134  155.1557 C   0  0  2  0  0  0  0  0  0  0  0  0
  150.1886  132.3118  155.7117 O   0  0  0  0  0  0  0  0  0  0  0  0
  151.5479  132.0379  156.6432 S   0  0  0  0  0  0  0  0  0  0  0  0
  151.1105  131.7098  158.0086 O   0  0  0  0  0  0  0  0  0  0  0  0
  152.4687  131.1839  155.8782 O   0  0  0  0  0  0  0  0  0  0  0  0
  152.1585  133.5937  156.6463 O   0  0  0  0  0  0  0  0  0  0  0  0
  151.2028  134.4504  156.0467 C   0  0  2  0  0  0  0  0  0  0  0  0
  152.2475  142.6313  159.2370 C   0  0  0  0  0  0  0  0  0  0  0  0
  152.3141  142.9965  160.6005 C   0  0  0  0  0  0  0  0  0  0  0  0
  152.1314  144.3380  160.9893 C   0  0  0  0  0  0  0  0  0  0  0  0
  151.8884  145.3269  160.0175 C   0  0  0  0  0  0  0  0  0  0  0  0
  151.8330  144.9742  158.6559 C   0  0  0  0  0  0  0  0  0  0  0  0
  152.0154  143.6330  158.2658 C   0  0  0  0  0  0  0  0  0  0  0  0
  151.5117  141.5698  156.9933 H   0  0  0  0  0  0  0  0  0  0  0  0
  153.4360  138.0325  154.4329 H   0  0  0  0  0  0  0  0  0  0  0  0
  149.1901  136.7744  159.1036 H   0  0  0  0  0  0  0  0  0  0  0  0
  150.2813  134.4835  158.0546 H   0  0  0  0  0  0  0  0  0  0  0  0
  148.9782  135.1999  154.5603 H   0  0  0  0  0  0  0  0  0  0  0  0
  147.9173  132.4582  155.2422 H   0  0  0  0  0  0  0  0  0  0  0  0
  146.8613  133.8373  155.5367 H   0  0  0  0  0  0  0  0  0  0  0  0
  144.1029  134.7978  151.6763 H   0  0  0  0  0  0  0  0  0  0  0  0
  143.2755  133.8071  149.5730 H   0  0  0  0  0  0  0  0  0  0  0  0
  144.4814  131.9019  148.5223 H   0  0  0  0  0  0  0  0  0  0  0  0
  146.5317  130.9886  149.5947 H   0  0  0  0  0  0  0  0  0  0  0  0
  147.3793  131.9555  151.6901 H   0  0  0  0  0  0  0  0  0  0  0  0
  150.6473  133.5387  154.1310 H   0  0  0  0  0  0  0  0  0  0  0  0
  151.6730  135.2594  155.4872 H   0  0  0  0  0  0  0  0  0  0  0  0
  152.5004  142.2494  161.3588 H   0  0  0  0  0  0  0  0  0  0  0  0
  152.1784  144.6078  162.0341 H   0  0  0  0  0  0  0  0  0  0  0  0
  151.7484  146.3554  160.3157 H   0  0  0  0  0  0  0  0  0  0  0  0
  151.6528  145.7334  157.9091 H   0  0  0  0  0  0  0  0  0  0  0  0
  151.9778  143.3861  157.2147 H   0  0  0  0  0  0  0  0  0  0  0  0
  1  2  2  0  0  0  0
  2  3  1  0  0  0  0
  2 33  1  0  0  0  0
  3  4  1  0  0  0  0
  3 39  1  0  0  0  0
  4  9  1  0  0  0  0
  4  5  2  0  0  0  0
  5  6  1  0  0  0  0
  6  7  2  0  0  0  0
  6 40  1  0  0  0  0
  7  8  1  0  0  0  0
  8 12  1  0  0  0  0
  8  9  2  0  0  0  0
  9 10  1  0  0  0  0
 10 11  2  0  0  0  0
 11 12  1  0  0  0  0
 11 41  1  0  0  0  0
 12 13  1  0  0  0  0
 13 32  1  0  0  0  0
 13 14  1  0  0  0  0
 13 42  1  0  0  0  0
 14 15  1  0  0  0  0
 15 16  1  0  0  0  0
 15 26  1  0  0  0  0
 15 43  1  0  0  0  0
 16 17  1  0  0  0  0
 16 44  1  0  0  0  0
 16 45  1  0  0  0  0
 17 18  1  0  0  0  0
 18 19  2  0  0  0  0
 18 20  1  0  0  0  0
 20 25  1  0  0  0  0
 20 21  2  0  0  0  0
 21 22  1  0  0  0  0
 21 46  1  0  0  0  0
 22 23  2  0  0  0  0
 22 47  1  0  0  0  0
 23 24  1  0  0  0  0
 23 48  1  0  0  0  0
 24 25  2  0  0  0  0
 24 49  1  0  0  0  0
 25 50  1  0  0  0  0
 26 32  1  0  0  0  0
 26 27  1  0  0  0  0
 26 51  1  0  0  0  0
 27 28  1  0  0  0  0
 28 29  2  0  0  0  0
 28 30  2  0  0  0  0
 28 31  1  0  0  0  0
 31 32  1  0  0  0  0
 32 52  1  0  0  0  0
 33 38  1  0  0  0  0
 33 34  2  0  0  0  0
 34 35  1  0  0  0  0
 34 53  1  0  0  0  0
 35 36  2  0  0  0  0
 35 54  1  0  0  0  0
 36 37  1  0  0  0  0
 36 55  1  0  0  0  0
 37 38  2  0  0  0  0
 37 56  1  0  0  0  0
 38 57  1  0  0  0  0
M  END
> <s_m_source_file>
AV-unprocessed.smi

> <i_m_source_file_index>
1

> <i_lp_mmshare_version>
43012

> <i_f3d_flags>
0

> <s_epik_input>
W2NIXTFbY0hdW2NIXVtjSF1bY0hdYzFDKD1PKVtOSF1jKG5bY0hdbjIpYyhjMjMpbltjSF1uM1tDQEBIXShbQ0BIXShbQ0BIXTQ1KU9TKE81KSg9Tyk9TylPW0NASF00W0NIMl1PQyg9TyljNltjSF1bY0hdW2NIXVtjSF1bY0hdNg==

> <s_epik_cmdline>
J2VwaWtfcHl0aG9uJywgJy1waCcsICc3LjAnLCAnLXRuJywgJzgnLCAnLW1hJywgJzIwMCcsICctbWV0YWxfYmluZGluZycsICctaW1hZScsICc8aW5maWxlLm1hZT4nLCAnLW9tYWUnLCAnPG91dGZpbGUubWFlPic=

> <r_lp_tautomer_probability>
1

> <r_epik_Ionization_Penalty>
0.00195722

> <r_epik_Ionization_Penalty_Charging>
0

> <r_epik_Ionization_Penalty_Neutral>
0.00195722

> <r_epik_State_Penalty>
0.00633741

> <r_epik_Charging_Adjusted_Penalty>
0.00633741

> <i_epik_Tot_Q>
0

> <i_epik_Tot_abs_Q>
0

> <r_epik_Metal_State_Penalty>
0.341185

> <b_epik_Metal_Only>
0

> <s_epik_Chemistry_Notes>
This compound has an ester and may undergo hydrolysis at high or low pH. This compound contains an acetal/aminal-like group ( X-CH(R)-Y where X, Y are N, S, or O) that may be acid/base labile, releasing an aldehyde.

> <s_lp_Force_Field>
OPLS_2005

> <r_lp_Energy>
46.3459

> <b_lp_Chiralities_Consistent>
1

> <s_lp_Variant>
AV-unprocessed.smi:1-4

> <Gold.Version>
5.8.1

> <Gold.Id.Protein>
6NUR|6NUR_protein|mol2

> <Gold.PLP.Fitness>
65.5683

> <Gold.PLP.PLP>
-60.5534

> <Gold.PLP.part.hbond>
-3.5052

> <Gold.PLP.part.metal>
0.0000

> <Gold.PLP.part.buried>
-8.4554

> <Gold.PLP.part.nonpolar>
-50.0505

> <Gold.PLP.part.repulsive>
0.2866

> <Gold.PLP.ligand.clash>
0.0000

> <Gold.PLP.ligand.torsion>
2.0995

> <Gold.PLP.Chemscore.Hbond>
3.0000

> <Gold.PLP.Chemscore.CHOScore>
0.0000

> <Gold.PLP.Chemscore.Metal>
0.0000

> <Gold.Chemscore.Hbonds>
donor molecule, donor type, donor heavy atom, donor atom, acceptor molecule, acceptor atom, score
      P1  H  6896  6909       L1    29  0.98
      P1  H  7997  8009       L1     5  1.00
      P1  H 10752 10764       L1     7  0.94

> <Gold.PLP.Chemscore.Internal.Correction>
0.2140

> <Gold.Rescore>
     Score         DG    S(hbond)    S(metal)    S(lipo)     H(rot)  DE(clash)    DE(int)     intcor
     19.44     -22.99       1.91        0.00     141.89       2.13       0.23       3.33       ----

> <Gold.Chemscore.Fitness>
19.4368

> <Gold.Chemscore.DG>
-22.9949

> <Gold.Chemscore.ZeroCoef>
-5.4800

> <Gold.Chemscore.Hbond>
1.9089

> <Gold.Chemscore.Metal>
0.0000

> <Gold.Chemscore.Lipo>
141.8852

> <Gold.Chemscore.Internal_Hbond>
0.0000

> <Gold.Chemscore.DEClash>
0.2306

> <Gold.Chemscore.DEInternal>
3.3275

> <Gold.Chemscore.Rot>
2.1333

> <Gold.Chemscore.Internal.Correction>
   9.000000E+99

> <Gold.Chemscore.Hbonds>
donor molecule, donor type, donor heavy atom, donor atom, acceptor molecule, acceptor atom, score
      P1  H  6896  6909       L1    29  0.68
      P1  H  7997  8009       L1     5  0.25
      P1  H 10752 10764       L1     7  0.50

> <Gold.Chemscore.Hbond.Weighted>
-6.3757

> <Gold.Chemscore.Metal.Weighted>
-0.0000

> <Gold.Chemscore.Lipo.Weighted>
-16.6006

> <Gold.Chemscore.Internal_Hbond.Weighted>
0.0000

> <Gold.Chemscore.DEClash.Weighted>
0.2306

> <Gold.Chemscore.DEInternal.Weighted>
3.3275

> <Gold.Chemscore.Rot.Weighted>
5.4614

> <Gold.Chemscore.Internal.Correction.Weighted>
   9.000000E+99

> <Gold.Protein.RotatedTorsions>
[ 6907 6896 6895 6894 ] final  -43.13 input  -60.11 | X-H torsion
[ 7974 7965 7964 7962 ] final -115.23 input  175.53 | X-H torsion
[ 8008 7997 7996 7995 ] final -168.94 input   59.86 | X-H torsion
[ 10167 10162 10161 10158 ] final    0.15 input  -65.29 | X-H torsion
[ 10718 10713 10712 10709 ] final  156.72 input   66.30 | X-H torsion
[ 10763 10752 10751 10750 ] final  -40.80 input  -60.55 | X-H torsion
[ 11005 11000 10999 10996 ] final   19.57 input  -57.11 | X-H torsion

> <Gold.Protein.ActiveResidues>
 VAL166  LYS551  ARG553  GLY616  TRP617  ASP618  TYR619  PRO620  LYS621  CYS622 
 ASP623  PHE694  ASN695  SER759  ASP760  ASP761  ALA762  ILE779  LEU786  VAL792 
 PHE793  MET794  SER795  GLU796  ALA797  LYS798  CYS799  TRP800  GLU811  SER814 

> <Gold.Protein.RotatedAtoms>
  150.9474  134.8877  159.7650 H   0  0  0  0  0  0  0  0  0  0  0  0  # atno 6907 bound_to 6896
  152.5105  134.3855  159.9376 H   0  0  0  0  0  0  0  0  0  0  0  0  # atno 6908 bound_to 6896
  151.3873  133.3760  159.2751 H   0  0  0  0  0  0  0  0  0  0  0  0  # atno 6909 bound_to 6896
  145.1108  140.8610  143.3871 H   0  0  0  0  0  0  0  0  0  0  0  0  # atno 7974 bound_to 7965
  155.8982  140.1036  157.1369 H   0  0  0  0  0  0  0  0  0  0  0  0  # atno 8008 bound_to 7997
  154.4023  140.1297  156.4467 H   0  0  0  0  0  0  0  0  0  0  0  0  # atno 8009 bound_to 7997
  155.7453  140.3466  155.5126 H   0  0  0  0  0  0  0  0  0  0  0  0  # atno 8010 bound_to 7997
  140.6741  143.6965  150.7986 H   0  0  0  0  0  0  0  0  0  0  0  0  # atno 10167 bound_to 10162
  157.2011  131.0676  151.2024 H   0  0  0  0  0  0  0  0  0  0  0  0  # atno 10718 bound_to 10713
  153.9520  135.6749  153.4744 H   0  0  0  0  0  0  0  0  0  0  0  0  # atno 10763 bound_to 10752
  153.0879  135.4889  154.8630 H   0  0  0  0  0  0  0  0  0  0  0  0  # atno 10764 bound_to 10752
  154.7320  135.3140  154.8835 H   0  0  0  0  0  0  0  0  0  0  0  0  # atno 10765 bound_to 10752
  140.4123  134.1606  155.7668 H   0  0  0  0  0  0  0  0  0  0  0  0  # atno 11005 bound_to 11000
  145.0849  139.2932  143.5764 LP  0  0  0  0  0  0  0  0  0  0  0  0  # atno 17320 bound_to 7965
  146.3526  140.0368  142.8646 LP  0  0  0  0  0  0  0  0  0  0  0  0  # atno 17321 bound_to 7965
  140.0655  143.5113  152.2606 LP  0  0  0  0  0  0  0  0  0  0  0  0  # atno 17342 bound_to 10162
  139.6025  144.7586  151.3139 LP  0  0  0  0  0  0  0  0  0  0  0  0  # atno 17343 bound_to 10162
  157.3766  130.7209  149.6601 LP  0  0  0  0  0  0  0  0  0  0  0  0  # atno 17370 bound_to 10713
  155.9700  130.4184  150.4326 LP  0  0  0  0  0  0  0  0  0  0  0  0  # atno 17371 bound_to 10713
  141.1816  133.8401  157.1236 LP  0  0  0  0  0  0  0  0  0  0  0  0  # atno 17394 bound_to 11000
  140.0259  134.9924  157.0685 LP  0  0  0  0  0  0  0  0  0  0  0  0  # atno 17395 bound_to 11000

$$$$
