AV-unprocessed.smi:2087|AV-procd|sdf|8524|dock2
  -GOLD-   2272011243D 1   1.00000     0.00000
 Structure written by MMmdl.
 50 51  0  0  0  0  0  0  0  0  1 V2000
  151.3077  144.1556  159.5740 C   0  0  0  0  0  0  0  0  0  0  0  0
  151.7936  142.8105  160.1333 C   0  0  0  0  0  0  0  0  0  0  0  0
  153.3125  142.6668  159.9433 C   0  0  0  0  0  0  0  0  0  0  0  0
  151.0205  141.6448  159.4795 C   0  0  0  0  0  0  0  0  0  0  0  0
  151.0000  141.6341  158.0158 N   0  0  0  0  0  0  0  0  0  0  0  0
  152.1438  140.9328  157.4369 C   0  0  0  0  0  0  0  0  0  0  0  0
  152.0903  140.9222  155.8996 C   0  0  0  0  0  0  0  0  0  0  0  0
  150.8637  140.3471  155.4623 O   0  0  0  0  0  0  0  0  0  0  0  0
  149.7159  141.0214  155.9730 C   0  0  1  0  0  0  0  0  0  0  0  0
  148.4428  140.3669  155.4024 C   0  0  0  0  0  0  0  0  0  0  0  0
  147.3600  140.2923  156.3795 N   0  0  0  0  0  0  0  0  0  0  0  0
  146.7299  139.1684  156.7530 C   0  0  0  0  0  0  0  0  0  0  0  0
  147.0035  138.0568  156.2978 O   0  0  0  0  0  0  0  0  0  0  0  0
  145.6408  139.3320  157.8220 C   0  0  0  0  0  0  0  0  0  0  0  0
  144.4599  140.0560  157.3339 N   0  0  0  0  0  0  0  0  0  0  0  0
  144.3821  140.4221  156.0026 C   0  0  0  0  0  0  0  0  0  0  0  0
  143.3380  141.0991  155.4761 C   0  0  0  0  0  0  0  0  0  0  0  0
  142.2040  141.4917  156.3046 C   0  0  0  0  0  0  0  0  0  0  0  0
  141.2335  142.1072  155.8620 O   0  0  0  0  0  0  0  0  0  0  0  0
  142.3108  141.1055  157.6630 N   0  0  0  0  0  0  0  0  0  0  0  0
  141.2434  141.4433  158.5817 C   0  0  0  0  0  0  0  0  0  0  0  0
  143.4058  140.3993  158.2072 C   0  0  0  0  0  0  0  0  0  0  0  0
  143.4495  140.0898  159.4007 O   0  0  0  0  0  0  0  0  0  0  0  0
  149.7726  141.0253  157.5158 C   0  0  0  0  0  0  0  0  0  0  0  0
  151.4902  144.2285  158.5012 H   0  0  0  0  0  0  0  0  0  0  0  0
  151.8191  144.9896  160.0554 H   0  0  0  0  0  0  0  0  0  0  0  0
  150.2381  144.2877  159.7398 H   0  0  0  0  0  0  0  0  0  0  0  0
  151.5862  142.8254  161.2028 H   0  0  0  0  0  0  0  0  0  0  0  0
  153.5792  142.6451  158.8864 H   0  0  0  0  0  0  0  0  0  0  0  0
  153.6844  141.7488  160.3992 H   0  0  0  0  0  0  0  0  0  0  0  0
  153.8467  143.4975  160.4051 H   0  0  0  0  0  0  0  0  0  0  0  0
  151.4261  140.6976  159.8385 H   0  0  0  0  0  0  0  0  0  0  0  0
  149.9937  141.6829  159.8464 H   0  0  0  0  0  0  0  0  0  0  0  0
  153.0762  141.4039  157.7449 H   0  0  0  0  0  0  0  0  0  0  0  0
  152.1742  139.9061  157.8049 H   0  0  0  0  0  0  0  0  0  0  0  0
  152.1852  141.9345  155.5041 H   0  0  0  0  0  0  0  0  0  0  0  0
  152.9194  140.3412  155.4952 H   0  0  0  0  0  0  0  0  0  0  0  0
  149.7460  142.0531  155.6178 H   0  0  0  0  0  0  0  0  0  0  0  0
  148.0828  140.9549  154.5580 H   0  0  0  0  0  0  0  0  0  0  0  0
  148.6730  139.3774  155.0038 H   0  0  0  0  0  0  0  0  0  0  0  0
  147.0729  141.1605  156.8079 H   0  0  0  0  0  0  0  0  0  0  0  0
  145.3503  138.3379  158.1649 H   0  0  0  0  0  0  0  0  0  0  0  0
  146.0546  139.8357  158.6975 H   0  0  0  0  0  0  0  0  0  0  0  0
  145.1995  140.1577  155.3475 H   0  0  0  0  0  0  0  0  0  0  0  0
  143.3426  141.3548  154.4267 H   0  0  0  0  0  0  0  0  0  0  0  0
  140.8569  140.5058  158.9859 H   0  0  0  0  0  0  0  0  0  0  0  0
  140.4429  141.9862  158.0805 H   0  0  0  0  0  0  0  0  0  0  0  0
  141.6775  142.0664  159.3657 H   0  0  0  0  0  0  0  0  0  0  0  0
  149.6947  140.0040  157.8920 H   0  0  0  0  0  0  0  0  0  0  0  0
  148.9089  141.5663  157.9044 H   0  0  0  0  0  0  0  0  0  0  0  0
  1  2  1  0  0  0  0
  1 25  1  0  0  0  0
  1 26  1  0  0  0  0
  1 27  1  0  0  0  0
  2  3  1  0  0  0  0
  2  4  1  0  0  0  0
  2 28  1  0  0  0  0
  3 29  1  0  0  0  0
  3 30  1  0  0  0  0
  3 31  1  0  0  0  0
  4  5  1  0  0  0  0
  4 32  1  0  0  0  0
  4 33  1  0  0  0  0
  5 24  1  0  0  0  0
  5  6  1  0  0  0  0
  6  7  1  0  0  0  0
  6 34  1  0  0  0  0
  6 35  1  0  0  0  0
  7  8  1  0  0  0  0
  7 36  1  0  0  0  0
  7 37  1  0  0  0  0
  8  9  1  0  0  0  0
  9 10  1  0  0  0  0
  9 24  1  0  0  0  0
  9 38  1  0  0  0  0
 10 11  1  0  0  0  0
 10 39  1  0  0  0  0
 10 40  1  0  0  0  0
 11 12  1  0  0  0  0
 11 41  1  0  0  0  0
 12 13  2  0  0  0  0
 12 14  1  0  0  0  0
 14 15  1  0  0  0  0
 14 42  1  0  0  0  0
 14 43  1  0  0  0  0
 15 22  1  0  0  0  0
 15 16  1  0  0  0  0
 16 17  2  0  0  0  0
 16 44  1  0  0  0  0
 17 18  1  0  0  0  0
 17 45  1  0  0  0  0
 18 19  2  0  0  0  0
 18 20  1  0  0  0  0
 20 21  1  0  0  0  0
 20 22  1  0  0  0  0
 21 46  1  0  0  0  0
 21 47  1  0  0  0  0
 21 48  1  0  0  0  0
 22 23  2  0  0  0  0
 24 49  1  0  0  0  0
 24 50  1  0  0  0  0
M  END
> <s_m_source_file>
AV-unprocessed.smi

> <i_m_source_file_index>
2087

> <i_lp_mmshare_version>
43012

> <i_f3d_flags>
0

> <s_epik_input>
W0NIM11bQ0hdKFtDSDNdKVtDSDJdTjFbQ0gyXVtDSDJdT1tDQEhdKFtDSDJdMSlbQ0gyXVtOSF1DKD1PKVtDSDJdbjJbY0hdW2NIXWMoPU8pbihbQ0gzXSljMj1P

> <s_epik_cmdline>
J2VwaWtfcHl0aG9uJywgJy1waCcsICc3LjAnLCAnLXRuJywgJzgnLCAnLW1hJywgJzIwMCcsICctbWV0YWxfYmluZGluZycsICctaW1hZScsICc8aW5maWxlLm1hZT4nLCAnLW9tYWUnLCAnPG91dGZpbGUubWFlPic=

> <r_lp_tautomer_probability>
1

> <r_epik_Ionization_Penalty>
1.11669

> <r_epik_Ionization_Penalty_Charging>
1.16423e-08

> <r_epik_Ionization_Penalty_Neutral>
1.11669

> <r_epik_State_Penalty>
1.17516

> <r_epik_Charging_Adjusted_Penalty>
1.17516

> <i_epik_Tot_Q>
0

> <i_epik_Tot_abs_Q>
0

> <r_epik_Metal_State_Penalty>
1.17513

> <b_epik_Metal_Only>
0

> <s_lp_Force_Field>
OPLS_2005

> <r_lp_Energy>
34.2639

> <b_lp_Chiralities_Consistent>
1

> <s_lp_Variant>
AV-unprocessed.smi:2087-5

> <Gold.Version>
5.8.1

> <Gold.Id.Protein>
6NUR|6NUR_protein|mol2

> <Gold.PLP.Fitness>
51.3781

> <Gold.PLP.PLP>
-49.8141

> <Gold.PLP.part.hbond>
-3.7833

> <Gold.PLP.part.metal>
0.0000

> <Gold.PLP.part.buried>
-5.4461

> <Gold.PLP.part.nonpolar>
-41.5738

> <Gold.PLP.part.repulsive>
0.3930

> <Gold.PLP.ligand.clash>
0.0000

> <Gold.PLP.ligand.torsion>
1.0480

> <Gold.PLP.Chemscore.Hbond>
1.1678

> <Gold.PLP.Chemscore.CHOScore>
0.0000

> <Gold.PLP.Chemscore.Metal>
0.0000

> <Gold.Chemscore.Hbonds>
donor molecule, donor type, donor heavy atom, donor atom, acceptor molecule, acceptor atom, score
      P1  H  7989  7998       L1     8  0.06

> <Gold.PLP.Chemscore.Internal.Correction>
0.1566

> <Gold.Rescore>
     Score         DG    S(hbond)    S(metal)    S(lipo)     H(rot)  DE(clash)    DE(int)     intcor
     10.05     -14.77       0.74        0.00     105.75       2.16       2.39       2.34       ----

> <Gold.Chemscore.Fitness>
10.0451

> <Gold.Chemscore.DG>
-14.7695

> <Gold.Chemscore.ZeroCoef>
-5.4800

> <Gold.Chemscore.Hbond>
0.7355

> <Gold.Chemscore.Metal>
0.0000

> <Gold.Chemscore.Lipo>
105.7452

> <Gold.Chemscore.Internal_Hbond>
0.0000

> <Gold.Chemscore.DEClash>
2.3884

> <Gold.Chemscore.DEInternal>
2.3361

> <Gold.Chemscore.Rot>
2.1638

> <Gold.Chemscore.Internal.Correction>
   9.000000E+99

> <Gold.Chemscore.Hbond.Weighted>
-2.4566

> <Gold.Chemscore.Metal.Weighted>
-0.0000

> <Gold.Chemscore.Lipo.Weighted>
-12.3722

> <Gold.Chemscore.Internal_Hbond.Weighted>
0.0000

> <Gold.Chemscore.DEClash.Weighted>
2.3884

> <Gold.Chemscore.DEInternal.Weighted>
2.3361

> <Gold.Chemscore.Rot.Weighted>
5.5393

> <Gold.Chemscore.Internal.Correction.Weighted>
   9.000000E+99

> <Gold.Protein.RotatedTorsions>
[ 6907 6896 6895 6894 ] final -167.47 input  -60.11 | X-H torsion
[ 7974 7965 7964 7962 ] final  139.68 input  175.53 | X-H torsion
[ 8008 7997 7996 7995 ] final  151.48 input   59.86 | X-H torsion
[ 10167 10162 10161 10158 ] final   71.69 input  -65.29 | X-H torsion
[ 10718 10713 10712 10709 ] final  159.56 input   66.30 | X-H torsion
[ 10763 10752 10751 10750 ] final  138.56 input  -60.55 | X-H torsion
[ 11005 11000 10999 10996 ] final   67.27 input  -57.11 | X-H torsion

> <Gold.Protein.ActiveResidues>
 VAL166  LYS551  ARG553  GLY616  TRP617  ASP618  TYR619  PRO620  LYS621  CYS622 
 ASP623  PHE694  ASN695  SER759  ASP760  ASP761  ALA762  ILE779  LEU786  VAL792 
 PHE793  MET794  SER795  GLU796  ALA797  LYS798  CYS799  TRP800  GLU811  SER814 

> <Gold.Protein.RotatedAtoms>
  151.4601  133.3595  159.2807 H   0  0  0  0  0  0  0  0  0  0  0  0  # atno 6907 bound_to 6896
  150.9031  134.8446  159.7384 H   0  0  0  0  0  0  0  0  0  0  0  0  # atno 6908 bound_to 6896
  152.4891  134.4524  159.9630 H   0  0  0  0  0  0  0  0  0  0  0  0  # atno 6909 bound_to 6896
  144.9256  139.5112  143.5642 H   0  0  0  0  0  0  0  0  0  0  0  0  # atno 7974 bound_to 7965
  156.2672  140.2047  156.6182 H   0  0  0  0  0  0  0  0  0  0  0  0  # atno 8008 bound_to 7997
  154.6778  140.0543  157.0258 H   0  0  0  0  0  0  0  0  0  0  0  0  # atno 8009 bound_to 7997
  155.1044  140.3209  155.4541 H   0  0  0  0  0  0  0  0  0  0  0  0  # atno 8010 bound_to 7997
  140.0434  144.5371  150.7417 H   0  0  0  0  0  0  0  0  0  0  0  0  # atno 10167 bound_to 10162
  157.1625  131.0590  151.2225 H   0  0  0  0  0  0  0  0  0  0  0  0  # atno 10718 bound_to 10713
  153.8916  135.3032  155.3447 H   0  0  0  0  0  0  0  0  0  0  0  0  # atno 10763 bound_to 10752
  154.7714  135.4884  153.9659 H   0  0  0  0  0  0  0  0  0  0  0  0  # atno 10764 bound_to 10752
  153.1295  135.6800  153.9301 H   0  0  0  0  0  0  0  0  0  0  0  0  # atno 10765 bound_to 10752
  139.9781  134.6789  156.0315 H   0  0  0  0  0  0  0  0  0  0  0  0  # atno 11005 bound_to 11000
  146.3224  139.8169  142.8934 LP  0  0  0  0  0  0  0  0  0  0  0  0  # atno 17320 bound_to 7965
  145.3224  141.0247  143.3492 LP  0  0  0  0  0  0  0  0  0  0  0  0  # atno 17321 bound_to 7965
  140.7250  143.2627  151.4151 LP  0  0  0  0  0  0  0  0  0  0  0  0  # atno 17342 bound_to 10162
  139.5999  144.1317  152.2186 LP  0  0  0  0  0  0  0  0  0  0  0  0  # atno 17343 bound_to 10162
  157.4119  130.7390  149.6846 LP  0  0  0  0  0  0  0  0  0  0  0  0  # atno 17370 bound_to 10713
  155.9751  130.4093  150.3871 LP  0  0  0  0  0  0  0  0  0  0  0  0  # atno 17371 bound_to 10713
  141.1456  133.6556  156.3857 LP  0  0  0  0  0  0  0  0  0  0  0  0  # atno 17394 bound_to 11000
  140.5154  134.6356  157.5299 LP  0  0  0  0  0  0  0  0  0  0  0  0  # atno 17395 bound_to 11000

$$$$
