AV-unprocessed.smi:224|AV-procd|sdf|1712|dock2
  -GOLD-   2262020183D 1   1.00000     0.00000
 Structure written by MMmdl.
 56 59  0  0  0  0  0  0  0  0  2 V2000
  149.7972  133.0377  155.2572 C   0  0  0  0  0  0  0  0  0  0  0  0
  149.4783  134.2918  154.4332 C   0  0  1  0  0  0  0  0  0  0  0  0
  148.5389  133.9384  153.4383 O   0  0  0  0  0  0  0  0  0  0  0  0
  148.8907  135.4226  155.2960 C   0  0  0  0  0  0  0  0  0  0  0  0
  149.0550  136.7483  154.6359 N   0  3  2  0  0  0  0  0  0  0  0  0
  150.3584  137.3677  155.0086 C   0  0  0  0  0  0  0  0  0  0  0  0
  150.5763  138.7341  154.3369 C   0  0  0  0  0  0  0  0  0  0  0  0
  149.4374  139.6176  154.5626 N   0  0  0  0  0  0  0  0  0  0  0  0
  149.3912  140.3829  155.6871 C   0  0  0  0  0  0  0  0  0  0  0  0
  148.3095  141.1727  155.9235 N   0  0  0  0  0  0  0  0  0  0  0  0
  148.2605  141.9521  157.0073 C   0  0  0  0  0  0  0  0  0  0  0  0
  149.1694  142.0946  157.9723 N   0  0  0  0  0  0  0  0  0  0  0  0
  150.2510  141.2939  157.7544 C   0  0  0  0  0  0  0  0  0  0  0  0
  150.4383  140.4097  156.6538 C   0  0  0  0  0  0  0  0  0  0  0  0
  151.6507  139.7426  156.7897 N   0  0  0  0  0  0  0  0  0  0  0  0
  152.1584  140.2190  157.8933 C   0  0  0  0  0  0  0  0  0  0  0  0
  151.3906  141.1675  158.5293 N   0  0  0  0  0  0  0  0  0  0  0  0
  151.7168  141.8758  159.7570 C   0  0  0  0  0  0  0  0  0  0  0  0
  152.3203  143.2783  159.5089 C   0  0  2  0  0  0  0  0  0  0  0  0
  153.7044  143.1461  159.2344 O   0  0  0  0  0  0  0  0  0  0  0  0
  152.1504  144.2453  160.6780 C   0  0  0  0  0  0  0  0  0  0  0  0
  152.0202  145.5951  159.9871 C   0  0  0  0  0  0  0  0  0  0  0  0
  151.2276  145.2826  158.8549 O   0  0  0  0  0  0  0  0  0  0  0  0
  151.6596  144.0290  158.3356 C   0  0  0  0  0  0  0  0  0  0  0  0
  148.1747  139.0391  154.1203 C   0  0  0  0  0  0  0  0  0  0  0  0
  147.8926  137.6783  154.7976 C   0  0  1  0  0  0  0  0  0  0  0  0
  146.5903  137.1113  154.1941 C   0  0  0  0  0  0  0  0  0  0  0  0
  150.5395  133.2533  156.0263 H   0  0  0  0  0  0  0  0  0  0  0  0
  150.1997  132.2445  154.6259 H   0  0  0  0  0  0  0  0  0  0  0  0
  148.9076  132.6493  155.7543 H   0  0  0  0  0  0  0  0  0  0  0  0
  150.3902  134.6275  153.9392 H   0  0  0  0  0  0  0  0  0  0  0  0
  148.3075  134.7140  152.9497 H   0  0  0  0  0  0  0  0  0  0  0  0
  147.8517  135.1891  155.5150 H   0  0  0  0  0  0  0  0  0  0  0  0
  149.3780  135.4393  156.2722 H   0  0  0  0  0  0  0  0  0  0  0  0
  150.4015  137.4820  156.0924 H   0  0  0  0  0  0  0  0  0  0  0  0
  151.1762  136.7003  154.7368 H   0  0  0  0  0  0  0  0  0  0  0  0
  151.5029  139.1936  154.6836 H   0  0  0  0  0  0  0  0  0  0  0  0
  150.6922  138.5979  153.2609 H   0  0  0  0  0  0  0  0  0  0  0  0
  147.3679  142.5508  157.1140 H   0  0  0  0  0  0  0  0  0  0  0  0
  153.1168  139.8942  158.2716 H   0  0  0  0  0  0  0  0  0  0  0  0
  150.8126  141.9550  160.3622 H   0  0  0  0  0  0  0  0  0  0  0  0
  152.4140  141.2617  160.3284 H   0  0  0  0  0  0  0  0  0  0  0  0
  153.8060  142.8482  158.3434 H   0  0  0  0  0  0  0  0  0  0  0  0
  151.2210  144.0356  161.2087 H   0  0  0  0  0  0  0  0  0  0  0  0
  152.9634  144.2084  161.4045 H   0  0  0  0  0  0  0  0  0  0  0  0
  151.5469  146.3492  160.6162 H   0  0  0  0  0  0  0  0  0  0  0  0
  152.9935  145.9700  159.6668 H   0  0  0  0  0  0  0  0  0  0  0  0
  152.3558  144.1978  157.5124 H   0  0  0  0  0  0  0  0  0  0  0  0
  150.7999  143.4945  157.9304 H   0  0  0  0  0  0  0  0  0  0  0  0
  147.3382  139.7136  154.2949 H   0  0  0  0  0  0  0  0  0  0  0  0
  148.2297  138.9080  153.0388 H   0  0  0  0  0  0  0  0  0  0  0  0
  147.7417  137.8483  155.8650 H   0  0  0  0  0  0  0  0  0  0  0  0
  145.8011  137.8636  154.2054 H   0  0  0  0  0  0  0  0  0  0  0  0
  146.1981  136.2570  154.7428 H   0  0  0  0  0  0  0  0  0  0  0  0
  146.7347  136.8067  153.1568 H   0  0  0  0  0  0  0  0  0  0  0  0
  149.1032  136.5599  153.6445 H   0  0  0  0  0  0  0  0  0  0  0  0
  1  2  1  0  0  0  0
  1 28  1  0  0  0  0
  1 29  1  0  0  0  0
  1 30  1  0  0  0  0
  2  3  1  0  0  0  0
  2  4  1  0  0  0  0
  2 31  1  0  0  0  0
  3 32  1  0  0  0  0
  4  5  1  0  0  0  0
  4 33  1  0  0  0  0
  4 34  1  0  0  0  0
  5 26  1  0  0  0  0
  5  6  1  0  0  0  0
  5 56  1  0  0  0  0
  6  7  1  0  0  0  0
  6 35  1  0  0  0  0
  6 36  1  0  0  0  0
  7  8  1  0  0  0  0
  7 37  1  0  0  0  0
  7 38  1  0  0  0  0
  8  9  1  0  0  0  0
  8 25  1  0  0  0  0
  9 14  1  0  0  0  0
  9 10  2  0  0  0  0
 10 11  1  0  0  0  0
 11 12  2  0  0  0  0
 11 39  1  0  0  0  0
 12 13  1  0  0  0  0
 13 17  1  0  0  0  0
 13 14  2  0  0  0  0
 14 15  1  0  0  0  0
 15 16  2  0  0  0  0
 16 17  1  0  0  0  0
 16 40  1  0  0  0  0
 17 18  1  0  0  0  0
 18 19  1  0  0  0  0
 18 41  1  0  0  0  0
 18 42  1  0  0  0  0
 19 24  1  0  0  0  0
 19 20  1  0  0  0  0
 19 21  1  0  0  0  0
 20 43  1  0  0  0  0
 21 22  1  0  0  0  0
 21 44  1  0  0  0  0
 21 45  1  0  0  0  0
 22 23  1  0  0  0  0
 22 46  1  0  0  0  0
 22 47  1  0  0  0  0
 23 24  1  0  0  0  0
 24 48  1  0  0  0  0
 24 49  1  0  0  0  0
 25 26  1  0  0  0  0
 25 50  1  0  0  0  0
 25 51  1  0  0  0  0
 26 27  1  0  0  0  0
 26 52  1  0  0  0  0
 27 53  1  0  0  0  0
 27 54  1  0  0  0  0
 27 55  1  0  0  0  0
M  CHG  1   5   1
M  END
> <s_m_source_file>
AV-unprocessed.smi

> <i_m_source_file_index>
224

> <i_lp_mmshare_version>
43012

> <i_f3d_flags>
0

> <s_epik_input>
W0NIM11bQ0BIXShbT0hdKVtDSDJdTjFbQ0gyXVtDSDJdTihbQ0gyXVtDQEhdMVtDSDNdKWMobltjSF1uMiljKGMyMyluW2NIXW4zW0NIMl1bQ0BAXTQoW09IXSlbQ0gyXVtDSDJdT1tDSDJdNA==

> <s_epik_cmdline>
J2VwaWtfcHl0aG9uJywgJy1waCcsICc3LjAnLCAnLXRuJywgJzgnLCAnLW1hJywgJzIwMCcsICctbWV0YWxfYmluZGluZycsICctaW1hZScsICc8aW5maWxlLm1hZT4nLCAnLW9tYWUnLCAnPG91dGZpbGUubWFlPic=

> <r_lp_tautomer_probability>
1

> <r_epik_Ionization_Penalty>
0.00516958

> <r_epik_Ionization_Penalty_Charging>
0.00509693

> <r_epik_Ionization_Penalty_Neutral>
7.26542e-05

> <r_epik_State_Penalty>
-0

> <r_epik_Charging_Adjusted_Penalty>
0.00509693

> <i_epik_Tot_Q>
1

> <i_epik_Tot_abs_Q>
1

> <r_epik_Metal_State_Penalty>
-0

> <b_epik_Metal_Only>
0

> <s_lp_Force_Field>
OPLS_2005

> <r_lp_Energy>
47.1484

> <b_lp_Chiralities_Consistent>
1

> <s_lp_Variant>
AV-unprocessed.smi:224-6

> <Gold.Version>
5.8.1

> <Gold.Id.Protein>
6NUR|6NUR_protein|mol2

> <Gold.PLP.Fitness>
47.4629

> <Gold.PLP.PLP>
-41.2570

> <Gold.PLP.part.hbond>
-2.2401

> <Gold.PLP.part.metal>
0.0000

> <Gold.PLP.part.buried>
-5.0644

> <Gold.PLP.part.nonpolar>
-34.5467

> <Gold.PLP.part.repulsive>
0.4526

> <Gold.PLP.ligand.clash>
0.0000

> <Gold.PLP.ligand.torsion>
1.6593

> <Gold.PLP.Chemscore.Hbond>
3.0000

> <Gold.PLP.Chemscore.CHOScore>
0.0000

> <Gold.PLP.Chemscore.Metal>
0.0000

> <Gold.Chemscore.Hbonds>
donor molecule, donor type, donor heavy atom, donor atom, acceptor molecule, acceptor atom, score
      L1  H     3    32       P1  7948  0.91
      L1  H     5    56       P1  7948  2.00

> <Gold.PLP.Chemscore.Internal.Correction>
0.5245

> <Gold.Rescore>
     Score         DG    S(hbond)    S(metal)    S(lipo)     H(rot)  DE(clash)    DE(int)     intcor
     10.97     -14.03       1.75        0.00      96.65       3.36       0.03       3.04       ----

> <Gold.Chemscore.Fitness>
10.9681

> <Gold.Chemscore.DG>
-14.0285

> <Gold.Chemscore.ZeroCoef>
-5.4800

> <Gold.Chemscore.Hbond>
1.7498

> <Gold.Chemscore.Metal>
0.0000

> <Gold.Chemscore.Lipo>
96.6542

> <Gold.Chemscore.Internal_Hbond>
0.0000

> <Gold.Chemscore.DEClash>
0.0253

> <Gold.Chemscore.DEInternal>
3.0352

> <Gold.Chemscore.Rot>
3.3611

> <Gold.Chemscore.Internal.Correction>
   9.000000E+99

> <Gold.Chemscore.Hbonds>
donor molecule, donor type, donor heavy atom, donor atom, acceptor molecule, acceptor atom, score
      L1  H     3    32       P1  7948  0.53
      L1  H     5    56       P1  7948  0.99

> <Gold.Chemscore.Hbond.Weighted>
-5.8445

> <Gold.Chemscore.Metal.Weighted>
-0.0000

> <Gold.Chemscore.Lipo.Weighted>
-11.3085

> <Gold.Chemscore.Internal_Hbond.Weighted>
0.0000

> <Gold.Chemscore.DEClash.Weighted>
0.0253

> <Gold.Chemscore.DEInternal.Weighted>
3.0352

> <Gold.Chemscore.Rot.Weighted>
8.6045

> <Gold.Chemscore.Internal.Correction.Weighted>
   9.000000E+99

> <Gold.Protein.RotatedTorsions>
[ 6907 6896 6895 6894 ] final  130.44 input  -60.11 | X-H torsion
[ 7974 7965 7964 7962 ] final  -15.10 input  175.53 | X-H torsion
[ 8008 7997 7996 7995 ] final   48.49 input   59.86 | X-H torsion
[ 10167 10162 10161 10158 ] final  146.22 input  -65.29 | X-H torsion
[ 10718 10713 10712 10709 ] final  -61.58 input   66.30 | X-H torsion
[ 10763 10752 10751 10750 ] final  140.98 input  -60.55 | X-H torsion
[ 11005 11000 10999 10996 ] final   87.51 input  -57.11 | X-H torsion

> <Gold.Protein.ActiveResidues>
 VAL166  LYS551  ARG553  GLY616  TRP617  ASP618  TYR619  PRO620  LYS621  CYS622 
 ASP623  PHE694  ASN695  SER759  ASP760  ASP761  ALA762  ILE779  LEU786  VAL792 
 PHE793  MET794  SER795  GLU796  ALA797  LYS798  CYS799  TRP800  GLU811  SER814 

> <Gold.Protein.RotatedAtoms>
  152.3526  133.6198  159.5955 H   0  0  0  0  0  0  0  0  0  0  0  0  # atno 6907 bound_to 6896
  150.7547  133.9551  159.3506 H   0  0  0  0  0  0  0  0  0  0  0  0  # atno 6908 bound_to 6896
  151.7400  135.0857  160.0365 H   0  0  0  0  0  0  0  0  0  0  0  0  # atno 6909 bound_to 6896
  146.2046  140.3444  142.8411 H   0  0  0  0  0  0  0  0  0  0  0  0  # atno 7974 bound_to 7965
  155.3864  140.3431  155.4249 H   0  0  0  0  0  0  0  0  0  0  0  0  # atno 8008 bound_to 7997
  156.1582  140.1592  156.8690 H   0  0  0  0  0  0  0  0  0  0  0  0  # atno 8009 bound_to 7997
  154.5114  140.0789  156.7979 H   0  0  0  0  0  0  0  0  0  0  0  0  # atno 8010 bound_to 7997
  139.4911  144.5845  151.6806 H   0  0  0  0  0  0  0  0  0  0  0  0  # atno 10167 bound_to 10162
  156.0912  130.4200  150.1014 H   0  0  0  0  0  0  0  0  0  0  0  0  # atno 10718 bound_to 10713
  153.9317  135.2989  155.3445 H   0  0  0  0  0  0  0  0  0  0  0  0  # atno 10763 bound_to 10752
  154.7523  135.4974  153.9315 H   0  0  0  0  0  0  0  0  0  0  0  0  # atno 10764 bound_to 10752
  153.1088  135.6754  153.9642 H   0  0  0  0  0  0  0  0  0  0  0  0  # atno 10765 bound_to 10752
  139.8918  134.8427  156.2870 H   0  0  0  0  0  0  0  0  0  0  0  0  # atno 11005 bound_to 11000
  144.8763  140.7341  143.6015 LP  0  0  0  0  0  0  0  0  0  0  0  0  # atno 17320 bound_to 7965
  145.3363  139.1745  143.4509 LP  0  0  0  0  0  0  0  0  0  0  0  0  # atno 17321 bound_to 7965
  140.5458  144.0506  150.6106 LP  0  0  0  0  0  0  0  0  0  0  0  0  # atno 17342 bound_to 10162
  140.3543  143.2945  152.0453 LP  0  0  0  0  0  0  0  0  0  0  0  0  # atno 17343 bound_to 10162
  156.9023  130.9624  151.3574 LP  0  0  0  0  0  0  0  0  0  0  0  0  # atno 17370 bound_to 10713
  157.6062  130.8549  149.8879 LP  0  0  0  0  0  0  0  0  0  0  0  0  # atno 17371 bound_to 10713
  141.0001  133.7156  156.0947 LP  0  0  0  0  0  0  0  0  0  0  0  0  # atno 17394 bound_to 11000
  140.7509  134.4046  157.5541 LP  0  0  0  0  0  0  0  0  0  0  0  0  # atno 17395 bound_to 11000

$$$$
