AV-unprocessed.smi:1244|AV-procd|sdf|5232|dock2
  -GOLD-   22720 4333D 1   1.00000     0.00000
 Structure written by MMmdl.
 56 58  0  0  0  0  0  0  0  0  3 V2000
  150.3878  140.9722  158.5652 C   0  0  0  0  0  0  0  0  0  0  0  0
  150.3227  140.9131  157.0349 C   0  0  1  0  0  0  0  0  0  0  0  0
  150.7687  139.5443  156.4878 C   0  0  0  0  0  0  0  0  0  0  0  0
  150.6194  139.4979  155.0122 N   0  3  1  0  0  0  0  0  0  0  0  0
  151.0737  138.2174  154.4150 C   0  0  0  0  0  0  0  0  0  0  0  0
  150.6350  136.9971  155.2471 C   0  0  0  0  0  0  0  0  0  0  0  0
  149.8260  136.0699  154.4640 N   0  0  0  0  0  0  0  0  0  0  0  0
  149.7649  134.7472  154.6752 C   0  0  0  0  0  0  0  0  0  0  0  0
  150.3592  134.1778  155.5905 O   0  0  0  0  0  0  0  0  0  0  0  0
  148.9989  134.1364  153.7558 N   0  0  0  0  0  0  0  0  0  0  0  0
  148.7694  132.7389  153.6108 C   0  0  0  0  0  0  0  0  0  0  0  0
  149.5082  131.7948  154.3691 C   0  0  0  0  0  0  0  0  0  0  0  0
  149.2797  130.4171  154.1921 C   0  0  0  0  0  0  0  0  0  0  0  0
  148.3116  130.0030  153.2614 C   0  0  0  0  0  0  0  0  0  0  0  0
  147.6111  130.9258  152.5701 N   0  3  0  0  0  0  0  0  0  0  0  0
  147.7746  132.2656  152.7062 C   0  0  0  0  0  0  0  0  0  0  0  0
  146.9613  133.1125  151.9196 N   0  0  0  0  0  0  0  0  0  0  0  0
  146.2394  132.5837  150.7681 C   0  0  0  0  0  0  0  0  0  0  0  0
  145.2329  133.6705  150.4000 C   0  0  0  0  0  0  0  0  0  0  0  0
  144.8562  134.2447  151.7627 C   0  0  0  0  0  0  0  0  0  0  0  0
  146.1502  134.1325  152.5761 C   0  0  0  0  0  0  0  0  0  0  0  0
  149.2308  139.8430  154.6259 C   0  0  0  0  0  0  0  0  0  0  0  0
  148.8247  141.2041  155.2234 C   0  0  1  0  0  0  0  0  0  0  0  0
  147.3667  141.5603  154.9132 C   0  0  0  0  0  0  0  0  0  0  0  0
  148.9778  141.1559  156.6375 O   0  0  0  0  0  0  0  0  0  0  0  0
  151.4020  140.7920  158.9228 H   0  0  0  0  0  0  0  0  0  0  0  0
  149.7356  140.2246  159.0177 H   0  0  0  0  0  0  0  0  0  0  0  0
  150.0763  141.9508  158.9312 H   0  0  0  0  0  0  0  0  0  0  0  0
  150.9649  141.6978  156.6303 H   0  0  0  0  0  0  0  0  0  0  0  0
  151.8054  139.3652  156.7710 H   0  0  0  0  0  0  0  0  0  0  0  0
  150.1732  138.7486  156.9390 H   0  0  0  0  0  0  0  0  0  0  0  0
  150.7136  138.1468  153.3875 H   0  0  0  0  0  0  0  0  0  0  0  0
  152.1634  138.2138  154.3592 H   0  0  0  0  0  0  0  0  0  0  0  0
  151.5130  136.4602  155.6071 H   0  0  0  0  0  0  0  0  0  0  0  0
  150.0729  137.2966  156.1322 H   0  0  0  0  0  0  0  0  0  0  0  0
  149.3057  136.4578  153.6904 H   0  0  0  0  0  0  0  0  0  0  0  0
  148.6533  134.7168  153.0057 H   0  0  0  0  0  0  0  0  0  0  0  0
  150.2482  132.1096  155.0896 H   0  0  0  0  0  0  0  0  0  0  0  0
  149.8414  129.6902  154.7603 H   0  0  0  0  0  0  0  0  0  0  0  0
  148.0718  128.9699  153.0548 H   0  0  0  0  0  0  0  0  0  0  0  0
  146.9156  132.3611  149.9418 H   0  0  0  0  0  0  0  0  0  0  0  0
  145.7089  131.6691  151.0367 H   0  0  0  0  0  0  0  0  0  0  0  0
  145.7159  134.4377  149.7932 H   0  0  0  0  0  0  0  0  0  0  0  0
  144.3765  133.2868  149.8449 H   0  0  0  0  0  0  0  0  0  0  0  0
  144.4796  135.2663  151.7052 H   0  0  0  0  0  0  0  0  0  0  0  0
  144.0813  133.6262  152.2180 H   0  0  0  0  0  0  0  0  0  0  0  0
  145.9434  133.8862  153.6184 H   0  0  0  0  0  0  0  0  0  0  0  0
  146.6890  135.0798  152.5494 H   0  0  0  0  0  0  0  0  0  0  0  0
  149.1504  139.8818  153.5386 H   0  0  0  0  0  0  0  0  0  0  0  0
  148.5520  139.0605  154.9703 H   0  0  0  0  0  0  0  0  0  0  0  0
  149.4665  141.9895  154.8201 H   0  0  0  0  0  0  0  0  0  0  0  0
  147.1989  141.6284  153.8381 H   0  0  0  0  0  0  0  0  0  0  0  0
  147.0988  142.5218  155.3521 H   0  0  0  0  0  0  0  0  0  0  0  0
  146.6826  140.8107  155.3119 H   0  0  0  0  0  0  0  0  0  0  0  0
  151.2080  140.2240  154.6291 H   0  0  0  0  0  0  0  0  0  0  0  0
  146.9094  130.5935  151.9083 H   0  0  0  0  0  0  0  0  0  0  0  0
  1  2  1  0  0  0  0
  1 26  1  0  0  0  0
  1 27  1  0  0  0  0
  1 28  1  0  0  0  0
  2 25  1  0  0  0  0
  2  3  1  0  0  0  0
  2 29  1  0  0  0  0
  3  4  1  0  0  0  0
  3 30  1  0  0  0  0
  3 31  1  0  0  0  0
  4  5  1  0  0  0  0
  4 22  1  0  0  0  0
  4 55  1  0  0  0  0
  5  6  1  0  0  0  0
  5 32  1  0  0  0  0
  5 33  1  0  0  0  0
  6  7  1  0  0  0  0
  6 34  1  0  0  0  0
  6 35  1  0  0  0  0
  7  8  1  0  0  0  0
  7 36  1  0  0  0  0
  8  9  2  0  0  0  0
  8 10  1  0  0  0  0
 10 11  1  0  0  0  0
 10 37  1  0  0  0  0
 11 16  1  0  0  0  0
 11 12  2  0  0  0  0
 12 13  1  0  0  0  0
 12 38  1  0  0  0  0
 13 14  2  0  0  0  0
 13 39  1  0  0  0  0
 14 15  1  0  0  0  0
 14 40  1  0  0  0  0
 15 16  2  0  0  0  0
 15 56  1  0  0  0  0
 16 17  1  0  0  0  0
 17 21  1  0  0  0  0
 17 18  1  0  0  0  0
 18 19  1  0  0  0  0
 18 41  1  0  0  0  0
 18 42  1  0  0  0  0
 19 20  1  0  0  0  0
 19 43  1  0  0  0  0
 19 44  1  0  0  0  0
 20 21  1  0  0  0  0
 20 45  1  0  0  0  0
 20 46  1  0  0  0  0
 21 47  1  0  0  0  0
 21 48  1  0  0  0  0
 22 23  1  0  0  0  0
 22 49  1  0  0  0  0
 22 50  1  0  0  0  0
 23 24  1  0  0  0  0
 23 25  1  0  0  0  0
 23 51  1  0  0  0  0
 24 52  1  0  0  0  0
 24 53  1  0  0  0  0
 24 54  1  0  0  0  0
M  CHG  1   4   1
M  CHG  1  15   1
M  END
> <s_m_source_file>
AV-unprocessed.smi

> <i_m_source_file_index>
1244

> <i_lp_mmshare_version>
43012

> <i_f3d_flags>
0

> <s_epik_input>
W0NIM11bQ0BASF0xW0NIMl1OKFtDSDJdW0NASF0oTzEpW0NIM10pW0NIMl1bQ0gyXVtOSF1DKD1PKVtOSF1jMltjSF1bY0hdW2NIXW5jMk4zW0NIMl1bQ0gyXVtDSDJdW0NIMl0z

> <s_epik_cmdline>
J2VwaWtfcHl0aG9uJywgJy1waCcsICc3LjAnLCAnLXRuJywgJzgnLCAnLW1hJywgJzIwMCcsICctbWV0YWxfYmluZGluZycsICctaW1hZScsICc8aW5maWxlLm1hZT4nLCAnLW9tYWUnLCAnPG91dGZpbGUubWFlPic=

> <r_lp_tautomer_probability>
0.999994

> <r_epik_Ionization_Penalty>
1.81601

> <r_epik_Ionization_Penalty_Charging>
1.81599

> <r_epik_Ionization_Penalty_Neutral>
2.01972e-05

> <r_epik_State_Penalty>
1.85672

> <r_epik_Charging_Adjusted_Penalty>
3.6727

> <i_epik_Tot_Q>
2

> <i_epik_Tot_abs_Q>
2

> <r_epik_Metal_State_Penalty>
1.93796

> <b_epik_Metal_Only>
0

> <s_lp_Force_Field>
OPLS_2005

> <r_lp_Energy>
51.4993

> <b_lp_Chiralities_Consistent>
1

> <s_lp_Variant>
AV-unprocessed.smi:1244-12

> <Gold.Version>
5.8.1

> <Gold.Id.Protein>
6NUR|6NUR_protein|mol2

> <Gold.PLP.Fitness>
48.7261

> <Gold.PLP.PLP>
-44.8216

> <Gold.PLP.part.hbond>
-3.7323

> <Gold.PLP.part.metal>
0.0000

> <Gold.PLP.part.buried>
-3.4978

> <Gold.PLP.part.nonpolar>
-37.6534

> <Gold.PLP.part.repulsive>
1.4615

> <Gold.PLP.ligand.clash>
0.0000

> <Gold.PLP.ligand.torsion>
1.0225

> <Gold.PLP.Chemscore.Hbond>
1.8440

> <Gold.PLP.Chemscore.CHOScore>
0.0000

> <Gold.PLP.Chemscore.Metal>
0.0000

> <Gold.Chemscore.Hbonds>
donor molecule, donor type, donor heavy atom, donor atom, acceptor molecule, acceptor atom, score
      L1  H     7    36       P1  7948  0.83
      L1  H    10    37       P1  7948  0.94

> <Gold.PLP.Chemscore.Internal.Correction>
0.4175

> <Gold.Rescore>
     Score         DG    S(hbond)    S(metal)    S(lipo)     H(rot)  DE(clash)    DE(int)     intcor
     13.37     -16.67       1.43        0.00      90.43       1.63       0.25       3.05       ----

> <Gold.Chemscore.Fitness>
13.3722

> <Gold.Chemscore.DG>
-16.6702

> <Gold.Chemscore.ZeroCoef>
-5.4800

> <Gold.Chemscore.Hbond>
1.4313

> <Gold.Chemscore.Metal>
0.0000

> <Gold.Chemscore.Lipo>
90.4316

> <Gold.Chemscore.Internal_Hbond>
0.0000

> <Gold.Chemscore.DEClash>
0.2490

> <Gold.Chemscore.DEInternal>
3.0489

> <Gold.Chemscore.Rot>
1.6293

> <Gold.Chemscore.Internal.Correction>
   9.000000E+99

> <Gold.Chemscore.Hbonds>
donor molecule, donor type, donor heavy atom, donor atom, acceptor molecule, acceptor atom, score
      L1  H     7    36       P1  7948  0.75
      L1  H    10    37       P1  7948  0.23

> <Gold.Chemscore.Hbond.Weighted>
-4.7806

> <Gold.Chemscore.Metal.Weighted>
-0.0000

> <Gold.Chemscore.Lipo.Weighted>
-10.5805

> <Gold.Chemscore.Internal_Hbond.Weighted>
0.0000

> <Gold.Chemscore.DEClash.Weighted>
0.2490

> <Gold.Chemscore.DEInternal.Weighted>
3.0489

> <Gold.Chemscore.Rot.Weighted>
4.1709

> <Gold.Chemscore.Internal.Correction.Weighted>
   9.000000E+99

> <Gold.Protein.RotatedTorsions>
[ 6907 6896 6895 6894 ] final  156.10 input  -60.11 | X-H torsion
[ 7974 7965 7964 7962 ] final -130.97 input  175.53 | X-H torsion
[ 8008 7997 7996 7995 ] final  -60.70 input   59.86 | X-H torsion
[ 10167 10162 10161 10158 ] final  -71.09 input  -65.29 | X-H torsion
[ 10718 10713 10712 10709 ] final -116.54 input   66.30 | X-H torsion
[ 10763 10752 10751 10750 ] final   74.77 input  -60.55 | X-H torsion
[ 11005 11000 10999 10996 ] final  -69.08 input  -57.11 | X-H torsion

> <Gold.Protein.ActiveResidues>
 VAL166  LYS551  ARG553  GLY616  TRP617  ASP618  TYR619  PRO620  LYS621  CYS622 
 ASP623  PHE694  ASN695  SER759  ASP760  ASP761  ALA762  ILE779  LEU786  VAL792 
 PHE793  MET794  SER795  GLU796  ALA797  LYS798  CYS799  TRP800  GLU811  SER814 

> <Gold.Protein.RotatedAtoms>
  152.0346  133.3952  159.4311 H   0  0  0  0  0  0  0  0  0  0  0  0  # atno 6907 bound_to 6896
  150.6879  134.3482  159.4907 H   0  0  0  0  0  0  0  0  0  0  0  0  # atno 6908 bound_to 6896
  152.1273  134.9161  160.0611 H   0  0  0  0  0  0  0  0  0  0  0  0  # atno 6909 bound_to 6896
  144.9423  140.7253  143.4839 H   0  0  0  0  0  0  0  0  0  0  0  0  # atno 7974 bound_to 7965
  154.4411  140.1034  156.6315 H   0  0  0  0  0  0  0  0  0  0  0  0  # atno 8008 bound_to 7997
  155.5600  140.3487  155.4470 H   0  0  0  0  0  0  0  0  0  0  0  0  # atno 8009 bound_to 7997
  156.0467  140.1294  157.0085 H   0  0  0  0  0  0  0  0  0  0  0  0  # atno 8010 bound_to 7997
  140.5301  143.2322  151.7278 H   0  0  0  0  0  0  0  0  0  0  0  0  # atno 10167 bound_to 10162
  156.0970  130.6141  150.9048 H   0  0  0  0  0  0  0  0  0  0  0  0  # atno 10718 bound_to 10713
  153.0609  135.5013  154.8092 H   0  0  0  0  0  0  0  0  0  0  0  0  # atno 10763 bound_to 10752
  154.6881  135.2980  154.9520 H   0  0  0  0  0  0  0  0  0  0  0  0  # atno 10764 bound_to 10752
  154.0284  135.6733  153.4831 H   0  0  0  0  0  0  0  0  0  0  0  0  # atno 10765 bound_to 10752
  141.1546  133.6756  156.6545 H   0  0  0  0  0  0  0  0  0  0  0  0  # atno 11005 bound_to 11000
  145.2971  139.1863  143.4709 LP  0  0  0  0  0  0  0  0  0  0  0  0  # atno 17320 bound_to 7965
  146.3290  140.2957  142.8618 LP  0  0  0  0  0  0  0  0  0  0  0  0  # atno 17321 bound_to 7965
  139.4951  144.4127  152.0063 LP  0  0  0  0  0  0  0  0  0  0  0  0  # atno 17342 bound_to 10162
  140.3229  144.3407  150.6005 LP  0  0  0  0  0  0  0  0  0  0  0  0  # atno 17343 bound_to 10162
  157.6133  131.0935  150.8755 LP  0  0  0  0  0  0  0  0  0  0  0  0  # atno 17370 bound_to 10713
  156.8891  130.5206  149.5287 LP  0  0  0  0  0  0  0  0  0  0  0  0  # atno 17371 bound_to 10713
  140.3295  134.7941  157.4315 LP  0  0  0  0  0  0  0  0  0  0  0  0  # atno 17394 bound_to 11000
  140.1029  134.5449  155.8336 LP  0  0  0  0  0  0  0  0  0  0  0  0  # atno 17395 bound_to 11000

$$$$
