AV-unprocessed.smi:1073|AV-procd|sdf|4689|dock8
  -GOLD-   22720 3203D 1   1.00000     0.00000
 Structure written by MMmdl.
 44 44  0  0  0  0  0  0  0  0  1 V2000
  150.4452  132.7640  155.9508 C   0  0  0  0  0  0  0  0  0  0  0  0
  149.9359  134.1266  155.9487 N   0  0  0  0  0  0  0  0  0  0  0  0
  150.6706  135.2078  156.2479 C   0  0  0  0  0  0  0  0  0  0  0  0
  151.8652  135.1467  156.5434 O   0  0  0  0  0  0  0  0  0  0  0  0
  149.9523  136.5623  156.1789 C   0  0  2  0  0  0  0  0  0  0  0  0
  150.9188  137.7425  156.4408 C   0  0  0  0  0  0  0  0  0  0  0  0
  151.1971  138.6735  155.2383 C   0  0  0  0  0  0  0  0  0  0  0  0
  151.7992  137.9218  154.0391 C   0  0  0  0  0  0  0  0  0  0  0  0
  152.1174  139.8309  155.6552 C   0  0  0  0  0  0  0  0  0  0  0  0
  148.8356  136.5854  157.1252 N   0  0  0  0  0  0  0  0  0  0  0  0
  148.9286  136.5827  158.4640 C   0  0  0  0  0  0  0  0  0  0  0  0
  150.0010  136.5430  159.0686 O   0  0  0  0  0  0  0  0  0  0  0  0
  147.5946  136.6109  159.2234 C   0  0  0  0  0  0  0  0  0  0  0  0
  147.5230  135.6294  160.3185 N   0  0  0  0  0  0  0  0  0  0  0  0
  147.5681  134.2675  159.9611 C   0  0  0  0  0  0  0  0  0  0  0  0
  147.5037  133.2704  160.8638 C   0  0  0  0  0  0  0  0  0  0  0  0
  147.6173  131.8111  160.4510 C   0  0  0  0  0  0  0  0  0  0  0  0
  146.6040  131.4540  159.6617 F   0  0  0  0  0  0  0  0  0  0  0  0
  148.7531  131.6171  159.7822 F   0  0  0  0  0  0  0  0  0  0  0  0
  147.6214  131.0090  161.5164 F   0  0  0  0  0  0  0  0  0  0  0  0
  147.4151  133.6653  162.2561 C   0  0  0  0  0  0  0  0  0  0  0  0
  147.3855  134.9634  162.6160 C   0  0  0  0  0  0  0  0  0  0  0  0
  147.4396  136.0365  161.6204 C   0  0  0  0  0  0  0  0  0  0  0  0
  147.4134  137.2261  161.9369 O   0  0  0  0  0  0  0  0  0  0  0  0
  149.6508  132.0696  155.6769 H   0  0  0  0  0  0  0  0  0  0  0  0
  150.8128  132.4888  156.9400 H   0  0  0  0  0  0  0  0  0  0  0  0
  151.2588  132.6520  155.2331 H   0  0  0  0  0  0  0  0  0  0  0  0
  148.9636  134.2572  155.7096 H   0  0  0  0  0  0  0  0  0  0  0  0
  149.5632  136.6453  155.1632 H   0  0  0  0  0  0  0  0  0  0  0  0
  150.5150  138.3379  157.2614 H   0  0  0  0  0  0  0  0  0  0  0  0
  151.8722  137.3556  156.8047 H   0  0  0  0  0  0  0  0  0  0  0  0
  150.2579  139.1229  154.9164 H   0  0  0  0  0  0  0  0  0  0  0  0
  152.7343  137.4297  154.3085 H   0  0  0  0  0  0  0  0  0  0  0  0
  152.0096  138.6052  153.2159 H   0  0  0  0  0  0  0  0  0  0  0  0
  151.1208  137.1613  153.6545 H   0  0  0  0  0  0  0  0  0  0  0  0
  153.0881  139.4646  155.9909 H   0  0  0  0  0  0  0  0  0  0  0  0
  151.6801  140.4095  156.4695 H   0  0  0  0  0  0  0  0  0  0  0  0
  152.2894  140.5160  154.8244 H   0  0  0  0  0  0  0  0  0  0  0  0
  147.9113  136.6236  156.7198 H   0  0  0  0  0  0  0  0  0  0  0  0
  147.4219  137.6179  159.6077 H   0  0  0  0  0  0  0  0  0  0  0  0
  146.7911  136.4391  158.5059 H   0  0  0  0  0  0  0  0  0  0  0  0
  147.6706  134.0848  158.9011 H   0  0  0  0  0  0  0  0  0  0  0  0
  147.3696  132.9075  163.0244 H   0  0  0  0  0  0  0  0  0  0  0  0
  147.3192  135.2206  163.6630 H   0  0  0  0  0  0  0  0  0  0  0  0
  1  2  1  0  0  0  0
  1 25  1  0  0  0  0
  1 26  1  0  0  0  0
  1 27  1  0  0  0  0
  2  3  1  0  0  0  0
  2 28  1  0  0  0  0
  3  4  2  0  0  0  0
  3  5  1  0  0  0  0
  5  6  1  0  0  0  0
  5 10  1  0  0  0  0
  5 29  1  0  0  0  0
  6  7  1  0  0  0  0
  6 30  1  0  0  0  0
  6 31  1  0  0  0  0
  7  8  1  0  0  0  0
  7  9  1  0  0  0  0
  7 32  1  0  0  0  0
  8 33  1  0  0  0  0
  8 34  1  0  0  0  0
  8 35  1  0  0  0  0
  9 36  1  0  0  0  0
  9 37  1  0  0  0  0
  9 38  1  0  0  0  0
 10 11  1  0  0  0  0
 10 39  1  0  0  0  0
 11 12  2  0  0  0  0
 11 13  1  0  0  0  0
 13 14  1  0  0  0  0
 13 40  1  0  0  0  0
 13 41  1  0  0  0  0
 14 23  1  0  0  0  0
 14 15  1  0  0  0  0
 15 16  2  0  0  0  0
 15 42  1  0  0  0  0
 16 17  1  0  0  0  0
 16 21  1  0  0  0  0
 17 18  1  0  0  0  0
 17 19  1  0  0  0  0
 17 20  1  0  0  0  0
 21 22  2  0  0  0  0
 21 43  1  0  0  0  0
 22 23  1  0  0  0  0
 22 44  1  0  0  0  0
 23 24  2  0  0  0  0
M  END
> <s_m_source_file>
AV-unprocessed.smi

> <i_m_source_file_index>
1073

> <i_lp_mmshare_version>
43012

> <i_f3d_flags>
0

> <s_epik_input>
W0NIM11bTkhdQyg9TylbQ0BIXShbQ0gyXVtDSF0oW0NIM10pW0NIM10pW05IXUMoPU8pW0NIMl1uMVtjSF1jKEMoRikoRilGKVtjSF1bY0hdYzE9Tw==

> <s_epik_cmdline>
J2VwaWtfcHl0aG9uJywgJy1waCcsICc3LjAnLCAnLXRuJywgJzgnLCAnLW1hJywgJzIwMCcsICctbWV0YWxfYmluZGluZycsICctaW1hZScsICc8aW5maWxlLm1hZT4nLCAnLW9tYWUnLCAnPG91dGZpbGUubWFlPic=

> <r_lp_tautomer_probability>
1

> <r_epik_Ionization_Penalty>
7.02352e-08

> <r_epik_Ionization_Penalty_Charging>
1.57869e-08

> <r_epik_Ionization_Penalty_Neutral>
5.44484e-08

> <r_epik_State_Penalty>
-0

> <r_epik_Charging_Adjusted_Penalty>
1.57869e-08

> <i_epik_Tot_Q>
0

> <i_epik_Tot_abs_Q>
0

> <r_epik_Metal_State_Penalty>
-0

> <b_epik_Metal_Only>
0

> <s_lp_Force_Field>
OPLS_2005

> <r_lp_Energy>
18.1755

> <b_lp_Chiralities_Consistent>
1

> <s_lp_Variant>
AV-unprocessed.smi:1073-1

> <Gold.Version>
5.8.1

> <Gold.Id.Protein>
6NUR|6NUR_protein|mol2

> <Gold.PLP.Fitness>
47.6191

> <Gold.PLP.PLP>
-38.6608

> <Gold.PLP.part.hbond>
-4.0000

> <Gold.PLP.part.metal>
0.0000

> <Gold.PLP.part.buried>
-4.6962

> <Gold.PLP.part.nonpolar>
-29.5849

> <Gold.PLP.part.repulsive>
0.1053

> <Gold.PLP.ligand.clash>
0.0000

> <Gold.PLP.ligand.torsion>
1.0010

> <Gold.PLP.Chemscore.Hbond>
3.6000

> <Gold.PLP.Chemscore.CHOScore>
0.0000

> <Gold.PLP.Chemscore.Metal>
0.0000

> <Gold.Chemscore.Hbonds>
donor molecule, donor type, donor heavy atom, donor atom, acceptor molecule, acceptor atom, score
      P1  H  6896  6908       L1    12  1.00
      P1  H  6931  6943       L1    24  0.90
      P1  H  6934  6947       L1    24  0.67
      P1  H 10752 10763       L1     4  1.00

> <Gold.PLP.Chemscore.Internal.Correction>
0.1603

> <Gold.Rescore>
     Score         DG    S(hbond)    S(metal)    S(lipo)     H(rot)  DE(clash)    DE(int)     intcor
     17.44     -19.18       3.55        0.00      70.69       2.51       0.01       1.73       ----

> <Gold.Chemscore.Fitness>
17.4353

> <Gold.Chemscore.DG>
-19.1823

> <Gold.Chemscore.ZeroCoef>
-5.4800

> <Gold.Chemscore.Hbond>
3.5539

> <Gold.Chemscore.Metal>
0.0000

> <Gold.Chemscore.Lipo>
70.6887

> <Gold.Chemscore.Internal_Hbond>
0.0000

> <Gold.Chemscore.DEClash>
0.0149

> <Gold.Chemscore.DEInternal>
1.7322

> <Gold.Chemscore.Rot>
2.5149

> <Gold.Chemscore.Internal.Correction>
   9.000000E+99

> <Gold.Chemscore.Hbonds>
donor molecule, donor type, donor heavy atom, donor atom, acceptor molecule, acceptor atom, score
      P1  H  6896  6908       L1    12  0.95
      P1  H  6931  6943       L1    24  0.86
      P1  H  6934  6947       L1    24  0.64
      P1  H 10752 10763       L1     4  0.94

> <Gold.Chemscore.Hbond.Weighted>
-11.8699

> <Gold.Chemscore.Metal.Weighted>
-0.0000

> <Gold.Chemscore.Lipo.Weighted>
-8.2706

> <Gold.Chemscore.Internal_Hbond.Weighted>
0.0000

> <Gold.Chemscore.DEClash.Weighted>
0.0149

> <Gold.Chemscore.DEInternal.Weighted>
1.7322

> <Gold.Chemscore.Rot.Weighted>
6.4381

> <Gold.Chemscore.Internal.Correction.Weighted>
   9.000000E+99

> <Gold.Protein.RotatedTorsions>
[ 6907 6896 6895 6894 ] final -173.75 input  -60.11 | X-H torsion
[ 7974 7965 7964 7962 ] final -163.14 input  175.53 | X-H torsion
[ 8008 7997 7996 7995 ] final    0.81 input   59.86 | X-H torsion
[ 10167 10162 10161 10158 ] final -166.32 input  -65.29 | X-H torsion
[ 10718 10713 10712 10709 ] final   -6.65 input   66.30 | X-H torsion
[ 10763 10752 10751 10750 ] final  106.92 input  -60.55 | X-H torsion
[ 11005 11000 10999 10996 ] final -164.96 input  -57.11 | X-H torsion

> <Gold.Protein.ActiveResidues>
 VAL166  LYS551  ARG553  GLY616  TRP617  ASP618  TYR619  PRO620  LYS621  CYS622 
 ASP623  PHE694  ASN695  SER759  ASP760  ASP761  ALA762  ILE779  LEU786  VAL792 
 PHE793  MET794  SER795  GLU796  ALA797  LYS798  CYS799  TRP800  GLU811  SER814 

> <Gold.Protein.RotatedAtoms>
  151.5612  133.3403  159.2971 H   0  0  0  0  0  0  0  0  0  0  0  0  # atno 6907 bound_to 6896
  150.8422  134.7721  159.6952 H   0  0  0  0  0  0  0  0  0  0  0  0  # atno 6908 bound_to 6896
  152.4487  134.5447  159.9901 H   0  0  0  0  0  0  0  0  0  0  0  0  # atno 6909 bound_to 6896
  144.7335  140.3151  143.6181 H   0  0  0  0  0  0  0  0  0  0  0  0  # atno 7974 bound_to 7965
  154.6724  140.2615  155.6993 H   0  0  0  0  0  0  0  0  0  0  0  0  # atno 8008 bound_to 7997
  156.2664  140.2826  156.1161 H   0  0  0  0  0  0  0  0  0  0  0  0  # atno 8009 bound_to 7997
  155.1149  140.0376  157.2724 H   0  0  0  0  0  0  0  0  0  0  0  0  # atno 8010 bound_to 7997
  139.6122  144.0791  152.1853 H   0  0  0  0  0  0  0  0  0  0  0  0  # atno 10167 bound_to 10162
  156.7288  130.5173  149.5850 H   0  0  0  0  0  0  0  0  0  0  0  0  # atno 10718 bound_to 10713
  153.3996  135.3861  155.1978 H   0  0  0  0  0  0  0  0  0  0  0  0  # atno 10763 bound_to 10752
  154.8728  135.3768  154.4636 H   0  0  0  0  0  0  0  0  0  0  0  0  # atno 10764 bound_to 10752
  153.5131  135.7087  153.5832 H   0  0  0  0  0  0  0  0  0  0  0  0  # atno 10765 bound_to 10752
  140.5810  134.5141  157.5178 H   0  0  0  0  0  0  0  0  0  0  0  0  # atno 11005 bound_to 11000
  145.7625  139.1829  143.2258 LP  0  0  0  0  0  0  0  0  0  0  0  0  # atno 17320 bound_to 7965
  146.0975  140.7583  142.9565 LP  0  0  0  0  0  0  0  0  0  0  0  0  # atno 17321 bound_to 7965
  140.0412  144.6006  150.7409 LP  0  0  0  0  0  0  0  0  0  0  0  0  # atno 17342 bound_to 10162
  140.7327  143.2709  151.3893 LP  0  0  0  0  0  0  0  0  0  0  0  0  # atno 17343 bound_to 10162
  156.1543  130.6331  151.0637 LP  0  0  0  0  0  0  0  0  0  0  0  0  # atno 17370 bound_to 10713
  157.6867  131.0822  150.7222 LP  0  0  0  0  0  0  0  0  0  0  0  0  # atno 17371 bound_to 10713
  139.9317  134.7951  156.0912 LP  0  0  0  0  0  0  0  0  0  0  0  0  # atno 17394 bound_to 11000
  141.0996  133.6682  156.2724 LP  0  0  0  0  0  0  0  0  0  0  0  0  # atno 17395 bound_to 11000

$$$$
