AV-unprocessed.smi:3115|AV-procd|sdf|11860|dock10
  -GOLD-   2272017243D 1   1.00000     0.00000
 Structure written by MMmdl.
 32 33  0  0  0  0  0  0  0  0  1 V2000
  151.9045  144.8733  159.6120 C   0  0  0  0  0  0  0  0  0  0  0  0
  152.5186  143.4980  159.3301 C   0  0  2  0  0  0  0  0  0  0  0  0
  151.7953  142.7646  158.1833 C   0  0  0  0  0  0  0  0  0  0  0  0
  152.3493  141.4267  158.0154 N   0  0  0  0  0  0  0  0  0  0  0  0
  151.8245  140.7370  156.9132 C   0  0  0  0  0  0  0  0  0  0  0  0
  150.5971  141.1618  156.3617 C   0  0  0  0  0  0  0  0  0  0  0  0
  150.0753  140.4669  155.2518 C   0  0  0  0  0  0  0  0  0  0  0  0
  148.7577  140.8806  154.6305 C   0  0  0  0  0  0  0  0  0  0  0  0
  148.8664  141.0866  153.2008 N   0  0  0  0  0  0  0  0  0  0  0  0
  150.7972  139.3703  154.7399 C   0  0  0  0  0  0  0  0  0  0  0  0
  152.0134  139.0221  155.3589 C   0  0  0  0  0  0  0  0  0  0  0  0
  152.5215  139.6850  156.4197 N   0  0  0  0  0  0  0  0  0  0  0  0
  152.3192  140.6546  159.2510 C   0  0  0  0  0  0  0  0  0  0  0  0
  153.0293  141.4322  160.3718 C   0  0  0  0  0  0  0  0  0  0  0  0
  152.4258  142.7146  160.5184 O   0  0  0  0  0  0  0  0  0  0  0  0
  151.9614  145.5162  158.7334 H   0  0  0  0  0  0  0  0  0  0  0  0
  152.4289  145.3749  160.4256 H   0  0  0  0  0  0  0  0  0  0  0  0
  150.8553  144.7858  159.8958 H   0  0  0  0  0  0  0  0  0  0  0  0
  153.5710  143.6327  159.0732 H   0  0  0  0  0  0  0  0  0  0  0  0
  150.7280  142.6968  158.3990 H   0  0  0  0  0  0  0  0  0  0  0  0
  151.9018  143.3240  157.2529 H   0  0  0  0  0  0  0  0  0  0  0  0
  150.0660  142.0035  156.7823 H   0  0  0  0  0  0  0  0  0  0  0  0
  147.9960  140.1258  154.8282 H   0  0  0  0  0  0  0  0  0  0  0  0
  148.4169  141.8059  155.0957 H   0  0  0  0  0  0  0  0  0  0  0  0
  149.2882  140.2759  152.7708 H   0  0  0  0  0  0  0  0  0  0  0  0
  147.9426  141.1794  152.8028 H   0  0  0  0  0  0  0  0  0  0  0  0
  150.4300  138.8085  153.8937 H   0  0  0  0  0  0  0  0  0  0  0  0
  152.5937  138.1882  154.9927 H   0  0  0  0  0  0  0  0  0  0  0  0
  151.2855  140.4553  159.5376 H   0  0  0  0  0  0  0  0  0  0  0  0
  152.8043  139.6899  159.0972 H   0  0  0  0  0  0  0  0  0  0  0  0
  152.9478  140.8911  161.3146 H   0  0  0  0  0  0  0  0  0  0  0  0
  154.0935  141.5413  160.1568 H   0  0  0  0  0  0  0  0  0  0  0  0
  1  2  1  0  0  0  0
  1 16  1  0  0  0  0
  1 17  1  0  0  0  0
  1 18  1  0  0  0  0
  2 15  1  0  0  0  0
  2  3  1  0  0  0  0
  2 19  1  0  0  0  0
  3  4  1  0  0  0  0
  3 20  1  0  0  0  0
  3 21  1  0  0  0  0
  4  5  1  0  0  0  0
  4 13  1  0  0  0  0
  5 12  1  0  0  0  0
  5  6  2  0  0  0  0
  6  7  1  0  0  0  0
  6 22  1  0  0  0  0
  7  8  1  0  0  0  0
  7 10  2  0  0  0  0
  8  9  1  0  0  0  0
  8 23  1  0  0  0  0
  8 24  1  0  0  0  0
  9 25  1  0  0  0  0
  9 26  1  0  0  0  0
 10 11  1  0  0  0  0
 10 27  1  0  0  0  0
 11 12  2  0  0  0  0
 11 28  1  0  0  0  0
 13 14  1  0  0  0  0
 13 29  1  0  0  0  0
 13 30  1  0  0  0  0
 14 15  1  0  0  0  0
 14 31  1  0  0  0  0
 14 32  1  0  0  0  0
M  END
> <s_m_source_file>
AV-unprocessed.smi

> <i_m_source_file_index>
3115

> <i_lp_mmshare_version>
43012

> <i_f3d_flags>
0

> <s_epik_input>
W0NIM11bQ0BASF0xW0NIMl1OKFtDSDJdW0NIMl1PMSljMltjSF1jKFtDSDJdW05IMl0pW2NIXVtjSF1uMg==

> <s_epik_cmdline>
J2VwaWtfcHl0aG9uJywgJy1waCcsICc3LjAnLCAnLXRuJywgJzgnLCAnLW1hJywgJzIwMCcsICctbWV0YWxfYmluZGluZycsICctaW1hZScsICc8aW5maWxlLm1hZT4nLCAnLW9tYWUnLCAnPG91dGZpbGUubWFlPic=

> <r_lp_tautomer_probability>
1

> <r_epik_Ionization_Penalty>
1.27341

> <r_epik_Ionization_Penalty_Charging>
0

> <r_epik_Ionization_Penalty_Neutral>
1.27341

> <r_epik_State_Penalty>
2.46834

> <r_epik_Charging_Adjusted_Penalty>
2.46834

> <i_epik_Tot_Q>
0

> <i_epik_Tot_abs_Q>
0

> <r_epik_Metal_State_Penalty>
2.44319

> <b_epik_Metal_Only>
0

> <s_lp_Force_Field>
OPLS_2005

> <r_lp_Energy>
17.2418

> <b_lp_Chiralities_Consistent>
1

> <s_lp_Variant>
AV-unprocessed.smi:3115-3

> <Gold.Version>
5.8.1

> <Gold.Id.Protein>
6NUR|6NUR_protein|mol2

> <Gold.PLP.Fitness>
40.3101

> <Gold.PLP.PLP>
-34.9910

> <Gold.PLP.part.hbond>
-3.0101

> <Gold.PLP.part.metal>
0.0000

> <Gold.PLP.part.buried>
-1.9722

> <Gold.PLP.part.nonpolar>
-28.7558

> <Gold.PLP.part.repulsive>
0.0210

> <Gold.PLP.ligand.clash>
1.5839

> <Gold.PLP.ligand.torsion>
0.4144

> <Gold.PLP.Chemscore.Hbond>
2.5440

> <Gold.PLP.Chemscore.CHOScore>
0.0000

> <Gold.PLP.Chemscore.Metal>
0.0000

> <Gold.Chemscore.Hbonds>
donor molecule, donor type, donor heavy atom, donor atom, acceptor molecule, acceptor atom, score
      L1  H     9    25       P1  7957  0.54
      P1  H  7997  8009       L1    12  1.00
      P1  H  8011  8017       L1     9  1.00

> <Gold.PLP.Chemscore.Internal.Correction>
0.0998

> <Gold.Rescore>
     Score         DG    S(hbond)    S(metal)    S(lipo)     H(rot)  DE(clash)    DE(int)     intcor
     16.72     -17.27       1.44        0.00      87.69       1.28       0.12       0.42       ----

> <Gold.Chemscore.Fitness>
16.7238

> <Gold.Chemscore.DG>
-17.2682

> <Gold.Chemscore.ZeroCoef>
-5.4800

> <Gold.Chemscore.Hbond>
1.4358

> <Gold.Chemscore.Metal>
0.0000

> <Gold.Chemscore.Lipo>
87.6908

> <Gold.Chemscore.Internal_Hbond>
0.0000

> <Gold.Chemscore.DEClash>
0.1207

> <Gold.Chemscore.DEInternal>
0.4237

> <Gold.Chemscore.Rot>
1.2762

> <Gold.Chemscore.Internal.Correction>
   9.000000E+99

> <Gold.Chemscore.Hbonds>
donor molecule, donor type, donor heavy atom, donor atom, acceptor molecule, acceptor atom, score
      L1  H     9    25       P1  7957  0.54
      P1  H  7997  8009       L1    12  0.65
      P1  H  8011  8017       L1     9  0.09

> <Gold.Chemscore.Hbond.Weighted>
-4.7955

> <Gold.Chemscore.Metal.Weighted>
-0.0000

> <Gold.Chemscore.Lipo.Weighted>
-10.2598

> <Gold.Chemscore.Internal_Hbond.Weighted>
0.0000

> <Gold.Chemscore.DEClash.Weighted>
0.1207

> <Gold.Chemscore.DEInternal.Weighted>
0.4237

> <Gold.Chemscore.Rot.Weighted>
3.2671

> <Gold.Chemscore.Internal.Correction.Weighted>
   9.000000E+99

> <Gold.Protein.RotatedTorsions>
[ 6907 6896 6895 6894 ] final  -88.97 input  -60.11 | X-H torsion
[ 7974 7965 7964 7962 ] final -125.78 input  175.53 | X-H torsion
[ 8008 7997 7996 7995 ] final -161.28 input   59.86 | X-H torsion
[ 10167 10162 10161 10158 ] final  -52.54 input  -65.29 | X-H torsion
[ 10718 10713 10712 10709 ] final  153.16 input   66.30 | X-H torsion
[ 10763 10752 10751 10750 ] final   31.73 input  -60.55 | X-H torsion
[ 11005 11000 10999 10996 ] final -143.39 input  -57.11 | X-H torsion

> <Gold.Protein.ActiveResidues>
 VAL166  LYS551  ARG553  GLY616  TRP617  ASP618  TYR619  PRO620  LYS621  CYS622 
 ASP623  PHE694  ASN695  SER759  ASP760  ASP761  ALA762  ILE779  LEU786  VAL792 
 PHE793  MET794  SER795  GLU796  ALA797  LYS798  CYS799  TRP800  GLU811  SER814 

> <Gold.Protein.RotatedAtoms>
  150.6871  134.2659  159.4567 H   0  0  0  0  0  0  0  0  0  0  0  0  # atno 6907 bound_to 6896
  152.0585  134.9607  160.0584 H   0  0  0  0  0  0  0  0  0  0  0  0  # atno 6908 bound_to 6896
  152.1043  133.4231  159.4638 H   0  0  0  0  0  0  0  0  0  0  0  0  # atno 6909 bound_to 6896
  144.9940  140.7759  143.4537 H   0  0  0  0  0  0  0  0  0  0  0  0  # atno 7974 bound_to 7965
  155.7898  140.0877  157.2015 H   0  0  0  0  0  0  0  0  0  0  0  0  # atno 8008 bound_to 7997
  154.3986  140.1492  156.3208 H   0  0  0  0  0  0  0  0  0  0  0  0  # atno 8009 bound_to 7997
  155.8570  140.3432  155.5733 H   0  0  0  0  0  0  0  0  0  0  0  0  # atno 8010 bound_to 7997
  140.6532  143.2580  151.4663 H   0  0  0  0  0  0  0  0  0  0  0  0  # atno 10167 bound_to 10162
  157.2483  131.0773  151.1747 H   0  0  0  0  0  0  0  0  0  0  0  0  # atno 10718 bound_to 10713
  153.0300  135.6431  154.1244 H   0  0  0  0  0  0  0  0  0  0  0  0  # atno 10763 bound_to 10752
  154.0968  135.2862  155.3261 H   0  0  0  0  0  0  0  0  0  0  0  0  # atno 10764 bound_to 10752
  154.6426  135.5454  153.7871 H   0  0  0  0  0  0  0  0  0  0  0  0  # atno 10765 bound_to 10752
  140.8129  134.2722  157.4933 H   0  0  0  0  0  0  0  0  0  0  0  0  # atno 11005 bound_to 11000
  145.2246  139.2143  143.5075 LP  0  0  0  0  0  0  0  0  0  0  0  0  # atno 17320 bound_to 7965
  146.3438  140.2110  142.8590 LP  0  0  0  0  0  0  0  0  0  0  0  0  # atno 17321 bound_to 7965
  139.5750  144.1840  152.1890 LP  0  0  0  0  0  0  0  0  0  0  0  0  # atno 17342 bound_to 10162
  140.1148  144.5425  150.6901 LP  0  0  0  0  0  0  0  0  0  0  0  0  # atno 17343 bound_to 10162
  157.3305  130.6982  149.6321 LP  0  0  0  0  0  0  0  0  0  0  0  0  # atno 17370 bound_to 10713
  155.9667  130.4309  150.4896 LP  0  0  0  0  0  0  0  0  0  0  0  0  # atno 17371 bound_to 10713
  139.8713  134.9493  156.4022 LP  0  0  0  0  0  0  0  0  0  0  0  0  # atno 17394 bound_to 11000
  140.9179  133.7666  155.9870 LP  0  0  0  0  0  0  0  0  0  0  0  0  # atno 17395 bound_to 11000

$$$$
