AV-unprocessed.smi:3267|AV-procd|sdf|12506|dock5
  -GOLD-   2272018413D 1   1.00000     0.00000
 Structure written by MMmdl.
 38 39  0  0  0  0  0  0  0  0  1 V2000
  146.0218  135.5918  153.6780 C   0  0  0  0  0  0  0  0  0  0  0  0
  145.6971  136.6047  152.5710 C   0  0  2  0  0  0  0  0  0  0  0  0
  145.6152  135.9317  151.1782 C   0  0  0  0  0  0  0  0  0  0  0  0
  144.7805  134.7453  151.1972 N   0  0  0  0  0  0  0  0  0  0  0  0
  144.7063  133.7346  150.2624 C   0  0  0  0  0  0  0  0  0  0  0  0
  143.7733  132.8412  150.7044 C   0  0  0  0  0  0  0  0  0  0  0  0
  143.3264  133.4003  151.9344 C   0  0  0  0  0  0  0  0  0  0  0  0
  143.9316  134.5401  152.2274 N   0  0  0  0  0  0  0  0  0  0  0  0
  146.6987  137.6681  152.5854 N   0  0  0  0  0  0  0  0  0  0  0  0
  146.7400  138.6755  153.4693 C   0  0  0  0  0  0  0  0  0  0  0  0
  145.9218  138.8332  154.3757 O   0  0  0  0  0  0  0  0  0  0  0  0
  147.7741  139.4960  153.2413 N   0  0  0  0  0  0  0  0  0  0  0  0
  148.0618  140.7046  154.0049 C   0  0  0  0  0  0  0  0  0  0  0  0
  149.3427  140.5484  154.8409 C   0  0  1  0  0  0  0  0  0  0  0  0
  149.2031  139.5644  156.0016 C   0  0  0  0  0  0  0  0  0  0  0  0
  150.6344  139.1215  156.2009 C   0  0  0  0  0  0  0  0  0  0  0  0
  151.1331  139.0405  154.7619 C   0  0  0  0  0  0  0  0  0  0  0  0
  150.4038  140.0300  154.0403 O   0  0  0  0  0  0  0  0  0  0  0  0
  145.2654  134.8076  153.7221 H   0  0  0  0  0  0  0  0  0  0  0  0
  146.0526  136.0731  154.6559 H   0  0  0  0  0  0  0  0  0  0  0  0
  146.9877  135.1144  153.5096 H   0  0  0  0  0  0  0  0  0  0  0  0
  144.7337  137.0544  152.8213 H   0  0  0  0  0  0  0  0  0  0  0  0
  145.2153  136.6141  150.4265 H   0  0  0  0  0  0  0  0  0  0  0  0
  146.6057  135.6473  150.8197 H   0  0  0  0  0  0  0  0  0  0  0  0
  145.3136  133.7382  149.3690 H   0  0  0  0  0  0  0  0  0  0  0  0
  143.4564  131.9291  150.2212 H   0  0  0  0  0  0  0  0  0  0  0  0
  142.5844  133.0149  152.6179 H   0  0  0  0  0  0  0  0  0  0  0  0
  147.4147  137.6293  151.8749 H   0  0  0  0  0  0  0  0  0  0  0  0
  148.3917  139.2862  152.4708 H   0  0  0  0  0  0  0  0  0  0  0  0
  148.1522  141.5575  153.3303 H   0  0  0  0  0  0  0  0  0  0  0  0
  147.2114  140.9132  154.6546 H   0  0  0  0  0  0  0  0  0  0  0  0
  149.6623  141.5141  155.2360 H   0  0  0  0  0  0  0  0  0  0  0  0
  148.7666  140.0177  156.8921 H   0  0  0  0  0  0  0  0  0  0  0  0
  148.5867  138.7114  155.7140 H   0  0  0  0  0  0  0  0  0  0  0  0
  151.1900  139.8825  156.7506 H   0  0  0  0  0  0  0  0  0  0  0  0
  150.7226  138.1765  156.7375 H   0  0  0  0  0  0  0  0  0  0  0  0
  152.2088  139.2000  154.6839 H   0  0  0  0  0  0  0  0  0  0  0  0
  150.9038  138.0633  154.3352 H   0  0  0  0  0  0  0  0  0  0  0  0
  1  2  1  0  0  0  0
  1 19  1  0  0  0  0
  1 20  1  0  0  0  0
  1 21  1  0  0  0  0
  2  3  1  0  0  0  0
  2  9  1  0  0  0  0
  2 22  1  0  0  0  0
  3  4  1  0  0  0  0
  3 23  1  0  0  0  0
  3 24  1  0  0  0  0
  4  8  1  0  0  0  0
  4  5  1  0  0  0  0
  5  6  2  0  0  0  0
  5 25  1  0  0  0  0
  6  7  1  0  0  0  0
  6 26  1  0  0  0  0
  7  8  2  0  0  0  0
  7 27  1  0  0  0  0
  9 10  1  0  0  0  0
  9 28  1  0  0  0  0
 10 11  2  0  0  0  0
 10 12  1  0  0  0  0
 12 13  1  0  0  0  0
 12 29  1  0  0  0  0
 13 14  1  0  0  0  0
 13 30  1  0  0  0  0
 13 31  1  0  0  0  0
 14 18  1  0  0  0  0
 14 15  1  0  0  0  0
 14 32  1  0  0  0  0
 15 16  1  0  0  0  0
 15 33  1  0  0  0  0
 15 34  1  0  0  0  0
 16 17  1  0  0  0  0
 16 35  1  0  0  0  0
 16 36  1  0  0  0  0
 17 18  1  0  0  0  0
 17 37  1  0  0  0  0
 17 38  1  0  0  0  0
M  END
> <s_m_source_file>
AV-unprocessed.smi

> <i_m_source_file_index>
3267

> <i_lp_mmshare_version>
43012

> <i_f3d_flags>
0

> <s_epik_input>
bjFbY0hdW2NIXVtjSF1uMVtDSDJdW0NAQEhdKFtDSDNdKVtOSF1DKD1PKVtOSF1bQ0gyXVtDQEBIXTJbQ0gyXVtDSDJdW0NIMl1PMg==

> <s_epik_cmdline>
J2VwaWtfcHl0aG9uJywgJy1waCcsICc3LjAnLCAnLXRuJywgJzgnLCAnLW1hJywgJzIwMCcsICctbWV0YWxfYmluZGluZycsICctaW1hZScsICc8aW5maWxlLm1hZT4nLCAnLW9tYWUnLCAnPG91dGZpbGUubWFlPic=

> <r_lp_tautomer_probability>
1

> <r_epik_Ionization_Penalty>
6.24796e-05

> <r_epik_Ionization_Penalty_Charging>
0

> <r_epik_Ionization_Penalty_Neutral>
6.24796e-05

> <r_epik_State_Penalty>
-0

> <r_epik_Charging_Adjusted_Penalty>
0

> <i_epik_Tot_Q>
0

> <i_epik_Tot_abs_Q>
0

> <r_epik_Metal_State_Penalty>
-0

> <b_epik_Metal_Only>
0

> <s_lp_Force_Field>
OPLS_2005

> <r_lp_Energy>
17.3536

> <b_lp_Chiralities_Consistent>
1

> <s_lp_Variant>
AV-unprocessed.smi:3267-3

> <Gold.Version>
5.8.1

> <Gold.Id.Protein>
6NUR|6NUR_protein|mol2

> <Gold.PLP.Fitness>
40.4725

> <Gold.PLP.PLP>
-28.3551

> <Gold.PLP.part.hbond>
-3.0000

> <Gold.PLP.part.metal>
0.0000

> <Gold.PLP.part.buried>
-5.9194

> <Gold.PLP.part.nonpolar>
-22.6604

> <Gold.PLP.part.repulsive>
1.0530

> <Gold.PLP.ligand.clash>
0.0000

> <Gold.PLP.ligand.torsion>
0.6104

> <Gold.PLP.Chemscore.Hbond>
2.4400

> <Gold.PLP.Chemscore.CHOScore>
2.0000

> <Gold.PLP.Chemscore.Metal>
0.0000

> <Gold.Chemscore.Hbonds>
donor molecule, donor type, donor heavy atom, donor atom, acceptor molecule, acceptor atom, score
      L1  H     9    28       P1  7948  0.47
      L1  H    12    29       P1  7957  0.91
      P1  H  7989  7998       L1    18  0.95
      L1  C     5    25       P1  7921  1.00
      L1  C     7    27       P1 10957  1.00

> <Gold.PLP.Chemscore.Internal.Correction>
0.0182

> <Gold.Rescore>
     Score         DG    S(hbond)    S(metal)    S(lipo)     H(rot)  DE(clash)    DE(int)     intcor
     13.46     -15.55       2.27        0.00      62.18       1.87       0.10       1.99       ----

> <Gold.Chemscore.Fitness>
13.4633

> <Gold.Chemscore.DG>
-15.5488

> <Gold.Chemscore.ZeroCoef>
-5.4800

> <Gold.Chemscore.Hbond>
2.2716

> <Gold.Chemscore.Metal>
0.0000

> <Gold.Chemscore.Lipo>
62.1783

> <Gold.Chemscore.Internal_Hbond>
0.0000

> <Gold.Chemscore.DEClash>
0.0990

> <Gold.Chemscore.DEInternal>
1.9865

> <Gold.Chemscore.Rot>
1.8724

> <Gold.Chemscore.Internal.Correction>
   9.000000E+99

> <Gold.Chemscore.Hbonds>
donor molecule, donor type, donor heavy atom, donor atom, acceptor molecule, acceptor atom, score
      L1  H     9    28       P1  7948  0.45
      L1  H    12    29       P1  7957  0.89
      P1  H  7989  7998       L1    18  0.20

> <Gold.Chemscore.Hbond.Weighted>
-7.5872

> <Gold.Chemscore.Metal.Weighted>
-0.0000

> <Gold.Chemscore.Lipo.Weighted>
-7.2749

> <Gold.Chemscore.Internal_Hbond.Weighted>
0.0000

> <Gold.Chemscore.DEClash.Weighted>
0.0990

> <Gold.Chemscore.DEInternal.Weighted>
1.9865

> <Gold.Chemscore.Rot.Weighted>
4.7933

> <Gold.Chemscore.Internal.Correction.Weighted>
   9.000000E+99

> <Gold.Protein.RotatedTorsions>
[ 6907 6896 6895 6894 ] final  132.37 input  -60.11 | X-H torsion
[ 7974 7965 7964 7962 ] final  -31.17 input  175.53 | X-H torsion
[ 8008 7997 7996 7995 ] final   72.22 input   59.86 | X-H torsion
[ 10167 10162 10161 10158 ] final  131.04 input  -65.29 | X-H torsion
[ 10718 10713 10712 10709 ] final  127.45 input   66.30 | X-H torsion
[ 10763 10752 10751 10750 ] final   35.19 input  -60.55 | X-H torsion
[ 11005 11000 10999 10996 ] final -160.54 input  -57.11 | X-H torsion

> <Gold.Protein.ActiveResidues>
 VAL166  LYS551  ARG553  GLY616  TRP617  ASP618  TYR619  PRO620  LYS621  CYS622 
 ASP623  PHE694  ASN695  SER759  ASP760  ASP761  ALA762  ILE779  LEU786  VAL792 
 PHE793  MET794  SER795  GLU796  ALA797  LYS798  CYS799  TRP800  GLU811  SER814 

> <Gold.Protein.RotatedAtoms>
  152.3331  133.5980  159.5823 H   0  0  0  0  0  0  0  0  0  0  0  0  # atno 6907 bound_to 6896
  150.7434  133.9838  159.3593 H   0  0  0  0  0  0  0  0  0  0  0  0  # atno 6908 bound_to 6896
  151.7710  135.0787  160.0411 H   0  0  0  0  0  0  0  0  0  0  0  0  # atno 6909 bound_to 6896
  146.1088  140.5633  142.8787 H   0  0  0  0  0  0  0  0  0  0  0  0  # atno 7974 bound_to 7965
  155.7656  140.3485  155.5220 H   0  0  0  0  0  0  0  0  0  0  0  0  # atno 8008 bound_to 7997
  155.8871  140.1012  157.1465 H   0  0  0  0  0  0  0  0  0  0  0  0  # atno 8009 bound_to 7997
  154.4030  140.1311  156.4257 H   0  0  0  0  0  0  0  0  0  0  0  0  # atno 8010 bound_to 7997
  139.5402  144.6723  151.4650 H   0  0  0  0  0  0  0  0  0  0  0  0  # atno 10167 bound_to 10162
  157.5331  131.1098  150.8977 H   0  0  0  0  0  0  0  0  0  0  0  0  # atno 10718 bound_to 10713
  153.0130  135.6340  154.1787 H   0  0  0  0  0  0  0  0  0  0  0  0  # atno 10763 bound_to 10752
  154.1528  135.2828  155.3132 H   0  0  0  0  0  0  0  0  0  0  0  0  # atno 10764 bound_to 10752
  154.6041  135.5578  153.7465 H   0  0  0  0  0  0  0  0  0  0  0  0  # atno 10765 bound_to 10752
  140.6304  134.4657  157.5229 H   0  0  0  0  0  0  0  0  0  0  0  0  # atno 11005 bound_to 11000
  144.7493  140.5150  143.6813 LP  0  0  0  0  0  0  0  0  0  0  0  0  # atno 17320 bound_to 7965
  145.5707  139.1483  143.3290 LP  0  0  0  0  0  0  0  0  0  0  0  0  # atno 17321 bound_to 7965
  140.6628  143.8461  150.6907 LP  0  0  0  0  0  0  0  0  0  0  0  0  # atno 17342 bound_to 10162
  140.1861  143.4074  152.1897 LP  0  0  0  0  0  0  0  0  0  0  0  0  # atno 17343 bound_to 10162
  156.9553  130.5435  149.5284 LP  0  0  0  0  0  0  0  0  0  0  0  0  # atno 17370 bound_to 10713
  156.0438  130.5517  150.8833 LP  0  0  0  0  0  0  0  0  0  0  0  0  # atno 17371 bound_to 10713
  139.9118  134.8328  156.1501 LP  0  0  0  0  0  0  0  0  0  0  0  0  # atno 17394 bound_to 11000
  141.0679  133.6810  156.2082 LP  0  0  0  0  0  0  0  0  0  0  0  0  # atno 17395 bound_to 11000

$$$$
