AV-unprocessed.smi:2769|AV-procd|sdf|10657|dock3
  -GOLD-   2272015103D 1   1.00000     0.00000
 Structure written by MMmdl.
 19 20  0  0  0  0  0  0  0  0  1 V2000
  152.0510  142.2378  158.3803 C   0  0  0  0  0  0  0  0  0  0  0  0
  151.8008  141.3114  157.2397 C   0  0  0  0  0  0  0  0  0  0  0  0
  150.9934  141.6490  156.2422 N   0  0  0  0  0  0  0  0  0  0  0  0
  151.0262  140.5240  155.4058 O   0  0  0  0  0  0  0  0  0  0  0  0
  151.8912  139.6560  155.9844 C   0  0  0  0  0  0  0  0  0  0  0  0
  152.0716  138.3062  155.3723 C   0  0  0  0  0  0  0  0  0  0  0  0
  152.7037  138.1280  153.9952 C   0  0  0  0  0  0  0  0  0  0  0  0
  151.8621  136.9455  153.8749 N   0  0  0  0  0  0  0  0  0  0  0  0
  150.9002  137.4982  154.8187 C   0  0  0  0  0  0  0  0  0  0  0  0
  152.3721  140.0793  157.1517 N   0  0  0  0  0  0  0  0  0  0  0  0
  151.2130  142.9230  158.5129 H   0  0  0  0  0  0  0  0  0  0  0  0
  152.9524  142.8232  158.1977 H   0  0  0  0  0  0  0  0  0  0  0  0
  152.1835  141.6761  159.3052 H   0  0  0  0  0  0  0  0  0  0  0  0
  152.6130  137.6969  156.1014 H   0  0  0  0  0  0  0  0  0  0  0  0
  152.4410  138.9019  153.2722 H   0  0  0  0  0  0  0  0  0  0  0  0
  153.7729  137.9160  154.0165 H   0  0  0  0  0  0  0  0  0  0  0  0
  151.4741  136.8446  152.9476 H   0  0  0  0  0  0  0  0  0  0  0  0
  150.4886  136.7686  155.5165 H   0  0  0  0  0  0  0  0  0  0  0  0
  150.1289  138.0926  154.3261 H   0  0  0  0  0  0  0  0  0  0  0  0
  1  2  1  0  0  0  0
  1 11  1  0  0  0  0
  1 12  1  0  0  0  0
  1 13  1  0  0  0  0
  2 10  1  0  0  0  0
  2  3  2  0  0  0  0
  3  4  1  0  0  0  0
  4  5  1  0  0  0  0
  5  6  1  0  0  0  0
  5 10  2  0  0  0  0
  6  9  1  0  0  0  0
  6  7  1  0  0  0  0
  6 14  1  0  0  0  0
  7  8  1  0  0  0  0
  7 15  1  0  0  0  0
  7 16  1  0  0  0  0
  8  9  1  0  0  0  0
  8 17  1  0  0  0  0
  9 18  1  0  0  0  0
  9 19  1  0  0  0  0
M  END
> <s_m_source_file>
AV-unprocessed.smi

> <i_m_source_file_index>
2769

> <i_lp_mmshare_version>
43012

> <i_f3d_flags>
0

> <s_epik_input>
W0NIM11jMW5vYyhuMSlbQ0hdMltDSDJdW05IXVtDSDJdMg==

> <s_epik_cmdline>
J2VwaWtfcHl0aG9uJywgJy1waCcsICc3LjAnLCAnLXRuJywgJzgnLCAnLW1hJywgJzIwMCcsICctbWV0YWxfYmluZGluZycsICctaW1hZScsICc8aW5maWxlLm1hZT4nLCAnLW9tYWUnLCAnPG91dGZpbGUubWFlPic=

> <r_lp_tautomer_probability>
1

> <r_epik_Ionization_Penalty>
2.39489

> <r_epik_Ionization_Penalty_Charging>
0

> <r_epik_Ionization_Penalty_Neutral>
2.39489

> <r_epik_State_Penalty>
2.55237

> <r_epik_Charging_Adjusted_Penalty>
2.55237

> <i_epik_Tot_Q>
0

> <i_epik_Tot_abs_Q>
0

> <r_epik_Metal_State_Penalty>
2.55237

> <b_epik_Metal_Only>
0

> <s_lp_Force_Field>
OPLS_2005

> <r_lp_Energy>
11.1519

> <b_lp_Chiralities_Consistent>
1

> <s_lp_Variant>
AV-unprocessed.smi:2769-2

> <Gold.Version>
5.8.1

> <Gold.Id.Protein>
6NUR|6NUR_protein|mol2

> <Gold.PLP.Fitness>
26.9958

> <Gold.PLP.PLP>
-15.3848

> <Gold.PLP.part.hbond>
-4.0000

> <Gold.PLP.part.metal>
0.0000

> <Gold.PLP.part.buried>
-3.7297

> <Gold.PLP.part.nonpolar>
-7.0053

> <Gold.PLP.part.repulsive>
0.1011

> <Gold.PLP.ligand.clash>
0.0000

> <Gold.PLP.ligand.torsion>
0.2103

> <Gold.PLP.Chemscore.Hbond>
3.9353

> <Gold.PLP.Chemscore.CHOScore>
0.0000

> <Gold.PLP.Chemscore.Metal>
0.0000

> <Gold.Chemscore.Hbonds>
donor molecule, donor type, donor heavy atom, donor atom, acceptor molecule, acceptor atom, score
      L1  H     8    17       P1  7949  1.00
      P1  H  7989  7998       L1     4  0.93
      P1  H  7997  8010       L1    10  0.86
      P1  H 10752 10765       L1     8  1.00

> <Gold.PLP.Chemscore.Internal.Correction>
0.2259

> <Gold.Rescore>
     Score         DG    S(hbond)    S(metal)    S(lipo)     H(rot)  DE(clash)    DE(int)     intcor
     13.75     -14.37       2.25        0.00      33.64       1.00       0.45       0.17       ----

> <Gold.Chemscore.Fitness>
13.7502

> <Gold.Chemscore.DG>
-14.3718

> <Gold.Chemscore.ZeroCoef>
-5.4800

> <Gold.Chemscore.Hbond>
2.2503

> <Gold.Chemscore.Metal>
0.0000

> <Gold.Chemscore.Lipo>
33.6395

> <Gold.Chemscore.Internal_Hbond>
0.0000

> <Gold.Chemscore.DEClash>
0.4518

> <Gold.Chemscore.DEInternal>
0.1698

> <Gold.Chemscore.Rot>
1.0000

> <Gold.Chemscore.Internal.Correction>
   9.000000E+99

> <Gold.Chemscore.Hbonds>
donor molecule, donor type, donor heavy atom, donor atom, acceptor molecule, acceptor atom, score
      L1  H     8    17       P1  7949  0.88
      P1  H  7989  7998       L1     4  0.54
      P1  H  7997  8010       L1    10  0.17
      P1  H 10752 10765       L1     8  0.13

> <Gold.Chemscore.Hbond.Weighted>
-7.5160

> <Gold.Chemscore.Metal.Weighted>
-0.0000

> <Gold.Chemscore.Lipo.Weighted>
-3.9358

> <Gold.Chemscore.Internal_Hbond.Weighted>
0.0000

> <Gold.Chemscore.DEClash.Weighted>
0.4518

> <Gold.Chemscore.DEInternal.Weighted>
0.1698

> <Gold.Chemscore.Rot.Weighted>
2.5600

> <Gold.Chemscore.Internal.Correction.Weighted>
   9.000000E+99

> <Gold.Protein.RotatedTorsions>
[ 6907 6896 6895 6894 ] final   13.55 input  -60.11 | X-H torsion
[ 7974 7965 7964 7962 ] final    6.18 input  175.53 | X-H torsion
[ 8008 7997 7996 7995 ] final   57.38 input   59.86 | X-H torsion
[ 10167 10162 10161 10158 ] final -101.41 input  -65.29 | X-H torsion
[ 10718 10713 10712 10709 ] final  144.83 input   66.30 | X-H torsion
[ 10763 10752 10751 10750 ] final  144.26 input  -60.55 | X-H torsion
[ 11005 11000 10999 10996 ] final  156.70 input  -57.11 | X-H torsion

> <Gold.Protein.ActiveResidues>
 VAL166  LYS551  ARG553  GLY616  TRP617  ASP618  TYR619  PRO620  LYS621  CYS622 
 ASP623  PHE694  ASN695  SER759  ASP760  ASP761  ALA762  ILE779  LEU786  VAL792 
 PHE793  MET794  SER795  GLU796  ALA797  LYS798  CYS799  TRP800  GLU811  SER814 

> <Gold.Protein.RotatedAtoms>
  151.7880  135.0743  160.0382 H   0  0  0  0  0  0  0  0  0  0  0  0  # atno 6907 bound_to 6896
  152.3176  133.5815  159.5731 H   0  0  0  0  0  0  0  0  0  0  0  0  # atno 6908 bound_to 6896
  150.7352  133.9975  159.3669 H   0  0  0  0  0  0  0  0  0  0  0  0  # atno 6909 bound_to 6896
  146.2436  140.0272  142.8393 H   0  0  0  0  0  0  0  0  0  0  0  0  # atno 7974 bound_to 7965
  155.5328  140.3482  155.4430 H   0  0  0  0  0  0  0  0  0  0  0  0  # atno 8008 bound_to 7997
  156.0706  140.1362  156.9860 H   0  0  0  0  0  0  0  0  0  0  0  0  # atno 8009 bound_to 7997
  154.4526  140.0966  156.6638 H   0  0  0  0  0  0  0  0  0  0  0  0  # atno 8010 bound_to 7997
  140.2416  143.3535  152.0796 H   0  0  0  0  0  0  0  0  0  0  0  0  # atno 10167 bound_to 10162
  157.3525  131.0953  151.0987 H   0  0  0  0  0  0  0  0  0  0  0  0  # atno 10718 bound_to 10713
  153.9860  135.2936  155.3416 H   0  0  0  0  0  0  0  0  0  0  0  0  # atno 10763 bound_to 10752
  154.7242  135.5096  153.8862 H   0  0  0  0  0  0  0  0  0  0  0  0  # atno 10764 bound_to 10752
  153.0832  135.6685  154.0118 H   0  0  0  0  0  0  0  0  0  0  0  0  # atno 10765 bound_to 10752
  140.1700  134.8550  157.2679 H   0  0  0  0  0  0  0  0  0  0  0  0  # atno 11005 bound_to 11000
  145.1188  140.9450  143.4613 LP  0  0  0  0  0  0  0  0  0  0  0  0  # atno 17320 bound_to 7965
  145.0502  139.3188  143.5932 LP  0  0  0  0  0  0  0  0  0  0  0  0  # atno 17321 bound_to 7965
  139.5075  144.6834  151.5950 LP  0  0  0  0  0  0  0  0  0  0  0  0  # atno 17342 bound_to 10162
  140.6109  143.9437  150.6453 LP  0  0  0  0  0  0  0  0  0  0  0  0  # atno 17343 bound_to 10162
  157.2157  130.6458  149.5791 LP  0  0  0  0  0  0  0  0  0  0  0  0  # atno 17370 bound_to 10713
  155.9724  130.4645  150.6221 LP  0  0  0  0  0  0  0  0  0  0  0  0  # atno 17371 bound_to 10713
  140.2389  134.3820  155.7489 LP  0  0  0  0  0  0  0  0  0  0  0  0  # atno 17394 bound_to 11000
  141.2216  133.7254  156.8757 LP  0  0  0  0  0  0  0  0  0  0  0  0  # atno 17395 bound_to 11000

$$$$
