AV-unprocessed.smi:1827|AV-procd|sdf|7423|dock1
  -GOLD-   22720 9103D 1   1.00000     0.00000
 Structure written by MMmdl.
 43 44  0  0  0  0  0  0  0  0  3 V2000
  151.5996  138.0646  154.4773 C   0  0  0  0  0  0  0  0  0  0  0  0
  150.4928  139.0824  154.4788 C   0  0  0  0  0  0  0  0  0  0  0  0
  150.7636  140.3173  154.8811 N   0  0  0  0  0  0  0  0  0  0  0  0
  149.5779  140.9615  154.8338 N   0  0  0  0  0  0  0  0  0  0  0  0
  148.5373  140.1671  154.4079 C   0  0  0  0  0  0  0  0  0  0  0  0
  147.1372  140.6716  154.2982 C   0  0  0  0  0  0  0  0  0  0  0  0
  149.1085  138.9560  154.1426 C   0  0  0  0  0  0  0  0  0  0  0  0
  148.3961  137.8143  153.6975 N   0  0  0  0  0  0  0  0  0  0  0  0
  147.3918  137.1952  154.3364 C   0  0  0  0  0  0  0  0  0  0  0  0
  146.9487  137.5226  155.4367 O   0  0  0  0  0  0  0  0  0  0  0  0
  146.9344  136.1486  153.6340 N   0  0  0  0  0  0  0  0  0  0  0  0
  145.8508  135.2606  154.0544 C   0  0  2  0  0  0  0  0  0  0  0  0
  146.1239  133.8182  153.5943 C   0  0  0  0  0  0  0  0  0  0  0  0
  145.9628  133.6548  152.0716 C   0  0  0  0  0  0  0  0  0  0  0  0
  144.6236  134.1092  151.6184 N   0  3  2  0  0  0  0  0  0  0  0  0
  144.3940  133.8352  150.1778 C   0  0  0  0  0  0  0  0  0  0  0  0
  144.1068  132.3455  149.9594 C   0  0  0  0  0  0  0  0  0  0  0  0
  142.9320  132.1334  149.3363 N   0  5  0  0  0  0  0  0  0  0  0  0
  144.9139  131.5068  150.3558 O   0  0  0  0  0  0  0  0  0  0  0  0
  144.3692  135.5266  151.9921 C   0  0  0  0  0  0  0  0  0  0  0  0
  144.4858  135.7288  153.5129 C   0  0  0  0  0  0  0  0  0  0  0  0
  149.4947  141.9324  155.1000 H   0  0  0  0  0  0  0  0  0  0  0  0
  151.2219  137.0697  154.7132 H   0  0  0  0  0  0  0  0  0  0  0  0
  152.3634  138.3047  155.2178 H   0  0  0  0  0  0  0  0  0  0  0  0
  152.0879  138.0184  153.5038 H   0  0  0  0  0  0  0  0  0  0  0  0
  146.4426  139.8625  154.0724 H   0  0  0  0  0  0  0  0  0  0  0  0
  147.0563  141.4151  153.5052 H   0  0  0  0  0  0  0  0  0  0  0  0
  146.8182  141.1363  155.2314 H   0  0  0  0  0  0  0  0  0  0  0  0
  148.7478  137.3714  152.8614 H   0  0  0  0  0  0  0  0  0  0  0  0
  147.3683  135.9505  152.7443 H   0  0  0  0  0  0  0  0  0  0  0  0
  145.8162  135.2647  155.1456 H   0  0  0  0  0  0  0  0  0  0  0  0
  147.1222  133.5047  153.9020 H   0  0  0  0  0  0  0  0  0  0  0  0
  145.4277  133.1459  154.0977 H   0  0  0  0  0  0  0  0  0  0  0  0
  146.7358  134.2150  151.5436 H   0  0  0  0  0  0  0  0  0  0  0  0
  146.1011  132.6047  151.8113 H   0  0  0  0  0  0  0  0  0  0  0  0
  143.6027  134.4813  149.7907 H   0  0  0  0  0  0  0  0  0  0  0  0
  145.2930  134.0683  149.6057 H   0  0  0  0  0  0  0  0  0  0  0  0
  142.1996  132.8507  149.3976 H   0  0  0  0  0  0  0  0  0  0  0  0
  145.0729  136.1757  151.4689 H   0  0  0  0  0  0  0  0  0  0  0  0
  143.3710  135.8269  151.6718 H   0  0  0  0  0  0  0  0  0  0  0  0
  143.6940  135.1634  154.0062 H   0  0  0  0  0  0  0  0  0  0  0  0
  144.3083  136.7747  153.7659 H   0  0  0  0  0  0  0  0  0  0  0  0
  143.9465  133.5476  152.1151 H   0  0  0  0  0  0  0  0  0  0  0  0
  1  2  1  0  0  0  0
  1 23  1  0  0  0  0
  1 24  1  0  0  0  0
  1 25  1  0  0  0  0
  2  7  1  0  0  0  0
  2  3  2  0  0  0  0
  3  4  1  0  0  0  0
  4 22  1  0  0  0  0
  4  5  1  0  0  0  0
  5  6  1  0  0  0  0
  5  7  2  0  0  0  0
  6 26  1  0  0  0  0
  6 27  1  0  0  0  0
  6 28  1  0  0  0  0
  7  8  1  0  0  0  0
  8  9  1  0  0  0  0
  8 29  1  0  0  0  0
  9 10  2  0  0  0  0
  9 11  1  0  0  0  0
 11 12  1  0  0  0  0
 11 30  1  0  0  0  0
 12 21  1  0  0  0  0
 12 13  1  0  0  0  0
 12 31  1  0  0  0  0
 13 14  1  0  0  0  0
 13 32  1  0  0  0  0
 13 33  1  0  0  0  0
 14 15  1  0  0  0  0
 14 34  1  0  0  0  0
 14 35  1  0  0  0  0
 15 16  1  0  0  0  0
 15 20  1  0  0  0  0
 15 43  1  0  0  0  0
 16 17  1  0  0  0  0
 16 36  1  0  0  0  0
 16 37  1  0  0  0  0
 17 18  1  0  0  0  0
 17 19  2  0  0  0  0
 18 38  1  0  0  0  0
 20 21  1  0  0  0  0
 20 39  1  0  0  0  0
 20 40  1  0  0  0  0
 21 41  1  0  0  0  0
 21 42  1  0  0  0  0
M  CHG  1  15   1
M  CHG  1  18  -1
M  END
> <s_m_source_file>
AV-unprocessed.smi

> <i_m_source_file_index>
1827

> <i_lp_mmshare_version>
43012

> <i_f3d_flags>
0

> <s_epik_input>
W0NIM11jMW5bbkhdYyhbQ0gzXSljMVtOSF1DKD1PKVtOSF1bQ0hdMltDSDJdW0NIMl1OKFtDSDJdW0NIMl0yKVtDSDJdQyg9TylbTkgyXQ==

> <s_epik_cmdline>
J2VwaWtfcHl0aG9uJywgJy1waCcsICc3LjAnLCAnLXRuJywgJzgnLCAnLW1hJywgJzIwMCcsICctbWV0YWxfYmluZGluZycsICctaW1hZScsICc8aW5maWxlLm1hZT4nLCAnLW9tYWUnLCAnPG91dGZpbGUubWFlPic=

> <r_lp_tautomer_probability>
0.5

> <r_epik_Ionization_Penalty>
5.72915

> <r_epik_Ionization_Penalty_Charging>
5.7288

> <r_epik_Ionization_Penalty_Neutral>
0.000348152

> <r_epik_State_Penalty>
6.54882

> <r_epik_Charging_Adjusted_Penalty>
12.2776

> <i_epik_Tot_Q>
0

> <i_epik_Tot_abs_Q>
2

> <r_epik_Metal_State_Penalty>
2.51333

> <b_epik_Metal_Only>
1

> <s_lp_Force_Field>
OPLS_2005

> <r_lp_Energy>
10.7358

> <b_lp_Chiralities_Consistent>
1

> <s_lp_Variant>
AV-unprocessed.smi:1827-5

> <Gold.Version>
5.8.1

> <Gold.Id.Protein>
6NUR|6NUR_protein|mol2

> <Gold.PLP.Fitness>
44.7255

> <Gold.PLP.PLP>
-32.2805

> <Gold.PLP.part.hbond>
-5.9313

> <Gold.PLP.part.metal>
0.0000

> <Gold.PLP.part.buried>
-5.8969

> <Gold.PLP.part.nonpolar>
-21.0869

> <Gold.PLP.part.repulsive>
0.4037

> <Gold.PLP.ligand.clash>
0.0000

> <Gold.PLP.ligand.torsion>
1.1313

> <Gold.PLP.Chemscore.Hbond>
4.7658

> <Gold.PLP.Chemscore.CHOScore>
0.0000

> <Gold.PLP.Chemscore.Metal>
0.0000

> <Gold.Chemscore.Hbonds>
donor molecule, donor type, donor heavy atom, donor atom, acceptor molecule, acceptor atom, score
      L1  H     8    29       P1  7948  0.96
      L1  H    11    30       P1  7948  0.82
      L1  H    18    38       P1 10186  1.00
      P1  H  7989  7998       L1     3  0.95
      P1  H 10785 10796       L1    18  0.84

> <Gold.PLP.Chemscore.Internal.Correction>
0.4103

> <Gold.Rescore>
     Score         DG    S(hbond)    S(metal)    S(lipo)     H(rot)  DE(clash)    DE(int)     intcor
     15.80     -18.09       3.31        0.00      56.09       1.96       0.01       2.28       ----

> <Gold.Chemscore.Fitness>
15.8016

> <Gold.Chemscore.DG>
-18.0876

> <Gold.Chemscore.ZeroCoef>
-5.4800

> <Gold.Chemscore.Hbond>
3.3095

> <Gold.Chemscore.Metal>
0.0000

> <Gold.Chemscore.Lipo>
56.0925

> <Gold.Chemscore.Internal_Hbond>
0.0000

> <Gold.Chemscore.DEClash>
0.0073

> <Gold.Chemscore.DEInternal>
2.2787

> <Gold.Chemscore.Rot>
1.9566

> <Gold.Chemscore.Internal.Correction>
   9.000000E+99

> <Gold.Chemscore.Hbonds>
donor molecule, donor type, donor heavy atom, donor atom, acceptor molecule, acceptor atom, score
      L1  H     8    29       P1  7948  0.90
      L1  H    11    30       P1  7948  0.81
      L1  H    18    38       P1 10186  0.98
      P1  H  7989  7998       L1     3  0.11
      P1  H 10785 10796       L1    18  0.21

> <Gold.Chemscore.Hbond.Weighted>
-11.0538

> <Gold.Chemscore.Metal.Weighted>
-0.0000

> <Gold.Chemscore.Lipo.Weighted>
-6.5628

> <Gold.Chemscore.Internal_Hbond.Weighted>
0.0000

> <Gold.Chemscore.DEClash.Weighted>
0.0073

> <Gold.Chemscore.DEInternal.Weighted>
2.2787

> <Gold.Chemscore.Rot.Weighted>
5.0090

> <Gold.Chemscore.Internal.Correction.Weighted>
   9.000000E+99

> <Gold.Protein.RotatedTorsions>
[ 6907 6896 6895 6894 ] final  178.52 input  -60.11 | X-H torsion
[ 7974 7965 7964 7962 ] final  -25.30 input  175.53 | X-H torsion
[ 8008 7997 7996 7995 ] final   -2.15 input   59.86 | X-H torsion
[ 10167 10162 10161 10158 ] final    4.61 input  -65.29 | X-H torsion
[ 10718 10713 10712 10709 ] final  157.90 input   66.30 | X-H torsion
[ 10763 10752 10751 10750 ] final   79.40 input  -60.55 | X-H torsion
[ 11005 11000 10999 10996 ] final   29.32 input  -57.11 | X-H torsion

> <Gold.Protein.ActiveResidues>
 VAL166  LYS551  ARG553  GLY616  TRP617  ASP618  TYR619  PRO620  LYS621  CYS622 
 ASP623  PHE694  ASN695  SER759  ASP760  ASP761  ALA762  ILE779  LEU786  VAL792 
 PHE793  MET794  SER795  GLU796  ALA797  LYS798  CYS799  TRP800  GLU811  SER814 

> <Gold.Protein.RotatedAtoms>
  151.6865  133.3311  159.3232 H   0  0  0  0  0  0  0  0  0  0  0  0  # atno 6907 bound_to 6896
  150.7798  134.6735  159.6414 H   0  0  0  0  0  0  0  0  0  0  0  0  # atno 6908 bound_to 6896
  152.3852  134.6531  160.0180 H   0  0  0  0  0  0  0  0  0  0  0  0  # atno 6909 bound_to 6896
  146.1499  140.4868  142.8615 H   0  0  0  0  0  0  0  0  0  0  0  0  # atno 7974 bound_to 7965
  154.6388  140.2541  155.7346 H   0  0  0  0  0  0  0  0  0  0  0  0  # atno 8008 bound_to 7997
  156.2518  140.2891  156.0693 H   0  0  0  0  0  0  0  0  0  0  0  0  # atno 8009 bound_to 7997
  155.1628  140.0384  157.2836 H   0  0  0  0  0  0  0  0  0  0  0  0  # atno 8010 bound_to 7997
  140.6525  143.7508  150.7599 H   0  0  0  0  0  0  0  0  0  0  0  0  # atno 10167 bound_to 10162
  157.1852  131.0642  151.2110 H   0  0  0  0  0  0  0  0  0  0  0  0  # atno 10718 bound_to 10713
  153.0950  135.4841  154.8761 H   0  0  0  0  0  0  0  0  0  0  0  0  # atno 10763 bound_to 10752
  154.7313  135.3061  154.8888 H   0  0  0  0  0  0  0  0  0  0  0  0  # atno 10764 bound_to 10752
  153.9523  135.6822  153.4797 H   0  0  0  0  0  0  0  0  0  0  0  0  # atno 10765 bound_to 10752
  140.3062  134.2701  155.7743 H   0  0  0  0  0  0  0  0  0  0  0  0  # atno 11005 bound_to 11000
  144.7892  140.5997  143.6553 LP  0  0  0  0  0  0  0  0  0  0  0  0  # atno 17320 bound_to 7965
  145.4847  139.1493  143.3742 LP  0  0  0  0  0  0  0  0  0  0  0  0  # atno 17321 bound_to 7965
  140.1162  143.4654  152.2341 LP  0  0  0  0  0  0  0  0  0  0  0  0  # atno 17342 bound_to 10162
  139.5743  144.7479  151.3808 LP  0  0  0  0  0  0  0  0  0  0  0  0  # atno 17343 bound_to 10162
  157.3914  130.7284  149.6700 LP  0  0  0  0  0  0  0  0  0  0  0  0  # atno 17370 bound_to 10713
  155.9719  130.4145  150.4137 LP  0  0  0  0  0  0  0  0  0  0  0  0  # atno 17371 bound_to 10713
  141.2118  133.7678  156.9840 LP  0  0  0  0  0  0  0  0  0  0  0  0  # atno 17394 bound_to 11000
  140.1065  134.9503  157.2001 LP  0  0  0  0  0  0  0  0  0  0  0  0  # atno 17395 bound_to 11000

$$$$
