AV-unprocessed.smi:2151|AV-procd|sdf|8760|dock5
  -GOLD-   2272011533D 1   1.00000     0.00000
 Structure written by MMmdl.
 39 40  0  0  0  0  0  0  0  0  1 V2000
  148.8091  141.6632  154.1025 C   0  0  0  0  0  0  0  0  0  0  0  0
  149.1876  141.1633  155.5044 C   0  0  2  0  0  0  0  0  0  0  0  0
  149.8331  142.2519  156.2361 N   0  0  0  0  0  0  0  0  0  0  0  0
  150.3713  142.1672  157.4627 C   0  0  0  0  0  0  0  0  0  0  0  0
  150.3514  141.1411  158.1436 O   0  0  0  0  0  0  0  0  0  0  0  0
  151.0247  143.4494  157.9973 C   0  0  0  0  0  0  0  0  0  0  0  0
  151.6567  143.2701  159.3152 N   0  0  0  0  0  0  0  0  0  0  0  0
  152.6252  142.2538  159.4303 C   0  0  0  0  0  0  0  0  0  0  0  0
  153.2707  141.9829  160.5810 C   0  0  0  0  0  0  0  0  0  0  0  0
  154.3598  140.9241  160.6575 C   0  0  0  0  0  0  0  0  0  0  0  0
  154.7732  140.7508  161.9131 F   0  0  0  0  0  0  0  0  0  0  0  0
  153.8916  139.7597  160.2105 F   0  0  0  0  0  0  0  0  0  0  0  0
  155.4134  141.2611  159.9123 F   0  0  0  0  0  0  0  0  0  0  0  0
  152.9408  142.8199  161.7178 C   0  0  0  0  0  0  0  0  0  0  0  0
  152.0271  143.8056  161.6212 C   0  0  0  0  0  0  0  0  0  0  0  0
  151.3237  144.0787  160.3660 C   0  0  0  0  0  0  0  0  0  0  0  0
  150.4892  144.9787  160.2644 O   0  0  0  0  0  0  0  0  0  0  0  0
  150.1173  139.9334  155.4431 C   0  0  1  0  0  0  0  0  0  0  0  0
  150.0731  139.1498  154.1286 C   0  0  0  0  0  0  0  0  0  0  0  0
  151.4172  138.4596  154.1403 C   0  0  0  0  0  0  0  0  0  0  0  0
  152.3156  139.5430  154.7285 C   0  0  0  0  0  0  0  0  0  0  0  0
  151.4814  140.3282  155.5772 O   0  0  0  0  0  0  0  0  0  0  0  0
  148.2948  140.8881  153.5338 H   0  0  0  0  0  0  0  0  0  0  0  0
  149.6911  141.9614  153.5344 H   0  0  0  0  0  0  0  0  0  0  0  0
  148.1416  142.5234  154.1594 H   0  0  0  0  0  0  0  0  0  0  0  0
  148.2648  140.8718  156.0093 H   0  0  0  0  0  0  0  0  0  0  0  0
  149.8954  143.1391  155.7580 H   0  0  0  0  0  0  0  0  0  0  0  0
  151.7624  143.8104  157.2779 H   0  0  0  0  0  0  0  0  0  0  0  0
  150.2613  144.2274  158.0381 H   0  0  0  0  0  0  0  0  0  0  0  0
  152.8211  141.7142  158.5149 H   0  0  0  0  0  0  0  0  0  0  0  0
  153.4324  142.6522  162.6647 H   0  0  0  0  0  0  0  0  0  0  0  0
  151.8057  144.4092  162.4895 H   0  0  0  0  0  0  0  0  0  0  0  0
  149.8893  139.2518  156.2645 H   0  0  0  0  0  0  0  0  0  0  0  0
  149.2357  138.4535  154.0736 H   0  0  0  0  0  0  0  0  0  0  0  0
  150.0110  139.8284  153.2766 H   0  0  0  0  0  0  0  0  0  0  0  0
  151.3871  137.5939  154.8035 H   0  0  0  0  0  0  0  0  0  0  0  0
  151.7395  138.1256  153.1538 H   0  0  0  0  0  0  0  0  0  0  0  0
  153.1622  139.1274  155.2755 H   0  0  0  0  0  0  0  0  0  0  0  0
  152.7055  140.1857  153.9383 H   0  0  0  0  0  0  0  0  0  0  0  0
  1  2  1  0  0  0  0
  1 23  1  0  0  0  0
  1 24  1  0  0  0  0
  1 25  1  0  0  0  0
  2  3  1  0  0  0  0
  2 18  1  0  0  0  0
  2 26  1  0  0  0  0
  3  4  1  0  0  0  0
  3 27  1  0  0  0  0
  4  5  2  0  0  0  0
  4  6  1  0  0  0  0
  6  7  1  0  0  0  0
  6 28  1  0  0  0  0
  6 29  1  0  0  0  0
  7 16  1  0  0  0  0
  7  8  1  0  0  0  0
  8  9  2  0  0  0  0
  8 30  1  0  0  0  0
  9 10  1  0  0  0  0
  9 14  1  0  0  0  0
 10 11  1  0  0  0  0
 10 12  1  0  0  0  0
 10 13  1  0  0  0  0
 14 15  2  0  0  0  0
 14 31  1  0  0  0  0
 15 16  1  0  0  0  0
 15 32  1  0  0  0  0
 16 17  2  0  0  0  0
 18 22  1  0  0  0  0
 18 19  1  0  0  0  0
 18 33  1  0  0  0  0
 19 20  1  0  0  0  0
 19 34  1  0  0  0  0
 19 35  1  0  0  0  0
 20 21  1  0  0  0  0
 20 36  1  0  0  0  0
 20 37  1  0  0  0  0
 21 22  1  0  0  0  0
 21 38  1  0  0  0  0
 21 39  1  0  0  0  0
M  END
> <s_m_source_file>
AV-unprocessed.smi

> <i_m_source_file_index>
2151

> <i_lp_mmshare_version>
43012

> <i_f3d_flags>
0

> <s_epik_input>
TzFbQ0gyXVtDSDJdW0NIMl1bQ0BIXTFbQ0BIXShbQ0gzXSlbTkhdQyg9TylbQ0gyXW4yW2NIXWMoQyhGKShGKUYpW2NIXVtjSF1jMj1P

> <s_epik_cmdline>
J2VwaWtfcHl0aG9uJywgJy1waCcsICc3LjAnLCAnLXRuJywgJzgnLCAnLW1hJywgJzIwMCcsICctbWV0YWxfYmluZGluZycsICctaW1hZScsICc8aW5maWxlLm1hZT4nLCAnLW9tYWUnLCAnPG91dGZpbGUubWFlPic=

> <r_lp_tautomer_probability>
1

> <r_epik_Ionization_Penalty>
4.20109e-08

> <r_epik_Ionization_Penalty_Charging>
1.89977e-08

> <r_epik_Ionization_Penalty_Neutral>
2.30132e-08

> <r_epik_State_Penalty>
-0

> <r_epik_Charging_Adjusted_Penalty>
1.89977e-08

> <i_epik_Tot_Q>
0

> <i_epik_Tot_abs_Q>
0

> <r_epik_Metal_State_Penalty>
-0

> <b_epik_Metal_Only>
0

> <s_lp_Force_Field>
OPLS_2005

> <r_lp_Energy>
29.4657

> <b_lp_Chiralities_Consistent>
1

> <s_lp_Variant>
AV-unprocessed.smi:2151-3

> <Gold.Version>
5.8.1

> <Gold.Id.Protein>
6NUR|6NUR_protein|mol2

> <Gold.PLP.Fitness>
51.7214

> <Gold.PLP.PLP>
-52.5125

> <Gold.PLP.part.hbond>
-1.2736

> <Gold.PLP.part.metal>
0.0000

> <Gold.PLP.part.buried>
-3.3951

> <Gold.PLP.part.nonpolar>
-48.7521

> <Gold.PLP.part.repulsive>
0.2988

> <Gold.PLP.ligand.clash>
0.0000

> <Gold.PLP.ligand.torsion>
1.2479

> <Gold.PLP.Chemscore.Hbond>
0.5440

> <Gold.PLP.Chemscore.CHOScore>
0.0000

> <Gold.PLP.Chemscore.Metal>
0.0000

> <Gold.Chemscore.Hbonds>
donor molecule, donor type, donor heavy atom, donor atom, acceptor molecule, acceptor atom, score
      L1  H     3    27       P1  8028  0.75

> <Gold.PLP.Chemscore.Internal.Correction>
0.0727

> <Gold.Rescore>
     Score         DG    S(hbond)    S(metal)    S(lipo)     H(rot)  DE(clash)    DE(int)     intcor
     11.08     -15.57       0.62        0.00     108.52       1.82       2.09       2.40       ----

> <Gold.Chemscore.Fitness>
11.0782

> <Gold.Chemscore.DG>
-15.5699

> <Gold.Chemscore.ZeroCoef>
-5.4800

> <Gold.Chemscore.Hbond>
0.6167

> <Gold.Chemscore.Metal>
0.0000

> <Gold.Chemscore.Lipo>
108.5167

> <Gold.Chemscore.Internal_Hbond>
0.0000

> <Gold.Chemscore.DEClash>
2.0938

> <Gold.Chemscore.DEInternal>
2.3979

> <Gold.Chemscore.Rot>
1.8228

> <Gold.Chemscore.Internal.Correction>
   9.000000E+99

> <Gold.Chemscore.Hbonds>
donor molecule, donor type, donor heavy atom, donor atom, acceptor molecule, acceptor atom, score
      L1  H     3    27       P1  8028  0.76

> <Gold.Chemscore.Hbond.Weighted>
-2.0599

> <Gold.Chemscore.Metal.Weighted>
-0.0000

> <Gold.Chemscore.Lipo.Weighted>
-12.6965

> <Gold.Chemscore.Internal_Hbond.Weighted>
0.0000

> <Gold.Chemscore.DEClash.Weighted>
2.0938

> <Gold.Chemscore.DEInternal.Weighted>
2.3979

> <Gold.Chemscore.Rot.Weighted>
4.6665

> <Gold.Chemscore.Internal.Correction.Weighted>
   9.000000E+99

> <Gold.Protein.RotatedTorsions>
[ 6907 6896 6895 6894 ] final   25.64 input  -60.11 | X-H torsion
[ 7974 7965 7964 7962 ] final  151.18 input  175.53 | X-H torsion
[ 8008 7997 7996 7995 ] final   88.85 input   59.86 | X-H torsion
[ 10167 10162 10161 10158 ] final  146.78 input  -65.29 | X-H torsion
[ 10718 10713 10712 10709 ] final   52.17 input   66.30 | X-H torsion
[ 10763 10752 10751 10750 ] final  -58.99 input  -60.55 | X-H torsion
[ 11005 11000 10999 10996 ] final -171.73 input  -57.11 | X-H torsion

> <Gold.Protein.ActiveResidues>
 VAL166  LYS551  ARG553  GLY616  TRP617  ASP618  TYR619  PRO620  LYS621  CYS622 
 ASP623  PHE694  ASN695  SER759  ASP760  ASP761  ALA762  ILE779  LEU786  VAL792 
 PHE793  MET794  SER795  GLU796  ALA797  LYS798  CYS799  TRP800  GLU811  SER814 

> <Gold.Protein.RotatedAtoms>
  151.9755  135.0055  160.0554 H   0  0  0  0  0  0  0  0  0  0  0  0  # atno 6907 bound_to 6896
  152.1744  133.4660  159.4934 H   0  0  0  0  0  0  0  0  0  0  0  0  # atno 6908 bound_to 6896
  150.6907  134.1830  159.4299 H   0  0  0  0  0  0  0  0  0  0  0  0  # atno 6909 bound_to 6896
  144.8311  139.6504  143.6058 H   0  0  0  0  0  0  0  0  0  0  0  0  # atno 7974 bound_to 7965
  155.9928  140.3367  155.6769 H   0  0  0  0  0  0  0  0  0  0  0  0  # atno 8008 bound_to 7997
  155.6397  140.0694  157.2640 H   0  0  0  0  0  0  0  0  0  0  0  0  # atno 8009 bound_to 7997
  154.4224  140.1745  156.1548 H   0  0  0  0  0  0  0  0  0  0  0  0  # atno 8010 bound_to 7997
  139.4901  144.5804  151.6883 H   0  0  0  0  0  0  0  0  0  0  0  0  # atno 10167 bound_to 10162
  157.5050  130.8463  149.8363 H   0  0  0  0  0  0  0  0  0  0  0  0  # atno 10718 bound_to 10713
  154.2467  135.6333  153.5226 H   0  0  0  0  0  0  0  0  0  0  0  0  # atno 10763 bound_to 10752
  152.9920  135.5555  154.5852 H   0  0  0  0  0  0  0  0  0  0  0  0  # atno 10764 bound_to 10752
  154.5370  135.2892  155.1104 H   0  0  0  0  0  0  0  0  0  0  0  0  # atno 10765 bound_to 10752
  140.5050  134.5857  157.5000 H   0  0  0  0  0  0  0  0  0  0  0  0  # atno 11005 bound_to 11000
  146.2614  139.6418  142.9359 LP  0  0  0  0  0  0  0  0  0  0  0  0  # atno 17320 bound_to 7965
  145.4894  141.0438  143.2601 LP  0  0  0  0  0  0  0  0  0  0  0  0  # atno 17321 bound_to 7965
  140.5409  144.0581  150.6088 LP  0  0  0  0  0  0  0  0  0  0  0  0  # atno 17342 bound_to 10162
  140.3603  143.2912  152.0391 LP  0  0  0  0  0  0  0  0  0  0  0  0  # atno 17343 bound_to 10162
  156.0252  130.3782  150.1843 LP  0  0  0  0  0  0  0  0  0  0  0  0  # atno 17370 bound_to 10713
  157.0033  130.9929  151.3385 LP  0  0  0  0  0  0  0  0  0  0  0  0  # atno 17371 bound_to 10713
  139.9691  134.7322  156.0077 LP  0  0  0  0  0  0  0  0  0  0  0  0  # atno 17394 bound_to 11000
  141.1416  133.6564  156.3745 LP  0  0  0  0  0  0  0  0  0  0  0  0  # atno 17395 bound_to 11000

$$$$
