AV-unprocessed.smi:1071|AV-procd|sdf|4682|dock8
  -GOLD-   22720 3203D 1   1.00000     0.00000
 Structure written by MMmdl.
 46 47  0  0  0  0  0  0  0  0  1 V2000
  152.6427  144.7215  158.3666 C   0  0  0  0  0  0  0  0  0  0  0  0
  151.6308  143.7359  158.2543 O   0  0  0  0  0  0  0  0  0  0  0  0
  151.6713  143.0555  157.0110 C   0  0  0  0  0  0  0  0  0  0  0  0
  150.6665  141.9006  157.0406 C   0  0  0  0  0  0  0  0  0  0  0  0
  150.2975  141.5815  155.7022 O   0  0  0  0  0  0  0  0  0  0  0  0
  150.2549  140.2536  155.3295 C   0  0  0  0  0  0  0  0  0  0  0  0
  150.2264  139.2714  156.3392 C   0  0  0  0  0  0  0  0  0  0  0  0
  150.1799  137.9137  155.9688 C   0  0  0  0  0  0  0  0  0  0  0  0
  150.1552  137.5810  154.5935 C   0  0  0  0  0  0  0  0  0  0  0  0
  150.1275  136.2524  154.0904 N   0  0  0  0  0  0  0  0  0  0  0  0
  150.0286  135.0944  154.7726 C   0  0  0  0  0  0  0  0  0  0  0  0
  150.0872  135.0160  155.9991 O   0  0  0  0  0  0  0  0  0  0  0  0
  149.9840  134.0116  153.9572 N   0  0  0  0  0  0  0  0  0  0  0  0
  149.0712  133.9726  152.8034 C   0  0  0  0  0  0  0  0  0  0  0  0
  147.7560  133.2877  153.2317 C   0  0  0  0  0  0  0  0  0  0  0  0
  148.0268  131.9297  153.7097 N   0  0  0  0  0  0  0  0  0  0  0  0
  146.7854  131.3043  154.1410 C   0  0  0  0  0  0  0  0  0  0  0  0
  148.9843  131.9444  154.8189 C   0  0  0  0  0  0  0  0  0  0  0  0
  150.2932  132.6257  154.3651 C   0  0  2  0  0  0  0  0  0  0  0  0
  151.4249  132.4784  155.4035 C   0  0  0  0  0  0  0  0  0  0  0  0
  150.2039  138.6383  153.6619 C   0  0  0  0  0  0  0  0  0  0  0  0
  150.2467  139.9414  154.0101 N   0  0  0  0  0  0  0  0  0  0  0  0
  152.5711  145.2105  159.3381 H   0  0  0  0  0  0  0  0  0  0  0  0
  152.5346  145.4865  157.5966 H   0  0  0  0  0  0  0  0  0  0  0  0
  153.6365  144.2792  158.2845 H   0  0  0  0  0  0  0  0  0  0  0  0
  151.4273  143.7415  156.1982 H   0  0  0  0  0  0  0  0  0  0  0  0
  152.6758  142.6705  156.8290 H   0  0  0  0  0  0  0  0  0  0  0  0
  151.1189  141.0332  157.5245 H   0  0  0  0  0  0  0  0  0  0  0  0
  149.7884  142.1929  157.6189 H   0  0  0  0  0  0  0  0  0  0  0  0
  150.2437  139.5539  157.3814 H   0  0  0  0  0  0  0  0  0  0  0  0
  150.1797  137.1622  156.7427 H   0  0  0  0  0  0  0  0  0  0  0  0
  150.0626  136.1724  153.0861 H   0  0  0  0  0  0  0  0  0  0  0  0
  148.8456  134.9617  152.4028 H   0  0  0  0  0  0  0  0  0  0  0  0
  149.5354  133.4253  151.9814 H   0  0  0  0  0  0  0  0  0  0  0  0
  147.2662  133.8709  154.0135 H   0  0  0  0  0  0  0  0  0  0  0  0
  147.0697  133.2442  152.3850 H   0  0  0  0  0  0  0  0  0  0  0  0
  146.9673  130.2817  154.4735 H   0  0  0  0  0  0  0  0  0  0  0  0
  146.0716  131.2637  153.3175 H   0  0  0  0  0  0  0  0  0  0  0  0
  146.3280  131.8554  154.9640 H   0  0  0  0  0  0  0  0  0  0  0  0
  148.5619  132.4645  155.6805 H   0  0  0  0  0  0  0  0  0  0  0  0
  149.1874  130.9186  155.1293 H   0  0  0  0  0  0  0  0  0  0  0  0
  150.6544  132.1048  153.4762 H   0  0  0  0  0  0  0  0  0  0  0  0
  151.7279  131.4346  155.4888 H   0  0  0  0  0  0  0  0  0  0  0  0
  151.1227  132.7983  156.4001 H   0  0  0  0  0  0  0  0  0  0  0  0
  152.3070  133.0499  155.1131 H   0  0  0  0  0  0  0  0  0  0  0  0
  150.2020  138.4345  152.6010 H   0  0  0  0  0  0  0  0  0  0  0  0
  1  2  1  0  0  0  0
  1 23  1  0  0  0  0
  1 24  1  0  0  0  0
  1 25  1  0  0  0  0
  2  3  1  0  0  0  0
  3  4  1  0  0  0  0
  3 26  1  0  0  0  0
  3 27  1  0  0  0  0
  4  5  1  0  0  0  0
  4 28  1  0  0  0  0
  4 29  1  0  0  0  0
  5  6  1  0  0  0  0
  6 22  1  0  0  0  0
  6  7  2  0  0  0  0
  7  8  1  0  0  0  0
  7 30  1  0  0  0  0
  8  9  2  0  0  0  0
  8 31  1  0  0  0  0
  9 10  1  0  0  0  0
  9 21  1  0  0  0  0
 10 11  1  0  0  0  0
 10 32  1  0  0  0  0
 11 12  2  0  0  0  0
 11 13  1  0  0  0  0
 13 19  1  0  0  0  0
 13 14  1  0  0  0  0
 14 15  1  0  0  0  0
 14 33  1  0  0  0  0
 14 34  1  0  0  0  0
 15 16  1  0  0  0  0
 15 35  1  0  0  0  0
 15 36  1  0  0  0  0
 16 17  1  0  0  0  0
 16 18  1  0  0  0  0
 17 37  1  0  0  0  0
 17 38  1  0  0  0  0
 17 39  1  0  0  0  0
 18 19  1  0  0  0  0
 18 40  1  0  0  0  0
 18 41  1  0  0  0  0
 19 20  1  0  0  0  0
 19 42  1  0  0  0  0
 20 43  1  0  0  0  0
 20 44  1  0  0  0  0
 20 45  1  0  0  0  0
 21 22  2  0  0  0  0
 21 46  1  0  0  0  0
M  END
> <s_m_source_file>
AV-unprocessed.smi

> <i_m_source_file_index>
1071

> <i_lp_mmshare_version>
43012

> <i_f3d_flags>
0

> <s_epik_input>
W0NIM11PW0NIMl1bQ0gyXU9jMVtjSF1bY0hdYyhbY0hdbjEpW05IXUMoPU8pTjJbQ0gyXVtDSDJdTihbQ0gzXSlbQ0gyXVtDQEhdMltDSDNd

> <s_epik_cmdline>
J2VwaWtfcHl0aG9uJywgJy1waCcsICc3LjAnLCAnLXRuJywgJzgnLCAnLW1hJywgJzIwMCcsICctbWV0YWxfYmluZGluZycsICctaW1hZScsICc8aW5maWxlLm1hZT4nLCAnLW9tYWUnLCAnPG91dGZpbGUubWFlPic=

> <r_lp_tautomer_probability>
1

> <r_epik_Ionization_Penalty>
0.623446

> <r_epik_Ionization_Penalty_Charging>
0

> <r_epik_Ionization_Penalty_Neutral>
0.623446

> <r_epik_State_Penalty>
0.639577

> <r_epik_Charging_Adjusted_Penalty>
0.639577

> <i_epik_Tot_Q>
0

> <i_epik_Tot_abs_Q>
0

> <r_epik_Metal_State_Penalty>
0.639567

> <b_epik_Metal_Only>
0

> <s_lp_Force_Field>
OPLS_2005

> <r_lp_Energy>
48.0993

> <b_lp_Chiralities_Consistent>
1

> <s_lp_Variant>
AV-unprocessed.smi:1071-6

> <Gold.Version>
5.8.1

> <Gold.Id.Protein>
6NUR|6NUR_protein|mol2

> <Gold.PLP.Fitness>
36.6665

> <Gold.PLP.PLP>
-32.1301

> <Gold.PLP.part.hbond>
-1.5808

> <Gold.PLP.part.metal>
0.0000

> <Gold.PLP.part.buried>
-5.7446

> <Gold.PLP.part.nonpolar>
-24.5350

> <Gold.PLP.part.repulsive>
0.4730

> <Gold.PLP.ligand.clash>
0.0000

> <Gold.PLP.ligand.torsion>
1.1341

> <Gold.PLP.Chemscore.Hbond>
1.0284

> <Gold.PLP.Chemscore.CHOScore>
1.0556

> <Gold.PLP.Chemscore.Metal>
0.0000

> <Gold.Chemscore.Hbonds>
donor molecule, donor type, donor heavy atom, donor atom, acceptor molecule, acceptor atom, score
      L1  H    10    32       P1  7948  0.17
      P1  H  7989  7998       L1    22  1.00
      L1  C    21    46       P1  7948  0.53
      L1  C    21    46       P1  7949  0.04
      L1  C    21    46       P1  7957  0.67

> <Gold.PLP.Chemscore.Internal.Correction>
0.5525

> <Gold.Rescore>
     Score         DG    S(hbond)    S(metal)    S(lipo)     H(rot)  DE(clash)    DE(int)     intcor
      9.15     -12.82       0.78        0.00      75.03       1.57       0.07       3.61       ----

> <Gold.Chemscore.Fitness>
9.1473

> <Gold.Chemscore.DG>
-12.8187

> <Gold.Chemscore.ZeroCoef>
-5.4800

> <Gold.Chemscore.Hbond>
0.7755

> <Gold.Chemscore.Metal>
0.0000

> <Gold.Chemscore.Lipo>
75.0310

> <Gold.Chemscore.Internal_Hbond>
0.0000

> <Gold.Chemscore.DEClash>
0.0652

> <Gold.Chemscore.DEInternal>
3.6062

> <Gold.Chemscore.Rot>
1.5743

> <Gold.Chemscore.Internal.Correction>
   9.000000E+99

> <Gold.Chemscore.Hbonds>
donor molecule, donor type, donor heavy atom, donor atom, acceptor molecule, acceptor atom, score
      P1  H  7989  7998       L1    22  0.23

> <Gold.Chemscore.Hbond.Weighted>
-2.5902

> <Gold.Chemscore.Metal.Weighted>
-0.0000

> <Gold.Chemscore.Lipo.Weighted>
-8.7786

> <Gold.Chemscore.Internal_Hbond.Weighted>
0.0000

> <Gold.Chemscore.DEClash.Weighted>
0.0652

> <Gold.Chemscore.DEInternal.Weighted>
3.6062

> <Gold.Chemscore.Rot.Weighted>
4.0301

> <Gold.Chemscore.Internal.Correction.Weighted>
   9.000000E+99

> <Gold.Protein.RotatedTorsions>
[ 6907 6896 6895 6894 ] final   -9.81 input  -60.11 | X-H torsion
[ 7974 7965 7964 7962 ] final   23.76 input  175.53 | X-H torsion
[ 8008 7997 7996 7995 ] final  113.79 input   59.86 | X-H torsion
[ 10167 10162 10161 10158 ] final -160.54 input  -65.29 | X-H torsion
[ 10718 10713 10712 10709 ] final -167.34 input   66.30 | X-H torsion
[ 10763 10752 10751 10750 ] final -179.45 input  -60.55 | X-H torsion
[ 11005 11000 10999 10996 ] final  143.15 input  -57.11 | X-H torsion

> <Gold.Protein.ActiveResidues>
 VAL166  LYS551  ARG553  GLY616  TRP617  ASP618  TYR619  PRO620  LYS621  CYS622 
 ASP623  PHE694  ASN695  SER759  ASP760  ASP761  ALA762  ILE779  LEU786  VAL792 
 PHE793  MET794  SER795  GLU796  ALA797  LYS798  CYS799  TRP800  GLU811  SER814 

> <Gold.Protein.RotatedAtoms>
  151.4119  135.0986  159.9587 H   0  0  0  0  0  0  0  0  0  0  0  0  # atno 6907 bound_to 6896
  152.5017  133.8789  159.7347 H   0  0  0  0  0  0  0  0  0  0  0  0  # atno 6908 bound_to 6896
  150.9286  133.6737  159.2844 H   0  0  0  0  0  0  0  0  0  0  0  0  # atno 6909 bound_to 6896
  146.1969  139.7699  142.8790 H   0  0  0  0  0  0  0  0  0  0  0  0  # atno 7974 bound_to 7965
  156.2280  140.2972  156.0117 H   0  0  0  0  0  0  0  0  0  0  0  0  # atno 8008 bound_to 7997
  155.2303  140.0418  157.2978 H   0  0  0  0  0  0  0  0  0  0  0  0  # atno 8009 bound_to 7997
  154.5948  140.2411  155.7879 H   0  0  0  0  0  0  0  0  0  0  0  0  # atno 8010 bound_to 7997
  139.6531  144.0047  152.2175 H   0  0  0  0  0  0  0  0  0  0  0  0  # atno 10167 bound_to 10162
  156.6810  130.9121  151.3057 H   0  0  0  0  0  0  0  0  0  0  0  0  # atno 10718 bound_to 10713
  154.5350  135.2802  155.1147 H   0  0  0  0  0  0  0  0  0  0  0  0  # atno 10763 bound_to 10752
  154.2652  135.6314  153.5293 H   0  0  0  0  0  0  0  0  0  0  0  0  # atno 10764 bound_to 10752
  152.9965  135.5615  154.5873 H   0  0  0  0  0  0  0  0  0  0  0  0  # atno 10765 bound_to 10752
  140.0531  134.9245  157.1053 H   0  0  0  0  0  0  0  0  0  0  0  0  # atno 11005 bound_to 11000
  145.3613  141.0326  143.3283 LP  0  0  0  0  0  0  0  0  0  0  0  0  # atno 17320 bound_to 7965
  144.8600  139.5192  143.6817 LP  0  0  0  0  0  0  0  0  0  0  0  0  # atno 17321 bound_to 7965
  139.9766  144.6457  150.7939 LP  0  0  0  0  0  0  0  0  0  0  0  0  # atno 17342 bound_to 10162
  140.7547  143.3032  151.3028 LP  0  0  0  0  0  0  0  0  0  0  0  0  # atno 17343 bound_to 10162
  157.7044  130.9368  150.0883 LP  0  0  0  0  0  0  0  0  0  0  0  0  # atno 17370 bound_to 10713
  156.1868  130.3652  149.8962 LP  0  0  0  0  0  0  0  0  0  0  0  0  # atno 17371 bound_to 10713
  140.3886  134.2209  155.7167 LP  0  0  0  0  0  0  0  0  0  0  0  0  # atno 17394 bound_to 11000
  141.1940  133.8139  157.0777 LP  0  0  0  0  0  0  0  0  0  0  0  0  # atno 17395 bound_to 11000

$$$$
