AV-unprocessed.smi:912|AV-procd|sdf|4145|dock8
  -GOLD-   22720 2 53D 1   1.00000     0.00000
 Structure written by MMmdl.
 27 27  0  0  0  0  0  0  0  0  2 V2000
  151.0023  142.7314  157.5051 C   0  0  0  0  0  0  0  0  0  0  0  0
  149.9883  142.4158  156.5011 N   0  0  0  0  0  0  0  0  0  0  0  0
  149.6729  141.0019  156.2274 C   0  0  2  0  0  0  0  0  0  0  0  0
  149.2629  140.3868  157.5908 C   0  0  0  0  0  0  0  0  0  0  0  0
  150.8953  140.2599  155.6206 C   0  0  0  0  0  0  0  0  0  0  0  0
  151.9803  140.1231  156.3915 N   0  0  0  0  0  0  0  0  0  0  0  0
  150.8686  139.8201  154.4724 O   0  0  0  0  0  0  0  0  0  0  0  0
  148.4934  140.8553  155.2422 C   0  0  0  0  0  0  0  0  0  0  0  0
  148.0180  139.5889  154.8096 C   0  0  0  0  0  0  0  0  0  0  0  0
  146.9408  139.5160  153.9029 C   0  0  0  0  0  0  0  0  0  0  0  0
  146.3632  140.6475  153.4487 N   0  3  0  0  0  0  0  0  0  0  0  0
  146.7742  141.8758  153.8257 C   0  0  0  0  0  0  0  0  0  0  0  0
  147.8479  142.0095  154.7285 C   0  0  0  0  0  0  0  0  0  0  0  0
  150.9961  143.8052  157.6909 H   0  0  0  0  0  0  0  0  0  0  0  0
  152.0059  142.4703  157.1692 H   0  0  0  0  0  0  0  0  0  0  0  0
  150.8125  142.2346  158.4557 H   0  0  0  0  0  0  0  0  0  0  0  0
  150.1595  142.9174  155.6421 H   0  0  0  0  0  0  0  0  0  0  0  0
  148.9808  139.3375  157.4996 H   0  0  0  0  0  0  0  0  0  0  0  0
  148.4057  140.9107  158.0156 H   0  0  0  0  0  0  0  0  0  0  0  0
  150.0646  140.4270  158.3280 H   0  0  0  0  0  0  0  0  0  0  0  0
  152.8018  139.6596  156.0323 H   0  0  0  0  0  0  0  0  0  0  0  0
  151.9768  140.4981  157.3292 H   0  0  0  0  0  0  0  0  0  0  0  0
  148.4609  138.6660  155.1525 H   0  0  0  0  0  0  0  0  0  0  0  0
  146.5276  138.5904  153.5297 H   0  0  0  0  0  0  0  0  0  0  0  0
  146.2362  142.7091  153.3977 H   0  0  0  0  0  0  0  0  0  0  0  0
  148.1682  142.9977  155.0256 H   0  0  0  0  0  0  0  0  0  0  0  0
  145.5849  140.5713  152.7933 H   0  0  0  0  0  0  0  0  0  0  0  0
  1  2  1  0  0  0  0
  1 14  1  0  0  0  0
  1 15  1  0  0  0  0
  1 16  1  0  0  0  0
  2  3  1  0  0  0  0
  2 17  1  0  0  0  0
  3  4  1  0  0  0  0
  3  5  1  0  0  0  0
  3  8  1  0  0  0  0
  4 18  1  0  0  0  0
  4 19  1  0  0  0  0
  4 20  1  0  0  0  0
  5  6  1  0  0  0  0
  5  7  2  0  0  0  0
  6 21  1  0  0  0  0
  6 22  1  0  0  0  0
  8 13  1  0  0  0  0
  8  9  2  0  0  0  0
  9 10  1  0  0  0  0
  9 23  1  0  0  0  0
 10 11  2  0  0  0  0
 10 24  1  0  0  0  0
 11 12  1  0  0  0  0
 11 27  1  0  0  0  0
 12 13  2  0  0  0  0
 12 25  1  0  0  0  0
 13 26  1  0  0  0  0
M  CHG  1  11   1
M  END
> <s_m_source_file>
AV-unprocessed.smi

> <i_m_source_file_index>
912

> <i_lp_mmshare_version>
43012

> <i_f3d_flags>
0

> <s_epik_input>
W0NIM11bTkhdW0NAQF0oW0NIM10pKEMoPU8pW05IMl0pYzFbY0hdW2NIXW5bY0hdW2NIXTE=

> <s_epik_cmdline>
J2VwaWtfcHl0aG9uJywgJy1waCcsICc3LjAnLCAnLXRuJywgJzgnLCAnLW1hJywgJzIwMCcsICctbWV0YWxfYmluZGluZycsICctaW1hZScsICc8aW5maWxlLm1hZT4nLCAnLW9tYWUnLCAnPG91dGZpbGUubWFlPic=

> <r_epik_Ionization_Penalty>
0.562542

> <r_epik_Ionization_Penalty_Charging>
0.554844

> <r_epik_Ionization_Penalty_Neutral>
0.00769834

> <r_epik_State_Penalty>
1.39075

> <r_epik_Charging_Adjusted_Penalty>
1.94559

> <i_epik_Tot_Q>
1

> <i_epik_Tot_abs_Q>
1

> <r_epik_Metal_State_Penalty>
1.55563

> <b_epik_Metal_Only>
0

> <s_lp_Force_Field>
OPLS_2005

> <r_lp_Energy>
18.1992

> <b_lp_Chiralities_Consistent>
1

> <s_lp_Variant>
AV-unprocessed.smi:912-6

> <Gold.Version>
5.8.1

> <Gold.Id.Protein>
6NUR|6NUR_protein|mol2

> <Gold.PLP.Fitness>
29.6999

> <Gold.PLP.PLP>
-20.8150

> <Gold.PLP.part.hbond>
-3.0000

> <Gold.PLP.part.metal>
0.0000

> <Gold.PLP.part.buried>
-2.6900

> <Gold.PLP.part.nonpolar>
-15.1880

> <Gold.PLP.part.repulsive>
0.2841

> <Gold.PLP.ligand.clash>
0.0018

> <Gold.PLP.ligand.torsion>
0.1894

> <Gold.PLP.Chemscore.Hbond>
3.0796

> <Gold.PLP.Chemscore.CHOScore>
0.0000

> <Gold.PLP.Chemscore.Metal>
0.0000

> <Gold.Chemscore.Hbonds>
donor molecule, donor type, donor heavy atom, donor atom, acceptor molecule, acceptor atom, score
      L1  H     2    17       P1  8028  0.09
      L1  H    11    27       P1 10175  2.00
      P1  H  7989  7998       L1     7  1.00

> <Gold.PLP.Chemscore.Internal.Correction>
0.0268

> <Gold.Rescore>
     Score         DG    S(hbond)    S(metal)    S(lipo)     H(rot)  DE(clash)    DE(int)     intcor
     11.12     -12.79       2.23        0.00      38.67       1.82       0.15       1.52       ----

> <Gold.Chemscore.Fitness>
11.1240

> <Gold.Chemscore.DG>
-12.7889

> <Gold.Chemscore.ZeroCoef>
-5.4800

> <Gold.Chemscore.Hbond>
2.2307

> <Gold.Chemscore.Metal>
0.0000

> <Gold.Chemscore.Lipo>
38.6697

> <Gold.Chemscore.Internal_Hbond>
0.0000

> <Gold.Chemscore.DEClash>
0.1465

> <Gold.Chemscore.DEInternal>
1.5183

> <Gold.Chemscore.Rot>
1.8226

> <Gold.Chemscore.Internal.Correction>
   9.000000E+99

> <Gold.Chemscore.Hbonds>
donor molecule, donor type, donor heavy atom, donor atom, acceptor molecule, acceptor atom, score
      L1  H     2    17       P1  8028  0.09
      L1  H    11    27       P1 10175  0.61
      P1  H  7989  7998       L1     7  0.69

> <Gold.Chemscore.Hbond.Weighted>
-7.4504

> <Gold.Chemscore.Metal.Weighted>
-0.0000

> <Gold.Chemscore.Lipo.Weighted>
-4.5243

> <Gold.Chemscore.Internal_Hbond.Weighted>
0.0000

> <Gold.Chemscore.DEClash.Weighted>
0.1465

> <Gold.Chemscore.DEInternal.Weighted>
1.5183

> <Gold.Chemscore.Rot.Weighted>
4.6659

> <Gold.Chemscore.Internal.Correction.Weighted>
   9.000000E+99

> <Gold.Protein.RotatedTorsions>
[ 6907 6896 6895 6894 ] final -121.81 input  -60.11 | X-H torsion
[ 7974 7965 7964 7962 ] final  -44.78 input  175.53 | X-H torsion
[ 8008 7997 7996 7995 ] final  -21.82 input   59.86 | X-H torsion
[ 10167 10162 10161 10158 ] final  161.09 input  -65.29 | X-H torsion
[ 10718 10713 10712 10709 ] final -149.85 input   66.30 | X-H torsion
[ 10763 10752 10751 10750 ] final   -3.95 input  -60.55 | X-H torsion
[ 11005 11000 10999 10996 ] final  -23.73 input  -57.11 | X-H torsion

> <Gold.Protein.ActiveResidues>
 VAL166  LYS551  ARG553  GLY616  TRP617  ASP618  TYR619  PRO620  LYS621  CYS622 
 ASP623  PHE694  ASN695  SER759  ASP760  ASP761  ALA762  ILE779  LEU786  VAL792 
 PHE793  MET794  SER795  GLU796  ALA797  LYS798  CYS799  TRP800  GLU811  SER814 

> <Gold.Protein.RotatedAtoms>
  150.8517  133.7777  159.3022 H   0  0  0  0  0  0  0  0  0  0  0  0  # atno 6907 bound_to 6896
  151.5447  135.1066  159.9944 H   0  0  0  0  0  0  0  0  0  0  0  0  # atno 6908 bound_to 6896
  152.4558  133.7677  159.6837 H   0  0  0  0  0  0  0  0  0  0  0  0  # atno 6909 bound_to 6896
  145.9886  140.7205  142.9328 H   0  0  0  0  0  0  0  0  0  0  0  0  # atno 7974 bound_to 7965
  154.4682  140.2024  156.0064 H   0  0  0  0  0  0  0  0  0  0  0  0  # atno 8008 bound_to 7997
  156.0964  140.3250  155.7854 H   0  0  0  0  0  0  0  0  0  0  0  0  # atno 8009 bound_to 7997
  155.4871  140.0543  157.2950 H   0  0  0  0  0  0  0  0  0  0  0  0  # atno 8010 bound_to 7997
  139.4846  144.4571  151.8754 H   0  0  0  0  0  0  0  0  0  0  0  0  # atno 10167 bound_to 10162
  156.4385  130.8110  151.2339 H   0  0  0  0  0  0  0  0  0  0  0  0  # atno 10718 bound_to 10713
  153.3782  135.6997  153.6585 H   0  0  0  0  0  0  0  0  0  0  0  0  # atno 10763 bound_to 10752
  153.5207  135.3612  155.2631 H   0  0  0  0  0  0  0  0  0  0  0  0  # atno 10764 bound_to 10752
  154.8689  135.4157  154.3075 H   0  0  0  0  0  0  0  0  0  0  0  0  # atno 10765 bound_to 10752
  140.8779  133.7674  156.0266 H   0  0  0  0  0  0  0  0  0  0  0  0  # atno 11005 bound_to 11000
  144.6882  140.3031  143.7260 LP  0  0  0  0  0  0  0  0  0  0  0  0  # atno 17320 bound_to 7965
  145.7663  139.1842  143.2238 LP  0  0  0  0  0  0  0  0  0  0  0  0  # atno 17321 bound_to 7965
  140.4031  144.2468  150.5892 LP  0  0  0  0  0  0  0  0  0  0  0  0  # atno 17342 bound_to 10162
  140.5038  143.2310  151.8638 LP  0  0  0  0  0  0  0  0  0  0  0  0  # atno 17343 bound_to 10162
  157.7507  131.0176  150.3590 LP  0  0  0  0  0  0  0  0  0  0  0  0  # atno 17370 bound_to 10713
  156.3943  130.3904  149.7007 LP  0  0  0  0  0  0  0  0  0  0  0  0  # atno 17371 bound_to 10713
  140.8496  134.2970  157.5281 LP  0  0  0  0  0  0  0  0  0  0  0  0  # atno 17394 bound_to 11000
  139.8717  134.9460  156.3927 LP  0  0  0  0  0  0  0  0  0  0  0  0  # atno 17395 bound_to 11000

$$$$
