AV-unprocessed.smi:3179|AV-procd|sdf|12133|dock2
  -GOLD-   2272017573D 1   1.00000     0.00000
 Structure written by MMmdl.
 34 34  0  0  0  0  0  0  0  0  2 V2000
  147.0237  138.2999  153.8176 C   0  0  0  0  0  0  0  0  0  0  0  0
  146.8197  139.3704  152.7424 C   0  0  0  0  0  0  0  0  0  0  0  0
  146.4973  140.6718  153.3424 N   0  3  0  0  0  0  0  0  0  0  0  0
  147.3506  141.4496  154.0370 C   0  0  0  0  0  0  0  0  0  0  0  0
  146.9318  142.6272  154.5403 N   0  0  0  0  0  0  0  0  0  0  0  0
  145.5785  143.1825  154.4082 C   0  0  0  0  0  0  0  0  0  0  0  0
  145.4651  144.0764  153.1702 C   0  0  0  0  0  0  0  0  0  0  0  0
  148.6230  141.0499  154.2282 N   0  0  0  0  0  0  0  0  0  0  0  0
  149.6542  141.7960  154.9617 C   0  0  0  0  0  0  0  0  0  0  0  0
  150.3827  140.8958  155.9664 C   0  0  0  0  0  0  0  0  0  0  0  0
  151.0674  141.6780  157.0363 C   0  0  0  0  0  0  0  0  0  0  0  0
  151.0158  143.0101  157.1224 N   0  0  0  0  0  0  0  0  0  0  0  0
  151.7147  143.5015  158.2281 C   0  0  0  0  0  0  0  0  0  0  0  0
  152.2872  142.5184  158.9944 C   0  0  0  0  0  0  0  0  0  0  0  0
  151.9676  140.9307  158.3518 S   0  0  0  0  0  0  0  0  0  0  0  0
  147.2080  137.3258  153.3638 H   0  0  0  0  0  0  0  0  0  0  0  0
  146.1439  138.2077  154.4551 H   0  0  0  0  0  0  0  0  0  0  0  0
  147.8773  138.5371  154.4532 H   0  0  0  0  0  0  0  0  0  0  0  0
  147.7176  139.4685  152.1321 H   0  0  0  0  0  0  0  0  0  0  0  0
  146.0063  139.0774  152.0784 H   0  0  0  0  0  0  0  0  0  0  0  0
  147.5961  143.1857  155.0570 H   0  0  0  0  0  0  0  0  0  0  0  0
  144.8642  142.3616  154.3409 H   0  0  0  0  0  0  0  0  0  0  0  0
  145.3358  143.7512  155.3059 H   0  0  0  0  0  0  0  0  0  0  0  0
  144.4501  144.4588  153.0613 H   0  0  0  0  0  0  0  0  0  0  0  0
  145.7117  143.5256  152.2619 H   0  0  0  0  0  0  0  0  0  0  0  0
  146.1372  144.9323  153.2385 H   0  0  0  0  0  0  0  0  0  0  0  0
  148.9043  140.1612  153.8395 H   0  0  0  0  0  0  0  0  0  0  0  0
  150.3651  142.2124  154.2471 H   0  0  0  0  0  0  0  0  0  0  0  0
  149.1844  142.6335  155.4782 H   0  0  0  0  0  0  0  0  0  0  0  0
  149.6774  140.2094  156.4365 H   0  0  0  0  0  0  0  0  0  0  0  0
  151.1231  140.2808  155.4532 H   0  0  0  0  0  0  0  0  0  0  0  0
  151.7510  144.5677  158.3956 H   0  0  0  0  0  0  0  0  0  0  0  0
  152.8729  142.6315  159.8948 H   0  0  0  0  0  0  0  0  0  0  0  0
  145.5479  140.9958  153.2252 H   0  0  0  0  0  0  0  0  0  0  0  0
  1  2  1  0  0  0  0
  1 16  1  0  0  0  0
  1 17  1  0  0  0  0
  1 18  1  0  0  0  0
  2  3  1  0  0  0  0
  2 19  1  0  0  0  0
  2 20  1  0  0  0  0
  3  4  2  0  0  0  0
  3 34  1  0  0  0  0
  4  5  1  0  0  0  0
  4  8  1  0  0  0  0
  5  6  1  0  0  0  0
  5 21  1  0  0  0  0
  6  7  1  0  0  0  0
  6 22  1  0  0  0  0
  6 23  1  0  0  0  0
  7 24  1  0  0  0  0
  7 25  1  0  0  0  0
  7 26  1  0  0  0  0
  8  9  1  0  0  0  0
  8 27  1  0  0  0  0
  9 10  1  0  0  0  0
  9 28  1  0  0  0  0
  9 29  1  0  0  0  0
 10 11  1  0  0  0  0
 10 30  1  0  0  0  0
 10 31  1  0  0  0  0
 11 15  1  0  0  0  0
 11 12  2  0  0  0  0
 12 13  1  0  0  0  0
 13 14  2  0  0  0  0
 13 32  1  0  0  0  0
 14 15  1  0  0  0  0
 14 33  1  0  0  0  0
M  CHG  1   3   1
M  END
> <s_m_source_file>
AV-unprocessed.smi

> <i_m_source_file_index>
3179

> <i_lp_mmshare_version>
43012

> <i_f3d_flags>
0

> <s_epik_input>
W0NIM11bQ0gyXS9OPUMoXFtOSF1bQ0gyXVtDSDNdKVtOSF1bQ0gyXVtDSDJdYzFuW2NIXVtjSF1zMQ==

> <s_epik_cmdline>
J2VwaWtfcHl0aG9uJywgJy1waCcsICc3LjAnLCAnLXRuJywgJzgnLCAnLW1hJywgJzIwMCcsICctbWV0YWxfYmluZGluZycsICctaW1hZScsICc8aW5maWxlLm1hZT4nLCAnLW9tYWUnLCAnPG91dGZpbGUubWFlPic=

> <r_lp_tautomer_probability>
1

> <r_epik_Ionization_Penalty>
3.28801e-05

> <r_epik_Ionization_Penalty_Charging>
8.99277e-08

> <r_epik_Ionization_Penalty_Neutral>
3.27902e-05

> <r_epik_State_Penalty>
-0

> <r_epik_Charging_Adjusted_Penalty>
8.99277e-08

> <i_epik_Tot_Q>
1

> <i_epik_Tot_abs_Q>
1

> <r_epik_Metal_State_Penalty>
-0

> <b_epik_Metal_Only>
0

> <s_epik_Chemistry_Notes>
This compound has an imine and may undergo hydrolysis.

> <s_lp_Force_Field>
OPLS_2005

> <r_lp_Energy>
0.365327

> <b_lp_Chiralities_Consistent>
1

> <s_lp_Variant>
AV-unprocessed.smi:3179-2

> <Gold.Version>
5.8.1

> <Gold.Id.Protein>
6NUR|6NUR_protein|mol2

> <Gold.PLP.Fitness>
39.7351

> <Gold.PLP.PLP>
-29.7825

> <Gold.PLP.part.hbond>
-2.0000

> <Gold.PLP.part.metal>
0.0000

> <Gold.PLP.part.buried>
-3.0425

> <Gold.PLP.part.nonpolar>
-26.2643

> <Gold.PLP.part.repulsive>
0.7793

> <Gold.PLP.ligand.clash>
0.0000

> <Gold.PLP.ligand.torsion>
0.3967

> <Gold.PLP.Chemscore.Hbond>
3.5725

> <Gold.PLP.Chemscore.CHOScore>
0.0000

> <Gold.PLP.Chemscore.Metal>
0.0000

> <Gold.Chemscore.Hbonds>
donor molecule, donor type, donor heavy atom, donor atom, acceptor molecule, acceptor atom, score
      L1  H     3    34       P1 10175  1.63
      L1  H     5    21       P1  8028  1.89

> <Gold.PLP.Chemscore.Internal.Correction>
0.0285

> <Gold.Rescore>
     Score         DG    S(hbond)    S(metal)    S(lipo)     H(rot)  DE(clash)    DE(int)     intcor
     12.95     -13.68       1.04        0.00      77.97       1.72       0.32       0.42       ----

> <Gold.Chemscore.Fitness>
12.9467

> <Gold.Chemscore.DG>
-13.6805

> <Gold.Chemscore.ZeroCoef>
-5.4800

> <Gold.Chemscore.Hbond>
1.0411

> <Gold.Chemscore.Metal>
0.0000

> <Gold.Chemscore.Lipo>
77.9741

> <Gold.Chemscore.Internal_Hbond>
0.0000

> <Gold.Chemscore.DEClash>
0.3181

> <Gold.Chemscore.DEInternal>
0.4157

> <Gold.Chemscore.Rot>
1.7187

> <Gold.Chemscore.Internal.Correction>
   9.000000E+99

> <Gold.Chemscore.Hbonds>
donor molecule, donor type, donor heavy atom, donor atom, acceptor molecule, acceptor atom, score
      L1  H     3    34       P1 10175  0.35
      L1  H     5    21       P1  8028  0.36

> <Gold.Chemscore.Hbond.Weighted>
-3.4773

> <Gold.Chemscore.Metal.Weighted>
-0.0000

> <Gold.Chemscore.Lipo.Weighted>
-9.1230

> <Gold.Chemscore.Internal_Hbond.Weighted>
0.0000

> <Gold.Chemscore.DEClash.Weighted>
0.3181

> <Gold.Chemscore.DEInternal.Weighted>
0.4157

> <Gold.Chemscore.Rot.Weighted>
4.3998

> <Gold.Chemscore.Internal.Correction.Weighted>
   9.000000E+99

> <Gold.Protein.RotatedTorsions>
[ 6907 6896 6895 6894 ] final -104.08 input  -60.11 | X-H torsion
[ 7974 7965 7964 7962 ] final   29.67 input  175.53 | X-H torsion
[ 8008 7997 7996 7995 ] final  123.99 input   59.86 | X-H torsion
[ 10167 10162 10161 10158 ] final   40.67 input  -65.29 | X-H torsion
[ 10718 10713 10712 10709 ] final   68.93 input   66.30 | X-H torsion
[ 10763 10752 10751 10750 ] final -112.90 input  -60.55 | X-H torsion
[ 11005 11000 10999 10996 ] final   21.09 input  -57.11 | X-H torsion

> <Gold.Protein.ActiveResidues>
 VAL166  LYS551  ARG553  GLY616  TRP617  ASP618  TYR619  PRO620  LYS621  CYS622 
 ASP623  PHE694  ASN695  SER759  ASP760  ASP761  ALA762  ILE779  LEU786  VAL792 
 PHE793  MET794  SER795  GLU796  ALA797  LYS798  CYS799  TRP800  GLU811  SER814 

> <Gold.Protein.RotatedAtoms>
  150.7270  134.0332  159.3740 H   0  0  0  0  0  0  0  0  0  0  0  0  # atno 6907 bound_to 6896
  151.8302  135.0621  160.0445 H   0  0  0  0  0  0  0  0  0  0  0  0  # atno 6908 bound_to 6896
  152.2939  133.5552  159.5611 H   0  0  0  0  0  0  0  0  0  0  0  0  # atno 6909 bound_to 6896
  146.1657  139.6890  142.9002 H   0  0  0  0  0  0  0  0  0  0  0  0  # atno 7974 bound_to 7965
  156.2786  140.2750  156.1716 H   0  0  0  0  0  0  0  0  0  0  0  0  # atno 8008 bound_to 7997
  155.0648  140.0387  157.2607 H   0  0  0  0  0  0  0  0  0  0  0  0  # atno 8009 bound_to 7997
  154.7087  140.2664  155.6655 H   0  0  0  0  0  0  0  0  0  0  0  0  # atno 8010 bound_to 7997
  140.3719  144.2094  150.6133 H   0  0  0  0  0  0  0  0  0  0  0  0  # atno 10167 bound_to 10162
  157.6317  130.9399  150.0444 H   0  0  0  0  0  0  0  0  0  0  0  0  # atno 10718 bound_to 10713
  154.8371  135.4474  154.1266 H   0  0  0  0  0  0  0  0  0  0  0  0  # atno 10763 bound_to 10752
  153.2487  135.6924  153.7709 H   0  0  0  0  0  0  0  0  0  0  0  0  # atno 10764 bound_to 10752
  153.7029  135.3369  155.3204 H   0  0  0  0  0  0  0  0  0  0  0  0  # atno 10765 bound_to 10752
  140.3954  134.1774  155.7663 H   0  0  0  0  0  0  0  0  0  0  0  0  # atno 11005 bound_to 11000
  145.4472  141.0426  143.2824 LP  0  0  0  0  0  0  0  0  0  0  0  0  # atno 17320 bound_to 7965
  144.8090  139.5998  143.7038 LP  0  0  0  0  0  0  0  0  0  0  0  0  # atno 17321 bound_to 7965
  140.5025  143.2314  151.8657 LP  0  0  0  0  0  0  0  0  0  0  0  0  # atno 17342 bound_to 10162
  139.4803  144.5043  151.9018 LP  0  0  0  0  0  0  0  0  0  0  0  0  # atno 17343 bound_to 10162
  156.1526  130.3642  149.9416 LP  0  0  0  0  0  0  0  0  0  0  0  0  # atno 17370 bound_to 10713
  156.7433  130.9087  151.3633 LP  0  0  0  0  0  0  0  0  0  0  0  0  # atno 17371 bound_to 10713
  141.1876  133.8278  157.1027 LP  0  0  0  0  0  0  0  0  0  0  0  0  # atno 17394 bound_to 11000
  140.0375  134.9871  157.0899 LP  0  0  0  0  0  0  0  0  0  0  0  0  # atno 17395 bound_to 11000

$$$$
