AV-unprocessed.smi:1790|AV-procd|sdf|7216|dock1
  -GOLD-   22720 8453D 1   1.00000     0.00000
 Structure written by MMmdl.
 33 34  0  0  0  0  0  0  0  0  1 V2000
  151.4367  142.4472  157.3009 O   0  0  0  0  0  0  0  0  0  0  0  0
  151.2163  141.2774  157.6108 C   0  0  0  0  0  0  0  0  0  0  0  0
  152.0535  140.6311  158.7139 C   0  0  0  0  0  0  0  0  0  0  0  0
  152.9363  141.6001  159.2573 O   0  0  0  0  0  0  0  0  0  0  0  0
  152.3048  142.4443  160.2033 C   0  0  0  0  0  0  0  0  0  0  0  0
  152.7779  143.8649  159.9832 C   0  0  0  0  0  0  0  0  0  0  0  0
  151.7980  145.0161  160.0155 C   0  0  0  0  0  0  0  0  0  0  0  0
  152.4261  144.5998  158.7097 C   0  0  0  0  0  0  0  0  0  0  0  0
  150.2565  140.4953  157.0772 N   0  0  0  0  0  0  0  0  0  0  0  0
  149.3329  140.7744  156.0554 C   0  0  0  0  0  0  0  0  0  0  0  0
  148.1376  141.3966  156.2310 C   0  0  0  0  0  0  0  0  0  0  0  0
  147.2330  141.6568  155.1236 C   0  0  0  0  0  0  0  0  0  0  0  0
  145.9233  142.4030  155.3263 C   0  0  0  0  0  0  0  0  0  0  0  0
  145.7689  143.3695  154.4205 F   0  0  0  0  0  0  0  0  0  0  0  0
  144.8989  141.5590  155.2119 F   0  0  0  0  0  0  0  0  0  0  0  0
  145.8720  142.9542  156.5390 F   0  0  0  0  0  0  0  0  0  0  0  0
  147.6525  141.2752  153.9032 C   0  0  0  0  0  0  0  0  0  0  0  0
  148.8790  140.6351  153.7137 N   0  0  0  0  0  0  0  0  0  0  0  0
  149.7537  140.3591  154.7068 C   0  0  0  0  0  0  0  0  0  0  0  0
  150.8193  139.7970  154.4561 O   0  0  0  0  0  0  0  0  0  0  0  0
  149.1180  140.3718  152.7686 H   0  0  0  0  0  0  0  0  0  0  0  0
  151.3995  140.2346  159.4927 H   0  0  0  0  0  0  0  0  0  0  0  0
  152.6150  139.7970  158.2903 H   0  0  0  0  0  0  0  0  0  0  0  0
  151.2211  142.4067  160.0826 H   0  0  0  0  0  0  0  0  0  0  0  0
  152.5423  142.1283  161.2207 H   0  0  0  0  0  0  0  0  0  0  0  0
  153.7696  144.0652  160.3844 H   0  0  0  0  0  0  0  0  0  0  0  0
  150.7456  144.7829  160.1634 H   0  0  0  0  0  0  0  0  0  0  0  0
  152.1356  145.9487  160.4628 H   0  0  0  0  0  0  0  0  0  0  0  0
  153.1823  145.2563  158.2838 H   0  0  0  0  0  0  0  0  0  0  0  0
  151.7914  144.0897  157.9878 H   0  0  0  0  0  0  0  0  0  0  0  0
  150.1645  139.5747  157.4831 H   0  0  0  0  0  0  0  0  0  0  0  0
  147.8206  141.7314  157.2046 H   0  0  0  0  0  0  0  0  0  0  0  0
  147.0955  141.4311  152.9912 H   0  0  0  0  0  0  0  0  0  0  0  0
  1  2  2  0  0  0  0
  2  3  1  0  0  0  0
  2  9  1  0  0  0  0
  3  4  1  0  0  0  0
  3 22  1  0  0  0  0
  3 23  1  0  0  0  0
  4  5  1  0  0  0  0
  5  6  1  0  0  0  0
  5 24  1  0  0  0  0
  5 25  1  0  0  0  0
  6  8  1  0  0  0  0
  6  7  1  0  0  0  0
  6 26  1  0  0  0  0
  7  8  1  0  0  0  0
  7 27  1  0  0  0  0
  7 28  1  0  0  0  0
  8 29  1  0  0  0  0
  8 30  1  0  0  0  0
  9 10  1  0  0  0  0
  9 31  1  0  0  0  0
 10 19  1  0  0  0  0
 10 11  2  0  0  0  0
 11 12  1  0  0  0  0
 11 32  1  0  0  0  0
 12 13  1  0  0  0  0
 12 17  2  0  0  0  0
 13 14  1  0  0  0  0
 13 15  1  0  0  0  0
 13 16  1  0  0  0  0
 17 18  1  0  0  0  0
 17 33  1  0  0  0  0
 18 21  1  0  0  0  0
 18 19  1  0  0  0  0
 19 20  2  0  0  0  0
M  END
> <s_m_source_file>
AV-unprocessed.smi

> <i_m_source_file_index>
1790

> <i_lp_mmshare_version>
43012

> <i_f3d_flags>
0

> <s_epik_input>
W0NIMl0xW0NIMl1bQ0hdMVtDSDJdT1tDSDJdQyg9TylbTkhdYzJbY0hdYyhDKEYpKEYpRilbY0hdW25IXWMyPU8=

> <s_epik_cmdline>
J2VwaWtfcHl0aG9uJywgJy1waCcsICc3LjAnLCAnLXRuJywgJzgnLCAnLW1hJywgJzIwMCcsICctbWV0YWxfYmluZGluZycsICctaW1hZScsICc8aW5maWxlLm1hZT4nLCAnLW9tYWUnLCAnPG91dGZpbGUubWFlPic=

> <r_lp_tautomer_probability>
0.999

> <r_epik_Ionization_Penalty>
0.00811055

> <r_epik_Ionization_Penalty_Charging>
0.00811046

> <r_epik_Ionization_Penalty_Neutral>
9.25705e-08

> <r_epik_State_Penalty>
0.00609496

> <r_epik_Charging_Adjusted_Penalty>
0.0142054

> <i_epik_Tot_Q>
0

> <i_epik_Tot_abs_Q>
0

> <r_epik_Metal_State_Penalty>
0.317593

> <b_epik_Metal_Only>
0

> <s_lp_Force_Field>
OPLS_2005

> <r_lp_Energy>
26.3792

> <b_lp_Chiralities_Consistent>
1

> <s_lp_Variant>
AV-unprocessed.smi:1790-1

> <Gold.Version>
5.8.1

> <Gold.Id.Protein>
6NUR|6NUR_protein|mol2

> <Gold.PLP.Fitness>
43.3446

> <Gold.PLP.PLP>
-40.5204

> <Gold.PLP.part.hbond>
-2.0000

> <Gold.PLP.part.metal>
0.0000

> <Gold.PLP.part.buried>
-4.7691

> <Gold.PLP.part.nonpolar>
-33.9632

> <Gold.PLP.part.repulsive>
0.3791

> <Gold.PLP.ligand.clash>
0.0000

> <Gold.PLP.ligand.torsion>
1.9476

> <Gold.PLP.Chemscore.Hbond>
2.0000

> <Gold.PLP.Chemscore.CHOScore>
0.0000

> <Gold.PLP.Chemscore.Metal>
0.0000

> <Gold.Chemscore.Hbonds>
donor molecule, donor type, donor heavy atom, donor atom, acceptor molecule, acceptor atom, score
      L1  H    18    21       P1  7957  1.00
      P1  H  7989  7998       L1    20  1.00

> <Gold.PLP.Chemscore.Internal.Correction>
0.7194

> <Gold.Rescore>
     Score         DG    S(hbond)    S(metal)    S(lipo)     H(rot)  DE(clash)    DE(int)     intcor
     14.48     -16.29       1.97        0.00      77.00       1.87       0.01       1.80       ----

> <Gold.Chemscore.Fitness>
14.4762

> <Gold.Chemscore.DG>
-16.2902

> <Gold.Chemscore.ZeroCoef>
-5.4800

> <Gold.Chemscore.Hbond>
1.9698

> <Gold.Chemscore.Metal>
0.0000

> <Gold.Chemscore.Lipo>
76.9994

> <Gold.Chemscore.Internal_Hbond>
0.0000

> <Gold.Chemscore.DEClash>
0.0149

> <Gold.Chemscore.DEInternal>
1.7991

> <Gold.Chemscore.Rot>
1.8664

> <Gold.Chemscore.Internal.Correction>
   9.000000E+99

> <Gold.Chemscore.Hbonds>
donor molecule, donor type, donor heavy atom, donor atom, acceptor molecule, acceptor atom, score
      L1  H    18    21       P1  7957  1.00
      P1  H  7989  7998       L1    20  0.50

> <Gold.Chemscore.Hbond.Weighted>
-6.5792

> <Gold.Chemscore.Metal.Weighted>
-0.0000

> <Gold.Chemscore.Lipo.Weighted>
-9.0089

> <Gold.Chemscore.Internal_Hbond.Weighted>
0.0000

> <Gold.Chemscore.DEClash.Weighted>
0.0149

> <Gold.Chemscore.DEInternal.Weighted>
1.7991

> <Gold.Chemscore.Rot.Weighted>
4.7780

> <Gold.Chemscore.Internal.Correction.Weighted>
   9.000000E+99

> <Gold.Protein.RotatedTorsions>
[ 6907 6896 6895 6894 ] final  102.10 input  -60.11 | X-H torsion
[ 7974 7965 7964 7962 ] final -154.44 input  175.53 | X-H torsion
[ 8008 7997 7996 7995 ] final  161.66 input   59.86 | X-H torsion
[ 10167 10162 10161 10158 ] final  137.50 input  -65.29 | X-H torsion
[ 10718 10713 10712 10709 ] final  116.18 input   66.30 | X-H torsion
[ 10763 10752 10751 10750 ] final   72.27 input  -60.55 | X-H torsion
[ 11005 11000 10999 10996 ] final  -24.97 input  -57.11 | X-H torsion

> <Gold.Protein.ActiveResidues>
 VAL166  LYS551  ARG553  GLY616  TRP617  ASP618  TYR619  PRO620  LYS621  CYS622 
 ASP623  PHE694  ASN695  SER759  ASP760  ASP761  ALA762  ILE779  LEU786  VAL792 
 PHE793  MET794  SER795  GLU796  ALA797  LYS798  CYS799  TRP800  GLU811  SER814 

> <Gold.Protein.RotatedAtoms>
  152.5332  134.0026  159.7901 H   0  0  0  0  0  0  0  0  0  0  0  0  # atno 6907 bound_to 6896
  151.0242  133.5841  159.2675 H   0  0  0  0  0  0  0  0  0  0  0  0  # atno 6908 bound_to 6896
  151.2870  135.0737  159.9243 H   0  0  0  0  0  0  0  0  0  0  0  0  # atno 6909 bound_to 6896
  144.7689  140.4388  143.5921 H   0  0  0  0  0  0  0  0  0  0  0  0  # atno 7974 bound_to 7965
  156.2087  140.1771  156.7742 H   0  0  0  0  0  0  0  0  0  0  0  0  # atno 8008 bound_to 7997
  154.5692  140.0685  156.8968 H   0  0  0  0  0  0  0  0  0  0  0  0  # atno 8009 bound_to 7997
  155.2705  140.3342  155.4268 H   0  0  0  0  0  0  0  0  0  0  0  0  # atno 8010 bound_to 7997
  139.5142  144.6406  151.5578 H   0  0  0  0  0  0  0  0  0  0  0  0  # atno 10167 bound_to 10162
  157.6176  131.1022  150.7436 H   0  0  0  0  0  0  0  0  0  0  0  0  # atno 10718 bound_to 10713
  153.0449  135.5106  154.7719 H   0  0  0  0  0  0  0  0  0  0  0  0  # atno 10763 bound_to 10752
  154.6627  135.2941  154.9848 H   0  0  0  0  0  0  0  0  0  0  0  0  # atno 10764 bound_to 10752
  154.0693  135.6680  153.4874 H   0  0  0  0  0  0  0  0  0  0  0  0  # atno 10765 bound_to 10752
  140.8894  133.7598  156.0402 H   0  0  0  0  0  0  0  0  0  0  0  0  # atno 11005 bound_to 11000
  145.6384  139.1546  143.2930 LP  0  0  0  0  0  0  0  0  0  0  0  0  # atno 17320 bound_to 7965
  146.1820  140.6482  142.9185 LP  0  0  0  0  0  0  0  0  0  0  0  0  # atno 17321 bound_to 7965
  140.6172  143.9327  150.6497 LP  0  0  0  0  0  0  0  0  0  0  0  0  # atno 17342 bound_to 10162
  140.2589  143.3539  152.1340 LP  0  0  0  0  0  0  0  0  0  0  0  0  # atno 17343 bound_to 10162
  156.7800  130.4856  149.5403 LP  0  0  0  0  0  0  0  0  0  0  0  0  # atno 17370 bound_to 10713
  156.1306  130.6175  151.0327 LP  0  0  0  0  0  0  0  0  0  0  0  0  # atno 17371 bound_to 10713
  140.8365  134.3117  157.5330 LP  0  0  0  0  0  0  0  0  0  0  0  0  # atno 17394 bound_to 11000
  139.8728  134.9392  156.3736 LP  0  0  0  0  0  0  0  0  0  0  0  0  # atno 17395 bound_to 11000

$$$$
