AV-unprocessed.smi:648|AV-procd|sdf|3172|dock1
  -GOLD-   22720 0 93D 1   1.00000     0.00000
 Structure written by MMmdl.
 46 47  0  0  0  0  0  0  0  0  2 V2000
  141.9816  135.6577  153.7949 C   0  0  0  0  0  0  0  0  0  0  0  0
  143.2377  135.6988  152.9120 C   0  0  2  0  0  0  0  0  0  0  0  0
  143.5051  134.3247  152.2676 C   0  0  0  0  0  0  0  0  0  0  0  0
  144.7527  134.2943  151.3524 C   0  0  0  0  0  0  0  0  0  0  0  0
  145.0883  132.8201  151.0383 C   0  0  0  0  0  0  0  0  0  0  0  0
  144.4557  134.9717  149.9948 C   0  0  0  0  0  0  0  0  0  0  0  0
  145.9799  134.9149  152.0862 C   0  0  0  0  0  0  0  0  0  0  0  0
  145.7666  136.2455  152.8712 C   0  0  2  0  0  0  0  0  0  0  0  0
  145.7053  137.4576  151.9016 C   0  0  0  0  0  0  0  0  0  0  0  0
  146.9654  137.7275  151.3167 O   0  0  0  0  0  0  0  0  0  0  0  0
  146.9696  136.4931  153.7199 N   0  3  0  0  0  0  0  0  0  0  0  0
  147.0711  137.7604  154.4810 C   0  0  0  0  0  0  0  0  0  0  0  0
  148.5417  138.1330  154.7165 C   0  0  0  0  0  0  0  0  0  0  0  0
  148.7573  139.5621  154.6036 N   0  0  0  0  0  0  0  0  0  0  0  0
  148.5409  140.3974  153.5862 C   0  0  0  0  0  0  0  0  0  0  0  0
  148.8612  141.6563  153.8507 N   0  0  0  0  0  0  0  0  0  0  0  0
  149.3022  141.5150  155.1362 C   0  0  0  0  0  0  0  0  0  0  0  0
  149.2602  140.2792  155.6352 N   0  0  0  0  0  0  0  0  0  0  0  0
  144.4693  136.1439  153.7229 C   0  0  0  0  0  0  0  0  0  0  0  0
  142.0938  134.9487  154.6159 H   0  0  0  0  0  0  0  0  0  0  0  0
  141.1052  135.3618  153.2177 H   0  0  0  0  0  0  0  0  0  0  0  0
  141.7734  136.6369  154.2274 H   0  0  0  0  0  0  0  0  0  0  0  0
  143.0398  136.4280  152.1281 H   0  0  0  0  0  0  0  0  0  0  0  0
  143.6276  133.5916  153.0667 H   0  0  0  0  0  0  0  0  0  0  0  0
  142.6278  134.0020  151.7049 H   0  0  0  0  0  0  0  0  0  0  0  0
  145.9615  132.7414  150.3890 H   0  0  0  0  0  0  0  0  0  0  0  0
  144.2603  132.3188  150.5353 H   0  0  0  0  0  0  0  0  0  0  0  0
  145.3033  132.2513  151.9436 H   0  0  0  0  0  0  0  0  0  0  0  0
  145.3645  135.1030  149.4066 H   0  0  0  0  0  0  0  0  0  0  0  0
  143.9738  135.9401  150.0883 H   0  0  0  0  0  0  0  0  0  0  0  0
  143.7728  134.3659  149.3978 H   0  0  0  0  0  0  0  0  0  0  0  0
  146.3229  134.1629  152.7953 H   0  0  0  0  0  0  0  0  0  0  0  0
  146.8088  135.0276  151.3859 H   0  0  0  0  0  0  0  0  0  0  0  0
  144.9893  137.2735  151.0997 H   0  0  0  0  0  0  0  0  0  0  0  0
  145.3948  138.3739  152.3901 H   0  0  0  0  0  0  0  0  0  0  0  0
  147.6300  137.2662  151.8063 H   0  0  0  0  0  0  0  0  0  0  0  0
  147.0425  135.7257  154.3722 H   0  0  0  0  0  0  0  0  0  0  0  0
  146.5886  138.5626  153.9219 H   0  0  0  0  0  0  0  0  0  0  0  0
  146.5594  137.6787  155.4390 H   0  0  0  0  0  0  0  0  0  0  0  0
  148.8645  137.8119  155.7081 H   0  0  0  0  0  0  0  0  0  0  0  0
  149.1837  137.6276  153.9936 H   0  0  0  0  0  0  0  0  0  0  0  0
  148.1390  140.0807  152.6348 H   0  0  0  0  0  0  0  0  0  0  0  0
  149.6644  142.3473  155.7216 H   0  0  0  0  0  0  0  0  0  0  0  0
  144.2669  137.0925  154.2213 H   0  0  0  0  0  0  0  0  0  0  0  0
  144.5943  135.4106  154.5191 H   0  0  0  0  0  0  0  0  0  0  0  0
  147.7717  136.4548  153.1065 H   0  0  0  0  0  0  0  0  0  0  0  0
  1  2  1  0  0  0  0
  1 20  1  0  0  0  0
  1 21  1  0  0  0  0
  1 22  1  0  0  0  0
  2 19  1  0  0  0  0
  2  3  1  0  0  0  0
  2 23  1  0  0  0  0
  3  4  1  0  0  0  0
  3 24  1  0  0  0  0
  3 25  1  0  0  0  0
  4  5  1  0  0  0  0
  4  6  1  0  0  0  0
  4  7  1  0  0  0  0
  5 26  1  0  0  0  0
  5 27  1  0  0  0  0
  5 28  1  0  0  0  0
  6 29  1  0  0  0  0
  6 30  1  0  0  0  0
  6 31  1  0  0  0  0
  7  8  1  0  0  0  0
  7 32  1  0  0  0  0
  7 33  1  0  0  0  0
  8  9  1  0  0  0  0
  8 11  1  0  0  0  0
  8 19  1  0  0  0  0
  9 10  1  0  0  0  0
  9 34  1  0  0  0  0
  9 35  1  0  0  0  0
 10 36  1  0  0  0  0
 11 12  1  0  0  0  0
 11 37  1  0  0  0  0
 11 46  1  0  0  0  0
 12 13  1  0  0  0  0
 12 38  1  0  0  0  0
 12 39  1  0  0  0  0
 13 14  1  0  0  0  0
 13 40  1  0  0  0  0
 13 41  1  0  0  0  0
 14 18  1  0  0  0  0
 14 15  1  0  0  0  0
 15 16  2  0  0  0  0
 15 42  1  0  0  0  0
 16 17  1  0  0  0  0
 17 18  2  0  0  0  0
 17 43  1  0  0  0  0
 19 44  1  0  0  0  0
 19 45  1  0  0  0  0
M  CHG  1  11   1
M  END
> <s_m_source_file>
AV-unprocessed.smi

> <i_m_source_file_index>
648

> <i_lp_mmshare_version>
43012

> <i_f3d_flags>
0

> <s_epik_input>
W0NIM11DMShbQ0gzXSlbQ0gyXVtDQEBIXShbQ0gzXSlbQ0gyXVtDQF0oW0NIMl0xKShbQ0gyXVtPSF0pW05IXVtDSDJdW0NIMl1uMltjSF1uW2NIXW4y

> <s_epik_cmdline>
J2VwaWtfcHl0aG9uJywgJy1waCcsICc3LjAnLCAnLXRuJywgJzgnLCAnLW1hJywgJzIwMCcsICctbWV0YWxfYmluZGluZycsICctaW1hZScsICc8aW5maWxlLm1hZT4nLCAnLW9tYWUnLCAnPG91dGZpbGUubWFlPic=

> <r_lp_tautomer_probability>
1

> <r_epik_Ionization_Penalty>
0.00942316

> <r_epik_Ionization_Penalty_Charging>
0.00942185

> <r_epik_Ionization_Penalty_Neutral>
1.31257e-06

> <r_epik_State_Penalty>
0.00715409

> <r_epik_Charging_Adjusted_Penalty>
0.0165759

> <i_epik_Tot_Q>
1

> <i_epik_Tot_abs_Q>
1

> <r_epik_Metal_State_Penalty>
0.00715563

> <b_epik_Metal_Only>
0

> <s_lp_Force_Field>
OPLS_2005

> <r_lp_Energy>
31.5344

> <b_lp_Chiralities_Consistent>
1

> <s_lp_Variant>
AV-unprocessed.smi:648-3

> <Gold.Version>
5.8.1

> <Gold.Id.Protein>
6NUR|6NUR_protein|mol2

> <Gold.PLP.Fitness>
43.5015

> <Gold.PLP.PLP>
-27.3414

> <Gold.PLP.part.hbond>
-4.0915

> <Gold.PLP.part.metal>
0.0000

> <Gold.PLP.part.buried>
1.0500

> <Gold.PLP.part.nonpolar>
-25.3023

> <Gold.PLP.part.repulsive>
0.2458

> <Gold.PLP.ligand.clash>
0.0000

> <Gold.PLP.ligand.torsion>
0.5409

> <Gold.PLP.Chemscore.Hbond>
4.0980

> <Gold.PLP.Chemscore.CHOScore>
1.5881

> <Gold.PLP.Chemscore.Metal>
0.0000

> <Gold.Chemscore.Hbonds>
donor molecule, donor type, donor heavy atom, donor atom, acceptor molecule, acceptor atom, score
      L1  H    10    36       P1  7948  0.98
      L1  H    11    46       P1  7948  2.00
      P1  H  7954  7966       L1    10  0.45
      P1  H  8011  8017       L1    16  0.64
      L1  C    15    42       P1  7957  0.65
      L1  C    17    43       P1  8028  0.95

> <Gold.PLP.Chemscore.Internal.Correction>
0.1836

> <Gold.Rescore>
     Score         DG    S(hbond)    S(metal)    S(lipo)     H(rot)  DE(clash)    DE(int)     intcor
      9.83     -12.71       2.67        0.00      55.15       3.17       2.42       0.46       ----

> <Gold.Chemscore.Fitness>
9.8326

> <Gold.Chemscore.DG>
-12.7110

> <Gold.Chemscore.ZeroCoef>
-5.4800

> <Gold.Chemscore.Hbond>
2.6665

> <Gold.Chemscore.Metal>
0.0000

> <Gold.Chemscore.Lipo>
55.1518

> <Gold.Chemscore.Internal_Hbond>
0.0000

> <Gold.Chemscore.DEClash>
2.4224

> <Gold.Chemscore.DEInternal>
0.4560

> <Gold.Chemscore.Rot>
3.1750

> <Gold.Chemscore.Internal.Correction>
   9.000000E+99

> <Gold.Chemscore.Hbonds>
donor molecule, donor type, donor heavy atom, donor atom, acceptor molecule, acceptor atom, score
      L1  H    10    36       P1  7948  0.93
      L1  H    11    46       P1  7948  1.00
      P1  H  7954  7966       L1    10  0.02
      P1  H  8011  8017       L1    16  0.47

> <Gold.Chemscore.Hbond.Weighted>
-8.9061

> <Gold.Chemscore.Metal.Weighted>
-0.0000

> <Gold.Chemscore.Lipo.Weighted>
-6.4528

> <Gold.Chemscore.Internal_Hbond.Weighted>
0.0000

> <Gold.Chemscore.DEClash.Weighted>
2.4224

> <Gold.Chemscore.DEInternal.Weighted>
0.4560

> <Gold.Chemscore.Rot.Weighted>
8.1279

> <Gold.Chemscore.Internal.Correction.Weighted>
   9.000000E+99

> <Gold.Protein.RotatedTorsions>
[ 6907 6896 6895 6894 ] final  -86.46 input  -60.11 | X-H torsion
[ 7974 7965 7964 7962 ] final  108.42 input  175.53 | X-H torsion
[ 8008 7997 7996 7995 ] final   -7.23 input   59.86 | X-H torsion
[ 10167 10162 10161 10158 ] final   97.54 input  -65.29 | X-H torsion
[ 10718 10713 10712 10709 ] final   -0.53 input   66.30 | X-H torsion
[ 10763 10752 10751 10750 ] final   22.14 input  -60.55 | X-H torsion
[ 11005 11000 10999 10996 ] final -114.52 input  -57.11 | X-H torsion

> <Gold.Protein.ActiveResidues>
 VAL166  LYS551  ARG553  GLY616  TRP617  ASP618  TYR619  PRO620  LYS621  CYS622 
 ASP623  PHE694  ASN695  SER759  ASP760  ASP761  ALA762  ILE779  LEU786  VAL792 
 PHE793  MET794  SER795  GLU796  ALA797  LYS798  CYS799  TRP800  GLU811  SER814 

> <Gold.Protein.RotatedAtoms>
  150.6867  134.3047  159.4720 H   0  0  0  0  0  0  0  0  0  0  0  0  # atno 6907 bound_to 6896
  152.0939  134.9386  160.0580 H   0  0  0  0  0  0  0  0  0  0  0  0  # atno 6908 bound_to 6896
  152.0691  133.4063  159.4488 H   0  0  0  0  0  0  0  0  0  0  0  0  # atno 6909 bound_to 6896
  145.2809  139.2633  143.3916 H   0  0  0  0  0  0  0  0  0  0  0  0  # atno 7974 bound_to 7965
  154.5859  140.2412  155.7988 H   0  0  0  0  0  0  0  0  0  0  0  0  # atno 8008 bound_to 7997
  156.2213  140.2996  155.9914 H   0  0  0  0  0  0  0  0  0  0  0  0  # atno 8009 bound_to 7997
  155.2458  140.0409  157.2971 H   0  0  0  0  0  0  0  0  0  0  0  0  # atno 8010 bound_to 7997
  139.7791  144.6895  151.0047 H   0  0  0  0  0  0  0  0  0  0  0  0  # atno 10167 bound_to 10162
  156.8190  130.5450  149.5699 H   0  0  0  0  0  0  0  0  0  0  0  0  # atno 10718 bound_to 10713
  153.0939  135.6654  153.9801 H   0  0  0  0  0  0  0  0  0  0  0  0  # atno 10763 bound_to 10752
  153.9390  135.2996  155.3444 H   0  0  0  0  0  0  0  0  0  0  0  0  # atno 10764 bound_to 10752
  154.7356  135.5103  153.9110 H   0  0  0  0  0  0  0  0  0  0  0  0  # atno 10765 bound_to 10752
  141.0546  133.9632  157.2776 H   0  0  0  0  0  0  0  0  0  0  0  0  # atno 11005 bound_to 11000
  146.3217  140.3276  142.8638 LP  0  0  0  0  0  0  0  0  0  0  0  0  # atno 17320 bound_to 7965
  144.9254  140.7915  143.5722 LP  0  0  0  0  0  0  0  0  0  0  0  0  # atno 17321 bound_to 7965
  140.7817  143.4502  151.0423 LP  0  0  0  0  0  0  0  0  0  0  0  0  # atno 17342 bound_to 10162
  139.8184  143.7854  152.3175 LP  0  0  0  0  0  0  0  0  0  0  0  0  # atno 17343 bound_to 10162
  156.1000  130.5961  150.9877 LP  0  0  0  0  0  0  0  0  0  0  0  0  # atno 17370 bound_to 10713
  157.6466  131.0903  150.8139 LP  0  0  0  0  0  0  0  0  0  0  0  0  # atno 17371 bound_to 10713
  139.9379  135.0194  156.8616 LP  0  0  0  0  0  0  0  0  0  0  0  0  # atno 17394 bound_to 11000
  140.5988  134.0191  155.7529 LP  0  0  0  0  0  0  0  0  0  0  0  0  # atno 17395 bound_to 11000

$$$$
