AV-unprocessed.smi:1429|AV-procd|sdf|5821|dock1
  -GOLD-   22720 5473D 1   1.00000     0.00000
 Structure written by MMmdl.
 29 30  0  0  0  0  0  0  0  0  2 V2000
  149.0117  141.5252  154.5404 C   0  0  0  0  0  0  0  0  0  0  0  0
  150.1613  140.7843  155.1324 C   0  0  0  0  0  0  0  0  0  0  0  0
  150.8770  139.8938  154.4418 N   0  0  0  0  0  0  0  0  0  0  0  0
  151.8936  139.3366  155.2038 N   0  0  0  0  0  0  0  0  0  0  0  0
  151.9267  139.8043  156.4597 C   0  0  0  0  0  0  0  0  0  0  0  0
  152.8391  139.3933  157.3558 N   0  5  0  0  0  0  0  0  0  0  0  0
  152.6244  139.5865  158.6772 C   0  0  0  0  0  0  0  0  0  0  0  0
  151.7840  139.0123  159.3737 O   0  0  0  0  0  0  0  0  0  0  0  0
  153.4327  140.5023  159.2268 N   0  0  0  0  0  0  0  0  0  0  0  0
  153.4227  140.9012  160.6287 C   0  0  0  0  0  0  0  0  0  0  0  0
  153.2861  142.4265  160.7644 C   0  0  1  0  0  0  0  0  0  0  0  0
  152.2204  143.0311  159.8741 C   0  0  0  0  0  0  0  0  0  0  0  0
  151.9904  144.3842  160.5389 C   0  0  0  0  0  0  0  0  0  0  0  0
  152.2016  144.1705  161.9313 O   0  0  0  0  0  0  0  0  0  0  0  0
  152.8277  142.9076  162.1433 C   0  0  0  0  0  0  0  0  0  0  0  0
  150.6853  141.0120  156.7925 S   0  0  0  0  0  0  0  0  0  0  0  0
  148.1994  140.8345  154.3142 H   0  0  0  0  0  0  0  0  0  0  0  0
  149.3200  142.0213  153.6198 H   0  0  0  0  0  0  0  0  0  0  0  0
  148.6459  142.2786  155.2379 H   0  0  0  0  0  0  0  0  0  0  0  0
  154.1074  140.9510  158.6248 H   0  0  0  0  0  0  0  0  0  0  0  0
  152.5907  140.4062  161.1313 H   0  0  0  0  0  0  0  0  0  0  0  0
  154.3391  140.5614  161.1143 H   0  0  0  0  0  0  0  0  0  0  0  0
  154.2412  142.8993  160.5277 H   0  0  0  0  0  0  0  0  0  0  0  0
  152.5292  143.1171  158.8318 H   0  0  0  0  0  0  0  0  0  0  0  0
  151.3069  142.4359  159.9127 H   0  0  0  0  0  0  0  0  0  0  0  0
  152.7227  145.1108  160.1846 H   0  0  0  0  0  0  0  0  0  0  0  0
  150.9947  144.7826  160.3423 H   0  0  0  0  0  0  0  0  0  0  0  0
  152.0877  142.2258  162.5650 H   0  0  0  0  0  0  0  0  0  0  0  0
  153.6528  142.9881  162.8515 H   0  0  0  0  0  0  0  0  0  0  0  0
  1  2  1  0  0  0  0
  1 17  1  0  0  0  0
  1 18  1  0  0  0  0
  1 19  1  0  0  0  0
  2 16  1  0  0  0  0
  2  3  2  0  0  0  0
  3  4  1  0  0  0  0
  4  5  2  0  0  0  0
  5  6  1  0  0  0  0
  5 16  1  0  0  0  0
  6  7  1  0  0  0  0
  7  8  2  0  0  0  0
  7  9  1  0  0  0  0
  9 10  1  0  0  0  0
  9 20  1  0  0  0  0
 10 11  1  0  0  0  0
 10 21  1  0  0  0  0
 10 22  1  0  0  0  0
 11 15  1  0  0  0  0
 11 12  1  0  0  0  0
 11 23  1  0  0  0  0
 12 13  1  0  0  0  0
 12 24  1  0  0  0  0
 12 25  1  0  0  0  0
 13 14  1  0  0  0  0
 13 26  1  0  0  0  0
 13 27  1  0  0  0  0
 14 15  1  0  0  0  0
 15 28  1  0  0  0  0
 15 29  1  0  0  0  0
M  CHG  1   6  -1
M  END
> <s_m_source_file>
AV-unprocessed.smi

> <i_m_source_file_index>
1429

> <i_lp_mmshare_version>
43012

> <i_f3d_flags>
0

> <s_epik_input>
W0NIM11jMW5uYyhzMSlbTkhdQyg9TylbTkhdW0NIMl1bQ0BASF0yW0NIMl1bQ0gyXU9bQ0gyXTI=

> <s_epik_cmdline>
J2VwaWtfcHl0aG9uJywgJy1waCcsICc3LjAnLCAnLXRuJywgJzgnLCAnLW1hJywgJzIwMCcsICctbWV0YWxfYmluZGluZycsICctaW1hZScsICc8aW5maWxlLm1hZT4nLCAnLW9tYWUnLCAnPG91dGZpbGUubWFlPic=

> <r_lp_tautomer_probability>
1

> <r_epik_Ionization_Penalty>
4.4122

> <r_epik_Ionization_Penalty_Charging>
4.26477

> <r_epik_Ionization_Penalty_Neutral>
0.147429

> <r_epik_State_Penalty>
4.26433

> <r_epik_Charging_Adjusted_Penalty>
8.5291

> <i_epik_Tot_Q>
-1

> <i_epik_Tot_abs_Q>
1

> <r_epik_Metal_State_Penalty>
0.713483

> <b_epik_Metal_Only>
1

> <s_lp_Force_Field>
OPLS_2005

> <r_lp_Energy>
16.2384

> <b_lp_Chiralities_Consistent>
1

> <s_lp_Variant>
AV-unprocessed.smi:1429-4

> <Gold.Version>
5.8.1

> <Gold.Id.Protein>
6NUR|6NUR_protein|mol2

> <Gold.PLP.Fitness>
42.2902

> <Gold.PLP.PLP>
-35.1229

> <Gold.PLP.part.hbond>
-2.7133

> <Gold.PLP.part.metal>
0.0000

> <Gold.PLP.part.buried>
-4.6469

> <Gold.PLP.part.nonpolar>
-28.9801

> <Gold.PLP.part.repulsive>
0.4135

> <Gold.PLP.ligand.clash>
0.0000

> <Gold.PLP.ligand.torsion>
0.8955

> <Gold.PLP.Chemscore.Hbond>
2.9500

> <Gold.PLP.Chemscore.CHOScore>
0.0000

> <Gold.PLP.Chemscore.Metal>
0.0000

> <Gold.Chemscore.Hbonds>
donor molecule, donor type, donor heavy atom, donor atom, acceptor molecule, acceptor atom, score
      P1  H  7989  7998       L1     3  0.95
      P1  H  7997  8009       L1     6  1.90

> <Gold.PLP.Chemscore.Internal.Correction>
0.1084

> <Gold.Rescore>
     Score         DG    S(hbond)    S(metal)    S(lipo)     H(rot)  DE(clash)    DE(int)     intcor
     12.84     -13.71       0.82        0.00      75.32       1.30       0.09       0.78       ----

> <Gold.Chemscore.Fitness>
12.8435

> <Gold.Chemscore.DG>
-13.7128

> <Gold.Chemscore.ZeroCoef>
-5.4800

> <Gold.Chemscore.Hbond>
0.8215

> <Gold.Chemscore.Metal>
0.0000

> <Gold.Chemscore.Lipo>
75.3158

> <Gold.Chemscore.Internal_Hbond>
0.0000

> <Gold.Chemscore.DEClash>
0.0907

> <Gold.Chemscore.DEInternal>
0.7785

> <Gold.Chemscore.Rot>
1.2980

> <Gold.Chemscore.Internal.Correction>
   9.000000E+99

> <Gold.Chemscore.Hbonds>
donor molecule, donor type, donor heavy atom, donor atom, acceptor molecule, acceptor atom, score
      P1  H  7989  7998       L1     3  0.08
      P1  H  7997  8009       L1     6  0.21

> <Gold.Chemscore.Hbond.Weighted>
-2.7437

> <Gold.Chemscore.Metal.Weighted>
-0.0000

> <Gold.Chemscore.Lipo.Weighted>
-8.8119

> <Gold.Chemscore.Internal_Hbond.Weighted>
0.0000

> <Gold.Chemscore.DEClash.Weighted>
0.0907

> <Gold.Chemscore.DEInternal.Weighted>
0.7785

> <Gold.Chemscore.Rot.Weighted>
3.3229

> <Gold.Chemscore.Internal.Correction.Weighted>
   9.000000E+99

> <Gold.Protein.RotatedTorsions>
[ 6907 6896 6895 6894 ] final   91.38 input  -60.11 | X-H torsion
[ 7974 7965 7964 7962 ] final  139.04 input  175.53 | X-H torsion
[ 8008 7997 7996 7995 ] final -173.37 input   59.86 | X-H torsion
[ 10167 10162 10161 10158 ] final  103.82 input  -65.29 | X-H torsion
[ 10718 10713 10712 10709 ] final   61.46 input   66.30 | X-H torsion
[ 10763 10752 10751 10750 ] final  -93.55 input  -60.55 | X-H torsion
[ 11005 11000 10999 10996 ] final   15.14 input  -57.11 | X-H torsion

> <Gold.Protein.ActiveResidues>
 VAL166  LYS551  ARG553  GLY616  TRP617  ASP618  TYR619  PRO620  LYS621  CYS622 
 ASP623  PHE694  ASN695  SER759  ASP760  ASP761  ALA762  ILE779  LEU786  VAL792 
 PHE793  MET794  SER795  GLU796  ALA797  LYS798  CYS799  TRP800  GLU811  SER814 

> <Gold.Protein.RotatedAtoms>
  152.5449  134.1666  159.8579 H   0  0  0  0  0  0  0  0  0  0  0  0  # atno 6907 bound_to 6896
  151.1679  133.4796  159.2601 H   0  0  0  0  0  0  0  0  0  0  0  0  # atno 6908 bound_to 6896
  151.1305  135.0139  159.8635 H   0  0  0  0  0  0  0  0  0  0  0  0  # atno 6909 bound_to 6896
  144.9316  139.5040  143.5615 H   0  0  0  0  0  0  0  0  0  0  0  0  # atno 7974 bound_to 7965
  155.9566  140.1136  157.0931 H   0  0  0  0  0  0  0  0  0  0  0  0  # atno 8008 bound_to 7997
  154.4122  140.1190  156.5190 H   0  0  0  0  0  0  0  0  0  0  0  0  # atno 8009 bound_to 7997
  155.6774  140.3473  155.4844 H   0  0  0  0  0  0  0  0  0  0  0  0  # atno 8010 bound_to 7997
  139.7230  144.7054  151.0843 H   0  0  0  0  0  0  0  0  0  0  0  0  # atno 10167 bound_to 10162
  157.5829  130.8996  149.9464 H   0  0  0  0  0  0  0  0  0  0  0  0  # atno 10718 bound_to 10713
  154.6970  135.5190  153.8472 H   0  0  0  0  0  0  0  0  0  0  0  0  # atno 10763 bound_to 10752
  153.0674  135.6589  154.0332 H   0  0  0  0  0  0  0  0  0  0  0  0  # atno 10764 bound_to 10752
  154.0197  135.2994  155.3362 H   0  0  0  0  0  0  0  0  0  0  0  0  # atno 10765 bound_to 10752
  140.4617  134.1121  155.7717 H   0  0  0  0  0  0  0  0  0  0  0  0  # atno 11005 bound_to 11000
  146.3249  139.8270  142.8915 LP  0  0  0  0  0  0  0  0  0  0  0  0  # atno 17320 bound_to 7965
  145.3133  141.0225  143.3542 LP  0  0  0  0  0  0  0  0  0  0  0  0  # atno 17321 bound_to 7965
  140.7757  143.5142  150.9615 LP  0  0  0  0  0  0  0  0  0  0  0  0  # atno 17342 bound_to 10162
  139.8829  143.7049  152.3155 LP  0  0  0  0  0  0  0  0  0  0  0  0  # atno 17343 bound_to 10162
  156.0876  130.3666  150.0456 LP  0  0  0  0  0  0  0  0  0  0  0  0  # atno 17370 bound_to 10713
  156.8592  130.9486  151.3619 LP  0  0  0  0  0  0  0  0  0  0  0  0  # atno 17371 bound_to 10713
  141.1618  133.8778  157.1826 LP  0  0  0  0  0  0  0  0  0  0  0  0  # atno 17394 bound_to 11000
  139.9941  135.0053  157.0042 LP  0  0  0  0  0  0  0  0  0  0  0  0  # atno 17395 bound_to 11000

$$$$
