AV-unprocessed.smi:2618|AV-procd|sdf|10219|dock10
  -GOLD-   2272014223D 1   1.00000     0.00000
 Structure written by MMmdl.
 39 40  0  0  0  0  0  0  0  0  1 V2000
  149.8884  135.2300  155.7860 C   0  0  0  0  0  0  0  0  0  0  0  0
  150.0722  136.5051  155.1972 O   0  0  0  0  0  0  0  0  0  0  0  0
  151.3822  137.0144  155.3956 C   0  0  0  0  0  0  0  0  0  0  0  0
  151.5638  138.3137  154.5882 C   0  0  0  0  0  0  0  0  0  0  0  0
  151.2635  139.5716  155.3675 C   0  0  0  0  0  0  0  0  0  0  0  0
  151.9112  139.9572  156.4046 N   0  0  0  0  0  0  0  0  0  0  0  0
  151.4224  141.1039  156.8759 N   0  0  0  0  0  0  0  0  0  0  0  0
  151.9899  141.7867  157.9583 C   0  0  0  0  0  0  0  0  0  0  0  0
  152.7219  141.0850  158.8328 N   0  0  0  0  0  0  0  0  0  0  0  0
  153.2624  141.7484  159.8772 C   0  0  0  0  0  0  0  0  0  0  0  0
  154.0883  140.9304  160.8468 C   0  0  0  0  0  0  0  0  0  0  0  0
  153.0654  143.1317  160.0596 C   0  0  0  0  0  0  0  0  0  0  0  0
  152.2749  143.7757  159.0868 C   0  0  0  0  0  0  0  0  0  0  0  0
  151.9785  145.2583  159.1590 C   0  0  0  0  0  0  0  0  0  0  0  0
  151.7430  143.1027  158.0438 N   0  0  0  0  0  0  0  0  0  0  0  0
  150.2255  141.5278  156.1340 C   0  0  2  0  0  0  0  0  0  0  0  0
  150.2896  142.8175  155.5468 O   0  0  0  0  0  0  0  0  0  0  0  0
  148.9283  141.4352  156.9869 C   0  0  0  0  0  0  0  0  0  0  0  0
  148.7624  140.1912  157.4399 F   0  0  0  0  0  0  0  0  0  0  0  0
  148.9538  142.2540  158.0374 F   0  0  0  0  0  0  0  0  0  0  0  0
  147.8669  141.7455  156.2406 F   0  0  0  0  0  0  0  0  0  0  0  0
  150.1912  140.5223  154.9751 C   0  0  0  0  0  0  0  0  0  0  0  0
  148.8731  134.8823  155.5960 H   0  0  0  0  0  0  0  0  0  0  0  0
  150.0329  135.2713  156.8665 H   0  0  0  0  0  0  0  0  0  0  0  0
  150.5799  134.4980  155.3668 H   0  0  0  0  0  0  0  0  0  0  0  0
  151.5776  137.1859  156.4558 H   0  0  0  0  0  0  0  0  0  0  0  0
  152.1072  136.2733  155.0557 H   0  0  0  0  0  0  0  0  0  0  0  0
  152.5887  138.3669  154.2206 H   0  0  0  0  0  0  0  0  0  0  0  0
  150.9256  138.2759  153.7049 H   0  0  0  0  0  0  0  0  0  0  0  0
  154.6600  141.5742  161.5158 H   0  0  0  0  0  0  0  0  0  0  0  0
  154.7896  140.2919  160.3086 H   0  0  0  0  0  0  0  0  0  0  0  0
  153.4402  140.2962  161.4520 H   0  0  0  0  0  0  0  0  0  0  0  0
  153.4934  143.6655  160.8956 H   0  0  0  0  0  0  0  0  0  0  0  0
  152.4245  145.7071  160.0470 H   0  0  0  0  0  0  0  0  0  0  0  0
  150.9023  145.4288  159.1953 H   0  0  0  0  0  0  0  0  0  0  0  0
  152.3784  145.7673  158.2816 H   0  0  0  0  0  0  0  0  0  0  0  0
  149.5629  143.3285  155.8685 H   0  0  0  0  0  0  0  0  0  0  0  0
  150.4322  140.9726  154.0108 H   0  0  0  0  0  0  0  0  0  0  0  0
  149.2314  140.0135  154.8814 H   0  0  0  0  0  0  0  0  0  0  0  0
  1  2  1  0  0  0  0
  1 23  1  0  0  0  0
  1 24  1  0  0  0  0
  1 25  1  0  0  0  0
  2  3  1  0  0  0  0
  3  4  1  0  0  0  0
  3 26  1  0  0  0  0
  3 27  1  0  0  0  0
  4  5  1  0  0  0  0
  4 28  1  0  0  0  0
  4 29  1  0  0  0  0
  5 22  1  0  0  0  0
  5  6  2  0  0  0  0
  6  7  1  0  0  0  0
  7  8  1  0  0  0  0
  7 16  1  0  0  0  0
  8 15  1  0  0  0  0
  8  9  2  0  0  0  0
  9 10  1  0  0  0  0
 10 11  1  0  0  0  0
 10 12  2  0  0  0  0
 11 30  1  0  0  0  0
 11 31  1  0  0  0  0
 11 32  1  0  0  0  0
 12 13  1  0  0  0  0
 12 33  1  0  0  0  0
 13 14  1  0  0  0  0
 13 15  2  0  0  0  0
 14 34  1  0  0  0  0
 14 35  1  0  0  0  0
 14 36  1  0  0  0  0
 16 17  1  0  0  0  0
 16 18  1  0  0  0  0
 16 22  1  0  0  0  0
 17 37  1  0  0  0  0
 18 19  1  0  0  0  0
 18 20  1  0  0  0  0
 18 21  1  0  0  0  0
 22 38  1  0  0  0  0
 22 39  1  0  0  0  0
M  END
> <s_m_source_file>
AV-unprocessed.smi

> <i_m_source_file_index>
2618

> <i_lp_mmshare_version>
43012

> <i_f3d_flags>
0

> <s_epik_input>
W0NIM11PW0NIMl1bQ0gyXUMoW0NIMl0xKT1OTihbQ0BAXTEoW09IXSlDKEYpKEYpRiljMm5jKFtDSDNdKVtjSF1jKG4yKVtDSDNd

> <s_epik_cmdline>
J2VwaWtfcHl0aG9uJywgJy1waCcsICc3LjAnLCAnLXRuJywgJzgnLCAnLW1hJywgJzIwMCcsICctbWV0YWxfYmluZGluZycsICctaW1hZScsICc8aW5maWxlLm1hZT4nLCAnLW9tYWUnLCAnPG91dGZpbGUubWFlPic=

> <r_lp_tautomer_probability>
1

> <r_epik_Ionization_Penalty>
0.0648608

> <r_epik_Ionization_Penalty_Charging>
0

> <r_epik_Ionization_Penalty_Neutral>
0.0648608

> <r_epik_State_Penalty>
0.0551477

> <r_epik_Charging_Adjusted_Penalty>
0.0551477

> <i_epik_Tot_Q>
0

> <i_epik_Tot_abs_Q>
0

> <r_epik_Metal_State_Penalty>
0.0550619

> <b_epik_Metal_Only>
0

> <s_epik_Chemistry_Notes>
This compound has an imine and may undergo hydrolysis.

> <s_lp_Force_Field>
OPLS_2005

> <r_lp_Energy>
16.3005

> <b_lp_Chiralities_Consistent>
1

> <s_lp_Variant>
AV-unprocessed.smi:2618-2

> <Gold.Version>
5.8.1

> <Gold.Id.Protein>
6NUR|6NUR_protein|mol2

> <Gold.PLP.Fitness>
43.2960

> <Gold.PLP.PLP>
-42.4871

> <Gold.PLP.part.hbond>
-0.0731

> <Gold.PLP.part.metal>
0.0000

> <Gold.PLP.part.buried>
-5.1341

> <Gold.PLP.part.nonpolar>
-36.8968

> <Gold.PLP.part.repulsive>
0.1982

> <Gold.PLP.ligand.clash>
0.0000

> <Gold.PLP.ligand.torsion>
0.5296

> <Gold.PLP.Chemscore.Hbond>
0.5920

> <Gold.PLP.Chemscore.CHOScore>
0.0000

> <Gold.PLP.Chemscore.Metal>
0.0000

> <Gold.Chemscore.Hbonds>
donor molecule, donor type, donor heavy atom, donor atom, acceptor molecule, acceptor atom, score
      L1  H    17    37       P1  8028  0.80

> <Gold.PLP.Chemscore.Internal.Correction>
0.0921

> <Gold.Rescore>
     Score         DG    S(hbond)    S(metal)    S(lipo)     H(rot)  DE(clash)    DE(int)     intcor
     12.36     -13.46       0.79        0.00      90.11       2.03       0.21       0.88       ----

> <Gold.Chemscore.Fitness>
12.3602

> <Gold.Chemscore.DG>
-13.4558

> <Gold.Chemscore.ZeroCoef>
-5.4800

> <Gold.Chemscore.Hbond>
0.7905

> <Gold.Chemscore.Metal>
0.0000

> <Gold.Chemscore.Lipo>
90.1081

> <Gold.Chemscore.Internal_Hbond>
0.0000

> <Gold.Chemscore.DEClash>
0.2122

> <Gold.Chemscore.DEInternal>
0.8834

> <Gold.Chemscore.Rot>
2.0340

> <Gold.Chemscore.Internal.Correction>
   9.000000E+99

> <Gold.Chemscore.Hbonds>
donor molecule, donor type, donor heavy atom, donor atom, acceptor molecule, acceptor atom, score
      L1  H    17    37       P1  8028  0.76

> <Gold.Chemscore.Hbond.Weighted>
-2.6403

> <Gold.Chemscore.Metal.Weighted>
-0.0000

> <Gold.Chemscore.Lipo.Weighted>
-10.5426

> <Gold.Chemscore.Internal_Hbond.Weighted>
0.0000

> <Gold.Chemscore.DEClash.Weighted>
0.2122

> <Gold.Chemscore.DEInternal.Weighted>
0.8834

> <Gold.Chemscore.Rot.Weighted>
5.2071

> <Gold.Chemscore.Internal.Correction.Weighted>
   9.000000E+99

> <Gold.Protein.RotatedTorsions>
[ 6907 6896 6895 6894 ] final   -8.36 input  -60.11 | X-H torsion
[ 7974 7965 7964 7962 ] final   54.86 input  175.53 | X-H torsion
[ 8008 7997 7996 7995 ] final  130.77 input   59.86 | X-H torsion
[ 10167 10162 10161 10158 ] final   33.14 input  -65.29 | X-H torsion
[ 10718 10713 10712 10709 ] final  154.33 input   66.30 | X-H torsion
[ 10763 10752 10751 10750 ] final -176.69 input  -60.55 | X-H torsion
[ 11005 11000 10999 10996 ] final  -29.39 input  -57.11 | X-H torsion

> <Gold.Protein.ActiveResidues>
 VAL166  LYS551  ARG553  GLY616  TRP617  ASP618  TYR619  PRO620  LYS621  CYS622 
 ASP623  PHE694  ASN695  SER759  ASP760  ASP761  ALA762  ILE779  LEU786  VAL792 
 PHE793  MET794  SER795  GLU796  ALA797  LYS798  CYS799  TRP800  GLU811  SER814 

> <Gold.Protein.RotatedAtoms>
  151.4349  135.1014  159.9652 H   0  0  0  0  0  0  0  0  0  0  0  0  # atno 6907 bound_to 6896
  152.4943  133.8582  159.7247 H   0  0  0  0  0  0  0  0  0  0  0  0  # atno 6908 bound_to 6896
  150.9129  133.6917  159.2878 H   0  0  0  0  0  0  0  0  0  0  0  0  # atno 6909 bound_to 6896
  145.9564  139.4019  143.0275 H   0  0  0  0  0  0  0  0  0  0  0  0  # atno 7974 bound_to 7965
  156.2960  140.2588  156.2817 H   0  0  0  0  0  0  0  0  0  0  0  0  # atno 8008 bound_to 7997
  154.9596  140.0393  157.2202 H   0  0  0  0  0  0  0  0  0  0  0  0  # atno 8009 bound_to 7997
  154.7959  140.2820  155.5961 H   0  0  0  0  0  0  0  0  0  0  0  0  # atno 8010 bound_to 7997
  140.4434  144.1154  150.6178 H   0  0  0  0  0  0  0  0  0  0  0  0  # atno 10167 bound_to 10162
  157.2330  131.0743  151.1841 H   0  0  0  0  0  0  0  0  0  0  0  0  # atno 10718 bound_to 10713
  154.5692  135.2826  155.0844 H   0  0  0  0  0  0  0  0  0  0  0  0  # atno 10763 bound_to 10752
  154.2223  135.6389  153.5152 H   0  0  0  0  0  0  0  0  0  0  0  0  # atno 10764 bound_to 10752
  153.0052  135.5517  154.6310 H   0  0  0  0  0  0  0  0  0  0  0  0  # atno 10765 bound_to 10752
  140.9292  133.7349  156.0911 H   0  0  0  0  0  0  0  0  0  0  0  0  # atno 11005 bound_to 11000
  145.8100  140.9730  143.0953 LP  0  0  0  0  0  0  0  0  0  0  0  0  # atno 17320 bound_to 7965
  144.6806  139.9909  143.7484 LP  0  0  0  0  0  0  0  0  0  0  0  0  # atno 17321 bound_to 7965
  140.4291  143.2576  151.9618 LP  0  0  0  0  0  0  0  0  0  0  0  0  # atno 17342 bound_to 10162
  139.4791  144.5760  151.8011 LP  0  0  0  0  0  0  0  0  0  0  0  0  # atno 17343 bound_to 10162
  157.3458  130.7056  149.6409 LP  0  0  0  0  0  0  0  0  0  0  0  0  # atno 17370 bound_to 10713
  155.9674  130.4267  150.4709 LP  0  0  0  0  0  0  0  0  0  0  0  0  # atno 17371 bound_to 10713
  140.7885  134.3644  157.5470 LP  0  0  0  0  0  0  0  0  0  0  0  0  # atno 17394 bound_to 11000
  139.8792  134.9126  156.3063 LP  0  0  0  0  0  0  0  0  0  0  0  0  # atno 17395 bound_to 11000

$$$$
