AV-unprocessed.smi:3301|AV-procd|sdf|12654|dock9
  -GOLD-   2272018593D 1   1.00000     0.00000
 Structure written by MMmdl.
 36 37  0  0  0  0  0  0  0  0  1 V2000
  145.4333  133.7833  153.4538 C   0  0  0  0  0  0  0  0  0  0  0  0
  146.5626  133.5334  152.4455 C   0  0  2  0  0  0  0  0  0  0  0  0
  146.3876  132.1756  151.7314 C   0  0  0  0  0  0  0  0  0  0  0  0
  145.5528  132.2665  150.5471 N   0  0  0  0  0  0  0  0  0  0  0  0
  144.2926  132.8420  150.4520 C   0  0  0  0  0  0  0  0  0  0  0  0
  143.8831  132.6794  149.1481 C   0  0  0  0  0  0  0  0  0  0  0  0
  144.8745  132.0216  148.4239 N   0  0  0  0  0  0  0  0  0  0  0  0
  145.8326  131.8125  149.3176 C   0  0  0  0  0  0  0  0  0  0  0  0
  147.8463  133.5923  153.1444 N   0  0  0  0  0  0  0  0  0  0  0  0
  148.3042  132.6801  154.0163 C   0  0  0  0  0  0  0  0  0  0  0  0
  147.6968  131.6461  154.2971 O   0  0  0  0  0  0  0  0  0  0  0  0
  149.6617  132.9800  154.6617 C   0  0  0  0  0  0  0  0  0  0  0  0
  150.1671  131.8460  155.4351 N   0  0  0  0  0  0  0  0  0  0  0  0
  150.2863  130.5279  154.8341 C   0  0  0  0  0  0  0  0  0  0  0  0
  150.5815  129.5821  156.0069 C   0  0  0  0  0  0  0  0  0  0  0  0
  150.9749  130.4848  157.1815 C   0  0  0  0  0  0  0  0  0  0  0  0
  150.5493  131.8673  156.7182 C   0  0  0  0  0  0  0  0  0  0  0  0
  150.5662  132.8531  157.4540 O   0  0  0  0  0  0  0  0  0  0  0  0
  144.4607  133.7814  152.9608 H   0  0  0  0  0  0  0  0  0  0  0  0
  145.5506  134.7506  153.9435 H   0  0  0  0  0  0  0  0  0  0  0  0
  145.4144  133.0166  154.2290 H   0  0  0  0  0  0  0  0  0  0  0  0
  146.5089  134.3297  151.7009 H   0  0  0  0  0  0  0  0  0  0  0  0
  147.3573  131.7647  151.4466 H   0  0  0  0  0  0  0  0  0  0  0  0
  145.9293  131.4526  152.4070 H   0  0  0  0  0  0  0  0  0  0  0  0
  143.7990  133.2958  151.2987 H   0  0  0  0  0  0  0  0  0  0  0  0
  142.9587  132.9832  148.6796 H   0  0  0  0  0  0  0  0  0  0  0  0
  146.7568  131.3091  149.0745 H   0  0  0  0  0  0  0  0  0  0  0  0
  148.4187  134.4060  152.9715 H   0  0  0  0  0  0  0  0  0  0  0  0
  150.3734  133.2344  153.8753 H   0  0  0  0  0  0  0  0  0  0  0  0
  149.5864  133.8563  155.3081 H   0  0  0  0  0  0  0  0  0  0  0  0
  149.3743  130.2454  154.3065 H   0  0  0  0  0  0  0  0  0  0  0  0
  151.1090  130.5327  154.1179 H   0  0  0  0  0  0  0  0  0  0  0  0
  149.6863  129.0133  156.2623 H   0  0  0  0  0  0  0  0  0  0  0  0
  151.3658  128.8657  155.7605 H   0  0  0  0  0  0  0  0  0  0  0  0
  150.4711  130.2018  158.1063 H   0  0  0  0  0  0  0  0  0  0  0  0
  152.0522  130.4740  157.3496 H   0  0  0  0  0  0  0  0  0  0  0  0
  1  2  1  0  0  0  0
  1 19  1  0  0  0  0
  1 20  1  0  0  0  0
  1 21  1  0  0  0  0
  2  3  1  0  0  0  0
  2  9  1  0  0  0  0
  2 22  1  0  0  0  0
  3  4  1  0  0  0  0
  3 23  1  0  0  0  0
  3 24  1  0  0  0  0
  4  8  1  0  0  0  0
  4  5  1  0  0  0  0
  5  6  2  0  0  0  0
  5 25  1  0  0  0  0
  6  7  1  0  0  0  0
  6 26  1  0  0  0  0
  7  8  2  0  0  0  0
  8 27  1  0  0  0  0
  9 10  1  0  0  0  0
  9 28  1  0  0  0  0
 10 11  2  0  0  0  0
 10 12  1  0  0  0  0
 12 13  1  0  0  0  0
 12 29  1  0  0  0  0
 12 30  1  0  0  0  0
 13 17  1  0  0  0  0
 13 14  1  0  0  0  0
 14 15  1  0  0  0  0
 14 31  1  0  0  0  0
 14 32  1  0  0  0  0
 15 16  1  0  0  0  0
 15 33  1  0  0  0  0
 15 34  1  0  0  0  0
 16 17  1  0  0  0  0
 16 35  1  0  0  0  0
 16 36  1  0  0  0  0
 17 18  2  0  0  0  0
M  END
> <s_m_source_file>
AV-unprocessed.smi

> <i_m_source_file_index>
3301

> <i_lp_mmshare_version>
43012

> <i_f3d_flags>
0

> <s_epik_input>
W2NIXTFuW2NIXVtjSF1uMVtDSDJdW0NAQEhdKFtDSDNdKVtOSF1DKD1PKVtDSDJdTjJbQ0gyXVtDSDJdW0NIMl1DMj1P

> <s_epik_cmdline>
J2VwaWtfcHl0aG9uJywgJy1waCcsICc3LjAnLCAnLXRuJywgJzgnLCAnLW1hJywgJzIwMCcsICctbWV0YWxfYmluZGluZycsICctaW1hZScsICc8aW5maWxlLm1hZT4nLCAnLW9tYWUnLCAnPG91dGZpbGUubWFlPic=

> <r_lp_tautomer_probability>
1

> <r_epik_Ionization_Penalty>
0.623868

> <r_epik_Ionization_Penalty_Charging>
0.623868

> <r_epik_Ionization_Penalty_Neutral>
4.45089e-08

> <r_epik_State_Penalty>
0.640129

> <r_epik_Charging_Adjusted_Penalty>
1.264

> <i_epik_Tot_Q>
0

> <i_epik_Tot_abs_Q>
0

> <r_epik_Metal_State_Penalty>
0.307431

> <b_epik_Metal_Only>
0

> <s_lp_Force_Field>
OPLS_2005

> <r_lp_Energy>
13.1823

> <b_lp_Chiralities_Consistent>
1

> <s_lp_Variant>
AV-unprocessed.smi:3301-3

> <Gold.Version>
5.8.1

> <Gold.Id.Protein>
6NUR|6NUR_protein|mol2

> <Gold.PLP.Fitness>
46.3177

> <Gold.PLP.PLP>
-35.8600

> <Gold.PLP.part.hbond>
-3.8139

> <Gold.PLP.part.metal>
0.0000

> <Gold.PLP.part.buried>
-5.4547

> <Gold.PLP.part.nonpolar>
-26.6996

> <Gold.PLP.part.repulsive>
0.6826

> <Gold.PLP.ligand.clash>
0.0000

> <Gold.PLP.ligand.torsion>
0.6047

> <Gold.PLP.Chemscore.Hbond>
1.8960

> <Gold.PLP.Chemscore.CHOScore>
1.9806

> <Gold.PLP.Chemscore.Metal>
0.0000

> <Gold.Chemscore.Hbonds>
donor molecule, donor type, donor heavy atom, donor atom, acceptor molecule, acceptor atom, score
      L1  H     9    28       P1  7948  0.68
      P1  H  6896  6908       L1    18  1.00
      L1  C     6    26       P1 10186  0.91
      L1  C     8    27       P1 10747  1.00

> <Gold.PLP.Chemscore.Internal.Correction>
0.0372

> <Gold.Rescore>
     Score         DG    S(hbond)    S(metal)    S(lipo)     H(rot)  DE(clash)    DE(int)     intcor
      9.68     -12.65       2.19        0.00      48.22       2.26       0.51       2.46       ----

> <Gold.Chemscore.Fitness>
9.6793

> <Gold.Chemscore.DG>
-12.6472

> <Gold.Chemscore.ZeroCoef>
-5.4800

> <Gold.Chemscore.Hbond>
2.1924

> <Gold.Chemscore.Metal>
0.0000

> <Gold.Chemscore.Lipo>
48.2233

> <Gold.Chemscore.Internal_Hbond>
0.0000

> <Gold.Chemscore.DEClash>
0.5086

> <Gold.Chemscore.DEInternal>
2.4593

> <Gold.Chemscore.Rot>
2.2647

> <Gold.Chemscore.Internal.Correction>
   9.000000E+99

> <Gold.Chemscore.Hbonds>
donor molecule, donor type, donor heavy atom, donor atom, acceptor molecule, acceptor atom, score
      L1  H     9    28       P1  7948  0.17
      P1  H  6896  6908       L1    18  0.99

> <Gold.Chemscore.Hbond.Weighted>
-7.3226

> <Gold.Chemscore.Metal.Weighted>
-0.0000

> <Gold.Chemscore.Lipo.Weighted>
-5.6421

> <Gold.Chemscore.Internal_Hbond.Weighted>
0.0000

> <Gold.Chemscore.DEClash.Weighted>
0.5086

> <Gold.Chemscore.DEInternal.Weighted>
2.4593

> <Gold.Chemscore.Rot.Weighted>
5.7975

> <Gold.Chemscore.Internal.Correction.Weighted>
   9.000000E+99

> <Gold.Protein.RotatedTorsions>
[ 6907 6896 6895 6894 ] final   96.95 input  -60.11 | X-H torsion
[ 7974 7965 7964 7962 ] final  -61.75 input  175.53 | X-H torsion
[ 8008 7997 7996 7995 ] final   21.45 input   59.86 | X-H torsion
[ 10167 10162 10161 10158 ] final    0.81 input  -65.29 | X-H torsion
[ 10718 10713 10712 10709 ] final   59.16 input   66.30 | X-H torsion
[ 10763 10752 10751 10750 ] final   98.92 input  -60.55 | X-H torsion
[ 11005 11000 10999 10996 ] final -161.99 input  -57.11 | X-H torsion

> <Gold.Protein.ActiveResidues>
 VAL166  LYS551  ARG553  GLY616  TRP617  ASP618  TYR619  PRO620  LYS621  CYS622 
 ASP623  PHE694  ASN695  SER759  ASP760  ASP761  ALA762  ILE779  LEU786  VAL792 
 PHE793  MET794  SER795  GLU796  ALA797  LYS798  CYS799  TRP800  GLU811  SER814 

> <Gold.Protein.RotatedAtoms>
  152.5429  134.0807  159.8234 H   0  0  0  0  0  0  0  0  0  0  0  0  # atno 6907 bound_to 6896
  151.0909  133.5309  159.2622 H   0  0  0  0  0  0  0  0  0  0  0  0  # atno 6908 bound_to 6896
  151.2100  135.0486  159.8961 H   0  0  0  0  0  0  0  0  0  0  0  0  # atno 6909 bound_to 6896
  145.7996  140.8662  143.0238 H   0  0  0  0  0  0  0  0  0  0  0  0  # atno 7974 bound_to 7965
  154.9508  140.3065  155.5076 H   0  0  0  0  0  0  0  0  0  0  0  0  # atno 8008 bound_to 7997
  156.2987  140.2319  156.4523 H   0  0  0  0  0  0  0  0  0  0  0  0  # atno 8009 bound_to 7997
  154.8057  140.0431  157.1294 H   0  0  0  0  0  0  0  0  0  0  0  0  # atno 8010 bound_to 7997
  140.6711  143.7044  150.7926 H   0  0  0  0  0  0  0  0  0  0  0  0  # atno 10167 bound_to 10162
  157.5653  130.8866  149.9177 H   0  0  0  0  0  0  0  0  0  0  0  0  # atno 10718 bound_to 10713
  153.2950  135.4131  155.1201 H   0  0  0  0  0  0  0  0  0  0  0  0  # atno 10763 bound_to 10752
  154.8532  135.3527  154.5930 H   0  0  0  0  0  0  0  0  0  0  0  0  # atno 10764 bound_to 10752
  153.6353  135.7059  153.5319 H   0  0  0  0  0  0  0  0  0  0  0  0  # atno 10765 bound_to 10752
  140.6142  134.4818  157.5218 H   0  0  0  0  0  0  0  0  0  0  0  0  # atno 11005 bound_to 11000
  144.6770  140.0240  143.7483 LP  0  0  0  0  0  0  0  0  0  0  0  0  # atno 17320 bound_to 7965
  145.9891  139.3001  143.0995 LP  0  0  0  0  0  0  0  0  0  0  0  0  # atno 17321 bound_to 7965
  140.0730  143.5042  152.2570 LP  0  0  0  0  0  0  0  0  0  0  0  0  # atno 17342 bound_to 10162
  139.5981  144.7573  151.3238 LP  0  0  0  0  0  0  0  0  0  0  0  0  # atno 17343 bound_to 10162
  156.0702  130.3686  150.0792 LP  0  0  0  0  0  0  0  0  0  0  0  0  # atno 17370 bound_to 10713
  156.8951  130.9601  151.3583 LP  0  0  0  0  0  0  0  0  0  0  0  0  # atno 17371 bound_to 10713
  139.9179  134.8207  156.1304 LP  0  0  0  0  0  0  0  0  0  0  0  0  # atno 17394 bound_to 11000
  141.0787  133.6764  156.2290 LP  0  0  0  0  0  0  0  0  0  0  0  0  # atno 17395 bound_to 11000

$$$$
