AV-unprocessed.smi:2751|AV-procd|sdf|10596|dock6
  -GOLD-   2272015 43D 1   1.00000     0.00000
 Structure written by MMmdl.
 34 35  0  0  0  0  0  0  0  0  1 V2000
  151.1010  140.9638  155.5702 O   0  0  0  0  0  0  0  0  0  0  0  0
  150.3035  141.8898  155.7216 C   0  0  0  0  0  0  0  0  0  0  0  0
  150.5450  142.9547  156.4999 N   0  0  0  0  0  0  0  0  0  0  0  0
  151.7599  143.1621  157.2798 C   0  0  0  0  0  0  0  0  0  0  0  0
  151.4845  144.0035  158.5379 C   0  0  0  0  0  0  0  0  0  0  0  0
  152.4664  143.7091  159.6829 C   0  0  1  0  0  0  0  0  0  0  0  0
  151.8867  144.1099  161.0539 C   0  0  0  0  0  0  0  0  0  0  0  0
  152.8552  143.7323  162.1802 C   0  0  0  0  0  0  0  0  0  0  0  0
  153.2269  142.2505  162.0661 C   0  0  0  0  0  0  0  0  0  0  0  0
  153.7331  141.9347  160.6499 C   0  0  0  0  0  0  0  0  0  0  0  0
  152.7521  142.3113  159.6880 O   0  0  0  0  0  0  0  0  0  0  0  0
  149.0927  141.9703  155.1447 N   0  0  0  0  0  0  0  0  0  0  0  0
  148.4885  141.0304  154.2720 C   0  0  0  0  0  0  0  0  0  0  0  0
  148.8931  139.7790  154.0480 N   0  0  0  0  0  0  0  0  0  0  0  0
  147.9831  139.2761  153.1294 C   0  0  0  0  0  0  0  0  0  0  0  0
  147.0717  140.2611  152.8473 C   0  0  0  0  0  0  0  0  0  0  0  0
  147.3810  141.3840  153.5674 O   0  0  0  0  0  0  0  0  0  0  0  0
  149.8348  143.6692  156.5663 H   0  0  0  0  0  0  0  0  0  0  0  0
  152.2024  142.2008  157.5468 H   0  0  0  0  0  0  0  0  0  0  0  0
  152.4857  143.6709  156.6449 H   0  0  0  0  0  0  0  0  0  0  0  0
  151.5482  145.0603  158.2757 H   0  0  0  0  0  0  0  0  0  0  0  0
  150.4638  143.8344  158.8838 H   0  0  0  0  0  0  0  0  0  0  0  0
  153.3897  144.2642  159.5061 H   0  0  0  0  0  0  0  0  0  0  0  0
  151.6848  145.1811  161.0819 H   0  0  0  0  0  0  0  0  0  0  0  0
  150.9309  143.6078  161.2108 H   0  0  0  0  0  0  0  0  0  0  0  0
  153.7558  144.3435  162.1099 H   0  0  0  0  0  0  0  0  0  0  0  0
  152.4088  143.9404  163.1528 H   0  0  0  0  0  0  0  0  0  0  0  0
  153.9857  141.9929  162.8056 H   0  0  0  0  0  0  0  0  0  0  0  0
  152.3533  141.6352  162.2851 H   0  0  0  0  0  0  0  0  0  0  0  0
  154.6734  142.4504  160.4480 H   0  0  0  0  0  0  0  0  0  0  0  0
  153.9295  140.8667  160.5527 H   0  0  0  0  0  0  0  0  0  0  0  0
  148.5396  142.7870  155.3581 H   0  0  0  0  0  0  0  0  0  0  0  0
  148.0540  138.2665  152.7525 H   0  0  0  0  0  0  0  0  0  0  0  0
  146.2061  140.3196  152.2040 H   0  0  0  0  0  0  0  0  0  0  0  0
  1  2  2  0  0  0  0
  2  3  1  0  0  0  0
  2 12  1  0  0  0  0
  3  4  1  0  0  0  0
  3 18  1  0  0  0  0
  4  5  1  0  0  0  0
  4 19  1  0  0  0  0
  4 20  1  0  0  0  0
  5  6  1  0  0  0  0
  5 21  1  0  0  0  0
  5 22  1  0  0  0  0
  6 11  1  0  0  0  0
  6  7  1  0  0  0  0
  6 23  1  0  0  0  0
  7  8  1  0  0  0  0
  7 24  1  0  0  0  0
  7 25  1  0  0  0  0
  8  9  1  0  0  0  0
  8 26  1  0  0  0  0
  8 27  1  0  0  0  0
  9 10  1  0  0  0  0
  9 28  1  0  0  0  0
  9 29  1  0  0  0  0
 10 11  1  0  0  0  0
 10 30  1  0  0  0  0
 10 31  1  0  0  0  0
 12 13  1  0  0  0  0
 12 32  1  0  0  0  0
 13 17  1  0  0  0  0
 13 14  2  0  0  0  0
 14 15  1  0  0  0  0
 15 16  2  0  0  0  0
 15 33  1  0  0  0  0
 16 17  1  0  0  0  0
 16 34  1  0  0  0  0
M  END
> <s_m_source_file>
AV-unprocessed.smi

> <i_m_source_file_index>
2751

> <i_lp_mmshare_version>
43012

> <i_f3d_flags>
0

> <s_epik_input>
bzFbY0hdW2NIXW5jMVtOSF1DKD1PKVtOSF1bQ0gyXVtDSDJdW0NAQEhdMltDSDJdW0NIMl1bQ0gyXVtDSDJdTzI=

> <s_epik_cmdline>
J2VwaWtfcHl0aG9uJywgJy1waCcsICc3LjAnLCAnLXRuJywgJzgnLCAnLW1hJywgJzIwMCcsICctbWV0YWxfYmluZGluZycsICctaW1hZScsICc8aW5maWxlLm1hZT4nLCAnLW9tYWUnLCAnPG91dGZpbGUubWFlPic=

> <r_lp_tautomer_probability>
0.785861

> <r_epik_Ionization_Penalty>
4.88827e-05

> <r_epik_Ionization_Penalty_Charging>
0

> <r_epik_Ionization_Penalty_Neutral>
4.88827e-05

> <r_epik_State_Penalty>
0.0434822

> <r_epik_Charging_Adjusted_Penalty>
0.0434822

> <i_epik_Tot_Q>
0

> <i_epik_Tot_abs_Q>
0

> <r_epik_Metal_State_Penalty>
0.0598982

> <b_epik_Metal_Only>
0

> <s_lp_Force_Field>
OPLS_2005

> <r_lp_Energy>
7.8545

> <b_lp_Chiralities_Consistent>
1

> <s_lp_Variant>
AV-unprocessed.smi:2751-2

> <Gold.Version>
5.8.1

> <Gold.Id.Protein>
6NUR|6NUR_protein|mol2

> <Gold.PLP.Fitness>
47.9569

> <Gold.PLP.PLP>
-36.6904

> <Gold.PLP.part.hbond>
-2.8536

> <Gold.PLP.part.metal>
0.0000

> <Gold.PLP.part.buried>
-3.1562

> <Gold.PLP.part.nonpolar>
-29.9871

> <Gold.PLP.part.repulsive>
0.6232

> <Gold.PLP.ligand.clash>
0.0000

> <Gold.PLP.ligand.torsion>
0.6168

> <Gold.PLP.Chemscore.Hbond>
2.1662

> <Gold.PLP.Chemscore.CHOScore>
2.0000

> <Gold.PLP.Chemscore.Metal>
0.0000

> <Gold.Chemscore.Hbonds>
donor molecule, donor type, donor heavy atom, donor atom, acceptor molecule, acceptor atom, score
      L1  H     3    18       P1  8028  0.88
      L1  H    12    32       P1  8028  0.75
      P1  H  7989  7998       L1     1  0.53
      L1  C    15    33       P1  7948  1.00
      L1  C    16    34       P1 10175  1.00

> <Gold.PLP.Chemscore.Internal.Correction>
0.0017

> <Gold.Rescore>
     Score         DG    S(hbond)    S(metal)    S(lipo)     H(rot)  DE(clash)    DE(int)     intcor
     16.06     -18.51       1.80        0.00      95.65       1.63       0.49       1.95       ----

> <Gold.Chemscore.Fitness>
16.0617

> <Gold.Chemscore.DG>
-18.5069

> <Gold.Chemscore.ZeroCoef>
-5.4800

> <Gold.Chemscore.Hbond>
1.8013

> <Gold.Chemscore.Metal>
0.0000

> <Gold.Chemscore.Lipo>
95.6467

> <Gold.Chemscore.Internal_Hbond>
0.0000

> <Gold.Chemscore.DEClash>
0.4907

> <Gold.Chemscore.DEInternal>
1.9546

> <Gold.Chemscore.Rot>
1.6328

> <Gold.Chemscore.Internal.Correction>
   9.000000E+99

> <Gold.Chemscore.Hbonds>
donor molecule, donor type, donor heavy atom, donor atom, acceptor molecule, acceptor atom, score
      L1  H     3    18       P1  8028  0.86
      L1  H    12    32       P1  8028  0.72
      P1  H  7989  7998       L1     1  0.33

> <Gold.Chemscore.Hbond.Weighted>
-6.0162

> <Gold.Chemscore.Metal.Weighted>
-0.0000

> <Gold.Chemscore.Lipo.Weighted>
-11.1907

> <Gold.Chemscore.Internal_Hbond.Weighted>
0.0000

> <Gold.Chemscore.DEClash.Weighted>
0.4907

> <Gold.Chemscore.DEInternal.Weighted>
1.9546

> <Gold.Chemscore.Rot.Weighted>
4.1799

> <Gold.Chemscore.Internal.Correction.Weighted>
   9.000000E+99

> <Gold.Protein.RotatedTorsions>
[ 6907 6896 6895 6894 ] final   48.48 input  -60.11 | X-H torsion
[ 7974 7965 7964 7962 ] final -141.21 input  175.53 | X-H torsion
[ 8008 7997 7996 7995 ] final   89.72 input   59.86 | X-H torsion
[ 10167 10162 10161 10158 ] final -154.97 input  -65.29 | X-H torsion
[ 10718 10713 10712 10709 ] final -165.05 input   66.30 | X-H torsion
[ 10763 10752 10751 10750 ] final -158.17 input  -60.55 | X-H torsion
[ 11005 11000 10999 10996 ] final  -66.29 input  -57.11 | X-H torsion

> <Gold.Protein.ActiveResidues>
 VAL166  LYS551  ARG553  GLY616  TRP617  ASP618  TYR619  PRO620  LYS621  CYS622 
 ASP623  PHE694  ASN695  SER759  ASP760  ASP761  ALA762  ILE779  LEU786  VAL792 
 PHE793  MET794  SER795  GLU796  ALA797  LYS798  CYS799  TRP800  GLU811  SER814 

> <Gold.Protein.RotatedAtoms>
  152.2799  134.7839  160.0398 H   0  0  0  0  0  0  0  0  0  0  0  0  # atno 6907 bound_to 6896
  151.8422  133.3420  159.3655 H   0  0  0  0  0  0  0  0  0  0  0  0  # atno 6908 bound_to 6896
  150.7185  134.5308  159.5744 H   0  0  0  0  0  0  0  0  0  0  0  0  # atno 6909 bound_to 6896
  144.8537  140.6107  143.5373 H   0  0  0  0  0  0  0  0  0  0  0  0  # atno 7974 bound_to 7965
  156.0034  140.3357  155.6868 H   0  0  0  0  0  0  0  0  0  0  0  0  # atno 8008 bound_to 7997
  155.6259  140.0680  157.2682 H   0  0  0  0  0  0  0  0  0  0  0  0  # atno 8009 bound_to 7997
  154.4257  140.1768  156.1408 H   0  0  0  0  0  0  0  0  0  0  0  0  # atno 8010 bound_to 7997
  139.6969  143.9327  152.2411 H   0  0  0  0  0  0  0  0  0  0  0  0  # atno 10167 bound_to 10162
  156.6478  130.8995  151.3008 H   0  0  0  0  0  0  0  0  0  0  0  0  # atno 10718 bound_to 10713
  154.7578  135.3109  154.8437 H   0  0  0  0  0  0  0  0  0  0  0  0  # atno 10763 bound_to 10752
  153.9206  135.6796  153.4752 H   0  0  0  0  0  0  0  0  0  0  0  0  # atno 10764 bound_to 10752
  153.1176  135.4837  154.9072 H   0  0  0  0  0  0  0  0  0  0  0  0  # atno 10765 bound_to 10752
  141.1478  133.6697  156.6117 H   0  0  0  0  0  0  0  0  0  0  0  0  # atno 11005 bound_to 11000
  145.4449  139.1531  143.3950 LP  0  0  0  0  0  0  0  0  0  0  0  0  # atno 17320 bound_to 7965
  146.2806  140.4572  142.8778 LP  0  0  0  0  0  0  0  0  0  0  0  0  # atno 17321 bound_to 7965
  139.9158  144.6829  150.8513 LP  0  0  0  0  0  0  0  0  0  0  0  0  # atno 17342 bound_to 10162
  140.7699  143.3410  151.2208 LP  0  0  0  0  0  0  0  0  0  0  0  0  # atno 17343 bound_to 10162
  157.7150  130.9487  150.1225 LP  0  0  0  0  0  0  0  0  0  0  0  0  # atno 17370 bound_to 10713
  156.2108  130.3666  149.8673 LP  0  0  0  0  0  0  0  0  0  0  0  0  # atno 17371 bound_to 10713
  140.3609  134.7688  157.4533 LP  0  0  0  0  0  0  0  0  0  0  0  0  # atno 17394 bound_to 11000
  140.0786  134.5763  155.8565 LP  0  0  0  0  0  0  0  0  0  0  0  0  # atno 17395 bound_to 11000

$$$$
