AV-unprocessed.smi:241|AV-procd|sdf|1842|dock7
  -GOLD-   2262020463D 1   1.00000     0.00000
 Structure written by MMmdl.
 54 57  0  0  0  0  0  0  0  0  1 V2000
  150.8917  140.5460  155.8335 C   0  0  0  0  0  0  0  0  0  0  0  0
  150.7205  139.8002  154.6393 O   0  0  0  0  0  0  0  0  0  0  0  0
  149.6014  138.9256  154.6613 C   0  0  0  0  0  0  0  0  0  0  0  0
  148.3395  139.6339  154.1315 C   0  0  2  0  0  0  0  0  0  0  0  0
  148.3702  141.1593  154.2167 C   0  0  0  0  0  0  0  0  0  0  0  0
  146.8927  141.5129  154.0770 C   0  0  2  0  0  0  0  0  0  0  0  0
  146.6216  142.7894  154.6370 O   0  0  0  0  0  0  0  0  0  0  0  0
  145.3078  143.2531  154.3715 C   0  0  0  0  0  0  0  0  0  0  0  0
  146.1867  140.3628  154.8113 C   0  0  0  0  0  0  0  0  0  0  0  0
  147.1405  139.2594  154.8758 N   0  0  0  0  0  0  0  0  0  0  0  0
  146.6188  138.0458  154.5917 C   0  0  0  0  0  0  0  0  0  0  0  0
  146.3650  137.1591  155.5902 N   0  0  0  0  0  0  0  0  0  0  0  0
  145.8476  135.9611  155.3009 C   0  0  0  0  0  0  0  0  0  0  0  0
  145.5221  135.4579  154.1077 N   0  0  0  0  0  0  0  0  0  0  0  0
  145.7826  136.3467  153.1058 C   0  0  0  0  0  0  0  0  0  0  0  0
  146.3218  137.6537  153.2612 C   0  0  0  0  0  0  0  0  0  0  0  0
  146.4319  138.2765  152.0251 N   0  0  0  0  0  0  0  0  0  0  0  0
  145.9770  137.3879  151.1839 C   0  0  0  0  0  0  0  0  0  0  0  0
  145.5926  136.1894  151.7443 N   0  0  0  0  0  0  0  0  0  0  0  0
  145.0274  135.0613  151.0642 C   0  0  0  0  0  0  0  0  0  0  0  0
  144.3104  133.9535  151.8377 C   0  0  0  0  0  0  0  0  0  0  0  0
  144.7868  132.9237  150.7869 C   0  0  0  0  0  0  0  0  0  0  0  0
  145.2828  131.5727  151.3309 C   0  0  0  0  0  0  0  0  0  0  0  0
  146.0040  131.7169  152.5373 O   0  0  0  0  0  0  0  0  0  0  0  0
  143.8457  132.6741  149.5895 C   0  0  0  0  0  0  0  0  0  0  0  0
  144.5599  132.4638  148.3890 O   0  0  0  0  0  0  0  0  0  0  0  0
  145.9098  133.9454  150.4984 C   0  0  0  0  0  0  0  0  0  0  0  0
  148.2049  139.3571  153.0846 H   0  0  0  0  0  0  0  0  0  0  0  0
  146.6303  141.4921  153.0174 H   0  0  0  0  0  0  0  0  0  0  0  0
  151.7562  141.2020  155.7329 H   0  0  0  0  0  0  0  0  0  0  0  0
  151.0711  139.8859  156.6831 H   0  0  0  0  0  0  0  0  0  0  0  0
  150.0237  141.1668  156.0527 H   0  0  0  0  0  0  0  0  0  0  0  0
  149.8472  138.0925  154.0023 H   0  0  0  0  0  0  0  0  0  0  0  0
  149.4310  138.4908  155.6480 H   0  0  0  0  0  0  0  0  0  0  0  0
  148.7430  141.4777  155.1917 H   0  0  0  0  0  0  0  0  0  0  0  0
  148.9881  141.6187  153.4448 H   0  0  0  0  0  0  0  0  0  0  0  0
  145.1725  144.2390  154.8158 H   0  0  0  0  0  0  0  0  0  0  0  0
  144.5542  142.5898  154.7972 H   0  0  0  0  0  0  0  0  0  0  0  0
  145.1302  143.3416  153.2992 H   0  0  0  0  0  0  0  0  0  0  0  0
  145.9530  140.6545  155.8357 H   0  0  0  0  0  0  0  0  0  0  0  0
  145.2475  140.0969  154.3238 H   0  0  0  0  0  0  0  0  0  0  0  0
  145.6709  135.3119  156.1458 H   0  0  0  0  0  0  0  0  0  0  0  0
  145.9157  137.5835  150.1232 H   0  0  0  0  0  0  0  0  0  0  0  0
  144.3770  135.4719  150.2901 H   0  0  0  0  0  0  0  0  0  0  0  0
  144.7458  133.7853  152.8246 H   0  0  0  0  0  0  0  0  0  0  0  0
  143.2301  134.0820  151.9082 H   0  0  0  0  0  0  0  0  0  0  0  0
  144.4527  130.8849  151.4956 H   0  0  0  0  0  0  0  0  0  0  0  0
  145.9442  131.0868  150.6128 H   0  0  0  0  0  0  0  0  0  0  0  0
  146.7362  131.1195  152.5233 H   0  0  0  0  0  0  0  0  0  0  0  0
  143.2184  131.7978  149.7546 H   0  0  0  0  0  0  0  0  0  0  0  0
  143.1620  133.5113  149.4464 H   0  0  0  0  0  0  0  0  0  0  0  0
  145.0785  133.2348  148.2130 H   0  0  0  0  0  0  0  0  0  0  0  0
  146.1660  134.0637  149.4450 H   0  0  0  0  0  0  0  0  0  0  0  0
  146.8056  133.7779  151.0994 H   0  0  0  0  0  0  0  0  0  0  0  0
  1  2  1  0  0  0  0
  1 30  1  0  0  0  0
  1 31  1  0  0  0  0
  1 32  1  0  0  0  0
  2  3  1  0  0  0  0
  3  4  1  0  0  0  0
  3 33  1  0  0  0  0
  3 34  1  0  0  0  0
  4 28  1  0  0  0  0
  4 10  1  0  0  0  0
  4  5  1  0  0  0  0
  5  6  1  0  0  0  0
  5 35  1  0  0  0  0
  5 36  1  0  0  0  0
  6 29  1  0  0  0  0
  6  7  1  0  0  0  0
  6  9  1  0  0  0  0
  7  8  1  0  0  0  0
  8 37  1  0  0  0  0
  8 38  1  0  0  0  0
  8 39  1  0  0  0  0
  9 10  1  0  0  0  0
  9 40  1  0  0  0  0
  9 41  1  0  0  0  0
 10 11  1  0  0  0  0
 11 16  1  0  0  0  0
 11 12  2  0  0  0  0
 12 13  1  0  0  0  0
 13 14  2  0  0  0  0
 13 42  1  0  0  0  0
 14 15  1  0  0  0  0
 15 19  1  0  0  0  0
 15 16  2  0  0  0  0
 16 17  1  0  0  0  0
 17 18  2  0  0  0  0
 18 19  1  0  0  0  0
 18 43  1  0  0  0  0
 19 20  1  0  0  0  0
 20 27  1  0  0  0  0
 20 21  1  0  0  0  0
 20 44  1  0  0  0  0
 21 22  1  0  0  0  0
 21 45  1  0  0  0  0
 21 46  1  0  0  0  0
 22 23  1  0  0  0  0
 22 25  1  0  0  0  0
 22 27  1  0  0  0  0
 23 24  1  0  0  0  0
 23 47  1  0  0  0  0
 23 48  1  0  0  0  0
 24 49  1  0  0  0  0
 25 26  1  0  0  0  0
 25 50  1  0  0  0  0
 25 51  1  0  0  0  0
 26 52  1  0  0  0  0
 27 53  1  0  0  0  0
 27 54  1  0  0  0  0
M  END
> <s_m_source_file>
AV-unprocessed.smi

> <i_m_source_file_index>
241

> <i_lp_mmshare_version>
43012

> <i_f3d_flags>
0

> <s_epik_input>
W0NIM11PW0NIMl1bQ0BASF0xW0NIMl1bQ0BASF0oT1tDSDNdKVtDSDJdTjFjKG5bY0hdbjIpYyhjMjMpbltjSF1uM1tDSF0oW0NIMl00KVtDSDJdQzQoW0NIMl1bT0hdKVtDSDJdW09IXQ==

> <s_epik_cmdline>
J2VwaWtfcHl0aG9uJywgJy1waCcsICc3LjAnLCAnLXRuJywgJzgnLCAnLW1hJywgJzIwMCcsICctbWV0YWxfYmluZGluZycsICctaW1hZScsICc8aW5maWxlLm1hZT4nLCAnLW9tYWUnLCAnPG91dGZpbGUubWFlPic=

> <r_lp_tautomer_probability>
1

> <r_epik_Ionization_Penalty>
0.00568677

> <r_epik_Ionization_Penalty_Charging>
0

> <r_epik_Ionization_Penalty_Neutral>
0.00568677

> <r_epik_State_Penalty>
0.00400877

> <r_epik_Charging_Adjusted_Penalty>
0.00400877

> <i_epik_Tot_Q>
0

> <i_epik_Tot_abs_Q>
0

> <r_epik_Metal_State_Penalty>
-0

> <b_epik_Metal_Only>
0

> <s_lp_Force_Field>
OPLS_2005

> <r_lp_Energy>
58.6567

> <b_lp_Chiralities_Consistent>
1

> <s_lp_Variant>
AV-unprocessed.smi:241-3

> <Gold.Version>
5.8.1

> <Gold.Id.Protein>
6NUR|6NUR_protein|mol2

> <Gold.PLP.Fitness>
46.1580

> <Gold.PLP.PLP>
-42.3339

> <Gold.PLP.part.hbond>
-3.2153

> <Gold.PLP.part.metal>
0.0000

> <Gold.PLP.part.buried>
-4.9096

> <Gold.PLP.part.nonpolar>
-37.3875

> <Gold.PLP.part.repulsive>
1.2127

> <Gold.PLP.ligand.clash>
0.0000

> <Gold.PLP.ligand.torsion>
2.1086

> <Gold.PLP.Chemscore.Hbond>
2.0000

> <Gold.PLP.Chemscore.CHOScore>
0.4392

> <Gold.PLP.Chemscore.Metal>
0.0000

> <Gold.Chemscore.Hbonds>
donor molecule, donor type, donor heavy atom, donor atom, acceptor molecule, acceptor atom, score
      L1  H    26    52       P1  7921  1.00
      P1  H  7989  7998       L1     2  0.95
      L1  C    18    43       P1 10171  0.53

> <Gold.PLP.Chemscore.Internal.Correction>
0.7238

> <Gold.Rescore>
     Score         DG    S(hbond)    S(metal)    S(lipo)     H(rot)  DE(clash)    DE(int)     intcor
      5.11     -10.25       1.40        0.00      87.65       3.97       1.68       3.45       ----

> <Gold.Chemscore.Fitness>
5.1122

> <Gold.Chemscore.DG>
-10.2487

> <Gold.Chemscore.ZeroCoef>
-5.4800

> <Gold.Chemscore.Hbond>
1.4023

> <Gold.Chemscore.Metal>
0.0000

> <Gold.Chemscore.Lipo>
87.6521

> <Gold.Chemscore.Internal_Hbond>
0.0000

> <Gold.Chemscore.DEClash>
1.6844

> <Gold.Chemscore.DEInternal>
3.4521

> <Gold.Chemscore.Rot>
3.9727

> <Gold.Chemscore.Internal.Correction>
   9.000000E+99

> <Gold.Chemscore.Hbonds>
donor molecule, donor type, donor heavy atom, donor atom, acceptor molecule, acceptor atom, score
      L1  H    26    52       P1  7921  0.39
      P1  H  7989  7998       L1     2  0.22

> <Gold.Chemscore.Hbond.Weighted>
-4.6836

> <Gold.Chemscore.Metal.Weighted>
-0.0000

> <Gold.Chemscore.Lipo.Weighted>
-10.2553

> <Gold.Chemscore.Internal_Hbond.Weighted>
0.0000

> <Gold.Chemscore.DEClash.Weighted>
1.6844

> <Gold.Chemscore.DEInternal.Weighted>
3.4521

> <Gold.Chemscore.Rot.Weighted>
10.1702

> <Gold.Chemscore.Internal.Correction.Weighted>
   9.000000E+99

> <Gold.Protein.RotatedTorsions>
[ 6907 6896 6895 6894 ] final  -87.45 input  -60.11 | X-H torsion
[ 7974 7965 7964 7962 ] final   81.05 input  175.53 | X-H torsion
[ 8008 7997 7996 7995 ] final  -71.63 input   59.86 | X-H torsion
[ 10167 10162 10161 10158 ] final  138.44 input  -65.29 | X-H torsion
[ 10718 10713 10712 10709 ] final  -75.04 input   66.30 | X-H torsion
[ 10763 10752 10751 10750 ] final  166.10 input  -60.55 | X-H torsion
[ 11005 11000 10999 10996 ] final -170.65 input  -57.11 | X-H torsion

> <Gold.Protein.ActiveResidues>
 VAL166  LYS551  ARG553  GLY616  TRP617  ASP618  TYR619  PRO620  LYS621  CYS622 
 ASP623  PHE694  ASN695  SER759  ASP760  ASP761  ALA762  ILE779  LEU786  VAL792 
 PHE793  MET794  SER795  GLU796  ALA797  LYS798  CYS799  TRP800  GLU811  SER814 

> <Gold.Protein.RotatedAtoms>
  150.6866  134.2895  159.4660 H   0  0  0  0  0  0  0  0  0  0  0  0  # atno 6907 bound_to 6896
  152.0801  134.9474  160.0583 H   0  0  0  0  0  0  0  0  0  0  0  0  # atno 6908 bound_to 6896
  152.0830  133.4127  159.4546 H   0  0  0  0  0  0  0  0  0  0  0  0  # atno 6909 bound_to 6896
  145.6432  139.2430  143.2019 H   0  0  0  0  0  0  0  0  0  0  0  0  # atno 7974 bound_to 7965
  154.5103  140.0812  156.7975 H   0  0  0  0  0  0  0  0  0  0  0  0  # atno 8008 bound_to 7997
  155.3801  140.3427  155.4228 H   0  0  0  0  0  0  0  0  0  0  0  0  # atno 8009 bound_to 7997
  156.1564  140.1574  156.8672 H   0  0  0  0  0  0  0  0  0  0  0  0  # atno 8010 bound_to 7997
  139.5111  144.6353  151.5713 H   0  0  0  0  0  0  0  0  0  0  0  0  # atno 10167 bound_to 10162
  156.0221  130.4431  150.2983 H   0  0  0  0  0  0  0  0  0  0  0  0  # atno 10718 bound_to 10713
  154.3339  135.2754  155.2458 H   0  0  0  0  0  0  0  0  0  0  0  0  # atno 10763 bound_to 10752
  154.4757  135.5871  153.6357 H   0  0  0  0  0  0  0  0  0  0  0  0  # atno 10764 bound_to 10752
  152.9864  135.6099  154.3534 H   0  0  0  0  0  0  0  0  0  0  0  0  # atno 10765 bound_to 10752
  140.5171  134.5745  157.5037 H   0  0  0  0  0  0  0  0  0  0  0  0  # atno 11005 bound_to 11000
  146.1264  140.7243  142.9433 LP  0  0  0  0  0  0  0  0  0  0  0  0  # atno 17320 bound_to 7965
  144.7149  140.4175  143.7052 LP  0  0  0  0  0  0  0  0  0  0  0  0  # atno 17321 bound_to 7965
  140.6100  143.9454  150.6446 LP  0  0  0  0  0  0  0  0  0  0  0  0  # atno 17342 bound_to 10162
  140.2693  143.3467  152.1252 LP  0  0  0  0  0  0  0  0  0  0  0  0  # atno 17343 bound_to 10162
  157.1086  131.0215  151.3057 LP  0  0  0  0  0  0  0  0  0  0  0  0  # atno 17370 bound_to 10713
  157.4722  130.7715  149.7334 LP  0  0  0  0  0  0  0  0  0  0  0  0  # atno 17371 bound_to 10713
  139.9626  134.7426  156.0204 LP  0  0  0  0  0  0  0  0  0  0  0  0  # atno 17394 bound_to 11000
  141.1354  133.6576  156.3580 LP  0  0  0  0  0  0  0  0  0  0  0  0  # atno 17395 bound_to 11000

$$$$
