AV-unprocessed.smi:2044|AV-procd|sdf|8301|dock4
  -GOLD-   2272010563D 1   1.00000     0.00000
 Structure written by MMmdl.
 40 41  0  0  0  0  0  0  0  0  2 V2000
  137.7523  137.4232  154.5584 C   0  0  0  0  0  0  0  0  0  0  0  0
  139.2232  137.3541  154.3293 C   0  0  0  0  0  0  0  0  0  0  0  0
  140.1060  138.1855  153.6996 C   0  0  0  0  0  0  0  0  0  0  0  0
  141.3507  137.5097  153.8597 C   0  0  0  0  0  0  0  0  0  0  0  0
  142.6142  137.9514  153.3890 N   0  0  0  0  0  0  0  0  0  0  0  0
  143.8166  137.3779  153.5630 C   0  0  0  0  0  0  0  0  0  0  0  0
  144.0327  136.3491  154.2036 O   0  0  0  0  0  0  0  0  0  0  0  0
  144.7806  138.0693  152.9379 N   0  0  0  0  0  0  0  0  0  0  0  0
  146.1920  137.6959  152.9158 C   0  0  0  0  0  0  0  0  0  0  0  0
  147.1396  138.8736  153.2704 C   0  0  1  0  0  0  0  0  0  0  0  0
  146.4665  139.8029  154.3103 C   0  0  0  0  0  0  0  0  0  0  0  0
  148.4764  138.3547  153.7100 N   0  3  0  0  0  0  0  0  0  0  0  0
  149.4614  139.4455  153.9488 C   0  0  0  0  0  0  0  0  0  0  0  0
  150.8416  138.8776  154.3168 C   0  0  0  0  0  0  0  0  0  0  0  0
  150.7232  138.0617  155.4721 O   0  0  0  0  0  0  0  0  0  0  0  0
  149.8697  136.9517  155.2384 C   0  0  0  0  0  0  0  0  0  0  0  0
  148.4542  137.4415  154.8866 C   0  0  0  0  0  0  0  0  0  0  0  0
  141.2314  136.3747  154.5235 N   0  0  0  0  0  0  0  0  0  0  0  0
  139.8697  136.2667  154.8285 O   0  0  0  0  0  0  0  0  0  0  0  0
  137.2916  138.1660  153.9068 H   0  0  0  0  0  0  0  0  0  0  0  0
  137.5358  137.6983  155.5907 H   0  0  0  0  0  0  0  0  0  0  0  0
  137.2822  136.4603  154.3580 H   0  0  0  0  0  0  0  0  0  0  0  0
  139.8796  139.1214  153.2116 H   0  0  0  0  0  0  0  0  0  0  0  0
  142.5956  138.7998  152.8424 H   0  0  0  0  0  0  0  0  0  0  0  0
  144.5203  138.9064  152.4363 H   0  0  0  0  0  0  0  0  0  0  0  0
  146.3332  136.8832  153.6290 H   0  0  0  0  0  0  0  0  0  0  0  0
  146.4093  137.2748  151.9348 H   0  0  0  0  0  0  0  0  0  0  0  0
  147.3050  139.4760  152.3755 H   0  0  0  0  0  0  0  0  0  0  0  0
  145.4853  140.1400  153.9767 H   0  0  0  0  0  0  0  0  0  0  0  0
  147.0437  140.7116  154.4817 H   0  0  0  0  0  0  0  0  0  0  0  0
  146.3296  139.2978  155.2672 H   0  0  0  0  0  0  0  0  0  0  0  0
  149.5738  140.0767  153.0695 H   0  0  0  0  0  0  0  0  0  0  0  0
  149.1038  140.0895  154.7537 H   0  0  0  0  0  0  0  0  0  0  0  0
  151.2643  138.3060  153.4889 H   0  0  0  0  0  0  0  0  0  0  0  0
  151.5364  139.6900  154.5305 H   0  0  0  0  0  0  0  0  0  0  0  0
  150.2751  136.3276  154.4403 H   0  0  0  0  0  0  0  0  0  0  0  0
  149.8397  136.3358  156.1373 H   0  0  0  0  0  0  0  0  0  0  0  0
  148.0122  137.9551  155.7421 H   0  0  0  0  0  0  0  0  0  0  0  0
  147.8472  136.5599  154.6831 H   0  0  0  0  0  0  0  0  0  0  0  0
  148.8305  137.8024  152.9421 H   0  0  0  0  0  0  0  0  0  0  0  0
  1  2  1  0  0  0  0
  1 20  1  0  0  0  0
  1 21  1  0  0  0  0
  1 22  1  0  0  0  0
  2 19  1  0  0  0  0
  2  3  2  0  0  0  0
  3  4  1  0  0  0  0
  3 23  1  0  0  0  0
  4  5  1  0  0  0  0
  4 18  2  0  0  0  0
  5  6  1  0  0  0  0
  5 24  1  0  0  0  0
  6  7  2  0  0  0  0
  6  8  1  0  0  0  0
  8  9  1  0  0  0  0
  8 25  1  0  0  0  0
  9 10  1  0  0  0  0
  9 26  1  0  0  0  0
  9 27  1  0  0  0  0
 10 11  1  0  0  0  0
 10 12  1  0  0  0  0
 10 28  1  0  0  0  0
 11 29  1  0  0  0  0
 11 30  1  0  0  0  0
 11 31  1  0  0  0  0
 12 17  1  0  0  0  0
 12 13  1  0  0  0  0
 12 40  1  0  0  0  0
 13 14  1  0  0  0  0
 13 32  1  0  0  0  0
 13 33  1  0  0  0  0
 14 15  1  0  0  0  0
 14 34  1  0  0  0  0
 14 35  1  0  0  0  0
 15 16  1  0  0  0  0
 16 17  1  0  0  0  0
 16 36  1  0  0  0  0
 16 37  1  0  0  0  0
 17 38  1  0  0  0  0
 17 39  1  0  0  0  0
 18 19  1  0  0  0  0
M  CHG  1  12   1
M  END
> <s_m_source_file>
AV-unprocessed.smi

> <i_m_source_file_index>
2044

> <i_lp_mmshare_version>
43012

> <i_f3d_flags>
0

> <s_epik_input>
W0NIM11jMVtjSF1jKG5vMSlbTkhdQyg9TylbTkhdW0NIMl1bQ0BIXShbQ0gzXSlOMltDSDJdW0NIMl1PW0NIMl1bQ0gyXTI=

> <s_epik_cmdline>
J2VwaWtfcHl0aG9uJywgJy1waCcsICc3LjAnLCAnLXRuJywgJzgnLCAnLW1hJywgJzIwMCcsICctbWV0YWxfYmluZGluZycsICctaW1hZScsICc8aW5maWxlLm1hZT4nLCAnLW9tYWUnLCAnPG91dGZpbGUubWFlPic=

> <r_epik_Ionization_Penalty>
0.707076

> <r_epik_Ionization_Penalty_Charging>
0.707039

> <r_epik_Ionization_Penalty_Neutral>
3.67886e-05

> <r_epik_State_Penalty>
0.730276

> <r_epik_Charging_Adjusted_Penalty>
1.43732

> <i_epik_Tot_Q>
1

> <i_epik_Tot_abs_Q>
1

> <r_epik_Metal_State_Penalty>
0.743216

> <b_epik_Metal_Only>
0

> <s_lp_Force_Field>
OPLS_2005

> <r_lp_Energy>
19.4768

> <b_lp_Chiralities_Consistent>
1

> <s_lp_Variant>
AV-unprocessed.smi:2044-4

> <Gold.Version>
5.8.1

> <Gold.Id.Protein>
6NUR|6NUR_protein|mol2

> <Gold.PLP.Fitness>
42.0530

> <Gold.PLP.PLP>
-28.0429

> <Gold.PLP.part.hbond>
-4.6201

> <Gold.PLP.part.metal>
0.0000

> <Gold.PLP.part.buried>
-3.6211

> <Gold.PLP.part.nonpolar>
-20.6586

> <Gold.PLP.part.repulsive>
0.2876

> <Gold.PLP.ligand.clash>
0.0000

> <Gold.PLP.ligand.torsion>
0.3233

> <Gold.PLP.Chemscore.Hbond>
4.8720

> <Gold.PLP.Chemscore.CHOScore>
0.0000

> <Gold.PLP.Chemscore.Metal>
0.0000

> <Gold.Chemscore.Hbonds>
donor molecule, donor type, donor heavy atom, donor atom, acceptor molecule, acceptor atom, score
      L1  H     5    24       P1 10175  0.86
      L1  H     8    25       P1 10175  0.96
      L1  H    12    40       P1  7948  2.00
      P1  H 11000 11005       L1    19  0.95

> <Gold.PLP.Chemscore.Internal.Correction>
0.0408

> <Gold.Rescore>
     Score         DG    S(hbond)    S(metal)    S(lipo)     H(rot)  DE(clash)    DE(int)     intcor
     17.22     -19.00       3.41        0.00      53.55       1.62       0.15       1.63       ----

> <Gold.Chemscore.Fitness>
17.2195

> <Gold.Chemscore.DG>
-18.9998

> <Gold.Chemscore.ZeroCoef>
-5.4800

> <Gold.Chemscore.Hbond>
3.4148

> <Gold.Chemscore.Metal>
0.0000

> <Gold.Chemscore.Lipo>
53.5480

> <Gold.Chemscore.Internal_Hbond>
0.0000

> <Gold.Chemscore.DEClash>
0.1461

> <Gold.Chemscore.DEInternal>
1.6342

> <Gold.Chemscore.Rot>
1.6213

> <Gold.Chemscore.Internal.Correction>
   9.000000E+99

> <Gold.Chemscore.Hbonds>
donor molecule, donor type, donor heavy atom, donor atom, acceptor molecule, acceptor atom, score
      L1  H     5    24       P1 10175  0.84
      L1  H     8    25       P1 10175  0.92
      L1  H    12    40       P1  7948  0.98
      P1  H 11000 11005       L1    19  0.21

> <Gold.Chemscore.Hbond.Weighted>
-11.4053

> <Gold.Chemscore.Metal.Weighted>
-0.0000

> <Gold.Chemscore.Lipo.Weighted>
-6.2651

> <Gold.Chemscore.Internal_Hbond.Weighted>
0.0000

> <Gold.Chemscore.DEClash.Weighted>
0.1461

> <Gold.Chemscore.DEInternal.Weighted>
1.6342

> <Gold.Chemscore.Rot.Weighted>
4.1506

> <Gold.Chemscore.Internal.Correction.Weighted>
   9.000000E+99

> <Gold.Protein.RotatedTorsions>
[ 6907 6896 6895 6894 ] final   -2.08 input  -60.11 | X-H torsion
[ 7974 7965 7964 7962 ] final  -49.47 input  175.53 | X-H torsion
[ 8008 7997 7996 7995 ] final  142.93 input   59.86 | X-H torsion
[ 10167 10162 10161 10158 ] final  -47.16 input  -65.29 | X-H torsion
[ 10718 10713 10712 10709 ] final -149.44 input   66.30 | X-H torsion
[ 10763 10752 10751 10750 ] final   86.98 input  -60.55 | X-H torsion
[ 11005 11000 10999 10996 ] final   72.42 input  -57.11 | X-H torsion

> <Gold.Protein.ActiveResidues>
 VAL166  LYS551  ARG553  GLY616  TRP617  ASP618  TYR619  PRO620  LYS621  CYS622 
 ASP623  PHE694  ASN695  SER759  ASP760  ASP761  ALA762  ILE779  LEU786  VAL792 
 PHE793  MET794  SER795  GLU796  ALA797  LYS798  CYS799  TRP800  GLU811  SER814 

> <Gold.Protein.RotatedAtoms>
  151.5356  135.1068  159.9913 H   0  0  0  0  0  0  0  0  0  0  0  0  # atno 6907 bound_to 6896
  152.4558  133.7717  159.6813 H   0  0  0  0  0  0  0  0  0  0  0  0  # atno 6908 bound_to 6896
  150.8502  133.7733  159.3053 H   0  0  0  0  0  0  0  0  0  0  0  0  # atno 6909 bound_to 6896
  145.9402  140.7669  142.9556 H   0  0  0  0  0  0  0  0  0  0  0  0  # atno 7974 bound_to 7965
  156.2940  140.2275  156.4809 H   0  0  0  0  0  0  0  0  0  0  0  0  # atno 8008 bound_to 7997
  154.7854  140.0457  157.1181 H   0  0  0  0  0  0  0  0  0  0  0  0  # atno 8009 bound_to 7997
  154.9709  140.3066  155.4992 H   0  0  0  0  0  0  0  0  0  0  0  0  # atno 8010 bound_to 7997
  140.6787  143.2797  151.3887 H   0  0  0  0  0  0  0  0  0  0  0  0  # atno 10167 bound_to 10162
  156.4332  130.8086  151.2313 H   0  0  0  0  0  0  0  0  0  0  0  0  # atno 10718 bound_to 10713
  153.1623  135.4560  154.9789 H   0  0  0  0  0  0  0  0  0  0  0  0  # atno 10763 bound_to 10752
  154.7906  135.3219  154.7787 H   0  0  0  0  0  0  0  0  0  0  0  0  # atno 10764 bound_to 10752
  153.8275  135.6941  153.4873 H   0  0  0  0  0  0  0  0  0  0  0  0  # atno 10765 bound_to 10752
  139.9492  134.7258  156.0905 H   0  0  0  0  0  0  0  0  0  0  0  0  # atno 11005 bound_to 11000
  144.6778  140.2268  143.7360 LP  0  0  0  0  0  0  0  0  0  0  0  0  # atno 17320 bound_to 7965
  145.8310  139.2086  143.1883 LP  0  0  0  0  0  0  0  0  0  0  0  0  # atno 17321 bound_to 7965
  139.6095  144.1128  152.2284 LP  0  0  0  0  0  0  0  0  0  0  0  0  # atno 17342 bound_to 10162
  140.0537  144.5912  150.7316 LP  0  0  0  0  0  0  0  0  0  0  0  0  # atno 17343 bound_to 10162
  157.7508  131.0191  150.3656 LP  0  0  0  0  0  0  0  0  0  0  0  0  # atno 17370 bound_to 10713
  156.3997  130.3913  149.6968 LP  0  0  0  0  0  0  0  0  0  0  0  0  # atno 17371 bound_to 10713
  141.1150  133.6630  156.3072 LP  0  0  0  0  0  0  0  0  0  0  0  0  # atno 17394 bound_to 11000
  140.5761  134.5792  157.5469 LP  0  0  0  0  0  0  0  0  0  0  0  0  # atno 17395 bound_to 11000

$$$$
