AV-unprocessed.smi:414|AV-procd|sdf|2516|dock8
  -GOLD-   2262022463D 1   1.00000     0.00000
 Structure written by MMmdl.
 37 38  0  0  0  0  0  0  0  0  2 V2000
  153.0305  143.6501  162.0583 C   0  0  0  0  0  0  0  0  0  0  0  0
  152.2383  142.9297  160.9582 C   0  0  2  0  0  0  0  0  0  0  0  0
  153.0749  141.8171  160.2980 C   0  0  0  0  0  0  0  0  0  0  0  0
  152.2844  141.0950  159.1951 C   0  0  0  0  0  0  0  0  0  0  0  0
  151.7754  142.0831  158.1301 C   0  0  1  0  0  0  0  0  0  0  0  0
  150.9860  141.3649  157.1347 N   0  0  0  0  0  0  0  0  0  0  0  0
  151.3993  140.2943  156.4394 C   0  0  0  0  0  0  0  0  0  0  0  0
  152.5257  139.8090  156.5509 O   0  0  0  0  0  0  0  0  0  0  0  0
  150.3922  139.7056  155.4427 C   0  0  0  0  0  0  0  0  0  0  0  0
  149.0274  140.2163  155.6465 N   0  0  0  0  0  0  0  0  0  0  0  0
  148.4343  140.9401  154.5969 C   0  0  0  0  0  0  0  0  0  0  0  0
  147.1884  141.4417  154.6953 C   0  0  0  0  0  0  0  0  0  0  0  0
  146.4500  141.2181  155.9321 C   0  0  0  0  0  0  0  0  0  0  0  0
  145.3128  141.6726  156.0416 O   0  0  0  0  0  0  0  0  0  0  0  0
  147.0670  140.5057  156.9198 N   0  5  0  0  0  0  0  0  0  0  0  0
  148.3336  139.9987  156.8044 C   0  0  0  0  0  0  0  0  0  0  0  0
  148.8707  139.3553  157.7071 O   0  0  0  0  0  0  0  0  0  0  0  0
  150.9400  143.2027  158.7827 C   0  0  0  0  0  0  0  0  0  0  0  0
  151.7270  143.9184  159.8929 C   0  0  0  0  0  0  0  0  0  0  0  0
  153.9172  144.1385  161.6532 H   0  0  0  0  0  0  0  0  0  0  0  0
  153.3576  142.9512  162.8285 H   0  0  0  0  0  0  0  0  0  0  0  0
  152.4222  144.4135  162.5441 H   0  0  0  0  0  0  0  0  0  0  0  0
  151.3711  142.4643  161.4291 H   0  0  0  0  0  0  0  0  0  0  0  0
  153.9847  142.2423  159.8722 H   0  0  0  0  0  0  0  0  0  0  0  0
  153.3951  141.0946  161.0494 H   0  0  0  0  0  0  0  0  0  0  0  0
  152.9147  140.3363  158.7298 H   0  0  0  0  0  0  0  0  0  0  0  0
  151.4420  140.5651  159.6425 H   0  0  0  0  0  0  0  0  0  0  0  0
  152.6442  142.5294  157.6420 H   0  0  0  0  0  0  0  0  0  0  0  0
  150.0453  141.6946  156.9750 H   0  0  0  0  0  0  0  0  0  0  0  0
  150.7175  139.9026  154.4192 H   0  0  0  0  0  0  0  0  0  0  0  0
  150.4121  138.6197  155.5447 H   0  0  0  0  0  0  0  0  0  0  0  0
  149.0453  141.0548  153.7137 H   0  0  0  0  0  0  0  0  0  0  0  0
  146.7455  141.9923  153.8787 H   0  0  0  0  0  0  0  0  0  0  0  0
  150.6310  143.9292  158.0303 H   0  0  0  0  0  0  0  0  0  0  0  0
  150.0237  142.7844  159.2017 H   0  0  0  0  0  0  0  0  0  0  0  0
  151.0934  144.6740  160.3590 H   0  0  0  0  0  0  0  0  0  0  0  0
  152.5695  144.4526  159.4514 H   0  0  0  0  0  0  0  0  0  0  0  0
  1  2  1  0  0  0  0
  1 20  1  0  0  0  0
  1 21  1  0  0  0  0
  1 22  1  0  0  0  0
  2 19  1  0  0  0  0
  2  3  1  0  0  0  0
  2 23  1  0  0  0  0
  3  4  1  0  0  0  0
  3 24  1  0  0  0  0
  3 25  1  0  0  0  0
  4  5  1  0  0  0  0
  4 26  1  0  0  0  0
  4 27  1  0  0  0  0
  5  6  1  0  0  0  0
  5 18  1  0  0  0  0
  5 28  1  0  0  0  0
  6  7  1  0  0  0  0
  6 29  1  0  0  0  0
  7  8  2  0  0  0  0
  7  9  1  0  0  0  0
  9 10  1  0  0  0  0
  9 30  1  0  0  0  0
  9 31  1  0  0  0  0
 10 16  1  0  0  0  0
 10 11  1  0  0  0  0
 11 12  2  0  0  0  0
 11 32  1  0  0  0  0
 12 13  1  0  0  0  0
 12 33  1  0  0  0  0
 13 14  2  0  0  0  0
 13 15  1  0  0  0  0
 15 16  1  0  0  0  0
 16 17  2  0  0  0  0
 18 19  1  0  0  0  0
 18 34  1  0  0  0  0
 18 35  1  0  0  0  0
 19 36  1  0  0  0  0
 19 37  1  0  0  0  0
M  CHG  1  15  -1
M  END
> <s_m_source_file>
AV-unprocessed.smi

> <i_m_source_file_index>
414

> <i_lp_mmshare_version>
43012

> <i_f3d_flags>
0

> <s_epik_input>
W0NIM11bQ0BASF0xW0NIMl1bQ0gyXVtDQEhdKFtDSDJdW0NIMl0xKVtOSF1DKD1PKVtDSDJdbjJbY0hdW2NIXWMoPU8pW25IXWMyPU8=

> <s_epik_cmdline>
J2VwaWtfcHl0aG9uJywgJy1waCcsICc3LjAnLCAnLXRuJywgJzgnLCAnLW1hJywgJzIwMCcsICctbWV0YWxfYmluZGluZycsICctaW1hZScsICc8aW5maWxlLm1hZT4nLCAnLW9tYWUnLCAnPG91dGZpbGUubWFlPic=

> <r_lp_tautomer_probability>
0.999537

> <r_epik_Ionization_Penalty>
3.11551

> <r_epik_Ionization_Penalty_Charging>
2.90498e-08

> <r_epik_Ionization_Penalty_Neutral>
3.11551

> <r_epik_State_Penalty>
3.11459

> <r_epik_Charging_Adjusted_Penalty>
3.11459

> <i_epik_Tot_Q>
-1

> <i_epik_Tot_abs_Q>
1

> <r_epik_Metal_State_Penalty>
0.463083

> <b_epik_Metal_Only>
1

> <s_lp_Force_Field>
OPLS_2005

> <r_lp_Energy>
17.7967

> <b_lp_Chiralities_Consistent>
1

> <s_lp_Variant>
AV-unprocessed.smi:414-3

> <Gold.Version>
5.8.1

> <Gold.Id.Protein>
6NUR|6NUR_protein|mol2

> <Gold.PLP.Fitness>
42.1383

> <Gold.PLP.PLP>
-36.5032

> <Gold.PLP.part.hbond>
-1.0000

> <Gold.PLP.part.metal>
0.0000

> <Gold.PLP.part.buried>
-4.6216

> <Gold.PLP.part.nonpolar>
-30.9234

> <Gold.PLP.part.repulsive>
0.3058

> <Gold.PLP.ligand.clash>
0.0000

> <Gold.PLP.ligand.torsion>
0.1787

> <Gold.PLP.Chemscore.Hbond>
1.0000

> <Gold.PLP.Chemscore.CHOScore>
0.9958

> <Gold.PLP.Chemscore.Metal>
0.0000

> <Gold.Chemscore.Hbonds>
donor molecule, donor type, donor heavy atom, donor atom, acceptor molecule, acceptor atom, score
      P1  H  7997  8010       L1     8  1.00
      L1  C    11    32       P1  7957  0.33

> <Gold.PLP.Chemscore.Internal.Correction>
0.0050

> <Gold.Rescore>
     Score         DG    S(hbond)    S(metal)    S(lipo)     H(rot)  DE(clash)    DE(int)     intcor
     15.45     -15.76       1.00        0.00      95.64       1.65       0.02       0.28       ----

> <Gold.Chemscore.Fitness>
15.4529

> <Gold.Chemscore.DG>
-15.7571

> <Gold.Chemscore.ZeroCoef>
-5.4800

> <Gold.Chemscore.Hbond>
0.9952

> <Gold.Chemscore.Metal>
0.0000

> <Gold.Chemscore.Lipo>
95.6371

> <Gold.Chemscore.Internal_Hbond>
0.0000

> <Gold.Chemscore.DEClash>
0.0196

> <Gold.Chemscore.DEInternal>
0.2846

> <Gold.Chemscore.Rot>
1.6549

> <Gold.Chemscore.Internal.Correction>
   9.000000E+99

> <Gold.Chemscore.Hbonds>
donor molecule, donor type, donor heavy atom, donor atom, acceptor molecule, acceptor atom, score
      P1  H  7997  8010       L1     8  1.00

> <Gold.Chemscore.Hbond.Weighted>
-3.3240

> <Gold.Chemscore.Metal.Weighted>
-0.0000

> <Gold.Chemscore.Lipo.Weighted>
-11.1895

> <Gold.Chemscore.Internal_Hbond.Weighted>
0.0000

> <Gold.Chemscore.DEClash.Weighted>
0.0196

> <Gold.Chemscore.DEInternal.Weighted>
0.2846

> <Gold.Chemscore.Rot.Weighted>
4.2364

> <Gold.Chemscore.Internal.Correction.Weighted>
   9.000000E+99

> <Gold.Protein.RotatedTorsions>
[ 6907 6896 6895 6894 ] final   50.76 input  -60.11 | X-H torsion
[ 7974 7965 7964 7962 ] final    6.64 input  175.53 | X-H torsion
[ 8008 7997 7996 7995 ] final   76.10 input   59.86 | X-H torsion
[ 10167 10162 10161 10158 ] final   69.76 input  -65.29 | X-H torsion
[ 10718 10713 10712 10709 ] final -179.00 input   66.30 | X-H torsion
[ 10763 10752 10751 10750 ] final   72.71 input  -60.55 | X-H torsion
[ 11005 11000 10999 10996 ] final   19.64 input  -57.11 | X-H torsion

> <Gold.Protein.ActiveResidues>
 VAL166  LYS551  ARG553  GLY616  TRP617  ASP618  TYR619  PRO620  LYS621  CYS622 
 ASP623  PHE694  ASN695  SER759  ASP760  ASP761  ALA762  ILE779  LEU786  VAL792 
 PHE793  MET794  SER795  GLU796  ALA797  LYS798  CYS799  TRP800  GLU811  SER814 

> <Gold.Protein.RotatedAtoms>
  152.3053  134.7562  160.0348 H   0  0  0  0  0  0  0  0  0  0  0  0  # atno 6907 bound_to 6896
  151.8061  133.3370  159.3549 H   0  0  0  0  0  0  0  0  0  0  0  0  # atno 6908 bound_to 6896
  150.7293  134.5638  159.5900 H   0  0  0  0  0  0  0  0  0  0  0  0  # atno 6909 bound_to 6896
  146.2433  140.0204  142.8398 H   0  0  0  0  0  0  0  0  0  0  0  0  # atno 7974 bound_to 7965
  155.8225  140.3469  155.5523 H   0  0  0  0  0  0  0  0  0  0  0  0  # atno 8008 bound_to 7997
  155.8327  140.0929  157.1803 H   0  0  0  0  0  0  0  0  0  0  0  0  # atno 8009 bound_to 7997
  154.4004  140.1409  156.3620 H   0  0  0  0  0  0  0  0  0  0  0  0  # atno 8010 bound_to 7997
  140.0643  144.5206  150.7272 H   0  0  0  0  0  0  0  0  0  0  0  0  # atno 10167 bound_to 10162
  156.8527  130.9724  151.3091 H   0  0  0  0  0  0  0  0  0  0  0  0  # atno 10718 bound_to 10713
  153.0475  135.5090  154.7784 H   0  0  0  0  0  0  0  0  0  0  0  0  # atno 10763 bound_to 10752
  154.6672  135.2947  154.9792 H   0  0  0  0  0  0  0  0  0  0  0  0  # atno 10764 bound_to 10752
  154.0622  135.6689  153.4866 H   0  0  0  0  0  0  0  0  0  0  0  0  # atno 10765 bound_to 10752
  140.4114  134.1614  155.7667 H   0  0  0  0  0  0  0  0  0  0  0  0  # atno 11005 bound_to 11000
  145.1247  140.9483  143.4580 LP  0  0  0  0  0  0  0  0  0  0  0  0  # atno 17320 bound_to 7965
  145.0447  139.3231  143.5959 LP  0  0  0  0  0  0  0  0  0  0  0  0  # atno 17321 bound_to 7965
  140.7157  143.2542  151.4442 LP  0  0  0  0  0  0  0  0  0  0  0  0  # atno 17342 bound_to 10162
  139.5875  144.1573  152.2047 LP  0  0  0  0  0  0  0  0  0  0  0  0  # atno 17343 bound_to 10162
  157.6294  130.8717  149.9247 LP  0  0  0  0  0  0  0  0  0  0  0  0  # atno 17370 bound_to 10713
  156.0819  130.3672  150.0563 LP  0  0  0  0  0  0  0  0  0  0  0  0  # atno 17371 bound_to 10713
  141.1819  133.8395  157.1226 LP  0  0  0  0  0  0  0  0  0  0  0  0  # atno 17394 bound_to 11000
  140.0264  134.9922  157.0695 LP  0  0  0  0  0  0  0  0  0  0  0  0  # atno 17395 bound_to 11000

$$$$
