AV-unprocessed.smi:2122|AV-procd|sdf|8646|dock3
  -GOLD-   2272011393D 1   1.00000     0.00000
 Structure written by MMmdl.
 41 41  0  0  0  0  0  0  0  0  1 V2000
  151.8673  145.1282  160.1643 C   0  0  0  0  0  0  0  0  0  0  0  0
  151.5649  144.2577  158.9398 C   0  0  0  0  0  0  0  0  0  0  0  0
  151.7745  142.7626  159.2139 C   0  0  0  0  0  0  0  0  0  0  0  0
  151.4696  141.8937  157.9818 C   0  0  0  0  0  0  0  0  0  0  0  0
  151.2086  140.5104  158.3258 N   0  0  0  0  0  0  0  0  0  0  0  0
  149.9752  139.8815  158.1336 C   0  0  0  0  0  0  0  0  0  0  0  0
  148.9416  140.6156  157.5724 N   0  0  0  0  0  0  0  0  0  0  0  0
  149.7740  138.5716  158.4578 C   0  0  0  0  0  0  0  0  0  0  0  0
  148.5495  137.9300  158.2786 N   0  0  0  0  0  0  0  0  0  0  0  0
  147.4177  138.6595  157.7245 C   0  0  0  0  0  0  0  0  0  0  0  0
  148.2124  136.6381  158.8766 C   0  0  0  0  0  0  0  0  0  0  0  0
  146.9397  136.6686  159.7396 C   0  0  0  0  0  0  0  0  0  0  0  0
  147.2345  137.3153  160.9659 O   0  0  0  0  0  0  0  0  0  0  0  0
  146.4320  136.8432  162.0338 C   0  0  0  0  0  0  0  0  0  0  0  0
  150.8631  137.7740  159.0363 C   0  0  0  0  0  0  0  0  0  0  0  0
  150.7847  136.5970  159.3866 O   0  0  0  0  0  0  0  0  0  0  0  0
  152.0728  138.4487  159.1804 N   0  0  0  0  0  0  0  0  0  0  0  0
  152.3039  139.7772  158.8414 C   0  0  0  0  0  0  0  0  0  0  0  0
  153.4285  140.2543  158.9981 O   0  0  0  0  0  0  0  0  0  0  0  0
  152.8494  137.9271  159.5601 H   0  0  0  0  0  0  0  0  0  0  0  0
  151.7129  146.1835  159.9390 H   0  0  0  0  0  0  0  0  0  0  0  0
  152.9004  145.0046  160.4893 H   0  0  0  0  0  0  0  0  0  0  0  0
  151.2190  144.8683  161.0017 H   0  0  0  0  0  0  0  0  0  0  0  0
  150.5361  144.4306  158.6215 H   0  0  0  0  0  0  0  0  0  0  0  0
  152.2010  144.5696  158.1109 H   0  0  0  0  0  0  0  0  0  0  0  0
  152.8039  142.5932  159.5325 H   0  0  0  0  0  0  0  0  0  0  0  0
  151.1401  142.4567  160.0467 H   0  0  0  0  0  0  0  0  0  0  0  0
  150.6148  142.2677  157.4155 H   0  0  0  0  0  0  0  0  0  0  0  0
  152.2991  141.8972  157.2755 H   0  0  0  0  0  0  0  0  0  0  0  0
  149.0654  141.5816  157.3051 H   0  0  0  0  0  0  0  0  0  0  0  0
  148.0288  140.2164  157.4083 H   0  0  0  0  0  0  0  0  0  0  0  0
  147.7156  139.6480  157.3722 H   0  0  0  0  0  0  0  0  0  0  0  0
  146.6417  138.7911  158.4793 H   0  0  0  0  0  0  0  0  0  0  0  0
  146.9905  138.1175  156.8804 H   0  0  0  0  0  0  0  0  0  0  0  0
  148.1016  135.8998  158.0815 H   0  0  0  0  0  0  0  0  0  0  0  0
  149.0479  136.3048  159.4941 H   0  0  0  0  0  0  0  0  0  0  0  0
  146.1472  137.2074  159.2172 H   0  0  0  0  0  0  0  0  0  0  0  0
  146.5803  135.6577  159.9372 H   0  0  0  0  0  0  0  0  0  0  0  0
  146.6971  137.3680  162.9515 H   0  0  0  0  0  0  0  0  0  0  0  0
  146.5845  135.7760  162.2007 H   0  0  0  0  0  0  0  0  0  0  0  0
  145.3733  137.0198  161.8391 H   0  0  0  0  0  0  0  0  0  0  0  0
  1  2  1  0  0  0  0
  1 21  1  0  0  0  0
  1 22  1  0  0  0  0
  1 23  1  0  0  0  0
  2  3  1  0  0  0  0
  2 24  1  0  0  0  0
  2 25  1  0  0  0  0
  3  4  1  0  0  0  0
  3 26  1  0  0  0  0
  3 27  1  0  0  0  0
  4  5  1  0  0  0  0
  4 28  1  0  0  0  0
  4 29  1  0  0  0  0
  5 18  1  0  0  0  0
  5  6  1  0  0  0  0
  6  7  1  0  0  0  0
  6  8  2  0  0  0  0
  7 30  1  0  0  0  0
  7 31  1  0  0  0  0
  8  9  1  0  0  0  0
  8 15  1  0  0  0  0
  9 10  1  0  0  0  0
  9 11  1  0  0  0  0
 10 32  1  0  0  0  0
 10 33  1  0  0  0  0
 10 34  1  0  0  0  0
 11 12  1  0  0  0  0
 11 35  1  0  0  0  0
 11 36  1  0  0  0  0
 12 13  1  0  0  0  0
 12 37  1  0  0  0  0
 12 38  1  0  0  0  0
 13 14  1  0  0  0  0
 14 39  1  0  0  0  0
 14 40  1  0  0  0  0
 14 41  1  0  0  0  0
 15 16  2  0  0  0  0
 15 17  1  0  0  0  0
 17 20  1  0  0  0  0
 17 18  1  0  0  0  0
 18 19  2  0  0  0  0
M  END
> <s_m_source_file>
AV-unprocessed.smi

> <i_m_source_file_index>
2122

> <i_lp_mmshare_version>
43012

> <i_f3d_flags>
0

> <s_epik_input>
W0NIM11bQ0gyXVtDSDJdW0NIMl1uMWMoW05IMl0pYyhjKD1PKVtuSF1jMT1PKU4oW0NIM10pW0NIMl1bQ0gyXU9bQ0gzXQ==

> <s_epik_cmdline>
J2VwaWtfcHl0aG9uJywgJy1waCcsICc3LjAnLCAnLXRuJywgJzgnLCAnLW1hJywgJzIwMCcsICctbWV0YWxfYmluZGluZycsICctaW1hZScsICc8aW5maWxlLm1hZT4nLCAnLW9tYWUnLCAnPG91dGZpbGUubWFlPic=

> <r_lp_tautomer_probability>
1

> <r_epik_Ionization_Penalty>
2.26322e-05

> <r_epik_Ionization_Penalty_Charging>
2.75876e-06

> <r_epik_Ionization_Penalty_Neutral>
1.98734e-05

> <r_epik_State_Penalty>
-0

> <r_epik_Charging_Adjusted_Penalty>
2.75876e-06

> <i_epik_Tot_Q>
0

> <i_epik_Tot_abs_Q>
0

> <r_epik_Metal_State_Penalty>
-0

> <b_epik_Metal_Only>
0

> <s_epik_Chemistry_Notes>
This compound has an imine and may undergo hydrolysis.

> <s_lp_Force_Field>
OPLS_2005

> <r_lp_Energy>
20.5532

> <b_lp_Chiralities_Consistent>
1

> <s_lp_Variant>
AV-unprocessed.smi:2122-1

> <Gold.Version>
5.8.1

> <Gold.Id.Protein>
6NUR|6NUR_protein|mol2

> <Gold.PLP.Fitness>
42.4459

> <Gold.PLP.PLP>
-32.6243

> <Gold.PLP.part.hbond>
-4.0000

> <Gold.PLP.part.metal>
0.0000

> <Gold.PLP.part.buried>
-3.9517

> <Gold.PLP.part.nonpolar>
-24.9352

> <Gold.PLP.part.repulsive>
0.2168

> <Gold.PLP.ligand.clash>
20.2349

> <Gold.PLP.ligand.torsion>
0.5282

> <Gold.PLP.Chemscore.Hbond>
3.5309

> <Gold.PLP.Chemscore.CHOScore>
0.0000

> <Gold.PLP.Chemscore.Metal>
0.0000

> <Gold.Chemscore.Hbonds>
donor molecule, donor type, donor heavy atom, donor atom, acceptor molecule, acceptor atom, score
      P1  H  6896  6907       L1    16  0.99
      P1  H  6931  6943       L1    13  0.38
      P1  H  6934  6947       L1    13  1.00
      P1  H  7997  8009       L1    19  0.39

> <Gold.PLP.Chemscore.Internal.Correction>
20.5202

> <Gold.Rescore>
     Score         DG    S(hbond)    S(metal)    S(lipo)     H(rot)  DE(clash)    DE(int)     intcor
     12.24     -16.70       2.69        0.00      66.40       2.16       0.23       4.23       ----

> <Gold.Chemscore.Fitness>
12.2364

> <Gold.Chemscore.DG>
-16.6998

> <Gold.Chemscore.ZeroCoef>
-5.4800

> <Gold.Chemscore.Hbond>
2.6872

> <Gold.Chemscore.Metal>
0.0000

> <Gold.Chemscore.Lipo>
66.3998

> <Gold.Chemscore.Internal_Hbond>
0.0000

> <Gold.Chemscore.DEClash>
0.2286

> <Gold.Chemscore.DEInternal>
4.2347

> <Gold.Chemscore.Rot>
2.1579

> <Gold.Chemscore.Internal.Correction>
   9.000000E+99

> <Gold.Chemscore.Hbonds>
donor molecule, donor type, donor heavy atom, donor atom, acceptor molecule, acceptor atom, score
      P1  H  6896  6907       L1    16  0.94
      P1  H  6931  6943       L1    13  0.20
      P1  H  6934  6947       L1    13  0.64
      P1  H  7997  8009       L1    19  0.34

> <Gold.Chemscore.Hbond.Weighted>
-8.9751

> <Gold.Chemscore.Metal.Weighted>
-0.0000

> <Gold.Chemscore.Lipo.Weighted>
-7.7688

> <Gold.Chemscore.Internal_Hbond.Weighted>
0.0000

> <Gold.Chemscore.DEClash.Weighted>
0.2286

> <Gold.Chemscore.DEInternal.Weighted>
4.2347

> <Gold.Chemscore.Rot.Weighted>
5.5241

> <Gold.Chemscore.Internal.Correction.Weighted>
   9.000000E+99

> <Gold.Protein.RotatedTorsions>
[ 6907 6896 6895 6894 ] final   -4.58 input  -60.11 | X-H torsion
[ 7974 7965 7964 7962 ] final   18.72 input  175.53 | X-H torsion
[ 8008 7997 7996 7995 ] final  140.88 input   59.86 | X-H torsion
[ 10167 10162 10161 10158 ] final  158.54 input  -65.29 | X-H torsion
[ 10718 10713 10712 10709 ] final  -23.05 input   66.30 | X-H torsion
[ 10763 10752 10751 10750 ] final -157.05 input  -60.55 | X-H torsion
[ 11005 11000 10999 10996 ] final  -71.03 input  -57.11 | X-H torsion

> <Gold.Protein.ActiveResidues>
 VAL166  LYS551  ARG553  GLY616  TRP617  ASP618  TYR619  PRO620  LYS621  CYS622 
 ASP623  PHE694  ASN695  SER759  ASP760  ASP761  ALA762  ILE779  LEU786  VAL792 
 PHE793  MET794  SER795  GLU796  ALA797  LYS798  CYS799  TRP800  GLU811  SER814 

> <Gold.Protein.RotatedAtoms>
  151.4953  135.1059  159.9814 H   0  0  0  0  0  0  0  0  0  0  0  0  # atno 6907 bound_to 6896
  152.4724  133.8056  159.6987 H   0  0  0  0  0  0  0  0  0  0  0  0  # atno 6908 bound_to 6896
  150.8741  133.7401  159.2978 H   0  0  0  0  0  0  0  0  0  0  0  0  # atno 6909 bound_to 6896
  146.2175  139.8416  142.8640 H   0  0  0  0  0  0  0  0  0  0  0  0  # atno 7974 bound_to 7965
  156.2973  140.2330  156.4473 H   0  0  0  0  0  0  0  0  0  0  0  0  # atno 8008 bound_to 7997
  154.8133  140.0442  157.1379 H   0  0  0  0  0  0  0  0  0  0  0  0  # atno 8009 bound_to 7997
  154.9399  140.3028  155.5129 H   0  0  0  0  0  0  0  0  0  0  0  0  # atno 8010 bound_to 7997
  139.4827  144.4815  151.8438 H   0  0  0  0  0  0  0  0  0  0  0  0  # atno 10167 bound_to 10162
  156.4963  130.4578  149.6726 H   0  0  0  0  0  0  0  0  0  0  0  0  # atno 10718 bound_to 10713
  154.7666  135.3133  154.8274 H   0  0  0  0  0  0  0  0  0  0  0  0  # atno 10763 bound_to 10752
  153.9020  135.6814  153.4759 H   0  0  0  0  0  0  0  0  0  0  0  0  # atno 10764 bound_to 10752
  153.1273  135.4796  154.9226 H   0  0  0  0  0  0  0  0  0  0  0  0  # atno 10765 bound_to 10752
  141.1585  133.6806  156.6843 H   0  0  0  0  0  0  0  0  0  0  0  0  # atno 11005 bound_to 11000
  145.2893  141.0162  143.3672 LP  0  0  0  0  0  0  0  0  0  0  0  0  # atno 17320 bound_to 7965
  144.9090  139.4553  143.6596 LP  0  0  0  0  0  0  0  0  0  0  0  0  # atno 17321 bound_to 7965
  140.4291  144.2140  150.5887 LP  0  0  0  0  0  0  0  0  0  0  0  0  # atno 17342 bound_to 10162
  140.4797  143.2383  151.8972 LP  0  0  0  0  0  0  0  0  0  0  0  0  # atno 17343 bound_to 10162
  156.3377  130.7365  151.2305 LP  0  0  0  0  0  0  0  0  0  0  0  0  # atno 17370 bound_to 10713
  157.7468  131.0412  150.4636 LP  0  0  0  0  0  0  0  0  0  0  0  0  # atno 17371 bound_to 10713
  140.3078  134.8110  157.4151 LP  0  0  0  0  0  0  0  0  0  0  0  0  # atno 17394 bound_to 11000
  140.1205  134.5226  155.8188 LP  0  0  0  0  0  0  0  0  0  0  0  0  # atno 17395 bound_to 11000

$$$$
