AV-unprocessed.smi:1196|AV-procd|sdf|4996|dock1
  -GOLD-   22720 4 03D 1   1.00000     0.00000
 Structure written by MMmdl.
 37 38  0  0  0  0  0  0  0  0  1 V2000
  151.8979  140.7729  158.0285 C   0  0  0  0  0  0  0  0  0  0  0  0
  150.9603  141.7658  157.3238 C   0  0  2  0  0  0  0  0  0  0  0  0
  150.1325  142.5768  158.3399 C   0  0  0  0  0  0  0  0  0  0  0  0
  150.8903  143.6648  158.9327 N   0  0  0  0  0  0  0  0  0  0  0  0
  151.6007  144.6610  158.2964 C   0  0  0  0  0  0  0  0  0  0  0  0
  152.1496  145.4510  159.2654 C   0  0  0  0  0  0  0  0  0  0  0  0
  151.7097  144.8519  160.4789 C   0  0  0  0  0  0  0  0  0  0  0  0
  150.9543  143.7844  160.2765 N   0  0  0  0  0  0  0  0  0  0  0  0
  150.0716  141.0486  156.4107 N   0  0  0  0  0  0  0  0  0  0  0  0
  150.4646  140.3009  155.3681 C   0  0  0  0  0  0  0  0  0  0  0  0
  151.6464  140.1230  155.0720 O   0  0  0  0  0  0  0  0  0  0  0  0
  149.3475  139.6660  154.5341 C   0  0  0  0  0  0  0  0  0  0  0  0
  148.4738  138.6848  155.3401 C   0  0  0  0  0  0  0  0  0  0  0  0
  147.2871  138.1272  154.5299 C   0  0  2  0  0  0  0  0  0  0  0  0
  147.6088  137.9211  153.1279 N   0  0  0  0  0  0  0  0  0  0  0  0
  146.8228  138.6358  152.3111 C   0  0  0  0  0  0  0  0  0  0  0  0
  146.8764  138.6445  151.0837 O   0  0  0  0  0  0  0  0  0  0  0  0
  145.9720  139.3378  153.0671 N   0  0  0  0  0  0  0  0  0  0  0  0
  146.1578  139.1297  154.3695 C   0  0  0  0  0  0  0  0  0  0  0  0
  145.5382  139.6461  155.2973 O   0  0  0  0  0  0  0  0  0  0  0  0
  152.5800  141.2911  158.7031 H   0  0  0  0  0  0  0  0  0  0  0  0
  152.5052  140.2232  157.3088 H   0  0  0  0  0  0  0  0  0  0  0  0
  151.3371  140.0453  158.6163 H   0  0  0  0  0  0  0  0  0  0  0  0
  151.5762  142.4645  156.7544 H   0  0  0  0  0  0  0  0  0  0  0  0
  149.2400  142.9887  157.8669 H   0  0  0  0  0  0  0  0  0  0  0  0
  149.7854  141.9284  159.1457 H   0  0  0  0  0  0  0  0  0  0  0  0
  151.6584  144.7223  157.2196 H   0  0  0  0  0  0  0  0  0  0  0  0
  152.7704  146.3239  159.1285 H   0  0  0  0  0  0  0  0  0  0  0  0
  151.9149  145.1594  161.4938 H   0  0  0  0  0  0  0  0  0  0  0  0
  149.0803  141.1390  156.5787 H   0  0  0  0  0  0  0  0  0  0  0  0
  148.7247  140.4574  154.1146 H   0  0  0  0  0  0  0  0  0  0  0  0
  149.8045  139.1475  153.6906 H   0  0  0  0  0  0  0  0  0  0  0  0
  149.0886  137.8491  155.6788 H   0  0  0  0  0  0  0  0  0  0  0  0
  148.1075  139.1784  156.2424 H   0  0  0  0  0  0  0  0  0  0  0  0
  146.9055  137.2034  154.9666 H   0  0  0  0  0  0  0  0  0  0  0  0
  148.3419  137.3006  152.8171 H   0  0  0  0  0  0  0  0  0  0  0  0
  145.2735  139.9630  152.6925 H   0  0  0  0  0  0  0  0  0  0  0  0
  1  2  1  0  0  0  0
  1 21  1  0  0  0  0
  1 22  1  0  0  0  0
  1 23  1  0  0  0  0
  2  3  1  0  0  0  0
  2  9  1  0  0  0  0
  2 24  1  0  0  0  0
  3  4  1  0  0  0  0
  3 25  1  0  0  0  0
  3 26  1  0  0  0  0
  4  8  1  0  0  0  0
  4  5  1  0  0  0  0
  5  6  2  0  0  0  0
  5 27  1  0  0  0  0
  6  7  1  0  0  0  0
  6 28  1  0  0  0  0
  7  8  2  0  0  0  0
  7 29  1  0  0  0  0
  9 10  1  0  0  0  0
  9 30  1  0  0  0  0
 10 11  2  0  0  0  0
 10 12  1  0  0  0  0
 12 13  1  0  0  0  0
 12 31  1  0  0  0  0
 12 32  1  0  0  0  0
 13 14  1  0  0  0  0
 13 33  1  0  0  0  0
 13 34  1  0  0  0  0
 14 19  1  0  0  0  0
 14 15  1  0  0  0  0
 14 35  1  0  0  0  0
 15 16  1  0  0  0  0
 15 36  1  0  0  0  0
 16 17  2  0  0  0  0
 16 18  1  0  0  0  0
 18 19  1  0  0  0  0
 18 37  1  0  0  0  0
 19 20  2  0  0  0  0
M  END
> <s_m_source_file>
AV-unprocessed.smi

> <i_m_source_file_index>
1196

> <i_lp_mmshare_version>
43012

> <i_f3d_flags>
0

> <s_epik_input>
bjFbY0hdW2NIXVtjSF1uMVtDSDJdW0NAQEhdKFtDSDNdKVtOSF1DKD1PKVtDSDJdW0NIMl1bQ0BASF0yW05IXUMoPU8pW05IXUMyPU8=

> <s_epik_cmdline>
J2VwaWtfcHl0aG9uJywgJy1waCcsICc3LjAnLCAnLXRuJywgJzgnLCAnLW1hJywgJzIwMCcsICctbWV0YWxfYmluZGluZycsICctaW1hZScsICc8aW5maWxlLm1hZT4nLCAnLW9tYWUnLCAnPG91dGZpbGUubWFlPic=

> <r_lp_tautomer_probability>
1

> <r_epik_Ionization_Penalty>
0.00815973

> <r_epik_Ionization_Penalty_Charging>
0

> <r_epik_Ionization_Penalty_Neutral>
0.00815973

> <r_epik_State_Penalty>
0.00583796

> <r_epik_Charging_Adjusted_Penalty>
0.00583796

> <i_epik_Tot_Q>
0

> <i_epik_Tot_abs_Q>
0

> <r_epik_Metal_State_Penalty>
0.409204

> <b_epik_Metal_Only>
0

> <s_lp_Force_Field>
OPLS_2005

> <r_lp_Energy>
19.6523

> <b_lp_Chiralities_Consistent>
1

> <s_lp_Variant>
AV-unprocessed.smi:1196-1

> <Gold.Version>
5.8.1

> <Gold.Id.Protein>
6NUR|6NUR_protein|mol2

> <Gold.PLP.Fitness>
48.9473

> <Gold.PLP.PLP>
-37.8518

> <Gold.PLP.part.hbond>
-4.2027

> <Gold.PLP.part.metal>
0.0000

> <Gold.PLP.part.buried>
-6.9539

> <Gold.PLP.part.nonpolar>
-27.2148

> <Gold.PLP.part.repulsive>
1.1337

> <Gold.PLP.ligand.clash>
0.0000

> <Gold.PLP.ligand.torsion>
0.4566

> <Gold.PLP.Chemscore.Hbond>
3.9680

> <Gold.PLP.Chemscore.CHOScore>
0.0000

> <Gold.PLP.Chemscore.Metal>
0.0000

> <Gold.Chemscore.Hbonds>
donor molecule, donor type, donor heavy atom, donor atom, acceptor molecule, acceptor atom, score
      L1  H    15    36       P1  7948  1.00
      L1  H    18    37       P1 10175  1.00
      P1  H  7954  7966       L1    17  0.99
      P1  H  7989  7998       L1    11  0.94

> <Gold.PLP.Chemscore.Internal.Correction>
0.1047

> <Gold.Rescore>
     Score         DG    S(hbond)    S(metal)    S(lipo)     H(rot)  DE(clash)    DE(int)     intcor
     16.25     -16.93       3.41        0.00      65.21       2.96       0.14       0.54       ----

> <Gold.Chemscore.Fitness>
16.2504

> <Gold.Chemscore.DG>
-16.9282

> <Gold.Chemscore.ZeroCoef>
-5.4800

> <Gold.Chemscore.Hbond>
3.4102

> <Gold.Chemscore.Metal>
0.0000

> <Gold.Chemscore.Lipo>
65.2093

> <Gold.Chemscore.Internal_Hbond>
0.0000

> <Gold.Chemscore.DEClash>
0.1352

> <Gold.Chemscore.DEInternal>
0.5427

> <Gold.Chemscore.Rot>
2.9575

> <Gold.Chemscore.Internal.Correction>
   9.000000E+99

> <Gold.Chemscore.Hbonds>
donor molecule, donor type, donor heavy atom, donor atom, acceptor molecule, acceptor atom, score
      L1  H    15    36       P1  7948  0.93
      L1  H    18    37       P1 10175  0.96
      P1  H  7954  7966       L1    17  0.94
      P1  H  7989  7998       L1    11  0.20

> <Gold.Chemscore.Hbond.Weighted>
-11.3901

> <Gold.Chemscore.Metal.Weighted>
-0.0000

> <Gold.Chemscore.Lipo.Weighted>
-7.6295

> <Gold.Chemscore.Internal_Hbond.Weighted>
0.0000

> <Gold.Chemscore.DEClash.Weighted>
0.1352

> <Gold.Chemscore.DEInternal.Weighted>
0.5427

> <Gold.Chemscore.Rot.Weighted>
7.5713

> <Gold.Chemscore.Internal.Correction.Weighted>
   9.000000E+99

> <Gold.Protein.RotatedTorsions>
[ 6907 6896 6895 6894 ] final  128.51 input  -60.11 | X-H torsion
[ 7974 7965 7964 7962 ] final -152.91 input  175.53 | X-H torsion
[ 8008 7997 7996 7995 ] final -133.70 input   59.86 | X-H torsion
[ 10167 10162 10161 10158 ] final   88.72 input  -65.29 | X-H torsion
[ 10718 10713 10712 10709 ] final  124.93 input   66.30 | X-H torsion
[ 10763 10752 10751 10750 ] final  -93.80 input  -60.55 | X-H torsion
[ 11005 11000 10999 10996 ] final -110.93 input  -57.11 | X-H torsion

> <Gold.Protein.ActiveResidues>
 VAL166  LYS551  ARG553  GLY616  TRP617  ASP618  TYR619  PRO620  LYS621  CYS622 
 ASP623  PHE694  ASN695  SER759  ASP760  ASP761  ALA762  ILE779  LEU786  VAL792 
 PHE793  MET794  SER795  GLU796  ALA797  LYS798  CYS799  TRP800  GLU811  SER814 

> <Gold.Protein.RotatedAtoms>
  152.3712  133.6421  159.6088 H   0  0  0  0  0  0  0  0  0  0  0  0  # atno 6907 bound_to 6896
  150.7670  133.9267  159.3423 H   0  0  0  0  0  0  0  0  0  0  0  0  # atno 6908 bound_to 6896
  151.7089  135.0917  160.0315 H   0  0  0  0  0  0  0  0  0  0  0  0  # atno 6909 bound_to 6896
  144.7768  140.4597  143.5867 H   0  0  0  0  0  0  0  0  0  0  0  0  # atno 7974 bound_to 7965
  155.3499  140.0477  157.3046 H   0  0  0  0  0  0  0  0  0  0  0  0  # atno 8008 bound_to 7997
  154.5233  140.2232  155.8901 H   0  0  0  0  0  0  0  0  0  0  0  0  # atno 8009 bound_to 7997
  156.1712  140.3095  155.8984 H   0  0  0  0  0  0  0  0  0  0  0  0  # atno 8010 bound_to 7997
  139.8644  144.6526  150.9020 H   0  0  0  0  0  0  0  0  0  0  0  0  # atno 10167 bound_to 10162
  157.5545  131.1092  150.8646 H   0  0  0  0  0  0  0  0  0  0  0  0  # atno 10718 bound_to 10713
  154.6994  135.5181  153.8504 H   0  0  0  0  0  0  0  0  0  0  0  0  # atno 10763 bound_to 10752
  153.0692  135.6595  154.0295 H   0  0  0  0  0  0  0  0  0  0  0  0  # atno 10764 bound_to 10752
  154.0156  135.2998  155.3367 H   0  0  0  0  0  0  0  0  0  0  0  0  # atno 10765 bound_to 10752
  141.0764  133.9294  157.2381 H   0  0  0  0  0  0  0  0  0  0  0  0  # atno 11005 bound_to 11000
  145.6162  139.1519  143.3048 LP  0  0  0  0  0  0  0  0  0  0  0  0  # atno 17320 bound_to 7965
  146.1953  140.6275  142.9127 LP  0  0  0  0  0  0  0  0  0  0  0  0  # atno 17321 bound_to 7965
  140.7770  143.3716  151.1638 LP  0  0  0  0  0  0  0  0  0  0  0  0  # atno 17342 bound_to 10162
  139.7342  143.9024  152.3029 LP  0  0  0  0  0  0  0  0  0  0  0  0  # atno 17343 bound_to 10162
  156.9161  130.5298  149.5279 LP  0  0  0  0  0  0  0  0  0  0  0  0  # atno 17370 bound_to 10713
  156.0606  130.5659  150.9184 LP  0  0  0  0  0  0  0  0  0  0  0  0  # atno 17371 bound_to 10713
  139.9576  135.0162  156.9172 LP  0  0  0  0  0  0  0  0  0  0  0  0  # atno 17394 bound_to 11000
  140.5565  134.0577  155.7385 LP  0  0  0  0  0  0  0  0  0  0  0  0  # atno 17395 bound_to 11000

$$$$
