AV-unprocessed.smi:2256|AV-procd|sdf|9126|dock3
  -GOLD-   2272012333D 1   1.00000     0.00000
 Structure written by MMmdl.
 42 44  0  0  0  0  0  0  0  0  1 V2000
  152.8641  143.2594  161.3139 C   0  0  0  0  0  0  0  0  0  0  0  0
  152.6677  142.1360  160.3114 C   0  0  0  0  0  0  0  0  0  0  0  0
  151.4826  142.1873  159.5716 N   0  0  0  0  0  0  0  0  0  0  0  0
  151.2253  141.2665  158.7012 C   0  0  0  0  0  0  0  0  0  0  0  0
  152.1109  140.2012  158.4708 N   0  0  0  0  0  0  0  0  0  0  0  0
  151.6973  139.2161  157.4578 C   0  0  0  0  0  0  0  0  0  0  0  0
  152.4066  139.4368  156.1026 C   0  0  2  0  0  0  0  0  0  0  0  0
  152.4582  140.8144  155.7898 O   0  0  0  0  0  0  0  0  0  0  0  0
  151.7117  138.7152  154.9353 C   0  0  0  0  0  0  0  0  0  0  0  0
  150.3166  138.6114  155.1924 O   0  0  0  0  0  0  0  0  0  0  0  0
  149.4798  139.5902  154.6999 C   0  0  0  0  0  0  0  0  0  0  0  0
  149.9354  140.8239  154.1653 C   0  0  0  0  0  0  0  0  0  0  0  0
  149.0229  141.7795  153.6790 C   0  0  0  0  0  0  0  0  0  0  0  0
  147.6432  141.5180  153.7191 C   0  0  0  0  0  0  0  0  0  0  0  0
  147.1918  140.2972  154.2475 C   0  0  0  0  0  0  0  0  0  0  0  0
  145.9268  139.7690  154.4151 N   0  0  0  0  0  0  0  0  0  0  0  0
  145.9941  138.5118  154.9890 C   0  0  0  0  0  0  0  0  0  0  0  0
  147.3092  138.1943  155.2080 C   0  0  0  0  0  0  0  0  0  0  0  0
  148.0913  139.3098  154.7470 C   0  0  0  0  0  0  0  0  0  0  0  0
  153.2957  140.0835  159.1374 C   0  0  0  0  0  0  0  0  0  0  0  0
  154.0747  139.1551  158.9127 O   0  0  0  0  0  0  0  0  0  0  0  0
  153.5715  141.1346  160.1301 C   0  0  0  0  0  0  0  0  0  0  0  0
  154.8776  141.0258  160.9071 C   0  0  0  0  0  0  0  0  0  0  0  0
  145.0566  140.2158  154.1641 H   0  0  0  0  0  0  0  0  0  0  0  0
  152.9302  142.8592  162.3259 H   0  0  0  0  0  0  0  0  0  0  0  0
  152.0332  143.9652  161.2873 H   0  0  0  0  0  0  0  0  0  0  0  0
  153.7781  143.8122  161.0958 H   0  0  0  0  0  0  0  0  0  0  0  0
  150.3171  141.2624  158.0959 H   0  0  0  0  0  0  0  0  0  0  0  0
  151.9384  138.2191  157.8316 H   0  0  0  0  0  0  0  0  0  0  0  0
  150.6136  139.1945  157.3227 H   0  0  0  0  0  0  0  0  0  0  0  0
  153.4349  139.0764  156.1487 H   0  0  0  0  0  0  0  0  0  0  0  0
  152.2715  141.3087  156.5731 H   0  0  0  0  0  0  0  0  0  0  0  0
  151.9022  139.2368  153.9957 H   0  0  0  0  0  0  0  0  0  0  0  0
  152.1317  137.7118  154.8487 H   0  0  0  0  0  0  0  0  0  0  0  0
  150.9865  141.0633  154.1161 H   0  0  0  0  0  0  0  0  0  0  0  0
  149.3841  142.7138  153.2751 H   0  0  0  0  0  0  0  0  0  0  0  0
  146.9387  142.2474  153.3477 H   0  0  0  0  0  0  0  0  0  0  0  0
  145.0984  137.9445  155.1954 H   0  0  0  0  0  0  0  0  0  0  0  0
  147.6973  137.2850  155.6427 H   0  0  0  0  0  0  0  0  0  0  0  0
  155.7255  141.0368  160.2214 H   0  0  0  0  0  0  0  0  0  0  0  0
  154.9054  140.0887  161.4643 H   0  0  0  0  0  0  0  0  0  0  0  0
  155.0223  141.8350  161.6206 H   0  0  0  0  0  0  0  0  0  0  0  0
  1  2  1  0  0  0  0
  1 25  1  0  0  0  0
  1 26  1  0  0  0  0
  1 27  1  0  0  0  0
  2 22  2  0  0  0  0
  2  3  1  0  0  0  0
  3  4  2  0  0  0  0
  4  5  1  0  0  0  0
  4 28  1  0  0  0  0
  5  6  1  0  0  0  0
  5 20  1  0  0  0  0
  6  7  1  0  0  0  0
  6 29  1  0  0  0  0
  6 30  1  0  0  0  0
  7  8  1  0  0  0  0
  7  9  1  0  0  0  0
  7 31  1  0  0  0  0
  8 32  1  0  0  0  0
  9 10  1  0  0  0  0
  9 33  1  0  0  0  0
  9 34  1  0  0  0  0
 10 11  1  0  0  0  0
 11 19  1  0  0  0  0
 11 12  2  0  0  0  0
 12 13  1  0  0  0  0
 12 35  1  0  0  0  0
 13 14  2  0  0  0  0
 13 36  1  0  0  0  0
 14 15  1  0  0  0  0
 14 37  1  0  0  0  0
 15 19  2  0  0  0  0
 15 16  1  0  0  0  0
 16 24  1  0  0  0  0
 16 17  1  0  0  0  0
 17 18  2  0  0  0  0
 17 38  1  0  0  0  0
 18 19  1  0  0  0  0
 18 39  1  0  0  0  0
 20 21  2  0  0  0  0
 20 22  1  0  0  0  0
 22 23  1  0  0  0  0
 23 40  1  0  0  0  0
 23 41  1  0  0  0  0
 23 42  1  0  0  0  0
M  END
> <s_m_source_file>
AV-unprocessed.smi

> <i_m_source_file_index>
2256

> <i_lp_mmshare_version>
43012

> <i_f3d_flags>
0

> <s_epik_input>
W0NIM11jMW5bY0hdbihjKD1PKWMxW0NIM10pW0NIMl1bQ0BIXShbT0hdKVtDSDJdT2MoW2NIXVtjSF1bY0hdMiljKGMyMylbY0hdW2NIXVtuSF0z

> <s_epik_cmdline>
J2VwaWtfcHl0aG9uJywgJy1waCcsICc3LjAnLCAnLXRuJywgJzgnLCAnLW1hJywgJzIwMCcsICctbWV0YWxfYmluZGluZycsICctaW1hZScsICc8aW5maWxlLm1hZT4nLCAnLW9tYWUnLCAnPG91dGZpbGUubWFlPic=

> <r_lp_tautomer_probability>
1

> <r_epik_Ionization_Penalty>
4.18314e-05

> <r_epik_Ionization_Penalty_Charging>
1.04093e-07

> <r_epik_Ionization_Penalty_Neutral>
4.17273e-05

> <r_epik_State_Penalty>
-0

> <r_epik_Charging_Adjusted_Penalty>
1.04093e-07

> <i_epik_Tot_Q>
0

> <i_epik_Tot_abs_Q>
0

> <r_epik_Metal_State_Penalty>
-0

> <b_epik_Metal_Only>
0

> <s_lp_Force_Field>
OPLS_2005

> <r_lp_Energy>
26.398

> <b_lp_Chiralities_Consistent>
1

> <s_lp_Variant>
AV-unprocessed.smi:2256-1

> <Gold.Version>
5.8.1

> <Gold.Id.Protein>
6NUR|6NUR_protein|mol2

> <Gold.PLP.Fitness>
40.6201

> <Gold.PLP.PLP>
-37.9770

> <Gold.PLP.part.hbond>
-3.9371

> <Gold.PLP.part.metal>
0.0000

> <Gold.PLP.part.buried>
-1.8355

> <Gold.PLP.part.nonpolar>
-32.1830

> <Gold.PLP.part.repulsive>
0.0848

> <Gold.PLP.ligand.clash>
0.0000

> <Gold.PLP.ligand.torsion>
1.1672

> <Gold.PLP.Chemscore.Hbond>
1.6055

> <Gold.PLP.Chemscore.CHOScore>
0.0000

> <Gold.PLP.Chemscore.Metal>
0.0000

> <Gold.Chemscore.Hbonds>
donor molecule, donor type, donor heavy atom, donor atom, acceptor molecule, acceptor atom, score
      L1  H    16    24       P1 10175  0.51
      P1  H  7989  7998       L1     8  0.02
      P1  H  7997  8010       L1    21  0.55

> <Gold.PLP.Chemscore.Internal.Correction>
0.1609

> <Gold.Rescore>
     Score         DG    S(hbond)    S(metal)    S(lipo)     H(rot)  DE(clash)    DE(int)     intcor
     13.80     -17.71       2.18        0.00      98.75       2.58       1.34       2.57       ----

> <Gold.Chemscore.Fitness>
13.7986

> <Gold.Chemscore.DG>
-17.7079

> <Gold.Chemscore.ZeroCoef>
-5.4800

> <Gold.Chemscore.Hbond>
2.1795

> <Gold.Chemscore.Metal>
0.0000

> <Gold.Chemscore.Lipo>
98.7543

> <Gold.Chemscore.Internal_Hbond>
0.0000

> <Gold.Chemscore.DEClash>
1.3417

> <Gold.Chemscore.DEInternal>
2.5676

> <Gold.Chemscore.Rot>
2.5804

> <Gold.Chemscore.Internal.Correction>
   9.000000E+99

> <Gold.Chemscore.Hbonds>
donor molecule, donor type, donor heavy atom, donor atom, acceptor molecule, acceptor atom, score
      L1  H    16    24       P1 10175  0.50
      P1  H  7989  7998       L1     8  0.01
      P1  H  7997  8010       L1    21  0.04

> <Gold.Chemscore.Hbond.Weighted>
-7.2796

> <Gold.Chemscore.Metal.Weighted>
-0.0000

> <Gold.Chemscore.Lipo.Weighted>
-11.5543

> <Gold.Chemscore.Internal_Hbond.Weighted>
0.0000

> <Gold.Chemscore.DEClash.Weighted>
1.3417

> <Gold.Chemscore.DEInternal.Weighted>
2.5676

> <Gold.Chemscore.Rot.Weighted>
6.6059

> <Gold.Chemscore.Internal.Correction.Weighted>
   9.000000E+99

> <Gold.Protein.RotatedTorsions>
[ 6907 6896 6895 6894 ] final -130.28 input  -60.11 | X-H torsion
[ 7974 7965 7964 7962 ] final   33.29 input  175.53 | X-H torsion
[ 8008 7997 7996 7995 ] final   25.21 input   59.86 | X-H torsion
[ 10167 10162 10161 10158 ] final    0.93 input  -65.29 | X-H torsion
[ 10718 10713 10712 10709 ] final   86.58 input   66.30 | X-H torsion
[ 10763 10752 10751 10750 ] final  170.71 input  -60.55 | X-H torsion
[ 11005 11000 10999 10996 ] final  -90.13 input  -57.11 | X-H torsion

> <Gold.Protein.ActiveResidues>
 VAL166  LYS551  ARG553  GLY616  TRP617  ASP618  TYR619  PRO620  LYS621  CYS622 
 ASP623  PHE694  ASN695  SER759  ASP760  ASP761  ALA762  ILE779  LEU786  VAL792 
 PHE793  MET794  SER795  GLU796  ALA797  LYS798  CYS799  TRP800  GLU811  SER814 

> <Gold.Protein.RotatedAtoms>
  150.9380  133.6689  159.2796 H   0  0  0  0  0  0  0  0  0  0  0  0  # atno 6907 bound_to 6896
  151.4088  135.0981  159.9588 H   0  0  0  0  0  0  0  0  0  0  0  0  # atno 6908 bound_to 6896
  152.5056  133.8857  159.7424 H   0  0  0  0  0  0  0  0  0  0  0  0  # atno 6909 bound_to 6896
  146.1430  139.6416  142.9150 H   0  0  0  0  0  0  0  0  0  0  0  0  # atno 7974 bound_to 7965
  155.0081  140.3133  155.4840 H   0  0  0  0  0  0  0  0  0  0  0  0  # atno 8008 bound_to 7997
  156.2914  140.2219  156.5136 H   0  0  0  0  0  0  0  0  0  0  0  0  # atno 8009 bound_to 7997
  154.7558  140.0462  157.0920 H   0  0  0  0  0  0  0  0  0  0  0  0  # atno 8010 bound_to 7997
  140.6706  143.7059  150.7915 H   0  0  0  0  0  0  0  0  0  0  0  0  # atno 10167 bound_to 10162
  157.6930  131.0221  150.2995 H   0  0  0  0  0  0  0  0  0  0  0  0  # atno 10718 bound_to 10713
  154.4014  135.2755  155.2094 H   0  0  0  0  0  0  0  0  0  0  0  0  # atno 10763 bound_to 10752
  154.4118  135.6020  153.5961 H   0  0  0  0  0  0  0  0  0  0  0  0  # atno 10764 bound_to 10752
  152.9831  135.5951  154.4283 H   0  0  0  0  0  0  0  0  0  0  0  0  # atno 10765 bound_to 10752
  141.1572  133.7673  156.9694 H   0  0  0  0  0  0  0  0  0  0  0  0  # atno 11005 bound_to 11000
  145.5002  141.0437  143.2544 LP  0  0  0  0  0  0  0  0  0  0  0  0  # atno 17320 bound_to 7965
  144.7814  139.6518  143.7152 LP  0  0  0  0  0  0  0  0  0  0  0  0  # atno 17321 bound_to 7965
  140.0744  143.5030  152.2563 LP  0  0  0  0  0  0  0  0  0  0  0  0  # atno 17342 bound_to 10162
  139.5973  144.7571  151.3256 LP  0  0  0  0  0  0  0  0  0  0  0  0  # atno 17343 bound_to 10162
  156.3513  130.3831  149.7327 LP  0  0  0  0  0  0  0  0  0  0  0  0  # atno 17370 bound_to 10713
  156.4804  130.8038  151.3053 LP  0  0  0  0  0  0  0  0  0  0  0  0  # atno 17371 bound_to 10713
  140.1140  134.9459  157.2107 LP  0  0  0  0  0  0  0  0  0  0  0  0  # atno 17394 bound_to 11000
  140.3157  134.2973  155.7257 LP  0  0  0  0  0  0  0  0  0  0  0  0  # atno 17395 bound_to 11000

$$$$
