AV-unprocessed.smi:1326|AV-procd|sdf|5475|dock2
  -GOLD-   22720 5 43D 1   1.00000     0.00000
 Structure written by MMmdl.
 39 39  0  0  0  0  0  0  0  0  1 V2000
  144.3511  143.9599  158.2761 C   0  0  0  0  0  0  0  0  0  0  0  0
  145.3198  143.1676  157.4254 C   0  0  0  0  0  0  0  0  0  0  0  0
  145.3311  143.5488  156.0941 N   0  0  0  0  0  0  0  0  0  0  0  0
  146.1916  142.8852  155.2375 C   0  0  0  0  0  0  0  0  0  0  0  0
  146.1435  143.3667  153.7981 C   0  0  0  0  0  0  0  0  0  0  0  0
  146.9975  141.8886  155.6842 C   0  0  0  0  0  0  0  0  0  0  0  0
  147.9628  141.1339  154.7709 C   0  0  0  0  0  0  0  0  0  0  0  0
  149.4427  141.2187  155.1499 C   0  0  0  0  0  0  0  0  0  0  0  0
  150.2660  140.5058  154.5765 O   0  0  0  0  0  0  0  0  0  0  0  0
  149.7684  142.1021  156.1064 N   0  0  0  0  0  0  0  0  0  0  0  0
  151.1194  142.3518  156.5938 C   0  0  0  0  0  0  0  0  0  0  0  0
  151.1871  142.2418  158.1279 C   0  0  0  0  0  0  0  0  0  0  0  0
  152.4514  142.8684  158.7504 C   0  0  0  0  0  0  0  0  0  0  0  0
  152.5845  142.5588  160.2511 C   0  0  0  0  0  0  0  0  0  0  0  0
  152.4761  144.3862  158.5126 C   0  0  0  0  0  0  0  0  0  0  0  0
  146.9343  141.5193  157.1186 C   0  0  0  0  0  0  0  0  0  0  0  0
  147.6260  140.6132  157.5816 O   0  0  0  0  0  0  0  0  0  0  0  0
  146.0496  142.2288  157.9469 N   0  0  0  0  0  0  0  0  0  0  0  0
  144.7497  144.2852  155.7201 H   0  0  0  0  0  0  0  0  0  0  0  0
  144.2938  143.5510  159.2857 H   0  0  0  0  0  0  0  0  0  0  0  0
  143.3514  143.9333  157.8417 H   0  0  0  0  0  0  0  0  0  0  0  0
  144.6722  144.9998  158.3459 H   0  0  0  0  0  0  0  0  0  0  0  0
  145.8709  142.5488  153.1311 H   0  0  0  0  0  0  0  0  0  0  0  0
  147.1161  143.7521  153.4924 H   0  0  0  0  0  0  0  0  0  0  0  0
  145.4112  144.1638  153.6645 H   0  0  0  0  0  0  0  0  0  0  0  0
  147.8540  141.4599  153.7360 H   0  0  0  0  0  0  0  0  0  0  0  0
  147.6729  140.0827  154.7574 H   0  0  0  0  0  0  0  0  0  0  0  0
  149.0262  142.6482  156.5201 H   0  0  0  0  0  0  0  0  0  0  0  0
  151.7756  141.6172  156.1284 H   0  0  0  0  0  0  0  0  0  0  0  0
  151.4654  143.3325  156.2631 H   0  0  0  0  0  0  0  0  0  0  0  0
  150.3100  142.7358  158.5486 H   0  0  0  0  0  0  0  0  0  0  0  0
  151.1125  141.1946  158.4243 H   0  0  0  0  0  0  0  0  0  0  0  0
  153.3213  142.4488  158.2435 H   0  0  0  0  0  0  0  0  0  0  0  0
  151.7175  142.9158  160.8081 H   0  0  0  0  0  0  0  0  0  0  0  0
  153.4689  143.0379  160.6722 H   0  0  0  0  0  0  0  0  0  0  0  0
  152.6830  141.4894  160.4352 H   0  0  0  0  0  0  0  0  0  0  0  0
  151.6209  144.8743  158.9813 H   0  0  0  0  0  0  0  0  0  0  0  0
  152.4492  144.6190  157.4476 H   0  0  0  0  0  0  0  0  0  0  0  0
  153.3813  144.8354  158.9220 H   0  0  0  0  0  0  0  0  0  0  0  0
  1 20  1  0  0  0  0
  1 21  1  0  0  0  0
  1 22  1  0  0  0  0
  1  2  1  0  0  0  0
  2  3  1  0  0  0  0
  2 18  2  0  0  0  0
  3  4  1  0  0  0  0
  3 19  1  0  0  0  0
  4  6  2  0  0  0  0
  4  5  1  0  0  0  0
  5 23  1  0  0  0  0
  5 24  1  0  0  0  0
  5 25  1  0  0  0  0
  6 16  1  0  0  0  0
  6  7  1  0  0  0  0
  7  8  1  0  0  0  0
  7 26  1  0  0  0  0
  7 27  1  0  0  0  0
  8  9  2  0  0  0  0
  8 10  1  0  0  0  0
 10 11  1  0  0  0  0
 10 28  1  0  0  0  0
 11 12  1  0  0  0  0
 11 29  1  0  0  0  0
 11 30  1  0  0  0  0
 12 13  1  0  0  0  0
 12 31  1  0  0  0  0
 12 32  1  0  0  0  0
 13 14  1  0  0  0  0
 13 15  1  0  0  0  0
 13 33  1  0  0  0  0
 14 34  1  0  0  0  0
 14 35  1  0  0  0  0
 14 36  1  0  0  0  0
 15 37  1  0  0  0  0
 15 38  1  0  0  0  0
 15 39  1  0  0  0  0
 16 17  2  0  0  0  0
 16 18  1  0  0  0  0
M  END
> <s_m_source_file>
AV-unprocessed.smi

> <i_m_source_file_index>
1326

> <i_lp_mmshare_version>
43012

> <i_f3d_flags>
0

> <s_epik_input>
W0NIM11jMW5jKFtDSDNdKWMoYyg9TylbbkhdMSlbQ0gyXUMoPU8pW05IXVtDSDJdW0NIMl1bQ0hdKFtDSDNdKVtDSDNd

> <s_epik_cmdline>
J2VwaWtfcHl0aG9uJywgJy1waCcsICc3LjAnLCAnLXRuJywgJzgnLCAnLW1hJywgJzIwMCcsICctbWV0YWxfYmluZGluZycsICctaW1hZScsICc8aW5maWxlLm1hZT4nLCAnLW9tYWUnLCAnPG91dGZpbGUubWFlPic=

> <r_lp_tautomer_probability>
0.156392

> <r_epik_Ionization_Penalty>
0.0135605

> <r_epik_Ionization_Penalty_Charging>
0.013428

> <r_epik_Ionization_Penalty_Neutral>
0.000132491

> <r_epik_State_Penalty>
1.15342

> <r_epik_Charging_Adjusted_Penalty>
1.16684

> <i_epik_Tot_Q>
0

> <i_epik_Tot_abs_Q>
0

> <r_epik_Metal_State_Penalty>
1.31299

> <b_epik_Metal_Only>
0

> <s_lp_Force_Field>
OPLS_2005

> <r_lp_Energy>
9.03726

> <b_lp_Chiralities_Consistent>
1

> <s_lp_Variant>
AV-unprocessed.smi:1326-2

> <Gold.Version>
5.8.1

> <Gold.Id.Protein>
6NUR|6NUR_protein|mol2

> <Gold.PLP.Fitness>
38.1170

> <Gold.PLP.PLP>
-34.7003

> <Gold.PLP.part.hbond>
-2.0000

> <Gold.PLP.part.metal>
0.0000

> <Gold.PLP.part.buried>
-5.4211

> <Gold.PLP.part.nonpolar>
-27.0390

> <Gold.PLP.part.repulsive>
0.3381

> <Gold.PLP.ligand.clash>
0.0000

> <Gold.PLP.ligand.torsion>
0.2055

> <Gold.PLP.Chemscore.Hbond>
1.2545

> <Gold.PLP.Chemscore.CHOScore>
0.0000

> <Gold.PLP.Chemscore.Metal>
0.0000

> <Gold.Chemscore.Hbonds>
donor molecule, donor type, donor heavy atom, donor atom, acceptor molecule, acceptor atom, score
      L1  H    10    28       P1  8028  0.13
      P1  H  7989  7998       L1     9  0.94

> <Gold.PLP.Chemscore.Internal.Correction>
0.0643

> <Gold.Rescore>
     Score         DG    S(hbond)    S(metal)    S(lipo)     H(rot)  DE(clash)    DE(int)     intcor
     14.14     -14.79       1.42        0.00      80.51       1.89       0.31       0.34       ----

> <Gold.Chemscore.Fitness>
14.1415

> <Gold.Chemscore.DG>
-14.7948

> <Gold.Chemscore.ZeroCoef>
-5.4800

> <Gold.Chemscore.Hbond>
1.4184

> <Gold.Chemscore.Metal>
0.0000

> <Gold.Chemscore.Lipo>
80.5121

> <Gold.Chemscore.Internal_Hbond>
0.0000

> <Gold.Chemscore.DEClash>
0.3140

> <Gold.Chemscore.DEInternal>
0.3393

> <Gold.Chemscore.Rot>
1.8916

> <Gold.Chemscore.Internal.Correction>
   9.000000E+99

> <Gold.Chemscore.Hbonds>
donor molecule, donor type, donor heavy atom, donor atom, acceptor molecule, acceptor atom, score
      L1  H    10    28       P1  8028  0.12
      P1  H  7989  7998       L1     9  0.91

> <Gold.Chemscore.Hbond.Weighted>
-4.7373

> <Gold.Chemscore.Metal.Weighted>
-0.0000

> <Gold.Chemscore.Lipo.Weighted>
-9.4199

> <Gold.Chemscore.Internal_Hbond.Weighted>
0.0000

> <Gold.Chemscore.DEClash.Weighted>
0.3140

> <Gold.Chemscore.DEInternal.Weighted>
0.3393

> <Gold.Chemscore.Rot.Weighted>
4.8424

> <Gold.Chemscore.Internal.Correction.Weighted>
   9.000000E+99

> <Gold.Protein.RotatedTorsions>
[ 6907 6896 6895 6894 ] final  149.85 input  -60.11 | X-H torsion
[ 7974 7965 7964 7962 ] final   79.86 input  175.53 | X-H torsion
[ 8008 7997 7996 7995 ] final   35.61 input   59.86 | X-H torsion
[ 10167 10162 10161 10158 ] final  -71.94 input  -65.29 | X-H torsion
[ 10718 10713 10712 10709 ] final   72.41 input   66.30 | X-H torsion
[ 10763 10752 10751 10750 ] final   72.29 input  -60.55 | X-H torsion
[ 11005 11000 10999 10996 ] final  122.13 input  -57.11 | X-H torsion

> <Gold.Protein.ActiveResidues>
 VAL166  LYS551  ARG553  GLY616  TRP617  ASP618  TYR619  PRO620  LYS621  CYS622 
 ASP623  PHE694  ASN695  SER759  ASP760  ASP761  ALA762  ILE779  LEU786  VAL792 
 PHE793  MET794  SER795  GLU796  ALA797  LYS798  CYS799  TRP800  GLU811  SER814 

> <Gold.Protein.RotatedAtoms>
  152.1225  133.4361  159.4681 H   0  0  0  0  0  0  0  0  0  0  0  0  # atno 6907 bound_to 6896
  150.6873  134.2518  159.4523 H   0  0  0  0  0  0  0  0  0  0  0  0  # atno 6908 bound_to 6896
  152.0396  134.9719  160.0624 H   0  0  0  0  0  0  0  0  0  0  0  0  # atno 6909 bound_to 6896
  145.6588  139.2466  143.1934 H   0  0  0  0  0  0  0  0  0  0  0  0  # atno 7974 bound_to 7965
  155.1739  140.3294  155.4387 H   0  0  0  0  0  0  0  0  0  0  0  0  # atno 8008 bound_to 7997
  156.2500  140.1938  156.6791 H   0  0  0  0  0  0  0  0  0  0  0  0  # atno 8009 bound_to 7997
  154.6318  140.0581  156.9727 H   0  0  0  0  0  0  0  0  0  0  0  0  # atno 8010 bound_to 7997
  140.5233  143.2329  151.7392 H   0  0  0  0  0  0  0  0  0  0  0  0  # atno 10167 bound_to 10162
  157.6499  130.9577  150.0924 H   0  0  0  0  0  0  0  0  0  0  0  0  # atno 10718 bound_to 10713
  153.0450  135.5105  154.7722 H   0  0  0  0  0  0  0  0  0  0  0  0  # atno 10763 bound_to 10752
  154.6629  135.2941  154.9845 H   0  0  0  0  0  0  0  0  0  0  0  0  # atno 10764 bound_to 10752
  154.0690  135.6680  153.4874 H   0  0  0  0  0  0  0  0  0  0  0  0  # atno 10765 bound_to 10752
  139.9255  134.9640  156.8062 H   0  0  0  0  0  0  0  0  0  0  0  0  # atno 11005 bound_to 11000
  146.1143  140.7390  142.9488 LP  0  0  0  0  0  0  0  0  0  0  0  0  # atno 17320 bound_to 7965
  144.7096  140.3989  143.7091 LP  0  0  0  0  0  0  0  0  0  0  0  0  # atno 17321 bound_to 7965
  139.4930  144.4223  151.9964 LP  0  0  0  0  0  0  0  0  0  0  0  0  # atno 17342 bound_to 10162
  140.3321  144.3304  150.5985 LP  0  0  0  0  0  0  0  0  0  0  0  0  # atno 17343 bound_to 10162
  156.1869  130.3652  149.8960 LP  0  0  0  0  0  0  0  0  0  0  0  0  # atno 17370 bound_to 10713
  156.6898  130.8891  151.3587 LP  0  0  0  0  0  0  0  0  0  0  0  0  # atno 17371 bound_to 10713
  140.6349  133.9871  155.7679 LP  0  0  0  0  0  0  0  0  0  0  0  0  # atno 17394 bound_to 11000
  141.0809  134.0064  157.3387 LP  0  0  0  0  0  0  0  0  0  0  0  0  # atno 17395 bound_to 11000

$$$$
