AV-unprocessed.smi:3348|AV-procd|sdf|12922|dock8
  -GOLD-   2272019343D 1   1.00000     0.00000
 Structure written by MMmdl.
 47 48  0  0  0  0  0  0  0  0  2 V2000
  145.6100  135.4510  152.8089 C   0  0  0  0  0  0  0  0  0  0  0  0
  144.4798  134.4299  153.0196 C   0  0  1  0  0  0  0  0  0  0  0  0
  143.7058  134.1961  151.7056 C   0  0  0  0  0  0  0  0  0  0  0  0
  144.4400  133.3906  150.7430 N   0  0  0  0  0  0  0  0  0  0  0  0
  143.9863  132.8515  149.5572 C   0  0  0  0  0  0  0  0  0  0  0  0
  145.0217  132.1542  149.0039 C   0  0  0  0  0  0  0  0  0  0  0  0
  146.0779  132.3146  149.9435 C   0  0  0  0  0  0  0  0  0  0  0  0
  145.7249  133.0505  150.9850 N   0  0  0  0  0  0  0  0  0  0  0  0
  145.0114  133.1465  153.5325 N   0  3  0  0  0  0  0  0  0  0  0  0
  146.0960  133.2640  154.5292 C   0  0  0  0  0  0  0  0  0  0  0  0
  146.5040  131.8846  155.0546 C   0  0  0  0  0  0  0  0  0  0  0  0
  147.5864  131.4069  154.2697 O   0  0  0  0  0  0  0  0  0  0  0  0
  147.3966  130.1045  153.7301 C   0  0  1  0  0  0  0  0  0  0  0  0
  146.3281  130.1541  152.6170 C   0  0  0  0  0  0  0  0  0  0  0  0
  146.1861  128.7984  151.9097 C   0  0  0  0  0  0  0  0  0  0  0  0
  147.5344  128.3250  151.3501 C   0  0  0  0  0  0  0  0  0  0  0  0
  148.5986  128.2649  152.4559 C   0  0  0  0  0  0  0  0  0  0  0  0
  148.7550  129.6202  153.1743 C   0  0  2  0  0  0  0  0  0  0  0  0
  149.8214  129.5278  154.2779 C   0  0  0  0  0  0  0  0  0  0  0  0
  145.2192  136.3868  152.4083 H   0  0  0  0  0  0  0  0  0  0  0  0
  146.3567  135.0778  152.1072 H   0  0  0  0  0  0  0  0  0  0  0  0
  146.1195  135.6912  153.7417 H   0  0  0  0  0  0  0  0  0  0  0  0
  143.7867  134.8358  153.7580 H   0  0  0  0  0  0  0  0  0  0  0  0
  142.7599  133.6925  151.9098 H   0  0  0  0  0  0  0  0  0  0  0  0
  143.4559  135.1505  151.2393 H   0  0  0  0  0  0  0  0  0  0  0  0
  142.9760  133.0070  149.2081 H   0  0  0  0  0  0  0  0  0  0  0  0
  145.0227  131.6065  148.0731 H   0  0  0  0  0  0  0  0  0  0  0  0
  147.0819  131.9187  149.9016 H   0  0  0  0  0  0  0  0  0  0  0  0
  144.2472  132.6604  153.9800 H   0  0  0  0  0  0  0  0  0  0  0  0
  146.9613  133.7669  154.0979 H   0  0  0  0  0  0  0  0  0  0  0  0
  145.7459  133.8782  155.3596 H   0  0  0  0  0  0  0  0  0  0  0  0
  146.8188  131.9711  156.0955 H   0  0  0  0  0  0  0  0  0  0  0  0
  145.6549  131.2016  155.0247 H   0  0  0  0  0  0  0  0  0  0  0  0
  147.0789  129.4140  154.5138 H   0  0  0  0  0  0  0  0  0  0  0  0
  145.3603  130.4459  153.0238 H   0  0  0  0  0  0  0  0  0  0  0  0
  146.5974  130.9169  151.8856 H   0  0  0  0  0  0  0  0  0  0  0  0
  145.8001  128.0580  152.6116 H   0  0  0  0  0  0  0  0  0  0  0  0
  145.4548  128.8730  151.1044 H   0  0  0  0  0  0  0  0  0  0  0  0
  147.4219  127.3435  150.8888 H   0  0  0  0  0  0  0  0  0  0  0  0
  147.8630  129.0024  150.5609 H   0  0  0  0  0  0  0  0  0  0  0  0
  148.3259  127.4943  153.1783 H   0  0  0  0  0  0  0  0  0  0  0  0
  149.5523  127.9585  152.0247 H   0  0  0  0  0  0  0  0  0  0  0  0
  149.1010  130.3487  152.4393 H   0  0  0  0  0  0  0  0  0  0  0  0
  149.5202  128.8340  155.0633 H   0  0  0  0  0  0  0  0  0  0  0  0
  149.9993  130.4982  154.7419 H   0  0  0  0  0  0  0  0  0  0  0  0
  150.7733  129.1807  153.8754 H   0  0  0  0  0  0  0  0  0  0  0  0
  145.3336  132.5880  152.7548 H   0  0  0  0  0  0  0  0  0  0  0  0
  1  2  1  0  0  0  0
  1 20  1  0  0  0  0
  1 21  1  0  0  0  0
  1 22  1  0  0  0  0
  2  3  1  0  0  0  0
  2  9  1  0  0  0  0
  2 23  1  0  0  0  0
  3  4  1  0  0  0  0
  3 24  1  0  0  0  0
  3 25  1  0  0  0  0
  4  8  1  0  0  0  0
  4  5  1  0  0  0  0
  5  6  2  0  0  0  0
  5 26  1  0  0  0  0
  6  7  1  0  0  0  0
  6 27  1  0  0  0  0
  7  8  2  0  0  0  0
  7 28  1  0  0  0  0
  9 10  1  0  0  0  0
  9 29  1  0  0  0  0
  9 47  1  0  0  0  0
 10 11  1  0  0  0  0
 10 30  1  0  0  0  0
 10 31  1  0  0  0  0
 11 12  1  0  0  0  0
 11 32  1  0  0  0  0
 11 33  1  0  0  0  0
 12 13  1  0  0  0  0
 13 18  1  0  0  0  0
 13 14  1  0  0  0  0
 13 34  1  0  0  0  0
 14 15  1  0  0  0  0
 14 35  1  0  0  0  0
 14 36  1  0  0  0  0
 15 16  1  0  0  0  0
 15 37  1  0  0  0  0
 15 38  1  0  0  0  0
 16 17  1  0  0  0  0
 16 39  1  0  0  0  0
 16 40  1  0  0  0  0
 17 18  1  0  0  0  0
 17 41  1  0  0  0  0
 17 42  1  0  0  0  0
 18 19  1  0  0  0  0
 18 43  1  0  0  0  0
 19 44  1  0  0  0  0
 19 45  1  0  0  0  0
 19 46  1  0  0  0  0
M  CHG  1   9   1
M  END
> <s_m_source_file>
AV-unprocessed.smi

> <i_m_source_file_index>
3348

> <i_lp_mmshare_version>
43012

> <i_f3d_flags>
0

> <s_epik_input>
bjFbY0hdW2NIXVtjSF1uMVtDSDJdW0NAQEhdKFtDSDNdKVtOSF1bQ0gyXVtDSDJdT1tDQEBIXTJbQ0gyXVtDSDJdW0NIMl1bQ0gyXVtDQEhdMltDSDNd

> <s_epik_cmdline>
J2VwaWtfcHl0aG9uJywgJy1waCcsICc3LjAnLCAnLXRuJywgJzgnLCAnLW1hJywgJzIwMCcsICctbWV0YWxfYmluZGluZycsICctaW1hZScsICc8aW5maWxlLm1hZT4nLCAnLW9tYWUnLCAnPG91dGZpbGUubWFlPic=

> <r_lp_tautomer_probability>
1

> <r_epik_Ionization_Penalty>
0.00925088

> <r_epik_Ionization_Penalty_Charging>
0.00924645

> <r_epik_Ionization_Penalty_Neutral>
4.42413e-06

> <r_epik_State_Penalty>
0.0070118

> <r_epik_Charging_Adjusted_Penalty>
0.0162583

> <i_epik_Tot_Q>
1

> <i_epik_Tot_abs_Q>
1

> <r_epik_Metal_State_Penalty>
0.00701222

> <b_epik_Metal_Only>
0

> <s_lp_Force_Field>
OPLS_2005

> <r_lp_Energy>
15.644

> <b_lp_Chiralities_Consistent>
1

> <s_lp_Variant>
AV-unprocessed.smi:3348-8

> <Gold.Version>
5.8.1

> <Gold.Id.Protein>
6NUR|6NUR_protein|mol2

> <Gold.PLP.Fitness>
45.4552

> <Gold.PLP.PLP>
-35.2557

> <Gold.PLP.part.hbond>
-1.0000

> <Gold.PLP.part.metal>
0.0000

> <Gold.PLP.part.buried>
-3.5586

> <Gold.PLP.part.nonpolar>
-30.5662

> <Gold.PLP.part.repulsive>
0.1943

> <Gold.PLP.ligand.clash>
0.0000

> <Gold.PLP.ligand.torsion>
0.9685

> <Gold.PLP.Chemscore.Hbond>
2.0000

> <Gold.PLP.Chemscore.CHOScore>
2.0000

> <Gold.PLP.Chemscore.Metal>
0.0000

> <Gold.Chemscore.Hbonds>
donor molecule, donor type, donor heavy atom, donor atom, acceptor molecule, acceptor atom, score
      L1  H     9    29       P1 10957  2.00
      L1  C     5    26       P1 10186  1.00
      L1  C     7    28       P1 10747  1.00

> <Gold.PLP.Chemscore.Internal.Correction>
0.1364

> <Gold.Rescore>
     Score         DG    S(hbond)    S(metal)    S(lipo)     H(rot)  DE(clash)    DE(int)     intcor
     14.13     -15.10       0.89        0.00      96.69       1.82       0.03       0.94       ----

> <Gold.Chemscore.Fitness>
14.1331

> <Gold.Chemscore.DG>
-15.1050

> <Gold.Chemscore.ZeroCoef>
-5.4800

> <Gold.Chemscore.Hbond>
0.8867

> <Gold.Chemscore.Metal>
0.0000

> <Gold.Chemscore.Lipo>
96.6945

> <Gold.Chemscore.Internal_Hbond>
0.0000

> <Gold.Chemscore.DEClash>
0.0340

> <Gold.Chemscore.DEInternal>
0.9378

> <Gold.Chemscore.Rot>
1.8163

> <Gold.Chemscore.Internal.Correction>
   9.000000E+99

> <Gold.Chemscore.Hbonds>
donor molecule, donor type, donor heavy atom, donor atom, acceptor molecule, acceptor atom, score
      L1  H     9    29       P1 10957  0.73

> <Gold.Chemscore.Hbond.Weighted>
-2.9614

> <Gold.Chemscore.Metal.Weighted>
-0.0000

> <Gold.Chemscore.Lipo.Weighted>
-11.3133

> <Gold.Chemscore.Internal_Hbond.Weighted>
0.0000

> <Gold.Chemscore.DEClash.Weighted>
0.0340

> <Gold.Chemscore.DEInternal.Weighted>
0.9378

> <Gold.Chemscore.Rot.Weighted>
4.6497

> <Gold.Chemscore.Internal.Correction.Weighted>
   9.000000E+99

> <Gold.Protein.RotatedTorsions>
[ 6907 6896 6895 6894 ] final -117.24 input  -60.11 | X-H torsion
[ 7974 7965 7964 7962 ] final   99.79 input  175.53 | X-H torsion
[ 8008 7997 7996 7995 ] final  143.10 input   59.86 | X-H torsion
[ 10167 10162 10161 10158 ] final  160.40 input  -65.29 | X-H torsion
[ 10718 10713 10712 10709 ] final  -38.74 input   66.30 | X-H torsion
[ 10763 10752 10751 10750 ] final   71.70 input  -60.55 | X-H torsion
[ 11005 11000 10999 10996 ] final   14.39 input  -57.11 | X-H torsion

> <Gold.Protein.ActiveResidues>
 VAL166  LYS551  ARG553  GLY616  TRP617  ASP618  TYR619  PRO620  LYS621  CYS622 
 ASP623  PHE694  ASN695  SER759  ASP760  ASP761  ALA762  ILE779  LEU786  VAL792 
 PHE793  MET794  SER795  GLU796  ALA797  LYS798  CYS799  TRP800  GLU811  SER814 

> <Gold.Protein.RotatedAtoms>
  150.8120  133.8404  159.3177 H   0  0  0  0  0  0  0  0  0  0  0  0  # atno 6907 bound_to 6896
  151.6187  135.1032  160.0106 H   0  0  0  0  0  0  0  0  0  0  0  0  # atno 6908 bound_to 6896
  152.4212  133.7079  159.6518 H   0  0  0  0  0  0  0  0  0  0  0  0  # atno 6909 bound_to 6896
  145.3942  139.2358  143.3335 H   0  0  0  0  0  0  0  0  0  0  0  0  # atno 7974 bound_to 7965
  156.2937  140.2271  156.4836 H   0  0  0  0  0  0  0  0  0  0  0  0  # atno 8008 bound_to 7997
  154.7832  140.0459  157.1164 H   0  0  0  0  0  0  0  0  0  0  0  0  # atno 8009 bound_to 7997
  154.9734  140.3069  155.4981 H   0  0  0  0  0  0  0  0  0  0  0  0  # atno 8010 bound_to 7997
  139.4840  144.4637  151.8670 H   0  0  0  0  0  0  0  0  0  0  0  0  # atno 10167 bound_to 10162
  156.3004  130.4239  149.8149 H   0  0  0  0  0  0  0  0  0  0  0  0  # atno 10718 bound_to 10713
  153.0414  135.5127  154.7632 H   0  0  0  0  0  0  0  0  0  0  0  0  # atno 10763 bound_to 10752
  154.6566  135.2932  154.9922 H   0  0  0  0  0  0  0  0  0  0  0  0  # atno 10764 bound_to 10752
  154.0787  135.6667  153.4887 H   0  0  0  0  0  0  0  0  0  0  0  0  # atno 10765 bound_to 10752
  140.4700  134.1040  155.7731 H   0  0  0  0  0  0  0  0  0  0  0  0  # atno 11005 bound_to 11000
  146.2783  140.4629  142.8786 LP  0  0  0  0  0  0  0  0  0  0  0  0  # atno 17320 bound_to 7965
  144.8419  140.6870  143.6224 LP  0  0  0  0  0  0  0  0  0  0  0  0  # atno 17321 bound_to 7965
  140.4101  144.2380  150.5889 LP  0  0  0  0  0  0  0  0  0  0  0  0  # atno 17342 bound_to 10162
  140.4974  143.2328  151.8729 LP  0  0  0  0  0  0  0  0  0  0  0  0  # atno 17343 bound_to 10162
  156.5529  130.8350  151.3305 LP  0  0  0  0  0  0  0  0  0  0  0  0  # atno 17370 bound_to 10713
  157.7366  130.9782  150.2147 LP  0  0  0  0  0  0  0  0  0  0  0  0  # atno 17371 bound_to 10713
  141.1581  133.8844  157.1922 LP  0  0  0  0  0  0  0  0  0  0  0  0  # atno 17394 bound_to 11000
  139.9891  135.0071  156.9932 LP  0  0  0  0  0  0  0  0  0  0  0  0  # atno 17395 bound_to 11000

$$$$
