AV-unprocessed.smi:241|AV-procd|sdf|1840|dock8
  -GOLD-   2262020453D 1   1.00000     0.00000
 Structure written by MMmdl.
 54 57  0  0  0  0  0  0  0  0  1 V2000
  154.2307  129.6927  154.3870 C   0  0  0  0  0  0  0  0  0  0  0  0
  153.0129  129.4552  155.0695 O   0  0  0  0  0  0  0  0  0  0  0  0
  152.4945  130.6260  155.6810 C   0  0  0  0  0  0  0  0  0  0  0  0
  151.2725  130.2700  156.5487 C   0  0  2  0  0  0  0  0  0  0  0  0
  151.5493  129.2171  157.6313 C   0  0  0  0  0  0  0  0  0  0  0  0
  150.2336  128.4366  157.7663 C   0  0  1  0  0  0  0  0  0  0  0  0
  149.7636  128.4837  159.1060 O   0  0  0  0  0  0  0  0  0  0  0  0
  150.5918  127.7847  160.0212 C   0  0  0  0  0  0  0  0  0  0  0  0
  149.2768  129.1321  156.7882 C   0  0  0  0  0  0  0  0  0  0  0  0
  150.1355  129.7580  155.7943 N   0  0  0  0  0  0  0  0  0  0  0  0
  149.5481  130.6389  154.9508 C   0  0  0  0  0  0  0  0  0  0  0  0
  149.9957  131.9198  154.8669 N   0  0  0  0  0  0  0  0  0  0  0  0
  149.4203  132.7744  154.0154 C   0  0  0  0  0  0  0  0  0  0  0  0
  148.4080  132.5592  153.1718 N   0  0  0  0  0  0  0  0  0  0  0  0
  147.9590  131.2734  153.2524 C   0  0  0  0  0  0  0  0  0  0  0  0
  148.4713  130.2578  154.1071 C   0  0  0  0  0  0  0  0  0  0  0  0
  147.7767  129.0725  153.9082 N   0  0  0  0  0  0  0  0  0  0  0  0
  146.9076  129.3670  152.9807 C   0  0  0  0  0  0  0  0  0  0  0  0
  146.9331  130.6730  152.5411 N   0  0  0  0  0  0  0  0  0  0  0  0
  146.1086  131.2630  151.5241 C   0  0  0  0  0  0  0  0  0  0  0  0
  146.1432  132.7628  151.2154 C   0  0  0  0  0  0  0  0  0  0  0  0
  144.6383  132.7149  150.8658 C   0  0  0  0  0  0  0  0  0  0  0  0
  143.8050  133.8986  151.3858 C   0  0  0  0  0  0  0  0  0  0  0  0
  142.4880  133.5005  151.7092 O   0  0  0  0  0  0  0  0  0  0  0  0
  144.3199  132.4887  149.3736 C   0  0  0  0  0  0  0  0  0  0  0  0
  142.9674  132.1261  149.1823 O   0  0  0  0  0  0  0  0  0  0  0  0
  144.6077  131.4440  151.7469 C   0  0  0  0  0  0  0  0  0  0  0  0
  150.9422  131.1811  157.0511 H   0  0  0  0  0  0  0  0  0  0  0  0
  150.4076  127.4048  157.4554 H   0  0  0  0  0  0  0  0  0  0  0  0
  154.5882  128.7639  153.9428 H   0  0  0  0  0  0  0  0  0  0  0  0
  154.9999  130.0594  155.0679 H   0  0  0  0  0  0  0  0  0  0  0  0
  154.0959  130.4188  153.5843 H   0  0  0  0  0  0  0  0  0  0  0  0
  153.2642  131.0849  156.3029 H   0  0  0  0  0  0  0  0  0  0  0  0
  152.2209  131.3605  154.9221 H   0  0  0  0  0  0  0  0  0  0  0  0
  152.3462  128.5357  157.3310 H   0  0  0  0  0  0  0  0  0  0  0  0
  151.8579  129.6865  158.5662 H   0  0  0  0  0  0  0  0  0  0  0  0
  150.1866  127.8844  161.0280 H   0  0  0  0  0  0  0  0  0  0  0  0
  151.6041  128.1902  160.0265 H   0  0  0  0  0  0  0  0  0  0  0  0
  150.6421  126.7212  159.7860 H   0  0  0  0  0  0  0  0  0  0  0  0
  148.5846  128.4263  156.3285 H   0  0  0  0  0  0  0  0  0  0  0  0
  148.6908  129.8841  157.3190 H   0  0  0  0  0  0  0  0  0  0  0  0
  149.8313  133.7732  154.0074 H   0  0  0  0  0  0  0  0  0  0  0  0
  146.2222  128.6284  152.5922 H   0  0  0  0  0  0  0  0  0  0  0  0
  146.2902  130.6957  150.6097 H   0  0  0  0  0  0  0  0  0  0  0  0
  146.3503  133.3809  152.0899 H   0  0  0  0  0  0  0  0  0  0  0  0
  146.7957  133.0361  150.3856 H   0  0  0  0  0  0  0  0  0  0  0  0
  144.2615  134.3564  152.2636 H   0  0  0  0  0  0  0  0  0  0  0  0
  143.7382  134.6848  150.6333 H   0  0  0  0  0  0  0  0  0  0  0  0
  141.9120  133.7684  151.0098 H   0  0  0  0  0  0  0  0  0  0  0  0
  144.5308  133.3792  148.7810 H   0  0  0  0  0  0  0  0  0  0  0  0
  144.9388  131.6954  148.9540 H   0  0  0  0  0  0  0  0  0  0  0  0
  142.4278  132.8861  149.3384 H   0  0  0  0  0  0  0  0  0  0  0  0
  143.9963  130.6273  151.3618 H   0  0  0  0  0  0  0  0  0  0  0  0
  144.3645  131.6522  152.7905 H   0  0  0  0  0  0  0  0  0  0  0  0
  1  2  1  0  0  0  0
  1 30  1  0  0  0  0
  1 31  1  0  0  0  0
  1 32  1  0  0  0  0
  2  3  1  0  0  0  0
  3  4  1  0  0  0  0
  3 33  1  0  0  0  0
  3 34  1  0  0  0  0
  4 28  1  0  0  0  0
  4 10  1  0  0  0  0
  4  5  1  0  0  0  0
  5  6  1  0  0  0  0
  5 35  1  0  0  0  0
  5 36  1  0  0  0  0
  6 29  1  0  0  0  0
  6  7  1  0  0  0  0
  6  9  1  0  0  0  0
  7  8  1  0  0  0  0
  8 37  1  0  0  0  0
  8 38  1  0  0  0  0
  8 39  1  0  0  0  0
  9 10  1  0  0  0  0
  9 40  1  0  0  0  0
  9 41  1  0  0  0  0
 10 11  1  0  0  0  0
 11 16  1  0  0  0  0
 11 12  2  0  0  0  0
 12 13  1  0  0  0  0
 13 14  2  0  0  0  0
 13 42  1  0  0  0  0
 14 15  1  0  0  0  0
 15 19  1  0  0  0  0
 15 16  2  0  0  0  0
 16 17  1  0  0  0  0
 17 18  2  0  0  0  0
 18 19  1  0  0  0  0
 18 43  1  0  0  0  0
 19 20  1  0  0  0  0
 20 27  1  0  0  0  0
 20 21  1  0  0  0  0
 20 44  1  0  0  0  0
 21 22  1  0  0  0  0
 21 45  1  0  0  0  0
 21 46  1  0  0  0  0
 22 23  1  0  0  0  0
 22 25  1  0  0  0  0
 22 27  1  0  0  0  0
 23 24  1  0  0  0  0
 23 47  1  0  0  0  0
 23 48  1  0  0  0  0
 24 49  1  0  0  0  0
 25 26  1  0  0  0  0
 25 50  1  0  0  0  0
 25 51  1  0  0  0  0
 26 52  1  0  0  0  0
 27 53  1  0  0  0  0
 27 54  1  0  0  0  0
M  END
> <s_m_source_file>
AV-unprocessed.smi

> <i_m_source_file_index>
241

> <i_lp_mmshare_version>
43012

> <i_f3d_flags>
0

> <s_epik_input>
W0NIM11PW0NIMl1bQ0BASF0xW0NIMl1bQ0BASF0oT1tDSDNdKVtDSDJdTjFjKG5bY0hdbjIpYyhjMjMpbltjSF1uM1tDSF0oW0NIMl00KVtDSDJdQzQoW0NIMl1bT0hdKVtDSDJdW09IXQ==

> <s_epik_cmdline>
J2VwaWtfcHl0aG9uJywgJy1waCcsICc3LjAnLCAnLXRuJywgJzgnLCAnLW1hJywgJzIwMCcsICctbWV0YWxfYmluZGluZycsICctaW1hZScsICc8aW5maWxlLm1hZT4nLCAnLW9tYWUnLCAnPG91dGZpbGUubWFlPic=

> <r_lp_tautomer_probability>
1

> <r_epik_Ionization_Penalty>
0.00568677

> <r_epik_Ionization_Penalty_Charging>
0

> <r_epik_Ionization_Penalty_Neutral>
0.00568677

> <r_epik_State_Penalty>
0.00400877

> <r_epik_Charging_Adjusted_Penalty>
0.00400877

> <i_epik_Tot_Q>
0

> <i_epik_Tot_abs_Q>
0

> <r_epik_Metal_State_Penalty>
-0

> <b_epik_Metal_Only>
0

> <s_lp_Force_Field>
OPLS_2005

> <r_lp_Energy>
60.5945

> <b_lp_Chiralities_Consistent>
1

> <s_lp_Variant>
AV-unprocessed.smi:241-1

> <Gold.Version>
5.8.1

> <Gold.Id.Protein>
6NUR|6NUR_protein|mol2

> <Gold.PLP.Fitness>
45.1314

> <Gold.PLP.PLP>
-37.2110

> <Gold.PLP.part.hbond>
-3.9761

> <Gold.PLP.part.metal>
0.0000

> <Gold.PLP.part.buried>
-4.0269

> <Gold.PLP.part.nonpolar>
-28.8644

> <Gold.PLP.part.repulsive>
0.3010

> <Gold.PLP.ligand.clash>
0.0000

> <Gold.PLP.ligand.torsion>
0.5579

> <Gold.PLP.Chemscore.Hbond>
2.8200

> <Gold.PLP.Chemscore.CHOScore>
0.0000

> <Gold.PLP.Chemscore.Metal>
0.0000

> <Gold.Chemscore.Hbonds>
donor molecule, donor type, donor heavy atom, donor atom, acceptor molecule, acceptor atom, score
      L1  H    24    49       P1 10186  1.00
      L1  H    26    52       P1 10186  0.84
      P1  H 10785 10796       L1    26  0.96

> <Gold.PLP.Chemscore.Internal.Correction>
0.5762

> <Gold.Rescore>
     Score         DG    S(hbond)    S(metal)    S(lipo)     H(rot)  DE(clash)    DE(int)     intcor
      9.01     -11.34       2.26        0.00      72.60       3.97       0.28       2.05       ----

> <Gold.Chemscore.Fitness>
9.0076

> <Gold.Chemscore.DG>
-11.3419

> <Gold.Chemscore.ZeroCoef>
-5.4800

> <Gold.Chemscore.Hbond>
2.2569

> <Gold.Chemscore.Metal>
0.0000

> <Gold.Chemscore.Lipo>
72.5995

> <Gold.Chemscore.Internal_Hbond>
0.0000

> <Gold.Chemscore.DEClash>
0.2805

> <Gold.Chemscore.DEInternal>
2.0538

> <Gold.Chemscore.Rot>
3.9727

> <Gold.Chemscore.Internal.Correction>
   9.000000E+99

> <Gold.Chemscore.Hbonds>
donor molecule, donor type, donor heavy atom, donor atom, acceptor molecule, acceptor atom, score
      L1  H    24    49       P1 10186  0.30
      L1  H    26    52       P1 10186  0.82
      P1  H 10785 10796       L1    26  0.23

> <Gold.Chemscore.Hbond.Weighted>
-7.5380

> <Gold.Chemscore.Metal.Weighted>
-0.0000

> <Gold.Chemscore.Lipo.Weighted>
-8.4941

> <Gold.Chemscore.Internal_Hbond.Weighted>
0.0000

> <Gold.Chemscore.DEClash.Weighted>
0.2805

> <Gold.Chemscore.DEInternal.Weighted>
2.0538

> <Gold.Chemscore.Rot.Weighted>
10.1702

> <Gold.Chemscore.Internal.Correction.Weighted>
   9.000000E+99

> <Gold.Protein.RotatedTorsions>
[ 6907 6896 6895 6894 ] final -139.70 input  -60.11 | X-H torsion
[ 7974 7965 7964 7962 ] final  -94.36 input  175.53 | X-H torsion
[ 8008 7997 7996 7995 ] final -149.27 input   59.86 | X-H torsion
[ 10167 10162 10161 10158 ] final   -1.67 input  -65.29 | X-H torsion
[ 10718 10713 10712 10709 ] final  -65.45 input   66.30 | X-H torsion
[ 10763 10752 10751 10750 ] final  -55.64 input  -60.55 | X-H torsion
[ 11005 11000 10999 10996 ] final  -84.37 input  -57.11 | X-H torsion

> <Gold.Protein.ActiveResidues>
 VAL166  LYS551  ARG553  GLY616  TRP617  ASP618  TYR619  PRO620  LYS621  CYS622 
 ASP623  PHE694  ASN695  SER759  ASP760  ASP761  ALA762  ILE779  LEU786  VAL792 
 PHE793  MET794  SER795  GLU796  ALA797  LYS798  CYS799  TRP800  GLU811  SER814 

> <Gold.Protein.RotatedAtoms>
  151.0512  133.5622  159.2641 H   0  0  0  0  0  0  0  0  0  0  0  0  # atno 6907 bound_to 6896
  151.2633  135.0660  159.9116 H   0  0  0  0  0  0  0  0  0  0  0  0  # atno 6908 bound_to 6896
  152.5382  134.0254  159.8054 H   0  0  0  0  0  0  0  0  0  0  0  0  # atno 6909 bound_to 6896
  145.3743  140.9509  143.2430 H   0  0  0  0  0  0  0  0  0  0  0  0  # atno 7974 bound_to 7965
  155.6049  140.0666  157.2722 H   0  0  0  0  0  0  0  0  0  0  0  0  # atno 8008 bound_to 7997
  154.4269  140.1811  156.1259 H   0  0  0  0  0  0  0  0  0  0  0  0  # atno 8009 bound_to 7997
  156.0130  140.3324  155.6964 H   0  0  0  0  0  0  0  0  0  0  0  0  # atno 8010 bound_to 7997
  140.6820  143.6748  150.8155 H   0  0  0  0  0  0  0  0  0  0  0  0  # atno 10167 bound_to 10162
  156.0669  130.4247  150.1566 H   0  0  0  0  0  0  0  0  0  0  0  0  # atno 10718 bound_to 10713
  154.1940  135.6422  153.5068 H   0  0  0  0  0  0  0  0  0  0  0  0  # atno 10763 bound_to 10752
  153.0028  135.5435  154.6386 H   0  0  0  0  0  0  0  0  0  0  0  0  # atno 10764 bound_to 10752
  154.5782  135.2923  155.0733 H   0  0  0  0  0  0  0  0  0  0  0  0  # atno 10765 bound_to 10752
  141.1651  133.7343  156.8858 H   0  0  0  0  0  0  0  0  0  0  0  0  # atno 11005 bound_to 11000
  144.8554  139.5258  143.6837 LP  0  0  0  0  0  0  0  0  0  0  0  0  # atno 17320 bound_to 7965
  146.2871  139.7035  142.9187 LP  0  0  0  0  0  0  0  0  0  0  0  0  # atno 17321 bound_to 7965
  140.0449  143.5308  152.2700 LP  0  0  0  0  0  0  0  0  0  0  0  0  # atno 17342 bound_to 10162
  139.6149  144.7617  151.2869 LP  0  0  0  0  0  0  0  0  0  0  0  0  # atno 17343 bound_to 10162
  156.9624  130.9809  151.3476 LP  0  0  0  0  0  0  0  0  0  0  0  0  # atno 17370 bound_to 10713
  157.5716  130.8314  149.8399 LP  0  0  0  0  0  0  0  0  0  0  0  0  # atno 17371 bound_to 10713
  140.1683  134.9118  157.2801 LP  0  0  0  0  0  0  0  0  0  0  0  0  # atno 17394 bound_to 11000
  140.2532  134.3659  155.7434 LP  0  0  0  0  0  0  0  0  0  0  0  0  # atno 17395 bound_to 11000

$$$$
