AV-unprocessed.smi:1495|AV-procd|sdf|6053|dock1
  -GOLD-   22720 6173D 1   1.00000     0.00000
 Structure written by MMmdl.
 40 41  0  0  0  0  0  0  0  0  1 V2000
  153.0753  138.6023  154.7173 C   0  0  0  0  0  0  0  0  0  0  0  0
  151.6848  138.0479  154.3845 C   0  0  0  0  0  0  0  0  0  0  0  0
  150.5457  138.8896  154.9798 C   0  0  2  0  0  0  0  0  0  0  0  0
  149.1728  138.2047  154.8177 C   0  0  0  0  0  0  0  0  0  0  0  0
  148.1456  139.0924  155.3816 N   0  0  0  0  0  0  0  0  0  0  0  0
  147.4613  138.9082  156.5381 C   0  0  0  0  0  0  0  0  0  0  0  0
  146.5063  139.6087  156.8771 O   0  0  0  0  0  0  0  0  0  0  0  0
  147.8843  137.8731  157.2809 N   0  0  0  0  0  0  0  0  0  0  0  0
  147.3021  137.4734  158.5541 C   0  0  0  0  0  0  0  0  0  0  0  0
  147.9504  136.1774  159.0598 C   0  0  0  0  0  0  0  0  0  0  0  0
  147.6329  135.9104  160.4995 C   0  0  0  0  0  0  0  0  0  0  0  0
  147.1847  134.7303  161.0386 C   0  0  0  0  0  0  0  0  0  0  0  0
  146.9484  134.8510  162.7604 S   0  0  0  0  0  0  0  0  0  0  0  0
  147.4778  136.5275  162.6840 C   0  0  0  0  0  0  0  0  0  0  0  0
  147.5602  137.4170  163.8767 C   0  0  0  0  0  0  0  0  0  0  0  0
  147.7947  136.9241  161.4489 N   0  0  0  0  0  0  0  0  0  0  0  0
  148.1197  140.3587  154.6458 C   0  0  0  0  0  0  0  0  0  0  0  0
  149.4976  141.0276  154.7927 C   0  0  0  0  0  0  0  0  0  0  0  0
  150.5100  140.1486  154.3067 O   0  0  0  0  0  0  0  0  0  0  0  0
  153.8559  137.9703  154.2938 H   0  0  0  0  0  0  0  0  0  0  0  0
  153.2335  138.6492  155.7951 H   0  0  0  0  0  0  0  0  0  0  0  0
  153.2075  139.6069  154.3149 H   0  0  0  0  0  0  0  0  0  0  0  0
  151.5675  137.9808  153.3023 H   0  0  0  0  0  0  0  0  0  0  0  0
  151.6167  137.0279  154.7640 H   0  0  0  0  0  0  0  0  0  0  0  0
  150.7448  139.0545  156.0406 H   0  0  0  0  0  0  0  0  0  0  0  0
  148.9587  138.0358  153.7612 H   0  0  0  0  0  0  0  0  0  0  0  0
  149.1971  137.2144  155.2720 H   0  0  0  0  0  0  0  0  0  0  0  0
  148.6625  137.3284  156.9394 H   0  0  0  0  0  0  0  0  0  0  0  0
  147.4438  138.2711  159.2856 H   0  0  0  0  0  0  0  0  0  0  0  0
  146.2266  137.3351  158.4298 H   0  0  0  0  0  0  0  0  0  0  0  0
  147.6165  135.3393  158.4464 H   0  0  0  0  0  0  0  0  0  0  0  0
  149.0312  136.2350  158.9237 H   0  0  0  0  0  0  0  0  0  0  0  0
  146.9817  133.8000  160.5290 H   0  0  0  0  0  0  0  0  0  0  0  0
  148.4935  137.9807  163.8633 H   0  0  0  0  0  0  0  0  0  0  0  0
  147.5226  136.8272  164.7927 H   0  0  0  0  0  0  0  0  0  0  0  0
  146.7255  138.1181  163.8768 H   0  0  0  0  0  0  0  0  0  0  0  0
  147.9053  140.1643  153.5940 H   0  0  0  0  0  0  0  0  0  0  0  0
  147.3370  141.0350  154.9920 H   0  0  0  0  0  0  0  0  0  0  0  0
  149.5307  141.9552  154.2211 H   0  0  0  0  0  0  0  0  0  0  0  0
  149.6962  141.2854  155.8342 H   0  0  0  0  0  0  0  0  0  0  0  0
  1  2  1  0  0  0  0
  1 20  1  0  0  0  0
  1 21  1  0  0  0  0
  1 22  1  0  0  0  0
  2  3  1  0  0  0  0
  2 23  1  0  0  0  0
  2 24  1  0  0  0  0
  3 19  1  0  0  0  0
  3  4  1  0  0  0  0
  3 25  1  0  0  0  0
  4  5  1  0  0  0  0
  4 26  1  0  0  0  0
  4 27  1  0  0  0  0
  5  6  1  0  0  0  0
  5 17  1  0  0  0  0
  6  7  2  0  0  0  0
  6  8  1  0  0  0  0
  8  9  1  0  0  0  0
  8 28  1  0  0  0  0
  9 10  1  0  0  0  0
  9 29  1  0  0  0  0
  9 30  1  0  0  0  0
 10 11  1  0  0  0  0
 10 31  1  0  0  0  0
 10 32  1  0  0  0  0
 11 16  1  0  0  0  0
 11 12  2  0  0  0  0
 12 13  1  0  0  0  0
 12 33  1  0  0  0  0
 13 14  1  0  0  0  0
 14 15  1  0  0  0  0
 14 16  2  0  0  0  0
 15 34  1  0  0  0  0
 15 35  1  0  0  0  0
 15 36  1  0  0  0  0
 17 18  1  0  0  0  0
 17 37  1  0  0  0  0
 17 38  1  0  0  0  0
 18 19  1  0  0  0  0
 18 39  1  0  0  0  0
 18 40  1  0  0  0  0
M  END
> <s_m_source_file>
AV-unprocessed.smi

> <i_m_source_file_index>
1495

> <i_lp_mmshare_version>
43012

> <i_f3d_flags>
0

> <s_epik_input>
W0NIM11bQ0gyXVtDQEBIXTFbQ0gyXU4oW0NIMl1bQ0gyXU8xKUMoPU8pW05IXVtDSDJdW0NIMl1jMltjSF1zYyhuMilbQ0gzXQ==

> <s_epik_cmdline>
J2VwaWtfcHl0aG9uJywgJy1waCcsICc3LjAnLCAnLXRuJywgJzgnLCAnLW1hJywgJzIwMCcsICctbWV0YWxfYmluZGluZycsICctaW1hZScsICc8aW5maWxlLm1hZT4nLCAnLW9tYWUnLCAnPG91dGZpbGUubWFlPic=

> <r_epik_Ionization_Penalty>
0.00206013

> <r_epik_Ionization_Penalty_Charging>
0

> <r_epik_Ionization_Penalty_Neutral>
0.00206013

> <r_epik_State_Penalty>
0.00138662

> <r_epik_Charging_Adjusted_Penalty>
0.00138662

> <i_epik_Tot_Q>
0

> <i_epik_Tot_abs_Q>
0

> <r_epik_Metal_State_Penalty>
-0

> <b_epik_Metal_Only>
0

> <s_lp_Force_Field>
OPLS_2005

> <r_lp_Energy>
21.6891

> <b_lp_Chiralities_Consistent>
1

> <s_lp_Variant>
AV-unprocessed.smi:1495-1

> <Gold.Version>
5.8.1

> <Gold.Id.Protein>
6NUR|6NUR_protein|mol2

> <Gold.PLP.Fitness>
40.8927

> <Gold.PLP.PLP>
-34.6757

> <Gold.PLP.part.hbond>
-2.8750

> <Gold.PLP.part.metal>
0.0000

> <Gold.PLP.part.buried>
-2.7725

> <Gold.PLP.part.nonpolar>
-30.0515

> <Gold.PLP.part.repulsive>
0.1552

> <Gold.PLP.ligand.clash>
0.0000

> <Gold.PLP.ligand.torsion>
0.3142

> <Gold.PLP.Chemscore.Hbond>
2.2627

> <Gold.PLP.Chemscore.CHOScore>
0.0000

> <Gold.PLP.Chemscore.Metal>
0.0000

> <Gold.Chemscore.Hbonds>
donor molecule, donor type, donor heavy atom, donor atom, acceptor molecule, acceptor atom, score
      P1  H  6931  6943       L1    16  0.90
      P1  H  6934  6947       L1    16  0.38
      P1  H  7989  7998       L1    19  1.00

> <Gold.PLP.Chemscore.Internal.Correction>
0.0572

> <Gold.Rescore>
     Score         DG    S(hbond)    S(metal)    S(lipo)     H(rot)  DE(clash)    DE(int)     intcor
     17.11     -18.67       1.91        0.00      89.28       1.42       1.20       0.37       ----

> <Gold.Chemscore.Fitness>
17.1064

> <Gold.Chemscore.DG>
-18.6734

> <Gold.Chemscore.ZeroCoef>
-5.4800

> <Gold.Chemscore.Hbond>
1.9123

> <Gold.Chemscore.Metal>
0.0000

> <Gold.Chemscore.Lipo>
89.2753

> <Gold.Chemscore.Internal_Hbond>
0.0000

> <Gold.Chemscore.DEClash>
1.1983

> <Gold.Chemscore.DEInternal>
0.3687

> <Gold.Chemscore.Rot>
1.4214

> <Gold.Chemscore.Internal.Correction>
   9.000000E+99

> <Gold.Chemscore.Hbonds>
donor molecule, donor type, donor heavy atom, donor atom, acceptor molecule, acceptor atom, score
      P1  H  6931  6943       L1    16  0.18
      P1  H  6934  6947       L1    16  0.34
      P1  H  7989  7998       L1    19  0.81

> <Gold.Chemscore.Hbond.Weighted>
-6.3870

> <Gold.Chemscore.Metal.Weighted>
-0.0000

> <Gold.Chemscore.Lipo.Weighted>
-10.4452

> <Gold.Chemscore.Internal_Hbond.Weighted>
0.0000

> <Gold.Chemscore.DEClash.Weighted>
1.1983

> <Gold.Chemscore.DEInternal.Weighted>
0.3687

> <Gold.Chemscore.Rot.Weighted>
3.6388

> <Gold.Chemscore.Internal.Correction.Weighted>
   9.000000E+99

> <Gold.Protein.RotatedTorsions>
[ 6907 6896 6895 6894 ] final  120.11 input  -60.11 | X-H torsion
[ 7974 7965 7964 7962 ] final   45.78 input  175.53 | X-H torsion
[ 8008 7997 7996 7995 ] final  -15.54 input   59.86 | X-H torsion
[ 10167 10162 10161 10158 ] final  129.51 input  -65.29 | X-H torsion
[ 10718 10713 10712 10709 ] final   -4.27 input   66.30 | X-H torsion
[ 10763 10752 10751 10750 ] final  -96.55 input  -60.55 | X-H torsion
[ 11005 11000 10999 10996 ] final  113.76 input  -57.11 | X-H torsion

> <Gold.Protein.ActiveResidues>
 VAL166  LYS551  ARG553  GLY616  TRP617  ASP618  TYR619  PRO620  LYS621  CYS622 
 ASP623  PHE694  ASN695  SER759  ASP760  ASP761  ALA762  ILE779  LEU786  VAL792 
 PHE793  MET794  SER795  GLU796  ALA797  LYS798  CYS799  TRP800  GLU811  SER814 

> <Gold.Protein.RotatedAtoms>
  152.4422  133.7469  159.6672 H   0  0  0  0  0  0  0  0  0  0  0  0  # atno 6907 bound_to 6896
  150.8315  133.8073  159.3103 H   0  0  0  0  0  0  0  0  0  0  0  0  # atno 6908 bound_to 6896
  151.5726  135.1064  160.0050 H   0  0  0  0  0  0  0  0  0  0  0  0  # atno 6909 bound_to 6896
  146.0449  139.4927  142.9755 H   0  0  0  0  0  0  0  0  0  0  0  0  # atno 7974 bound_to 7965
  154.5122  140.2193  155.9134 H   0  0  0  0  0  0  0  0  0  0  0  0  # atno 8008 bound_to 7997
  156.1566  140.3151  155.8702 H   0  0  0  0  0  0  0  0  0  0  0  0  # atno 8009 bound_to 7997
  155.3835  140.0474  157.3033 H   0  0  0  0  0  0  0  0  0  0  0  0  # atno 8010 bound_to 7997
  139.5474  144.6785  151.4429 H   0  0  0  0  0  0  0  0  0  0  0  0  # atno 10167 bound_to 10162
  156.7638  130.5278  149.5780 H   0  0  0  0  0  0  0  0  0  0  0  0  # atno 10718 bound_to 10713
  154.7249  135.5079  153.8871 H   0  0  0  0  0  0  0  0  0  0  0  0  # atno 10763 bound_to 10752
  153.0896  135.6655  153.9889 H   0  0  0  0  0  0  0  0  0  0  0  0  # atno 10764 bound_to 10752
  153.9703  135.3039  155.3407 H   0  0  0  0  0  0  0  0  0  0  0  0  # atno 10765 bound_to 10752
  139.8962  134.9556  156.6788 H   0  0  0  0  0  0  0  0  0  0  0  0  # atno 11005 bound_to 11000
  145.6822  141.0188  143.1600 LP  0  0  0  0  0  0  0  0  0  0  0  0  # atno 17320 bound_to 7965
  144.7093  139.8434  143.7420 LP  0  0  0  0  0  0  0  0  0  0  0  0  # atno 17321 bound_to 7965
  140.6727  143.8258  150.7019 LP  0  0  0  0  0  0  0  0  0  0  0  0  # atno 17342 bound_to 10162
  140.1688  143.4212  152.2016 LP  0  0  0  0  0  0  0  0  0  0  0  0  # atno 17343 bound_to 10162
  156.1322  130.6186  151.0349 LP  0  0  0  0  0  0  0  0  0  0  0  0  # atno 17370 bound_to 10713
  157.6722  131.0858  150.7583 LP  0  0  0  0  0  0  0  0  0  0  0  0  # atno 17371 bound_to 10713
  140.7315  133.9054  155.8215 LP  0  0  0  0  0  0  0  0  0  0  0  0  # atno 17394 bound_to 11000
  141.0149  134.0969  157.4182 LP  0  0  0  0  0  0  0  0  0  0  0  0  # atno 17395 bound_to 11000

$$$$
