AV-unprocessed.smi:1688|AV-procd|sdf|6771|dock3
  -GOLD-   22720 7533D 1   1.00000     0.00000
 Structure written by MMmdl.
 36 38  0  0  0  0  0  0  0  0  2 V2000
  152.2317  138.0543  157.4263 O   0  0  0  0  0  0  0  0  0  0  0  0
  151.6421  139.3049  157.1204 C   0  0  0  0  0  0  0  0  0  0  0  0
  152.0556  140.3085  158.2287 C   0  0  0  0  0  0  0  0  0  0  0  0
  151.4752  141.6547  158.0864 N   0  0  0  0  0  0  0  0  0  0  0  0
  150.7751  142.1929  157.0503 C   0  0  0  0  0  0  0  0  0  0  0  0
  150.4540  143.4719  157.3884 N   0  3  0  0  0  0  0  0  0  0  0  0
  150.9633  143.7607  158.6557 C   0  0  0  0  0  0  0  0  0  0  0  0
  150.8960  144.9215  159.4200 C   0  0  0  0  0  0  0  0  0  0  0  0
  151.5280  144.8871  160.6801 C   0  0  0  0  0  0  0  0  0  0  0  0
  152.1966  143.7320  161.1346 C   0  0  0  0  0  0  0  0  0  0  0  0
  152.2606  142.5615  160.3502 C   0  0  0  0  0  0  0  0  0  0  0  0
  151.6274  142.6004  159.1080 C   0  0  0  0  0  0  0  0  0  0  0  0
  152.1951  139.7762  155.7546 C   0  0  0  0  0  0  0  0  0  0  0  0
  151.7462  138.8885  154.5802 C   0  0  0  0  0  0  0  0  0  0  0  0
  150.2176  138.7628  154.5303 C   0  0  0  0  0  0  0  0  0  0  0  0
  149.6696  138.2267  155.8598 C   0  0  0  0  0  0  0  0  0  0  0  0
  150.1070  139.1049  157.0463 C   0  0  0  0  0  0  0  0  0  0  0  0
  151.7267  137.6448  158.1119 H   0  0  0  0  0  0  0  0  0  0  0  0
  151.8149  139.9242  159.2207 H   0  0  0  0  0  0  0  0  0  0  0  0
  153.1388  140.4373  158.2162 H   0  0  0  0  0  0  0  0  0  0  0  0
  150.5156  141.6926  156.1285 H   0  0  0  0  0  0  0  0  0  0  0  0
  150.3867  145.8086  159.0728 H   0  0  0  0  0  0  0  0  0  0  0  0
  151.5001  145.7643  161.3102 H   0  0  0  0  0  0  0  0  0  0  0  0
  152.6692  143.7429  162.1061 H   0  0  0  0  0  0  0  0  0  0  0  0
  152.7736  141.6825  160.7105 H   0  0  0  0  0  0  0  0  0  0  0  0
  151.8560  140.7956  155.5641 H   0  0  0  0  0  0  0  0  0  0  0  0
  153.2845  139.8231  155.7832 H   0  0  0  0  0  0  0  0  0  0  0  0
  152.1133  139.3044  153.6415 H   0  0  0  0  0  0  0  0  0  0  0  0
  152.1930  137.8978  154.6715 H   0  0  0  0  0  0  0  0  0  0  0  0
  149.7752  139.7364  154.3159 H   0  0  0  0  0  0  0  0  0  0  0  0
  149.9250  138.1025  153.7136 H   0  0  0  0  0  0  0  0  0  0  0  0
  148.5812  138.1783  155.8181 H   0  0  0  0  0  0  0  0  0  0  0  0
  150.0152  137.2033  156.0109 H   0  0  0  0  0  0  0  0  0  0  0  0
  149.7307  138.6627  157.9691 H   0  0  0  0  0  0  0  0  0  0  0  0
  149.6240  140.0788  156.9565 H   0  0  0  0  0  0  0  0  0  0  0  0
  149.9271  144.1001  156.7952 H   0  0  0  0  0  0  0  0  0  0  0  0
  1  2  1  0  0  0  0
  1 18  1  0  0  0  0
  2 17  1  0  0  0  0
  2  3  1  0  0  0  0
  2 13  1  0  0  0  0
  3  4  1  0  0  0  0
  3 19  1  0  0  0  0
  3 20  1  0  0  0  0
  4 12  1  0  0  0  0
  4  5  1  0  0  0  0
  5  6  2  0  0  0  0
  5 21  1  0  0  0  0
  6  7  1  0  0  0  0
  6 36  1  0  0  0  0
  7 12  2  0  0  0  0
  7  8  1  0  0  0  0
  8  9  2  0  0  0  0
  8 22  1  0  0  0  0
  9 10  1  0  0  0  0
  9 23  1  0  0  0  0
 10 11  2  0  0  0  0
 10 24  1  0  0  0  0
 11 12  1  0  0  0  0
 11 25  1  0  0  0  0
 13 14  1  0  0  0  0
 13 26  1  0  0  0  0
 13 27  1  0  0  0  0
 14 15  1  0  0  0  0
 14 28  1  0  0  0  0
 14 29  1  0  0  0  0
 15 16  1  0  0  0  0
 15 30  1  0  0  0  0
 15 31  1  0  0  0  0
 16 17  1  0  0  0  0
 16 32  1  0  0  0  0
 16 33  1  0  0  0  0
 17 34  1  0  0  0  0
 17 35  1  0  0  0  0
M  CHG  1   6   1
M  END
> <s_m_source_file>
AV-unprocessed.smi

> <i_m_source_file_index>
1688

> <i_lp_mmshare_version>
43012

> <i_f3d_flags>
0

> <s_epik_input>
W0NIMl0xW0NIMl1bQ0gyXVtDSDJdW0NIMl1DMShbT0hdKVtDSDJdbihbY0hdbjIpYyhjMjMpW2NIXVtjSF1bY0hdW2NIXTM=

> <s_epik_cmdline>
J2VwaWtfcHl0aG9uJywgJy1waCcsICc3LjAnLCAnLXRuJywgJzgnLCAnLW1hJywgJzIwMCcsICctbWV0YWxfYmluZGluZycsICctaW1hZScsICc8aW5maWxlLm1hZT4nLCAnLW9tYWUnLCAnPG91dGZpbGUubWFlPic=

> <r_epik_Ionization_Penalty>
1.01013

> <r_epik_Ionization_Penalty_Charging>
1.01013

> <r_epik_Ionization_Penalty_Neutral>
4.42495e-08

> <r_epik_State_Penalty>
1.05948

> <r_epik_Charging_Adjusted_Penalty>
2.06961

> <i_epik_Tot_Q>
1

> <i_epik_Tot_abs_Q>
1

> <r_epik_Metal_State_Penalty>
5.0439

> <b_epik_Metal_Only>
0

> <s_lp_Force_Field>
OPLS_2005

> <r_lp_Energy>
19.8259

> <b_lp_Chiralities_Consistent>
1

> <s_lp_Variant>
AV-unprocessed.smi:1688-2

> <Gold.Version>
5.8.1

> <Gold.Id.Protein>
6NUR|6NUR_protein|mol2

> <Gold.PLP.Fitness>
45.6197

> <Gold.PLP.PLP>
-39.7787

> <Gold.PLP.part.hbond>
-1.0000

> <Gold.PLP.part.metal>
0.0000

> <Gold.PLP.part.buried>
-5.8100

> <Gold.PLP.part.nonpolar>
-33.4757

> <Gold.PLP.part.repulsive>
0.0039

> <Gold.PLP.ligand.clash>
0.0000

> <Gold.PLP.ligand.torsion>
0.0814

> <Gold.PLP.Chemscore.Hbond>
2.0000

> <Gold.PLP.Chemscore.CHOScore>
0.0000

> <Gold.PLP.Chemscore.Metal>
0.0000

> <Gold.Chemscore.Hbonds>
donor molecule, donor type, donor heavy atom, donor atom, acceptor molecule, acceptor atom, score
      L1  H     6    36       P1  8028  2.00

> <Gold.PLP.Chemscore.Internal.Correction>
0.0039

> <Gold.Rescore>
     Score         DG    S(hbond)    S(metal)    S(lipo)     H(rot)  DE(clash)    DE(int)     intcor
     17.04     -17.14       1.00        0.00     107.47       1.65       0.02       0.08       ----

> <Gold.Chemscore.Fitness>
17.0415

> <Gold.Chemscore.DG>
-17.1413

> <Gold.Chemscore.ZeroCoef>
-5.4800

> <Gold.Chemscore.Hbond>
0.9950

> <Gold.Chemscore.Metal>
0.0000

> <Gold.Chemscore.Lipo>
107.4727

> <Gold.Chemscore.Internal_Hbond>
0.0000

> <Gold.Chemscore.DEClash>
0.0174

> <Gold.Chemscore.DEInternal>
0.0824

> <Gold.Chemscore.Rot>
1.6548

> <Gold.Chemscore.Internal.Correction>
   9.000000E+99

> <Gold.Chemscore.Hbonds>
donor molecule, donor type, donor heavy atom, donor atom, acceptor molecule, acceptor atom, score
      L1  H     6    36       P1  8028  0.95

> <Gold.Chemscore.Hbond.Weighted>
-3.3234

> <Gold.Chemscore.Metal.Weighted>
-0.0000

> <Gold.Chemscore.Lipo.Weighted>
-12.5743

> <Gold.Chemscore.Internal_Hbond.Weighted>
0.0000

> <Gold.Chemscore.DEClash.Weighted>
0.0174

> <Gold.Chemscore.DEInternal.Weighted>
0.0824

> <Gold.Chemscore.Rot.Weighted>
4.2364

> <Gold.Chemscore.Internal.Correction.Weighted>
   9.000000E+99

> <Gold.Protein.RotatedTorsions>
[ 6907 6896 6895 6894 ] final  135.48 input  -60.11 | X-H torsion
[ 7974 7965 7964 7962 ] final  -71.59 input  175.53 | X-H torsion
[ 8008 7997 7996 7995 ] final  104.69 input   59.86 | X-H torsion
[ 10167 10162 10161 10158 ] final   88.81 input  -65.29 | X-H torsion
[ 10718 10713 10712 10709 ] final -156.93 input   66.30 | X-H torsion
[ 10763 10752 10751 10750 ] final  -67.30 input  -60.55 | X-H torsion
[ 11005 11000 10999 10996 ] final  148.23 input  -57.11 | X-H torsion

> <Gold.Protein.ActiveResidues>
 VAL166  LYS551  ARG553  GLY616  TRP617  ASP618  TYR619  PRO620  LYS621  CYS622 
 ASP623  PHE694  ASN695  SER759  ASP760  ASP761  ALA762  ILE779  LEU786  VAL792 
 PHE793  MET794  SER795  GLU796  ALA797  LYS798  CYS799  TRP800  GLU811  SER814 

> <Gold.Protein.RotatedAtoms>
  152.2999  133.5645  159.5611 H   0  0  0  0  0  0  0  0  0  0  0  0  # atno 6907 bound_to 6896
  150.7273  134.0306  159.3741 H   0  0  0  0  0  0  0  0  0  0  0  0  # atno 6908 bound_to 6896
  151.8206  135.0653  160.0475 H   0  0  0  0  0  0  0  0  0  0  0  0  # atno 6909 bound_to 6896
  145.6761  140.9204  143.0857 H   0  0  0  0  0  0  0  0  0  0  0  0  # atno 7974 bound_to 7965
  156.1594  140.3143  155.8782 H   0  0  0  0  0  0  0  0  0  0  0  0  # atno 8008 bound_to 7997
  155.3812  140.0488  157.3060 H   0  0  0  0  0  0  0  0  0  0  0  0  # atno 8009 bound_to 7997
  154.5132  140.2172  155.9126 H   0  0  0  0  0  0  0  0  0  0  0  0  # atno 8010 bound_to 7997
  139.8635  144.6531  150.9031 H   0  0  0  0  0  0  0  0  0  0  0  0  # atno 10167 bound_to 10162
  156.5333  130.8530  151.2724 H   0  0  0  0  0  0  0  0  0  0  0  0  # atno 10718 bound_to 10713
  154.3725  135.6092  153.5747 H   0  0  0  0  0  0  0  0  0  0  0  0  # atno 10763 bound_to 10752
  152.9790  135.5841  154.4505 H   0  0  0  0  0  0  0  0  0  0  0  0  # atno 10764 bound_to 10752
  154.4261  135.2847  155.1921 H   0  0  0  0  0  0  0  0  0  0  0  0  # atno 10765 bound_to 10752
  140.0942  134.9022  157.1697 H   0  0  0  0  0  0  0  0  0  0  0  0  # atno 11005 bound_to 11000
  144.7041  139.8635  143.7435 LP  0  0  0  0  0  0  0  0  0  0  0  0  # atno 17320 bound_to 7965
  146.1004  139.4000  143.0350 LP  0  0  0  0  0  0  0  0  0  0  0  0  # atno 17321 bound_to 7965
  140.7771  143.3724  151.1625 LP  0  0  0  0  0  0  0  0  0  0  0  0  # atno 17342 bound_to 10162
  139.7351  143.9011  152.3032 LP  0  0  0  0  0  0  0  0  0  0  0  0  # atno 17343 bound_to 10162
  157.7418  130.9877  150.2470 LP  0  0  0  0  0  0  0  0  0  0  0  0  # atno 17370 bound_to 10713
  156.3039  130.3762  149.7724 LP  0  0  0  0  0  0  0  0  0  0  0  0  # atno 17371 bound_to 10713
  140.3310  134.2810  155.7228 LP  0  0  0  0  0  0  0  0  0  0  0  0  # atno 17394 bound_to 11000
  141.2087  133.7770  157.0043 LP  0  0  0  0  0  0  0  0  0  0  0  0  # atno 17395 bound_to 11000

$$$$
