AV-unprocessed.smi:391|AV-procd|sdf|2479|dock8
  -GOLD-   2262022423D 1   1.00000     0.00000
 Structure written by MMmdl.
 36 37  0  0  0  0  0  0  0  0  1 V2000
  153.7160  136.9570  163.8424 C   0  0  0  0  0  0  0  0  0  0  0  0
  154.1472  136.8737  162.3723 C   0  0  0  0  0  0  0  0  0  0  0  0
  155.4154  136.0225  162.2007 C   0  0  0  0  0  0  0  0  0  0  0  0
  154.3634  138.2210  161.8533 N   0  0  0  0  0  0  0  0  0  0  0  0
  153.7326  138.7612  160.7995 C   0  0  0  0  0  0  0  0  0  0  0  0
  152.8728  138.1656  160.1486 O   0  0  0  0  0  0  0  0  0  0  0  0
  154.1444  140.1971  160.4409 C   0  0  0  0  0  0  0  0  0  0  0  0
  153.1239  140.9269  159.6567 N   0  0  0  0  0  0  0  0  0  0  0  0
  152.7478  140.4235  158.3852 C   0  0  0  0  0  0  0  0  0  0  0  0
  153.2429  139.3869  157.9399 O   0  0  0  0  0  0  0  0  0  0  0  0
  151.7622  141.2218  157.6594 C   0  0  0  0  0  0  0  0  0  0  0  0
  151.3788  140.7635  156.3653 C   0  0  0  0  0  0  0  0  0  0  0  0
  151.0761  140.3688  155.3203 N   0  0  0  0  0  0  0  0  0  0  0  0
  151.2458  142.3458  158.1973 C   0  0  0  0  0  0  0  0  0  0  0  0
  151.5982  142.7979  159.4502 N   0  0  0  0  0  0  0  0  0  0  0  0
  151.1583  144.0757  159.9348 C   0  0  0  0  0  0  0  0  0  0  0  0
  151.2614  145.3074  159.0563 C   0  0  0  0  0  0  0  0  0  0  0  0
  152.1904  145.1406  160.2339 C   0  0  0  0  0  0  0  0  0  0  0  0
  152.5913  142.1239  160.1941 C   0  0  0  0  0  0  0  0  0  0  0  0
  152.9920  142.5668  161.2736 O   0  0  0  0  0  0  0  0  0  0  0  0
  153.5192  135.9649  164.2495 H   0  0  0  0  0  0  0  0  0  0  0  0
  152.8032  137.5437  163.9507 H   0  0  0  0  0  0  0  0  0  0  0  0
  154.4869  137.4218  164.4580 H   0  0  0  0  0  0  0  0  0  0  0  0
  153.3349  136.4041  161.8146 H   0  0  0  0  0  0  0  0  0  0  0  0
  155.2630  135.0120  162.5809 H   0  0  0  0  0  0  0  0  0  0  0  0
  156.2598  136.4556  162.7379 H   0  0  0  0  0  0  0  0  0  0  0  0
  155.6971  135.9375  161.1507 H   0  0  0  0  0  0  0  0  0  0  0  0
  155.0521  138.7853  162.3298 H   0  0  0  0  0  0  0  0  0  0  0  0
  154.3883  140.7214  161.3660 H   0  0  0  0  0  0  0  0  0  0  0  0
  155.0903  140.1681  159.8969 H   0  0  0  0  0  0  0  0  0  0  0  0
  150.5235  142.9137  157.6284 H   0  0  0  0  0  0  0  0  0  0  0  0
  150.3025  144.0456  160.6070 H   0  0  0  0  0  0  0  0  0  0  0  0
  151.6943  145.1988  158.0636 H   0  0  0  0  0  0  0  0  0  0  0  0
  150.4694  146.0486  159.1398 H   0  0  0  0  0  0  0  0  0  0  0  0
  152.0199  145.7732  161.1025 H   0  0  0  0  0  0  0  0  0  0  0  0
  153.2338  144.9197  160.0164 H   0  0  0  0  0  0  0  0  0  0  0  0
  1  2  1  0  0  0  0
  1 21  1  0  0  0  0
  1 22  1  0  0  0  0
  1 23  1  0  0  0  0
  2  3  1  0  0  0  0
  2  4  1  0  0  0  0
  2 24  1  0  0  0  0
  3 25  1  0  0  0  0
  3 26  1  0  0  0  0
  3 27  1  0  0  0  0
  4  5  1  0  0  0  0
  4 28  1  0  0  0  0
  5  6  2  0  0  0  0
  5  7  1  0  0  0  0
  7  8  1  0  0  0  0
  7 29  1  0  0  0  0
  7 30  1  0  0  0  0
  8 19  1  0  0  0  0
  8  9  1  0  0  0  0
  9 10  2  0  0  0  0
  9 11  1  0  0  0  0
 11 12  1  0  0  0  0
 11 14  2  0  0  0  0
 12 13  3  0  0  0  0
 14 15  1  0  0  0  0
 14 31  1  0  0  0  0
 15 16  1  0  0  0  0
 15 19  1  0  0  0  0
 16 18  1  0  0  0  0
 16 17  1  0  0  0  0
 16 32  1  0  0  0  0
 17 18  1  0  0  0  0
 17 33  1  0  0  0  0
 17 34  1  0  0  0  0
 18 35  1  0  0  0  0
 18 36  1  0  0  0  0
 19 20  2  0  0  0  0
M  END
> <s_m_source_file>
AV-unprocessed.smi

> <i_m_source_file_index>
391

> <i_lp_mmshare_version>
43012

> <i_f3d_flags>
0

> <s_epik_input>
W0NIM11bQ0hdKFtDSDNdKVtOSF1DKD1PKVtDSDJdbjFjKD1PKWMoQyNOKVtjSF1uKGMxPU8pW0NIXTJbQ0gyXVtDSDJdMg==

> <s_epik_cmdline>
J2VwaWtfcHl0aG9uJywgJy1waCcsICc3LjAnLCAnLXRuJywgJzgnLCAnLW1hJywgJzIwMCcsICctbWV0YWxfYmluZGluZycsICctaW1hZScsICc8aW5maWxlLm1hZT4nLCAnLW9tYWUnLCAnPG91dGZpbGUubWFlPic=

> <r_lp_tautomer_probability>
1

> <r_epik_Ionization_Penalty>
2.07526e-08

> <r_epik_Ionization_Penalty_Charging>
8.22213e-11

> <r_epik_Ionization_Penalty_Neutral>
2.06703e-08

> <r_epik_State_Penalty>
-0

> <r_epik_Charging_Adjusted_Penalty>
8.22213e-11

> <i_epik_Tot_Q>
0

> <i_epik_Tot_abs_Q>
0

> <r_epik_Metal_State_Penalty>
-0

> <b_epik_Metal_Only>
0

> <s_lp_Force_Field>
OPLS_2005

> <r_lp_Energy>
27.641

> <b_lp_Chiralities_Consistent>
1

> <s_lp_Variant>
AV-unprocessed.smi:391-1

> <Gold.Version>
5.8.1

> <Gold.Id.Protein>
6NUR|6NUR_protein|mol2

> <Gold.PLP.Fitness>
46.9163

> <Gold.PLP.PLP>
-41.5840

> <Gold.PLP.part.hbond>
-2.0000

> <Gold.PLP.part.metal>
0.0000

> <Gold.PLP.part.buried>
-6.1402

> <Gold.PLP.part.nonpolar>
-32.7193

> <Gold.PLP.part.repulsive>
0.0709

> <Gold.PLP.ligand.clash>
0.0000

> <Gold.PLP.ligand.torsion>
0.4431

> <Gold.PLP.Chemscore.Hbond>
2.0000

> <Gold.PLP.Chemscore.CHOScore>
0.0000

> <Gold.PLP.Chemscore.Metal>
0.0000

> <Gold.Chemscore.Hbonds>
donor molecule, donor type, donor heavy atom, donor atom, acceptor molecule, acceptor atom, score
      P1  H  7989  7998       L1    13  1.00
      P1  H  7997  8009       L1    10  1.00

> <Gold.PLP.Chemscore.Internal.Correction>
0.2184

> <Gold.Rescore>
     Score         DG    S(hbond)    S(metal)    S(lipo)     H(rot)  DE(clash)    DE(int)     intcor
     11.68     -14.30       1.50        0.00      72.51       1.82       0.52       2.10       ----

> <Gold.Chemscore.Fitness>
11.6786

> <Gold.Chemscore.DG>
-14.2974

> <Gold.Chemscore.ZeroCoef>
-5.4800

> <Gold.Chemscore.Hbond>
1.4975

> <Gold.Chemscore.Metal>
0.0000

> <Gold.Chemscore.Lipo>
72.5112

> <Gold.Chemscore.Internal_Hbond>
0.0000

> <Gold.Chemscore.DEClash>
0.5168

> <Gold.Chemscore.DEInternal>
2.1020

> <Gold.Chemscore.Rot>
1.8234

> <Gold.Chemscore.Internal.Correction>
   9.000000E+99

> <Gold.Chemscore.Hbonds>
donor molecule, donor type, donor heavy atom, donor atom, acceptor molecule, acceptor atom, score
      P1  H  7989  7998       L1    13  0.94
      P1  H  7997  8009       L1    10  0.30

> <Gold.Chemscore.Hbond.Weighted>
-5.0016

> <Gold.Chemscore.Metal.Weighted>
-0.0000

> <Gold.Chemscore.Lipo.Weighted>
-8.4838

> <Gold.Chemscore.Internal_Hbond.Weighted>
0.0000

> <Gold.Chemscore.DEClash.Weighted>
0.5168

> <Gold.Chemscore.DEInternal.Weighted>
2.1020

> <Gold.Chemscore.Rot.Weighted>
4.6680

> <Gold.Chemscore.Internal.Correction.Weighted>
   9.000000E+99

> <Gold.Protein.RotatedTorsions>
[ 6907 6896 6895 6894 ] final  103.57 input  -60.11 | X-H torsion
[ 7974 7965 7964 7962 ] final  161.47 input  175.53 | X-H torsion
[ 8008 7997 7996 7995 ] final  160.36 input   59.86 | X-H torsion
[ 10167 10162 10161 10158 ] final   99.52 input  -65.29 | X-H torsion
[ 10718 10713 10712 10709 ] final  -68.24 input   66.30 | X-H torsion
[ 10763 10752 10751 10750 ] final   69.35 input  -60.55 | X-H torsion
[ 11005 11000 10999 10996 ] final   -9.67 input  -57.11 | X-H torsion

> <Gold.Protein.ActiveResidues>
 VAL166  LYS551  ARG553  GLY616  TRP617  ASP618  TYR619  PRO620  LYS621  CYS622 
 ASP623  PHE694  ASN695  SER759  ASP760  ASP761  ALA762  ILE779  LEU786  VAL792 
 PHE793  MET794  SER795  GLU796  ALA797  LYS798  CYS799  TRP800  GLU811  SER814 

> <Gold.Protein.RotatedAtoms>
  152.5291  133.9806  159.7804 H   0  0  0  0  0  0  0  0  0  0  0  0  # atno 6907 bound_to 6896
  151.0060  133.6002  159.2696 H   0  0  0  0  0  0  0  0  0  0  0  0  # atno 6908 bound_to 6896
  151.3093  135.0796  159.9320 H   0  0  0  0  0  0  0  0  0  0  0  0  # atno 6909 bound_to 6896
  144.7684  139.7903  143.6306 H   0  0  0  0  0  0  0  0  0  0  0  0  # atno 7974 bound_to 7965
  156.2178  140.1806  156.7549 H   0  0  0  0  0  0  0  0  0  0  0  0  # atno 8008 bound_to 7997
  154.5818  140.0665  156.9143 H   0  0  0  0  0  0  0  0  0  0  0  0  # atno 8009 bound_to 7997
  155.2490  140.3327  155.4286 H   0  0  0  0  0  0  0  0  0  0  0  0  # atno 8010 bound_to 7997
  139.7610  144.6954  151.0292 H   0  0  0  0  0  0  0  0  0  0  0  0  # atno 10167 bound_to 10162
  156.0516  130.4291  150.1971 H   0  0  0  0  0  0  0  0  0  0  0  0  # atno 10718 bound_to 10713
  153.0283  135.5214  154.7275 H   0  0  0  0  0  0  0  0  0  0  0  0  # atno 10763 bound_to 10752
  154.6313  135.2900  155.0216 H   0  0  0  0  0  0  0  0  0  0  0  0  # atno 10764 bound_to 10752
  154.1167  135.6614  153.4947 H   0  0  0  0  0  0  0  0  0  0  0  0  # atno 10765 bound_to 10752
  140.7366  133.8705  155.8934 H   0  0  0  0  0  0  0  0  0  0  0  0  # atno 11005 bound_to 11000
  146.1811  139.5004  142.9866 LP  0  0  0  0  0  0  0  0  0  0  0  0  # atno 17320 bound_to 7965
  145.6399  141.0286  143.1817 LP  0  0  0  0  0  0  0  0  0  0  0  0  # atno 17321 bound_to 7965
  140.7807  143.4697  151.0163 LP  0  0  0  0  0  0  0  0  0  0  0  0  # atno 17342 bound_to 10162
  139.8383  143.7598  152.3180 LP  0  0  0  0  0  0  0  0  0  0  0  0  # atno 17343 bound_to 10162
  157.0054  130.9935  151.3380 LP  0  0  0  0  0  0  0  0  0  0  0  0  # atno 17370 bound_to 10713
  157.5447  130.8143  149.8071 LP  0  0  0  0  0  0  0  0  0  0  0  0  # atno 17371 bound_to 10713
  140.9874  134.1324  157.4440 LP  0  0  0  0  0  0  0  0  0  0  0  0  # atno 17394 bound_to 11000
  139.8815  135.0030  156.6158 LP  0  0  0  0  0  0  0  0  0  0  0  0  # atno 17395 bound_to 11000

$$$$
