AV-unprocessed.smi:2944|AV-procd|sdf|11275|dock10
  -GOLD-   2272016163D 1   1.00000     0.00000
 Structure written by MMmdl.
 45 47  0  0  0  0  0  0  0  0  2 V2000
  149.6072  139.7200  154.8845 C   0  0  0  0  0  0  0  0  0  0  0  0
  150.9848  140.0371  154.9736 O   0  0  0  0  0  0  0  0  0  0  0  0
  151.2686  140.9266  156.0410 C   0  0  0  0  0  0  0  0  0  0  0  0
  151.3558  140.1562  157.3663 C   0  0  0  0  0  0  0  0  0  0  0  0
  152.0833  140.9055  158.4017 N   0  0  0  0  0  0  0  0  0  0  0  0
  153.1415  140.5382  159.1766 C   0  0  0  0  0  0  0  0  0  0  0  0
  153.9790  138.9888  159.1522 S   0  0  0  0  0  0  0  0  0  0  0  0
  153.0449  137.9530  160.3186 C   0  0  1  0  0  0  0  0  0  0  0  0
  151.6741  137.5949  159.7264 C   0  0  0  0  0  0  0  0  0  0  0  0
  153.8279  136.6761  160.6941 C   0  0  0  0  0  0  0  0  0  0  0  0
  154.0687  135.8771  159.7866 O   0  0  0  0  0  0  0  0  0  0  0  0
  154.2854  136.4461  161.9554 N   0  0  0  0  0  0  0  0  0  0  0  0
  153.8636  137.3013  163.0663 C   0  0  0  0  0  0  0  0  0  0  0  0
  154.5379  136.6957  164.2906 C   0  0  0  0  0  0  0  0  0  0  0  0
  155.2964  135.6170  163.7089 N   0  0  0  0  0  0  0  0  0  0  0  0
  155.1637  135.5076  162.3848 C   0  0  0  0  0  0  0  0  0  0  0  0
  155.7778  134.6758  161.7183 O   0  0  0  0  0  0  0  0  0  0  0  0
  153.4595  141.5931  159.9751 N   0  3  0  0  0  0  0  0  0  0  0  0
  152.5920  142.6538  159.7111 C   0  0  0  0  0  0  0  0  0  0  0  0
  152.5175  143.9276  160.2663 C   0  0  0  0  0  0  0  0  0  0  0  0
  151.5105  144.7785  159.7655 C   0  0  0  0  0  0  0  0  0  0  0  0
  150.6287  144.3542  158.7503 C   0  0  0  0  0  0  0  0  0  0  0  0
  150.7135  143.0604  158.1950 C   0  0  0  0  0  0  0  0  0  0  0  0
  151.7083  142.2221  158.6987 C   0  0  0  0  0  0  0  0  0  0  0  0
  149.4390  139.0499  154.0414 H   0  0  0  0  0  0  0  0  0  0  0  0
  149.0040  140.6154  154.7299 H   0  0  0  0  0  0  0  0  0  0  0  0
  149.2615  139.2156  155.7872 H   0  0  0  0  0  0  0  0  0  0  0  0
  152.2066  141.4504  155.8524 H   0  0  0  0  0  0  0  0  0  0  0  0
  150.4869  141.6813  156.1085 H   0  0  0  0  0  0  0  0  0  0  0  0
  150.3627  139.9029  157.7370 H   0  0  0  0  0  0  0  0  0  0  0  0
  151.8752  139.2096  157.2139 H   0  0  0  0  0  0  0  0  0  0  0  0
  152.9011  138.5961  161.1824 H   0  0  0  0  0  0  0  0  0  0  0  0
  151.0798  137.0086  160.4284 H   0  0  0  0  0  0  0  0  0  0  0  0
  151.7745  137.0142  158.8086 H   0  0  0  0  0  0  0  0  0  0  0  0
  151.1053  138.4942  159.4892 H   0  0  0  0  0  0  0  0  0  0  0  0
  154.1917  138.3303  162.9085 H   0  0  0  0  0  0  0  0  0  0  0  0
  152.7775  137.2980  163.1745 H   0  0  0  0  0  0  0  0  0  0  0  0
  155.1952  137.4061  164.7932 H   0  0  0  0  0  0  0  0  0  0  0  0
  153.8138  136.3098  165.0089 H   0  0  0  0  0  0  0  0  0  0  0  0
  155.9044  135.0288  164.2606 H   0  0  0  0  0  0  0  0  0  0  0  0
  153.1938  144.2564  161.0419 H   0  0  0  0  0  0  0  0  0  0  0  0
  151.4137  145.7772  160.1663 H   0  0  0  0  0  0  0  0  0  0  0  0
  149.8718  145.0354  158.3892 H   0  0  0  0  0  0  0  0  0  0  0  0
  150.0360  142.7496  157.4136 H   0  0  0  0  0  0  0  0  0  0  0  0
  154.2145  141.5848  160.6487 H   0  0  0  0  0  0  0  0  0  0  0  0
  1  2  1  0  0  0  0
  1 25  1  0  0  0  0
  1 26  1  0  0  0  0
  1 27  1  0  0  0  0
  2  3  1  0  0  0  0
  3  4  1  0  0  0  0
  3 28  1  0  0  0  0
  3 29  1  0  0  0  0
  4  5  1  0  0  0  0
  4 30  1  0  0  0  0
  4 31  1  0  0  0  0
  5 24  1  0  0  0  0
  5  6  1  0  0  0  0
  6  7  1  0  0  0  0
  6 18  2  0  0  0  0
  7  8  1  0  0  0  0
  8  9  1  0  0  0  0
  8 10  1  0  0  0  0
  8 32  1  0  0  0  0
  9 33  1  0  0  0  0
  9 34  1  0  0  0  0
  9 35  1  0  0  0  0
 10 11  2  0  0  0  0
 10 12  1  0  0  0  0
 12 16  1  0  0  0  0
 12 13  1  0  0  0  0
 13 14  1  0  0  0  0
 13 36  1  0  0  0  0
 13 37  1  0  0  0  0
 14 15  1  0  0  0  0
 14 38  1  0  0  0  0
 14 39  1  0  0  0  0
 15 16  1  0  0  0  0
 15 40  1  0  0  0  0
 16 17  2  0  0  0  0
 18 19  1  0  0  0  0
 18 45  1  0  0  0  0
 19 24  2  0  0  0  0
 19 20  1  0  0  0  0
 20 21  2  0  0  0  0
 20 41  1  0  0  0  0
 21 22  1  0  0  0  0
 21 42  1  0  0  0  0
 22 23  2  0  0  0  0
 22 43  1  0  0  0  0
 23 24  1  0  0  0  0
 23 44  1  0  0  0  0
M  CHG  1  18   1
M  END
> <s_m_source_file>
AV-unprocessed.smi

> <i_m_source_file_index>
2944

> <i_lp_mmshare_version>
43012

> <i_f3d_flags>
0

> <s_epik_input>
W2NIXTFbY0hdW2NIXVtjSF1jKGMxMiluKFtDSDJdW0NIMl1PW0NIM10pYyhuMilTW0NASF0oW0NIM10pQyg9TylOM1tDSDJdW0NIMl1bTkhdQzM9Tw==

> <s_epik_cmdline>
J2VwaWtfcHl0aG9uJywgJy1waCcsICc3LjAnLCAnLXRuJywgJzgnLCAnLW1hJywgJzIwMCcsICctbWV0YWxfYmluZGluZycsICctaW1hZScsICc8aW5maWxlLm1hZT4nLCAnLW9tYWUnLCAnPG91dGZpbGUubWFlPic=

> <r_lp_tautomer_probability>
0.9999

> <r_epik_Ionization_Penalty>
1.88808

> <r_epik_Ionization_Penalty_Charging>
1.88806

> <r_epik_Ionization_Penalty_Neutral>
2.68145e-05

> <r_epik_State_Penalty>
2.00836

> <r_epik_Charging_Adjusted_Penalty>
3.89641

> <i_epik_Tot_Q>
1

> <i_epik_Tot_abs_Q>
1

> <r_epik_Metal_State_Penalty>
2.03272

> <b_epik_Metal_Only>
0

> <s_lp_Force_Field>
OPLS_2005

> <r_lp_Energy>
44.4651

> <b_lp_Chiralities_Consistent>
1

> <s_lp_Variant>
AV-unprocessed.smi:2944-4

> <Gold.Version>
5.8.1

> <Gold.Id.Protein>
6NUR|6NUR_protein|mol2

> <Gold.PLP.Fitness>
53.1764

> <Gold.PLP.PLP>
-48.5274

> <Gold.PLP.part.hbond>
-2.0000

> <Gold.PLP.part.metal>
0.0000

> <Gold.PLP.part.buried>
-7.1583

> <Gold.PLP.part.nonpolar>
-40.3158

> <Gold.PLP.part.repulsive>
0.1186

> <Gold.PLP.ligand.clash>
0.0000

> <Gold.PLP.ligand.torsion>
0.7658

> <Gold.PLP.Chemscore.Hbond>
2.0000

> <Gold.PLP.Chemscore.CHOScore>
0.0000

> <Gold.PLP.Chemscore.Metal>
0.0000

> <Gold.Chemscore.Hbonds>
donor molecule, donor type, donor heavy atom, donor atom, acceptor molecule, acceptor atom, score
      P1  H  6896  6907       L1    11  0.94
      P1  H  7989  7998       L1     2  1.00

> <Gold.PLP.Chemscore.Internal.Correction>
0.1807

> <Gold.Rescore>
     Score         DG    S(hbond)    S(metal)    S(lipo)     H(rot)  DE(clash)    DE(int)     intcor
     16.85     -19.40       1.73        0.00     119.96       2.30       0.56       1.99       ----

> <Gold.Chemscore.Fitness>
16.8549

> <Gold.Chemscore.DG>
-19.4047

> <Gold.Chemscore.ZeroCoef>
-5.4800

> <Gold.Chemscore.Hbond>
1.7290

> <Gold.Chemscore.Metal>
0.0000

> <Gold.Chemscore.Lipo>
119.9575

> <Gold.Chemscore.Internal_Hbond>
0.0000

> <Gold.Chemscore.DEClash>
0.5638

> <Gold.Chemscore.DEInternal>
1.9860

> <Gold.Chemscore.Rot>
2.2988

> <Gold.Chemscore.Internal.Correction>
   9.000000E+99

> <Gold.Chemscore.Hbonds>
donor molecule, donor type, donor heavy atom, donor atom, acceptor molecule, acceptor atom, score
      P1  H  6896  6907       L1    11  0.31
      P1  H  7989  7998       L1     2  0.39

> <Gold.Chemscore.Hbond.Weighted>
-5.7747

> <Gold.Chemscore.Metal.Weighted>
-0.0000

> <Gold.Chemscore.Lipo.Weighted>
-14.0350

> <Gold.Chemscore.Internal_Hbond.Weighted>
0.0000

> <Gold.Chemscore.DEClash.Weighted>
0.5638

> <Gold.Chemscore.DEInternal.Weighted>
1.9860

> <Gold.Chemscore.Rot.Weighted>
5.8850

> <Gold.Chemscore.Internal.Correction.Weighted>
   9.000000E+99

> <Gold.Protein.RotatedTorsions>
[ 6907 6896 6895 6894 ] final   70.29 input  -60.11 | X-H torsion
[ 7974 7965 7964 7962 ] final -112.88 input  175.53 | X-H torsion
[ 8008 7997 7996 7995 ] final   69.80 input   59.86 | X-H torsion
[ 10167 10162 10161 10158 ] final   49.89 input  -65.29 | X-H torsion
[ 10718 10713 10712 10709 ] final   19.36 input   66.30 | X-H torsion
[ 10763 10752 10751 10750 ] final   -0.46 input  -60.55 | X-H torsion
[ 11005 11000 10999 10996 ] final  134.11 input  -57.11 | X-H torsion

> <Gold.Protein.ActiveResidues>
 VAL166  LYS551  ARG553  GLY616  TRP617  ASP618  TYR619  PRO620  LYS621  CYS622 
 ASP623  PHE694  ASN695  SER759  ASP760  ASP761  ALA762  ILE779  LEU786  VAL792 
 PHE793  MET794  SER795  GLU796  ALA797  LYS798  CYS799  TRP800  GLU811  SER814 

> <Gold.Protein.RotatedAtoms>
  152.4740  134.4890  159.9689 H   0  0  0  0  0  0  0  0  0  0  0  0  # atno 6907 bound_to 6896
  151.4911  133.3519  159.2861 H   0  0  0  0  0  0  0  0  0  0  0  0  # atno 6908 bound_to 6896
  150.8767  134.8178  159.7256 H   0  0  0  0  0  0  0  0  0  0  0  0  # atno 6909 bound_to 6896
  145.1386  140.8765  143.3715 H   0  0  0  0  0  0  0  0  0  0  0  0  # atno 7974 bound_to 7965
  155.7291  140.3492  155.5051 H   0  0  0  0  0  0  0  0  0  0  0  0  # atno 8008 bound_to 7997
  155.9199  140.1065  157.1236 H   0  0  0  0  0  0  0  0  0  0  0  0  # atno 8009 bound_to 7997
  154.4068  140.1251  156.4653 H   0  0  0  0  0  0  0  0  0  0  0  0  # atno 8010 bound_to 7997
  140.2782  144.3187  150.6271 H   0  0  0  0  0  0  0  0  0  0  0  0  # atno 10167 bound_to 10162
  157.1094  130.6502  149.5893 H   0  0  0  0  0  0  0  0  0  0  0  0  # atno 10718 bound_to 10713
  153.3322  135.6976  153.6938 H   0  0  0  0  0  0  0  0  0  0  0  0  # atno 10763 bound_to 10752
  153.5735  135.3511  155.2848 H   0  0  0  0  0  0  0  0  0  0  0  0  # atno 10764 bound_to 10752
  154.8620  135.4278  154.2514 H   0  0  0  0  0  0  0  0  0  0  0  0  # atno 10765 bound_to 10752
  139.9894  134.9520  156.9821 H   0  0  0  0  0  0  0  0  0  0  0  0  # atno 11005 bound_to 11000
  145.0556  139.3146  143.5906 LP  0  0  0  0  0  0  0  0  0  0  0  0  # atno 17320 bound_to 7965
  146.3507  139.9980  142.8679 LP  0  0  0  0  0  0  0  0  0  0  0  0  # atno 17321 bound_to 7965
  140.5834  143.2171  151.7387 LP  0  0  0  0  0  0  0  0  0  0  0  0  # atno 17342 bound_to 10162
  139.4970  144.4047  152.0144 LP  0  0  0  0  0  0  0  0  0  0  0  0  # atno 17343 bound_to 10162
  155.9854  130.4884  150.7030 LP  0  0  0  0  0  0  0  0  0  0  0  0  # atno 17370 bound_to 10713
  157.4572  131.0879  151.0784 LP  0  0  0  0  0  0  0  0  0  0  0  0  # atno 17371 bound_to 10713
  140.4937  134.1167  155.7237 LP  0  0  0  0  0  0  0  0  0  0  0  0  # atno 17394 bound_to 11000
  141.1553  133.8894  157.1993 LP  0  0  0  0  0  0  0  0  0  0  0  0  # atno 17395 bound_to 11000

$$$$
