AV-unprocessed.smi:671|AV-procd|sdf|3287|dock1
  -GOLD-   22720 0243D 1   1.00000     0.00000
 Structure written by MMmdl.
 50 51  0  0  0  0  0  0  0  0  2 V2000
  147.0505  142.0175  154.0208 C   0  0  0  0  0  0  0  0  0  0  0  0
  148.3493  141.5844  154.6139 C   0  0  0  0  0  0  0  0  0  0  0  0
  149.0682  142.3117  155.5100 N   0  3  0  0  0  0  0  0  0  0  0  0
  150.1832  141.6512  155.8535 N   0  0  0  0  0  0  0  0  0  0  0  0
  151.1031  142.2622  156.8132 C   0  0  0  0  0  0  0  0  0  0  0  0
  150.2494  140.4603  155.1929 C   0  0  0  0  0  0  0  0  0  0  0  0
  151.3634  139.4759  155.3448 C   0  0  0  0  0  0  0  0  0  0  0  0
  149.0875  140.4133  154.4101 C   0  0  0  0  0  0  0  0  0  0  0  0
  148.6757  139.2993  153.4894 C   0  0  0  0  0  0  0  0  0  0  0  0
  147.3917  138.5767  153.9524 C   0  0  2  0  0  0  0  0  0  0  0  0
  147.4984  138.0461  155.3904 C   0  0  0  0  0  0  0  0  0  0  0  0
  147.0942  137.4568  153.0562 N   0  0  0  0  0  0  0  0  0  0  0  0
  145.8895  137.0058  152.6601 C   0  0  0  0  0  0  0  0  0  0  0  0
  144.8445  137.5301  153.0396 O   0  0  0  0  0  0  0  0  0  0  0  0
  145.9320  135.9520  151.8272 N   0  0  0  0  0  0  0  0  0  0  0  0
  144.7736  135.2607  151.2698 C   0  0  1  0  0  0  0  0  0  0  0  0
  145.2198  134.2308  150.2139 C   0  0  0  0  0  0  0  0  0  0  0  0
  144.9038  132.8527  150.7969 C   0  0  0  0  0  0  0  0  0  0  0  0
  143.7208  133.1016  151.7260 C   0  0  0  0  0  0  0  0  0  0  0  0
  144.0202  134.4639  152.3585 C   0  0  2  0  0  0  0  0  0  0  0  0
  142.7699  135.1746  152.8954 C   0  0  0  0  0  0  0  0  0  0  0  0
  146.2639  141.3082  154.2791 H   0  0  0  0  0  0  0  0  0  0  0  0
  147.1303  142.0659  152.9346 H   0  0  0  0  0  0  0  0  0  0  0  0
  146.7649  143.0021  154.3924 H   0  0  0  0  0  0  0  0  0  0  0  0
  151.5173  141.4874  157.4588 H   0  0  0  0  0  0  0  0  0  0  0  0
  150.5739  142.9939  157.4252 H   0  0  0  0  0  0  0  0  0  0  0  0
  151.9099  142.7536  156.2688 H   0  0  0  0  0  0  0  0  0  0  0  0
  151.3114  138.7018  154.5802 H   0  0  0  0  0  0  0  0  0  0  0  0
  151.3084  138.9983  156.3232 H   0  0  0  0  0  0  0  0  0  0  0  0
  152.3264  139.9793  155.2573 H   0  0  0  0  0  0  0  0  0  0  0  0
  148.5224  139.7123  152.4919 H   0  0  0  0  0  0  0  0  0  0  0  0
  149.4826  138.5763  153.3692 H   0  0  0  0  0  0  0  0  0  0  0  0
  146.5557  139.2779  153.9290 H   0  0  0  0  0  0  0  0  0  0  0  0
  147.6425  138.8568  156.1042 H   0  0  0  0  0  0  0  0  0  0  0  0
  148.3339  137.3535  155.4986 H   0  0  0  0  0  0  0  0  0  0  0  0
  146.5895  137.5181  155.6812 H   0  0  0  0  0  0  0  0  0  0  0  0
  147.8971  136.9813  152.6696 H   0  0  0  0  0  0  0  0  0  0  0  0
  146.8392  135.5950  151.5663 H   0  0  0  0  0  0  0  0  0  0  0  0
  144.1055  135.9760  150.7853 H   0  0  0  0  0  0  0  0  0  0  0  0
  144.6381  134.3781  149.3030 H   0  0  0  0  0  0  0  0  0  0  0  0
  146.2712  134.3209  149.9371 H   0  0  0  0  0  0  0  0  0  0  0  0
  144.6860  132.1119  150.0270 H   0  0  0  0  0  0  0  0  0  0  0  0
  145.7545  132.4912  151.3751 H   0  0  0  0  0  0  0  0  0  0  0  0
  142.8025  133.1519  151.1388 H   0  0  0  0  0  0  0  0  0  0  0  0
  143.5981  132.3125  152.4685 H   0  0  0  0  0  0  0  0  0  0  0  0
  144.6967  134.2843  153.1966 H   0  0  0  0  0  0  0  0  0  0  0  0
  142.0514  135.3705  152.0988 H   0  0  0  0  0  0  0  0  0  0  0  0
  143.0293  136.1299  153.3522 H   0  0  0  0  0  0  0  0  0  0  0  0
  142.2712  134.5698  153.6529 H   0  0  0  0  0  0  0  0  0  0  0  0
  148.8557  143.2201  155.9031 H   0  0  0  0  0  0  0  0  0  0  0  0
  1  2  1  0  0  0  0
  1 22  1  0  0  0  0
  1 23  1  0  0  0  0
  1 24  1  0  0  0  0
  2  8  1  0  0  0  0
  2  3  2  0  0  0  0
  3  4  1  0  0  0  0
  3 50  1  0  0  0  0
  4  5  1  0  0  0  0
  4  6  1  0  0  0  0
  5 25  1  0  0  0  0
  5 26  1  0  0  0  0
  5 27  1  0  0  0  0
  6  7  1  0  0  0  0
  6  8  2  0  0  0  0
  7 28  1  0  0  0  0
  7 29  1  0  0  0  0
  7 30  1  0  0  0  0
  8  9  1  0  0  0  0
  9 10  1  0  0  0  0
  9 31  1  0  0  0  0
  9 32  1  0  0  0  0
 10 11  1  0  0  0  0
 10 12  1  0  0  0  0
 10 33  1  0  0  0  0
 11 34  1  0  0  0  0
 11 35  1  0  0  0  0
 11 36  1  0  0  0  0
 12 13  1  0  0  0  0
 12 37  1  0  0  0  0
 13 14  2  0  0  0  0
 13 15  1  0  0  0  0
 15 16  1  0  0  0  0
 15 38  1  0  0  0  0
 16 20  1  0  0  0  0
 16 17  1  0  0  0  0
 16 39  1  0  0  0  0
 17 18  1  0  0  0  0
 17 40  1  0  0  0  0
 17 41  1  0  0  0  0
 18 19  1  0  0  0  0
 18 42  1  0  0  0  0
 18 43  1  0  0  0  0
 19 20  1  0  0  0  0
 19 44  1  0  0  0  0
 19 45  1  0  0  0  0
 20 21  1  0  0  0  0
 20 46  1  0  0  0  0
 21 47  1  0  0  0  0
 21 48  1  0  0  0  0
 21 49  1  0  0  0  0
M  CHG  1   3   1
M  END
> <s_m_source_file>
AV-unprocessed.smi

> <i_m_source_file_index>
671

> <i_lp_mmshare_version>
43012

> <i_f3d_flags>
0

> <s_epik_input>
W0NIM11jMW5uKFtDSDNdKWMoW0NIM10pYzFbQ0gyXVtDQEhdKFtDSDNdKVtOSF1DKD1PKVtOSF1bQ0BASF0yW0NIMl1bQ0gyXVtDSDJdW0NASF0yW0NIM10=

> <s_epik_cmdline>
J2VwaWtfcHl0aG9uJywgJy1waCcsICc3LjAnLCAnLXRuJywgJzgnLCAnLW1hJywgJzIwMCcsICctbWV0YWxfYmluZGluZycsICctaW1hZScsICc8aW5maWxlLm1hZT4nLCAnLW9tYWUnLCAnPG91dGZpbGUubWFlPic=

> <r_lp_tautomer_probability>
1

> <r_epik_Ionization_Penalty>
2.28705

> <r_epik_Ionization_Penalty_Charging>
2.28698

> <r_epik_Ionization_Penalty_Neutral>
6.23157e-05

> <r_epik_State_Penalty>
2.43671

> <r_epik_Charging_Adjusted_Penalty>
4.72369

> <i_epik_Tot_Q>
1

> <i_epik_Tot_abs_Q>
1

> <r_epik_Metal_State_Penalty>
2.44911

> <b_epik_Metal_Only>
0

> <s_lp_Force_Field>
OPLS_2005

> <r_lp_Energy>
34.681

> <b_lp_Chiralities_Consistent>
1

> <s_lp_Variant>
AV-unprocessed.smi:671-15

> <Gold.Version>
5.8.1

> <Gold.Id.Protein>
6NUR|6NUR_protein|mol2

> <Gold.PLP.Fitness>
46.3544

> <Gold.PLP.PLP>
-37.1058

> <Gold.PLP.part.hbond>
-2.7054

> <Gold.PLP.part.metal>
0.0000

> <Gold.PLP.part.buried>
-0.3541

> <Gold.PLP.part.nonpolar>
-34.5537

> <Gold.PLP.part.repulsive>
0.4531

> <Gold.PLP.ligand.clash>
0.0000

> <Gold.PLP.ligand.torsion>
0.4758

> <Gold.PLP.Chemscore.Hbond>
3.3826

> <Gold.PLP.Chemscore.CHOScore>
0.0000

> <Gold.PLP.Chemscore.Metal>
0.0000

> <Gold.Chemscore.Hbonds>
donor molecule, donor type, donor heavy atom, donor atom, acceptor molecule, acceptor atom, score
      L1  H     3    50       P1  8028  1.72
      L1  H    12    37       P1  7948  0.98
      L1  H    15    38       P1  7948  0.44

> <Gold.PLP.Chemscore.Internal.Correction>
0.0525

> <Gold.Rescore>
     Score         DG    S(hbond)    S(metal)    S(lipo)     H(rot)  DE(clash)    DE(int)     intcor
     16.79     -20.44       2.44        0.00      91.23       1.51       3.10       0.55       ----

> <Gold.Chemscore.Fitness>
16.7894

> <Gold.Chemscore.DG>
-20.4379

> <Gold.Chemscore.ZeroCoef>
-5.4800

> <Gold.Chemscore.Hbond>
2.4368

> <Gold.Chemscore.Metal>
0.0000

> <Gold.Chemscore.Lipo>
91.2285

> <Gold.Chemscore.Internal_Hbond>
0.0000

> <Gold.Chemscore.DEClash>
3.1032

> <Gold.Chemscore.DEInternal>
0.5453

> <Gold.Chemscore.Rot>
1.5057

> <Gold.Chemscore.Internal.Correction>
   9.000000E+99

> <Gold.Chemscore.Hbonds>
donor molecule, donor type, donor heavy atom, donor atom, acceptor molecule, acceptor atom, score
      L1  H     3    50       P1  8028  0.80
      L1  H    12    37       P1  7948  0.92
      L1  H    15    38       P1  7948  0.45

> <Gold.Chemscore.Hbond.Weighted>
-8.1389

> <Gold.Chemscore.Metal.Weighted>
-0.0000

> <Gold.Chemscore.Lipo.Weighted>
-10.6737

> <Gold.Chemscore.Internal_Hbond.Weighted>
0.0000

> <Gold.Chemscore.DEClash.Weighted>
3.1032

> <Gold.Chemscore.DEInternal.Weighted>
0.5453

> <Gold.Chemscore.Rot.Weighted>
3.8547

> <Gold.Chemscore.Internal.Correction.Weighted>
   9.000000E+99

> <Gold.Protein.RotatedTorsions>
[ 6907 6896 6895 6894 ] final  -54.75 input  -60.11 | X-H torsion
[ 7974 7965 7964 7962 ] final -107.87 input  175.53 | X-H torsion
[ 8008 7997 7996 7995 ] final -110.69 input   59.86 | X-H torsion
[ 10167 10162 10161 10158 ] final   71.62 input  -65.29 | X-H torsion
[ 10718 10713 10712 10709 ] final  -81.01 input   66.30 | X-H torsion
[ 10763 10752 10751 10750 ] final   89.41 input  -60.55 | X-H torsion
[ 11005 11000 10999 10996 ] final   20.00 input  -57.11 | X-H torsion

> <Gold.Protein.ActiveResidues>
 VAL166  LYS551  ARG553  GLY616  TRP617  ASP618  TYR619  PRO620  LYS621  CYS622 
 ASP623  PHE694  ASN695  SER759  ASP760  ASP761  ALA762  ILE779  LEU786  VAL792 
 PHE793  MET794  SER795  GLU796  ALA797  LYS798  CYS799  TRP800  GLU811  SER814 

> <Gold.Protein.RotatedAtoms>
  150.8311  134.7564  159.6853 H   0  0  0  0  0  0  0  0  0  0  0  0  # atno 6907 bound_to 6896
  152.4415  134.5577  159.9895 H   0  0  0  0  0  0  0  0  0  0  0  0  # atno 6908 bound_to 6896
  151.5738  133.3349  159.3030 H   0  0  0  0  0  0  0  0  0  0  0  0  # atno 6909 bound_to 6896
  145.1999  140.9052  143.3375 H   0  0  0  0  0  0  0  0  0  0  0  0  # atno 7974 bound_to 7965
  154.9783  140.0396  157.2266 H   0  0  0  0  0  0  0  0  0  0  0  0  # atno 8008 bound_to 7997
  154.7737  140.2806  155.6095 H   0  0  0  0  0  0  0  0  0  0  0  0  # atno 8009 bound_to 7997
  156.2925  140.2605  156.2546 H   0  0  0  0  0  0  0  0  0  0  0  0  # atno 8010 bound_to 7997
  140.0441  144.5365  150.7412 H   0  0  0  0  0  0  0  0  0  0  0  0  # atno 10167 bound_to 10162
  156.0058  130.4591  150.3888 H   0  0  0  0  0  0  0  0  0  0  0  0  # atno 10718 bound_to 10713
  153.1869  135.4471  155.0099 H   0  0  0  0  0  0  0  0  0  0  0  0  # atno 10763 bound_to 10752
  154.8066  135.3277  154.7419 H   0  0  0  0  0  0  0  0  0  0  0  0  # atno 10764 bound_to 10752
  153.7877  135.6972  153.4932 H   0  0  0  0  0  0  0  0  0  0  0  0  # atno 10765 bound_to 10752
  140.4074  134.1654  155.7666 H   0  0  0  0  0  0  0  0  0  0  0  0  # atno 11005 bound_to 11000
  144.9958  139.3645  143.6192 LP  0  0  0  0  0  0  0  0  0  0  0  0  # atno 17320 bound_to 7965
  146.3419  139.9160  142.8773 LP  0  0  0  0  0  0  0  0  0  0  0  0  # atno 17321 bound_to 7965
  140.7247  143.2623  151.4162 LP  0  0  0  0  0  0  0  0  0  0  0  0  # atno 17342 bound_to 10162
  139.5995  144.1326  152.2182 LP  0  0  0  0  0  0  0  0  0  0  0  0  # atno 17343 bound_to 10162
  157.1964  131.0427  151.2673 LP  0  0  0  0  0  0  0  0  0  0  0  0  # atno 17370 bound_to 10713
  157.4015  130.7336  149.6771 LP  0  0  0  0  0  0  0  0  0  0  0  0  # atno 17371 bound_to 10713
  141.1834  133.8365  157.1176 LP  0  0  0  0  0  0  0  0  0  0  0  0  # atno 17394 bound_to 11000
  140.0292  134.9909  157.0747 LP  0  0  0  0  0  0  0  0  0  0  0  0  # atno 17395 bound_to 11000

$$$$
