AV-unprocessed.smi:496|AV-procd|sdf|2716|dock8
  -GOLD-   2262023163D 1   1.00000     0.00000
 Structure written by MMmdl.
 42 44  0  0  0  0  0  0  0  0  1 V2000
  152.7869  138.3330  155.4620 C   0  0  0  0  0  0  0  0  0  0  0  0
  153.4209  138.9105  156.5899 O   0  0  0  0  0  0  0  0  0  0  0  0
  153.3819  138.0647  157.7259 C   0  0  0  0  0  0  0  0  0  0  0  0
  153.0564  138.9111  158.9627 C   0  0  0  0  0  0  0  0  0  0  0  0
  151.8785  139.7404  158.7545 N   0  0  0  0  0  0  0  0  0  0  0  0
  150.6113  139.3566  158.4473 C   0  0  0  0  0  0  0  0  0  0  0  0
  150.2161  137.9129  158.2583 C   0  0  2  0  0  0  0  0  0  0  0  0
  149.4604  137.6876  156.9414 C   0  0  0  0  0  0  0  0  0  0  0  0
  149.3889  137.5080  159.3922 N   0  0  0  0  0  0  0  0  0  0  0  0
  148.9239  136.2672  159.6084 C   0  0  0  0  0  0  0  0  0  0  0  0
  149.1303  135.3228  158.8461 O   0  0  0  0  0  0  0  0  0  0  0  0
  148.1155  136.0895  160.8291 C   0  0  0  0  0  0  0  0  0  0  0  0
  147.7443  134.9616  161.5135 C   0  0  0  0  0  0  0  0  0  0  0  0
  146.9479  135.3941  162.6098 C   0  0  0  0  0  0  0  0  0  0  0  0
  146.8840  136.7546  162.5137 C   0  0  0  0  0  0  0  0  0  0  0  0
  147.5843  137.1928  161.4323 O   0  0  0  0  0  0  0  0  0  0  0  0
  149.7239  140.3483  158.3288 N   0  0  0  0  0  0  0  0  0  0  0  0
  150.4857  141.4743  158.5647 C   0  0  0  0  0  0  0  0  0  0  0  0
  150.1249  142.8406  158.5739 C   0  0  0  0  0  0  0  0  0  0  0  0
  151.0919  143.8323  158.8390 C   0  0  0  0  0  0  0  0  0  0  0  0
  152.4301  143.4723  159.0987 C   0  0  0  0  0  0  0  0  0  0  0  0
  152.8096  142.1162  159.0961 C   0  0  0  0  0  0  0  0  0  0  0  0
  151.8404  141.1297  158.8311 C   0  0  0  0  0  0  0  0  0  0  0  0
  152.8444  139.0201  154.6178 H   0  0  0  0  0  0  0  0  0  0  0  0
  151.7334  138.1320  155.6613 H   0  0  0  0  0  0  0  0  0  0  0  0
  153.2726  137.4006  155.1709 H   0  0  0  0  0  0  0  0  0  0  0  0
  152.6214  137.2935  157.5911 H   0  0  0  0  0  0  0  0  0  0  0  0
  154.3425  137.5626  157.8491 H   0  0  0  0  0  0  0  0  0  0  0  0
  152.9107  138.2853  159.8429 H   0  0  0  0  0  0  0  0  0  0  0  0
  153.9016  139.5583  159.1977 H   0  0  0  0  0  0  0  0  0  0  0  0
  151.0982  137.2749  158.2313 H   0  0  0  0  0  0  0  0  0  0  0  0
  150.0715  137.9784  156.0866 H   0  0  0  0  0  0  0  0  0  0  0  0
  148.5390  138.2699  156.9038 H   0  0  0  0  0  0  0  0  0  0  0  0
  149.1957  136.6374  156.8159 H   0  0  0  0  0  0  0  0  0  0  0  0
  149.1703  138.2205  160.0730 H   0  0  0  0  0  0  0  0  0  0  0  0
  148.0115  133.9466  161.2576 H   0  0  0  0  0  0  0  0  0  0  0  0
  146.4796  134.7870  163.3705 H   0  0  0  0  0  0  0  0  0  0  0  0
  146.4064  137.5271  163.0984 H   0  0  0  0  0  0  0  0  0  0  0  0
  149.1026  143.1263  158.3753 H   0  0  0  0  0  0  0  0  0  0  0  0
  150.8059  144.8738  158.8423 H   0  0  0  0  0  0  0  0  0  0  0  0
  153.1652  144.2379  159.3001 H   0  0  0  0  0  0  0  0  0  0  0  0
  153.8344  141.8396  159.2941 H   0  0  0  0  0  0  0  0  0  0  0  0
  1  2  1  0  0  0  0
  1 24  1  0  0  0  0
  1 25  1  0  0  0  0
  1 26  1  0  0  0  0
  2  3  1  0  0  0  0
  3  4  1  0  0  0  0
  3 27  1  0  0  0  0
  3 28  1  0  0  0  0
  4  5  1  0  0  0  0
  4 29  1  0  0  0  0
  4 30  1  0  0  0  0
  5 23  1  0  0  0  0
  5  6  1  0  0  0  0
  6  7  1  0  0  0  0
  6 17  2  0  0  0  0
  7  8  1  0  0  0  0
  7  9  1  0  0  0  0
  7 31  1  0  0  0  0
  8 32  1  0  0  0  0
  8 33  1  0  0  0  0
  8 34  1  0  0  0  0
  9 10  1  0  0  0  0
  9 35  1  0  0  0  0
 10 11  2  0  0  0  0
 10 12  1  0  0  0  0
 12 16  1  0  0  0  0
 12 13  2  0  0  0  0
 13 14  1  0  0  0  0
 13 36  1  0  0  0  0
 14 15  2  0  0  0  0
 14 37  1  0  0  0  0
 15 16  1  0  0  0  0
 15 38  1  0  0  0  0
 17 18  1  0  0  0  0
 18 23  2  0  0  0  0
 18 19  1  0  0  0  0
 19 20  2  0  0  0  0
 19 39  1  0  0  0  0
 20 21  1  0  0  0  0
 20 40  1  0  0  0  0
 21 22  2  0  0  0  0
 21 41  1  0  0  0  0
 22 23  1  0  0  0  0
 22 42  1  0  0  0  0
M  END
> <s_m_source_file>
AV-unprocessed.smi

> <i_m_source_file_index>
496

> <i_lp_mmshare_version>
43012

> <i_f3d_flags>
0

> <s_epik_input>
W2NIXTFbY0hdW2NIXVtjSF1jKGMxMiluKFtDSDJdW0NIMl1PW0NIM10pYyhuMilbQ0BIXShbQ0gzXSlbTkhdQyg9TyljM1tjSF1bY0hdW2NIXW8z

> <s_epik_cmdline>
J2VwaWtfcHl0aG9uJywgJy1waCcsICc3LjAnLCAnLXRuJywgJzgnLCAnLW1hJywgJzIwMCcsICctbWV0YWxfYmluZGluZycsICctaW1hZScsICc8aW5maWxlLm1hZT4nLCAnLW9tYWUnLCAnPG91dGZpbGUubWFlPic=

> <r_epik_Ionization_Penalty>
0.116528

> <r_epik_Ionization_Penalty_Charging>
0

> <r_epik_Ionization_Penalty_Neutral>
0.116528

> <r_epik_State_Penalty>
0.106132

> <r_epik_Charging_Adjusted_Penalty>
0.106132

> <i_epik_Tot_Q>
0

> <i_epik_Tot_abs_Q>
0

> <r_epik_Metal_State_Penalty>
0.0963468

> <b_epik_Metal_Only>
0

> <s_lp_Force_Field>
OPLS_2005

> <r_lp_Energy>
7.66614

> <b_lp_Chiralities_Consistent>
1

> <s_lp_Variant>
AV-unprocessed.smi:496-1

> <Gold.Version>
5.8.1

> <Gold.Id.Protein>
6NUR|6NUR_protein|mol2

> <Gold.PLP.Fitness>
51.4623

> <Gold.PLP.PLP>
-41.3152

> <Gold.PLP.part.hbond>
-3.7506

> <Gold.PLP.part.metal>
0.0000

> <Gold.PLP.part.buried>
-6.4762

> <Gold.PLP.part.nonpolar>
-33.0296

> <Gold.PLP.part.repulsive>
0.5369

> <Gold.PLP.ligand.clash>
0.0000

> <Gold.PLP.ligand.torsion>
0.6515

> <Gold.PLP.Chemscore.Hbond>
3.8000

> <Gold.PLP.Chemscore.CHOScore>
0.0000

> <Gold.PLP.Chemscore.Metal>
0.0000

> <Gold.Chemscore.Hbonds>
donor molecule, donor type, donor heavy atom, donor atom, acceptor molecule, acceptor atom, score
      P1  H  6896  6907       L1    11  1.00
      P1  H  6931  6943       L1    16  0.96
      P1  H  6934  6947       L1    16  0.85
      P1  H  7997  8009       L1     2  0.94

> <Gold.PLP.Chemscore.Internal.Correction>
0.0501

> <Gold.Rescore>
     Score         DG    S(hbond)    S(metal)    S(lipo)     H(rot)  DE(clash)    DE(int)     intcor
     23.22     -23.78       3.20        0.00     105.49       1.85       0.11       0.45       ----

> <Gold.Chemscore.Fitness>
23.2233

> <Gold.Chemscore.DG>
-23.7846

> <Gold.Chemscore.ZeroCoef>
-5.4800

> <Gold.Chemscore.Hbond>
3.2014

> <Gold.Chemscore.Metal>
0.0000

> <Gold.Chemscore.Lipo>
105.4946

> <Gold.Chemscore.Internal_Hbond>
0.0000

> <Gold.Chemscore.DEClash>
0.1110

> <Gold.Chemscore.DEInternal>
0.4503

> <Gold.Chemscore.Rot>
1.8480

> <Gold.Chemscore.Internal.Correction>
   9.000000E+99

> <Gold.Chemscore.Hbonds>
donor molecule, donor type, donor heavy atom, donor atom, acceptor molecule, acceptor atom, score
      P1  H  6896  6907       L1    11  0.77
      P1  H  6931  6943       L1    16  0.42
      P1  H  6934  6947       L1    16  0.73
      P1  H  7997  8009       L1     2  0.73

> <Gold.Chemscore.Hbond.Weighted>
-10.6926

> <Gold.Chemscore.Metal.Weighted>
-0.0000

> <Gold.Chemscore.Lipo.Weighted>
-12.3429

> <Gold.Chemscore.Internal_Hbond.Weighted>
0.0000

> <Gold.Chemscore.DEClash.Weighted>
0.1110

> <Gold.Chemscore.DEInternal.Weighted>
0.4503

> <Gold.Chemscore.Rot.Weighted>
4.7308

> <Gold.Chemscore.Internal.Correction.Weighted>
   9.000000E+99

> <Gold.Protein.RotatedTorsions>
[ 6907 6896 6895 6894 ] final  -89.20 input  -60.11 | X-H torsion
[ 7974 7965 7964 7962 ] final -142.56 input  175.53 | X-H torsion
[ 8008 7997 7996 7995 ] final  173.77 input   59.86 | X-H torsion
[ 10167 10162 10161 10158 ] final  105.37 input  -65.29 | X-H torsion
[ 10718 10713 10712 10709 ] final -146.94 input   66.30 | X-H torsion
[ 10763 10752 10751 10750 ] final  178.05 input  -60.55 | X-H torsion
[ 11005 11000 10999 10996 ] final  -78.17 input  -57.11 | X-H torsion

> <Gold.Protein.ActiveResidues>
 VAL166  LYS551  ARG553  GLY616  TRP617  ASP618  TYR619  PRO620  LYS621  CYS622 
 ASP623  PHE694  ASN695  SER759  ASP760  ASP761  ALA762  ILE779  LEU786  VAL792 
 PHE793  MET794  SER795  GLU796  ALA797  LYS798  CYS799  TRP800  GLU811  SER814 

> <Gold.Protein.RotatedAtoms>
  150.6872  134.2624  159.4554 H   0  0  0  0  0  0  0  0  0  0  0  0  # atno 6907 bound_to 6896
  152.0553  134.9626  160.0584 H   0  0  0  0  0  0  0  0  0  0  0  0  # atno 6908 bound_to 6896
  152.1074  133.4247  159.4652 H   0  0  0  0  0  0  0  0  0  0  0  0  # atno 6909 bound_to 6896
  144.8434  140.5943  143.5437 H   0  0  0  0  0  0  0  0  0  0  0  0  # atno 7974 bound_to 7965
  156.1041  140.1451  156.9427 H   0  0  0  0  0  0  0  0  0  0  0  0  # atno 8008 bound_to 7997
  154.4722  140.0906  156.7218 H   0  0  0  0  0  0  0  0  0  0  0  0  # atno 8009 bound_to 7997
  155.4709  140.3441  155.4328 H   0  0  0  0  0  0  0  0  0  0  0  0  # atno 8010 bound_to 7997
  139.7098  144.7079  151.1046 H   0  0  0  0  0  0  0  0  0  0  0  0  # atno 10167 bound_to 10162
  156.4012  130.7935  151.2145 H   0  0  0  0  0  0  0  0  0  0  0  0  # atno 10718 bound_to 10713
  154.5026  135.2784  155.1408 H   0  0  0  0  0  0  0  0  0  0  0  0  # atno 10763 bound_to 10752
  154.3036  135.6243  153.5439 H   0  0  0  0  0  0  0  0  0  0  0  0  # atno 10764 bound_to 10752
  152.9905  135.5703  154.5472 H   0  0  0  0  0  0  0  0  0  0  0  0  # atno 10765 bound_to 10752
  141.1664  133.7052  156.7931 H   0  0  0  0  0  0  0  0  0  0  0  0  # atno 11005 bound_to 11000
  145.4646  139.1509  143.3847 LP  0  0  0  0  0  0  0  0  0  0  0  0  # atno 17320 bound_to 7965
  146.2723  140.4777  142.8809 LP  0  0  0  0  0  0  0  0  0  0  0  0  # atno 17321 bound_to 7965
  140.7730  143.5308  150.9425 LP  0  0  0  0  0  0  0  0  0  0  0  0  # atno 17342 bound_to 10162
  139.8993  143.6856  152.3134 LP  0  0  0  0  0  0  0  0  0  0  0  0  # atno 17343 bound_to 10162
  157.7504  131.0286  150.4056 LP  0  0  0  0  0  0  0  0  0  0  0  0  # atno 17370 bound_to 10713
  156.4336  130.3977  149.6744 LP  0  0  0  0  0  0  0  0  0  0  0  0  # atno 17371 bound_to 10713
  140.2311  134.8685  157.3477 LP  0  0  0  0  0  0  0  0  0  0  0  0  # atno 17394 bound_to 11000
  140.1890  134.4395  155.7727 LP  0  0  0  0  0  0  0  0  0  0  0  0  # atno 17395 bound_to 11000

$$$$
