AV-unprocessed.smi:142|AV-procd|sdf|1191|dock5
  -GOLD-   2262018343D 1   1.00000     0.00000
 Structure written by MMmdl.
 52 55  0  0  0  0  0  0  0  0  1 V2000
  151.9941  138.8724  156.3482 C   0  0  0  0  0  0  0  0  0  0  0  0
  151.6792  138.7213  157.8425 C   0  0  2  0  0  0  0  0  0  0  0  0
  150.3279  138.1862  157.9977 N   0  0  0  0  0  0  0  0  0  0  0  0
  150.0303  136.9374  158.3875 C   0  0  0  0  0  0  0  0  0  0  0  0
  150.8852  136.0786  158.6093 O   0  0  0  0  0  0  0  0  0  0  0  0
  148.5357  136.6250  158.5511 C   0  0  0  0  0  0  0  0  0  0  0  0
  148.2674  135.6064  159.5894 N   0  0  0  0  0  0  0  0  0  0  0  0
  148.1259  136.0360  160.9327 C   0  0  0  0  0  0  0  0  0  0  0  0
  148.2008  137.2287  161.2326 O   0  0  0  0  0  0  0  0  0  0  0  0
  147.9035  134.9781  161.9116 C   0  0  0  0  0  0  0  0  0  0  0  0
  147.7724  135.2907  163.2120 F   0  0  0  0  0  0  0  0  0  0  0  0
  147.8324  133.6855  161.5323 C   0  0  0  0  0  0  0  0  0  0  0  0
  147.9515  133.2816  160.2171 N   0  0  0  0  0  0  0  0  0  0  0  0
  147.9138  131.8061  159.8917 C   0  0  1  0  0  0  0  0  0  0  0  0
  148.9874  130.9828  160.6286 C   0  0  0  0  0  0  0  0  0  0  0  0
  148.1641  129.9664  161.4035 C   0  0  0  0  0  0  0  0  0  0  0  0
  146.8445  129.9468  160.6403 C   0  0  0  0  0  0  0  0  0  0  0  0
  146.6666  131.3018  160.2583 O   0  0  0  0  0  0  0  0  0  0  0  0
  148.2053  134.2434  159.2120 C   0  0  0  0  0  0  0  0  0  0  0  0
  148.3769  133.9061  158.0397 O   0  0  0  0  0  0  0  0  0  0  0  0
  151.8941  140.0409  158.5803 C   0  0  0  0  0  0  0  0  0  0  0  0
  152.8840  140.1183  159.5833 C   0  0  0  0  0  0  0  0  0  0  0  0
  153.1093  141.3243  160.2747 C   0  0  0  0  0  0  0  0  0  0  0  0
  152.3458  142.4684  159.9674 C   0  0  0  0  0  0  0  0  0  0  0  0
  152.5657  143.6795  160.6558 C   0  0  0  0  0  0  0  0  0  0  0  0
  151.7987  144.8185  160.3421 C   0  0  0  0  0  0  0  0  0  0  0  0
  150.8103  144.7506  159.3411 C   0  0  0  0  0  0  0  0  0  0  0  0
  150.5862  143.5436  158.6507 C   0  0  0  0  0  0  0  0  0  0  0  0
  151.3524  142.4008  158.9596 C   0  0  0  0  0  0  0  0  0  0  0  0
  151.1338  141.1920  158.2689 C   0  0  0  0  0  0  0  0  0  0  0  0
  153.0220  139.2022  156.1957 H   0  0  0  0  0  0  0  0  0  0  0  0
  151.3372  139.6044  155.8767 H   0  0  0  0  0  0  0  0  0  0  0  0
  151.8722  137.9254  155.8214 H   0  0  0  0  0  0  0  0  0  0  0  0
  152.3772  137.9899  158.2548 H   0  0  0  0  0  0  0  0  0  0  0  0
  149.5638  138.8247  157.8308 H   0  0  0  0  0  0  0  0  0  0  0  0
  148.0005  137.5483  158.7802 H   0  0  0  0  0  0  0  0  0  0  0  0
  148.1412  136.3254  157.5793 H   0  0  0  0  0  0  0  0  0  0  0  0
  147.6734  132.9397  162.2977 H   0  0  0  0  0  0  0  0  0  0  0  0
  148.0247  131.7335  158.8087 H   0  0  0  0  0  0  0  0  0  0  0  0
  149.6180  130.4923  159.8864 H   0  0  0  0  0  0  0  0  0  0  0  0
  149.6221  131.5963  161.2686 H   0  0  0  0  0  0  0  0  0  0  0  0
  148.6376  128.9860  161.4559 H   0  0  0  0  0  0  0  0  0  0  0  0
  147.9983  130.3142  162.4235 H   0  0  0  0  0  0  0  0  0  0  0  0
  146.9201  129.3230  159.7482 H   0  0  0  0  0  0  0  0  0  0  0  0
  146.0118  129.5864  161.2449 H   0  0  0  0  0  0  0  0  0  0  0  0
  153.4760  139.2481  159.8268 H   0  0  0  0  0  0  0  0  0  0  0  0
  153.8700  141.3660  161.0406 H   0  0  0  0  0  0  0  0  0  0  0  0
  153.3211  143.7407  161.4259 H   0  0  0  0  0  0  0  0  0  0  0  0
  151.9679  145.7450  160.8703 H   0  0  0  0  0  0  0  0  0  0  0  0
  150.2228  145.6250  159.1028 H   0  0  0  0  0  0  0  0  0  0  0  0
  149.8244  143.4998  157.8857 H   0  0  0  0  0  0  0  0  0  0  0  0
  150.3780  141.1533  157.4978 H   0  0  0  0  0  0  0  0  0  0  0  0
  1  2  1  0  0  0  0
  1 31  1  0  0  0  0
  1 32  1  0  0  0  0
  1 33  1  0  0  0  0
  2  3  1  0  0  0  0
  2 21  1  0  0  0  0
  2 34  1  0  0  0  0
  3  4  1  0  0  0  0
  3 35  1  0  0  0  0
  4  5  2  0  0  0  0
  4  6  1  0  0  0  0
  6  7  1  0  0  0  0
  6 36  1  0  0  0  0
  6 37  1  0  0  0  0
  7 19  1  0  0  0  0
  7  8  1  0  0  0  0
  8  9  2  0  0  0  0
  8 10  1  0  0  0  0
 10 11  1  0  0  0  0
 10 12  2  0  0  0  0
 12 13  1  0  0  0  0
 12 38  1  0  0  0  0
 13 14  1  0  0  0  0
 13 19  1  0  0  0  0
 14 18  1  0  0  0  0
 14 15  1  0  0  0  0
 14 39  1  0  0  0  0
 15 16  1  0  0  0  0
 15 40  1  0  0  0  0
 15 41  1  0  0  0  0
 16 17  1  0  0  0  0
 16 42  1  0  0  0  0
 16 43  1  0  0  0  0
 17 18  1  0  0  0  0
 17 44  1  0  0  0  0
 17 45  1  0  0  0  0
 19 20  2  0  0  0  0
 21 30  1  0  0  0  0
 21 22  2  0  0  0  0
 22 23  1  0  0  0  0
 22 46  1  0  0  0  0
 23 24  2  0  0  0  0
 23 47  1  0  0  0  0
 24 29  1  0  0  0  0
 24 25  1  0  0  0  0
 25 26  2  0  0  0  0
 25 48  1  0  0  0  0
 26 27  1  0  0  0  0
 26 49  1  0  0  0  0
 27 28  2  0  0  0  0
 27 50  1  0  0  0  0
 28 29  1  0  0  0  0
 28 51  1  0  0  0  0
 29 30  2  0  0  0  0
 30 52  1  0  0  0  0
M  END
> <s_m_source_file>
AV-unprocessed.smi

> <i_m_source_file_index>
142

> <i_lp_mmshare_version>
43012

> <i_f3d_flags>
0

> <s_epik_input>
W2NIXTFbY0hdW2NIXVtjSF1jKGMxMilbY0hdYyhbY0hdW2NIXTIpW0NASF0oW0NIM10pW05IXUMoPU8pW0NIMl1uM2MoPU8pYyhGKVtjSF1uKGMzPU8pW0NAQEhdNFtDSDJdW0NIMl1bQ0gyXU80

> <s_epik_cmdline>
J2VwaWtfcHl0aG9uJywgJy1waCcsICc3LjAnLCAnLXRuJywgJzgnLCAnLW1hJywgJzIwMCcsICctbWV0YWxfYmluZGluZycsICctaW1hZScsICc8aW5maWxlLm1hZT4nLCAnLW9tYWUnLCAnPG91dGZpbGUubWFlPic=

> <r_lp_tautomer_probability>
1

> <r_epik_Ionization_Penalty>
3.35688e-08

> <r_epik_Ionization_Penalty_Charging>
3.59856e-09

> <r_epik_Ionization_Penalty_Neutral>
2.99702e-08

> <r_epik_State_Penalty>
-0

> <r_epik_Charging_Adjusted_Penalty>
3.59856e-09

> <i_epik_Tot_Q>
0

> <i_epik_Tot_abs_Q>
0

> <r_epik_Metal_State_Penalty>
-0

> <b_epik_Metal_Only>
0

> <s_epik_Chemistry_Notes>
This compound contains an acetal/aminal-like group ( X-CH(R)-Y where X, Y are N, S, or O) that may be acid/base labile, releasing an aldehyde.

> <s_lp_Force_Field>
OPLS_2005

> <r_lp_Energy>
25.6775

> <b_lp_Chiralities_Consistent>
1

> <s_lp_Variant>
AV-unprocessed.smi:142-3

> <Gold.Version>
5.8.1

> <Gold.Id.Protein>
6NUR|6NUR_protein|mol2

> <Gold.PLP.Fitness>
60.0159

> <Gold.PLP.PLP>
-54.6143

> <Gold.PLP.part.hbond>
-2.4368

> <Gold.PLP.part.metal>
0.0000

> <Gold.PLP.part.buried>
-5.8245

> <Gold.PLP.part.nonpolar>
-47.4510

> <Gold.PLP.part.repulsive>
0.0748

> <Gold.PLP.ligand.clash>
0.0000

> <Gold.PLP.ligand.torsion>
0.8673

> <Gold.PLP.Chemscore.Hbond>
2.3520

> <Gold.PLP.Chemscore.CHOScore>
0.0000

> <Gold.PLP.Chemscore.Metal>
0.0000

> <Gold.Chemscore.Hbonds>
donor molecule, donor type, donor heavy atom, donor atom, acceptor molecule, acceptor atom, score
      P1  H  6896  6908       L1     5  0.74
      P1  H  6931  6943       L1     9  0.86
      P1  H  6934  6947       L1     9  0.53

> <Gold.PLP.Chemscore.Internal.Correction>
0.0802

> <Gold.Rescore>
     Score         DG    S(hbond)    S(metal)    S(lipo)     H(rot)  DE(clash)    DE(int)     intcor
     22.34     -23.33       2.48        0.00     125.79       2.02       0.01       0.98       ----

> <Gold.Chemscore.Fitness>
22.3412

> <Gold.Chemscore.DG>
-23.3294

> <Gold.Chemscore.ZeroCoef>
-5.4800

> <Gold.Chemscore.Hbond>
2.4840

> <Gold.Chemscore.Metal>
0.0000

> <Gold.Chemscore.Lipo>
125.7930

> <Gold.Chemscore.Internal_Hbond>
0.0000

> <Gold.Chemscore.DEClash>
0.0073

> <Gold.Chemscore.DEInternal>
0.9809

> <Gold.Chemscore.Rot>
2.0175

> <Gold.Chemscore.Internal.Correction>
   9.000000E+99

> <Gold.Chemscore.Hbonds>
donor molecule, donor type, donor heavy atom, donor atom, acceptor molecule, acceptor atom, score
      P1  H  6896  6908       L1     5  0.72
      P1  H  6931  6943       L1     9  0.81
      P1  H  6934  6947       L1     9  0.51

> <Gold.Chemscore.Hbond.Weighted>
-8.2965

> <Gold.Chemscore.Metal.Weighted>
-0.0000

> <Gold.Chemscore.Lipo.Weighted>
-14.7178

> <Gold.Chemscore.Internal_Hbond.Weighted>
0.0000

> <Gold.Chemscore.DEClash.Weighted>
0.0073

> <Gold.Chemscore.DEInternal.Weighted>
0.9809

> <Gold.Chemscore.Rot.Weighted>
5.1648

> <Gold.Chemscore.Internal.Correction.Weighted>
   9.000000E+99

> <Gold.Protein.RotatedTorsions>
[ 6907 6896 6895 6894 ] final -157.91 input  -60.11 | X-H torsion
[ 7974 7965 7964 7962 ] final -125.58 input  175.53 | X-H torsion
[ 8008 7997 7996 7995 ] final  -63.99 input   59.86 | X-H torsion
[ 10167 10162 10161 10158 ] final -151.51 input  -65.29 | X-H torsion
[ 10718 10713 10712 10709 ] final -104.73 input   66.30 | X-H torsion
[ 10763 10752 10751 10750 ] final -128.00 input  -60.55 | X-H torsion
[ 11005 11000 10999 10996 ] final  151.25 input  -57.11 | X-H torsion

> <Gold.Protein.ActiveResidues>
 VAL166  LYS551  ARG553  GLY616  TRP617  ASP618  TYR619  PRO620  LYS621  CYS622 
 ASP623  PHE694  ASN695  SER759  ASP760  ASP761  ALA762  ILE779  LEU786  VAL792 
 PHE793  MET794  SER795  GLU796  ALA797  LYS798  CYS799  TRP800  GLU811  SER814 

> <Gold.Protein.RotatedAtoms>
  151.3100  133.4084  159.2645 H   0  0  0  0  0  0  0  0  0  0  0  0  # atno 6907 bound_to 6896
  151.0122  134.9406  159.8024 H   0  0  0  0  0  0  0  0  0  0  0  0  # atno 6908 bound_to 6896
  152.5303  134.3064  159.9150 H   0  0  0  0  0  0  0  0  0  0  0  0  # atno 6909 bound_to 6896
  144.9961  140.7778  143.4524 H   0  0  0  0  0  0  0  0  0  0  0  0  # atno 7974 bound_to 7965
  154.4586  140.0963  156.6828 H   0  0  0  0  0  0  0  0  0  0  0  0  # atno 8008 bound_to 7997
  155.5063  140.3475  155.4362 H   0  0  0  0  0  0  0  0  0  0  0  0  # atno 8009 bound_to 7997
  156.0826  140.1377  156.9682 H   0  0  0  0  0  0  0  0  0  0  0  0  # atno 8010 bound_to 7997
  139.7261  143.8881  152.2519 H   0  0  0  0  0  0  0  0  0  0  0  0  # atno 10167 bound_to 10162
  156.0316  130.5529  150.7438 H   0  0  0  0  0  0  0  0  0  0  0  0  # atno 10718 bound_to 10713
  154.8755  135.3943  154.3686 H   0  0  0  0  0  0  0  0  0  0  0  0  # atno 10763 bound_to 10752
  153.4449  135.7027  153.6151 H   0  0  0  0  0  0  0  0  0  0  0  0  # atno 10764 bound_to 10752
  153.4716  135.3789  155.2363 H   0  0  0  0  0  0  0  0  0  0  0  0  # atno 10765 bound_to 10752
  140.1203  134.8868  157.2062 H   0  0  0  0  0  0  0  0  0  0  0  0  # atno 11005 bound_to 11000
  145.2217  139.2156  143.5089 LP  0  0  0  0  0  0  0  0  0  0  0  0  # atno 17320 bound_to 7965
  146.3442  140.2076  142.8590 LP  0  0  0  0  0  0  0  0  0  0  0  0  # atno 17321 bound_to 7965
  139.8791  144.7027  150.8898 LP  0  0  0  0  0  0  0  0  0  0  0  0  # atno 17342 bound_to 10162
  140.7763  143.3676  151.1710 LP  0  0  0  0  0  0  0  0  0  0  0  0  # atno 17343 bound_to 10162
  157.5000  131.0918  151.0325 LP  0  0  0  0  0  0  0  0  0  0  0  0  # atno 17370 bound_to 10713
  157.0709  130.5863  149.5402 LP  0  0  0  0  0  0  0  0  0  0  0  0  # atno 17371 bound_to 10713
  140.2974  134.3170  155.7298 LP  0  0  0  0  0  0  0  0  0  0  0  0  # atno 17394 bound_to 11000
  141.2150  133.7571  156.9592 LP  0  0  0  0  0  0  0  0  0  0  0  0  # atno 17395 bound_to 11000

$$$$
