AV-unprocessed.smi:290|AV-procd|sdf|2237|dock9
  -GOLD-   2262022103D 1   1.00000     0.00000
 Structure written by MMmdl.
 59 62  0  0  0  0  0  0  0  0  2 V2000
  156.6302  135.0129  151.0862 C   0  0  0  0  0  0  0  0  0  0  0  0
  156.9740  135.7412  152.3959 C   0  0  2  0  0  0  0  0  0  0  0  0
  155.9654  136.6980  152.7184 O   0  0  0  0  0  0  0  0  0  0  0  0
  156.5372  137.9941  152.8177 C   0  0  0  0  0  0  0  0  0  0  0  0
  157.9787  137.7352  153.2347 C   0  0  0  0  0  0  0  0  0  0  0  0
  158.3308  136.4846  152.4408 C   0  0  2  0  0  0  0  0  0  0  0  0
  158.7317  136.8838  151.1397 O   0  0  0  0  0  0  0  0  0  0  0  0
  159.4658  135.6406  153.0683 C   0  0  0  0  0  0  0  0  0  0  0  0
  159.7934  134.4497  152.2990 N   0  0  0  0  0  0  0  0  0  0  0  0
  160.4278  134.4058  151.0778 C   0  0  0  0  0  0  0  0  0  0  0  0
  160.6036  133.2103  150.5840 N   0  0  0  0  0  0  0  0  0  0  0  0
  160.0550  132.3650  151.5407 C   0  0  0  0  0  0  0  0  0  0  0  0
  159.8994  130.9544  151.6528 C   0  0  0  0  0  0  0  0  0  0  0  0
  160.3059  130.0548  150.7315 N   0  0  0  0  0  0  0  0  0  0  0  0
  159.9531  128.6644  151.0006 C   0  0  0  0  0  0  0  0  0  0  0  0
  159.5774  128.0504  149.6510 C   0  0  0  0  0  0  0  0  0  0  0  0
  159.0503  129.2571  148.8680 C   0  0  2  0  0  0  0  0  0  0  0  0
  158.9558  129.0812  147.3884 N   0  3  1  0  0  0  0  0  0  0  0  0
  158.9834  130.3723  146.6544 C   0  0  0  0  0  0  0  0  0  0  0  0
  159.9706  128.1225  146.8685 C   0  0  0  0  0  0  0  0  0  0  0  0
  159.5764  127.4882  145.5217 C   0  0  0  0  0  0  0  0  0  0  0  0
  158.4251  126.6861  145.6733 O   0  0  0  0  0  0  0  0  0  0  0  0
  160.0040  130.3793  149.3398 C   0  0  2  0  0  0  0  0  0  0  0  0
  161.3195  130.4758  148.5435 C   0  0  0  0  0  0  0  0  0  0  0  0
  159.3025  130.4656  152.7663 N   0  0  0  0  0  0  0  0  0  0  0  0
  158.8752  131.3025  153.7170 C   0  0  0  0  0  0  0  0  0  0  0  0
  158.9458  132.6354  153.7494 N   0  0  0  0  0  0  0  0  0  0  0  0
  159.5482  133.1285  152.6297 C   0  0  0  0  0  0  0  0  0  0  0  0
  158.0461  129.4710  149.2367 H   0  0  0  0  0  0  0  0  0  0  0  0
  159.4963  131.3435  149.2770 H   0  0  0  0  0  0  0  0  0  0  0  0
  157.4014  134.2866  150.8279 H   0  0  0  0  0  0  0  0  0  0  0  0
  156.5276  135.7088  150.2530 H   0  0  0  0  0  0  0  0  0  0  0  0
  155.6864  134.4757  151.1796 H   0  0  0  0  0  0  0  0  0  0  0  0
  156.9460  135.0096  153.2043 H   0  0  0  0  0  0  0  0  0  0  0  0
  156.4989  138.4777  151.8405 H   0  0  0  0  0  0  0  0  0  0  0  0
  155.9965  138.6180  153.5295 H   0  0  0  0  0  0  0  0  0  0  0  0
  158.6395  138.5812  153.0412 H   0  0  0  0  0  0  0  0  0  0  0  0
  158.0091  137.5240  154.3046 H   0  0  0  0  0  0  0  0  0  0  0  0
  157.9602  136.9757  150.6019 H   0  0  0  0  0  0  0  0  0  0  0  0
  160.3733  136.2390  153.1580 H   0  0  0  0  0  0  0  0  0  0  0  0
  159.1988  135.3387  154.0820 H   0  0  0  0  0  0  0  0  0  0  0  0
  160.7533  135.2955  150.5585 H   0  0  0  0  0  0  0  0  0  0  0  0
  160.7912  128.1364  151.4562 H   0  0  0  0  0  0  0  0  0  0  0  0
  159.1105  128.6001  151.6906 H   0  0  0  0  0  0  0  0  0  0  0  0
  160.4659  127.6386  149.1703 H   0  0  0  0  0  0  0  0  0  0  0  0
  158.8450  127.2496  149.7574 H   0  0  0  0  0  0  0  0  0  0  0  0
  159.9084  130.9140  146.8556 H   0  0  0  0  0  0  0  0  0  0  0  0
  158.1460  131.0099  146.9362 H   0  0  0  0  0  0  0  0  0  0  0  0
  158.9036  130.2303  145.5782 H   0  0  0  0  0  0  0  0  0  0  0  0
  160.9301  128.6330  146.7738 H   0  0  0  0  0  0  0  0  0  0  0  0
  160.1328  127.3146  147.5815 H   0  0  0  0  0  0  0  0  0  0  0  0
  159.4073  128.2296  144.7421 H   0  0  0  0  0  0  0  0  0  0  0  0
  160.3873  126.8500  145.1695 H   0  0  0  0  0  0  0  0  0  0  0  0
  157.8161  126.8981  144.9817 H   0  0  0  0  0  0  0  0  0  0  0  0
  161.1442  130.7691  147.5098 H   0  0  0  0  0  0  0  0  0  0  0  0
  161.8606  129.5291  148.5357 H   0  0  0  0  0  0  0  0  0  0  0  0
  161.9792  131.2264  148.9798 H   0  0  0  0  0  0  0  0  0  0  0  0
  158.4081  130.8388  154.5734 H   0  0  0  0  0  0  0  0  0  0  0  0
  158.0520  128.6651  147.2119 H   0  0  0  0  0  0  0  0  0  0  0  0
  1  2  1  0  0  0  0
  1 31  1  0  0  0  0
  1 32  1  0  0  0  0
  1 33  1  0  0  0  0
  2  6  1  0  0  0  0
  2  3  1  0  0  0  0
  2 34  1  0  0  0  0
  3  4  1  0  0  0  0
  4  5  1  0  0  0  0
  4 35  1  0  0  0  0
  4 36  1  0  0  0  0
  5  6  1  0  0  0  0
  5 37  1  0  0  0  0
  5 38  1  0  0  0  0
  6  7  1  0  0  0  0
  6  8  1  0  0  0  0
  7 39  1  0  0  0  0
  8  9  1  0  0  0  0
  8 40  1  0  0  0  0
  8 41  1  0  0  0  0
  9 28  1  0  0  0  0
  9 10  1  0  0  0  0
 10 11  2  0  0  0  0
 10 42  1  0  0  0  0
 11 12  1  0  0  0  0
 12 28  2  0  0  0  0
 12 13  1  0  0  0  0
 13 14  1  0  0  0  0
 13 25  2  0  0  0  0
 14 23  1  0  0  0  0
 14 15  1  0  0  0  0
 15 16  1  0  0  0  0
 15 43  1  0  0  0  0
 15 44  1  0  0  0  0
 16 17  1  0  0  0  0
 16 45  1  0  0  0  0
 16 46  1  0  0  0  0
 17 29  1  0  0  0  0
 17 18  1  0  0  0  0
 17 23  1  0  0  0  0
 18 19  1  0  0  0  0
 18 20  1  0  0  0  0
 18 59  1  0  0  0  0
 19 47  1  0  0  0  0
 19 48  1  0  0  0  0
 19 49  1  0  0  0  0
 20 21  1  0  0  0  0
 20 50  1  0  0  0  0
 20 51  1  0  0  0  0
 21 22  1  0  0  0  0
 21 52  1  0  0  0  0
 21 53  1  0  0  0  0
 22 54  1  0  0  0  0
 23 30  1  0  0  0  0
 23 24  1  0  0  0  0
 24 55  1  0  0  0  0
 24 56  1  0  0  0  0
 24 57  1  0  0  0  0
 25 26  1  0  0  0  0
 26 27  2  0  0  0  0
 26 58  1  0  0  0  0
 27 28  1  0  0  0  0
M  CHG  1  18   1
M  END
> <s_m_source_file>
AV-unprocessed.smi

> <i_m_source_file_index>
290

> <i_lp_mmshare_version>
43012

> <i_f3d_flags>
0

> <s_epik_input>
W0NIMl0xW0NIMl1PW0NAQEhdKFtDSDNdKVtDQEBdMShbT0hdKVtDSDJdbihbY0hdbjIpYyhjMjMpbltjSF1uYzNONFtDSDJdW0NIMl1bQ0BIXShbQ0BIXTRbQ0gzXSlOKFtDSDNdKVtDSDJdW0NIMl1bT0hd

> <s_epik_cmdline>
J2VwaWtfcHl0aG9uJywgJy1waCcsICc3LjAnLCAnLXRuJywgJzgnLCAnLW1hJywgJzIwMCcsICctbWV0YWxfYmluZGluZycsICctaW1hZScsICc8aW5maWxlLm1hZT4nLCAnLW9tYWUnLCAnPG91dGZpbGUubWFlPic=

> <r_lp_tautomer_probability>
1

> <r_epik_Ionization_Penalty>
0.0036983

> <r_epik_Ionization_Penalty_Charging>
0.0032725

> <r_epik_Ionization_Penalty_Neutral>
0.000425798

> <r_epik_State_Penalty>
-0

> <r_epik_Charging_Adjusted_Penalty>
0.0032725

> <i_epik_Tot_Q>
1

> <i_epik_Tot_abs_Q>
1

> <r_epik_Metal_State_Penalty>
-0

> <b_epik_Metal_Only>
0

> <s_lp_Force_Field>
OPLS_2005

> <r_lp_Energy>
65.7953

> <b_lp_Chiralities_Consistent>
1

> <s_lp_Variant>
AV-unprocessed.smi:290-23

> <Gold.Version>
5.8.1

> <Gold.Id.Protein>
6NUR|6NUR_protein|mol2

> <Gold.PLP.Fitness>
48.9258

> <Gold.PLP.PLP>
-42.0057

> <Gold.PLP.part.hbond>
-4.5253

> <Gold.PLP.part.metal>
0.0000

> <Gold.PLP.part.buried>
-0.4883

> <Gold.PLP.part.nonpolar>
-37.1422

> <Gold.PLP.part.repulsive>
0.2670

> <Gold.PLP.ligand.clash>
0.0000

> <Gold.PLP.ligand.torsion>
1.1217

> <Gold.PLP.Chemscore.Hbond>
2.9672

> <Gold.PLP.Chemscore.CHOScore>
0.0000

> <Gold.PLP.Chemscore.Metal>
0.0000

> <Gold.Chemscore.Hbonds>
donor molecule, donor type, donor heavy atom, donor atom, acceptor molecule, acceptor atom, score
      L1  H     7    39       P1 10674  0.88
      L1  H    22    54       P1 10726  1.00
      P1  H 10752 10765       L1     3  1.00

> <Gold.PLP.Chemscore.Internal.Correction>
0.2618

> <Gold.Rescore>
     Score         DG    S(hbond)    S(metal)    S(lipo)     H(rot)  DE(clash)    DE(int)     intcor
     14.26     -19.13       2.63        0.00     121.72       3.67       2.61       2.26       ----

> <Gold.Chemscore.Fitness>
14.2573

> <Gold.Chemscore.DG>
-19.1332

> <Gold.Chemscore.ZeroCoef>
-5.4800

> <Gold.Chemscore.Hbond>
2.6335

> <Gold.Chemscore.Metal>
0.0000

> <Gold.Chemscore.Lipo>
121.7234

> <Gold.Chemscore.Internal_Hbond>
0.0000

> <Gold.Chemscore.DEClash>
2.6117

> <Gold.Chemscore.DEInternal>
2.2642

> <Gold.Chemscore.Rot>
3.6658

> <Gold.Chemscore.Internal.Correction>
   9.000000E+99

> <Gold.Chemscore.Hbonds>
donor molecule, donor type, donor heavy atom, donor atom, acceptor molecule, acceptor atom, score
      L1  H     7    39       P1 10674  0.83
      L1  H    22    54       P1 10726  0.99
      P1  H 10752 10765       L1     3  0.34

> <Gold.Chemscore.Hbond.Weighted>
-8.7960

> <Gold.Chemscore.Metal.Weighted>
-0.0000

> <Gold.Chemscore.Lipo.Weighted>
-14.2416

> <Gold.Chemscore.Internal_Hbond.Weighted>
0.0000

> <Gold.Chemscore.DEClash.Weighted>
2.6117

> <Gold.Chemscore.DEInternal.Weighted>
2.2642

> <Gold.Chemscore.Rot.Weighted>
9.3844

> <Gold.Chemscore.Internal.Correction.Weighted>
   9.000000E+99

> <Gold.Protein.RotatedTorsions>
[ 6907 6896 6895 6894 ] final   90.04 input  -60.11 | X-H torsion
[ 7974 7965 7964 7962 ] final -161.68 input  175.53 | X-H torsion
[ 8008 7997 7996 7995 ] final  -60.80 input   59.86 | X-H torsion
[ 10167 10162 10161 10158 ] final  -92.59 input  -65.29 | X-H torsion
[ 10718 10713 10712 10709 ] final  107.72 input   66.30 | X-H torsion
[ 10763 10752 10751 10750 ] final   34.41 input  -60.55 | X-H torsion
[ 11005 11000 10999 10996 ] final   77.10 input  -57.11 | X-H torsion

> <Gold.Protein.ActiveResidues>
 VAL166  LYS551  ARG553  GLY616  TRP617  ASP618  TYR619  PRO620  LYS621  CYS622 
 ASP623  PHE694  ASN695  SER759  ASP760  ASP761  ALA762  ILE779  LEU786  VAL792 
 PHE793  MET794  SER795  GLU796  ALA797  LYS798  CYS799  TRP800  GLU811  SER814 

> <Gold.Protein.RotatedAtoms>
  152.5441  134.1873  159.8659 H   0  0  0  0  0  0  0  0  0  0  0  0  # atno 6907 bound_to 6896
  151.1871  133.4683  159.2602 H   0  0  0  0  0  0  0  0  0  0  0  0  # atno 6908 bound_to 6896
  151.1120  135.0044  159.8554 H   0  0  0  0  0  0  0  0  0  0  0  0  # atno 6909 bound_to 6896
  144.7383  140.3362  143.6143 H   0  0  0  0  0  0  0  0  0  0  0  0  # atno 7974 bound_to 7965
  154.4416  140.1031  156.6331 H   0  0  0  0  0  0  0  0  0  0  0  0  # atno 8008 bound_to 7997
  155.5583  140.3487  155.4466 H   0  0  0  0  0  0  0  0  0  0  0  0  # atno 8009 bound_to 7997
  156.0478  140.1297  157.0073 H   0  0  0  0  0  0  0  0  0  0  0  0  # atno 8010 bound_to 7997
  140.3332  143.2983  151.9918 H   0  0  0  0  0  0  0  0  0  0  0  0  # atno 10167 bound_to 10162
  157.6616  131.0879  150.6199 H   0  0  0  0  0  0  0  0  0  0  0  0  # atno 10718 bound_to 10713
  153.0165  135.6361  154.1664 H   0  0  0  0  0  0  0  0  0  0  0  0  # atno 10763 bound_to 10752
  154.1402  135.2835  155.3164 H   0  0  0  0  0  0  0  0  0  0  0  0  # atno 10764 bound_to 10752
  154.6130  135.5550  153.7554 H   0  0  0  0  0  0  0  0  0  0  0  0  # atno 10765 bound_to 10752
  139.9269  134.7655  156.1479 H   0  0  0  0  0  0  0  0  0  0  0  0  # atno 11005 bound_to 11000
  145.7421  139.1767  143.2370 LP  0  0  0  0  0  0  0  0  0  0  0  0  # atno 17320 bound_to 7965
  146.1126  140.7409  142.9496 LP  0  0  0  0  0  0  0  0  0  0  0  0  # atno 17321 bound_to 7965
  139.4853  144.6218  151.7241 LP  0  0  0  0  0  0  0  0  0  0  0  0  # atno 17342 bound_to 10162
  140.5378  144.0628  150.6077 LP  0  0  0  0  0  0  0  0  0  0  0  0  # atno 17343 bound_to 10162
  156.6501  130.4483  149.5722 LP  0  0  0  0  0  0  0  0  0  0  0  0  # atno 17370 bound_to 10713
  156.2144  130.6698  151.1303 LP  0  0  0  0  0  0  0  0  0  0  0  0  # atno 17371 bound_to 10713
  141.0833  133.6745  156.2382 LP  0  0  0  0  0  0  0  0  0  0  0  0  # atno 17394 bound_to 11000
  140.6311  134.5263  157.5559 LP  0  0  0  0  0  0  0  0  0  0  0  0  # atno 17395 bound_to 11000

$$$$
