AV-unprocessed.smi:2074|AV-procd|sdf|8455|dock9
  -GOLD-   2272011153D 1   1.00000     0.00000
 Structure written by MMmdl.
 44 45  0  0  0  0  0  0  0  0  2 V2000
  144.4352  135.0480  150.7373 C   0  0  0  0  0  0  0  0  0  0  0  0
  144.6165  133.5669  150.9080 C   0  0  0  0  0  0  0  0  0  0  0  0
  143.6020  132.7544  150.6658 N   0  0  0  0  0  0  0  0  0  0  0  0
  144.0790  131.4627  150.9077 O   0  0  0  0  0  0  0  0  0  0  0  0
  145.3793  131.5491  151.2872 C   0  0  0  0  0  0  0  0  0  0  0  0
  146.0733  130.2644  151.5912 C   0  0  0  0  0  0  0  0  0  0  0  0
  145.7848  132.8557  151.3074 C   0  0  0  0  0  0  0  0  0  0  0  0
  147.1387  133.4138  151.6642 C   0  0  0  0  0  0  0  0  0  0  0  0
  147.2962  133.4480  153.1841 C   0  0  0  0  0  0  0  0  0  0  0  0
  147.0763  132.4353  153.8478 O   0  0  0  0  0  0  0  0  0  0  0  0
  147.6764  134.6184  153.7213 N   0  0  0  0  0  0  0  0  0  0  0  0
  147.9338  134.8572  155.1397 C   0  0  0  0  0  0  0  0  0  0  0  0
  149.3941  135.3018  155.4374 C   0  0  1  0  0  0  0  0  0  0  0  0
  150.3805  134.1323  155.1988 C   0  0  0  0  0  0  0  0  0  0  0  0
  149.7964  136.5183  154.6527 N   0  3  0  0  0  0  0  0  0  0  0  0
  148.9959  137.7393  154.9549 C   0  0  0  0  0  0  0  0  0  0  0  0
  149.4600  138.9447  154.1195 C   0  0  0  0  0  0  0  0  0  0  0  0
  150.8409  139.1809  154.3399 O   0  0  0  0  0  0  0  0  0  0  0  0
  151.6220  138.0717  153.9259 C   0  0  0  0  0  0  0  0  0  0  0  0
  151.2486  136.8362  154.7617 C   0  0  0  0  0  0  0  0  0  0  0  0
  144.9042  135.5971  151.5537 H   0  0  0  0  0  0  0  0  0  0  0  0
  143.3804  135.3256  150.7187 H   0  0  0  0  0  0  0  0  0  0  0  0
  144.8854  135.3896  149.8053 H   0  0  0  0  0  0  0  0  0  0  0  0
  147.1374  130.3330  151.3649 H   0  0  0  0  0  0  0  0  0  0  0  0
  145.6578  129.4469  151.0018 H   0  0  0  0  0  0  0  0  0  0  0  0
  145.9678  130.0100  152.6458 H   0  0  0  0  0  0  0  0  0  0  0  0
  147.9453  132.8213  151.2307 H   0  0  0  0  0  0  0  0  0  0  0  0
  147.2650  134.4238  151.2726 H   0  0  0  0  0  0  0  0  0  0  0  0
  147.8294  135.3948  153.0939 H   0  0  0  0  0  0  0  0  0  0  0  0
  147.2272  135.5794  155.5523 H   0  0  0  0  0  0  0  0  0  0  0  0
  147.7153  133.9034  155.6178 H   0  0  0  0  0  0  0  0  0  0  0  0
  149.4413  135.5666  156.4950 H   0  0  0  0  0  0  0  0  0  0  0  0
  150.0913  133.2359  155.7455 H   0  0  0  0  0  0  0  0  0  0  0  0
  151.3890  134.3541  155.5424 H   0  0  0  0  0  0  0  0  0  0  0  0
  150.4324  133.8688  154.1420 H   0  0  0  0  0  0  0  0  0  0  0  0
  147.9435  137.5839  154.7238 H   0  0  0  0  0  0  0  0  0  0  0  0
  149.0688  137.9704  156.0187 H   0  0  0  0  0  0  0  0  0  0  0  0
  149.2689  138.7805  153.0576 H   0  0  0  0  0  0  0  0  0  0  0  0
  148.9015  139.8357  154.4070 H   0  0  0  0  0  0  0  0  0  0  0  0
  151.4782  137.8820  152.8607 H   0  0  0  0  0  0  0  0  0  0  0  0
  152.6761  138.3129  154.0650 H   0  0  0  0  0  0  0  0  0  0  0  0
  151.5086  137.0037  155.8080 H   0  0  0  0  0  0  0  0  0  0  0  0
  151.8621  136.0111  154.4065 H   0  0  0  0  0  0  0  0  0  0  0  0
  149.6207  136.3020  153.6817 H   0  0  0  0  0  0  0  0  0  0  0  0
  1  2  1  0  0  0  0
  1 21  1  0  0  0  0
  1 22  1  0  0  0  0
  1 23  1  0  0  0  0
  2  7  1  0  0  0  0
  2  3  2  0  0  0  0
  3  4  1  0  0  0  0
  4  5  1  0  0  0  0
  5  6  1  0  0  0  0
  5  7  2  0  0  0  0
  6 24  1  0  0  0  0
  6 25  1  0  0  0  0
  6 26  1  0  0  0  0
  7  8  1  0  0  0  0
  8  9  1  0  0  0  0
  8 27  1  0  0  0  0
  8 28  1  0  0  0  0
  9 10  2  0  0  0  0
  9 11  1  0  0  0  0
 11 12  1  0  0  0  0
 11 29  1  0  0  0  0
 12 13  1  0  0  0  0
 12 30  1  0  0  0  0
 12 31  1  0  0  0  0
 13 14  1  0  0  0  0
 13 15  1  0  0  0  0
 13 32  1  0  0  0  0
 14 33  1  0  0  0  0
 14 34  1  0  0  0  0
 14 35  1  0  0  0  0
 15 20  1  0  0  0  0
 15 16  1  0  0  0  0
 15 44  1  0  0  0  0
 16 17  1  0  0  0  0
 16 36  1  0  0  0  0
 16 37  1  0  0  0  0
 17 18  1  0  0  0  0
 17 38  1  0  0  0  0
 17 39  1  0  0  0  0
 18 19  1  0  0  0  0
 19 20  1  0  0  0  0
 19 40  1  0  0  0  0
 19 41  1  0  0  0  0
 20 42  1  0  0  0  0
 20 43  1  0  0  0  0
M  CHG  1  15   1
M  END
> <s_m_source_file>
AV-unprocessed.smi

> <i_m_source_file_index>
2074

> <i_lp_mmshare_version>
43012

> <i_f3d_flags>
0

> <s_epik_input>
W0NIM11jMW5vYyhbQ0gzXSljMVtDSDJdQyg9TylbTkhdW0NIMl1bQ0BIXShbQ0gzXSlOMltDSDJdW0NIMl1PW0NIMl1bQ0gyXTI=

> <s_epik_cmdline>
J2VwaWtfcHl0aG9uJywgJy1waCcsICc3LjAnLCAnLXRuJywgJzgnLCAnLW1hJywgJzIwMCcsICctbWV0YWxfYmluZGluZycsICctaW1hZScsICc8aW5maWxlLm1hZT4nLCAnLW9tYWUnLCAnPG91dGZpbGUubWFlPic=

> <r_epik_Ionization_Penalty>
0.663207

> <r_epik_Ionization_Penalty_Charging>
0.663207

> <r_epik_Ionization_Penalty_Neutral>
1.0751e-07

> <r_epik_State_Penalty>
0.682743

> <r_epik_Charging_Adjusted_Penalty>
1.34595

> <i_epik_Tot_Q>
1

> <i_epik_Tot_abs_Q>
1

> <r_epik_Metal_State_Penalty>
0.682743

> <b_epik_Metal_Only>
0

> <s_lp_Force_Field>
OPLS_2005

> <r_lp_Energy>
15.6967

> <b_lp_Chiralities_Consistent>
1

> <s_lp_Variant>
AV-unprocessed.smi:2074-4

> <Gold.Version>
5.8.1

> <Gold.Id.Protein>
6NUR|6NUR_protein|mol2

> <Gold.PLP.Fitness>
42.7072

> <Gold.PLP.PLP>
-31.9411

> <Gold.PLP.part.hbond>
-2.9209

> <Gold.PLP.part.metal>
0.0000

> <Gold.PLP.part.buried>
-5.4630

> <Gold.PLP.part.nonpolar>
-23.8908

> <Gold.PLP.part.repulsive>
0.6253

> <Gold.PLP.ligand.clash>
0.0000

> <Gold.PLP.ligand.torsion>
0.4312

> <Gold.PLP.Chemscore.Hbond>
3.8540

> <Gold.PLP.Chemscore.CHOScore>
0.0000

> <Gold.PLP.Chemscore.Metal>
0.0000

> <Gold.Chemscore.Hbonds>
donor molecule, donor type, donor heavy atom, donor atom, acceptor molecule, acceptor atom, score
      L1  H    11    29       P1  7948  0.93
      L1  H    15    44       P1  7948  2.00
      P1  H  7989  7998       L1    18  0.98

> <Gold.PLP.Chemscore.Internal.Correction>
0.0665

> <Gold.Rescore>
     Score         DG    S(hbond)    S(metal)    S(lipo)     H(rot)  DE(clash)    DE(int)     intcor
     17.84     -18.62       2.51        0.00      79.80       1.80       0.15       0.63       ----

> <Gold.Chemscore.Fitness>
17.8393

> <Gold.Chemscore.DG>
-18.6187

> <Gold.Chemscore.ZeroCoef>
-5.4800

> <Gold.Chemscore.Hbond>
2.5149

> <Gold.Chemscore.Metal>
0.0000

> <Gold.Chemscore.Lipo>
79.8022

> <Gold.Chemscore.Internal_Hbond>
0.0000

> <Gold.Chemscore.DEClash>
0.1538

> <Gold.Chemscore.DEInternal>
0.6256

> <Gold.Chemscore.Rot>
1.7961

> <Gold.Chemscore.Internal.Correction>
   9.000000E+99

> <Gold.Chemscore.Hbonds>
donor molecule, donor type, donor heavy atom, donor atom, acceptor molecule, acceptor atom, score
      L1  H    11    29       P1  7948  0.91
      L1  H    15    44       P1  7948  0.50
      P1  H  7989  7998       L1    18  0.53

> <Gold.Chemscore.Hbond.Weighted>
-8.3999

> <Gold.Chemscore.Metal.Weighted>
-0.0000

> <Gold.Chemscore.Lipo.Weighted>
-9.3369

> <Gold.Chemscore.Internal_Hbond.Weighted>
0.0000

> <Gold.Chemscore.DEClash.Weighted>
0.1538

> <Gold.Chemscore.DEInternal.Weighted>
0.6256

> <Gold.Chemscore.Rot.Weighted>
4.5980

> <Gold.Chemscore.Internal.Correction.Weighted>
   9.000000E+99

> <Gold.Protein.RotatedTorsions>
[ 6907 6896 6895 6894 ] final   42.51 input  -60.11 | X-H torsion
[ 7974 7965 7964 7962 ] final  133.92 input  175.53 | X-H torsion
[ 8008 7997 7996 7995 ] final  -26.24 input   59.86 | X-H torsion
[ 10167 10162 10161 10158 ] final  -39.46 input  -65.29 | X-H torsion
[ 10718 10713 10712 10709 ] final   94.94 input   66.30 | X-H torsion
[ 10763 10752 10751 10750 ] final   -6.67 input  -60.55 | X-H torsion
[ 11005 11000 10999 10996 ] final  114.42 input  -57.11 | X-H torsion

> <Gold.Protein.ActiveResidues>
 VAL166  LYS551  ARG553  GLY616  TRP617  ASP618  TYR619  PRO620  LYS621  CYS622 
 ASP623  PHE694  ASN695  SER759  ASP760  ASP761  ALA762  ILE779  LEU786  VAL792 
 PHE793  MET794  SER795  GLU796  ALA797  LYS798  CYS799  TRP800  GLU811  SER814 

> <Gold.Protein.RotatedAtoms>
  152.2088  134.8521  160.0499 H   0  0  0  0  0  0  0  0  0  0  0  0  # atno 6907 bound_to 6896
  151.9347  133.3616  159.3951 H   0  0  0  0  0  0  0  0  0  0  0  0  # atno 6908 bound_to 6896
  150.6971  134.4426  159.5343 H   0  0  0  0  0  0  0  0  0  0  0  0  # atno 6909 bound_to 6896
  144.9816  139.4498  143.5383 H   0  0  0  0  0  0  0  0  0  0  0  0  # atno 7974 bound_to 7965
  154.4435  140.1904  156.0745 H   0  0  0  0  0  0  0  0  0  0  0  0  # atno 8008 bound_to 7997
  156.0486  140.3311  155.7298 H   0  0  0  0  0  0  0  0  0  0  0  0  # atno 8009 bound_to 7997
  155.5592  140.0602  157.2823 H   0  0  0  0  0  0  0  0  0  0  0  0  # atno 8010 bound_to 7997
  140.7063  143.3213  151.2785 H   0  0  0  0  0  0  0  0  0  0  0  0  # atno 10167 bound_to 10162
  157.6943  131.0529  150.4263 H   0  0  0  0  0  0  0  0  0  0  0  0  # atno 10718 bound_to 10713
  153.4156  135.7009  153.6329 H   0  0  0  0  0  0  0  0  0  0  0  0  # atno 10763 bound_to 10752
  153.4805  135.3694  155.2440 H   0  0  0  0  0  0  0  0  0  0  0  0  # atno 10764 bound_to 10752
  154.8719  135.4065  154.3515 H   0  0  0  0  0  0  0  0  0  0  0  0  # atno 10765 bound_to 10752
  139.8980  134.9567  156.6889 H   0  0  0  0  0  0  0  0  0  0  0  0  # atno 11005 bound_to 11000
  146.3409  139.9093  142.8782 LP  0  0  0  0  0  0  0  0  0  0  0  0  # atno 17320 bound_to 7965
  145.2412  141.0010  143.3934 LP  0  0  0  0  0  0  0  0  0  0  0  0  # atno 17321 bound_to 7965
  139.6668  144.0091  152.2728 LP  0  0  0  0  0  0  0  0  0  0  0  0  # atno 17342 bound_to 10162
  139.9676  144.6515  150.8019 LP  0  0  0  0  0  0  0  0  0  0  0  0  # atno 17343 bound_to 10162
  156.4634  130.4037  149.6562 LP  0  0  0  0  0  0  0  0  0  0  0  0  # atno 17370 bound_to 10713
  156.3669  130.7510  151.2489 LP  0  0  0  0  0  0  0  0  0  0  0  0  # atno 17371 bound_to 10713
  140.7241  133.9115  155.8166 LP  0  0  0  0  0  0  0  0  0  0  0  0  # atno 17394 bound_to 11000
  141.0205  134.0896  157.4126 LP  0  0  0  0  0  0  0  0  0  0  0  0  # atno 17395 bound_to 11000

$$$$
