AV-unprocessed.smi:2638|AV-procd|sdf|10263|dock7
  -GOLD-   2272014273D 1   1.00000     0.00000
 Structure written by MMmdl.
 43 44  0  0  0  0  0  0  0  0  1 V2000
  144.4729  136.4934  152.5513 O   0  0  0  0  0  0  0  0  0  0  0  0
  145.6787  136.3836  152.3304 C   0  0  0  0  0  0  0  0  0  0  0  0
  146.2628  135.3405  151.7152 N   0  0  0  0  0  0  0  0  0  0  0  0
  145.6572  134.1601  151.2073 C   0  0  0  0  0  0  0  0  0  0  0  0
  144.2476  133.9979  151.2337 C   0  0  0  0  0  0  0  0  0  0  0  0
  143.6768  132.8265  150.6994 C   0  0  0  0  0  0  0  0  0  0  0  0
  144.5229  131.8529  150.1402 C   0  0  0  0  0  0  0  0  0  0  0  0
  145.9070  132.1027  150.1360 C   0  0  0  0  0  0  0  0  0  0  0  0
  146.4580  133.2240  150.6474 N   0  0  0  0  0  0  0  0  0  0  0  0
  146.5917  137.2997  152.6943 N   0  0  0  0  0  0  0  0  0  0  0  0
  146.3499  138.5741  153.3828 C   0  0  1  0  0  0  0  0  0  0  0  0
  145.6487  138.3505  154.7487 C   0  0  0  0  0  0  0  0  0  0  0  0
  144.8895  139.5816  155.2745 C   0  0  0  0  0  0  0  0  0  0  0  0
  143.6610  139.7130  154.5929 O   0  0  0  0  0  0  0  0  0  0  0  0
  147.6326  139.4594  153.4541 C   0  0  0  0  0  0  0  0  0  0  0  0
  148.7762  138.7831  154.2502 C   0  0  0  0  0  0  0  0  0  0  0  0
  150.0321  139.6659  154.3387 C   0  0  0  0  0  0  0  0  0  0  0  0
  149.7111  141.0384  154.9427 C   0  0  0  0  0  0  0  0  0  0  0  0
  148.6019  141.7329  154.1438 C   0  0  0  0  0  0  0  0  0  0  0  0
  147.3429  140.8560  154.0624 C   0  0  0  0  0  0  0  0  0  0  0  0
  147.2718  135.3466  151.6970 H   0  0  0  0  0  0  0  0  0  0  0  0
  143.5950  134.7546  151.6418 H   0  0  0  0  0  0  0  0  0  0  0  0
  142.6066  132.6814  150.7128 H   0  0  0  0  0  0  0  0  0  0  0  0
  144.1217  130.9424  149.7201 H   0  0  0  0  0  0  0  0  0  0  0  0
  146.5909  131.3847  149.7083 H   0  0  0  0  0  0  0  0  0  0  0  0
  147.5555  137.0999  152.4706 H   0  0  0  0  0  0  0  0  0  0  0  0
  145.6365  139.1008  152.7479 H   0  0  0  0  0  0  0  0  0  0  0  0
  144.9680  137.5007  154.6858 H   0  0  0  0  0  0  0  0  0  0  0  0
  146.3916  138.0844  155.4994 H   0  0  0  0  0  0  0  0  0  0  0  0
  144.6926  139.4837  156.3424 H   0  0  0  0  0  0  0  0  0  0  0  0
  145.4646  140.4963  155.1291 H   0  0  0  0  0  0  0  0  0  0  0  0
  143.8199  140.1422  153.7660 H   0  0  0  0  0  0  0  0  0  0  0  0
  147.9971  139.6126  152.4375 H   0  0  0  0  0  0  0  0  0  0  0  0
  148.4309  138.5400  155.2559 H   0  0  0  0  0  0  0  0  0  0  0  0
  149.0660  137.8417  153.7859 H   0  0  0  0  0  0  0  0  0  0  0  0
  150.7945  139.1668  154.9373 H   0  0  0  0  0  0  0  0  0  0  0  0
  150.4581  139.7949  153.3428 H   0  0  0  0  0  0  0  0  0  0  0  0
  149.3979  140.9196  155.9807 H   0  0  0  0  0  0  0  0  0  0  0  0
  150.6070  141.6597  154.9569 H   0  0  0  0  0  0  0  0  0  0  0  0
  148.3575  142.6906  154.6040 H   0  0  0  0  0  0  0  0  0  0  0  0
  148.9579  141.9555  153.1370 H   0  0  0  0  0  0  0  0  0  0  0  0
  146.5967  141.3892  153.4737 H   0  0  0  0  0  0  0  0  0  0  0  0
  146.9189  140.7394  155.0605 H   0  0  0  0  0  0  0  0  0  0  0  0
  1  2  2  0  0  0  0
  2  3  1  0  0  0  0
  2 10  1  0  0  0  0
  3  4  1  0  0  0  0
  3 21  1  0  0  0  0
  4  9  1  0  0  0  0
  4  5  2  0  0  0  0
  5  6  1  0  0  0  0
  5 22  1  0  0  0  0
  6  7  2  0  0  0  0
  6 23  1  0  0  0  0
  7  8  1  0  0  0  0
  7 24  1  0  0  0  0
  8  9  2  0  0  0  0
  8 25  1  0  0  0  0
 10 11  1  0  0  0  0
 10 26  1  0  0  0  0
 11 12  1  0  0  0  0
 11 15  1  0  0  0  0
 11 27  1  0  0  0  0
 12 13  1  0  0  0  0
 12 28  1  0  0  0  0
 12 29  1  0  0  0  0
 13 14  1  0  0  0  0
 13 30  1  0  0  0  0
 13 31  1  0  0  0  0
 14 32  1  0  0  0  0
 15 20  1  0  0  0  0
 15 16  1  0  0  0  0
 15 33  1  0  0  0  0
 16 17  1  0  0  0  0
 16 34  1  0  0  0  0
 16 35  1  0  0  0  0
 17 18  1  0  0  0  0
 17 36  1  0  0  0  0
 17 37  1  0  0  0  0
 18 19  1  0  0  0  0
 18 38  1  0  0  0  0
 18 39  1  0  0  0  0
 19 20  1  0  0  0  0
 19 40  1  0  0  0  0
 19 41  1  0  0  0  0
 20 42  1  0  0  0  0
 20 43  1  0  0  0  0
M  END
> <s_m_source_file>
AV-unprocessed.smi

> <i_m_source_file_index>
2638

> <i_lp_mmshare_version>
43012

> <i_f3d_flags>
0

> <s_epik_input>
bjFbY0hdW2NIXVtjSF1bY0hdYzFbTkhdQyg9TylbTkhdW0NASF0oW0NIMl1bQ0gyXVtPSF0pW0NIXTJbQ0gyXVtDSDJdW0NIMl1bQ0gyXVtDSDJdMg==

> <s_epik_cmdline>
J2VwaWtfcHl0aG9uJywgJy1waCcsICc3LjAnLCAnLXRuJywgJzgnLCAnLW1hJywgJzIwMCcsICctbWV0YWxfYmluZGluZycsICctaW1hZScsICc8aW5maWxlLm1hZT4nLCAnLW9tYWUnLCAnPG91dGZpbGUubWFlPic=

> <r_lp_tautomer_probability>
1

> <r_epik_Ionization_Penalty>
5.22449e-05

> <r_epik_Ionization_Penalty_Charging>
0

> <r_epik_Ionization_Penalty_Neutral>
5.22449e-05

> <r_epik_State_Penalty>
-0

> <r_epik_Charging_Adjusted_Penalty>
0

> <i_epik_Tot_Q>
0

> <i_epik_Tot_abs_Q>
0

> <r_epik_Metal_State_Penalty>
-0

> <b_epik_Metal_Only>
0

> <s_lp_Force_Field>
OPLS_2005

> <r_lp_Energy>
21.512

> <b_lp_Chiralities_Consistent>
1

> <s_lp_Variant>
AV-unprocessed.smi:2638-2

> <Gold.Version>
5.8.1

> <Gold.Id.Protein>
6NUR|6NUR_protein|mol2

> <Gold.PLP.Fitness>
45.4547

> <Gold.PLP.PLP>
-33.9203

> <Gold.PLP.part.hbond>
-2.8827

> <Gold.PLP.part.metal>
0.0000

> <Gold.PLP.part.buried>
-2.9190

> <Gold.PLP.part.nonpolar>
-28.6070

> <Gold.PLP.part.repulsive>
0.4422

> <Gold.PLP.ligand.clash>
0.0000

> <Gold.PLP.ligand.torsion>
0.2879

> <Gold.PLP.Chemscore.Hbond>
3.0000

> <Gold.PLP.Chemscore.CHOScore>
0.9994

> <Gold.PLP.Chemscore.Metal>
0.0000

> <Gold.Chemscore.Hbonds>
donor molecule, donor type, donor heavy atom, donor atom, acceptor molecule, acceptor atom, score
      L1  H     3    21       P1  7948  1.00
      L1  H    10    26       P1  7948  1.00
      L1  H    14    32       P1 10175  0.47
      L1  C     8    25       P1 10747  1.00

> <Gold.PLP.Chemscore.Internal.Correction>
0.1120

> <Gold.Rescore>
     Score         DG    S(hbond)    S(metal)    S(lipo)     H(rot)  DE(clash)    DE(int)     intcor
     16.97     -18.74       2.93        0.00      79.79       2.30       0.06       1.71       ----

> <Gold.Chemscore.Fitness>
16.9721

> <Gold.Chemscore.DG>
-18.7358

> <Gold.Chemscore.ZeroCoef>
-5.4800

> <Gold.Chemscore.Hbond>
2.9343

> <Gold.Chemscore.Metal>
0.0000

> <Gold.Chemscore.Lipo>
79.7941

> <Gold.Chemscore.Internal_Hbond>
0.0000

> <Gold.Chemscore.DEClash>
0.0567

> <Gold.Chemscore.DEInternal>
1.7070

> <Gold.Chemscore.Rot>
2.2972

> <Gold.Chemscore.Internal.Correction>
   9.000000E+99

> <Gold.Chemscore.Hbonds>
donor molecule, donor type, donor heavy atom, donor atom, acceptor molecule, acceptor atom, score
      L1  H     3    21       P1  7948  0.95
      L1  H    10    26       P1  7948  0.99
      L1  H    14    32       P1 10175  0.45

> <Gold.Chemscore.Hbond.Weighted>
-9.8006

> <Gold.Chemscore.Metal.Weighted>
-0.0000

> <Gold.Chemscore.Lipo.Weighted>
-9.3359

> <Gold.Chemscore.Internal_Hbond.Weighted>
0.0000

> <Gold.Chemscore.DEClash.Weighted>
0.0567

> <Gold.Chemscore.DEInternal.Weighted>
1.7070

> <Gold.Chemscore.Rot.Weighted>
5.8807

> <Gold.Chemscore.Internal.Correction.Weighted>
   9.000000E+99

> <Gold.Protein.RotatedTorsions>
[ 6907 6896 6895 6894 ] final  147.66 input  -60.11 | X-H torsion
[ 7974 7965 7964 7962 ] final  139.88 input  175.53 | X-H torsion
[ 8008 7997 7996 7995 ] final -136.27 input   59.86 | X-H torsion
[ 10167 10162 10161 10158 ] final   91.51 input  -65.29 | X-H torsion
[ 10718 10713 10712 10709 ] final  -31.27 input   66.30 | X-H torsion
[ 10763 10752 10751 10750 ] final -148.98 input  -60.55 | X-H torsion
[ 11005 11000 10999 10996 ] final  -87.22 input  -57.11 | X-H torsion

> <Gold.Protein.ActiveResidues>
 VAL166  LYS551  ARG553  GLY616  TRP617  ASP618  TYR619  PRO620  LYS621  CYS622 
 ASP623  PHE694  ASN695  SER759  ASP760  ASP761  ALA762  ILE779  LEU786  VAL792 
 PHE793  MET794  SER795  GLU796  ALA797  LYS798  CYS799  TRP800  GLU811  SER814 

> <Gold.Protein.RotatedAtoms>
  152.1519  133.4527  159.4817 H   0  0  0  0  0  0  0  0  0  0  0  0  # atno 6907 bound_to 6896
  150.6896  134.2179  159.4394 H   0  0  0  0  0  0  0  0  0  0  0  0  # atno 6908 bound_to 6896
  152.0076  134.9894  160.0618 H   0  0  0  0  0  0  0  0  0  0  0  0  # atno 6909 bound_to 6896
  144.9237  139.5134  143.5651 H   0  0  0  0  0  0  0  0  0  0  0  0  # atno 7974 bound_to 7965
  155.3925  140.0501  157.3040 H   0  0  0  0  0  0  0  0  0  0  0  0  # atno 8008 bound_to 7997
  154.5029  140.2163  155.9270 H   0  0  0  0  0  0  0  0  0  0  0  0  # atno 8009 bound_to 7997
  156.1490  140.3139  155.8622 H   0  0  0  0  0  0  0  0  0  0  0  0  # atno 8010 bound_to 7997
  139.8368  144.6661  150.9332 H   0  0  0  0  0  0  0  0  0  0  0  0  # atno 10167 bound_to 10162
  156.3894  130.4370  149.7406 H   0  0  0  0  0  0  0  0  0  0  0  0  # atno 10718 bound_to 10713
  154.8203  135.3321  154.7058 H   0  0  0  0  0  0  0  0  0  0  0  0  # atno 10763 bound_to 10752
  153.7692  135.6927  153.4914 H   0  0  0  0  0  0  0  0  0  0  0  0  # atno 10764 bound_to 10752
  153.2057  135.4500  155.0268 H   0  0  0  0  0  0  0  0  0  0  0  0  # atno 10765 bound_to 10752
  141.1620  133.7499  156.9275 H   0  0  0  0  0  0  0  0  0  0  0  0  # atno 11005 bound_to 11000
  146.3216  139.8136  142.8941 LP  0  0  0  0  0  0  0  0  0  0  0  0  # atno 17320 bound_to 7965
  145.3254  141.0254  143.3477 LP  0  0  0  0  0  0  0  0  0  0  0  0  # atno 17321 bound_to 7965
  140.7802  143.3950  151.1246 LP  0  0  0  0  0  0  0  0  0  0  0  0  # atno 17342 bound_to 10162
  139.7599  143.8651  152.3098 LP  0  0  0  0  0  0  0  0  0  0  0  0  # atno 17343 bound_to 10162
  156.4465  130.7886  151.2908 LP  0  0  0  0  0  0  0  0  0  0  0  0  # atno 17370 bound_to 10713
  157.7498  131.0108  150.3322 LP  0  0  0  0  0  0  0  0  0  0  0  0  # atno 17371 bound_to 10713
  140.1409  134.9294  157.2465 LP  0  0  0  0  0  0  0  0  0  0  0  0  # atno 17394 bound_to 11000
  140.2838  134.3319  155.7335 LP  0  0  0  0  0  0  0  0  0  0  0  0  # atno 17395 bound_to 11000

$$$$
