AV-unprocessed.smi:3342|AV-procd|sdf|12890|dock1
  -GOLD-   2272019293D 1   1.00000     0.00000
 Structure written by MMmdl.
 41 42  0  0  0  0  0  0  0  0  1 V2000
  148.0352  134.7603  156.1419 C   0  0  0  0  0  0  0  0  0  0  0  0
  148.0125  136.1393  155.4642 C   0  0  1  0  0  0  0  0  0  0  0  0
  149.4345  136.6208  155.1196 C   0  0  0  0  0  0  0  0  0  0  0  0
  149.5032  138.0605  154.9483 N   0  0  0  0  0  0  0  0  0  0  0  0
  148.4398  138.9536  154.9230 C   0  0  0  0  0  0  0  0  0  0  0  0
  148.9830  140.2057  154.7429 C   0  0  0  0  0  0  0  0  0  0  0  0
  150.3696  140.1069  154.6538 N   0  0  0  0  0  0  0  0  0  0  0  0
  150.6034  138.8073  154.7834 C   0  0  0  0  0  0  0  0  0  0  0  0
  147.1989  136.0881  154.2519 N   0  0  0  0  0  0  0  0  0  0  0  0
  145.9094  135.7169  154.1830 C   0  0  0  0  0  0  0  0  0  0  0  0
  145.2847  135.3347  155.1735 O   0  0  0  0  0  0  0  0  0  0  0  0
  145.3612  135.8028  152.9443 N   0  0  0  0  0  0  0  0  0  0  0  0
  146.0850  135.7552  151.6623 C   0  0  0  0  0  0  0  0  0  0  0  0
  145.7999  134.4033  150.9844 C   0  0  0  0  0  0  0  0  0  0  0  0
  144.2805  134.1915  150.7843 C   0  0  0  0  0  0  0  0  0  0  0  0
  143.9875  132.7907  150.2303 C   0  0  0  0  0  0  0  0  0  0  0  0
  142.7293  132.5306  149.8667 N   0  0  0  0  0  0  0  0  0  0  0  0
  144.8824  131.9533  150.1300 O   0  0  0  0  0  0  0  0  0  0  0  0
  143.5118  134.4408  152.1035 C   0  0  0  0  0  0  0  0  0  0  0  0
  143.9087  135.7892  152.7321 C   0  0  0  0  0  0  0  0  0  0  0  0
  148.6271  134.7838  157.0570 H   0  0  0  0  0  0  0  0  0  0  0  0
  148.4661  134.0027  155.4864 H   0  0  0  0  0  0  0  0  0  0  0  0
  147.0299  134.4348  156.4112 H   0  0  0  0  0  0  0  0  0  0  0  0
  147.5732  136.8548  156.1620 H   0  0  0  0  0  0  0  0  0  0  0  0
  150.1290  136.3426  155.9134 H   0  0  0  0  0  0  0  0  0  0  0  0
  149.7933  136.1412  154.2075 H   0  0  0  0  0  0  0  0  0  0  0  0
  147.4142  138.6340  155.0351 H   0  0  0  0  0  0  0  0  0  0  0  0
  148.4866  141.1623  154.6714 H   0  0  0  0  0  0  0  0  0  0  0  0
  151.5991  138.3889  154.7605 H   0  0  0  0  0  0  0  0  0  0  0  0
  147.6442  136.3856  153.3963 H   0  0  0  0  0  0  0  0  0  0  0  0
  145.7368  136.5699  151.0259 H   0  0  0  0  0  0  0  0  0  0  0  0
  147.1610  135.9051  151.7525 H   0  0  0  0  0  0  0  0  0  0  0  0
  146.3128  134.3596  150.0228 H   0  0  0  0  0  0  0  0  0  0  0  0
  146.2189  133.6021  151.5955 H   0  0  0  0  0  0  0  0  0  0  0  0
  143.9363  134.9290  150.0569 H   0  0  0  0  0  0  0  0  0  0  0  0
  142.4881  131.6235  149.4950 H   0  0  0  0  0  0  0  0  0  0  0  0
  142.0227  133.2452  149.9639 H   0  0  0  0  0  0  0  0  0  0  0  0
  142.4371  134.4247  151.9188 H   0  0  0  0  0  0  0  0  0  0  0  0
  143.7138  133.6414  152.8188 H   0  0  0  0  0  0  0  0  0  0  0  0
  143.3446  135.9490  153.6520 H   0  0  0  0  0  0  0  0  0  0  0  0
  143.6304  136.6101  152.0696 H   0  0  0  0  0  0  0  0  0  0  0  0
  1  2  1  0  0  0  0
  1 21  1  0  0  0  0
  1 22  1  0  0  0  0
  1 23  1  0  0  0  0
  2  3  1  0  0  0  0
  2  9  1  0  0  0  0
  2 24  1  0  0  0  0
  3  4  1  0  0  0  0
  3 25  1  0  0  0  0
  3 26  1  0  0  0  0
  4  8  1  0  0  0  0
  4  5  1  0  0  0  0
  5  6  2  0  0  0  0
  5 27  1  0  0  0  0
  6  7  1  0  0  0  0
  6 28  1  0  0  0  0
  7  8  2  0  0  0  0
  8 29  1  0  0  0  0
  9 10  1  0  0  0  0
  9 30  1  0  0  0  0
 10 11  2  0  0  0  0
 10 12  1  0  0  0  0
 12 20  1  0  0  0  0
 12 13  1  0  0  0  0
 13 14  1  0  0  0  0
 13 31  1  0  0  0  0
 13 32  1  0  0  0  0
 14 15  1  0  0  0  0
 14 33  1  0  0  0  0
 14 34  1  0  0  0  0
 15 16  1  0  0  0  0
 15 19  1  0  0  0  0
 15 35  1  0  0  0  0
 16 17  1  0  0  0  0
 16 18  2  0  0  0  0
 17 36  1  0  0  0  0
 17 37  1  0  0  0  0
 19 20  1  0  0  0  0
 19 38  1  0  0  0  0
 19 39  1  0  0  0  0
 20 40  1  0  0  0  0
 20 41  1  0  0  0  0
M  END
> <s_m_source_file>
AV-unprocessed.smi

> <i_m_source_file_index>
3342

> <i_lp_mmshare_version>
43012

> <i_f3d_flags>
0

> <s_epik_input>
W2NIXTFuW2NIXVtjSF1uMVtDSDJdW0NAQEhdKFtDSDNdKVtOSF1DKD1PKU4yW0NIMl1bQ0gyXVtDSF0oQyg9TylbTkgyXSlbQ0gyXVtDSDJdMg==

> <s_epik_cmdline>
J2VwaWtfcHl0aG9uJywgJy1waCcsICc3LjAnLCAnLXRuJywgJzgnLCAnLW1hJywgJzIwMCcsICctbWV0YWxfYmluZGluZycsICctaW1hZScsICc8aW5maWxlLm1hZT4nLCAnLW9tYWUnLCAnPG91dGZpbGUubWFlPic=

> <r_lp_tautomer_probability>
1

> <r_epik_Ionization_Penalty>
0.624431

> <r_epik_Ionization_Penalty_Charging>
0.624374

> <r_epik_Ionization_Penalty_Neutral>
5.67186e-05

> <r_epik_State_Penalty>
0.640677

> <r_epik_Charging_Adjusted_Penalty>
1.26505

> <i_epik_Tot_Q>
0

> <i_epik_Tot_abs_Q>
0

> <r_epik_Metal_State_Penalty>
0.307574

> <b_epik_Metal_Only>
0

> <s_lp_Force_Field>
OPLS_2005

> <r_lp_Energy>
30.3525

> <b_lp_Chiralities_Consistent>
1

> <s_lp_Variant>
AV-unprocessed.smi:3342-4

> <Gold.Version>
5.8.1

> <Gold.Id.Protein>
6NUR|6NUR_protein|mol2

> <Gold.PLP.Fitness>
38.6647

> <Gold.PLP.PLP>
-28.0854

> <Gold.PLP.part.hbond>
-3.9641

> <Gold.PLP.part.metal>
0.0000

> <Gold.PLP.part.buried>
-3.8258

> <Gold.PLP.part.nonpolar>
-21.2138

> <Gold.PLP.part.repulsive>
0.3841

> <Gold.PLP.ligand.clash>
0.0000

> <Gold.PLP.ligand.torsion>
0.4992

> <Gold.PLP.Chemscore.Hbond>
3.8160

> <Gold.PLP.Chemscore.CHOScore>
0.0000

> <Gold.PLP.Chemscore.Metal>
0.0000

> <Gold.Chemscore.Hbonds>
donor molecule, donor type, donor heavy atom, donor atom, acceptor molecule, acceptor atom, score
      L1  H     9    30       P1  7948  1.00
      L1  H    17    36       P1 10952  0.60
      L1  H    17    37       P1 10186  1.00
      P1  H  7989  7998       L1     7  1.00

> <Gold.PLP.Chemscore.Internal.Correction>
0.1297

> <Gold.Rescore>
     Score         DG    S(hbond)    S(metal)    S(lipo)     H(rot)  DE(clash)    DE(int)     intcor
     14.89     -16.80       3.68        0.00      41.34       2.28       0.02       1.89       ----

> <Gold.Chemscore.Fitness>
14.8937

> <Gold.Chemscore.DG>
-16.7963

> <Gold.Chemscore.ZeroCoef>
-5.4800

> <Gold.Chemscore.Hbond>
3.6843

> <Gold.Chemscore.Metal>
0.0000

> <Gold.Chemscore.Lipo>
41.3390

> <Gold.Chemscore.Internal_Hbond>
0.0000

> <Gold.Chemscore.DEClash>
0.0154

> <Gold.Chemscore.DEInternal>
1.8871

> <Gold.Chemscore.Rot>
2.2757

> <Gold.Chemscore.Internal.Correction>
   9.000000E+99

> <Gold.Chemscore.Hbonds>
donor molecule, donor type, donor heavy atom, donor atom, acceptor molecule, acceptor atom, score
      L1  H     9    30       P1  7948  0.93
      L1  H    17    36       P1 10952  0.59
      L1  H    17    37       P1 10186  0.98
      P1  H  7989  7998       L1     7  0.74

> <Gold.Chemscore.Hbond.Weighted>
-12.3055

> <Gold.Chemscore.Metal.Weighted>
-0.0000

> <Gold.Chemscore.Lipo.Weighted>
-4.8367

> <Gold.Chemscore.Internal_Hbond.Weighted>
0.0000

> <Gold.Chemscore.DEClash.Weighted>
0.0154

> <Gold.Chemscore.DEInternal.Weighted>
1.8871

> <Gold.Chemscore.Rot.Weighted>
5.8259

> <Gold.Chemscore.Internal.Correction.Weighted>
   9.000000E+99

> <Gold.Protein.RotatedTorsions>
[ 6907 6896 6895 6894 ] final   98.78 input  -60.11 | X-H torsion
[ 7974 7965 7964 7962 ] final   37.31 input  175.53 | X-H torsion
[ 8008 7997 7996 7995 ] final  100.68 input   59.86 | X-H torsion
[ 10167 10162 10161 10158 ] final   18.71 input  -65.29 | X-H torsion
[ 10718 10713 10712 10709 ] final -160.66 input   66.30 | X-H torsion
[ 10763 10752 10751 10750 ] final  -23.14 input  -60.55 | X-H torsion
[ 11005 11000 10999 10996 ] final -128.15 input  -57.11 | X-H torsion

> <Gold.Protein.ActiveResidues>
 VAL166  LYS551  ARG553  GLY616  TRP617  ASP618  TYR619  PRO620  LYS621  CYS622 
 ASP623  PHE694  ASN695  SER759  ASP760  ASP761  ALA762  ILE779  LEU786  VAL792 
 PHE793  MET794  SER795  GLU796  ALA797  LYS798  CYS799  TRP800  GLU811  SER814 

> <Gold.Protein.RotatedAtoms>
  152.5403  134.0528  159.8117 H   0  0  0  0  0  0  0  0  0  0  0  0  # atno 6907 bound_to 6896
  151.0667  133.5492  159.2637 H   0  0  0  0  0  0  0  0  0  0  0  0  # atno 6908 bound_to 6896
  151.2370  135.0583  159.9064 H   0  0  0  0  0  0  0  0  0  0  0  0  # atno 6909 bound_to 6896
  146.1147  139.5910  142.9329 H   0  0  0  0  0  0  0  0  0  0  0  0  # atno 7974 bound_to 7965
  156.1227  140.3209  155.8232 H   0  0  0  0  0  0  0  0  0  0  0  0  # atno 8008 bound_to 7997
  155.4475  140.0530  157.3021 H   0  0  0  0  0  0  0  0  0  0  0  0  # atno 8009 bound_to 7997
  154.4839  140.2064  155.9713 H   0  0  0  0  0  0  0  0  0  0  0  0  # atno 8010 bound_to 7997
  140.5633  143.9297  150.6658 H   0  0  0  0  0  0  0  0  0  0  0  0  # atno 10167 bound_to 10162
  156.5852  130.8746  151.2875 H   0  0  0  0  0  0  0  0  0  0  0  0  # atno 10718 bound_to 10713
  153.6630  135.6975  153.5171 H   0  0  0  0  0  0  0  0  0  0  0  0  # atno 10763 bound_to 10752
  153.2617  135.4243  155.0899 H   0  0  0  0  0  0  0  0  0  0  0  0  # atno 10764 bound_to 10752
  154.8447  135.3556  154.6175 H   0  0  0  0  0  0  0  0  0  0  0  0  # atno 10765 bound_to 10752
  140.9540  134.1027  157.4034 H   0  0  0  0  0  0  0  0  0  0  0  0  # atno 11005 bound_to 11000
  145.5591  141.0406  143.2236 LP  0  0  0  0  0  0  0  0  0  0  0  0  # atno 17320 bound_to 7965
  144.7542  139.7116  143.7261 LP  0  0  0  0  0  0  0  0  0  0  0  0  # atno 17321 bound_to 7965
  140.2754  143.3427  152.1200 LP  0  0  0  0  0  0  0  0  0  0  0  0  # atno 17342 bound_to 10162
  139.5080  144.6843  151.5929 LP  0  0  0  0  0  0  0  0  0  0  0  0  # atno 17343 bound_to 10162
  157.7317  130.9704  150.1892 LP  0  0  0  0  0  0  0  0  0  0  0  0  # atno 17370 bound_to 10713
  156.2597  130.3709  149.8144 LP  0  0  0  0  0  0  0  0  0  0  0  0  # atno 17371 bound_to 10713
  139.8856  135.0074  156.6447 LP  0  0  0  0  0  0  0  0  0  0  0  0  # atno 17394 bound_to 11000
  140.7562  133.8855  155.8384 LP  0  0  0  0  0  0  0  0  0  0  0  0  # atno 17395 bound_to 11000

$$$$
