AV-unprocessed.smi:1199|AV-procd|sdf|5020|dock3
  -GOLD-   22720 4 43D 1   1.00000     0.00000
 Structure written by MMmdl.
 42 43  0  0  0  0  0  0  0  0  2 V2000
  149.9271  137.4158  155.0757 C   0  0  0  0  0  0  0  0  0  0  0  0
  149.0108  136.3946  155.7632 C   0  0  2  0  0  0  0  0  0  0  0  0
  147.7247  136.1420  154.9412 C   0  0  0  0  0  0  0  0  0  0  0  0
  147.8328  134.9811  154.0193 N   0  3  0  0  0  0  0  0  0  0  0  0
  148.4510  133.7929  154.6532 C   0  0  0  0  0  0  0  0  0  0  0  0
  148.5934  132.6499  153.6315 C   0  0  0  0  0  0  0  0  0  0  0  0
  147.3258  132.3484  153.0609 O   0  0  0  0  0  0  0  0  0  0  0  0
  146.7692  133.4653  152.3782 C   0  0  0  0  0  0  0  0  0  0  0  0
  146.5481  134.6118  153.3775 C   0  0  0  0  0  0  0  0  0  0  0  0
  148.6829  136.8668  157.1085 N   0  0  0  0  0  0  0  0  0  0  0  0
  149.0425  136.2736  158.2578 C   0  0  0  0  0  0  0  0  0  0  0  0
  149.7719  135.2834  158.3116 O   0  0  0  0  0  0  0  0  0  0  0  0
  148.4713  136.8794  159.5454 C   0  0  0  0  0  0  0  0  0  0  0  0
  147.8300  135.8611  160.3894 N   0  0  0  0  0  0  0  0  0  0  0  0
  147.7277  134.6122  159.7963 N   0  0  0  0  0  0  0  0  0  0  0  0
  147.1533  133.6446  160.4273 C   0  0  0  0  0  0  0  0  0  0  0  0
  147.0709  132.4251  159.8019 O   0  0  0  0  0  0  0  0  0  0  0  0
  146.6098  133.8339  161.7544 C   0  0  0  0  0  0  0  0  0  0  0  0
  146.7208  135.0524  162.3274 C   0  0  0  0  0  0  0  0  0  0  0  0
  147.3671  136.1713  161.6401 C   0  0  0  0  0  0  0  0  0  0  0  0
  147.4757  137.2945  162.1331 O   0  0  0  0  0  0  0  0  0  0  0  0
  146.6981  131.8389  160.4423 H   0  0  0  0  0  0  0  0  0  0  0  0
  150.2108  137.0775  154.0787 H   0  0  0  0  0  0  0  0  0  0  0  0
  150.8455  137.5656  155.6445 H   0  0  0  0  0  0  0  0  0  0  0  0
  149.4385  138.3851  154.9713 H   0  0  0  0  0  0  0  0  0  0  0  0
  149.5751  135.4635  155.8307 H   0  0  0  0  0  0  0  0  0  0  0  0
  146.9089  135.9552  155.6414 H   0  0  0  0  0  0  0  0  0  0  0  0
  147.4433  137.0339  154.3795 H   0  0  0  0  0  0  0  0  0  0  0  0
  149.4333  134.0521  155.0500 H   0  0  0  0  0  0  0  0  0  0  0  0
  147.8379  133.4683  155.4956 H   0  0  0  0  0  0  0  0  0  0  0  0
  149.3008  132.9121  152.8446 H   0  0  0  0  0  0  0  0  0  0  0  0
  148.9820  131.7566  154.1205 H   0  0  0  0  0  0  0  0  0  0  0  0
  147.4250  133.7775  151.5633 H   0  0  0  0  0  0  0  0  0  0  0  0
  145.8209  133.1688  151.9296 H   0  0  0  0  0  0  0  0  0  0  0  0
  145.8295  134.3088  154.1405 H   0  0  0  0  0  0  0  0  0  0  0  0
  146.1173  135.4675  152.8592 H   0  0  0  0  0  0  0  0  0  0  0  0
  148.0933  137.6848  157.1686 H   0  0  0  0  0  0  0  0  0  0  0  0
  149.2860  137.3684  160.0825 H   0  0  0  0  0  0  0  0  0  0  0  0
  147.7550  137.6691  159.3106 H   0  0  0  0  0  0  0  0  0  0  0  0
  146.1305  133.0130  162.2676 H   0  0  0  0  0  0  0  0  0  0  0  0
  146.3209  135.2073  163.3187 H   0  0  0  0  0  0  0  0  0  0  0  0
  148.4614  135.2635  153.2802 H   0  0  0  0  0  0  0  0  0  0  0  0
  1  2  1  0  0  0  0
  1 23  1  0  0  0  0
  1 24  1  0  0  0  0
  1 25  1  0  0  0  0
  2  3  1  0  0  0  0
  2 10  1  0  0  0  0
  2 26  1  0  0  0  0
  3  4  1  0  0  0  0
  3 27  1  0  0  0  0
  3 28  1  0  0  0  0
  4  9  1  0  0  0  0
  4  5  1  0  0  0  0
  4 42  1  0  0  0  0
  5  6  1  0  0  0  0
  5 29  1  0  0  0  0
  5 30  1  0  0  0  0
  6  7  1  0  0  0  0
  6 31  1  0  0  0  0
  6 32  1  0  0  0  0
  7  8  1  0  0  0  0
  8  9  1  0  0  0  0
  8 33  1  0  0  0  0
  8 34  1  0  0  0  0
  9 35  1  0  0  0  0
  9 36  1  0  0  0  0
 10 11  1  0  0  0  0
 10 37  1  0  0  0  0
 11 12  2  0  0  0  0
 11 13  1  0  0  0  0
 13 38  1  0  0  0  0
 13 39  1  0  0  0  0
 13 14  1  0  0  0  0
 14 15  1  0  0  0  0
 14 20  1  0  0  0  0
 15 16  2  0  0  0  0
 16 17  1  0  0  0  0
 16 18  1  0  0  0  0
 17 22  1  0  0  0  0
 18 40  1  0  0  0  0
 18 19  2  0  0  0  0
 19 41  1  0  0  0  0
 19 20  1  0  0  0  0
 20 21  2  0  0  0  0
M  CHG  1   4   1
M  END
> <s_m_source_file>
AV-unprocessed.smi

> <i_m_source_file_index>
1199

> <i_lp_mmshare_version>
43012

> <i_f3d_flags>
0

> <s_epik_input>
W0NIMl0xW0NIMl1PW0NIMl1bQ0gyXU4xW0NIMl1bQ0BASF0oW0NIM10pW05IXUMoPU8pW0NIMl1uMltuSF1jKD1PKVtjSF1bY0hdYzI9Tw==

> <s_epik_cmdline>
J2VwaWtfcHl0aG9uJywgJy1waCcsICc3LjAnLCAnLXRuJywgJzgnLCAnLW1hJywgJzIwMCcsICctbWV0YWxfYmluZGluZycsICctaW1hZScsICc8aW5maWxlLm1hZT4nLCAnLW9tYWUnLCAnPG91dGZpbGUubWFlPic=

> <r_lp_tautomer_probability>
0.9996

> <r_epik_Ionization_Penalty>
2.86815

> <r_epik_Ionization_Penalty_Charging>
0.656653

> <r_epik_Ionization_Penalty_Neutral>
2.21149

> <r_epik_State_Penalty>
2.43136

> <r_epik_Charging_Adjusted_Penalty>
3.08801

> <i_epik_Tot_Q>
1

> <i_epik_Tot_abs_Q>
1

> <r_epik_Metal_State_Penalty>
2.43136

> <b_epik_Metal_Only>
0

> <s_lp_Force_Field>
OPLS_2005

> <r_lp_Energy>
31.3185

> <b_lp_Chiralities_Consistent>
1

> <s_lp_Variant>
AV-unprocessed.smi:1199-7

> <Gold.Version>
5.8.1

> <Gold.Id.Protein>
6NUR|6NUR_protein|mol2

> <Gold.PLP.Fitness>
45.1119

> <Gold.PLP.PLP>
-33.3326

> <Gold.PLP.part.hbond>
-4.0000

> <Gold.PLP.part.metal>
0.0000

> <Gold.PLP.part.buried>
-4.2774

> <Gold.PLP.part.nonpolar>
-24.2632

> <Gold.PLP.part.repulsive>
0.1224

> <Gold.PLP.ligand.clash>
0.0000

> <Gold.PLP.ligand.torsion>
0.6690

> <Gold.PLP.Chemscore.Hbond>
4.3520

> <Gold.PLP.Chemscore.CHOScore>
0.0000

> <Gold.PLP.Chemscore.Metal>
0.0000

> <Gold.Chemscore.Hbonds>
donor molecule, donor type, donor heavy atom, donor atom, acceptor molecule, acceptor atom, score
      L1  H     4    42       P1  7948  2.00
      P1  H  6896  6908       L1    12  0.75
      P1  H  6931  6943       L1    21  0.85
      P1  H  6934  6947       L1    21  0.50

> <Gold.PLP.Chemscore.Internal.Correction>
0.0613

> <Gold.Rescore>
     Score         DG    S(hbond)    S(metal)    S(lipo)     H(rot)  DE(clash)    DE(int)     intcor
     12.02     -14.14       3.20        0.00      48.98       3.03       0.01       2.10       ----

> <Gold.Chemscore.Fitness>
12.0227

> <Gold.Chemscore.DG>
-14.1388

> <Gold.Chemscore.ZeroCoef>
-5.4800

> <Gold.Chemscore.Hbond>
3.2017

> <Gold.Chemscore.Metal>
0.0000

> <Gold.Chemscore.Lipo>
48.9833

> <Gold.Chemscore.Internal_Hbond>
0.0000

> <Gold.Chemscore.DEClash>
0.0149

> <Gold.Chemscore.DEInternal>
2.1013

> <Gold.Chemscore.Rot>
3.0336

> <Gold.Chemscore.Internal.Correction>
   9.000000E+99

> <Gold.Chemscore.Hbonds>
donor molecule, donor type, donor heavy atom, donor atom, acceptor molecule, acceptor atom, score
      L1  H     4    42       P1  7948  0.93
      P1  H  6896  6908       L1    12  0.76
      P1  H  6931  6943       L1    21  0.84
      P1  H  6934  6947       L1    21  0.48

> <Gold.Chemscore.Hbond.Weighted>
-10.6938

> <Gold.Chemscore.Metal.Weighted>
-0.0000

> <Gold.Chemscore.Lipo.Weighted>
-5.7310

> <Gold.Chemscore.Internal_Hbond.Weighted>
0.0000

> <Gold.Chemscore.DEClash.Weighted>
0.0149

> <Gold.Chemscore.DEInternal.Weighted>
2.1013

> <Gold.Chemscore.Rot.Weighted>
7.7661

> <Gold.Chemscore.Internal.Correction.Weighted>
   9.000000E+99

> <Gold.Protein.RotatedTorsions>
[ 6907 6896 6895 6894 ] final -168.64 input  -60.11 | X-H torsion
[ 7974 7965 7964 7962 ] final -111.19 input  175.53 | X-H torsion
[ 8008 7997 7996 7995 ] final   -8.26 input   59.86 | X-H torsion
[ 10167 10162 10161 10158 ] final  -10.79 input  -65.29 | X-H torsion
[ 10718 10713 10712 10709 ] final  -52.25 input   66.30 | X-H torsion
[ 10763 10752 10751 10750 ] final  171.83 input  -60.55 | X-H torsion
[ 11005 11000 10999 10996 ] final  172.60 input  -57.11 | X-H torsion

> <Gold.Protein.ActiveResidues>
 VAL166  LYS551  ARG553  GLY616  TRP617  ASP618  TYR619  PRO620  LYS621  CYS622 
 ASP623  PHE694  ASN695  SER759  ASP760  ASP761  ALA762  ILE779  LEU786  VAL792 
 PHE793  MET794  SER795  GLU796  ALA797  LYS798  CYS799  TRP800  GLU811  SER814 

> <Gold.Protein.RotatedAtoms>
  151.4788  133.3551  159.2834 H   0  0  0  0  0  0  0  0  0  0  0  0  # atno 6907 bound_to 6896
  150.8911  134.8316  159.7305 H   0  0  0  0  0  0  0  0  0  0  0  0  # atno 6908 bound_to 6896
  152.4823  134.4698  159.9684 H   0  0  0  0  0  0  0  0  0  0  0  0  # atno 6909 bound_to 6896
  145.1591  140.8869  143.3601 H   0  0  0  0  0  0  0  0  0  0  0  0  # atno 7974 bound_to 7965
  154.5758  140.2385  155.8125 H   0  0  0  0  0  0  0  0  0  0  0  0  # atno 8008 bound_to 7997
  156.2142  140.3017  155.9758 H   0  0  0  0  0  0  0  0  0  0  0  0  # atno 8009 bound_to 7997
  155.2630  140.0415  157.2990 H   0  0  0  0  0  0  0  0  0  0  0  0  # atno 8010 bound_to 7997
  140.7122  143.5710  150.9092 H   0  0  0  0  0  0  0  0  0  0  0  0  # atno 10167 bound_to 10162
  156.1638  130.4149  149.9752 H   0  0  0  0  0  0  0  0  0  0  0  0  # atno 10718 bound_to 10713
  154.4174  135.2757  155.1997 H   0  0  0  0  0  0  0  0  0  0  0  0  # atno 10763 bound_to 10752
  154.3957  135.6056  153.5872 H   0  0  0  0  0  0  0  0  0  0  0  0  # atno 10764 bound_to 10752
  152.9832  135.5914  154.4465 H   0  0  0  0  0  0  0  0  0  0  0  0  # atno 10765 bound_to 10752
  140.3314  134.7354  157.4137 H   0  0  0  0  0  0  0  0  0  0  0  0  # atno 11005 bound_to 11000
  145.0350  139.3308  143.6005 LP  0  0  0  0  0  0  0  0  0  0  0  0  # atno 17320 bound_to 7965
  146.3485  139.9701  142.8707 LP  0  0  0  0  0  0  0  0  0  0  0  0  # atno 17321 bound_to 7965
  139.9436  143.6353  152.3047 LP  0  0  0  0  0  0  0  0  0  0  0  0  # atno 17342 bound_to 10162
  139.6847  144.7652  151.1546 LP  0  0  0  0  0  0  0  0  0  0  0  0  # atno 17343 bound_to 10162
  156.7573  130.9138  151.3640 LP  0  0  0  0  0  0  0  0  0  0  0  0  # atno 17370 bound_to 10713
  157.6752  130.9088  150.0134 LP  0  0  0  0  0  0  0  0  0  0  0  0  # atno 17371 bound_to 10713
  140.0857  134.5670  155.8495 LP  0  0  0  0  0  0  0  0  0  0  0  0  # atno 17394 bound_to 11000
  141.2062  133.6653  156.6229 LP  0  0  0  0  0  0  0  0  0  0  0  0  # atno 17395 bound_to 11000

$$$$
