AV-unprocessed.smi:245|AV-procd|sdf|1876|dock10
  -GOLD-   2262020523D 1   1.00000     0.00000
 Structure written by MMmdl.
 54 58  0  0  0  0  0  0  0  0  1 V2000
  153.7535  141.4262  161.1413 O   0  0  0  0  0  0  0  0  0  0  0  0
  153.2708  141.8307  160.0862 C   0  0  0  0  0  0  0  0  0  0  0  0
  152.8950  140.8207  158.9875 C   0  0  0  0  0  0  0  0  0  0  0  0
  152.1880  141.3693  157.8141 N   0  0  0  0  0  0  0  0  0  0  0  0
  151.7671  140.5005  156.8383 C   0  0  0  0  0  0  0  0  0  0  0  0
  152.5976  139.4856  156.4716 N   0  0  0  0  0  0  0  0  0  0  0  0
  152.2525  138.6067  155.5297 C   0  0  0  0  0  0  0  0  0  0  0  0
  151.1265  138.5472  154.8232 N   0  0  0  0  0  0  0  0  0  0  0  0
  150.2719  139.5496  155.1727 C   0  0  0  0  0  0  0  0  0  0  0  0
  150.5058  140.5576  156.1577 C   0  0  0  0  0  0  0  0  0  0  0  0
  149.3923  141.3914  156.2195 N   0  0  0  0  0  0  0  0  0  0  0  0
  148.5632  140.9126  155.3354 C   0  0  0  0  0  0  0  0  0  0  0  0
  149.0100  139.8040  154.6574 N   0  0  0  0  0  0  0  0  0  0  0  0
  148.2962  139.0836  153.6395 C   0  0  0  0  0  0  0  0  0  0  0  0
  146.9384  139.5695  153.1276 C   0  0  0  0  0  0  0  0  0  0  0  0
  146.4419  138.1099  153.0205 C   0  0  0  0  0  0  0  0  0  0  0  0
  145.0620  137.8451  153.6421 C   0  0  0  0  0  0  0  0  0  0  0  0
  144.0248  138.4029  152.8604 O   0  0  0  0  0  0  0  0  0  0  0  0
  146.4408  137.4731  151.6136 C   0  0  0  0  0  0  0  0  0  0  0  0
  146.5705  138.4231  150.5747 O   0  0  0  0  0  0  0  0  0  0  0  0
  147.6306  137.7372  153.9360 C   0  0  0  0  0  0  0  0  0  0  0  0
  151.5462  142.6891  157.9447 C   0  0  1  0  0  0  0  0  0  0  0  0
  150.2005  142.5929  158.7059 C   0  0  0  0  0  0  0  0  0  0  0  0
  149.5626  143.9752  158.9102 C   0  0  0  0  0  0  0  0  0  0  0  0
  150.5265  144.9292  159.6305 C   0  0  0  0  0  0  0  0  0  0  0  0
  151.8537  145.0509  158.8642 C   0  0  0  0  0  0  0  0  0  0  0  0
  152.5180  143.6804  158.6260 C   0  0  1  0  0  0  0  0  0  0  0  0
  153.0476  143.1350  159.8705 N   0  0  0  0  0  0  0  0  0  0  0  0
  153.8359  140.3799  158.6591 H   0  0  0  0  0  0  0  0  0  0  0  0
  152.2928  140.0327  159.4420 H   0  0  0  0  0  0  0  0  0  0  0  0
  152.9835  137.8422  155.3122 H   0  0  0  0  0  0  0  0  0  0  0  0
  147.5965  141.3604  155.1552 H   0  0  0  0  0  0  0  0  0  0  0  0
  148.9861  138.9746  152.8014 H   0  0  0  0  0  0  0  0  0  0  0  0
  146.3875  140.1499  153.8688 H   0  0  0  0  0  0  0  0  0  0  0  0
  146.9852  140.1046  152.1786 H   0  0  0  0  0  0  0  0  0  0  0  0
  144.8807  136.7762  153.7606 H   0  0  0  0  0  0  0  0  0  0  0  0
  144.9959  138.2811  154.6396 H   0  0  0  0  0  0  0  0  0  0  0  0
  144.1244  138.1016  151.9701 H   0  0  0  0  0  0  0  0  0  0  0  0
  147.2579  136.7579  151.5128 H   0  0  0  0  0  0  0  0  0  0  0  0
  145.5178  136.9204  151.4352 H   0  0  0  0  0  0  0  0  0  0  0  0
  145.7167  138.7833  150.3898 H   0  0  0  0  0  0  0  0  0  0  0  0
  148.2081  136.8732  153.6062 H   0  0  0  0  0  0  0  0  0  0  0  0
  147.3444  137.6275  154.9826 H   0  0  0  0  0  0  0  0  0  0  0  0
  151.3525  143.1170  156.9602 H   0  0  0  0  0  0  0  0  0  0  0  0
  149.5056  141.9529  158.1619 H   0  0  0  0  0  0  0  0  0  0  0  0
  150.3471  142.1209  159.6779 H   0  0  0  0  0  0  0  0  0  0  0  0
  149.2833  144.3960  157.9434 H   0  0  0  0  0  0  0  0  0  0  0  0
  148.6402  143.8763  159.4832 H   0  0  0  0  0  0  0  0  0  0  0  0
  150.0667  145.9125  159.7335 H   0  0  0  0  0  0  0  0  0  0  0  0
  150.7129  144.5685  160.6427 H   0  0  0  0  0  0  0  0  0  0  0  0
  151.6656  145.5282  157.9016 H   0  0  0  0  0  0  0  0  0  0  0  0
  152.5348  145.7122  159.4012 H   0  0  0  0  0  0  0  0  0  0  0  0
  153.3769  143.8305  157.9697 H   0  0  0  0  0  0  0  0  0  0  0  0
  153.2835  143.7899  160.6018 H   0  0  0  0  0  0  0  0  0  0  0  0
  1  2  2  0  0  0  0
  2 28  1  0  0  0  0
  2  3  1  0  0  0  0
  3  4  1  0  0  0  0
  3 29  1  0  0  0  0
  3 30  1  0  0  0  0
  4  5  1  0  0  0  0
  4 22  1  0  0  0  0
  5 10  1  0  0  0  0
  5  6  2  0  0  0  0
  6  7  1  0  0  0  0
  7  8  2  0  0  0  0
  7 31  1  0  0  0  0
  8  9  1  0  0  0  0
  9 13  1  0  0  0  0
  9 10  2  0  0  0  0
 10 11  1  0  0  0  0
 11 12  2  0  0  0  0
 12 13  1  0  0  0  0
 12 32  1  0  0  0  0
 13 14  1  0  0  0  0
 14 21  1  0  0  0  0
 14 15  1  0  0  0  0
 14 33  1  0  0  0  0
 15 16  1  0  0  0  0
 15 34  1  0  0  0  0
 15 35  1  0  0  0  0
 16 17  1  0  0  0  0
 16 19  1  0  0  0  0
 16 21  1  0  0  0  0
 17 18  1  0  0  0  0
 17 36  1  0  0  0  0
 17 37  1  0  0  0  0
 18 38  1  0  0  0  0
 19 20  1  0  0  0  0
 19 39  1  0  0  0  0
 19 40  1  0  0  0  0
 20 41  1  0  0  0  0
 21 42  1  0  0  0  0
 21 43  1  0  0  0  0
 22 27  1  0  0  0  0
 22 23  1  0  0  0  0
 22 44  1  0  0  0  0
 23 24  1  0  0  0  0
 23 45  1  0  0  0  0
 23 46  1  0  0  0  0
 24 25  1  0  0  0  0
 24 47  1  0  0  0  0
 24 48  1  0  0  0  0
 25 26  1  0  0  0  0
 25 49  1  0  0  0  0
 25 50  1  0  0  0  0
 26 27  1  0  0  0  0
 26 51  1  0  0  0  0
 26 52  1  0  0  0  0
 27 28  1  0  0  0  0
 27 53  1  0  0  0  0
 28 54  1  0  0  0  0
M  END
> <s_m_source_file>
AV-unprocessed.smi

> <i_m_source_file_index>
245

> <i_lp_mmshare_version>
43012

> <i_f3d_flags>
0

> <s_epik_input>
W0NIMl0xW0NIMl1bQ0gyXVtDSDJdW0NASF0oW0NASF0xMilbTkhdQyg9TylbQ0gyXU4yYyhuW2NIXW4zKWMoYzM0KW5bY0hdbjRbQ0hdKFtDSDJdNSlbQ0gyXUM1KFtDSDJdW09IXSlbQ0gyXVtPSF0=

> <s_epik_cmdline>
J2VwaWtfcHl0aG9uJywgJy1waCcsICc3LjAnLCAnLXRuJywgJzgnLCAnLW1hJywgJzIwMCcsICctbWV0YWxfYmluZGluZycsICctaW1hZScsICc8aW5maWxlLm1hZT4nLCAnLW9tYWUnLCAnPG91dGZpbGUubWFlPic=

> <r_lp_tautomer_probability>
1

> <r_epik_Ionization_Penalty>
0.000702616

> <r_epik_Ionization_Penalty_Charging>
0

> <r_epik_Ionization_Penalty_Neutral>
0.000702616

> <r_epik_State_Penalty>
0.000343985

> <r_epik_Charging_Adjusted_Penalty>
0.000343985

> <i_epik_Tot_Q>
0

> <i_epik_Tot_abs_Q>
0

> <r_epik_Metal_State_Penalty>
-0

> <b_epik_Metal_Only>
0

> <s_lp_Force_Field>
OPLS_2005

> <r_lp_Energy>
53.0031

> <b_lp_Chiralities_Consistent>
1

> <s_lp_Variant>
AV-unprocessed.smi:245-1

> <Gold.Version>
5.8.1

> <Gold.Id.Protein>
6NUR|6NUR_protein|mol2

> <Gold.PLP.Fitness>
51.9547

> <Gold.PLP.PLP>
-44.9488

> <Gold.PLP.part.hbond>
-2.9761

> <Gold.PLP.part.metal>
0.0000

> <Gold.PLP.part.buried>
-0.9224

> <Gold.PLP.part.nonpolar>
-41.1571

> <Gold.PLP.part.repulsive>
0.2262

> <Gold.PLP.ligand.clash>
0.0000

> <Gold.PLP.ligand.torsion>
1.7530

> <Gold.PLP.Chemscore.Hbond>
3.3445

> <Gold.PLP.Chemscore.CHOScore>
0.0000

> <Gold.PLP.Chemscore.Metal>
0.0000

> <Gold.Chemscore.Hbonds>
donor molecule, donor type, donor heavy atom, donor atom, acceptor molecule, acceptor atom, score
      L1  H    18    38       P1 10171  0.49
      L1  H    20    41       P1 10171  1.00
      P1  H  7954  7966       L1    20  0.86
      P1  H  7997  8009       L1     6  1.00

> <Gold.PLP.Chemscore.Internal.Correction>
0.4784

> <Gold.Rescore>
     Score         DG    S(hbond)    S(metal)    S(lipo)     H(rot)  DE(clash)    DE(int)     intcor
     13.18     -19.01       2.79        0.00      99.87       2.91       1.79       4.04       ----

> <Gold.Chemscore.Fitness>
13.1835

> <Gold.Chemscore.DG>
-19.0140

> <Gold.Chemscore.ZeroCoef>
-5.4800

> <Gold.Chemscore.Hbond>
2.7877

> <Gold.Chemscore.Metal>
0.0000

> <Gold.Chemscore.Lipo>
99.8706

> <Gold.Chemscore.Internal_Hbond>
0.0000

> <Gold.Chemscore.DEClash>
1.7891

> <Gold.Chemscore.DEInternal>
4.0415

> <Gold.Chemscore.Rot>
2.9147

> <Gold.Chemscore.Internal.Correction>
   9.000000E+99

> <Gold.Chemscore.Hbonds>
donor molecule, donor type, donor heavy atom, donor atom, acceptor molecule, acceptor atom, score
      L1  H    18    38       P1 10171  0.46
      L1  H    20    41       P1 10171  0.96
      P1  H  7954  7966       L1    20  0.22
      P1  H  7997  8009       L1     6  0.61

> <Gold.Chemscore.Hbond.Weighted>
-9.3109

> <Gold.Chemscore.Metal.Weighted>
-0.0000

> <Gold.Chemscore.Lipo.Weighted>
-11.6849

> <Gold.Chemscore.Internal_Hbond.Weighted>
0.0000

> <Gold.Chemscore.DEClash.Weighted>
1.7891

> <Gold.Chemscore.DEInternal.Weighted>
4.0415

> <Gold.Chemscore.Rot.Weighted>
7.4617

> <Gold.Chemscore.Internal.Correction.Weighted>
   9.000000E+99

> <Gold.Protein.RotatedTorsions>
[ 6907 6896 6895 6894 ] final   -8.17 input  -60.11 | X-H torsion
[ 7974 7965 7964 7962 ] final -158.91 input  175.53 | X-H torsion
[ 8008 7997 7996 7995 ] final -153.18 input   59.86 | X-H torsion
[ 10167 10162 10161 10158 ] final  106.48 input  -65.29 | X-H torsion
[ 10718 10713 10712 10709 ] final   87.77 input   66.30 | X-H torsion
[ 10763 10752 10751 10750 ] final  -27.24 input  -60.55 | X-H torsion
[ 11005 11000 10999 10996 ] final  -90.01 input  -57.11 | X-H torsion

> <Gold.Protein.ActiveResidues>
 VAL166  LYS551  ARG553  GLY616  TRP617  ASP618  TYR619  PRO620  LYS621  CYS622 
 ASP623  PHE694  ASN695  SER759  ASP760  ASP761  ALA762  ILE779  LEU786  VAL792 
 PHE793  MET794  SER795  GLU796  ALA797  LYS798  CYS799  TRP800  GLU811  SER814 

> <Gold.Protein.RotatedAtoms>
  151.4380  135.1017  159.9661 H   0  0  0  0  0  0  0  0  0  0  0  0  # atno 6907 bound_to 6896
  152.4933  133.8555  159.7234 H   0  0  0  0  0  0  0  0  0  0  0  0  # atno 6908 bound_to 6896
  150.9108  133.6941  159.2883 H   0  0  0  0  0  0  0  0  0  0  0  0  # atno 6909 bound_to 6896
  144.7486  140.3761  143.6065 H   0  0  0  0  0  0  0  0  0  0  0  0  # atno 7974 bound_to 7965
  155.6668  140.0729  157.2534 H   0  0  0  0  0  0  0  0  0  0  0  0  # atno 8008 bound_to 7997
  154.4131  140.1706  156.1887 H   0  0  0  0  0  0  0  0  0  0  0  0  # atno 8009 bound_to 7997
  155.9650  140.3366  155.6528 H   0  0  0  0  0  0  0  0  0  0  0  0  # atno 8010 bound_to 7997
  139.7005  144.7095  151.1193 H   0  0  0  0  0  0  0  0  0  0  0  0  # atno 10167 bound_to 10162
  157.6943  131.0268  150.3174 H   0  0  0  0  0  0  0  0  0  0  0  0  # atno 10718 bound_to 10713
  153.7289  135.6940  153.4994 H   0  0  0  0  0  0  0  0  0  0  0  0  # atno 10763 bound_to 10752
  153.2150  135.4389  155.0423 H   0  0  0  0  0  0  0  0  0  0  0  0  # atno 10764 bound_to 10752
  154.8259  135.3446  154.6819 H   0  0  0  0  0  0  0  0  0  0  0  0  # atno 10765 bound_to 10752
  141.1574  133.7665  156.9676 H   0  0  0  0  0  0  0  0  0  0  0  0  # atno 11005 bound_to 11000
  145.7027  139.1665  143.2584 LP  0  0  0  0  0  0  0  0  0  0  0  0  # atno 17320 bound_to 7965
  146.1404  140.7065  142.9370 LP  0  0  0  0  0  0  0  0  0  0  0  0  # atno 17321 bound_to 7965
  140.7708  143.5430  150.9291 LP  0  0  0  0  0  0  0  0  0  0  0  0  # atno 17342 bound_to 10162
  139.9111  143.6718  152.3115 LP  0  0  0  0  0  0  0  0  0  0  0  0  # atno 17343 bound_to 10162
  156.3666  130.3856  149.7208 LP  0  0  0  0  0  0  0  0  0  0  0  0  # atno 17370 bound_to 10713
  156.4637  130.7964  151.2983 LP  0  0  0  0  0  0  0  0  0  0  0  0  # atno 17371 bound_to 10713
  140.1151  134.9453  157.2122 LP  0  0  0  0  0  0  0  0  0  0  0  0  # atno 17394 bound_to 11000
  140.3144  134.2987  155.7259 LP  0  0  0  0  0  0  0  0  0  0  0  0  # atno 17395 bound_to 11000

$$$$
