AV-unprocessed.smi:1485|AV-procd|sdf|6001|dock6
  -GOLD-   22720 6 93D 1   1.00000     0.00000
 Structure written by MMmdl.
 44 45  0  0  0  0  0  0  0  0  1 V2000
  152.7171  142.0487  159.4341 C   0  0  0  0  0  0  0  0  0  0  0  0
  152.7467  140.6387  159.3051 O   0  0  0  0  0  0  0  0  0  0  0  0
  152.1150  140.1845  158.1187 C   0  0  0  0  0  0  0  0  0  0  0  0
  152.6652  138.7983  157.7469 C   0  0  0  0  0  0  0  0  0  0  0  0
  151.9609  138.2267  156.5937 N   0  0  0  0  0  0  0  0  0  0  0  0
  151.2715  137.0617  156.8817 N   0  0  0  0  0  0  0  0  0  0  0  0
  150.6146  136.4461  155.9529 C   0  0  0  0  0  0  0  0  0  0  0  0
  149.8894  135.1741  156.2205 C   0  0  0  0  0  0  0  0  0  0  0  0
  150.0875  134.5115  157.2401 O   0  0  0  0  0  0  0  0  0  0  0  0
  149.0070  134.8145  155.2716 N   0  0  0  0  0  0  0  0  0  0  0  0
  148.1593  133.6248  155.2867 C   0  0  2  0  0  0  0  0  0  0  0  0
  149.0109  132.3395  155.3219 C   0  0  0  0  0  0  0  0  0  0  0  0
  149.7639  132.1088  154.0000 C   0  0  0  0  0  0  0  0  0  0  0  0
  148.8042  132.1122  152.7991 C   0  0  0  0  0  0  0  0  0  0  0  0
  147.9773  133.4105  152.7369 C   0  0  1  0  0  0  0  0  0  0  0  0
  147.0172  133.4094  151.5392 C   0  0  0  0  0  0  0  0  0  0  0  0
  147.2208  133.6308  154.0638 C   0  0  0  0  0  0  0  0  0  0  0  0
  150.5688  136.9737  154.6000 C   0  0  0  0  0  0  0  0  0  0  0  0
  151.2617  138.1017  154.3286 C   0  0  0  0  0  0  0  0  0  0  0  0
  152.0383  138.8003  155.3549 C   0  0  0  0  0  0  0  0  0  0  0  0
  152.7039  139.8094  155.1242 O   0  0  0  0  0  0  0  0  0  0  0  0
  153.2036  142.3405  160.3647 H   0  0  0  0  0  0  0  0  0  0  0  0
  151.6922  142.4211  159.4590 H   0  0  0  0  0  0  0  0  0  0  0  0
  153.2460  142.5308  158.6112 H   0  0  0  0  0  0  0  0  0  0  0  0
  151.0394  140.1154  158.2863 H   0  0  0  0  0  0  0  0  0  0  0  0
  152.2720  140.8920  157.3028 H   0  0  0  0  0  0  0  0  0  0  0  0
  153.7338  138.8701  157.5363 H   0  0  0  0  0  0  0  0  0  0  0  0
  152.5892  138.1326  158.6083 H   0  0  0  0  0  0  0  0  0  0  0  0
  148.9112  135.4238  154.4718 H   0  0  0  0  0  0  0  0  0  0  0  0
  147.5363  133.6536  156.1822 H   0  0  0  0  0  0  0  0  0  0  0  0
  149.7158  132.3723  156.1537 H   0  0  0  0  0  0  0  0  0  0  0  0
  148.3590  131.4860  155.5123 H   0  0  0  0  0  0  0  0  0  0  0  0
  150.5209  132.8827  153.8661 H   0  0  0  0  0  0  0  0  0  0  0  0
  150.3000  131.1604  154.0414 H   0  0  0  0  0  0  0  0  0  0  0  0
  149.3738  131.9885  151.8774 H   0  0  0  0  0  0  0  0  0  0  0  0
  148.1360  131.2525  152.8663 H   0  0  0  0  0  0  0  0  0  0  0  0
  148.6680  134.2428  152.5949 H   0  0  0  0  0  0  0  0  0  0  0  0
  146.2907  132.5997  151.6133 H   0  0  0  0  0  0  0  0  0  0  0  0
  147.5594  133.2859  150.6015 H   0  0  0  0  0  0  0  0  0  0  0  0
  146.4655  134.3480  151.4788 H   0  0  0  0  0  0  0  0  0  0  0  0
  146.4756  132.8433  154.1865 H   0  0  0  0  0  0  0  0  0  0  0  0
  146.6649  134.5687  154.0279 H   0  0  0  0  0  0  0  0  0  0  0  0
  150.0037  136.4781  153.8241 H   0  0  0  0  0  0  0  0  0  0  0  0
  151.2412  138.5023  153.3257 H   0  0  0  0  0  0  0  0  0  0  0  0
  1  2  1  0  0  0  0
  1 22  1  0  0  0  0
  1 23  1  0  0  0  0
  1 24  1  0  0  0  0
  2  3  1  0  0  0  0
  3  4  1  0  0  0  0
  3 25  1  0  0  0  0
  3 26  1  0  0  0  0
  4  5  1  0  0  0  0
  4 27  1  0  0  0  0
  4 28  1  0  0  0  0
  5 20  1  0  0  0  0
  5  6  1  0  0  0  0
  6  7  2  0  0  0  0
  7  8  1  0  0  0  0
  7 18  1  0  0  0  0
  8  9  2  0  0  0  0
  8 10  1  0  0  0  0
 10 11  1  0  0  0  0
 10 29  1  0  0  0  0
 11 17  1  0  0  0  0
 11 12  1  0  0  0  0
 11 30  1  0  0  0  0
 12 13  1  0  0  0  0
 12 31  1  0  0  0  0
 12 32  1  0  0  0  0
 13 14  1  0  0  0  0
 13 33  1  0  0  0  0
 13 34  1  0  0  0  0
 14 15  1  0  0  0  0
 14 35  1  0  0  0  0
 14 36  1  0  0  0  0
 15 16  1  0  0  0  0
 15 17  1  0  0  0  0
 15 37  1  0  0  0  0
 16 38  1  0  0  0  0
 16 39  1  0  0  0  0
 16 40  1  0  0  0  0
 17 41  1  0  0  0  0
 17 42  1  0  0  0  0
 18 19  2  0  0  0  0
 18 43  1  0  0  0  0
 19 20  1  0  0  0  0
 19 44  1  0  0  0  0
 20 21  2  0  0  0  0
M  END
> <s_m_source_file>
AV-unprocessed.smi

> <i_m_source_file_index>
1485

> <i_lp_mmshare_version>
43012

> <i_f3d_flags>
0

> <s_epik_input>
W0NIM11PW0NIMl1bQ0gyXW4xbmMoW2NIXVtjSF1jMT1PKUMoPU8pW05IXVtDQEBIXTJbQ0gyXVtDSDJdW0NIMl1bQ0BASF0oW0NIM10pW0NIMl0y

> <s_epik_cmdline>
J2VwaWtfcHl0aG9uJywgJy1waCcsICc3LjAnLCAnLXRuJywgJzgnLCAnLW1hJywgJzIwMCcsICctbWV0YWxfYmluZGluZycsICctaW1hZScsICc8aW5maWxlLm1hZT4nLCAnLW9tYWUnLCAnPG91dGZpbGUubWFlPic=

> <r_lp_tautomer_probability>
1

> <r_epik_Ionization_Penalty>
6.4688e-07

> <r_epik_Ionization_Penalty_Charging>
6.63567e-09

> <r_epik_Ionization_Penalty_Neutral>
6.40245e-07

> <r_epik_State_Penalty>
-0

> <r_epik_Charging_Adjusted_Penalty>
6.63567e-09

> <i_epik_Tot_Q>
0

> <i_epik_Tot_abs_Q>
0

> <r_epik_Metal_State_Penalty>
-0

> <b_epik_Metal_Only>
0

> <s_lp_Force_Field>
OPLS_2005

> <r_lp_Energy>
29.3151

> <b_lp_Chiralities_Consistent>
1

> <s_lp_Variant>
AV-unprocessed.smi:1485-1

> <Gold.Version>
5.8.1

> <Gold.Id.Protein>
6NUR|6NUR_protein|mol2

> <Gold.PLP.Fitness>
37.5644

> <Gold.PLP.PLP>
-31.6750

> <Gold.PLP.part.hbond>
-3.0000

> <Gold.PLP.part.metal>
0.0000

> <Gold.PLP.part.buried>
-3.9761

> <Gold.PLP.part.nonpolar>
-26.0543

> <Gold.PLP.part.repulsive>
0.0163

> <Gold.PLP.ligand.clash>
0.0636

> <Gold.PLP.ligand.torsion>
0.2571

> <Gold.PLP.Chemscore.Hbond>
2.1466

> <Gold.PLP.Chemscore.CHOScore>
0.0000

> <Gold.PLP.Chemscore.Metal>
0.0000

> <Gold.Chemscore.Hbonds>
donor molecule, donor type, donor heavy atom, donor atom, acceptor molecule, acceptor atom, score
      P1  H  6896  6907       L1     9  0.44
      P1  H  7989  7998       L1    21  0.33
      P1  H  7997  8009       L1    21  1.00

> <Gold.PLP.Chemscore.Internal.Correction>
0.0274

> <Gold.Rescore>
     Score         DG    S(hbond)    S(metal)    S(lipo)     H(rot)  DE(clash)    DE(int)     intcor
     16.93     -17.16       2.11        0.00      73.57       1.55       0.01       0.22       ----

> <Gold.Chemscore.Fitness>
16.9317

> <Gold.Chemscore.DG>
-17.1573

> <Gold.Chemscore.ZeroCoef>
-5.4800

> <Gold.Chemscore.Hbond>
2.1055

> <Gold.Chemscore.Metal>
0.0000

> <Gold.Chemscore.Lipo>
73.5663

> <Gold.Chemscore.Internal_Hbond>
0.0000

> <Gold.Chemscore.DEClash>
0.0082

> <Gold.Chemscore.DEInternal>
0.2174

> <Gold.Chemscore.Rot>
1.5478

> <Gold.Chemscore.Internal.Correction>
   9.000000E+99

> <Gold.Chemscore.Hbonds>
donor molecule, donor type, donor heavy atom, donor atom, acceptor molecule, acceptor atom, score
      P1  H  6896  6907       L1     9  0.45
      P1  H  7989  7998       L1    21  0.20
      P1  H  7997  8009       L1    21  0.97

> <Gold.Chemscore.Hbond.Weighted>
-7.0323

> <Gold.Chemscore.Metal.Weighted>
-0.0000

> <Gold.Chemscore.Lipo.Weighted>
-8.6073

> <Gold.Chemscore.Internal_Hbond.Weighted>
0.0000

> <Gold.Chemscore.DEClash.Weighted>
0.0082

> <Gold.Chemscore.DEInternal.Weighted>
0.2174

> <Gold.Chemscore.Rot.Weighted>
3.9623

> <Gold.Chemscore.Internal.Correction.Weighted>
   9.000000E+99

> <Gold.Protein.RotatedTorsions>
[ 6907 6896 6895 6894 ] final -102.21 input  -60.11 | X-H torsion
[ 7974 7965 7964 7962 ] final    8.11 input  175.53 | X-H torsion
[ 8008 7997 7996 7995 ] final -125.65 input   59.86 | X-H torsion
[ 10167 10162 10161 10158 ] final  120.14 input  -65.29 | X-H torsion
[ 10718 10713 10712 10709 ] final  145.54 input   66.30 | X-H torsion
[ 10763 10752 10751 10750 ] final  -17.43 input  -60.55 | X-H torsion
[ 11005 11000 10999 10996 ] final   80.71 input  -57.11 | X-H torsion

> <Gold.Protein.ActiveResidues>
 VAL166  LYS551  ARG553  GLY616  TRP617  ASP618  TYR619  PRO620  LYS621  CYS622 
 ASP623  PHE694  ASN695  SER759  ASP760  ASP761  ALA762  ILE779  LEU786  VAL792 
 PHE793  MET794  SER795  GLU796  ALA797  LYS798  CYS799  TRP800  GLU811  SER814 

> <Gold.Protein.RotatedAtoms>
  150.7186  134.0616  159.3833 H   0  0  0  0  0  0  0  0  0  0  0  0  # atno 6907 bound_to 6896
  151.8596  135.0526  160.0477 H   0  0  0  0  0  0  0  0  0  0  0  0  # atno 6908 bound_to 6896
  152.2727  133.5362  159.5486 H   0  0  0  0  0  0  0  0  0  0  0  0  # atno 6909 bound_to 6896
  146.2420  139.9983  142.8418 H   0  0  0  0  0  0  0  0  0  0  0  0  # atno 7974 bound_to 7965
  155.2168  140.0420  157.2942 H   0  0  0  0  0  0  0  0  0  0  0  0  # atno 8008 bound_to 7997
  154.5976  140.2443  155.7807 H   0  0  0  0  0  0  0  0  0  0  0  0  # atno 8009 bound_to 7997
  156.2300  140.2941  156.0173 H   0  0  0  0  0  0  0  0  0  0  0  0  # atno 8010 bound_to 7997
  139.6001  144.7054  151.3082 H   0  0  0  0  0  0  0  0  0  0  0  0  # atno 10167 bound_to 10162
  157.3440  131.0940  151.1058 H   0  0  0  0  0  0  0  0  0  0  0  0  # atno 10718 bound_to 10713
  153.5738  135.7007  153.5493 H   0  0  0  0  0  0  0  0  0  0  0  0  # atno 10763 bound_to 10752
  153.3321  135.4044  155.1503 H   0  0  0  0  0  0  0  0  0  0  0  0  # atno 10764 bound_to 10752
  154.8629  135.3721  154.5262 H   0  0  0  0  0  0  0  0  0  0  0  0  # atno 10765 bound_to 10752
  139.9124  134.7941  156.1945 H   0  0  0  0  0  0  0  0  0  0  0  0  # atno 11005 bound_to 11000
  145.1439  140.9586  143.4472 LP  0  0  0  0  0  0  0  0  0  0  0  0  # atno 17320 bound_to 7965
  145.0269  139.3374  143.6044 LP  0  0  0  0  0  0  0  0  0  0  0  0  # atno 17321 bound_to 7965
  140.7243  143.7048  150.7816 LP  0  0  0  0  0  0  0  0  0  0  0  0  # atno 17342 bound_to 10162
  140.0623  143.5143  152.2621 LP  0  0  0  0  0  0  0  0  0  0  0  0  # atno 17343 bound_to 10162
  157.2259  130.6503  149.5830 LP  0  0  0  0  0  0  0  0  0  0  0  0  # atno 17370 bound_to 10713
  155.9711  130.4614  150.6109 LP  0  0  0  0  0  0  0  0  0  0  0  0  # atno 17371 bound_to 10713
  141.0563  133.6863  156.1867 LP  0  0  0  0  0  0  0  0  0  0  0  0  # atno 17394 bound_to 11000
  140.6731  134.4846  157.5587 LP  0  0  0  0  0  0  0  0  0  0  0  0  # atno 17395 bound_to 11000

$$$$
