AV-unprocessed.smi:1734|AV-procd|sdf|6980|dock5
  -GOLD-   22720 8193D 1   1.00000     0.00000
 Structure written by MMmdl.
 50 52  0  0  0  0  0  0  0  0  1 V2000
  145.7953  134.6411  150.7682 C   0  0  0  0  0  0  0  0  0  0  0  0
  145.8067  133.2123  151.2871 C   0  0  0  0  0  0  0  0  0  0  0  0
  144.9282  132.2650  150.7193 C   0  0  0  0  0  0  0  0  0  0  0  0
  144.9379  130.9451  151.2015 C   0  0  0  0  0  0  0  0  0  0  0  0
  145.8316  130.6262  152.2381 C   0  0  0  0  0  0  0  0  0  0  0  0
  146.6746  131.5247  152.7864 N   0  0  0  0  0  0  0  0  0  0  0  0
  146.6784  132.8032  152.3321 C   0  0  0  0  0  0  0  0  0  0  0  0
  147.5433  133.8031  152.8606 N   0  0  0  0  0  0  0  0  0  0  0  0
  147.9950  133.9377  154.1200 C   0  0  0  0  0  0  0  0  0  0  0  0
  147.7082  133.2018  155.0648 O   0  0  0  0  0  0  0  0  0  0  0  0
  148.8107  134.9958  154.2319 N   0  0  0  0  0  0  0  0  0  0  0  0
  149.4627  135.4200  155.4671 C   0  0  0  0  0  0  0  0  0  0  0  0
  149.0497  136.8542  155.9061 C   0  0  2  0  0  0  0  0  0  0  0  0
  150.2057  137.8909  155.7442 C   0  0  2  0  0  0  0  0  0  0  0  0
  150.6844  138.1781  154.3182 C   0  0  0  0  0  0  0  0  0  0  0  0
  152.1998  138.2747  154.4609 C   0  0  0  0  0  0  0  0  0  0  0  0
  152.4845  137.3721  155.5156 O   0  0  0  0  0  0  0  0  0  0  0  0
  151.5007  137.5810  156.5182 C   0  0  0  0  0  0  0  0  0  0  0  0
  148.3171  136.9248  157.1868 N   0  0  0  0  0  0  0  0  0  0  0  0
  149.1957  136.9693  158.3536 C   0  0  0  0  0  0  0  0  0  0  0  0
  148.4022  136.8892  159.6675 C   0  0  0  0  0  0  0  0  0  0  0  0
  147.4555  137.9515  159.7098 O   0  0  0  0  0  0  0  0  0  0  0  0
  146.5423  137.9138  158.6183 C   0  0  0  0  0  0  0  0  0  0  0  0
  147.3090  137.9783  157.2852 C   0  0  0  0  0  0  0  0  0  0  0  0
  145.0911  134.7583  149.9439 H   0  0  0  0  0  0  0  0  0  0  0  0
  146.7833  134.9265  150.4064 H   0  0  0  0  0  0  0  0  0  0  0  0
  145.5021  135.3307  151.5604 H   0  0  0  0  0  0  0  0  0  0  0  0
  144.2535  132.5432  149.9229 H   0  0  0  0  0  0  0  0  0  0  0  0
  144.2780  130.1970  150.7878 H   0  0  0  0  0  0  0  0  0  0  0  0
  145.8721  129.6238  152.6379 H   0  0  0  0  0  0  0  0  0  0  0  0
  147.8618  134.4918  152.1955 H   0  0  0  0  0  0  0  0  0  0  0  0
  148.9947  135.5479  153.4072 H   0  0  0  0  0  0  0  0  0  0  0  0
  149.2335  134.6871  156.2404 H   0  0  0  0  0  0  0  0  0  0  0  0
  150.5387  135.3578  155.3092 H   0  0  0  0  0  0  0  0  0  0  0  0
  148.3249  137.1793  155.1585 H   0  0  0  0  0  0  0  0  0  0  0  0
  149.8349  138.8357  156.1448 H   0  0  0  0  0  0  0  0  0  0  0  0
  150.4296  137.3745  153.6304 H   0  0  0  0  0  0  0  0  0  0  0  0
  150.2550  139.0938  153.9113 H   0  0  0  0  0  0  0  0  0  0  0  0
  152.7276  138.0062  153.5455 H   0  0  0  0  0  0  0  0  0  0  0  0
  152.5013  139.2827  154.7505 H   0  0  0  0  0  0  0  0  0  0  0  0
  151.7944  138.4404  157.1229 H   0  0  0  0  0  0  0  0  0  0  0  0
  151.4319  136.7241  157.1877 H   0  0  0  0  0  0  0  0  0  0  0  0
  149.9117  136.1477  158.3135 H   0  0  0  0  0  0  0  0  0  0  0  0
  149.7742  137.8929  158.3584 H   0  0  0  0  0  0  0  0  0  0  0  0
  147.8909  135.9292  159.7542 H   0  0  0  0  0  0  0  0  0  0  0  0
  149.0734  136.9747  160.5221 H   0  0  0  0  0  0  0  0  0  0  0  0
  145.9422  137.0038  158.6716 H   0  0  0  0  0  0  0  0  0  0  0  0
  145.8540  138.7551  158.6993 H   0  0  0  0  0  0  0  0  0  0  0  0
  147.7772  138.9578  157.1850 H   0  0  0  0  0  0  0  0  0  0  0  0
  146.5808  137.8831  156.4833 H   0  0  0  0  0  0  0  0  0  0  0  0
  1  2  1  0  0  0  0
  1 25  1  0  0  0  0
  1 26  1  0  0  0  0
  1 27  1  0  0  0  0
  2  7  1  0  0  0  0
  2  3  2  0  0  0  0
  3  4  1  0  0  0  0
  3 28  1  0  0  0  0
  4  5  2  0  0  0  0
  4 29  1  0  0  0  0
  5  6  1  0  0  0  0
  5 30  1  0  0  0  0
  6  7  2  0  0  0  0
  7  8  1  0  0  0  0
  8  9  1  0  0  0  0
  8 31  1  0  0  0  0
  9 10  2  0  0  0  0
  9 11  1  0  0  0  0
 11 12  1  0  0  0  0
 11 32  1  0  0  0  0
 12 13  1  0  0  0  0
 12 33  1  0  0  0  0
 12 34  1  0  0  0  0
 13 14  1  0  0  0  0
 13 19  1  0  0  0  0
 13 35  1  0  0  0  0
 14 18  1  0  0  0  0
 14 15  1  0  0  0  0
 14 36  1  0  0  0  0
 15 16  1  0  0  0  0
 15 37  1  0  0  0  0
 15 38  1  0  0  0  0
 16 17  1  0  0  0  0
 16 39  1  0  0  0  0
 16 40  1  0  0  0  0
 17 18  1  0  0  0  0
 18 41  1  0  0  0  0
 18 42  1  0  0  0  0
 19 24  1  0  0  0  0
 19 20  1  0  0  0  0
 20 21  1  0  0  0  0
 20 43  1  0  0  0  0
 20 44  1  0  0  0  0
 21 22  1  0  0  0  0
 21 45  1  0  0  0  0
 21 46  1  0  0  0  0
 22 23  1  0  0  0  0
 23 24  1  0  0  0  0
 23 47  1  0  0  0  0
 23 48  1  0  0  0  0
 24 49  1  0  0  0  0
 24 50  1  0  0  0  0
M  END
> <s_m_source_file>
AV-unprocessed.smi

> <i_m_source_file_index>
1734

> <i_lp_mmshare_version>
43012

> <i_f3d_flags>
0

> <s_epik_input>
W0NIM11jMVtjSF1bY0hdW2NIXW5jMVtOSF1DKD1PKVtOSF1bQ0gyXVtDQEhdKFtDQEBIXTJbQ0gyXVtDSDJdT1tDSDJdMilOM1tDSDJdW0NIMl1PW0NIMl1bQ0gyXTM=

> <s_epik_cmdline>
J2VwaWtfcHl0aG9uJywgJy1waCcsICc3LjAnLCAnLXRuJywgJzgnLCAnLW1hJywgJzIwMCcsICctbWV0YWxfYmluZGluZycsICctaW1hZScsICc8aW5maWxlLm1hZT4nLCAnLW9tYWUnLCAnPG91dGZpbGUubWFlPic=

> <r_epik_Ionization_Penalty>
0.125073

> <r_epik_Ionization_Penalty_Charging>
0

> <r_epik_Ionization_Penalty_Neutral>
0.125073

> <r_epik_State_Penalty>
0.114484

> <r_epik_Charging_Adjusted_Penalty>
0.114484

> <i_epik_Tot_Q>
0

> <i_epik_Tot_abs_Q>
0

> <r_epik_Metal_State_Penalty>
0.114483

> <b_epik_Metal_Only>
0

> <s_lp_Force_Field>
OPLS_2005

> <r_lp_Energy>
56.0061

> <b_lp_Chiralities_Consistent>
1

> <s_lp_Variant>
AV-unprocessed.smi:1734-1

> <Gold.Version>
5.8.1

> <Gold.Id.Protein>
6NUR|6NUR_protein|mol2

> <Gold.PLP.Fitness>
42.5152

> <Gold.PLP.PLP>
-35.2309

> <Gold.PLP.part.hbond>
-4.4990

> <Gold.PLP.part.metal>
0.0000

> <Gold.PLP.part.buried>
-6.9096

> <Gold.PLP.part.nonpolar>
-24.3811

> <Gold.PLP.part.repulsive>
0.1804

> <Gold.PLP.ligand.clash>
0.0000

> <Gold.PLP.ligand.torsion>
1.5750

> <Gold.PLP.Chemscore.Hbond>
3.3680

> <Gold.PLP.Chemscore.CHOScore>
0.0000

> <Gold.PLP.Chemscore.Metal>
0.0000

> <Gold.Chemscore.Hbonds>
donor molecule, donor type, donor heavy atom, donor atom, acceptor molecule, acceptor atom, score
      L1  H     8    31       P1  7948  0.98
      L1  H    11    32       P1  7948  1.00
      P1  H  6934  6947       L1    22  0.66
      P1  H 10752 10765       L1    17  0.67

> <Gold.PLP.Chemscore.Internal.Correction>
0.3303

> <Gold.Rescore>
     Score         DG    S(hbond)    S(metal)    S(lipo)     H(rot)  DE(clash)    DE(int)     intcor
     17.29     -21.01       3.30        0.00      74.59       1.65       0.00       3.72       ----

> <Gold.Chemscore.Fitness>
17.2868

> <Gold.Chemscore.DG>
-21.0065

> <Gold.Chemscore.ZeroCoef>
-5.4800

> <Gold.Chemscore.Hbond>
3.2990

> <Gold.Chemscore.Metal>
0.0000

> <Gold.Chemscore.Lipo>
74.5853

> <Gold.Chemscore.Internal_Hbond>
0.0000

> <Gold.Chemscore.DEClash>
0.0000

> <Gold.Chemscore.DEInternal>
3.7197

> <Gold.Chemscore.Rot>
1.6480

> <Gold.Chemscore.Internal.Correction>
   9.000000E+99

> <Gold.Chemscore.Hbonds>
donor molecule, donor type, donor heavy atom, donor atom, acceptor molecule, acceptor atom, score
      L1  H     8    31       P1  7948  0.30
      L1  H    11    32       P1  7948  0.74
      P1  H  6934  6947       L1    22  0.61
      P1  H 10752 10765       L1    17  0.51

> <Gold.Chemscore.Hbond.Weighted>
-11.0188

> <Gold.Chemscore.Metal.Weighted>
-0.0000

> <Gold.Chemscore.Lipo.Weighted>
-8.7265

> <Gold.Chemscore.Internal_Hbond.Weighted>
0.0000

> <Gold.Chemscore.DEClash.Weighted>
0.0000

> <Gold.Chemscore.DEInternal.Weighted>
3.7197

> <Gold.Chemscore.Rot.Weighted>
4.2188

> <Gold.Chemscore.Internal.Correction.Weighted>
   9.000000E+99

> <Gold.Protein.RotatedTorsions>
[ 6907 6896 6895 6894 ] final  -27.37 input  -60.11 | X-H torsion
[ 7974 7965 7964 7962 ] final  -15.84 input  175.53 | X-H torsion
[ 8008 7997 7996 7995 ] final -173.64 input   59.86 | X-H torsion
[ 10167 10162 10161 10158 ] final   34.04 input  -65.29 | X-H torsion
[ 10718 10713 10712 10709 ] final  175.28 input   66.30 | X-H torsion
[ 10763 10752 10751 10750 ] final -166.91 input  -60.55 | X-H torsion
[ 11005 11000 10999 10996 ] final  120.77 input  -57.11 | X-H torsion

> <Gold.Protein.ActiveResidues>
 VAL166  LYS551  ARG553  GLY616  TRP617  ASP618  TYR619  PRO620  LYS621  CYS622 
 ASP623  PHE694  ASN695  SER759  ASP760  ASP761  ALA762  ILE779  LEU786  VAL792 
 PHE793  MET794  SER795  GLU796  ALA797  LYS798  CYS799  TRP800  GLU811  SER814 

> <Gold.Protein.RotatedAtoms>
  151.1479  135.0212  159.8654 H   0  0  0  0  0  0  0  0  0  0  0  0  # atno 6907 bound_to 6896
  152.5453  134.1423  159.8494 H   0  0  0  0  0  0  0  0  0  0  0  0  # atno 6908 bound_to 6896
  151.1505  133.4865  159.2628 H   0  0  0  0  0  0  0  0  0  0  0  0  # atno 6909 bound_to 6896
  146.2014  140.3551  142.8422 H   0  0  0  0  0  0  0  0  0  0  0  0  # atno 7974 bound_to 7965
  155.9600  140.1142  157.0904 H   0  0  0  0  0  0  0  0  0  0  0  0  # atno 8008 bound_to 7997
  154.4129  140.1184  156.5233 H   0  0  0  0  0  0  0  0  0  0  0  0  # atno 8009 bound_to 7997
  155.6733  140.3473  155.4829 H   0  0  0  0  0  0  0  0  0  0  0  0  # atno 8010 bound_to 7997
  140.4352  144.1267  150.6165 H   0  0  0  0  0  0  0  0  0  0  0  0  # atno 10167 bound_to 10162
  156.9373  130.9990  151.2975 H   0  0  0  0  0  0  0  0  0  0  0  0  # atno 10718 bound_to 10713
  154.6785  135.2950  154.9645 H   0  0  0  0  0  0  0  0  0  0  0  0  # atno 10763 bound_to 10752
  154.0648  135.6626  153.4820 H   0  0  0  0  0  0  0  0  0  0  0  0  # atno 10764 bound_to 10752
  153.0532  135.5161  154.7816 H   0  0  0  0  0  0  0  0  0  0  0  0  # atno 10765 bound_to 10752
  139.9198  134.9636  156.7856 H   0  0  0  0  0  0  0  0  0  0  0  0  # atno 11005 bound_to 11000
  144.8692  140.7249  143.6058 LP  0  0  0  0  0  0  0  0  0  0  0  0  # atno 17320 bound_to 7965
  145.3470  139.1716  143.4455 LP  0  0  0  0  0  0  0  0  0  0  0  0  # atno 17321 bound_to 7965
  140.4382  143.2538  151.9508 LP  0  0  0  0  0  0  0  0  0  0  0  0  # atno 17342 bound_to 10162
  139.4786  144.5680  151.8134 LP  0  0  0  0  0  0  0  0  0  0  0  0  # atno 17343 bound_to 10162
  157.5808  130.8375  149.8520 LP  0  0  0  0  0  0  0  0  0  0  0  0  # atno 17370 bound_to 10713
  156.0420  130.3736  150.1411 LP  0  0  0  0  0  0  0  0  0  0  0  0  # atno 17371 bound_to 10713
  140.6508  133.9733  155.7754 LP  0  0  0  0  0  0  0  0  0  0  0  0  # atno 17394 bound_to 11000
  141.0709  134.0207  157.3527 LP  0  0  0  0  0  0  0  0  0  0  0  0  # atno 17395 bound_to 11000

$$$$
