AV-unprocessed.smi:2545|AV-procd|sdf|9995|dock6
  -GOLD-   2272014 43D 1   1.00000     0.00000
 Structure written by MMmdl.
 27 28  0  0  0  0  0  0  0  0  2 V2000
  147.7455  138.7808  152.7762 N   0  0  0  0  0  0  0  0  0  0  0  0
  148.0234  139.9456  153.4939 C   0  0  0  0  0  0  0  0  0  0  0  0
  147.1003  141.0132  153.4656 C   0  0  0  0  0  0  0  0  0  0  0  0
  147.3817  142.1886  154.1901 C   0  0  0  0  0  0  0  0  0  0  0  0
  148.5256  142.2817  154.9007 N   0  3  0  0  0  0  0  0  0  0  0  0
  149.4358  141.2857  154.9559 C   0  0  0  0  0  0  0  0  0  0  0  0
  149.2155  140.0778  154.2515 C   0  0  0  0  0  0  0  0  0  0  0  0
  150.1534  139.0332  154.2976 N   0  0  0  0  0  0  0  0  0  0  0  0
  151.4553  139.4409  154.8105 C   0  0  0  0  0  0  0  0  0  0  0  0
  152.4526  138.2744  154.7008 C   0  0  0  0  0  0  0  0  0  0  0  0
  151.9305  137.1362  155.3807 O   0  0  0  0  0  0  0  0  0  0  0  0
  150.6966  136.6973  154.8196 C   0  0  0  0  0  0  0  0  0  0  0  0
  149.6519  137.8212  154.9335 C   0  0  0  0  0  0  0  0  0  0  0  0
  148.3787  137.9940  152.7696 H   0  0  0  0  0  0  0  0  0  0  0  0
  146.8947  138.6891  152.2389 H   0  0  0  0  0  0  0  0  0  0  0  0
  146.1856  140.9354  152.8958 H   0  0  0  0  0  0  0  0  0  0  0  0
  146.7310  143.0506  154.2219 H   0  0  0  0  0  0  0  0  0  0  0  0
  150.3096  141.4852  155.5588 H   0  0  0  0  0  0  0  0  0  0  0  0
  151.8223  140.3006  154.2485 H   0  0  0  0  0  0  0  0  0  0  0  0
  151.3639  139.7499  155.8527 H   0  0  0  0  0  0  0  0  0  0  0  0
  152.6511  138.0281  153.6563 H   0  0  0  0  0  0  0  0  0  0  0  0
  153.4066  138.5513  155.1497 H   0  0  0  0  0  0  0  0  0  0  0  0
  150.8419  136.4040  153.7785 H   0  0  0  0  0  0  0  0  0  0  0  0
  150.3563  135.8113  155.3557 H   0  0  0  0  0  0  0  0  0  0  0  0
  149.4340  138.0151  155.9846 H   0  0  0  0  0  0  0  0  0  0  0  0
  148.7187  137.5136  154.4601 H   0  0  0  0  0  0  0  0  0  0  0  0
  148.7113  143.1414  155.4183 H   0  0  0  0  0  0  0  0  0  0  0  0
  1  2  1  0  0  0  0
  1 14  1  0  0  0  0
  1 15  1  0  0  0  0
  2  7  1  0  0  0  0
  2  3  2  0  0  0  0
  3  4  1  0  0  0  0
  3 16  1  0  0  0  0
  4  5  2  0  0  0  0
  4 17  1  0  0  0  0
  5  6  1  0  0  0  0
  5 27  1  0  0  0  0
  6  7  2  0  0  0  0
  6 18  1  0  0  0  0
  7  8  1  0  0  0  0
  8 13  1  0  0  0  0
  8  9  1  0  0  0  0
  9 10  1  0  0  0  0
  9 19  1  0  0  0  0
  9 20  1  0  0  0  0
 10 11  1  0  0  0  0
 10 21  1  0  0  0  0
 10 22  1  0  0  0  0
 11 12  1  0  0  0  0
 12 13  1  0  0  0  0
 12 23  1  0  0  0  0
 12 24  1  0  0  0  0
 13 25  1  0  0  0  0
 13 26  1  0  0  0  0
M  CHG  1   5   1
M  END
> <s_m_source_file>
AV-unprocessed.smi

> <i_m_source_file_index>
2545

> <i_lp_mmshare_version>
43012

> <i_f3d_flags>
0

> <s_epik_input>
W05IMl1jMVtjSF1bY0hdbltjSF1jMU4yW0NIMl1bQ0gyXU9bQ0gyXVtDSDJdMg==

> <s_epik_cmdline>
J2VwaWtfcHl0aG9uJywgJy1waCcsICc3LjAnLCAnLXRuJywgJzgnLCAnLW1hJywgJzIwMCcsICctbWV0YWxfYmluZGluZycsICctaW1hZScsICc8aW5maWxlLm1hZT4nLCAnLW9tYWUnLCAnPG91dGZpbGUubWFlPic=

> <r_lp_tautomer_probability>
1

> <r_epik_Ionization_Penalty>
0.0125888

> <r_epik_Ionization_Penalty_Charging>
0.0125847

> <r_epik_Ionization_Penalty_Neutral>
4.08722e-06

> <r_epik_State_Penalty>
0.00974947

> <r_epik_Charging_Adjusted_Penalty>
0.0223342

> <i_epik_Tot_Q>
1

> <i_epik_Tot_abs_Q>
1

> <r_epik_Metal_State_Penalty>
1.6989

> <b_epik_Metal_Only>
0

> <s_lp_Force_Field>
OPLS_2005

> <r_lp_Energy>
29.9348

> <b_lp_Chiralities_Consistent>
1

> <s_lp_Variant>
AV-unprocessed.smi:2545-1

> <Gold.Version>
5.8.1

> <Gold.Id.Protein>
6NUR|6NUR_protein|mol2

> <Gold.PLP.Fitness>
37.0215

> <Gold.PLP.PLP>
-26.2223

> <Gold.PLP.part.hbond>
-4.0000

> <Gold.PLP.part.metal>
0.0000

> <Gold.PLP.part.buried>
0.6236

> <Gold.PLP.part.nonpolar>
-23.6782

> <Gold.PLP.part.repulsive>
0.5001

> <Gold.PLP.ligand.clash>
0.3939

> <Gold.PLP.ligand.torsion>
0.2094

> <Gold.PLP.Chemscore.Hbond>
3.8316

> <Gold.PLP.Chemscore.CHOScore>
0.0000

> <Gold.PLP.Chemscore.Metal>
0.0000

> <Gold.Chemscore.Hbonds>
donor molecule, donor type, donor heavy atom, donor atom, acceptor molecule, acceptor atom, score
      L1  H     1    14       P1  7948  0.92
      L1  H     5    27       P1  8028  2.00
      P1  H 10752 10764       L1    11  0.82

> <Gold.PLP.Chemscore.Internal.Correction>
0.1170

> <Gold.Rescore>
     Score         DG    S(hbond)    S(metal)    S(lipo)     H(rot)  DE(clash)    DE(int)     intcor
     15.79     -17.97       2.20        0.00      65.79       1.00       1.84       0.35       ----

> <Gold.Chemscore.Fitness>
15.7880

> <Gold.Chemscore.DG>
-17.9705

> <Gold.Chemscore.ZeroCoef>
-5.4800

> <Gold.Chemscore.Hbond>
2.2016

> <Gold.Chemscore.Metal>
0.0000

> <Gold.Chemscore.Lipo>
65.7890

> <Gold.Chemscore.Internal_Hbond>
0.0000

> <Gold.Chemscore.DEClash>
1.8355

> <Gold.Chemscore.DEInternal>
0.3469

> <Gold.Chemscore.Rot>
1.0000

> <Gold.Chemscore.Internal.Correction>
   9.000000E+99

> <Gold.Chemscore.Hbonds>
donor molecule, donor type, donor heavy atom, donor atom, acceptor molecule, acceptor atom, score
      L1  H     1    14       P1  7948  0.83
      L1  H     5    27       P1  8028  0.97
      P1  H 10752 10764       L1    11  0.12

> <Gold.Chemscore.Hbond.Weighted>
-7.3532

> <Gold.Chemscore.Metal.Weighted>
-0.0000

> <Gold.Chemscore.Lipo.Weighted>
-7.6973

> <Gold.Chemscore.Internal_Hbond.Weighted>
0.0000

> <Gold.Chemscore.DEClash.Weighted>
1.8355

> <Gold.Chemscore.DEInternal.Weighted>
0.3469

> <Gold.Chemscore.Rot.Weighted>
2.5600

> <Gold.Chemscore.Internal.Correction.Weighted>
   9.000000E+99

> <Gold.Protein.RotatedTorsions>
[ 6907 6896 6895 6894 ] final  -96.14 input  -60.11 | X-H torsion
[ 7974 7965 7964 7962 ] final  -59.54 input  175.53 | X-H torsion
[ 8008 7997 7996 7995 ] final  -81.57 input   59.86 | X-H torsion
[ 10167 10162 10161 10158 ] final    9.13 input  -65.29 | X-H torsion
[ 10718 10713 10712 10709 ] final  170.35 input   66.30 | X-H torsion
[ 10763 10752 10751 10750 ] final  -36.70 input  -60.55 | X-H torsion
[ 11005 11000 10999 10996 ] final -114.70 input  -57.11 | X-H torsion

> <Gold.Protein.ActiveResidues>
 VAL166  LYS551  ARG553  GLY616  TRP617  ASP618  TYR619  PRO620  LYS621  CYS622 
 ASP623  PHE694  ASN695  SER759  ASP760  ASP761  ALA762  ILE779  LEU786  VAL792 
 PHE793  MET794  SER795  GLU796  ALA797  LYS798  CYS799  TRP800  GLU811  SER814 

> <Gold.Protein.RotatedAtoms>
  150.6981  134.1550  159.4154 H   0  0  0  0  0  0  0  0  0  0  0  0  # atno 6907 bound_to 6896
  151.9532  135.0157  160.0552 H   0  0  0  0  0  0  0  0  0  0  0  0  # atno 6908 bound_to 6896
  152.1993  133.4794  159.5086 H   0  0  0  0  0  0  0  0  0  0  0  0  # atno 6909 bound_to 6896
  145.8263  140.8508  143.0107 H   0  0  0  0  0  0  0  0  0  0  0  0  # atno 7974 bound_to 7965
  154.5996  140.0646  156.9351 H   0  0  0  0  0  0  0  0  0  0  0  0  # atno 8008 bound_to 7997
  155.2154  140.3326  155.4304 H   0  0  0  0  0  0  0  0  0  0  0  0  # atno 8009 bound_to 7997
  156.2310  140.1841  156.7227 H   0  0  0  0  0  0  0  0  0  0  0  0  # atno 8010 bound_to 7997
  140.6273  143.8072  150.7250 H   0  0  0  0  0  0  0  0  0  0  0  0  # atno 10167 bound_to 10162
  157.0095  131.0200  151.2807 H   0  0  0  0  0  0  0  0  0  0  0  0  # atno 10718 bound_to 10713
  153.8841  135.6818  153.4765 H   0  0  0  0  0  0  0  0  0  0  0  0  # atno 10763 bound_to 10752
  153.1217  135.4737  154.9204 H   0  0  0  0  0  0  0  0  0  0  0  0  # atno 10764 bound_to 10752
  154.7654  135.3223  154.8248 H   0  0  0  0  0  0  0  0  0  0  0  0  # atno 10765 bound_to 10752
  141.0535  133.9650  157.2795 H   0  0  0  0  0  0  0  0  0  0  0  0  # atno 11005 bound_to 11000
  144.6743  140.0606  143.7476 LP  0  0  0  0  0  0  0  0  0  0  0  0  # atno 17320 bound_to 7965
  145.9620  139.2807  143.1150 LP  0  0  0  0  0  0  0  0  0  0  0  0  # atno 17321 bound_to 7965
  140.1676  143.4222  152.2023 LP  0  0  0  0  0  0  0  0  0  0  0  0  # atno 17342 bound_to 10162
  139.5492  144.7323  151.4489 LP  0  0  0  0  0  0  0  0  0  0  0  0  # atno 17343 bound_to 10162
  157.5331  130.8071  149.7940 LP  0  0  0  0  0  0  0  0  0  0  0  0  # atno 17370 bound_to 10713
  156.0141  130.3821  150.2167 LP  0  0  0  0  0  0  0  0  0  0  0  0  # atno 17371 bound_to 10713
  139.9370  135.0195  156.8587 LP  0  0  0  0  0  0  0  0  0  0  0  0  # atno 17394 bound_to 11000
  140.6010  134.0172  155.7537 LP  0  0  0  0  0  0  0  0  0  0  0  0  # atno 17395 bound_to 11000

$$$$
