AV-unprocessed.smi:2264|AV-procd|sdf|9142|dock4
  -GOLD-   2272012343D 1   1.00000     0.00000
 Structure written by MMmdl.
 44 45  0  0  0  0  0  0  0  0  1 V2000
  151.4129  145.5853  160.0166 C   0  0  0  0  0  0  0  0  0  0  0  0
  151.9785  144.1813  160.0749 C   0  0  0  0  0  0  0  0  0  0  0  0
  151.9443  143.3488  158.9394 C   0  0  0  0  0  0  0  0  0  0  0  0
  152.4717  142.0450  159.0004 C   0  0  0  0  0  0  0  0  0  0  0  0
  153.0426  141.5545  160.2018 C   0  0  0  0  0  0  0  0  0  0  0  0
  153.5765  140.2905  160.3356 O   0  0  0  0  0  0  0  0  0  0  0  0
  153.1131  139.2596  159.4741 C   0  0  0  0  0  0  0  0  0  0  0  0
  153.0752  137.9495  160.2749 C   0  0  1  0  0  0  0  0  0  0  0  0
  152.1320  137.1021  159.6512 O   0  0  0  0  0  0  0  0  0  0  0  0
  154.4502  137.2414  160.3031 C   0  0  0  0  0  0  0  0  0  0  0  0
  154.5484  136.2784  161.4113 N   0  0  0  0  0  0  0  0  0  0  0  0
  154.4919  136.8145  162.7091 C   0  0  0  0  0  0  0  0  0  0  0  0
  154.5653  136.0626  163.7581 N   0  0  0  0  0  0  0  0  0  0  0  0
  154.7023  134.6788  163.6150 C   0  0  0  0  0  0  0  0  0  0  0  0
  154.7870  133.8909  164.9104 C   0  0  0  0  0  0  0  0  0  0  0  0
  154.7543  134.0966  162.3858 C   0  0  0  0  0  0  0  0  0  0  0  0
  154.9049  132.5960  162.1694 C   0  0  0  0  0  0  0  0  0  0  0  0
  154.6636  134.9390  161.1820 C   0  0  0  0  0  0  0  0  0  0  0  0
  154.6914  134.4772  160.0397 O   0  0  0  0  0  0  0  0  0  0  0  0
  153.0711  142.3948  161.3385 C   0  0  0  0  0  0  0  0  0  0  0  0
  153.6779  141.8951  162.6366 C   0  0  0  0  0  0  0  0  0  0  0  0
  152.5417  143.7005  161.2725 C   0  0  0  0  0  0  0  0  0  0  0  0
  151.1173  145.8540  159.0019 H   0  0  0  0  0  0  0  0  0  0  0  0
  152.1557  146.3076  160.3563 H   0  0  0  0  0  0  0  0  0  0  0  0
  150.5362  145.6659  160.6599 H   0  0  0  0  0  0  0  0  0  0  0  0
  151.5125  143.7058  158.0157 H   0  0  0  0  0  0  0  0  0  0  0  0
  152.4235  141.4379  158.1095 H   0  0  0  0  0  0  0  0  0  0  0  0
  152.1115  139.5073  159.1185 H   0  0  0  0  0  0  0  0  0  0  0  0
  153.7674  139.1523  158.6068 H   0  0  0  0  0  0  0  0  0  0  0  0
  152.7253  138.1679  161.2849 H   0  0  0  0  0  0  0  0  0  0  0  0
  151.9011  137.4732  158.8134 H   0  0  0  0  0  0  0  0  0  0  0  0
  154.6698  136.7773  159.3395 H   0  0  0  0  0  0  0  0  0  0  0  0
  155.2449  137.9816  160.4167 H   0  0  0  0  0  0  0  0  0  0  0  0
  154.3773  137.8987  162.7643 H   0  0  0  0  0  0  0  0  0  0  0  0
  155.7430  133.3712  164.9791 H   0  0  0  0  0  0  0  0  0  0  0  0
  153.9844  133.1548  164.9645 H   0  0  0  0  0  0  0  0  0  0  0  0
  154.6985  134.5446  165.7791 H   0  0  0  0  0  0  0  0  0  0  0  0
  154.0427  132.2060  161.6278 H   0  0  0  0  0  0  0  0  0  0  0  0
  154.9910  132.0344  163.0982 H   0  0  0  0  0  0  0  0  0  0  0  0
  155.7979  132.3894  161.5786 H   0  0  0  0  0  0  0  0  0  0  0  0
  153.6605  142.6649  163.4086 H   0  0  0  0  0  0  0  0  0  0  0  0
  154.7149  141.5966  162.4802 H   0  0  0  0  0  0  0  0  0  0  0  0
  153.1238  141.0316  163.0053 H   0  0  0  0  0  0  0  0  0  0  0  0
  152.5671  144.3391  162.1437 H   0  0  0  0  0  0  0  0  0  0  0  0
  1  2  1  0  0  0  0
  1 23  1  0  0  0  0
  1 24  1  0  0  0  0
  1 25  1  0  0  0  0
  2 22  1  0  0  0  0
  2  3  2  0  0  0  0
  3  4  1  0  0  0  0
  3 26  1  0  0  0  0
  4  5  2  0  0  0  0
  4 27  1  0  0  0  0
  5  6  1  0  0  0  0
  5 20  1  0  0  0  0
  6  7  1  0  0  0  0
  7  8  1  0  0  0  0
  7 28  1  0  0  0  0
  7 29  1  0  0  0  0
  8  9  1  0  0  0  0
  8 10  1  0  0  0  0
  8 30  1  0  0  0  0
  9 31  1  0  0  0  0
 10 11  1  0  0  0  0
 10 32  1  0  0  0  0
 10 33  1  0  0  0  0
 11 18  1  0  0  0  0
 11 12  1  0  0  0  0
 12 13  2  0  0  0  0
 12 34  1  0  0  0  0
 13 14  1  0  0  0  0
 14 15  1  0  0  0  0
 14 16  2  0  0  0  0
 15 35  1  0  0  0  0
 15 36  1  0  0  0  0
 15 37  1  0  0  0  0
 16 17  1  0  0  0  0
 16 18  1  0  0  0  0
 17 38  1  0  0  0  0
 17 39  1  0  0  0  0
 17 40  1  0  0  0  0
 18 19  2  0  0  0  0
 20 21  1  0  0  0  0
 20 22  2  0  0  0  0
 21 41  1  0  0  0  0
 21 42  1  0  0  0  0
 21 43  1  0  0  0  0
 22 44  1  0  0  0  0
M  END
> <s_m_source_file>
AV-unprocessed.smi

> <i_m_source_file_index>
2264

> <i_lp_mmshare_version>
43012

> <i_f3d_flags>
0

> <s_epik_input>
W0NIM11jMVtjSF1bY0hdYyhjKFtDSDNdKVtjSF0xKU9bQ0gyXVtDQEhdKFtPSF0pW0NIMl1uMltjSF1uYyhbQ0gzXSljKFtDSDNdKWMyPU8=

> <s_epik_cmdline>
J2VwaWtfcHl0aG9uJywgJy1waCcsICc3LjAnLCAnLXRuJywgJzgnLCAnLW1hJywgJzIwMCcsICctbWV0YWxfYmluZGluZycsICctaW1hZScsICc8aW5maWxlLm1hZT4nLCAnLW9tYWUnLCAnPG91dGZpbGUubWFlPic=

> <r_lp_tautomer_probability>
1

> <r_epik_Ionization_Penalty>
3.7476e-05

> <r_epik_Ionization_Penalty_Charging>
8.44705e-08

> <r_epik_Ionization_Penalty_Neutral>
3.73915e-05

> <r_epik_State_Penalty>
-0

> <r_epik_Charging_Adjusted_Penalty>
8.44705e-08

> <i_epik_Tot_Q>
0

> <i_epik_Tot_abs_Q>
0

> <r_epik_Metal_State_Penalty>
-0

> <b_epik_Metal_Only>
0

> <s_lp_Force_Field>
OPLS_2005

> <r_lp_Energy>
22.0846

> <b_lp_Chiralities_Consistent>
1

> <s_lp_Variant>
AV-unprocessed.smi:2264-2

> <Gold.Version>
5.8.1

> <Gold.Id.Protein>
6NUR|6NUR_protein|mol2

> <Gold.PLP.Fitness>
50.1231

> <Gold.PLP.PLP>
-47.8572

> <Gold.PLP.part.hbond>
-2.0000

> <Gold.PLP.part.metal>
0.0000

> <Gold.PLP.part.buried>
-5.4791

> <Gold.PLP.part.nonpolar>
-42.0421

> <Gold.PLP.part.repulsive>
0.0571

> <Gold.PLP.ligand.clash>
0.0000

> <Gold.PLP.ligand.torsion>
1.0821

> <Gold.PLP.Chemscore.Hbond>
1.4658

> <Gold.PLP.Chemscore.CHOScore>
0.0000

> <Gold.PLP.Chemscore.Metal>
0.0000

> <Gold.Chemscore.Hbonds>
donor molecule, donor type, donor heavy atom, donor atom, acceptor molecule, acceptor atom, score
      P1  H  6896  6907       L1    19  0.66
      P1  H  6896  6909       L1     9  0.49

> <Gold.PLP.Chemscore.Internal.Correction>
0.0330

> <Gold.Rescore>
     Score         DG    S(hbond)    S(metal)    S(lipo)     H(rot)  DE(clash)    DE(int)     intcor
     19.32     -20.52       1.67        0.00     131.61       2.32       0.03       1.17       ----

> <Gold.Chemscore.Fitness>
19.3194

> <Gold.Chemscore.DG>
-20.5228

> <Gold.Chemscore.ZeroCoef>
-5.4800

> <Gold.Chemscore.Hbond>
1.6746

> <Gold.Chemscore.Metal>
0.0000

> <Gold.Chemscore.Lipo>
131.6066

> <Gold.Chemscore.Internal_Hbond>
0.0000

> <Gold.Chemscore.DEClash>
0.0339

> <Gold.Chemscore.DEInternal>
1.1696

> <Gold.Chemscore.Rot>
2.3236

> <Gold.Chemscore.Internal.Correction>
   9.000000E+99

> <Gold.Chemscore.Hbonds>
donor molecule, donor type, donor heavy atom, donor atom, acceptor molecule, acceptor atom, score
      P1  H  6896  6907       L1    19  0.13
      P1  H  6896  6909       L1     9  0.38

> <Gold.Chemscore.Hbond.Weighted>
-5.5933

> <Gold.Chemscore.Metal.Weighted>
-0.0000

> <Gold.Chemscore.Lipo.Weighted>
-15.3980

> <Gold.Chemscore.Internal_Hbond.Weighted>
0.0000

> <Gold.Chemscore.DEClash.Weighted>
0.0339

> <Gold.Chemscore.DEInternal.Weighted>
1.1696

> <Gold.Chemscore.Rot.Weighted>
5.9484

> <Gold.Chemscore.Internal.Correction.Weighted>
   9.000000E+99

> <Gold.Protein.RotatedTorsions>
[ 6907 6896 6895 6894 ] final   98.82 input  -60.11 | X-H torsion
[ 7974 7965 7964 7962 ] final    2.78 input  175.53 | X-H torsion
[ 8008 7997 7996 7995 ] final  -60.44 input   59.86 | X-H torsion
[ 10167 10162 10161 10158 ] final  -94.28 input  -65.29 | X-H torsion
[ 10718 10713 10712 10709 ] final -126.26 input   66.30 | X-H torsion
[ 10763 10752 10751 10750 ] final   29.86 input  -60.55 | X-H torsion
[ 11005 11000 10999 10996 ] final -137.24 input  -57.11 | X-H torsion

> <Gold.Protein.ActiveResidues>
 VAL166  LYS551  ARG553  GLY616  TRP617  ASP618  TYR619  PRO620  LYS621  CYS622 
 ASP623  PHE694  ASN695  SER759  ASP760  ASP761  ALA762  ILE779  LEU786  VAL792 
 PHE793  MET794  SER795  GLU796  ALA797  LYS798  CYS799  TRP800  GLU811  SER814 

> <Gold.Protein.RotatedAtoms>
  152.5403  134.0523  159.8114 H   0  0  0  0  0  0  0  0  0  0  0  0  # atno 6907 bound_to 6896
  151.0662  133.5495  159.2637 H   0  0  0  0  0  0  0  0  0  0  0  0  # atno 6908 bound_to 6896
  151.2375  135.0585  159.9066 H   0  0  0  0  0  0  0  0  0  0  0  0  # atno 6909 bound_to 6896
  146.2444  140.0785  142.8358 H   0  0  0  0  0  0  0  0  0  0  0  0  # atno 7974 bound_to 7965
  154.4399  140.1039  156.6273 H   0  0  0  0  0  0  0  0  0  0  0  0  # atno 8008 bound_to 7997
  155.5642  140.3488  155.4480 H   0  0  0  0  0  0  0  0  0  0  0  0  # atno 8009 bound_to 7997
  156.0437  140.1288  157.0116 H   0  0  0  0  0  0  0  0  0  0  0  0  # atno 8010 bound_to 7997
  140.3160  143.3076  152.0097 H   0  0  0  0  0  0  0  0  0  0  0  0  # atno 10167 bound_to 10162
  156.1749  130.6692  151.0228 H   0  0  0  0  0  0  0  0  0  0  0  0  # atno 10718 bound_to 10713
  153.0405  135.6478  154.0955 H   0  0  0  0  0  0  0  0  0  0  0  0  # atno 10763 bound_to 10752
  154.0662  135.2884  155.3317 H   0  0  0  0  0  0  0  0  0  0  0  0  # atno 10764 bound_to 10752
  154.6624  135.5386  153.8100 H   0  0  0  0  0  0  0  0  0  0  0  0  # atno 10765 bound_to 10752
  140.8730  134.2027  157.4639 H   0  0  0  0  0  0  0  0  0  0  0  0  # atno 11005 bound_to 11000
  145.0754  140.9184  143.4857 LP  0  0  0  0  0  0  0  0  0  0  0  0  # atno 17320 bound_to 7965
  145.0927  139.2879  143.5727 LP  0  0  0  0  0  0  0  0  0  0  0  0  # atno 17321 bound_to 7965
  139.4884  144.6347  151.6998 LP  0  0  0  0  0  0  0  0  0  0  0  0  # atno 17342 bound_to 10162
  140.5525  144.0401  150.6133 LP  0  0  0  0  0  0  0  0  0  0  0  0  # atno 17343 bound_to 10162
  157.6828  131.0833  150.7323 LP  0  0  0  0  0  0  0  0  0  0  0  0  # atno 17370 bound_to 10713
  156.7381  130.4730  149.5484 LP  0  0  0  0  0  0  0  0  0  0  0  0  # atno 17371 bound_to 10713
  139.8713  134.9783  156.4991 LP  0  0  0  0  0  0  0  0  0  0  0  0  # atno 17394 bound_to 11000
  140.8551  133.8102  155.9208 LP  0  0  0  0  0  0  0  0  0  0  0  0  # atno 17395 bound_to 11000

$$$$
