AV-unprocessed.smi:2585|AV-procd|sdf|10144|dock2
  -GOLD-   2272014153D 1   1.00000     0.00000
 Structure written by MMmdl.
 34 35  0  0  0  0  0  0  0  0  1 V2000
  153.9268  141.8207  160.4971 C   0  0  0  0  0  0  0  0  0  0  0  0
  152.8944  142.6190  159.7587 C   0  0  0  0  0  0  0  0  0  0  0  0
  152.6633  143.8667  160.1102 N   0  0  0  0  0  0  0  0  0  0  0  0
  151.4700  144.5130  159.1208 S   0  0  0  0  0  0  0  0  0  0  0  0
  151.2364  143.0718  158.1692 C   0  0  0  0  0  0  0  0  0  0  0  0
  150.3684  142.9000  157.1385 N   0  0  0  0  0  0  0  0  0  0  0  0
  149.7915  141.7664  156.7041 C   0  0  0  0  0  0  0  0  0  0  0  0
  149.9670  140.6485  157.1878 O   0  0  0  0  0  0  0  0  0  0  0  0
  148.9865  142.0133  155.6569 N   0  0  0  0  0  0  0  0  0  0  0  0
  148.1755  141.0631  154.8802 C   0  0  0  0  0  0  0  0  0  0  0  0
  149.0647  139.9093  154.3681 C   0  0  0  0  0  0  0  0  0  0  0  0
  147.0909  140.4907  155.8186 C   0  0  0  0  0  0  0  0  0  0  0  0
  146.0396  141.5488  156.2044 C   0  0  0  0  0  0  0  0  0  0  0  0
  145.4464  142.0980  155.0337 O   0  0  0  0  0  0  0  0  0  0  0  0
  146.3859  142.7601  154.1953 C   0  0  0  0  0  0  0  0  0  0  0  0
  147.4458  141.7577  153.7044 C   0  0  0  0  0  0  0  0  0  0  0  0
  152.1045  142.1371  158.6644 C   0  0  0  0  0  0  0  0  0  0  0  0
  152.2926  140.5426  158.0972 Cl  0  0  0  0  0  0  0  0  0  0  0  0
  153.4899  140.9216  160.9320 H   0  0  0  0  0  0  0  0  0  0  0  0
  154.3784  142.3908  161.3103 H   0  0  0  0  0  0  0  0  0  0  0  0
  154.7315  141.5085  159.8308 H   0  0  0  0  0  0  0  0  0  0  0  0
  150.1258  143.7423  156.6378 H   0  0  0  0  0  0  0  0  0  0  0  0
  148.9275  142.9745  155.3538 H   0  0  0  0  0  0  0  0  0  0  0  0
  148.4695  139.1431  153.8701 H   0  0  0  0  0  0  0  0  0  0  0  0
  149.5981  139.4263  155.1877 H   0  0  0  0  0  0  0  0  0  0  0  0
  149.8070  140.2524  153.6474 H   0  0  0  0  0  0  0  0  0  0  0  0
  146.5794  139.6630  155.3250 H   0  0  0  0  0  0  0  0  0  0  0  0
  147.5447  140.0722  156.7181 H   0  0  0  0  0  0  0  0  0  0  0  0
  145.2573  141.0916  156.8103 H   0  0  0  0  0  0  0  0  0  0  0  0
  146.4802  142.3436  156.8082 H   0  0  0  0  0  0  0  0  0  0  0  0
  145.8544  143.1861  153.3444 H   0  0  0  0  0  0  0  0  0  0  0  0
  146.8464  143.5929  154.7289 H   0  0  0  0  0  0  0  0  0  0  0  0
  148.1481  142.2560  153.0365 H   0  0  0  0  0  0  0  0  0  0  0  0
  146.9471  141.0030  153.0947 H   0  0  0  0  0  0  0  0  0  0  0  0
  1  2  1  0  0  0  0
  1 19  1  0  0  0  0
  1 20  1  0  0  0  0
  1 21  1  0  0  0  0
  2 17  1  0  0  0  0
  2  3  2  0  0  0  0
  3  4  1  0  0  0  0
  4  5  1  0  0  0  0
  5  6  1  0  0  0  0
  5 17  2  0  0  0  0
  6  7  1  0  0  0  0
  6 22  1  0  0  0  0
  7  8  2  0  0  0  0
  7  9  1  0  0  0  0
  9 10  1  0  0  0  0
  9 23  1  0  0  0  0
 10 16  1  0  0  0  0
 10 11  1  0  0  0  0
 10 12  1  0  0  0  0
 11 24  1  0  0  0  0
 11 25  1  0  0  0  0
 11 26  1  0  0  0  0
 12 13  1  0  0  0  0
 12 27  1  0  0  0  0
 12 28  1  0  0  0  0
 13 14  1  0  0  0  0
 13 29  1  0  0  0  0
 13 30  1  0  0  0  0
 14 15  1  0  0  0  0
 15 16  1  0  0  0  0
 15 31  1  0  0  0  0
 15 32  1  0  0  0  0
 16 33  1  0  0  0  0
 16 34  1  0  0  0  0
 17 18  1  0  0  0  0
M  END
> <s_m_source_file>
AV-unprocessed.smi

> <i_m_source_file_index>
2585

> <i_lp_mmshare_version>
43012

> <i_f3d_flags>
0

> <s_epik_input>
W0NIM11jMW5zYyhjMUNsKVtOSF1DKD1PKVtOSF1DMihbQ0gzXSlbQ0gyXVtDSDJdT1tDSDJdW0NIMl0y

> <s_epik_cmdline>
J2VwaWtfcHl0aG9uJywgJy1waCcsICc3LjAnLCAnLXRuJywgJzgnLCAnLW1hJywgJzIwMCcsICctbWV0YWxfYmluZGluZycsICctaW1hZScsICc8aW5maWxlLm1hZT4nLCAnLW9tYWUnLCAnPG91dGZpbGUubWFlPic=

> <r_lp_tautomer_probability>
1

> <r_epik_Ionization_Penalty>
3.55893e-05

> <r_epik_Ionization_Penalty_Charging>
0

> <r_epik_Ionization_Penalty_Neutral>
3.55893e-05

> <r_epik_State_Penalty>
-0

> <r_epik_Charging_Adjusted_Penalty>
0

> <i_epik_Tot_Q>
0

> <i_epik_Tot_abs_Q>
0

> <r_epik_Metal_State_Penalty>
-0

> <b_epik_Metal_Only>
0

> <s_lp_Force_Field>
OPLS_2005

> <r_lp_Energy>
7.47922

> <b_lp_Chiralities_Consistent>
1

> <s_lp_Variant>
AV-unprocessed.smi:2585-1

> <Gold.Version>
5.8.1

> <Gold.Id.Protein>
6NUR|6NUR_protein|mol2

> <Gold.PLP.Fitness>
40.6835

> <Gold.PLP.PLP>
-35.1196

> <Gold.PLP.part.hbond>
-2.0000

> <Gold.PLP.part.metal>
0.0000

> <Gold.PLP.part.buried>
-6.6333

> <Gold.PLP.part.nonpolar>
-27.6042

> <Gold.PLP.part.repulsive>
0.3528

> <Gold.PLP.ligand.clash>
0.0271

> <Gold.PLP.ligand.torsion>
0.1961

> <Gold.PLP.Chemscore.Hbond>
1.9920

> <Gold.PLP.Chemscore.CHOScore>
0.0000

> <Gold.PLP.Chemscore.Metal>
0.0000

> <Gold.Chemscore.Hbonds>
donor molecule, donor type, donor heavy atom, donor atom, acceptor molecule, acceptor atom, score
      L1  H     6    22       P1  8028  1.00
      L1  H     9    23       P1  8028  1.00

> <Gold.PLP.Chemscore.Internal.Correction>
0.0072

> <Gold.Rescore>
     Score         DG    S(hbond)    S(metal)    S(lipo)     H(rot)  DE(clash)    DE(int)     intcor
     17.78     -19.45       1.94        0.00      85.87       1.00       0.04       1.63       ----

> <Gold.Chemscore.Fitness>
17.7839

> <Gold.Chemscore.DG>
-19.4526

> <Gold.Chemscore.ZeroCoef>
-5.4800

> <Gold.Chemscore.Hbond>
1.9420

> <Gold.Chemscore.Metal>
0.0000

> <Gold.Chemscore.Lipo>
85.8668

> <Gold.Chemscore.Internal_Hbond>
0.0000

> <Gold.Chemscore.DEClash>
0.0408

> <Gold.Chemscore.DEInternal>
1.6279

> <Gold.Chemscore.Rot>
1.0000

> <Gold.Chemscore.Internal.Correction>
   9.000000E+99

> <Gold.Chemscore.Hbonds>
donor molecule, donor type, donor heavy atom, donor atom, acceptor molecule, acceptor atom, score
      L1  H     6    22       P1  8028  0.94
      L1  H     9    23       P1  8028  0.97

> <Gold.Chemscore.Hbond.Weighted>
-6.4861

> <Gold.Chemscore.Metal.Weighted>
-0.0000

> <Gold.Chemscore.Lipo.Weighted>
-10.0464

> <Gold.Chemscore.Internal_Hbond.Weighted>
0.0000

> <Gold.Chemscore.DEClash.Weighted>
0.0408

> <Gold.Chemscore.DEInternal.Weighted>
1.6279

> <Gold.Chemscore.Rot.Weighted>
2.5600

> <Gold.Chemscore.Internal.Correction.Weighted>
   9.000000E+99

> <Gold.Protein.RotatedTorsions>
[ 6907 6896 6895 6894 ] final  128.23 input  -60.11 | X-H torsion
[ 7974 7965 7964 7962 ] final   14.27 input  175.53 | X-H torsion
[ 8008 7997 7996 7995 ] final   76.29 input   59.86 | X-H torsion
[ 10167 10162 10161 10158 ] final  -20.45 input  -65.29 | X-H torsion
[ 10718 10713 10712 10709 ] final  -96.67 input   66.30 | X-H torsion
[ 10763 10752 10751 10750 ] final    5.40 input  -60.55 | X-H torsion
[ 11005 11000 10999 10996 ] final -174.02 input  -57.11 | X-H torsion

> <Gold.Protein.ActiveResidues>
 VAL166  LYS551  ARG553  GLY616  TRP617  ASP618  TYR619  PRO620  LYS621  CYS622 
 ASP623  PHE694  ASN695  SER759  ASP760  ASP761  ALA762  ILE779  LEU786  VAL792 
 PHE793  MET794  SER795  GLU796  ALA797  LYS798  CYS799  TRP800  GLU811  SER814 

> <Gold.Protein.RotatedAtoms>
  152.3738  133.6454  159.6107 H   0  0  0  0  0  0  0  0  0  0  0  0  # atno 6907 bound_to 6896
  150.7689  133.9226  159.3411 H   0  0  0  0  0  0  0  0  0  0  0  0  # atno 6908 bound_to 6896
  151.7044  135.0925  160.0308 H   0  0  0  0  0  0  0  0  0  0  0  0  # atno 6909 bound_to 6896
  146.2309  139.9066  142.8531 H   0  0  0  0  0  0  0  0  0  0  0  0  # atno 7974 bound_to 7965
  155.8253  140.3468  155.5539 H   0  0  0  0  0  0  0  0  0  0  0  0  # atno 8008 bound_to 7997
  155.8299  140.0925  157.1818 H   0  0  0  0  0  0  0  0  0  0  0  0  # atno 8009 bound_to 7997
  154.4004  140.1414  156.3589 H   0  0  0  0  0  0  0  0  0  0  0  0  # atno 8010 bound_to 7997
  140.7276  143.4722  151.0232 H   0  0  0  0  0  0  0  0  0  0  0  0  # atno 10167 bound_to 10162
  156.0067  130.5161  150.6260 H   0  0  0  0  0  0  0  0  0  0  0  0  # atno 10718 bound_to 10713
  153.2598  135.6922  153.7590 H   0  0  0  0  0  0  0  0  0  0  0  0  # atno 10763 bound_to 10752
  153.6654  135.3353  155.3139 H   0  0  0  0  0  0  0  0  0  0  0  0  # atno 10764 bound_to 10752
  154.8426  135.4487  154.1584 H   0  0  0  0  0  0  0  0  0  0  0  0  # atno 10765 bound_to 10752
  140.4792  134.6091  157.4913 H   0  0  0  0  0  0  0  0  0  0  0  0  # atno 11005 bound_to 11000
  145.2271  140.9958  143.4012 LP  0  0  0  0  0  0  0  0  0  0  0  0  # atno 17320 bound_to 7965
  144.9561  139.4029  143.6378 LP  0  0  0  0  0  0  0  0  0  0  0  0  # atno 17321 bound_to 7965
  139.8414  143.7558  152.3180 LP  0  0  0  0  0  0  0  0  0  0  0  0  # atno 17342 bound_to 10162
  139.7708  144.7477  151.0227 LP  0  0  0  0  0  0  0  0  0  0  0  0  # atno 17343 bound_to 10162
  157.4067  131.0818  151.1259 LP  0  0  0  0  0  0  0  0  0  0  0  0  # atno 17370 bound_to 10713
  157.1903  130.6349  149.5702 LP  0  0  0  0  0  0  0  0  0  0  0  0  # atno 17371 bound_to 10713
  139.9837  134.7096  155.9813 LP  0  0  0  0  0  0  0  0  0  0  0  0  # atno 17394 bound_to 11000
  141.1539  133.6545  156.4100 LP  0  0  0  0  0  0  0  0  0  0  0  0  # atno 17395 bound_to 11000

$$$$
