AV-unprocessed.smi:525|AV-procd|sdf|2808|dock7
  -GOLD-   2262023283D 1   1.00000     0.00000
 Structure written by MMmdl.
 43 45  0  0  0  0  0  0  0  0  1 V2000
  149.8433  134.5942  155.0366 C   0  0  0  0  0  0  0  0  0  0  0  0
  148.4618  134.6796  155.3501 O   0  0  0  0  0  0  0  0  0  0  0  0
  148.1917  135.4208  156.5312 C   0  0  0  0  0  0  0  0  0  0  0  0
  148.9664  134.8776  157.7448 C   0  0  0  0  0  0  0  0  0  0  0  0
  148.5989  135.5579  158.9793 N   0  0  0  0  0  0  0  0  0  0  0  0
  148.6770  136.8803  159.2743 C   0  0  0  0  0  0  0  0  0  0  0  0
  149.2815  138.0604  158.1031 S   0  0  0  0  0  0  0  0  0  0  0  0
  150.8117  138.6105  158.9351 C   0  0  1  0  0  0  0  0  0  0  0  0
  152.0288  137.7112  158.6663 C   0  0  0  0  0  0  0  0  0  0  0  0
  153.1869  138.0796  159.2201 N   0  0  0  0  0  0  0  0  0  0  0  0
  151.9306  136.6995  157.9748 O   0  0  0  0  0  0  0  0  0  0  0  0
  151.1259  140.0443  158.5212 C   0  0  0  0  0  0  0  0  0  0  0  0
  150.5703  140.6002  157.3454 C   0  0  0  0  0  0  0  0  0  0  0  0
  150.8663  141.9264  156.9757 C   0  0  0  0  0  0  0  0  0  0  0  0
  151.7190  142.7077  157.7782 C   0  0  0  0  0  0  0  0  0  0  0  0
  152.2764  142.1614  158.9499 C   0  0  0  0  0  0  0  0  0  0  0  0
  151.9807  140.8350  159.3203 C   0  0  0  0  0  0  0  0  0  0  0  0
  148.2502  137.2210  160.4924 N   0  0  0  0  0  0  0  0  0  0  0  0
  147.8809  136.0103  161.0416 C   0  0  0  0  0  0  0  0  0  0  0  0
  147.3576  135.7012  162.3176 C   0  0  0  0  0  0  0  0  0  0  0  0
  147.0502  134.3675  162.6583 C   0  0  0  0  0  0  0  0  0  0  0  0
  147.2598  133.3272  161.7299 C   0  0  0  0  0  0  0  0  0  0  0  0
  147.7794  133.6148  160.4531 C   0  0  0  0  0  0  0  0  0  0  0  0
  148.0859  134.9475  160.1190 C   0  0  0  0  0  0  0  0  0  0  0  0
  149.9785  133.9887  154.1405 H   0  0  0  0  0  0  0  0  0  0  0  0
  150.4151  134.1305  155.8402 H   0  0  0  0  0  0  0  0  0  0  0  0
  150.2617  135.5815  154.8384 H   0  0  0  0  0  0  0  0  0  0  0  0
  148.3966  136.4821  156.3820 H   0  0  0  0  0  0  0  0  0  0  0  0
  147.1224  135.3452  156.7301 H   0  0  0  0  0  0  0  0  0  0  0  0
  148.8263  133.8031  157.8553 H   0  0  0  0  0  0  0  0  0  0  0  0
  150.0355  135.0216  157.5859 H   0  0  0  0  0  0  0  0  0  0  0  0
  150.6094  138.6075  160.0071 H   0  0  0  0  0  0  0  0  0  0  0  0
  154.0166  137.5240  159.0710 H   0  0  0  0  0  0  0  0  0  0  0  0
  153.2279  138.9160  159.7842 H   0  0  0  0  0  0  0  0  0  0  0  0
  149.9151  140.0093  156.7219 H   0  0  0  0  0  0  0  0  0  0  0  0
  150.4387  142.3439  156.0761 H   0  0  0  0  0  0  0  0  0  0  0  0
  151.9459  143.7247  157.4948 H   0  0  0  0  0  0  0  0  0  0  0  0
  152.9320  142.7601  159.5651 H   0  0  0  0  0  0  0  0  0  0  0  0
  152.4153  140.4274  160.2211 H   0  0  0  0  0  0  0  0  0  0  0  0
  147.1930  136.4910  163.0355 H   0  0  0  0  0  0  0  0  0  0  0  0
  146.6517  134.1417  163.6365 H   0  0  0  0  0  0  0  0  0  0  0  0
  147.0220  132.3083  161.9982 H   0  0  0  0  0  0  0  0  0  0  0  0
  147.9423  132.8206  159.7399 H   0  0  0  0  0  0  0  0  0  0  0  0
  1  2  1  0  0  0  0
  1 25  1  0  0  0  0
  1 26  1  0  0  0  0
  1 27  1  0  0  0  0
  2  3  1  0  0  0  0
  3  4  1  0  0  0  0
  3 28  1  0  0  0  0
  3 29  1  0  0  0  0
  4  5  1  0  0  0  0
  4 30  1  0  0  0  0
  4 31  1  0  0  0  0
  5 24  1  0  0  0  0
  5  6  1  0  0  0  0
  6  7  1  0  0  0  0
  6 18  2  0  0  0  0
  7  8  1  0  0  0  0
  8  9  1  0  0  0  0
  8 12  1  0  0  0  0
  8 32  1  0  0  0  0
  9 10  1  0  0  0  0
  9 11  2  0  0  0  0
 10 33  1  0  0  0  0
 10 34  1  0  0  0  0
 12 17  1  0  0  0  0
 12 13  2  0  0  0  0
 13 14  1  0  0  0  0
 13 35  1  0  0  0  0
 14 15  2  0  0  0  0
 14 36  1  0  0  0  0
 15 16  1  0  0  0  0
 15 37  1  0  0  0  0
 16 17  2  0  0  0  0
 16 38  1  0  0  0  0
 17 39  1  0  0  0  0
 18 19  1  0  0  0  0
 19 24  2  0  0  0  0
 19 20  1  0  0  0  0
 20 21  2  0  0  0  0
 20 40  1  0  0  0  0
 21 22  1  0  0  0  0
 21 41  1  0  0  0  0
 22 23  2  0  0  0  0
 22 42  1  0  0  0  0
 23 24  1  0  0  0  0
 23 43  1  0  0  0  0
M  END
> <s_m_source_file>
AV-unprocessed.smi

> <i_m_source_file_index>
525

> <i_lp_mmshare_version>
43012

> <i_f3d_flags>
0

> <s_epik_input>
W2NIXTFbY0hdW2NIXVtjSF1jKGMxMiluKFtDSDJdW0NIMl1PW0NIM10pYyhuMilTW0NASF0oQyg9TylbTkgyXSljM1tjSF1bY0hdW2NIXVtjSF1bY0hdMw==

> <s_epik_cmdline>
J2VwaWtfcHl0aG9uJywgJy1waCcsICc3LjAnLCAnLXRuJywgJzgnLCAnLW1hJywgJzIwMCcsICctbWV0YWxfYmluZGluZycsICctaW1hZScsICc8aW5maWxlLm1hZT4nLCAnLW9tYWUnLCAnPG91dGZpbGUubWFlPic=

> <r_epik_Ionization_Penalty>
0.0706634

> <r_epik_Ionization_Penalty_Charging>
0

> <r_epik_Ionization_Penalty_Neutral>
0.0706634

> <r_epik_State_Penalty>
0.0619781

> <r_epik_Charging_Adjusted_Penalty>
0.0619781

> <i_epik_Tot_Q>
0

> <i_epik_Tot_abs_Q>
0

> <r_epik_Metal_State_Penalty>
0.0552401

> <b_epik_Metal_Only>
0

> <s_lp_Force_Field>
OPLS_2005

> <r_lp_Energy>
10.3034

> <b_lp_Chiralities_Consistent>
1

> <s_lp_Variant>
AV-unprocessed.smi:525-2

> <Gold.Version>
5.8.1

> <Gold.Id.Protein>
6NUR|6NUR_protein|mol2

> <Gold.PLP.Fitness>
42.5537

> <Gold.PLP.PLP>
-40.4183

> <Gold.PLP.part.hbond>
-2.2128

> <Gold.PLP.part.metal>
0.0000

> <Gold.PLP.part.buried>
-5.8292

> <Gold.PLP.part.nonpolar>
-32.5540

> <Gold.PLP.part.repulsive>
0.1530

> <Gold.PLP.ligand.clash>
0.0000

> <Gold.PLP.ligand.torsion>
0.8449

> <Gold.PLP.Chemscore.Hbond>
1.2096

> <Gold.PLP.Chemscore.CHOScore>
0.0000

> <Gold.PLP.Chemscore.Metal>
0.0000

> <Gold.Chemscore.Hbonds>
donor molecule, donor type, donor heavy atom, donor atom, acceptor molecule, acceptor atom, score
      P1  H  6931  6943       L1    18  0.74
      P1  H  6934  6947       L1    18  0.48

> <Gold.PLP.Chemscore.Internal.Correction>
0.1965

> <Gold.Rescore>
     Score         DG    S(hbond)    S(metal)    S(lipo)     H(rot)  DE(clash)    DE(int)     intcor
     14.40     -15.47       1.26        0.00     102.78       2.44       0.09       0.97       ----

> <Gold.Chemscore.Fitness>
14.4040

> <Gold.Chemscore.DG>
-15.4659

> <Gold.Chemscore.ZeroCoef>
-5.4800

> <Gold.Chemscore.Hbond>
1.2593

> <Gold.Chemscore.Metal>
0.0000

> <Gold.Chemscore.Lipo>
102.7797

> <Gold.Chemscore.Internal_Hbond>
0.0000

> <Gold.Chemscore.DEClash>
0.0930

> <Gold.Chemscore.DEInternal>
0.9689

> <Gold.Chemscore.Rot>
2.4396

> <Gold.Chemscore.Internal.Correction>
   9.000000E+99

> <Gold.Chemscore.Hbonds>
donor molecule, donor type, donor heavy atom, donor atom, acceptor molecule, acceptor atom, score
      P1  H  6931  6943       L1    18  0.48
      P1  H  6934  6947       L1    18  0.47

> <Gold.Chemscore.Hbond.Weighted>
-4.2061

> <Gold.Chemscore.Metal.Weighted>
-0.0000

> <Gold.Chemscore.Lipo.Weighted>
-12.0252

> <Gold.Chemscore.Internal_Hbond.Weighted>
0.0000

> <Gold.Chemscore.DEClash.Weighted>
0.0930

> <Gold.Chemscore.DEInternal.Weighted>
0.9689

> <Gold.Chemscore.Rot.Weighted>
6.2454

> <Gold.Chemscore.Internal.Correction.Weighted>
   9.000000E+99

> <Gold.Protein.RotatedTorsions>
[ 6907 6896 6895 6894 ] final  130.82 input  -60.11 | X-H torsion
[ 7974 7965 7964 7962 ] final  104.52 input  175.53 | X-H torsion
[ 8008 7997 7996 7995 ] final  -71.53 input   59.86 | X-H torsion
[ 10167 10162 10161 10158 ] final  170.50 input  -65.29 | X-H torsion
[ 10718 10713 10712 10709 ] final -160.52 input   66.30 | X-H torsion
[ 10763 10752 10751 10750 ] final -119.20 input  -60.55 | X-H torsion
[ 11005 11000 10999 10996 ] final -130.19 input  -57.11 | X-H torsion

> <Gold.Protein.ActiveResidues>
 VAL166  LYS551  ARG553  GLY616  TRP617  ASP618  TYR619  PRO620  LYS621  CYS622 
 ASP623  PHE694  ASN695  SER759  ASP760  ASP761  ALA762  ILE779  LEU786  VAL792 
 PHE793  MET794  SER795  GLU796  ALA797  LYS798  CYS799  TRP800  GLU811  SER814 

> <Gold.Protein.RotatedAtoms>
  152.3488  133.6154  159.5929 H   0  0  0  0  0  0  0  0  0  0  0  0  # atno 6907 bound_to 6896
  150.7524  133.9607  159.3523 H   0  0  0  0  0  0  0  0  0  0  0  0  # atno 6908 bound_to 6896
  151.7462  135.0844  160.0374 H   0  0  0  0  0  0  0  0  0  0  0  0  # atno 6909 bound_to 6896
  145.3317  139.2485  143.3657 H   0  0  0  0  0  0  0  0  0  0  0  0  # atno 7974 bound_to 7965
  154.5095  140.0814  156.7961 H   0  0  0  0  0  0  0  0  0  0  0  0  # atno 8008 bound_to 7997
  155.3818  140.3428  155.4229 H   0  0  0  0  0  0  0  0  0  0  0  0  # atno 8009 bound_to 7997
  156.1556  140.1572  156.8686 H   0  0  0  0  0  0  0  0  0  0  0  0  # atno 8010 bound_to 7997
  139.5020  144.3590  151.9844 H   0  0  0  0  0  0  0  0  0  0  0  0  # atno 10167 bound_to 10162
  156.5833  130.8739  151.2870 H   0  0  0  0  0  0  0  0  0  0  0  0  # atno 10718 bound_to 10713
  154.8610  135.4246  154.2261 H   0  0  0  0  0  0  0  0  0  0  0  0  # atno 10763 bound_to 10752
  153.3256  135.6985  153.6998 H   0  0  0  0  0  0  0  0  0  0  0  0  # atno 10764 bound_to 10752
  153.6035  135.3532  155.2927 H   0  0  0  0  0  0  0  0  0  0  0  0  # atno 10765 bound_to 10752
  140.9367  134.1247  157.4187 H   0  0  0  0  0  0  0  0  0  0  0  0  # atno 11005 bound_to 11000
  146.3043  140.3896  142.8693 LP  0  0  0  0  0  0  0  0  0  0  0  0  # atno 17320 bound_to 7965
  144.8859  140.7461  143.5957 LP  0  0  0  0  0  0  0  0  0  0  0  0  # atno 17321 bound_to 7965
  140.3026  144.3629  150.6056 LP  0  0  0  0  0  0  0  0  0  0  0  0  # atno 17342 bound_to 10162
  140.5861  143.2170  151.7339 LP  0  0  0  0  0  0  0  0  0  0  0  0  # atno 17343 bound_to 10162
  157.7321  130.9710  150.1913 LP  0  0  0  0  0  0  0  0  0  0  0  0  # atno 17370 bound_to 10713
  156.2612  130.3711  149.8128 LP  0  0  0  0  0  0  0  0  0  0  0  0  # atno 17371 bound_to 10713
  139.8809  135.0023  156.6119 LP  0  0  0  0  0  0  0  0  0  0  0  0  # atno 17394 bound_to 11000
  140.7789  133.8676  155.8552 LP  0  0  0  0  0  0  0  0  0  0  0  0  # atno 17395 bound_to 11000

$$$$
