AV-unprocessed.smi:37|AV-procd|sdf|334|dock8
  -GOLD-   2262016173D 1   1.00000     0.00000
 Structure written by MMmdl.
 43 44  0  0  0  0  0  0  0  0  2 V2000
  146.4971  142.3642  155.4526 C   0  0  0  0  0  0  0  0  0  0  0  0
  147.3637  141.8640  154.2873 C   0  0  0  0  0  0  0  0  0  0  0  0
  148.7895  141.4902  154.6983 C   0  0  0  0  0  0  0  0  0  0  0  0
  149.6138  141.0459  153.8969 O   0  0  0  0  0  0  0  0  0  0  0  0
  149.0072  141.7077  156.0037 O   0  0  0  0  0  0  0  0  0  0  0  0
  150.3348  141.7123  156.5056 C   0  0  0  0  0  0  0  0  0  0  0  0
  150.6274  140.4087  157.2609 C   0  0  1  0  0  0  0  0  0  0  0  0
  150.3114  139.2658  156.4669 O   0  0  0  0  0  0  0  0  0  0  0  0
  151.3857  138.3728  156.4880 C   0  0  2  0  0  0  0  0  0  0  0  0
  150.8800  136.9487  156.5042 N   0  0  0  0  0  0  0  0  0  0  0  0
  149.5351  136.6597  156.3413 C   0  0  0  0  0  0  0  0  0  0  0  0
  149.0877  135.3875  156.3586 C   0  0  0  0  0  0  0  0  0  0  0  0
  147.7762  135.1379  156.2034 F   0  0  0  0  0  0  0  0  0  0  0  0
  150.0342  134.2900  156.5497 C   0  0  0  0  0  0  0  0  0  0  0  0
  149.6207  133.1316  156.5590 O   0  0  0  0  0  0  0  0  0  0  0  0
  151.3520  134.6052  156.7115 N   0  5  0  0  0  0  0  0  0  0  0  0
  151.8092  135.8916  156.6980 C   0  0  0  0  0  0  0  0  0  0  0  0
  152.9947  136.1883  156.8480 O   0  0  0  0  0  0  0  0  0  0  0  0
  152.2244  138.7226  157.7228 C   0  0  2  0  0  0  0  0  0  0  0  0
  151.4402  137.9611  159.3994 Br  0  0  0  0  0  0  0  0  0  0  0  0
  152.0827  140.2350  157.7122 C   0  0  2  0  0  0  0  0  0  0  0  0
  152.3169  140.8281  158.9827 O   0  0  0  0  0  0  0  0  0  0  0  0
  153.5005  140.6620  159.5993 C   0  0  0  0  0  0  0  0  0  0  0  0
  154.4161  139.9311  159.2211 O   0  0  0  0  0  0  0  0  0  0  0  0
  153.6177  141.4858  160.8795 C   0  0  0  0  0  0  0  0  0  0  0  0
  152.8009  142.7833  160.8106 C   0  0  0  0  0  0  0  0  0  0  0  0
  145.4989  142.6267  155.1018 H   0  0  0  0  0  0  0  0  0  0  0  0
  146.9276  143.2528  155.9158 H   0  0  0  0  0  0  0  0  0  0  0  0
  146.3853  141.6006  156.2232 H   0  0  0  0  0  0  0  0  0  0  0  0
  146.8962  140.9907  153.8320 H   0  0  0  0  0  0  0  0  0  0  0  0
  147.4167  142.6314  153.5148 H   0  0  0  0  0  0  0  0  0  0  0  0
  151.0378  141.8140  155.6773 H   0  0  0  0  0  0  0  0  0  0  0  0
  150.4786  142.5707  157.1628 H   0  0  0  0  0  0  0  0  0  0  0  0
  149.9744  140.3567  158.1334 H   0  0  0  0  0  0  0  0  0  0  0  0
  151.9359  138.4889  155.5520 H   0  0  0  0  0  0  0  0  0  0  0  0
  148.8196  137.4568  156.2071 H   0  0  0  0  0  0  0  0  0  0  0  0
  153.2530  138.3741  157.6247 H   0  0  0  0  0  0  0  0  0  0  0  0
  152.7476  140.6512  156.9539 H   0  0  0  0  0  0  0  0  0  0  0  0
  153.2861  140.8782  161.7217 H   0  0  0  0  0  0  0  0  0  0  0  0
  154.6685  141.7197  161.0526 H   0  0  0  0  0  0  0  0  0  0  0  0
  152.9415  143.3733  161.7162 H   0  0  0  0  0  0  0  0  0  0  0  0
  151.7338  142.5796  160.7137 H   0  0  0  0  0  0  0  0  0  0  0  0
  153.1049  143.3999  159.9640 H   0  0  0  0  0  0  0  0  0  0  0  0
  1  2  1  0  0  0  0
  1 27  1  0  0  0  0
  1 28  1  0  0  0  0
  1 29  1  0  0  0  0
  2  3  1  0  0  0  0
  2 30  1  0  0  0  0
  2 31  1  0  0  0  0
  3  4  2  0  0  0  0
  3  5  1  0  0  0  0
  5  6  1  0  0  0  0
  6  7  1  0  0  0  0
  6 32  1  0  0  0  0
  6 33  1  0  0  0  0
  7 21  1  0  0  0  0
  7  8  1  0  0  0  0
  7 34  1  0  0  0  0
  8  9  1  0  0  0  0
  9 10  1  0  0  0  0
  9 19  1  0  0  0  0
  9 35  1  0  0  0  0
 10 17  1  0  0  0  0
 10 11  1  0  0  0  0
 11 12  2  0  0  0  0
 11 36  1  0  0  0  0
 12 13  1  0  0  0  0
 12 14  1  0  0  0  0
 14 15  2  0  0  0  0
 14 16  1  0  0  0  0
 16 17  1  0  0  0  0
 17 18  2  0  0  0  0
 19 20  1  0  0  0  0
 19 21  1  0  0  0  0
 19 37  1  0  0  0  0
 21 22  1  0  0  0  0
 21 38  1  0  0  0  0
 22 23  1  0  0  0  0
 23 24  2  0  0  0  0
 23 25  1  0  0  0  0
 25 26  1  0  0  0  0
 25 39  1  0  0  0  0
 25 40  1  0  0  0  0
 26 41  1  0  0  0  0
 26 42  1  0  0  0  0
 26 43  1  0  0  0  0
M  CHG  1  16  -1
M  END
> <s_m_source_file>
AV-unprocessed.smi

> <i_m_source_file_index>
37

> <i_lp_mmshare_version>
43012

> <i_f3d_flags>
0

> <s_epik_input>
W0NIM11bQ0gyXUMoPU8pT1tDSDJdW0NAQEhdMU9bQ0BASF0objJbY0hdYyhGKWMoPU8pW25IXWMyPU8pW0NAQEhdKEJyKVtDQEhdMU9DKD1PKVtDSDJdW0NIM10=

> <s_epik_cmdline>
J2VwaWtfcHl0aG9uJywgJy1waCcsICc3LjAnLCAnLXRuJywgJzgnLCAnLW1hJywgJzIwMCcsICctbWV0YWxfYmluZGluZycsICctaW1hZScsICc8aW5maWxlLm1hZT4nLCAnLW9tYWUnLCAnPG91dGZpbGUubWFlPic=

> <r_epik_Ionization_Penalty>
1.08158

> <r_epik_Ionization_Penalty_Charging>
9.05154e-09

> <r_epik_Ionization_Penalty_Neutral>
1.08158

> <r_epik_State_Penalty>
1.13706

> <r_epik_Charging_Adjusted_Penalty>
1.13706

> <i_epik_Tot_Q>
-1

> <i_epik_Tot_abs_Q>
1

> <r_epik_Metal_State_Penalty>
0.00343535

> <b_epik_Metal_Only>
0

> <s_epik_Chemistry_Notes>
This compound has an ester and may undergo hydrolysis at high or low pH. This compound contains an acetal/aminal-like group ( X-CH(R)-Y where X, Y are N, S, or O) that may be acid/base labile, releasing an aldehyde.

> <s_lp_Force_Field>
OPLS_2005

> <r_lp_Energy>
36.4441

> <b_lp_Chiralities_Consistent>
1

> <s_lp_Variant>
AV-unprocessed.smi:37-32

> <Gold.Version>
5.8.1

> <Gold.Id.Protein>
6NUR|6NUR_protein|mol2

> <Gold.PLP.Fitness>
41.9935

> <Gold.PLP.PLP>
-33.8436

> <Gold.PLP.part.hbond>
-4.1770

> <Gold.PLP.part.metal>
0.0000

> <Gold.PLP.part.buried>
-5.9580

> <Gold.PLP.part.nonpolar>
-27.1664

> <Gold.PLP.part.repulsive>
3.7250

> <Gold.PLP.ligand.clash>
0.0000

> <Gold.PLP.ligand.torsion>
1.0427

> <Gold.PLP.Chemscore.Hbond>
3.3375

> <Gold.PLP.Chemscore.CHOScore>
0.0000

> <Gold.PLP.Chemscore.Metal>
0.0000

> <Gold.Chemscore.Hbonds>
donor molecule, donor type, donor heavy atom, donor atom, acceptor molecule, acceptor atom, score
      P1  H  7989  7998       L1     4  0.38
      P1  H  7997  8008       L1    24  1.00
      P1  H  8011  8017       L1     4  0.77
      P1  H 10752 10765       L1    18  0.55

> <Gold.PLP.Chemscore.Internal.Correction>
0.2229

> <Gold.Rescore>
     Score         DG    S(hbond)    S(metal)    S(lipo)     H(rot)  DE(clash)    DE(int)     intcor
      8.13     -12.52       2.41        0.00      62.76       3.27       1.53       2.85       ----

> <Gold.Chemscore.Fitness>
8.1331

> <Gold.Chemscore.DG>
-12.5166

> <Gold.Chemscore.ZeroCoef>
-5.4800

> <Gold.Chemscore.Hbond>
2.4122

> <Gold.Chemscore.Metal>
0.0000

> <Gold.Chemscore.Lipo>
62.7621

> <Gold.Chemscore.Internal_Hbond>
0.0000

> <Gold.Chemscore.DEClash>
1.5328

> <Gold.Chemscore.DEInternal>
2.8507

> <Gold.Chemscore.Rot>
3.2669

> <Gold.Chemscore.Internal.Correction>
   9.000000E+99

> <Gold.Chemscore.Hbonds>
donor molecule, donor type, donor heavy atom, donor atom, acceptor molecule, acceptor atom, score
      P1  H  7989  7998       L1     4  0.35
      P1  H  7997  8008       L1    24  0.91
      P1  H  8011  8017       L1     4  0.48
      P1  H 10752 10765       L1    18  0.03

> <Gold.Chemscore.Hbond.Weighted>
-8.0568

> <Gold.Chemscore.Metal.Weighted>
-0.0000

> <Gold.Chemscore.Lipo.Weighted>
-7.3432

> <Gold.Chemscore.Internal_Hbond.Weighted>
0.0000

> <Gold.Chemscore.DEClash.Weighted>
1.5328

> <Gold.Chemscore.DEInternal.Weighted>
2.8507

> <Gold.Chemscore.Rot.Weighted>
8.3634

> <Gold.Chemscore.Internal.Correction.Weighted>
   9.000000E+99

> <Gold.Protein.RotatedTorsions>
[ 6907 6896 6895 6894 ] final  -37.09 input  -60.11 | X-H torsion
[ 7974 7965 7964 7962 ] final   20.71 input  175.53 | X-H torsion
[ 8008 7997 7996 7995 ] final -122.50 input   59.86 | X-H torsion
[ 10167 10162 10161 10158 ] final  116.82 input  -65.29 | X-H torsion
[ 10718 10713 10712 10709 ] final -179.08 input   66.30 | X-H torsion
[ 10763 10752 10751 10750 ] final -130.32 input  -60.55 | X-H torsion
[ 11005 11000 10999 10996 ] final  -40.38 input  -57.11 | X-H torsion

> <Gold.Protein.ActiveResidues>
 VAL166  LYS551  ARG553  GLY616  TRP617  ASP618  TYR619  PRO620  LYS621  CYS622 
 ASP623  PHE694  ASN695  SER759  ASP760  ASP761  ALA762  ILE779  LEU786  VAL792 
 PHE793  MET794  SER795  GLU796  ALA797  LYS798  CYS799  TRP800  GLU811  SER814 

> <Gold.Protein.RotatedAtoms>
  151.0191  134.9455  159.8049 H   0  0  0  0  0  0  0  0  0  0  0  0  # atno 6907 bound_to 6896
  152.5321  134.2928  159.9059 H   0  0  0  0  0  0  0  0  0  0  0  0  # atno 6908 bound_to 6896
  151.2935  133.4112  159.2669 H   0  0  0  0  0  0  0  0  0  0  0  0  # atno 6909 bound_to 6896
  146.2100  139.8130  142.8696 H   0  0  0  0  0  0  0  0  0  0  0  0  # atno 7974 bound_to 7965
  155.1652  140.0407  157.2851 H   0  0  0  0  0  0  0  0  0  0  0  0  # atno 8008 bound_to 7997
  154.6308  140.2523  155.7409 H   0  0  0  0  0  0  0  0  0  0  0  0  # atno 8009 bound_to 7997
  156.2483  140.2875  156.0659 H   0  0  0  0  0  0  0  0  0  0  0  0  # atno 8010 bound_to 7997
  139.6221  144.7102  151.2612 H   0  0  0  0  0  0  0  0  0  0  0  0  # atno 10167 bound_to 10162
  156.8537  130.9728  151.3090 H   0  0  0  0  0  0  0  0  0  0  0  0  # atno 10718 bound_to 10713
  154.8756  135.3866  154.4064 H   0  0  0  0  0  0  0  0  0  0  0  0  # atno 10763 bound_to 10752
  153.4783  135.7030  153.5958 H   0  0  0  0  0  0  0  0  0  0  0  0  # atno 10764 bound_to 10752
  153.4385  135.3862  155.2181 H   0  0  0  0  0  0  0  0  0  0  0  0  # atno 10765 bound_to 10752
  141.0170  133.6880  156.2314 H   0  0  0  0  0  0  0  0  0  0  0  0  # atno 11005 bound_to 11000
  145.3176  141.0236  143.3519 LP  0  0  0  0  0  0  0  0  0  0  0  0  # atno 17320 bound_to 7965
  144.8890  139.4800  143.6687 LP  0  0  0  0  0  0  0  0  0  0  0  0  # atno 17321 bound_to 7965
  140.7388  143.6636  150.8142 LP  0  0  0  0  0  0  0  0  0  0  0  0  # atno 17342 bound_to 10162
  140.0249  143.5504  152.2785 LP  0  0  0  0  0  0  0  0  0  0  0  0  # atno 17343 bound_to 10162
  157.6289  130.8713  149.9238 LP  0  0  0  0  0  0  0  0  0  0  0  0  # atno 17370 bound_to 10713
  156.0814  130.3673  150.0573 LP  0  0  0  0  0  0  0  0  0  0  0  0  # atno 17371 bound_to 10713
  140.6637  134.4941  157.5584 LP  0  0  0  0  0  0  0  0  0  0  0  0  # atno 17394 bound_to 11000
  139.9123  134.8319  156.1485 LP  0  0  0  0  0  0  0  0  0  0  0  0  # atno 17395 bound_to 11000

$$$$
