AV-unprocessed.smi:3137|AV-procd|sdf|11953|dock5
  -GOLD-   2272017353D 1   1.00000     0.00000
 Structure written by MMmdl.
 40 40  0  0  0  0  0  0  0  0  2 V2000
  141.8424  137.8759  153.1946 C   0  0  0  0  0  0  0  0  0  0  0  0
  142.9607  136.8746  152.8900 C   0  0  0  0  0  0  0  0  0  0  0  0
  144.1595  137.5658  152.4363 N   0  0  0  0  0  0  0  0  0  0  0  0
  145.2542  136.9518  151.9647 C   0  0  0  0  0  0  0  0  0  0  0  0
  145.3522  135.7280  151.8721 O   0  0  0  0  0  0  0  0  0  0  0  0
  146.4123  137.8607  151.5407 C   0  0  0  0  0  0  0  0  0  0  0  0
  146.8229  138.8597  152.6357 C   0  0  0  0  0  0  0  0  0  0  0  0
  148.2766  138.7894  152.8956 N   0  3  0  0  0  0  0  0  0  0  0  0
  148.6983  139.0954  154.2830 C   0  0  1  0  0  0  0  0  0  0  0  0
  148.2085  137.9743  155.2099 C   0  0  0  0  0  0  0  0  0  0  0  0
  150.2324  139.2543  154.3990 C   0  0  0  0  0  0  0  0  0  0  0  0
  150.6492  140.1696  155.4460 N   0  0  0  0  0  0  0  0  0  0  0  0
  151.4316  139.9099  156.5516 C   0  0  0  0  0  0  0  0  0  0  0  0
  151.5471  141.0749  157.2558 C   0  0  0  0  0  0  0  0  0  0  0  0
  152.2998  141.3300  158.5297 C   0  0  0  0  0  0  0  0  0  0  0  0
  150.7747  141.9992  156.4967 C   0  0  0  0  0  0  0  0  0  0  0  0
  150.2354  141.4541  155.4185 N   0  0  0  0  0  0  0  0  0  0  0  0
  140.9442  137.3607  153.5350 H   0  0  0  0  0  0  0  0  0  0  0  0
  141.5774  138.4540  152.3089 H   0  0  0  0  0  0  0  0  0  0  0  0
  142.1403  138.5753  153.9767 H   0  0  0  0  0  0  0  0  0  0  0  0
  143.1906  136.2926  153.7836 H   0  0  0  0  0  0  0  0  0  0  0  0
  142.6320  136.1727  152.1224 H   0  0  0  0  0  0  0  0  0  0  0  0
  144.1549  138.5743  152.4859 H   0  0  0  0  0  0  0  0  0  0  0  0
  147.2703  137.2449  151.2665 H   0  0  0  0  0  0  0  0  0  0  0  0
  146.1103  138.3974  150.6410 H   0  0  0  0  0  0  0  0  0  0  0  0
  146.5519  139.8694  152.3327 H   0  0  0  0  0  0  0  0  0  0  0  0
  146.2826  138.6442  153.5587 H   0  0  0  0  0  0  0  0  0  0  0  0
  148.5592  137.8394  152.7017 H   0  0  0  0  0  0  0  0  0  0  0  0
  148.2057  140.0120  154.6112 H   0  0  0  0  0  0  0  0  0  0  0  0
  148.4645  138.1839  156.2490 H   0  0  0  0  0  0  0  0  0  0  0  0
  148.6536  137.0145  154.9454 H   0  0  0  0  0  0  0  0  0  0  0  0
  147.1247  137.8659  155.1572 H   0  0  0  0  0  0  0  0  0  0  0  0
  150.6908  138.2881  154.6143 H   0  0  0  0  0  0  0  0  0  0  0  0
  150.6542  139.5892  153.4501 H   0  0  0  0  0  0  0  0  0  0  0  0
  151.8430  138.9297  156.7423 H   0  0  0  0  0  0  0  0  0  0  0  0
  152.4559  142.3954  158.7016 H   0  0  0  0  0  0  0  0  0  0  0  0
  153.2833  140.8601  158.5184 H   0  0  0  0  0  0  0  0  0  0  0  0
  151.7660  140.9398  159.3964 H   0  0  0  0  0  0  0  0  0  0  0  0
  150.5901  143.0445  156.6971 H   0  0  0  0  0  0  0  0  0  0  0  0
  148.7661  139.4023  152.2593 H   0  0  0  0  0  0  0  0  0  0  0  0
  1  2  1  0  0  0  0
  1 18  1  0  0  0  0
  1 19  1  0  0  0  0
  1 20  1  0  0  0  0
  2  3  1  0  0  0  0
  2 21  1  0  0  0  0
  2 22  1  0  0  0  0
  3  4  1  0  0  0  0
  3 23  1  0  0  0  0
  4  5  2  0  0  0  0
  4  6  1  0  0  0  0
  6  7  1  0  0  0  0
  6 24  1  0  0  0  0
  6 25  1  0  0  0  0
  7  8  1  0  0  0  0
  7 26  1  0  0  0  0
  7 27  1  0  0  0  0
  8  9  1  0  0  0  0
  8 28  1  0  0  0  0
  8 40  1  0  0  0  0
  9 10  1  0  0  0  0
  9 11  1  0  0  0  0
  9 29  1  0  0  0  0
 10 30  1  0  0  0  0
 10 31  1  0  0  0  0
 10 32  1  0  0  0  0
 11 12  1  0  0  0  0
 11 33  1  0  0  0  0
 11 34  1  0  0  0  0
 12 17  1  0  0  0  0
 12 13  1  0  0  0  0
 13 14  2  0  0  0  0
 13 35  1  0  0  0  0
 14 15  1  0  0  0  0
 14 16  1  0  0  0  0
 15 36  1  0  0  0  0
 15 37  1  0  0  0  0
 15 38  1  0  0  0  0
 16 17  2  0  0  0  0
 16 39  1  0  0  0  0
M  CHG  1   8   1
M  END
> <s_m_source_file>
AV-unprocessed.smi

> <i_m_source_file_index>
3137

> <i_lp_mmshare_version>
43012

> <i_f3d_flags>
0

> <s_epik_input>
W0NIM11bQ0gyXVtOSF1DKD1PKVtDSDJdW0NIMl1bTkhdW0NASF0oW0NIM10pW0NIMl1uMVtjSF1jKFtDSDNdKVtjSF1uMQ==

> <s_epik_cmdline>
J2VwaWtfcHl0aG9uJywgJy1waCcsICc3LjAnLCAnLXRuJywgJzgnLCAnLW1hJywgJzIwMCcsICctbWV0YWxfYmluZGluZycsICctaW1hZScsICc8aW5maWxlLm1hZT4nLCAnLW9tYWUnLCAnPG91dGZpbGUubWFlPic=

> <r_lp_tautomer_probability>
1

> <r_epik_Ionization_Penalty>
0.00598586

> <r_epik_Ionization_Penalty_Charging>
0.00597743

> <r_epik_Ionization_Penalty_Neutral>
8.43172e-06

> <r_epik_State_Penalty>
0.00439883

> <r_epik_Charging_Adjusted_Penalty>
0.0103763

> <i_epik_Tot_Q>
1

> <i_epik_Tot_abs_Q>
1

> <r_epik_Metal_State_Penalty>
-0

> <b_epik_Metal_Only>
0

> <s_lp_Force_Field>
OPLS_2005

> <r_lp_Energy>
6.05872

> <b_lp_Chiralities_Consistent>
1

> <s_lp_Variant>
AV-unprocessed.smi:3137-2

> <Gold.Version>
5.8.1

> <Gold.Id.Protein>
6NUR|6NUR_protein|mol2

> <Gold.PLP.Fitness>
45.3542

> <Gold.PLP.PLP>
-32.3258

> <Gold.PLP.part.hbond>
-4.5678

> <Gold.PLP.part.metal>
0.0000

> <Gold.PLP.part.buried>
-0.3191

> <Gold.PLP.part.nonpolar>
-28.4071

> <Gold.PLP.part.repulsive>
0.3650

> <Gold.PLP.ligand.clash>
0.0000

> <Gold.PLP.ligand.torsion>
1.0391

> <Gold.PLP.Chemscore.Hbond>
3.9913

> <Gold.PLP.Chemscore.CHOScore>
1.0000

> <Gold.PLP.Chemscore.Metal>
0.0000

> <Gold.Chemscore.Hbonds>
donor molecule, donor type, donor heavy atom, donor atom, acceptor molecule, acceptor atom, score
      L1  H     3    23       P1 10175  1.00
      L1  H     8    28       P1  7948  2.00
      L1  H     8    40       P1  7957  0.96
      L1  C    16    39       P1  8028  0.83

> <Gold.PLP.Chemscore.Internal.Correction>
0.1328

> <Gold.Rescore>
     Score         DG    S(hbond)    S(metal)    S(lipo)     H(rot)  DE(clash)    DE(int)     intcor
     16.21     -17.48       2.97        0.00      68.02       2.30       0.25       1.02       ----

> <Gold.Chemscore.Fitness>
16.2078

> <Gold.Chemscore.DG>
-17.4827

> <Gold.Chemscore.ZeroCoef>
-5.4800

> <Gold.Chemscore.Hbond>
2.9708

> <Gold.Chemscore.Metal>
0.0000

> <Gold.Chemscore.Lipo>
68.0245

> <Gold.Chemscore.Internal_Hbond>
0.0000

> <Gold.Chemscore.DEClash>
0.2501

> <Gold.Chemscore.DEInternal>
1.0249

> <Gold.Chemscore.Rot>
2.2963

> <Gold.Chemscore.Internal.Correction>
   9.000000E+99

> <Gold.Chemscore.Hbonds>
donor molecule, donor type, donor heavy atom, donor atom, acceptor molecule, acceptor atom, score
      L1  H     3    23       P1 10175  0.99
      L1  H     8    28       P1  7948  1.00
      L1  H     8    40       P1  7957  0.91

> <Gold.Chemscore.Hbond.Weighted>
-9.9225

> <Gold.Chemscore.Metal.Weighted>
-0.0000

> <Gold.Chemscore.Lipo.Weighted>
-7.9589

> <Gold.Chemscore.Internal_Hbond.Weighted>
0.0000

> <Gold.Chemscore.DEClash.Weighted>
0.2501

> <Gold.Chemscore.DEInternal.Weighted>
1.0249

> <Gold.Chemscore.Rot.Weighted>
5.8786

> <Gold.Chemscore.Internal.Correction.Weighted>
   9.000000E+99

> <Gold.Protein.RotatedTorsions>
[ 6907 6896 6895 6894 ] final -178.37 input  -60.11 | X-H torsion
[ 7974 7965 7964 7962 ] final -172.50 input  175.53 | X-H torsion
[ 8008 7997 7996 7995 ] final   92.90 input   59.86 | X-H torsion
[ 10167 10162 10161 10158 ] final  -75.29 input  -65.29 | X-H torsion
[ 10718 10713 10712 10709 ] final    9.55 input   66.30 | X-H torsion
[ 10763 10752 10751 10750 ] final  103.89 input  -60.55 | X-H torsion
[ 11005 11000 10999 10996 ] final    4.54 input  -57.11 | X-H torsion

> <Gold.Protein.ActiveResidues>
 VAL166  LYS551  ARG553  GLY616  TRP617  ASP618  TYR619  PRO620  LYS621  CYS622 
 ASP623  PHE694  ASN695  SER759  ASP760  ASP761  ALA762  ILE779  LEU786  VAL792 
 PHE793  MET794  SER795  GLU796  ALA797  LYS798  CYS799  TRP800  GLU811  SER814 

> <Gold.Protein.RotatedAtoms>
  151.6362  133.3329  159.3119 H   0  0  0  0  0  0  0  0  0  0  0  0  # atno 6907 bound_to 6896
  150.8031  134.7142  159.6630 H   0  0  0  0  0  0  0  0  0  0  0  0  # atno 6908 bound_to 6896
  152.4125  134.6104  160.0075 H   0  0  0  0  0  0  0  0  0  0  0  0  # atno 6909 bound_to 6896
  144.7146  140.1762  143.6363 H   0  0  0  0  0  0  0  0  0  0  0  0  # atno 7974 bound_to 7965
  156.0406  140.3319  155.7240 H   0  0  0  0  0  0  0  0  0  0  0  0  # atno 8008 bound_to 7997
  155.5749  140.0631  157.2815 H   0  0  0  0  0  0  0  0  0  0  0  0  # atno 8009 bound_to 7997
  154.4391  140.1854  156.0906 H   0  0  0  0  0  0  0  0  0  0  0  0  # atno 8010 bound_to 7997
  140.4955  143.2371  151.7838 H   0  0  0  0  0  0  0  0  0  0  0  0  # atno 10167 bound_to 10162
  156.9680  130.5958  149.5666 H   0  0  0  0  0  0  0  0  0  0  0  0  # atno 10718 bound_to 10713
  153.3587  135.3961  155.1701 H   0  0  0  0  0  0  0  0  0  0  0  0  # atno 10763 bound_to 10752
  154.8675  135.3674  154.5128 H   0  0  0  0  0  0  0  0  0  0  0  0  # atno 10764 bound_to 10752
  153.5585  135.7081  153.5618 H   0  0  0  0  0  0  0  0  0  0  0  0  # atno 10765 bound_to 10752
  140.5807  134.0015  155.8046 H   0  0  0  0  0  0  0  0  0  0  0  0  # atno 11005 bound_to 11000
  145.8898  139.2369  143.1556 LP  0  0  0  0  0  0  0  0  0  0  0  0  # atno 17320 bound_to 7965
  145.9914  140.8599  143.0064 LP  0  0  0  0  0  0  0  0  0  0  0  0  # atno 17321 bound_to 7965
  139.4860  144.4592  151.9561 LP  0  0  0  0  0  0  0  0  0  0  0  0  # atno 17342 bound_to 10162
  140.3680  144.2891  150.5924 LP  0  0  0  0  0  0  0  0  0  0  0  0  # atno 17343 bound_to 10162
  156.0294  130.5387  150.8495 LP  0  0  0  0  0  0  0  0  0  0  0  0  # atno 17370 bound_to 10713
  157.5612  131.0946  150.9556 LP  0  0  0  0  0  0  0  0  0  0  0  0  # atno 17371 bound_to 10713
  141.0998  133.9787  157.3099 LP  0  0  0  0  0  0  0  0  0  0  0  0  # atno 17394 bound_to 11000
  139.9318  135.0199  156.8426 LP  0  0  0  0  0  0  0  0  0  0  0  0  # atno 17395 bound_to 11000

$$$$
