AV-unprocessed.smi:1524|AV-procd|sdf|6140|dock3
  -GOLD-   22720 6283D 1   1.00000     0.00000
 Structure written by MMmdl.
 34 35  0  0  0  0  0  0  0  0  2 V2000
  147.2148  132.1343  153.0619 O   0  0  0  0  0  0  0  0  0  0  0  0
  147.5650  133.3002  152.8923 C   0  0  0  0  0  0  0  0  0  0  0  0
  148.5924  133.9063  153.5217 N   0  0  0  0  0  0  0  0  0  0  0  0
  149.4443  133.4182  154.5264 C   0  0  0  0  0  0  0  0  0  0  0  0
  149.9521  132.1553  154.5713 C   0  0  0  0  0  0  0  0  0  0  0  0
  150.8185  131.7032  155.6530 C   0  0  0  0  0  0  0  0  0  0  0  0
  151.4136  130.3103  155.7484 C   0  0  0  0  0  0  0  0  0  0  0  0
  152.7444  130.3774  155.7440 F   0  0  0  0  0  0  0  0  0  0  0  0
  151.0345  129.7232  156.8831 F   0  0  0  0  0  0  0  0  0  0  0  0
  151.0277  129.5436  154.7285 F   0  0  0  0  0  0  0  0  0  0  0  0
  151.0344  132.6848  156.5994 C   0  0  0  0  0  0  0  0  0  0  0  0
  150.5641  133.9509  156.6347 N   0  5  0  0  0  0  0  0  0  0  0  0
  149.7597  134.3661  155.6156 C   0  0  0  0  0  0  0  0  0  0  0  0
  149.2942  135.5060  155.5858 O   0  0  0  0  0  0  0  0  0  0  0  0
  146.9303  134.0865  152.0033 N   0  0  0  0  0  0  0  0  0  0  0  0
  145.7844  133.7578  151.1515 C   0  0  0  0  0  0  0  0  0  0  0  0
  144.6137  133.2087  151.9875 C   0  0  0  0  0  0  0  0  0  0  0  0
  143.4840  132.7001  151.0773 C   0  0  0  0  0  0  0  0  0  0  0  0
  143.9856  131.7178  150.1771 O   0  0  0  0  0  0  0  0  0  0  0  0
  144.9838  132.2298  149.3011 C   0  0  0  0  0  0  0  0  0  0  0  0
  146.2001  132.7056  150.1121 C   0  0  0  0  0  0  0  0  0  0  0  0
  148.8079  134.8449  153.2187 H   0  0  0  0  0  0  0  0  0  0  0  0
  149.7085  131.4356  153.8076 H   0  0  0  0  0  0  0  0  0  0  0  0
  151.6835  132.4079  157.4576 H   0  0  0  0  0  0  0  0  0  0  0  0
  147.3079  135.0152  151.8834 H   0  0  0  0  0  0  0  0  0  0  0  0
  145.4563  134.6481  150.6118 H   0  0  0  0  0  0  0  0  0  0  0  0
  144.9616  132.3887  152.6173 H   0  0  0  0  0  0  0  0  0  0  0  0
  144.2276  133.9756  152.6598 H   0  0  0  0  0  0  0  0  0  0  0  0
  142.6918  132.2540  151.6788 H   0  0  0  0  0  0  0  0  0  0  0  0
  143.0342  133.5233  150.5201 H   0  0  0  0  0  0  0  0  0  0  0  0
  145.2810  131.4428  148.6079 H   0  0  0  0  0  0  0  0  0  0  0  0
  144.5739  133.0435  148.7008 H   0  0  0  0  0  0  0  0  0  0  0  0
  146.9583  133.1138  149.4427 H   0  0  0  0  0  0  0  0  0  0  0  0
  146.6536  131.8478  150.6113 H   0  0  0  0  0  0  0  0  0  0  0  0
  1  2  2  0  0  0  0
  2  3  1  0  0  0  0
  2 15  1  0  0  0  0
  3  4  1  0  0  0  0
  3 22  1  0  0  0  0
  4 13  1  0  0  0  0
  4  5  2  0  0  0  0
  5  6  1  0  0  0  0
  5 23  1  0  0  0  0
  6  7  1  0  0  0  0
  6 11  2  0  0  0  0
  7  8  1  0  0  0  0
  7  9  1  0  0  0  0
  7 10  1  0  0  0  0
 11 12  1  0  0  0  0
 11 24  1  0  0  0  0
 12 13  1  0  0  0  0
 13 14  2  0  0  0  0
 15 16  1  0  0  0  0
 15 25  1  0  0  0  0
 16 21  1  0  0  0  0
 16 17  1  0  0  0  0
 16 26  1  0  0  0  0
 17 18  1  0  0  0  0
 17 27  1  0  0  0  0
 17 28  1  0  0  0  0
 18 19  1  0  0  0  0
 18 29  1  0  0  0  0
 18 30  1  0  0  0  0
 19 20  1  0  0  0  0
 20 21  1  0  0  0  0
 20 31  1  0  0  0  0
 20 32  1  0  0  0  0
 21 33  1  0  0  0  0
 21 34  1  0  0  0  0
M  CHG  1  12  -1
M  END
> <s_m_source_file>
AV-unprocessed.smi

> <i_m_source_file_index>
1524

> <i_lp_mmshare_version>
43012

> <i_f3d_flags>
0

> <s_epik_input>
W0NIMl0xW0NIMl1PW0NIMl1bQ0gyXVtDSF0xW05IXUMoPU8pW05IXWMyW2NIXWMoQyhGKShGKUYpW2NIXVtuSF1jMj1P

> <s_epik_cmdline>
J2VwaWtfcHl0aG9uJywgJy1waCcsICc3LjAnLCAnLXRuJywgJzgnLCAnLW1hJywgJzIwMCcsICctbWV0YWxfYmluZGluZycsICctaW1hZScsICc8aW5maWxlLm1hZT4nLCAnLW9tYWUnLCAnPG91dGZpbGUubWFlPic=

> <r_lp_tautomer_probability>
1

> <r_epik_Ionization_Penalty>
3.17101

> <r_epik_Ionization_Penalty_Charging>
0.175581

> <r_epik_Ionization_Penalty_Neutral>
2.99543

> <r_epik_State_Penalty>
2.99161

> <r_epik_Charging_Adjusted_Penalty>
3.16719

> <i_epik_Tot_Q>
-1

> <i_epik_Tot_abs_Q>
1

> <r_epik_Metal_State_Penalty>
0.453119

> <b_epik_Metal_Only>
1

> <s_lp_Force_Field>
OPLS_2005

> <r_lp_Energy>
32.5819

> <b_lp_Chiralities_Consistent>
1

> <s_lp_Variant>
AV-unprocessed.smi:1524-2

> <Gold.Version>
5.8.1

> <Gold.Id.Protein>
6NUR|6NUR_protein|mol2

> <Gold.PLP.Fitness>
42.4915

> <Gold.PLP.PLP>
-36.5182

> <Gold.PLP.part.hbond>
-2.8612

> <Gold.PLP.part.metal>
0.0000

> <Gold.PLP.part.buried>
-5.4157

> <Gold.PLP.part.nonpolar>
-28.3800

> <Gold.PLP.part.repulsive>
0.3844

> <Gold.PLP.ligand.clash>
0.0000

> <Gold.PLP.ligand.torsion>
0.3696

> <Gold.PLP.Chemscore.Hbond>
2.2348

> <Gold.PLP.Chemscore.CHOScore>
0.0000

> <Gold.PLP.Chemscore.Metal>
0.0000

> <Gold.Chemscore.Hbonds>
donor molecule, donor type, donor heavy atom, donor atom, acceptor molecule, acceptor atom, score
      L1  H     3    22       P1  7948  1.00
      L1  H    15    25       P1  7948  0.94
      P1  H 10785 10796       L1    19  0.24

> <Gold.PLP.Chemscore.Internal.Correction>
0.0080

> <Gold.Rescore>
     Score         DG    S(hbond)    S(metal)    S(lipo)     H(rot)  DE(clash)    DE(int)     intcor
     14.95     -15.97       1.52        0.00      68.26       1.00       0.05       0.97       ----

> <Gold.Chemscore.Fitness>
14.9512

> <Gold.Chemscore.DG>
-15.9712

> <Gold.Chemscore.ZeroCoef>
-5.4800

> <Gold.Chemscore.Hbond>
1.5163

> <Gold.Chemscore.Metal>
0.0000

> <Gold.Chemscore.Lipo>
68.2631

> <Gold.Chemscore.Internal_Hbond>
0.0000

> <Gold.Chemscore.DEClash>
0.0465

> <Gold.Chemscore.DEInternal>
0.9735

> <Gold.Chemscore.Rot>
1.0000

> <Gold.Chemscore.Internal.Correction>
   9.000000E+99

> <Gold.Chemscore.Hbonds>
donor molecule, donor type, donor heavy atom, donor atom, acceptor molecule, acceptor atom, score
      L1  H     3    22       P1  7948  0.29
      L1  H    15    25       P1  7948  0.81
      P1  H 10785 10796       L1    19  0.04

> <Gold.Chemscore.Hbond.Weighted>
-5.0644

> <Gold.Chemscore.Metal.Weighted>
-0.0000

> <Gold.Chemscore.Lipo.Weighted>
-7.9868

> <Gold.Chemscore.Internal_Hbond.Weighted>
0.0000

> <Gold.Chemscore.DEClash.Weighted>
0.0465

> <Gold.Chemscore.DEInternal.Weighted>
0.9735

> <Gold.Chemscore.Rot.Weighted>
2.5600

> <Gold.Chemscore.Internal.Correction.Weighted>
   9.000000E+99

> <Gold.Protein.RotatedTorsions>
[ 6907 6896 6895 6894 ] final  -51.93 input  -60.11 | X-H torsion
[ 7974 7965 7964 7962 ] final  -44.77 input  175.53 | X-H torsion
[ 8008 7997 7996 7995 ] final -150.19 input   59.86 | X-H torsion
[ 10167 10162 10161 10158 ] final  168.13 input  -65.29 | X-H torsion
[ 10718 10713 10712 10709 ] final  -25.25 input   66.30 | X-H torsion
[ 10763 10752 10751 10750 ] final  153.11 input  -60.55 | X-H torsion
[ 11005 11000 10999 10996 ] final   17.61 input  -57.11 | X-H torsion

> <Gold.Protein.ActiveResidues>
 VAL166  LYS551  ARG553  GLY616  TRP617  ASP618  TYR619  PRO620  LYS621  CYS622 
 ASP623  PHE694  ASN695  SER759  ASP760  ASP761  ALA762  ILE779  LEU786  VAL792 
 PHE793  MET794  SER795  GLU796  ALA797  LYS798  CYS799  TRP800  GLU811  SER814 

> <Gold.Protein.RotatedAtoms>
  150.8565  134.7905  159.7049 H   0  0  0  0  0  0  0  0  0  0  0  0  # atno 6907 bound_to 6896
  152.4615  134.5170  159.9781 H   0  0  0  0  0  0  0  0  0  0  0  0  # atno 6908 bound_to 6896
  151.5282  133.3416  159.2949 H   0  0  0  0  0  0  0  0  0  0  0  0  # atno 6909 bound_to 6896
  145.9888  140.7204  142.9327 H   0  0  0  0  0  0  0  0  0  0  0  0  # atno 7974 bound_to 7965
  155.6196  140.0680  157.2682 H   0  0  0  0  0  0  0  0  0  0  0  0  # atno 8008 bound_to 7997
  154.4232  140.1787  156.1406 H   0  0  0  0  0  0  0  0  0  0  0  0  # atno 8009 bound_to 7997
  156.0020  140.3335  155.6858 H   0  0  0  0  0  0  0  0  0  0  0  0  # atno 8010 bound_to 7997
  139.4961  144.3847  151.9583 H   0  0  0  0  0  0  0  0  0  0  0  0  # atno 10167 bound_to 10162
  156.4669  130.4516  149.6893 H   0  0  0  0  0  0  0  0  0  0  0  0  # atno 10718 bound_to 10713
  154.1310  135.2826  155.3185 H   0  0  0  0  0  0  0  0  0  0  0  0  # atno 10763 bound_to 10752
  154.6356  135.5420  153.7733 H   0  0  0  0  0  0  0  0  0  0  0  0  # atno 10764 bound_to 10752
  153.0281  135.6473  154.1460 H   0  0  0  0  0  0  0  0  0  0  0  0  # atno 10765 bound_to 10752
  140.4340  134.1390  155.7683 H   0  0  0  0  0  0  0  0  0  0  0  0  # atno 11005 bound_to 11000
  144.6882  140.3034  143.7260 LP  0  0  0  0  0  0  0  0  0  0  0  0  # atno 17320 bound_to 7965
  145.7661  139.1841  143.2239 LP  0  0  0  0  0  0  0  0  0  0  0  0  # atno 17321 bound_to 7965
  140.3284  144.3345  150.5993 LP  0  0  0  0  0  0  0  0  0  0  0  0  # atno 17342 bound_to 10162
  140.5665  143.2185  151.7674 LP  0  0  0  0  0  0  0  0  0  0  0  0  # atno 17343 bound_to 10162
  156.3659  130.7505  151.2483 LP  0  0  0  0  0  0  0  0  0  0  0  0  # atno 17370 bound_to 10713
  157.7494  131.0337  150.4284 LP  0  0  0  0  0  0  0  0  0  0  0  0  # atno 17371 bound_to 10713
  141.1733  133.8564  157.1500 LP  0  0  0  0  0  0  0  0  0  0  0  0  # atno 17394 bound_to 11000
  140.0115  134.9986  157.0404 LP  0  0  0  0  0  0  0  0  0  0  0  0  # atno 17395 bound_to 11000

$$$$
