AV-unprocessed.smi:36|AV-procd|sdf|298|dock10
  -GOLD-   2262016103D 1   1.00000     0.00000
 Structure written by MMmdl.
 63 66  0  0  0  0  0  0  0  0  2 V2000
  147.9567  136.0720  160.3744 C   0  0  0  0  0  0  0  0  0  0  0  0
  147.0387  135.5710  161.5018 C   0  0  0  0  0  0  0  0  0  0  0  0
  147.0287  134.0335  161.5237 C   0  0  0  0  0  0  0  0  0  0  0  0
  147.5335  136.1042  162.8569 C   0  0  0  0  0  0  0  0  0  0  0  0
  145.2602  136.2006  161.2012 Si  0  0  0  0  0  0  0  0  0  0  0  0
  144.0135  135.2608  162.2859 C   0  0  0  0  0  0  0  0  0  0  0  0
  145.1237  138.0667  161.5296 C   0  0  0  0  0  0  0  0  0  0  0  0
  144.8830  135.9219  159.5763 O   0  0  0  0  0  0  0  0  0  0  0  0
  144.1159  136.8040  158.7841 C   0  0  0  0  0  0  0  0  0  0  0  0
  145.0720  137.7008  157.9853 C   0  0  1  0  0  0  0  0  0  0  0  0
  146.3829  137.1396  157.9295 O   0  0  0  0  0  0  0  0  0  0  0  0
  146.9923  137.4470  156.7111 C   0  0  2  0  0  0  0  0  0  0  0  0
  148.2783  138.1601  156.9785 N   0  0  0  0  0  0  0  0  0  0  0  0
  148.7990  138.4836  158.1788 C   0  0  0  0  0  0  0  0  0  0  0  0
  149.9704  139.1163  158.1907 N   0  0  0  0  0  0  0  0  0  0  0  0
  150.2439  139.2249  156.8351 C   0  0  0  0  0  0  0  0  0  0  0  0
  151.3408  139.7824  156.1215 C   0  0  0  0  0  0  0  0  0  0  0  0
  152.3930  140.3493  156.7322 N   0  5  0  0  0  0  0  0  0  0  0  0
  152.4410  140.3971  158.0878 C   0  0  0  0  0  0  0  0  0  0  0  0
  152.5083  139.4514  158.8761 O   0  0  0  0  0  0  0  0  0  0  0  0
  152.4799  141.7994  158.6338 C   0  0  0  0  0  0  0  0  0  0  0  0
  152.0681  142.8793  157.8195 C   0  0  0  0  0  0  0  0  0  0  0  0
  152.1208  144.2016  158.3020 C   0  0  0  0  0  0  0  0  0  0  0  0
  152.5959  144.4594  159.6015 C   0  0  0  0  0  0  0  0  0  0  0  0
  153.0213  143.3942  160.4169 C   0  0  0  0  0  0  0  0  0  0  0  0
  152.9682  142.0713  159.9354 C   0  0  0  0  0  0  0  0  0  0  0  0
  151.2806  139.7336  154.7662 N   0  0  0  0  0  0  0  0  0  0  0  0
  150.2351  139.1640  154.1556 C   0  0  0  0  0  0  0  0  0  0  0  0
  149.1562  138.5910  154.6970 N   0  0  0  0  0  0  0  0  0  0  0  0
  149.1972  138.6445  156.0603 C   0  0  0  0  0  0  0  0  0  0  0  0
  146.0272  138.3303  155.9152 C   0  0  0  0  0  0  0  0  0  0  0  0
  144.6908  137.9528  156.5207 C   0  0  1  0  0  0  0  0  0  0  0  0
  144.1617  136.7963  155.8988 O   0  0  0  0  0  0  0  0  0  0  0  0
  148.9829  135.7329  160.5198 H   0  0  0  0  0  0  0  0  0  0  0  0
  147.9742  137.1612  160.3300 H   0  0  0  0  0  0  0  0  0  0  0  0
  147.6257  135.7076  159.4015 H   0  0  0  0  0  0  0  0  0  0  0  0
  146.6871  133.6238  160.5729 H   0  0  0  0  0  0  0  0  0  0  0  0
  146.3668  133.6538  162.3028 H   0  0  0  0  0  0  0  0  0  0  0  0
  148.0251  133.6333  161.7142 H   0  0  0  0  0  0  0  0  0  0  0  0
  148.5406  135.7501  163.0796 H   0  0  0  0  0  0  0  0  0  0  0  0
  146.8834  135.7813  163.6710 H   0  0  0  0  0  0  0  0  0  0  0  0
  147.5591  137.1939  162.8707 H   0  0  0  0  0  0  0  0  0  0  0  0
  144.2362  135.3801  163.3460 H   0  0  0  0  0  0  0  0  0  0  0  0
  144.0198  134.1928  162.0692 H   0  0  0  0  0  0  0  0  0  0  0  0
  142.9954  135.6165  162.1294 H   0  0  0  0  0  0  0  0  0  0  0  0
  145.3725  138.3118  162.5619 H   0  0  0  0  0  0  0  0  0  0  0  0
  144.1136  138.4314  161.3445 H   0  0  0  0  0  0  0  0  0  0  0  0
  145.7956  138.6362  160.8885 H   0  0  0  0  0  0  0  0  0  0  0  0
  143.4484  136.2523  158.1218 H   0  0  0  0  0  0  0  0  0  0  0  0
  143.4956  137.4068  159.4477 H   0  0  0  0  0  0  0  0  0  0  0  0
  145.1472  138.6692  158.4816 H   0  0  0  0  0  0  0  0  0  0  0  0
  147.2690  136.5293  156.1904 H   0  0  0  0  0  0  0  0  0  0  0  0
  148.2924  138.2345  159.0993 H   0  0  0  0  0  0  0  0  0  0  0  0
  151.7027  142.6986  156.8189 H   0  0  0  0  0  0  0  0  0  0  0  0
  151.7979  145.0181  157.6732 H   0  0  0  0  0  0  0  0  0  0  0  0
  152.6373  145.4734  159.9707 H   0  0  0  0  0  0  0  0  0  0  0  0
  153.3922  143.5911  161.4119 H   0  0  0  0  0  0  0  0  0  0  0  0
  153.3093  141.2689  160.5739 H   0  0  0  0  0  0  0  0  0  0  0  0
  150.2695  139.1651  153.0762 H   0  0  0  0  0  0  0  0  0  0  0  0
  146.2380  139.3833  156.1071 H   0  0  0  0  0  0  0  0  0  0  0  0
  146.1072  138.1463  154.8432 H   0  0  0  0  0  0  0  0  0  0  0  0
  143.9617  138.7582  156.4264 H   0  0  0  0  0  0  0  0  0  0  0  0
  143.6521  136.3208  156.5369 H   0  0  0  0  0  0  0  0  0  0  0  0
  1  2  1  0  0  0  0
  1 34  1  0  0  0  0
  1 35  1  0  0  0  0
  1 36  1  0  0  0  0
  2  3  1  0  0  0  0
  2  4  1  0  0  0  0
  2  5  1  0  0  0  0
  3 37  1  0  0  0  0
  3 38  1  0  0  0  0
  3 39  1  0  0  0  0
  4 40  1  0  0  0  0
  4 41  1  0  0  0  0
  4 42  1  0  0  0  0
  5  6  1  0  0  0  0
  5  7  1  0  0  0  0
  5  8  1  0  0  0  0
  6 43  1  0  0  0  0
  6 44  1  0  0  0  0
  6 45  1  0  0  0  0
  7 46  1  0  0  0  0
  7 47  1  0  0  0  0
  7 48  1  0  0  0  0
  8  9  1  0  0  0  0
  9 10  1  0  0  0  0
  9 49  1  0  0  0  0
  9 50  1  0  0  0  0
 10 32  1  0  0  0  0
 10 11  1  0  0  0  0
 10 51  1  0  0  0  0
 11 12  1  0  0  0  0
 12 13  1  0  0  0  0
 12 31  1  0  0  0  0
 12 52  1  0  0  0  0
 13 30  1  0  0  0  0
 13 14  1  0  0  0  0
 14 15  2  0  0  0  0
 14 53  1  0  0  0  0
 15 16  1  0  0  0  0
 16 30  2  0  0  0  0
 16 17  1  0  0  0  0
 17 18  1  0  0  0  0
 17 27  2  0  0  0  0
 18 19  1  0  0  0  0
 19 20  2  0  0  0  0
 19 21  1  0  0  0  0
 21 26  1  0  0  0  0
 21 22  2  0  0  0  0
 22 23  1  0  0  0  0
 22 54  1  0  0  0  0
 23 24  2  0  0  0  0
 23 55  1  0  0  0  0
 24 25  1  0  0  0  0
 24 56  1  0  0  0  0
 25 26  2  0  0  0  0
 25 57  1  0  0  0  0
 26 58  1  0  0  0  0
 27 28  1  0  0  0  0
 28 29  2  0  0  0  0
 28 59  1  0  0  0  0
 29 30  1  0  0  0  0
 31 32  1  0  0  0  0
 31 60  1  0  0  0  0
 31 61  1  0  0  0  0
 32 33  1  0  0  0  0
 32 62  1  0  0  0  0
 33 63  1  0  0  0  0
M  CHG  1  18  -1
M  END
> <s_m_source_file>
AV-unprocessed.smi

> <i_m_source_file_index>
36

> <i_lp_mmshare_version>
43012

> <i_f3d_flags>
0

> <s_epik_input>
W0NIM11DKFtDSDNdKShbQ0gzXSlbU2ldKFtDSDNdKShbQ0gzXSlPW0NIMl1bQ0BASF0xT1tDQEhdKFtDSDJdW0NASF0xW09IXSluKFtjSF1uMiljKGMyMyluW2NIXW5jM1tOSF1DKD1PKWM0W2NIXVtjSF1bY0hdW2NIXVtjSF00

> <s_epik_cmdline>
J2VwaWtfcHl0aG9uJywgJy1waCcsICc3LjAnLCAnLXRuJywgJzgnLCAnLW1hJywgJzIwMCcsICctbWV0YWxfYmluZGluZycsICctaW1hZScsICc8aW5maWxlLm1hZT4nLCAnLW9tYWUnLCAnPG91dGZpbGUubWFlPic=

> <r_lp_tautomer_probability>
1

> <r_epik_Ionization_Penalty>
4.75685

> <r_epik_Ionization_Penalty_Charging>
3.55822

> <r_epik_Ionization_Penalty_Neutral>
1.19863

> <r_epik_State_Penalty>
3.564

> <r_epik_Charging_Adjusted_Penalty>
7.12222

> <i_epik_Tot_Q>
-1

> <i_epik_Tot_abs_Q>
1

> <r_epik_Metal_State_Penalty>
0.523258

> <b_epik_Metal_Only>
1

> <s_epik_Chemistry_Notes>
This compound contains an acetal/aminal-like group ( X-CH(R)-Y where X, Y are N, S, or O) that may be acid/base labile, releasing an aldehyde.

> <s_lp_Force_Field>
OPLS_2005

> <r_lp_Energy>
38.0647

> <b_lp_Chiralities_Consistent>
1

> <s_lp_Variant>
AV-unprocessed.smi:36-20

> <Gold.Version>
5.8.1

> <Gold.Id.Protein>
6NUR|6NUR_protein|mol2

> <Gold.PLP.Fitness>
54.9888

> <Gold.PLP.PLP>
-48.9218

> <Gold.PLP.part.hbond>
-2.0000

> <Gold.PLP.part.metal>
0.0000

> <Gold.PLP.part.buried>
-4.5247

> <Gold.PLP.part.nonpolar>
-40.9834

> <Gold.PLP.part.repulsive>
0.2257

> <Gold.PLP.ligand.clash>
0.0000

> <Gold.PLP.ligand.torsion>
2.7598

> <Gold.PLP.Chemscore.Hbond>
2.8096

> <Gold.PLP.Chemscore.CHOScore>
1.0000

> <Gold.PLP.Chemscore.Metal>
0.0000

> <Gold.Chemscore.Hbonds>
donor molecule, donor type, donor heavy atom, donor atom, acceptor molecule, acceptor atom, score
      P1  H  7989  7998       L1    27  0.80
      P1  H  7997  8009       L1    18  1.76
      L1  C    28    59       P1  7957  1.00

> <Gold.PLP.Chemscore.Internal.Correction>
0.1578

> <Gold.Rescore>
     Score         DG    S(hbond)    S(metal)    S(lipo)     H(rot)  DE(clash)    DE(int)     intcor
      9.33     -15.15       0.81        0.00     117.89       2.67       0.41       5.40       ----

> <Gold.Chemscore.Fitness>
9.3345

> <Gold.Chemscore.DG>
-15.1480

> <Gold.Chemscore.ZeroCoef>
-5.4800

> <Gold.Chemscore.Hbond>
0.8114

> <Gold.Chemscore.Metal>
0.0000

> <Gold.Chemscore.Lipo>
117.8946

> <Gold.Chemscore.Internal_Hbond>
0.0000

> <Gold.Chemscore.DEClash>
0.4125

> <Gold.Chemscore.DEInternal>
5.4010

> <Gold.Chemscore.Rot>
2.6702

> <Gold.Chemscore.Internal.Correction>
   9.000000E+99

> <Gold.Chemscore.Hbonds>
donor molecule, donor type, donor heavy atom, donor atom, acceptor molecule, acceptor atom, score
      P1  H  7989  7998       L1    27  0.12
      P1  H  7997  8009       L1    18  0.16

> <Gold.Chemscore.Hbond.Weighted>
-2.7101

> <Gold.Chemscore.Metal.Weighted>
-0.0000

> <Gold.Chemscore.Lipo.Weighted>
-13.7937

> <Gold.Chemscore.Internal_Hbond.Weighted>
0.0000

> <Gold.Chemscore.DEClash.Weighted>
0.4125

> <Gold.Chemscore.DEInternal.Weighted>
5.4010

> <Gold.Chemscore.Rot.Weighted>
6.8358

> <Gold.Chemscore.Internal.Correction.Weighted>
   9.000000E+99

> <Gold.Protein.RotatedTorsions>
[ 6907 6896 6895 6894 ] final  143.63 input  -60.11 | X-H torsion
[ 7974 7965 7964 7962 ] final  -85.72 input  175.53 | X-H torsion
[ 8008 7997 7996 7995 ] final -164.18 input   59.86 | X-H torsion
[ 10167 10162 10161 10158 ] final   10.70 input  -65.29 | X-H torsion
[ 10718 10713 10712 10709 ] final  156.45 input   66.30 | X-H torsion
[ 10763 10752 10751 10750 ] final  154.59 input  -60.55 | X-H torsion
[ 11005 11000 10999 10996 ] final  116.67 input  -57.11 | X-H torsion

> <Gold.Protein.ActiveResidues>
 VAL166  LYS551  ARG553  GLY616  TRP617  ASP618  TYR619  PRO620  LYS621  CYS622 
 ASP623  PHE694  ASN695  SER759  ASP760  ASP761  ALA762  ILE779  LEU786  VAL792 
 PHE793  MET794  SER795  GLU796  ALA797  LYS798  CYS799  TRP800  GLU811  SER814 

> <Gold.Protein.RotatedAtoms>
  152.2039  133.4861  159.5072 H   0  0  0  0  0  0  0  0  0  0  0  0  # atno 6907 bound_to 6896
  150.6975  134.1555  159.4165 H   0  0  0  0  0  0  0  0  0  0  0  0  # atno 6908 bound_to 6896
  151.9473  135.0185  160.0590 H   0  0  0  0  0  0  0  0  0  0  0  0  # atno 6909 bound_to 6896
  145.4895  140.9553  143.1820 H   0  0  0  0  0  0  0  0  0  0  0  0  # atno 7974 bound_to 7965
  155.8319  140.0935  157.1787 H   0  0  0  0  0  0  0  0  0  0  0  0  # atno 8008 bound_to 7997
  154.3980  140.1417  156.3684 H   0  0  0  0  0  0  0  0  0  0  0  0  # atno 8009 bound_to 7997
  155.8157  140.3448  155.5486 H   0  0  0  0  0  0  0  0  0  0  0  0  # atno 8010 bound_to 7997
  140.6178  143.8271  150.7138 H   0  0  0  0  0  0  0  0  0  0  0  0  # atno 10167 bound_to 10162
  157.2048  131.0684  151.2004 H   0  0  0  0  0  0  0  0  0  0  0  0  # atno 10718 bound_to 10713
  154.1548  135.2813  155.3125 H   0  0  0  0  0  0  0  0  0  0  0  0  # atno 10763 bound_to 10752
  154.6191  135.5473  153.7558 H   0  0  0  0  0  0  0  0  0  0  0  0  # atno 10764 bound_to 10752
  153.0210  135.6434  154.1691 H   0  0  0  0  0  0  0  0  0  0  0  0  # atno 10765 bound_to 10752
  139.9049  134.9601  156.7233 H   0  0  0  0  0  0  0  0  0  0  0  0  # atno 11005 bound_to 11000
  144.7842  139.6462  143.7141 LP  0  0  0  0  0  0  0  0  0  0  0  0  # atno 17320 bound_to 7965
  146.2293  139.5782  142.9566 LP  0  0  0  0  0  0  0  0  0  0  0  0  # atno 17321 bound_to 7965
  140.1854  143.4080  152.1902 LP  0  0  0  0  0  0  0  0  0  0  0  0  # atno 17342 bound_to 10162
  139.5413  144.7258  151.4726 LP  0  0  0  0  0  0  0  0  0  0  0  0  # atno 17343 bound_to 10162
  157.3731  130.7191  149.6578 LP  0  0  0  0  0  0  0  0  0  0  0  0  # atno 17370 bound_to 10713
  155.9696  130.4193  150.4369 LP  0  0  0  0  0  0  0  0  0  0  0  0  # atno 17371 bound_to 10713
  140.6983  133.9329  155.8008 LP  0  0  0  0  0  0  0  0  0  0  0  0  # atno 17394 bound_to 11000
  141.0391  134.0647  157.3924 LP  0  0  0  0  0  0  0  0  0  0  0  0  # atno 17395 bound_to 11000

$$$$
