AV-unprocessed.smi:158|AV-procd|sdf|1331|dock4
  -GOLD-   2262019 23D 1   1.00000     0.00000
 Structure written by MMmdl.
 31 33  0  0  0  0  0  0  0  0  1 V2000
  143.9003  141.8999  155.0749 N   0  0  0  0  0  0  0  0  0  0  0  0
  145.1081  142.0053  155.6465 C   0  0  0  0  0  0  0  0  0  0  0  0
  145.1914  142.5581  156.8789 N   0  0  0  0  0  0  0  0  0  0  0  0
  146.3786  142.6794  157.4846 C   0  0  0  0  0  0  0  0  0  0  0  0
  146.3738  143.3953  159.0531 Cl  0  0  0  0  0  0  0  0  0  0  0  0
  147.5714  142.3075  157.0101 N   0  0  0  0  0  0  0  0  0  0  0  0
  147.4956  141.7503  155.7674 C   0  0  0  0  0  0  0  0  0  0  0  0
  146.3002  141.5642  155.0215 C   0  0  0  0  0  0  0  0  0  0  0  0
  146.5892  140.9678  153.8026 N   0  0  0  0  0  0  0  0  0  0  0  0
  147.8853  140.8116  153.8310 C   0  0  0  0  0  0  0  0  0  0  0  0
  148.5139  141.2562  154.9739 N   0  0  0  0  0  0  0  0  0  0  0  0
  149.9829  141.2079  155.2654 C   0  0  2  0  0  0  0  0  0  0  0  0
  150.5863  140.2690  154.4216 O   0  0  0  0  0  0  0  0  0  0  0  0
  151.3074  139.3065  155.1910 C   0  0  2  0  0  0  0  0  0  0  0  0
  151.3455  137.9594  154.4509 C   0  0  0  0  0  0  0  0  0  0  0  0
  151.9713  136.9750  155.2465 O   0  0  0  0  0  0  0  0  0  0  0  0
  150.5676  139.2912  156.5309 C   0  0  1  0  0  0  0  0  0  0  0  0
  151.3417  138.7962  157.6048 O   0  0  0  0  0  0  0  0  0  0  0  0
  150.2281  140.7603  156.7103 C   0  0  1  0  0  0  0  0  0  0  0  0
  151.2772  141.4461  157.1713 F   0  0  0  0  0  0  0  0  0  0  0  0
  150.3352  142.2182  155.0527 H   0  0  0  0  0  0  0  0  0  0  0  0
  152.3195  139.6941  155.3234 H   0  0  0  0  0  0  0  0  0  0  0  0
  149.6510  138.7066  156.4558 H   0  0  0  0  0  0  0  0  0  0  0  0
  149.3757  140.9535  157.3631 H   0  0  0  0  0  0  0  0  0  0  0  0
  143.8136  141.4899  154.1559 H   0  0  0  0  0  0  0  0  0  0  0  0
  143.0801  142.2275  155.5642 H   0  0  0  0  0  0  0  0  0  0  0  0
  148.4250  140.3655  153.0081 H   0  0  0  0  0  0  0  0  0  0  0  0
  150.3446  137.6251  154.1793 H   0  0  0  0  0  0  0  0  0  0  0  0
  151.9135  138.0589  153.5258 H   0  0  0  0  0  0  0  0  0  0  0  0
  151.7432  137.1303  156.1505 H   0  0  0  0  0  0  0  0  0  0  0  0
  150.9690  137.9737  157.8852 H   0  0  0  0  0  0  0  0  0  0  0  0
  1  2  1  0  0  0  0
  1 25  1  0  0  0  0
  1 26  1  0  0  0  0
  2  8  1  0  0  0  0
  2  3  2  0  0  0  0
  3  4  1  0  0  0  0
  4  5  1  0  0  0  0
  4  6  2  0  0  0  0
  6  7  1  0  0  0  0
  7 11  1  0  0  0  0
  7  8  2  0  0  0  0
  8  9  1  0  0  0  0
  9 10  2  0  0  0  0
 10 11  1  0  0  0  0
 10 27  1  0  0  0  0
 11 12  1  0  0  0  0
 12 21  1  0  0  0  0
 12 19  1  0  0  0  0
 12 13  1  0  0  0  0
 13 14  1  0  0  0  0
 14 22  1  0  0  0  0
 14 15  1  0  0  0  0
 14 17  1  0  0  0  0
 15 16  1  0  0  0  0
 15 28  1  0  0  0  0
 15 29  1  0  0  0  0
 16 30  1  0  0  0  0
 17 23  1  0  0  0  0
 17 18  1  0  0  0  0
 17 19  1  0  0  0  0
 18 31  1  0  0  0  0
 19 24  1  0  0  0  0
 19 20  1  0  0  0  0
M  END
> <s_m_source_file>
AV-unprocessed.smi

> <i_m_source_file_index>
158

> <i_lp_mmshare_version>
43012

> <i_f3d_flags>
0

> <s_epik_input>
Q2xjKG4xKW5jKFtOSDJdKWMoYzEyKW5bY0hdbjJbQ0BASF0zT1tDQEhdKFtDSDJdW09IXSlbQ0BASF0oW09IXSlbQ0BASF0zRg==

> <s_epik_cmdline>
J2VwaWtfcHl0aG9uJywgJy1waCcsICc3LjAnLCAnLXRuJywgJzgnLCAnLW1hJywgJzIwMCcsICctbWV0YWxfYmluZGluZycsICctaW1hZScsICc8aW5maWxlLm1hZT4nLCAnLW9tYWUnLCAnPG91dGZpbGUubWFlPic=

> <r_lp_tautomer_probability>
1

> <r_epik_Ionization_Penalty>
6.51543e-05

> <r_epik_Ionization_Penalty_Charging>
0

> <r_epik_Ionization_Penalty_Neutral>
6.51543e-05

> <r_epik_State_Penalty>
-0

> <r_epik_Charging_Adjusted_Penalty>
0

> <i_epik_Tot_Q>
0

> <i_epik_Tot_abs_Q>
0

> <r_epik_Metal_State_Penalty>
-0

> <b_epik_Metal_Only>
0

> <s_epik_Chemistry_Notes>
This compound contains an acetal/aminal-like group ( X-CH(R)-Y where X, Y are N, S, or O) that may be acid/base labile, releasing an aldehyde.

> <s_lp_Force_Field>
OPLS_2005

> <r_lp_Energy>
33.8646

> <b_lp_Chiralities_Consistent>
1

> <s_lp_Variant>
AV-unprocessed.smi:158-9

> <Gold.Version>
5.8.1

> <Gold.Id.Protein>
6NUR|6NUR_protein|mol2

> <Gold.PLP.Fitness>
38.6422

> <Gold.PLP.PLP>
-27.6996

> <Gold.PLP.part.hbond>
-3.0450

> <Gold.PLP.part.metal>
0.0000

> <Gold.PLP.part.buried>
-5.1744

> <Gold.PLP.part.nonpolar>
-21.4200

> <Gold.PLP.part.repulsive>
0.5689

> <Gold.PLP.ligand.clash>
0.0000

> <Gold.PLP.ligand.torsion>
0.4945

> <Gold.PLP.Chemscore.Hbond>
2.9750

> <Gold.PLP.Chemscore.CHOScore>
1.0000

> <Gold.PLP.Chemscore.Metal>
0.0000

> <Gold.Chemscore.Hbonds>
donor molecule, donor type, donor heavy atom, donor atom, acceptor molecule, acceptor atom, score
      L1  H     1    25       P1 10175  0.90
      P1  H  7989  7998       L1    13  0.96
      P1  H 10752 10765       L1    16  1.00
      L1  C    10    27       P1  7957  1.00

> <Gold.PLP.Chemscore.Internal.Correction>
0.0065

> <Gold.Rescore>
     Score         DG    S(hbond)    S(metal)    S(lipo)     H(rot)  DE(clash)    DE(int)     intcor
      8.34      -8.67       2.35        0.00      28.44       3.12       0.00       0.33       ----

> <Gold.Chemscore.Fitness>
8.3395

> <Gold.Chemscore.DG>
-8.6735

> <Gold.Chemscore.ZeroCoef>
-5.4800

> <Gold.Chemscore.Hbond>
2.3536

> <Gold.Chemscore.Metal>
0.0000

> <Gold.Chemscore.Lipo>
28.4387

> <Gold.Chemscore.Internal_Hbond>
0.0000

> <Gold.Chemscore.DEClash>
0.0048

> <Gold.Chemscore.DEInternal>
0.3292

> <Gold.Chemscore.Rot>
3.1230

> <Gold.Chemscore.Internal.Correction>
   9.000000E+99

> <Gold.Chemscore.Hbonds>
donor molecule, donor type, donor heavy atom, donor atom, acceptor molecule, acceptor atom, score
      L1  H     1    25       P1 10175  0.18
      P1  H  7989  7998       L1    13  0.39
      P1  H 10752 10765       L1    16  0.95

> <Gold.Chemscore.Hbond.Weighted>
-7.8611

> <Gold.Chemscore.Metal.Weighted>
-0.0000

> <Gold.Chemscore.Lipo.Weighted>
-3.3273

> <Gold.Chemscore.Internal_Hbond.Weighted>
0.0000

> <Gold.Chemscore.DEClash.Weighted>
0.0048

> <Gold.Chemscore.DEInternal.Weighted>
0.3292

> <Gold.Chemscore.Rot.Weighted>
7.9950

> <Gold.Chemscore.Internal.Correction.Weighted>
   9.000000E+99

> <Gold.Protein.RotatedTorsions>
[ 6907 6896 6895 6894 ] final  173.12 input  -60.11 | X-H torsion
[ 7974 7965 7964 7962 ] final   32.74 input  175.53 | X-H torsion
[ 8008 7997 7996 7995 ] final  176.00 input   59.86 | X-H torsion
[ 10167 10162 10161 10158 ] final  175.55 input  -65.29 | X-H torsion
[ 10718 10713 10712 10709 ] final   61.67 input   66.30 | X-H torsion
[ 10763 10752 10751 10750 ] final -176.62 input  -60.55 | X-H torsion
[ 11005 11000 10999 10996 ] final -100.82 input  -57.11 | X-H torsion

> <Gold.Protein.ActiveResidues>
 VAL166  LYS551  ARG553  GLY616  TRP617  ASP618  TYR619  PRO620  LYS621  CYS622 
 ASP623  PHE694  ASN695  SER759  ASP760  ASP761  ALA762  ILE779  LEU786  VAL792 
 PHE793  MET794  SER795  GLU796  ALA797  LYS798  CYS799  TRP800  GLU811  SER814 

> <Gold.Protein.RotatedAtoms>
  151.7734  133.3343  159.3450 H   0  0  0  0  0  0  0  0  0  0  0  0  # atno 6907 bound_to 6896
  150.7453  134.5998  159.6040 H   0  0  0  0  0  0  0  0  0  0  0  0  # atno 6908 bound_to 6896
  152.3326  134.7242  160.0337 H   0  0  0  0  0  0  0  0  0  0  0  0  # atno 6909 bound_to 6896
  146.1467  139.6487  142.9126 H   0  0  0  0  0  0  0  0  0  0  0  0  # atno 7974 bound_to 7965
  156.0811  140.1395  156.9711 H   0  0  0  0  0  0  0  0  0  0  0  0  # atno 8008 bound_to 7997
  154.4586  140.0952  156.6877 H   0  0  0  0  0  0  0  0  0  0  0  0  # atno 8009 bound_to 7997
  155.5073  140.3452  155.4384 H   0  0  0  0  0  0  0  0  0  0  0  0  # atno 8010 bound_to 7997
  139.5181  144.3018  152.0371 H   0  0  0  0  0  0  0  0  0  0  0  0  # atno 10167 bound_to 10162
  157.5845  130.9008  149.9490 H   0  0  0  0  0  0  0  0  0  0  0  0  # atno 10718 bound_to 10713
  154.5702  135.2827  155.0835 H   0  0  0  0  0  0  0  0  0  0  0  0  # atno 10763 bound_to 10752
  154.2210  135.6391  153.5148 H   0  0  0  0  0  0  0  0  0  0  0  0  # atno 10764 bound_to 10752
  153.0055  135.5514  154.6323 H   0  0  0  0  0  0  0  0  0  0  0  0  # atno 10765 bound_to 10752
  141.1256  133.8429  157.1151 H   0  0  0  0  0  0  0  0  0  0  0  0  # atno 11005 bound_to 11000
  145.4921  141.0438  143.2587 LP  0  0  0  0  0  0  0  0  0  0  0  0  # atno 17320 bound_to 7965
  144.7855  139.6437  143.7136 LP  0  0  0  0  0  0  0  0  0  0  0  0  # atno 17321 bound_to 7965
  140.2466  144.4213  150.6238 LP  0  0  0  0  0  0  0  0  0  0  0  0  # atno 17342 bound_to 10162
  140.6254  143.2180  151.6608 LP  0  0  0  0  0  0  0  0  0  0  0  0  # atno 17343 bound_to 10162
  156.0893  130.3665  150.0426 LP  0  0  0  0  0  0  0  0  0  0  0  0  # atno 17370 bound_to 10713
  156.8560  130.9475  151.3622 LP  0  0  0  0  0  0  0  0  0  0  0  0  # atno 17371 bound_to 10713
  140.0251  134.9928  157.0669 LP  0  0  0  0  0  0  0  0  0  0  0  0  # atno 17394 bound_to 11000
  140.4376  134.1715  155.7171 LP  0  0  0  0  0  0  0  0  0  0  0  0  # atno 17395 bound_to 11000

$$$$
