AV-unprocessed.smi:2481|AV-procd|sdf|9772|dock9
  -GOLD-   2272013413D 1   1.00000     0.00000
 Structure written by MMmdl.
 37 38  0  0  0  0  0  0  0  0  1 V2000
  147.9132  132.5561  151.9530 C   0  0  0  0  0  0  0  0  0  0  0  0
  148.9862  132.1755  152.8512 N   0  0  0  0  0  0  0  0  0  0  0  0
  149.3861  130.8860  152.9516 N   0  0  0  0  0  0  0  0  0  0  0  0
  150.3666  130.9523  153.8526 C   0  0  0  0  0  0  0  0  0  0  0  0
  150.6388  132.1944  154.3511 N   0  0  0  0  0  0  0  0  0  0  0  0
  149.7384  132.9055  153.6799 C   0  0  0  0  0  0  0  0  0  0  0  0
  149.5347  134.3079  153.7806 N   0  0  0  0  0  0  0  0  0  0  0  0
  149.5714  135.0672  154.8886 C   0  0  0  0  0  0  0  0  0  0  0  0
  149.8035  134.6541  156.0251 O   0  0  0  0  0  0  0  0  0  0  0  0
  149.3254  136.3535  154.6022 N   0  0  0  0  0  0  0  0  0  0  0  0
  149.2907  137.4499  155.5718 C   0  0  1  0  0  0  0  0  0  0  0  0
  150.4745  137.3457  156.5575 C   0  0  0  0  0  0  0  0  0  0  0  0
  151.8218  137.6450  155.8793 C   0  0  0  0  0  0  0  0  0  0  0  0
  151.7991  139.0137  155.1838 C   0  0  0  0  0  0  0  0  0  0  0  0
  150.6341  139.1159  154.1864 C   0  0  0  0  0  0  0  0  0  0  0  0
  149.2757  138.8305  154.8623 C   0  0  1  0  0  0  0  0  0  0  0  0
  148.1113  139.0005  153.8633 C   0  0  0  0  0  0  0  0  0  0  0  0
  148.1571  140.2712  153.2488 O   0  0  0  0  0  0  0  0  0  0  0  0
  148.3010  133.2229  151.1824 H   0  0  0  0  0  0  0  0  0  0  0  0
  147.1319  133.0718  152.5120 H   0  0  0  0  0  0  0  0  0  0  0  0
  147.4823  131.6754  151.4746 H   0  0  0  0  0  0  0  0  0  0  0  0
  150.9071  130.0704  154.1631 H   0  0  0  0  0  0  0  0  0  0  0  0
  149.3402  134.7838  152.9121 H   0  0  0  0  0  0  0  0  0  0  0  0
  149.1489  136.5994  153.6395 H   0  0  0  0  0  0  0  0  0  0  0  0
  148.3693  137.3631  156.1504 H   0  0  0  0  0  0  0  0  0  0  0  0
  150.3219  138.0543  157.3724 H   0  0  0  0  0  0  0  0  0  0  0  0
  150.5004  136.3582  157.0202 H   0  0  0  0  0  0  0  0  0  0  0  0
  152.6226  137.6179  156.6186 H   0  0  0  0  0  0  0  0  0  0  0  0
  152.0505  136.8665  155.1504 H   0  0  0  0  0  0  0  0  0  0  0  0
  151.7082  139.8018  155.9325 H   0  0  0  0  0  0  0  0  0  0  0  0
  152.7451  139.1845  154.6695 H   0  0  0  0  0  0  0  0  0  0  0  0
  150.6270  140.1126  153.7439 H   0  0  0  0  0  0  0  0  0  0  0  0
  150.7959  138.4183  153.3637 H   0  0  0  0  0  0  0  0  0  0  0  0
  149.1443  139.5898  155.6354 H   0  0  0  0  0  0  0  0  0  0  0  0
  148.1764  138.2466  153.0781 H   0  0  0  0  0  0  0  0  0  0  0  0
  147.1441  138.8677  154.3484 H   0  0  0  0  0  0  0  0  0  0  0  0
  148.4838  140.1688  152.3679 H   0  0  0  0  0  0  0  0  0  0  0  0
  1  2  1  0  0  0  0
  1 19  1  0  0  0  0
  1 20  1  0  0  0  0
  1 21  1  0  0  0  0
  2  6  1  0  0  0  0
  2  3  1  0  0  0  0
  3  4  2  0  0  0  0
  4  5  1  0  0  0  0
  4 22  1  0  0  0  0
  5  6  2  0  0  0  0
  6  7  1  0  0  0  0
  7  8  1  0  0  0  0
  7 23  1  0  0  0  0
  8  9  2  0  0  0  0
  8 10  1  0  0  0  0
 10 11  1  0  0  0  0
 10 24  1  0  0  0  0
 11 16  1  0  0  0  0
 11 12  1  0  0  0  0
 11 25  1  0  0  0  0
 12 13  1  0  0  0  0
 12 26  1  0  0  0  0
 12 27  1  0  0  0  0
 13 14  1  0  0  0  0
 13 28  1  0  0  0  0
 13 29  1  0  0  0  0
 14 15  1  0  0  0  0
 14 30  1  0  0  0  0
 14 31  1  0  0  0  0
 15 16  1  0  0  0  0
 15 32  1  0  0  0  0
 15 33  1  0  0  0  0
 16 17  1  0  0  0  0
 16 34  1  0  0  0  0
 17 18  1  0  0  0  0
 17 35  1  0  0  0  0
 17 36  1  0  0  0  0
 18 37  1  0  0  0  0
M  END
> <s_m_source_file>
AV-unprocessed.smi

> <i_m_source_file_index>
2481

> <i_lp_mmshare_version>
43012

> <i_f3d_flags>
0

> <s_epik_input>
W0NIM11uMW5bY0hdbmMxW05IXUMoPU8pW05IXVtDQEBIXTJbQ0gyXVtDSDJdW0NIMl1bQ0gyXVtDQEhdMltDSDJdW09IXQ==

> <s_epik_cmdline>
J2VwaWtfcHl0aG9uJywgJy1waCcsICc3LjAnLCAnLXRuJywgJzgnLCAnLW1hJywgJzIwMCcsICctbWV0YWxfYmluZGluZycsICctaW1hZScsICc8aW5maWxlLm1hZT4nLCAnLW9tYWUnLCAnPG91dGZpbGUubWFlPic=

> <r_lp_tautomer_probability>
1

> <r_epik_Ionization_Penalty>
2.32704e-05

> <r_epik_Ionization_Penalty_Charging>
0

> <r_epik_Ionization_Penalty_Neutral>
2.32704e-05

> <r_epik_State_Penalty>
-0

> <r_epik_Charging_Adjusted_Penalty>
0

> <i_epik_Tot_Q>
0

> <i_epik_Tot_abs_Q>
0

> <r_epik_Metal_State_Penalty>
-0

> <b_epik_Metal_Only>
0

> <s_lp_Force_Field>
OPLS_2005

> <r_lp_Energy>
12.0368

> <b_lp_Chiralities_Consistent>
1

> <s_lp_Variant>
AV-unprocessed.smi:2481-2

> <Gold.Version>
5.8.1

> <Gold.Id.Protein>
6NUR|6NUR_protein|mol2

> <Gold.PLP.Fitness>
34.7581

> <Gold.PLP.PLP>
-26.6971

> <Gold.PLP.part.hbond>
-2.8063

> <Gold.PLP.part.metal>
0.0000

> <Gold.PLP.part.buried>
-3.7420

> <Gold.PLP.part.nonpolar>
-20.2456

> <Gold.PLP.part.repulsive>
0.3259

> <Gold.PLP.ligand.clash>
0.0000

> <Gold.PLP.ligand.torsion>
0.4785

> <Gold.PLP.Chemscore.Hbond>
3.0000

> <Gold.PLP.Chemscore.CHOScore>
0.0000

> <Gold.PLP.Chemscore.Metal>
0.0000

> <Gold.Chemscore.Hbonds>
donor molecule, donor type, donor heavy atom, donor atom, acceptor molecule, acceptor atom, score
      L1  H     7    23       P1  7948  0.15
      L1  H    10    24       P1  7948  1.00
      L1  H    18    37       P1  7957  1.00

> <Gold.PLP.Chemscore.Internal.Correction>
0.0179

> <Gold.Rescore>
     Score         DG    S(hbond)    S(metal)    S(lipo)     H(rot)  DE(clash)    DE(int)     intcor
     14.36     -14.82       2.85        0.00      41.86       1.99       0.03       0.43       ----

> <Gold.Chemscore.Fitness>
14.3619

> <Gold.Chemscore.DG>
-14.8226

> <Gold.Chemscore.ZeroCoef>
-5.4800

> <Gold.Chemscore.Hbond>
2.8543

> <Gold.Chemscore.Metal>
0.0000

> <Gold.Chemscore.Lipo>
41.8604

> <Gold.Chemscore.Internal_Hbond>
0.0000

> <Gold.Chemscore.DEClash>
0.0280

> <Gold.Chemscore.DEInternal>
0.4328

> <Gold.Chemscore.Rot>
1.9877

> <Gold.Chemscore.Internal.Correction>
   9.000000E+99

> <Gold.Chemscore.Hbonds>
donor molecule, donor type, donor heavy atom, donor atom, acceptor molecule, acceptor atom, score
      L1  H    10    24       P1  7948  0.96
      L1  H    18    37       P1  7957  0.99

> <Gold.Chemscore.Hbond.Weighted>
-9.5335

> <Gold.Chemscore.Metal.Weighted>
-0.0000

> <Gold.Chemscore.Lipo.Weighted>
-4.8977

> <Gold.Chemscore.Internal_Hbond.Weighted>
0.0000

> <Gold.Chemscore.DEClash.Weighted>
0.0280

> <Gold.Chemscore.DEInternal.Weighted>
0.4328

> <Gold.Chemscore.Rot.Weighted>
5.0885

> <Gold.Chemscore.Internal.Correction.Weighted>
   9.000000E+99

> <Gold.Protein.RotatedTorsions>
[ 6907 6896 6895 6894 ] final  135.43 input  -60.11 | X-H torsion
[ 7974 7965 7964 7962 ] final    4.55 input  175.53 | X-H torsion
[ 8008 7997 7996 7995 ] final  -30.56 input   59.86 | X-H torsion
[ 10167 10162 10161 10158 ] final -117.02 input  -65.29 | X-H torsion
[ 10718 10713 10712 10709 ] final    2.19 input   66.30 | X-H torsion
[ 10763 10752 10751 10750 ] final   31.11 input  -60.55 | X-H torsion
[ 11005 11000 10999 10996 ] final  149.73 input  -57.11 | X-H torsion

> <Gold.Protein.ActiveResidues>
 VAL166  LYS551  ARG553  GLY616  TRP617  ASP618  TYR619  PRO620  LYS621  CYS622 
 ASP623  PHE694  ASN695  SER759  ASP760  ASP761  ALA762  ILE779  LEU786  VAL792 
 PHE793  MET794  SER795  GLU796  ALA797  LYS798  CYS799  TRP800  GLU811  SER814 

> <Gold.Protein.RotatedAtoms>
  152.3005  133.5650  159.5614 H   0  0  0  0  0  0  0  0  0  0  0  0  # atno 6907 bound_to 6896
  150.7275  134.0299  159.3738 H   0  0  0  0  0  0  0  0  0  0  0  0  # atno 6908 bound_to 6896
  151.8199  135.0655  160.0474 H   0  0  0  0  0  0  0  0  0  0  0  0  # atno 6909 bound_to 6896
  146.2443  140.0518  142.8374 H   0  0  0  0  0  0  0  0  0  0  0  0  # atno 7974 bound_to 7965
  154.4246  140.1788  156.1427 H   0  0  0  0  0  0  0  0  0  0  0  0  # atno 8008 bound_to 7997
  155.9978  140.3363  155.6791 H   0  0  0  0  0  0  0  0  0  0  0  0  # atno 8009 bound_to 7997
  155.6284  140.0667  157.2647 H   0  0  0  0  0  0  0  0  0  0  0  0  # atno 8010 bound_to 7997
  140.0729  143.4860  152.1969 H   0  0  0  0  0  0  0  0  0  0  0  0  # atno 10167 bound_to 10162
  156.8593  130.5581  149.5664 H   0  0  0  0  0  0  0  0  0  0  0  0  # atno 10718 bound_to 10713
  153.0334  135.6447  154.1149 H   0  0  0  0  0  0  0  0  0  0  0  0  # atno 10763 bound_to 10752
  154.0867  135.2869  155.3281 H   0  0  0  0  0  0  0  0  0  0  0  0  # atno 10764 bound_to 10752
  154.6493  135.5432  153.7946 H   0  0  0  0  0  0  0  0  0  0  0  0  # atno 10765 bound_to 10752
  140.1070  134.8948  157.1880 H   0  0  0  0  0  0  0  0  0  0  0  0  # atno 11005 bound_to 11000
  145.0978  140.9326  143.4731 LP  0  0  0  0  0  0  0  0  0  0  0  0  # atno 17320 bound_to 7965
  145.0704  139.3036  143.5835 LP  0  0  0  0  0  0  0  0  0  0  0  0  # atno 17321 bound_to 7965
  139.5825  144.7517  151.3603 LP  0  0  0  0  0  0  0  0  0  0  0  0  # atno 17342 bound_to 10162
  140.7116  143.7374  150.7578 LP  0  0  0  0  0  0  0  0  0  0  0  0  # atno 17343 bound_to 10162
  156.0785  130.5801  150.9519 LP  0  0  0  0  0  0  0  0  0  0  0  0  # atno 17370 bound_to 10713
  157.6259  131.0925  150.8535 LP  0  0  0  0  0  0  0  0  0  0  0  0  # atno 17371 bound_to 10713
  140.3142  134.2989  155.7260 LP  0  0  0  0  0  0  0  0  0  0  0  0  # atno 17394 bound_to 11000
  141.2120  133.7669  156.9820 LP  0  0  0  0  0  0  0  0  0  0  0  0  # atno 17395 bound_to 11000

$$$$
