AV-unprocessed.smi:1370|AV-procd|sdf|5580|dock3
  -GOLD-   22720 5173D 1   1.00000     0.00000
 Structure written by MMmdl.
 39 40  0  0  0  0  0  0  0  0  1 V2000
  150.9625  140.4878  154.8245 O   0  0  0  0  0  0  0  0  0  0  0  0
  149.9621  141.1838  155.0038 C   0  0  0  0  0  0  0  0  0  0  0  0
  148.6082  140.7871  154.3983 C   0  0  0  0  0  0  0  0  0  0  0  0
  147.5019  141.6601  154.8243 N   0  0  0  0  0  0  0  0  0  0  0  0
  146.9327  142.4990  153.8455 C   0  0  0  0  0  0  0  0  0  0  0  0
  145.9195  143.3334  154.1277 C   0  0  0  0  0  0  0  0  0  0  0  0
  145.4108  143.3567  155.4786 C   0  0  0  0  0  0  0  0  0  0  0  0
  145.9505  142.5612  156.4233 C   0  0  0  0  0  0  0  0  0  0  0  0
  147.0610  141.6509  156.1201 C   0  0  0  0  0  0  0  0  0  0  0  0
  147.5630  140.9241  156.9783 O   0  0  0  0  0  0  0  0  0  0  0  0
  149.9686  142.3011  155.7458 N   0  0  0  0  0  0  0  0  0  0  0  0
  151.1314  142.8417  156.4422 C   0  0  0  0  0  0  0  0  0  0  0  0
  151.1750  142.4006  157.9141 C   0  0  0  0  0  0  0  0  0  0  0  0
  152.3078  143.4240  158.8983 S   0  0  0  0  0  0  0  0  0  0  0  0
  152.3937  142.4388  160.4207 C   0  0  0  0  0  0  0  0  0  0  0  0
  152.7188  143.2882  161.6482 C   0  0  0  0  0  0  0  0  0  0  0  0
  153.2222  142.2717  162.6716 C   0  0  0  0  0  0  0  0  0  0  0  0
  153.9540  141.1996  161.8533 C   0  0  0  0  0  0  0  0  0  0  0  0
  153.5019  141.3788  160.3952 C   0  0  0  0  0  0  0  0  0  0  0  0
  148.7083  140.7997  153.3124 H   0  0  0  0  0  0  0  0  0  0  0  0
  148.3852  139.7487  154.6508 H   0  0  0  0  0  0  0  0  0  0  0  0
  147.3751  142.4257  152.8627 H   0  0  0  0  0  0  0  0  0  0  0  0
  145.4991  143.9729  153.3657 H   0  0  0  0  0  0  0  0  0  0  0  0
  144.5941  144.0158  155.7336 H   0  0  0  0  0  0  0  0  0  0  0  0
  145.5571  142.5926  157.4288 H   0  0  0  0  0  0  0  0  0  0  0  0
  149.1011  142.8074  155.8488 H   0  0  0  0  0  0  0  0  0  0  0  0
  152.0457  142.5347  155.9318 H   0  0  0  0  0  0  0  0  0  0  0  0
  151.0970  143.9295  156.3802 H   0  0  0  0  0  0  0  0  0  0  0  0
  150.1786  142.4411  158.3550 H   0  0  0  0  0  0  0  0  0  0  0  0
  151.5049  141.3634  157.9744 H   0  0  0  0  0  0  0  0  0  0  0  0
  151.4307  141.9514  160.5800 H   0  0  0  0  0  0  0  0  0  0  0  0
  153.5139  143.9984  161.4157 H   0  0  0  0  0  0  0  0  0  0  0  0
  151.8591  143.8542  162.0078 H   0  0  0  0  0  0  0  0  0  0  0  0
  153.8591  142.7260  163.4310 H   0  0  0  0  0  0  0  0  0  0  0  0
  152.3709  141.8206  163.1828 H   0  0  0  0  0  0  0  0  0  0  0  0
  155.0342  141.3310  161.9279 H   0  0  0  0  0  0  0  0  0  0  0  0
  153.7216  140.2016  162.2260 H   0  0  0  0  0  0  0  0  0  0  0  0
  153.1564  140.4428  159.9555 H   0  0  0  0  0  0  0  0  0  0  0  0
  154.3453  141.7274  159.7975 H   0  0  0  0  0  0  0  0  0  0  0  0
  1  2  2  0  0  0  0
  2  3  1  0  0  0  0
  2 11  1  0  0  0  0
  3  4  1  0  0  0  0
  3 20  1  0  0  0  0
  3 21  1  0  0  0  0
  4  9  1  0  0  0  0
  4  5  1  0  0  0  0
  5  6  2  0  0  0  0
  5 22  1  0  0  0  0
  6  7  1  0  0  0  0
  6 23  1  0  0  0  0
  7  8  2  0  0  0  0
  7 24  1  0  0  0  0
  8  9  1  0  0  0  0
  8 25  1  0  0  0  0
  9 10  2  0  0  0  0
 11 12  1  0  0  0  0
 11 26  1  0  0  0  0
 12 13  1  0  0  0  0
 12 27  1  0  0  0  0
 12 28  1  0  0  0  0
 13 14  1  0  0  0  0
 13 29  1  0  0  0  0
 13 30  1  0  0  0  0
 14 15  1  0  0  0  0
 15 19  1  0  0  0  0
 15 16  1  0  0  0  0
 15 31  1  0  0  0  0
 16 17  1  0  0  0  0
 16 32  1  0  0  0  0
 16 33  1  0  0  0  0
 17 18  1  0  0  0  0
 17 34  1  0  0  0  0
 17 35  1  0  0  0  0
 18 19  1  0  0  0  0
 18 36  1  0  0  0  0
 18 37  1  0  0  0  0
 19 38  1  0  0  0  0
 19 39  1  0  0  0  0
M  END
> <s_m_source_file>
AV-unprocessed.smi

> <i_m_source_file_index>
1370

> <i_lp_mmshare_version>
43012

> <i_f3d_flags>
0

> <s_epik_input>
Tz1jMVtjSF1bY0hdW2NIXVtjSF1uMVtDSDJdQyg9TylbTkhdW0NIMl1bQ0gyXVNbQ0hdMltDSDJdW0NIMl1bQ0gyXVtDSDJdMg==

> <s_epik_cmdline>
J2VwaWtfcHl0aG9uJywgJy1waCcsICc3LjAnLCAnLXRuJywgJzgnLCAnLW1hJywgJzIwMCcsICctbWV0YWxfYmluZGluZycsICctaW1hZScsICc8aW5maWxlLm1hZT4nLCAnLW9tYWUnLCAnPG91dGZpbGUubWFlPic=

> <r_lp_tautomer_probability>
1

> <r_epik_Ionization_Penalty>
3.75756e-07

> <r_epik_Ionization_Penalty_Charging>
3.52005e-07

> <r_epik_Ionization_Penalty_Neutral>
2.37506e-08

> <r_epik_State_Penalty>
-0

> <r_epik_Charging_Adjusted_Penalty>
3.52005e-07

> <i_epik_Tot_Q>
0

> <i_epik_Tot_abs_Q>
0

> <r_epik_Metal_State_Penalty>
-0

> <b_epik_Metal_Only>
0

> <s_lp_Force_Field>
OPLS_2005

> <r_lp_Energy>
28.6611

> <b_lp_Chiralities_Consistent>
1

> <s_lp_Variant>
AV-unprocessed.smi:1370-1

> <Gold.Version>
5.8.1

> <Gold.Id.Protein>
6NUR|6NUR_protein|mol2

> <Gold.PLP.Fitness>
50.7999

> <Gold.PLP.PLP>
-47.6946

> <Gold.PLP.part.hbond>
-2.0000

> <Gold.PLP.part.metal>
0.0000

> <Gold.PLP.part.buried>
-4.1508

> <Gold.PLP.part.nonpolar>
-40.7292

> <Gold.PLP.part.repulsive>
0.2646

> <Gold.PLP.ligand.clash>
0.0000

> <Gold.PLP.ligand.torsion>
0.6977

> <Gold.PLP.Chemscore.Hbond>
1.4800

> <Gold.PLP.Chemscore.CHOScore>
0.0000

> <Gold.PLP.Chemscore.Metal>
0.0000

> <Gold.Chemscore.Hbonds>
donor molecule, donor type, donor heavy atom, donor atom, acceptor molecule, acceptor atom, score
      L1  H    11    26       P1  8028  0.51
      P1  H  7989  7998       L1     1  1.00

> <Gold.PLP.Chemscore.Internal.Correction>
0.0608

> <Gold.Rescore>
     Score         DG    S(hbond)    S(metal)    S(lipo)     H(rot)  DE(clash)    DE(int)     intcor
     14.54     -17.29       1.04        0.00     112.10       1.87       1.45       1.29       ----

> <Gold.Chemscore.Fitness>
14.5416

> <Gold.Chemscore.DG>
-17.2870

> <Gold.Chemscore.ZeroCoef>
-5.4800

> <Gold.Chemscore.Hbond>
1.0402

> <Gold.Chemscore.Metal>
0.0000

> <Gold.Chemscore.Lipo>
112.0961

> <Gold.Chemscore.Internal_Hbond>
0.0000

> <Gold.Chemscore.DEClash>
1.4509

> <Gold.Chemscore.DEInternal>
1.2945

> <Gold.Chemscore.Rot>
1.8682

> <Gold.Chemscore.Internal.Correction>
   9.000000E+99

> <Gold.Chemscore.Hbonds>
donor molecule, donor type, donor heavy atom, donor atom, acceptor molecule, acceptor atom, score
      L1  H    11    26       P1  8028  0.52
      P1  H  7989  7998       L1     1  0.67

> <Gold.Chemscore.Hbond.Weighted>
-3.4744

> <Gold.Chemscore.Metal.Weighted>
-0.0000

> <Gold.Chemscore.Lipo.Weighted>
-13.1152

> <Gold.Chemscore.Internal_Hbond.Weighted>
0.0000

> <Gold.Chemscore.DEClash.Weighted>
1.4509

> <Gold.Chemscore.DEInternal.Weighted>
1.2945

> <Gold.Chemscore.Rot.Weighted>
4.7827

> <Gold.Chemscore.Internal.Correction.Weighted>
   9.000000E+99

> <Gold.Protein.RotatedTorsions>
[ 6907 6896 6895 6894 ] final -115.10 input  -60.11 | X-H torsion
[ 7974 7965 7964 7962 ] final  -23.70 input  175.53 | X-H torsion
[ 8008 7997 7996 7995 ] final  -82.37 input   59.86 | X-H torsion
[ 10167 10162 10161 10158 ] final  -95.38 input  -65.29 | X-H torsion
[ 10718 10713 10712 10709 ] final -145.22 input   66.30 | X-H torsion
[ 10763 10752 10751 10750 ] final  -67.06 input  -60.55 | X-H torsion
[ 11005 11000 10999 10996 ] final -118.99 input  -57.11 | X-H torsion

> <Gold.Protein.ActiveResidues>
 VAL166  LYS551  ARG553  GLY616  TRP617  ASP618  TYR619  PRO620  LYS621  CYS622 
 ASP623  PHE694  ASN695  SER759  ASP760  ASP761  ALA762  ILE779  LEU786  VAL792 
 PHE793  MET794  SER795  GLU796  ALA797  LYS798  CYS799  TRP800  GLU811  SER814 

> <Gold.Protein.RotatedAtoms>
  150.7952  133.8707  159.3257 H   0  0  0  0  0  0  0  0  0  0  0  0  # atno 6907 bound_to 6896
  151.6534  135.0997  160.0174 H   0  0  0  0  0  0  0  0  0  0  0  0  # atno 6908 bound_to 6896
  152.4032  133.6811  159.6369 H   0  0  0  0  0  0  0  0  0  0  0  0  # atno 6909 bound_to 6896
  146.1600  140.4652  142.8575 H   0  0  0  0  0  0  0  0  0  0  0  0  # atno 7974 bound_to 7965
  154.6080  140.0634  156.9456 H   0  0  0  0  0  0  0  0  0  0  0  0  # atno 8008 bound_to 7997
  155.2021  140.3316  155.4323 H   0  0  0  0  0  0  0  0  0  0  0  0  # atno 8009 bound_to 7997
  156.2359  140.1862  156.7104 H   0  0  0  0  0  0  0  0  0  0  0  0  # atno 8010 bound_to 7997
  140.3048  143.3141  152.0211 H   0  0  0  0  0  0  0  0  0  0  0  0  # atno 10167 bound_to 10162
  156.3797  130.7831  151.2021 H   0  0  0  0  0  0  0  0  0  0  0  0  # atno 10718 bound_to 10713
  154.3689  135.6099  153.5729 H   0  0  0  0  0  0  0  0  0  0  0  0  # atno 10763 bound_to 10752
  152.9791  135.5833  154.4545 H   0  0  0  0  0  0  0  0  0  0  0  0  # atno 10764 bound_to 10752
  154.4295  135.2847  155.1899 H   0  0  0  0  0  0  0  0  0  0  0  0  # atno 10765 bound_to 10752
  141.0247  134.0072  157.3232 H   0  0  0  0  0  0  0  0  0  0  0  0  # atno 11005 bound_to 11000
  144.8014  140.6220  143.6475 LP  0  0  0  0  0  0  0  0  0  0  0  0  # atno 17320 bound_to 7965
  145.4612  139.1512  143.3865 LP  0  0  0  0  0  0  0  0  0  0  0  0  # atno 17321 bound_to 7965
  139.4907  144.6429  151.6839 LP  0  0  0  0  0  0  0  0  0  0  0  0  # atno 17342 bound_to 10162
  140.5620  144.0253  150.6174 LP  0  0  0  0  0  0  0  0  0  0  0  0  # atno 17343 bound_to 10162
  157.7491  131.0347  150.4332 LP  0  0  0  0  0  0  0  0  0  0  0  0  # atno 17370 bound_to 10713
  156.4574  130.4024  149.6598 LP  0  0  0  0  0  0  0  0  0  0  0  0  # atno 17371 bound_to 10713
  139.9168  135.0197  156.7913 LP  0  0  0  0  0  0  0  0  0  0  0  0  # atno 17394 bound_to 11000
  140.6512  133.9730  155.7756 LP  0  0  0  0  0  0  0  0  0  0  0  0  # atno 17395 bound_to 11000

$$$$
