AV-unprocessed.smi:3168|AV-procd|sdf|12101|dock1
  -GOLD-   2272017533D 1   1.00000     0.00000
 Structure written by MMmdl.
 33 34  0  0  0  0  0  0  0  0  1 V2000
  150.3880  138.9715  154.9421 C   0  0  0  0  0  0  0  0  0  0  0  0
  149.9678  140.4527  155.0387 C   0  0  2  0  0  0  0  0  0  0  0  0
  149.9664  140.9856  156.4823 C   0  0  0  0  0  0  0  0  0  0  0  0
  148.9366  141.4340  156.9877 O   0  0  0  0  0  0  0  0  0  0  0  0
  151.1344  140.9161  157.1414 N   0  0  0  0  0  0  0  0  0  0  0  0
  151.3491  141.3305  158.5228 C   0  0  0  0  0  0  0  0  0  0  0  0
  152.2258  142.5909  158.5969 C   0  0  1  0  0  0  0  0  0  0  0  0
  151.7001  143.7533  157.7579 C   0  0  0  0  0  0  0  0  0  0  0  0
  152.3625  144.9347  158.4290 C   0  0  0  0  0  0  0  0  0  0  0  0
  152.3135  144.5329  159.9013 C   0  0  0  0  0  0  0  0  0  0  0  0
  152.2739  143.1078  159.9243 O   0  0  0  0  0  0  0  0  0  0  0  0
  148.6813  140.6963  154.3949 N   0  0  0  0  0  0  0  0  0  0  0  0
  148.0362  141.9038  154.2172 C   0  0  0  0  0  0  0  0  0  0  0  0
  146.8474  141.6473  153.5964 C   0  0  0  0  0  0  0  0  0  0  0  0
  146.8470  140.2337  153.4386 C   0  0  0  0  0  0  0  0  0  0  0  0
  147.9403  139.6669  153.9218 N   0  0  0  0  0  0  0  0  0  0  0  0
  151.3779  138.8140  155.3721 H   0  0  0  0  0  0  0  0  0  0  0  0
  150.4295  138.6469  153.9021 H   0  0  0  0  0  0  0  0  0  0  0  0
  149.6922  138.3142  155.4654 H   0  0  0  0  0  0  0  0  0  0  0  0
  150.7138  141.0326  154.4930 H   0  0  0  0  0  0  0  0  0  0  0  0
  151.9310  140.5345  156.6525 H   0  0  0  0  0  0  0  0  0  0  0  0
  150.3718  141.5396  158.9586 H   0  0  0  0  0  0  0  0  0  0  0  0
  151.7829  140.5231  159.1150 H   0  0  0  0  0  0  0  0  0  0  0  0
  153.2463  142.3607  158.2858 H   0  0  0  0  0  0  0  0  0  0  0  0
  151.9530  143.6644  156.7011 H   0  0  0  0  0  0  0  0  0  0  0  0
  150.6155  143.8337  157.8463 H   0  0  0  0  0  0  0  0  0  0  0  0
  153.3981  145.0185  158.0968 H   0  0  0  0  0  0  0  0  0  0  0  0
  151.8612  145.8817  158.2277 H   0  0  0  0  0  0  0  0  0  0  0  0
  153.1688  144.9142  160.4594 H   0  0  0  0  0  0  0  0  0  0  0  0
  151.4061  144.9108  160.3733 H   0  0  0  0  0  0  0  0  0  0  0  0
  148.4721  142.8363  154.5446 H   0  0  0  0  0  0  0  0  0  0  0  0
  146.0918  142.3607  153.3027 H   0  0  0  0  0  0  0  0  0  0  0  0
  146.0889  139.6062  152.9935 H   0  0  0  0  0  0  0  0  0  0  0  0
  1  2  1  0  0  0  0
  1 17  1  0  0  0  0
  1 18  1  0  0  0  0
  1 19  1  0  0  0  0
  2  3  1  0  0  0  0
  2 12  1  0  0  0  0
  2 20  1  0  0  0  0
  3  4  2  0  0  0  0
  3  5  1  0  0  0  0
  5  6  1  0  0  0  0
  5 21  1  0  0  0  0
  6  7  1  0  0  0  0
  6 22  1  0  0  0  0
  6 23  1  0  0  0  0
  7 11  1  0  0  0  0
  7  8  1  0  0  0  0
  7 24  1  0  0  0  0
  8  9  1  0  0  0  0
  8 25  1  0  0  0  0
  8 26  1  0  0  0  0
  9 10  1  0  0  0  0
  9 27  1  0  0  0  0
  9 28  1  0  0  0  0
 10 11  1  0  0  0  0
 10 29  1  0  0  0  0
 10 30  1  0  0  0  0
 12 16  1  0  0  0  0
 12 13  1  0  0  0  0
 13 14  2  0  0  0  0
 13 31  1  0  0  0  0
 14 15  1  0  0  0  0
 14 32  1  0  0  0  0
 15 16  2  0  0  0  0
 15 33  1  0  0  0  0
M  END
> <s_m_source_file>
AV-unprocessed.smi

> <i_m_source_file_index>
3168

> <i_lp_mmshare_version>
43012

> <i_f3d_flags>
0

> <s_epik_input>
bjFbY0hdW2NIXVtjSF1uMVtDQEhdKFtDSDNdKUMoPU8pW05IXVtDSDJdW0NAQEhdMltDSDJdW0NIMl1bQ0gyXU8y

> <s_epik_cmdline>
J2VwaWtfcHl0aG9uJywgJy1waCcsICc3LjAnLCAnLXRuJywgJzgnLCAnLW1hJywgJzIwMCcsICctbWV0YWxfYmluZGluZycsICctaW1hZScsICc8aW5maWxlLm1hZT4nLCAnLW9tYWUnLCAnPG91dGZpbGUubWFlPic=

> <r_lp_tautomer_probability>
1

> <r_epik_Ionization_Penalty>
4.14877e-05

> <r_epik_Ionization_Penalty_Charging>
0

> <r_epik_Ionization_Penalty_Neutral>
4.14877e-05

> <r_epik_State_Penalty>
-0

> <r_epik_Charging_Adjusted_Penalty>
0

> <i_epik_Tot_Q>
0

> <i_epik_Tot_abs_Q>
0

> <r_epik_Metal_State_Penalty>
-0

> <b_epik_Metal_Only>
0

> <s_lp_Force_Field>
OPLS_2005

> <r_lp_Energy>
21.5397

> <b_lp_Chiralities_Consistent>
1

> <s_lp_Variant>
AV-unprocessed.smi:3168-3

> <Gold.Version>
5.8.1

> <Gold.Id.Protein>
6NUR|6NUR_protein|mol2

> <Gold.PLP.Fitness>
40.2810

> <Gold.PLP.PLP>
-34.9266

> <Gold.PLP.part.hbond>
0.0000

> <Gold.PLP.part.metal>
0.0000

> <Gold.PLP.part.buried>
-3.5418

> <Gold.PLP.part.nonpolar>
-32.1255

> <Gold.PLP.part.repulsive>
0.3375

> <Gold.PLP.ligand.clash>
0.0000

> <Gold.PLP.ligand.torsion>
0.1362

> <Gold.PLP.Chemscore.Hbond>
0.0000

> <Gold.PLP.Chemscore.CHOScore>
1.8384

> <Gold.PLP.Chemscore.Metal>
0.0000

> <Gold.Chemscore.Hbonds>
donor molecule, donor type, donor heavy atom, donor atom, acceptor molecule, acceptor atom, score
      L1  C    13    31       P1  8028  1.00
      L1  C    15    33       P1 10175  0.68

> <Gold.PLP.Chemscore.Internal.Correction>
0.1115

> <Gold.Rescore>
     Score         DG    S(hbond)    S(metal)    S(lipo)     H(rot)  DE(clash)    DE(int)     intcor
     11.37     -12.43       0.00        0.00      94.65       1.61       0.09       0.97       ----

> <Gold.Chemscore.Fitness>
11.3742

> <Gold.Chemscore.DG>
-12.4340

> <Gold.Chemscore.ZeroCoef>
-5.4800

> <Gold.Chemscore.Hbond>
0.0000

> <Gold.Chemscore.Metal>
0.0000

> <Gold.Chemscore.Lipo>
94.6502

> <Gold.Chemscore.Internal_Hbond>
0.0000

> <Gold.Chemscore.DEClash>
0.0906

> <Gold.Chemscore.DEInternal>
0.9692

> <Gold.Chemscore.Rot>
1.6094

> <Gold.Chemscore.Internal.Correction>
   9.000000E+99

> <Gold.Chemscore.Hbond.Weighted>
-0.0000

> <Gold.Chemscore.Metal.Weighted>
-0.0000

> <Gold.Chemscore.Lipo.Weighted>
-11.0741

> <Gold.Chemscore.Internal_Hbond.Weighted>
0.0000

> <Gold.Chemscore.DEClash.Weighted>
0.0906

> <Gold.Chemscore.DEInternal.Weighted>
0.9692

> <Gold.Chemscore.Rot.Weighted>
4.1201

> <Gold.Chemscore.Internal.Correction.Weighted>
   9.000000E+99

> <Gold.Protein.RotatedTorsions>
[ 6907 6896 6895 6894 ] final   60.58 input  -60.11 | X-H torsion
[ 7974 7965 7964 7962 ] final    4.40 input  175.53 | X-H torsion
[ 8008 7997 7996 7995 ] final  -89.60 input   59.86 | X-H torsion
[ 10167 10162 10161 10158 ] final  -60.33 input  -65.29 | X-H torsion
[ 10718 10713 10712 10709 ] final   64.00 input   66.30 | X-H torsion
[ 10763 10752 10751 10750 ] final   43.13 input  -60.55 | X-H torsion
[ 11005 11000 10999 10996 ] final  136.46 input  -57.11 | X-H torsion

> <Gold.Protein.ActiveResidues>
 VAL166  LYS551  ARG553  GLY616  TRP617  ASP618  TYR619  PRO620  LYS621  CYS622 
 ASP623  PHE694  ASN695  SER759  ASP760  ASP761  ALA762  ILE779  LEU786  VAL792 
 PHE793  MET794  SER795  GLU796  ALA797  LYS798  CYS799  TRP800  GLU811  SER814 

> <Gold.Protein.RotatedAtoms>
  152.4015  134.6278  160.0067 H   0  0  0  0  0  0  0  0  0  0  0  0  # atno 6907 bound_to 6896
  151.6482  133.3316  159.3154 H   0  0  0  0  0  0  0  0  0  0  0  0  # atno 6908 bound_to 6896
  150.7915  134.6984  159.6581 H   0  0  0  0  0  0  0  0  0  0  0  0  # atno 6909 bound_to 6896
  146.2444  140.0540  142.8373 H   0  0  0  0  0  0  0  0  0  0  0  0  # atno 7974 bound_to 7965
  154.6885  140.0540  157.0339 H   0  0  0  0  0  0  0  0  0  0  0  0  # atno 8008 bound_to 7997
  155.0850  140.3213  155.4571 H   0  0  0  0  0  0  0  0  0  0  0  0  # atno 8009 bound_to 7997
  156.2720  140.2058  156.5978 H   0  0  0  0  0  0  0  0  0  0  0  0  # atno 8010 bound_to 7997
  140.6078  143.2378  151.5781 H   0  0  0  0  0  0  0  0  0  0  0  0  # atno 10167 bound_to 10162
  157.6010  130.9136  149.9789 H   0  0  0  0  0  0  0  0  0  0  0  0  # atno 10718 bound_to 10713
  152.9867  135.6111  154.3062 H   0  0  0  0  0  0  0  0  0  0  0  0  # atno 10763 bound_to 10752
  154.2780  135.2778  155.2711 H   0  0  0  0  0  0  0  0  0  0  0  0  # atno 10764 bound_to 10752
  154.5063  135.5853  153.6627 H   0  0  0  0  0  0  0  0  0  0  0  0  # atno 10765 bound_to 10752
  140.0048  134.9464  157.0150 H   0  0  0  0  0  0  0  0  0  0  0  0  # atno 11005 bound_to 11000
  145.0959  140.9314  143.4741 LP  0  0  0  0  0  0  0  0  0  0  0  0  # atno 17320 bound_to 7965
  145.0723  139.3022  143.5826 LP  0  0  0  0  0  0  0  0  0  0  0  0  # atno 17321 bound_to 7965
  139.5338  144.2840  152.1206 LP  0  0  0  0  0  0  0  0  0  0  0  0  # atno 17342 bound_to 10162
  140.2033  144.4636  150.6421 LP  0  0  0  0  0  0  0  0  0  0  0  0  # atno 17343 bound_to 10162
  156.1083  130.3651  150.0094 LP  0  0  0  0  0  0  0  0  0  0  0  0  # atno 17370 bound_to 10713
  156.8197  130.9354  151.3641 LP  0  0  0  0  0  0  0  0  0  0  0  0  # atno 17371 bound_to 10713
  140.4662  134.1433  155.7197 LP  0  0  0  0  0  0  0  0  0  0  0  0  # atno 17394 bound_to 11000
  141.1668  133.8686  157.1689 LP  0  0  0  0  0  0  0  0  0  0  0  0  # atno 17395 bound_to 11000

$$$$
