AV-unprocessed.smi:3299|AV-procd|sdf|12648|dock2
  -GOLD-   2272018583D 1   1.00000     0.00000
 Structure written by MMmdl.
 34 35  0  0  0  0  0  0  0  0  1 V2000
  152.7377  142.5761  161.9972 C   0  0  0  0  0  0  0  0  0  0  0  0
  152.1299  143.2566  160.8112 C   0  0  0  0  0  0  0  0  0  0  0  0
  152.1851  144.5949  160.5072 C   0  0  0  0  0  0  0  0  0  0  0  0
  151.3357  144.9649  159.0301 S   0  0  0  0  0  0  0  0  0  0  0  0
  150.9343  143.2612  158.8800 C   0  0  0  0  0  0  0  0  0  0  0  0
  150.1622  142.7636  157.7976 N   0  0  0  0  0  0  0  0  0  0  0  0
  149.8674  141.4843  157.5068 C   0  0  0  0  0  0  0  0  0  0  0  0
  150.2696  140.5021  158.1309 O   0  0  0  0  0  0  0  0  0  0  0  0
  149.0694  141.4039  156.4322 N   0  0  0  0  0  0  0  0  0  0  0  0
  148.5456  140.1679  155.8551 C   0  0  2  0  0  0  0  0  0  0  0  0
  149.6986  139.3705  155.2142 C   0  0  0  0  0  0  0  0  0  0  0  0
  149.2512  138.0563  154.5527 C   0  0  0  0  0  0  0  0  0  0  0  0
  150.3439  137.4603  153.8880 O   0  0  0  0  0  0  0  0  0  0  0  0
  147.4344  140.4098  154.8465 C   0  0  0  0  0  0  0  0  0  0  0  0
  147.5743  141.4420  153.7522 C   0  0  0  0  0  0  0  0  0  0  0  0
  146.6066  141.6726  154.8899 C   0  0  0  0  0  0  0  0  0  0  0  0
  151.4143  142.5056  159.8744 N   0  0  0  0  0  0  0  0  0  0  0  0
  153.2674  143.2839  162.6350 H   0  0  0  0  0  0  0  0  0  0  0  0
  153.4511  141.8114  161.6892 H   0  0  0  0  0  0  0  0  0  0  0  0
  151.9743  142.0910  162.6061 H   0  0  0  0  0  0  0  0  0  0  0  0
  152.6713  145.3838  161.0622 H   0  0  0  0  0  0  0  0  0  0  0  0
  149.7767  143.4646  157.1822 H   0  0  0  0  0  0  0  0  0  0  0  0
  148.7905  142.2643  155.9839 H   0  0  0  0  0  0  0  0  0  0  0  0
  148.1347  139.5551  156.6601 H   0  0  0  0  0  0  0  0  0  0  0  0
  150.1848  139.9917  154.4605 H   0  0  0  0  0  0  0  0  0  0  0  0
  150.4599  139.1603  155.9671 H   0  0  0  0  0  0  0  0  0  0  0  0
  148.8668  137.3528  155.2914 H   0  0  0  0  0  0  0  0  0  0  0  0
  148.4551  138.2413  153.8310 H   0  0  0  0  0  0  0  0  0  0  0  0
  150.3228  137.7223  152.9801 H   0  0  0  0  0  0  0  0  0  0  0  0
  146.8895  139.5065  154.5783 H   0  0  0  0  0  0  0  0  0  0  0  0
  148.4780  142.0477  153.7344 H   0  0  0  0  0  0  0  0  0  0  0  0
  147.1586  141.1966  152.7771 H   0  0  0  0  0  0  0  0  0  0  0  0
  145.5441  141.5833  154.6732 H   0  0  0  0  0  0  0  0  0  0  0  0
  146.8711  142.4287  155.6268 H   0  0  0  0  0  0  0  0  0  0  0  0
  1  2  1  0  0  0  0
  1 18  1  0  0  0  0
  1 19  1  0  0  0  0
  1 20  1  0  0  0  0
  2 17  1  0  0  0  0
  2  3  2  0  0  0  0
  3  4  1  0  0  0  0
  3 21  1  0  0  0  0
  4  5  1  0  0  0  0
  5  6  1  0  0  0  0
  5 17  2  0  0  0  0
  6  7  1  0  0  0  0
  6 22  1  0  0  0  0
  7  8  2  0  0  0  0
  7  9  1  0  0  0  0
  9 10  1  0  0  0  0
  9 23  1  0  0  0  0
 10 11  1  0  0  0  0
 10 14  1  0  0  0  0
 10 24  1  0  0  0  0
 11 12  1  0  0  0  0
 11 25  1  0  0  0  0
 11 26  1  0  0  0  0
 12 13  1  0  0  0  0
 12 27  1  0  0  0  0
 12 28  1  0  0  0  0
 13 29  1  0  0  0  0
 14 16  1  0  0  0  0
 14 15  1  0  0  0  0
 14 30  1  0  0  0  0
 15 16  1  0  0  0  0
 15 31  1  0  0  0  0
 15 32  1  0  0  0  0
 16 33  1  0  0  0  0
 16 34  1  0  0  0  0
M  END
> <s_m_source_file>
AV-unprocessed.smi

> <i_m_source_file_index>
3299

> <i_lp_mmshare_version>
43012

> <i_f3d_flags>
0

> <s_epik_input>
W0NIM11jMVtjSF1zYyhuMSlbTkhdQyg9TylbTkhdW0NASF0oW0NIMl1bQ0gyXVtPSF0pW0NIXTJbQ0gyXVtDSDJdMg==

> <s_epik_cmdline>
J2VwaWtfcHl0aG9uJywgJy1waCcsICc3LjAnLCAnLXRuJywgJzgnLCAnLW1hJywgJzIwMCcsICctbWV0YWxfYmluZGluZycsICctaW1hZScsICc8aW5maWxlLm1hZT4nLCAnLW9tYWUnLCAnPG91dGZpbGUubWFlPic=

> <r_lp_tautomer_probability>
0.999

> <r_epik_Ionization_Penalty>
0.000568872

> <r_epik_Ionization_Penalty_Charging>
0

> <r_epik_Ionization_Penalty_Neutral>
0.000568872

> <r_epik_State_Penalty>
0.000177984

> <r_epik_Charging_Adjusted_Penalty>
0.000177984

> <i_epik_Tot_Q>
0

> <i_epik_Tot_abs_Q>
0

> <r_epik_Metal_State_Penalty>
-0

> <b_epik_Metal_Only>
0

> <s_lp_Force_Field>
OPLS_2005

> <r_lp_Energy>
12.8181

> <b_lp_Chiralities_Consistent>
1

> <s_lp_Variant>
AV-unprocessed.smi:3299-1

> <Gold.Version>
5.8.1

> <Gold.Id.Protein>
6NUR|6NUR_protein|mol2

> <Gold.PLP.Fitness>
45.7556

> <Gold.PLP.PLP>
-37.0384

> <Gold.PLP.part.hbond>
-4.9002

> <Gold.PLP.part.metal>
0.0000

> <Gold.PLP.part.buried>
-6.6614

> <Gold.PLP.part.nonpolar>
-25.5734

> <Gold.PLP.part.repulsive>
0.0925

> <Gold.PLP.ligand.clash>
0.0000

> <Gold.PLP.ligand.torsion>
0.6939

> <Gold.PLP.Chemscore.Hbond>
3.0000

> <Gold.PLP.Chemscore.CHOScore>
0.0000

> <Gold.PLP.Chemscore.Metal>
0.0000

> <Gold.Chemscore.Hbonds>
donor molecule, donor type, donor heavy atom, donor atom, acceptor molecule, acceptor atom, score
      L1  H     6    22       P1  8028  0.70
      L1  H    13    29       P1  7948  0.05

> <Gold.PLP.Chemscore.Internal.Correction>
1.1050

> <Gold.Rescore>
     Score         DG    S(hbond)    S(metal)    S(lipo)     H(rot)  DE(clash)    DE(int)     intcor
     14.62     -17.43       2.68        0.00      78.06       2.39       0.66       2.15       ----

> <Gold.Chemscore.Fitness>
14.6227

> <Gold.Chemscore.DG>
-17.4268

> <Gold.Chemscore.ZeroCoef>
-5.4800

> <Gold.Chemscore.Hbond>
2.6755

> <Gold.Chemscore.Metal>
0.0000

> <Gold.Chemscore.Lipo>
78.0635

> <Gold.Chemscore.Internal_Hbond>
0.0000

> <Gold.Chemscore.DEClash>
0.6564

> <Gold.Chemscore.DEInternal>
2.1477

> <Gold.Chemscore.Rot>
2.3917

> <Gold.Chemscore.Internal.Correction>
   9.000000E+99

> <Gold.Chemscore.Hbonds>
donor molecule, donor type, donor heavy atom, donor atom, acceptor molecule, acceptor atom, score
      L1  H     6    22       P1  8028  0.66
      L1  H     9    23       P1  8028  0.03

> <Gold.Chemscore.Hbond.Weighted>
-8.9362

> <Gold.Chemscore.Metal.Weighted>
-0.0000

> <Gold.Chemscore.Lipo.Weighted>
-9.1334

> <Gold.Chemscore.Internal_Hbond.Weighted>
0.0000

> <Gold.Chemscore.DEClash.Weighted>
0.6564

> <Gold.Chemscore.DEInternal.Weighted>
2.1477

> <Gold.Chemscore.Rot.Weighted>
6.1228

> <Gold.Chemscore.Internal.Correction.Weighted>
   9.000000E+99

> <Gold.Protein.RotatedTorsions>
[ 6907 6896 6895 6894 ] final   91.76 input  -60.11 | X-H torsion
[ 7974 7965 7964 7962 ] final -113.35 input  175.53 | X-H torsion
[ 8008 7997 7996 7995 ] final  -81.04 input   59.86 | X-H torsion
[ 10167 10162 10161 10158 ] final  129.18 input  -65.29 | X-H torsion
[ 10718 10713 10712 10709 ] final -147.46 input   66.30 | X-H torsion
[ 10763 10752 10751 10750 ] final  -48.76 input  -60.55 | X-H torsion
[ 11005 11000 10999 10996 ] final   74.14 input  -57.11 | X-H torsion

> <Gold.Protein.ActiveResidues>
 VAL166  LYS551  ARG553  GLY616  TRP617  ASP618  TYR619  PRO620  LYS621  CYS622 
 ASP623  PHE694  ASN695  SER759  ASP760  ASP761  ALA762  ILE779  LEU786  VAL792 
 PHE793  MET794  SER795  GLU796  ALA797  LYS798  CYS799  TRP800  GLU811  SER814 

> <Gold.Protein.RotatedAtoms>
  152.5451  134.1607  159.8556 H   0  0  0  0  0  0  0  0  0  0  0  0  # atno 6907 bound_to 6896
  151.1625  133.4829  159.2601 H   0  0  0  0  0  0  0  0  0  0  0  0  # atno 6908 bound_to 6896
  151.1358  135.0165  159.8658 H   0  0  0  0  0  0  0  0  0  0  0  0  # atno 6909 bound_to 6896
  145.1331  140.8736  143.3746 H   0  0  0  0  0  0  0  0  0  0  0  0  # atno 7974 bound_to 7965
  154.5944  140.0654  156.9283 H   0  0  0  0  0  0  0  0  0  0  0  0  # atno 8008 bound_to 7997
  155.2240  140.3332  155.4293 H   0  0  0  0  0  0  0  0  0  0  0  0  # atno 8009 bound_to 7997
  156.2277  140.1827  156.7306 H   0  0  0  0  0  0  0  0  0  0  0  0  # atno 8010 bound_to 7997
  139.5490  144.6798  151.4382 H   0  0  0  0  0  0  0  0  0  0  0  0  # atno 10167 bound_to 10162
  156.4078  130.7966  151.2181 H   0  0  0  0  0  0  0  0  0  0  0  0  # atno 10718 bound_to 10713
  154.0831  135.6588  153.4841 H   0  0  0  0  0  0  0  0  0  0  0  0  # atno 10763 bound_to 10752
  153.0349  135.5184  154.7455 H   0  0  0  0  0  0  0  0  0  0  0  0  # atno 10764 bound_to 10752
  154.6555  135.3007  154.9901 H   0  0  0  0  0  0  0  0  0  0  0  0  # atno 10765 bound_to 10752
  139.9405  134.7408  156.1112 H   0  0  0  0  0  0  0  0  0  0  0  0  # atno 11005 bound_to 11000
  145.0613  139.3103  143.5879 LP  0  0  0  0  0  0  0  0  0  0  0  0  # atno 17320 bound_to 7965
  146.3512  140.0056  142.8672 LP  0  0  0  0  0  0  0  0  0  0  0  0  # atno 17321 bound_to 7965
  140.6747  143.8216  150.7043 LP  0  0  0  0  0  0  0  0  0  0  0  0  # atno 17342 bound_to 10162
  140.1651  143.4242  152.2040 LP  0  0  0  0  0  0  0  0  0  0  0  0  # atno 17343 bound_to 10162
  157.7506  131.0267  150.3973 LP  0  0  0  0  0  0  0  0  0  0  0  0  # atno 17370 bound_to 10713
  156.4265  130.3963  149.6789 LP  0  0  0  0  0  0  0  0  0  0  0  0  # atno 17371 bound_to 10713
  141.1038  133.6667  156.2815 LP  0  0  0  0  0  0  0  0  0  0  0  0  # atno 17394 bound_to 11000
  140.5964  134.5599  157.5509 LP  0  0  0  0  0  0  0  0  0  0  0  0  # atno 17395 bound_to 11000

$$$$
