AV-unprocessed.smi:2718|AV-procd|sdf|10490|dock5
  -GOLD-   2272014533D 1   1.00000     0.00000
 Structure written by MMmdl.
 47 48  0  0  0  0  0  0  0  0  1 V2000
  144.1695  135.3360  150.2526 C   0  0  0  0  0  0  0  0  0  0  0  0
  144.6884  134.4411  151.3605 C   0  0  0  0  0  0  0  0  0  0  0  0
  143.7625  133.2990  151.7409 C   0  0  0  0  0  0  0  0  0  0  0  0
  145.8812  134.6595  151.9462 C   0  0  0  0  0  0  0  0  0  0  0  0
  146.4951  133.8518  153.0326 C   0  0  2  0  0  0  0  0  0  0  0  0
  147.8814  133.2576  152.8669 C   0  0  1  0  0  0  0  0  0  0  0  0
  148.8119  133.2756  154.0398 C   0  0  0  0  0  0  0  0  0  0  0  0
  148.8550  132.3873  154.8918 O   0  0  0  0  0  0  0  0  0  0  0  0
  149.5844  134.3706  154.0948 N   0  0  0  0  0  0  0  0  0  0  0  0
  150.5428  134.6724  155.1544 C   0  0  0  0  0  0  0  0  0  0  0  0
  150.3266  136.0689  155.7793 C   0  0  1  0  0  0  0  0  0  0  0  0
  150.0868  135.9841  157.2939 C   0  0  0  0  0  0  0  0  0  0  0  0
  151.4364  137.0306  155.4457 C   0  0  0  0  0  0  0  0  0  0  0  0
  152.7117  136.8407  155.8111 N   0  0  0  0  0  0  0  0  0  0  0  0
  153.4110  137.9177  155.3057 N   0  0  0  0  0  0  0  0  0  0  0  0
  152.4903  138.6518  154.6830 C   0  0  0  0  0  0  0  0  0  0  0  0
  151.2436  138.1591  154.7292 N   0  0  0  0  0  0  0  0  0  0  0  0
  150.0365  138.7155  154.1503 C   0  0  0  0  0  0  0  0  0  0  0  0
  146.6585  132.3465  152.8944 C   0  0  0  0  0  0  0  0  0  0  0  0
  146.3008  131.4606  154.0823 C   0  0  0  0  0  0  0  0  0  0  0  0
  146.2928  131.6273  151.6044 C   0  0  0  0  0  0  0  0  0  0  0  0
  143.9953  134.7535  149.3476 H   0  0  0  0  0  0  0  0  0  0  0  0
  144.8773  136.1302  150.0129 H   0  0  0  0  0  0  0  0  0  0  0  0
  143.2283  135.7988  150.5498 H   0  0  0  0  0  0  0  0  0  0  0  0
  143.6001  132.6466  150.8826 H   0  0  0  0  0  0  0  0  0  0  0  0
  142.7961  133.6908  152.0590 H   0  0  0  0  0  0  0  0  0  0  0  0
  144.1597  132.6904  152.5528 H   0  0  0  0  0  0  0  0  0  0  0  0
  146.4710  135.5015  151.6131 H   0  0  0  0  0  0  0  0  0  0  0  0
  146.2319  134.2396  154.0157 H   0  0  0  0  0  0  0  0  0  0  0  0
  148.3570  133.3851  151.8949 H   0  0  0  0  0  0  0  0  0  0  0  0
  149.4865  135.0574  153.3609 H   0  0  0  0  0  0  0  0  0  0  0  0
  150.5064  133.8981  155.9226 H   0  0  0  0  0  0  0  0  0  0  0  0
  151.5385  134.6193  154.7130 H   0  0  0  0  0  0  0  0  0  0  0  0
  149.4034  136.4617  155.3543 H   0  0  0  0  0  0  0  0  0  0  0  0
  149.8604  136.9663  157.7101 H   0  0  0  0  0  0  0  0  0  0  0  0
  150.9624  135.5949  157.8146 H   0  0  0  0  0  0  0  0  0  0  0  0
  149.2467  135.3277  157.5216 H   0  0  0  0  0  0  0  0  0  0  0  0
  152.7337  139.5750  154.1775 H   0  0  0  0  0  0  0  0  0  0  0  0
  150.2539  139.6734  153.6769 H   0  0  0  0  0  0  0  0  0  0  0  0
  149.2897  138.8693  154.9296 H   0  0  0  0  0  0  0  0  0  0  0  0
  149.6386  138.0336  153.3986 H   0  0  0  0  0  0  0  0  0  0  0  0
  146.9952  130.6230  154.1517 H   0  0  0  0  0  0  0  0  0  0  0  0
  145.2915  131.0641  153.9698 H   0  0  0  0  0  0  0  0  0  0  0  0
  146.3271  132.0140  155.0203 H   0  0  0  0  0  0  0  0  0  0  0  0
  146.8040  130.6659  151.5487 H   0  0  0  0  0  0  0  0  0  0  0  0
  146.5803  132.2142  150.7314 H   0  0  0  0  0  0  0  0  0  0  0  0
  145.2174  131.4536  151.5575 H   0  0  0  0  0  0  0  0  0  0  0  0
  1  2  1  0  0  0  0
  1 22  1  0  0  0  0
  1 23  1  0  0  0  0
  1 24  1  0  0  0  0
  2  3  1  0  0  0  0
  2  4  2  0  0  0  0
  3 25  1  0  0  0  0
  3 26  1  0  0  0  0
  3 27  1  0  0  0  0
  4  5  1  0  0  0  0
  4 28  1  0  0  0  0
  5 19  1  0  0  0  0
  5  6  1  0  0  0  0
  5 29  1  0  0  0  0
  6  7  1  0  0  0  0
  6 19  1  0  0  0  0
  6 30  1  0  0  0  0
  7  8  2  0  0  0  0
  7  9  1  0  0  0  0
  9 10  1  0  0  0  0
  9 31  1  0  0  0  0
 10 11  1  0  0  0  0
 10 32  1  0  0  0  0
 10 33  1  0  0  0  0
 11 12  1  0  0  0  0
 11 13  1  0  0  0  0
 11 34  1  0  0  0  0
 12 35  1  0  0  0  0
 12 36  1  0  0  0  0
 12 37  1  0  0  0  0
 13 17  1  0  0  0  0
 13 14  2  0  0  0  0
 14 15  1  0  0  0  0
 15 16  2  0  0  0  0
 16 17  1  0  0  0  0
 16 38  1  0  0  0  0
 17 18  1  0  0  0  0
 18 39  1  0  0  0  0
 18 40  1  0  0  0  0
 18 41  1  0  0  0  0
 19 20  1  0  0  0  0
 19 21  1  0  0  0  0
 20 42  1  0  0  0  0
 20 43  1  0  0  0  0
 20 44  1  0  0  0  0
 21 45  1  0  0  0  0
 21 46  1  0  0  0  0
 21 47  1  0  0  0  0
M  END
> <s_m_source_file>
AV-unprocessed.smi

> <i_m_source_file_index>
2718

> <i_lp_mmshare_version>
43012

> <i_f3d_flags>
0

> <s_epik_input>
W0NIM11DKFtDSDNdKT1bQ0hdW0NAQEhdKEMxKFtDSDNdKVtDSDNdKVtDQEhdMUMoPU8pW05IXVtDSDJdW0NASF0oW0NIM10pYzJubltjSF1uMltDSDNd

> <s_epik_cmdline>
J2VwaWtfcHl0aG9uJywgJy1waCcsICc3LjAnLCAnLXRuJywgJzgnLCAnLW1hJywgJzIwMCcsICctbWV0YWxfYmluZGluZycsICctaW1hZScsICc8aW5maWxlLm1hZT4nLCAnLW9tYWUnLCAnPG91dGZpbGUubWFlPic=

> <r_lp_tautomer_probability>
1

> <r_epik_Ionization_Penalty>
0.000449586

> <r_epik_Ionization_Penalty_Charging>
0

> <r_epik_Ionization_Penalty_Neutral>
0.000449586

> <r_epik_State_Penalty>
0.000243372

> <r_epik_Charging_Adjusted_Penalty>
0.000243372

> <i_epik_Tot_Q>
0

> <i_epik_Tot_abs_Q>
0

> <r_epik_Metal_State_Penalty>
-0

> <b_epik_Metal_Only>
0

> <s_lp_Force_Field>
OPLS_2005

> <r_lp_Energy>
15.9496

> <b_lp_Chiralities_Consistent>
1

> <s_lp_Variant>
AV-unprocessed.smi:2718-5

> <Gold.Version>
5.8.1

> <Gold.Id.Protein>
6NUR|6NUR_protein|mol2

> <Gold.PLP.Fitness>
39.0271

> <Gold.PLP.PLP>
-37.5165

> <Gold.PLP.part.hbond>
-3.1048

> <Gold.PLP.part.metal>
0.0000

> <Gold.PLP.part.buried>
-3.0672

> <Gold.PLP.part.nonpolar>
-31.1748

> <Gold.PLP.part.repulsive>
0.0519

> <Gold.PLP.ligand.clash>
0.0000

> <Gold.PLP.ligand.torsion>
1.4446

> <Gold.PLP.Chemscore.Hbond>
1.3840

> <Gold.PLP.Chemscore.CHOScore>
0.0000

> <Gold.PLP.Chemscore.Metal>
0.0000

> <Gold.Chemscore.Hbonds>
donor molecule, donor type, donor heavy atom, donor atom, acceptor molecule, acceptor atom, score
      L1  H     9    31       P1  7948  0.50
      P1  H 10752 10764       L1    14  0.77

> <Gold.PLP.Chemscore.Internal.Correction>
0.2478

> <Gold.Rescore>
     Score         DG    S(hbond)    S(metal)    S(lipo)     H(rot)  DE(clash)    DE(int)     intcor
      6.74      -9.53       0.47        0.00      63.93       1.95       0.04       2.74       ----

> <Gold.Chemscore.Fitness>
6.7443

> <Gold.Chemscore.DG>
-9.5276

> <Gold.Chemscore.ZeroCoef>
-5.4800

> <Gold.Chemscore.Hbond>
0.4695

> <Gold.Chemscore.Metal>
0.0000

> <Gold.Chemscore.Lipo>
63.9306

> <Gold.Chemscore.Internal_Hbond>
0.0000

> <Gold.Chemscore.DEClash>
0.0445

> <Gold.Chemscore.DEInternal>
2.7388

> <Gold.Chemscore.Rot>
1.9533

> <Gold.Chemscore.Internal.Correction>
   9.000000E+99

> <Gold.Chemscore.Hbonds>
donor molecule, donor type, donor heavy atom, donor atom, acceptor molecule, acceptor atom, score
      L1  H     9    31       P1  7948  0.02
      P1  H 10752 10764       L1    14  0.29

> <Gold.Chemscore.Hbond.Weighted>
-1.5682

> <Gold.Chemscore.Metal.Weighted>
-0.0000

> <Gold.Chemscore.Lipo.Weighted>
-7.4799

> <Gold.Chemscore.Internal_Hbond.Weighted>
0.0000

> <Gold.Chemscore.DEClash.Weighted>
0.0445

> <Gold.Chemscore.DEInternal.Weighted>
2.7388

> <Gold.Chemscore.Rot.Weighted>
5.0005

> <Gold.Chemscore.Internal.Correction.Weighted>
   9.000000E+99

> <Gold.Protein.RotatedTorsions>
[ 6907 6896 6895 6894 ] final  110.18 input  -60.11 | X-H torsion
[ 7974 7965 7964 7962 ] final   -6.41 input  175.53 | X-H torsion
[ 8008 7997 7996 7995 ] final  -45.63 input   59.86 | X-H torsion
[ 10167 10162 10161 10158 ] final -171.89 input  -65.29 | X-H torsion
[ 10718 10713 10712 10709 ] final  -48.96 input   66.30 | X-H torsion
[ 10763 10752 10751 10750 ] final  -27.67 input  -60.55 | X-H torsion
[ 11005 11000 10999 10996 ] final  107.54 input  -57.11 | X-H torsion

> <Gold.Protein.ActiveResidues>
 VAL166  LYS551  ARG553  GLY616  TRP617  ASP618  TYR619  PRO620  LYS621  CYS622 
 ASP623  PHE694  ASN695  SER759  ASP760  ASP761  ALA762  ILE779  LEU786  VAL792 
 PHE793  MET794  SER795  GLU796  ALA797  LYS798  CYS799  TRP800  GLU811  SER814 

> <Gold.Protein.RotatedAtoms>
  152.5032  133.8837  159.7359 H   0  0  0  0  0  0  0  0  0  0  0  0  # atno 6907 bound_to 6896
  150.9293  133.6777  159.2821 H   0  0  0  0  0  0  0  0  0  0  0  0  # atno 6908 bound_to 6896
  151.4127  135.0992  159.9642 H   0  0  0  0  0  0  0  0  0  0  0  0  # atno 6909 bound_to 6896
  146.2331  140.2166  142.8336 H   0  0  0  0  0  0  0  0  0  0  0  0  # atno 7974 bound_to 7965
  154.4002  140.1392  156.3878 H   0  0  0  0  0  0  0  0  0  0  0  0  # atno 8008 bound_to 7997
  155.7943  140.3478  155.5346 H   0  0  0  0  0  0  0  0  0  0  0  0  # atno 8009 bound_to 7997
  155.8548  140.0947  157.1642 H   0  0  0  0  0  0  0  0  0  0  0  0  # atno 8010 bound_to 7997
  139.5776  144.1496  152.1472 H   0  0  0  0  0  0  0  0  0  0  0  0  # atno 10167 bound_to 10162
  156.1938  130.4153  149.9334 H   0  0  0  0  0  0  0  0  0  0  0  0  # atno 10718 bound_to 10713
  153.7358  135.6936  153.4978 H   0  0  0  0  0  0  0  0  0  0  0  0  # atno 10763 bound_to 10752
  153.2103  135.4405  155.0371 H   0  0  0  0  0  0  0  0  0  0  0  0  # atno 10764 bound_to 10752
  154.8237  135.3435  154.6886 H   0  0  0  0  0  0  0  0  0  0  0  0  # atno 10765 bound_to 10752
  139.8830  134.9404  156.5835 H   0  0  0  0  0  0  0  0  0  0  0  0  # atno 11005 bound_to 11000
  144.9664  140.8326  143.5482 LP  0  0  0  0  0  0  0  0  0  0  0  0  # atno 17320 bound_to 7965
  145.2143  139.2189  143.5126 LP  0  0  0  0  0  0  0  0  0  0  0  0  # atno 17321 bound_to 7965
  140.1042  144.5513  150.6968 LP  0  0  0  0  0  0  0  0  0  0  0  0  # atno 17342 bound_to 10162
  140.7057  143.2467  151.4732 LP  0  0  0  0  0  0  0  0  0  0  0  0  # atno 17343 bound_to 10162
  156.7066  130.8954  151.3605 LP  0  0  0  0  0  0  0  0  0  0  0  0  # atno 17370 bound_to 10713
  157.6945  130.9268  150.0606 LP  0  0  0  0  0  0  0  0  0  0  0  0  # atno 17371 bound_to 10713
  140.8009  133.8506  155.8726 LP  0  0  0  0  0  0  0  0  0  0  0  0  # atno 17394 bound_to 11000
  140.9593  134.1676  157.4666 LP  0  0  0  0  0  0  0  0  0  0  0  0  # atno 17395 bound_to 11000

$$$$
