AV-unprocessed.smi:951|AV-procd|sdf|4251|dock10
  -GOLD-   22720 2153D 1   1.00000     0.00000
 Structure written by MMmdl.
 51 53  0  0  0  0  0  0  0  0  1 V2000
  149.2538  138.7746  156.8897 O   0  0  0  0  0  0  0  0  0  0  0  0
  150.1097  138.1467  157.5125 C   0  0  0  0  0  0  0  0  0  0  0  0
  151.2529  138.7103  157.9361 N   0  0  0  0  0  0  0  0  0  0  0  0
  151.6336  140.0967  157.7158 C   0  0  0  0  0  0  0  0  0  0  0  0
  152.0527  140.7495  159.0402 C   0  0  0  0  0  0  0  0  0  0  0  0
  151.9719  142.2631  158.9861 C   0  0  0  0  0  0  0  0  0  0  0  0
  152.3705  143.0469  160.0901 C   0  0  0  0  0  0  0  0  0  0  0  0
  152.2826  144.4485  159.9842 C   0  0  0  0  0  0  0  0  0  0  0  0
  151.8027  145.0093  158.7850 C   0  0  0  0  0  0  0  0  0  0  0  0
  151.4308  144.1399  157.7400 C   0  0  0  0  0  0  0  0  0  0  0  0
  151.5106  142.7948  157.8315 N   0  0  0  0  0  0  0  0  0  0  0  0
  149.8783  136.6473  157.8128 C   0  0  2  0  0  0  0  0  0  0  0  0
  149.7828  135.8431  156.5075 C   0  0  0  0  0  0  0  0  0  0  0  0
  148.2967  135.8284  156.1876 C   0  0  0  0  0  0  0  0  0  0  0  0
  147.6259  135.8063  157.5618 C   0  0  0  0  0  0  0  0  0  0  0  0
  148.6053  136.3647  158.5001 N   0  0  0  0  0  0  0  0  0  0  0  0
  148.4027  136.5812  159.8222 C   0  0  0  0  0  0  0  0  0  0  0  0
  149.3048  137.0042  160.5453 O   0  0  0  0  0  0  0  0  0  0  0  0
  147.0036  136.3142  160.4266 C   0  0  0  0  0  0  0  0  0  0  0  0
  146.9306  136.7690  161.9036 C   0  0  0  0  0  0  0  0  0  0  0  0
  147.6417  135.8024  162.8663 C   0  0  0  0  0  0  0  0  0  0  0  0
  147.0709  134.3832  162.7349 C   0  0  0  0  0  0  0  0  0  0  0  0
  147.1851  133.8701  161.2921 C   0  0  0  0  0  0  0  0  0  0  0  0
  146.5334  134.8428  160.2867 C   0  0  0  0  0  0  0  0  0  0  0  0
  151.9089  138.1300  158.4386 H   0  0  0  0  0  0  0  0  0  0  0  0
  152.4567  140.1404  157.0007 H   0  0  0  0  0  0  0  0  0  0  0  0
  150.7918  140.6345  157.2768 H   0  0  0  0  0  0  0  0  0  0  0  0
  151.4173  140.3911  159.8518 H   0  0  0  0  0  0  0  0  0  0  0  0
  153.0712  140.4534  159.2960 H   0  0  0  0  0  0  0  0  0  0  0  0
  152.7375  142.5870  160.9960 H   0  0  0  0  0  0  0  0  0  0  0  0
  152.5791  145.0821  160.8070 H   0  0  0  0  0  0  0  0  0  0  0  0
  151.7221  146.0798  158.6679 H   0  0  0  0  0  0  0  0  0  0  0  0
  151.0596  144.5350  156.8059 H   0  0  0  0  0  0  0  0  0  0  0  0
  150.7218  136.2839  158.4027 H   0  0  0  0  0  0  0  0  0  0  0  0
  150.3821  136.2478  155.6904 H   0  0  0  0  0  0  0  0  0  0  0  0
  150.1261  134.8230  156.6847 H   0  0  0  0  0  0  0  0  0  0  0  0
  148.0274  136.7454  155.6618 H   0  0  0  0  0  0  0  0  0  0  0  0
  148.0047  134.9861  155.5598 H   0  0  0  0  0  0  0  0  0  0  0  0
  146.6930  136.3706  157.5520 H   0  0  0  0  0  0  0  0  0  0  0  0
  147.4028  134.7775  157.8474 H   0  0  0  0  0  0  0  0  0  0  0  0
  146.2805  136.9014  159.8624 H   0  0  0  0  0  0  0  0  0  0  0  0
  147.3540  137.7675  162.0187 H   0  0  0  0  0  0  0  0  0  0  0  0
  145.8835  136.8565  162.1965 H   0  0  0  0  0  0  0  0  0  0  0  0
  148.7138  135.7915  162.6658 H   0  0  0  0  0  0  0  0  0  0  0  0
  147.5263  136.1530  163.8921 H   0  0  0  0  0  0  0  0  0  0  0  0
  147.5935  133.7070  163.4120 H   0  0  0  0  0  0  0  0  0  0  0  0
  146.0241  134.3806  163.0419 H   0  0  0  0  0  0  0  0  0  0  0  0
  148.2341  133.7100  161.0461 H   0  0  0  0  0  0  0  0  0  0  0  0
  146.7103  132.8917  161.2128 H   0  0  0  0  0  0  0  0  0  0  0  0
  145.4526  134.8119  160.4299 H   0  0  0  0  0  0  0  0  0  0  0  0
  146.7043  134.4870  159.2697 H   0  0  0  0  0  0  0  0  0  0  0  0
  1  2  2  0  0  0  0
  2  3  1  0  0  0  0
  2 12  1  0  0  0  0
  3  4  1  0  0  0  0
  3 25  1  0  0  0  0
  4  5  1  0  0  0  0
  4 26  1  0  0  0  0
  4 27  1  0  0  0  0
  5  6  1  0  0  0  0
  5 28  1  0  0  0  0
  5 29  1  0  0  0  0
  6 11  1  0  0  0  0
  6  7  2  0  0  0  0
  7  8  1  0  0  0  0
  7 30  1  0  0  0  0
  8  9  2  0  0  0  0
  8 31  1  0  0  0  0
  9 10  1  0  0  0  0
  9 32  1  0  0  0  0
 10 11  2  0  0  0  0
 10 33  1  0  0  0  0
 12 16  1  0  0  0  0
 12 13  1  0  0  0  0
 12 34  1  0  0  0  0
 13 14  1  0  0  0  0
 13 35  1  0  0  0  0
 13 36  1  0  0  0  0
 14 15  1  0  0  0  0
 14 37  1  0  0  0  0
 14 38  1  0  0  0  0
 15 16  1  0  0  0  0
 15 39  1  0  0  0  0
 15 40  1  0  0  0  0
 16 17  1  0  0  0  0
 17 18  2  0  0  0  0
 17 19  1  0  0  0  0
 19 24  1  0  0  0  0
 19 20  1  0  0  0  0
 19 41  1  0  0  0  0
 20 21  1  0  0  0  0
 20 42  1  0  0  0  0
 20 43  1  0  0  0  0
 21 22  1  0  0  0  0
 21 44  1  0  0  0  0
 21 45  1  0  0  0  0
 22 23  1  0  0  0  0
 22 46  1  0  0  0  0
 22 47  1  0  0  0  0
 23 24  1  0  0  0  0
 23 48  1  0  0  0  0
 23 49  1  0  0  0  0
 24 50  1  0  0  0  0
 24 51  1  0  0  0  0
M  END
> <s_m_source_file>
AV-unprocessed.smi

> <i_m_source_file_index>
951

> <i_lp_mmshare_version>
43012

> <i_f3d_flags>
0

> <s_epik_input>
bjFbY0hdW2NIXVtjSF1bY0hdYzFbQ0gyXVtDSDJdW05IXUMoPU8pW0NAQEhdMltDSDJdW0NIMl1bQ0gyXU4yQyg9TylbQ0hdM1tDSDJdW0NIMl1bQ0gyXVtDSDJdW0NIMl0z

> <s_epik_cmdline>
J2VwaWtfcHl0aG9uJywgJy1waCcsICc3LjAnLCAnLXRuJywgJzgnLCAnLW1hJywgJzIwMCcsICctbWV0YWxfYmluZGluZycsICctaW1hZScsICc8aW5maWxlLm1hZT4nLCAnLW9tYWUnLCAnPG91dGZpbGUubWFlPic=

> <r_epik_Ionization_Penalty>
0.0265505

> <r_epik_Ionization_Penalty_Charging>
0

> <r_epik_Ionization_Penalty_Neutral>
0.0265505

> <r_epik_State_Penalty>
0.02168

> <r_epik_Charging_Adjusted_Penalty>
0.02168

> <i_epik_Tot_Q>
0

> <i_epik_Tot_abs_Q>
0

> <r_epik_Metal_State_Penalty>
0.020746

> <b_epik_Metal_Only>
0

> <s_lp_Force_Field>
OPLS_2005

> <r_lp_Energy>
18.972

> <b_lp_Chiralities_Consistent>
1

> <s_lp_Variant>
AV-unprocessed.smi:951-1

> <Gold.Version>
5.8.1

> <Gold.Id.Protein>
6NUR|6NUR_protein|mol2

> <Gold.PLP.Fitness>
48.6578

> <Gold.PLP.PLP>
-44.2777

> <Gold.PLP.part.hbond>
-1.0000

> <Gold.PLP.part.metal>
0.0000

> <Gold.PLP.part.buried>
-5.0523

> <Gold.PLP.part.nonpolar>
-39.0623

> <Gold.PLP.part.repulsive>
0.1001

> <Gold.PLP.ligand.clash>
0.0000

> <Gold.PLP.ligand.torsion>
0.2289

> <Gold.PLP.Chemscore.Hbond>
0.5920

> <Gold.PLP.Chemscore.CHOScore>
1.0000

> <Gold.PLP.Chemscore.Metal>
0.0000

> <Gold.Chemscore.Hbonds>
donor molecule, donor type, donor heavy atom, donor atom, acceptor molecule, acceptor atom, score
      P1  H  6931  6943       L1    18  0.61
      L1  C    10    33       P1  8028  1.00

> <Gold.PLP.Chemscore.Internal.Correction>
0.0618

> <Gold.Rescore>
     Score         DG    S(hbond)    S(metal)    S(lipo)     H(rot)  DE(clash)    DE(int)     intcor
     17.75     -18.52       0.63        0.00     127.40       1.55       0.00       0.76       ----

> <Gold.Chemscore.Fitness>
17.7539

> <Gold.Chemscore.DG>
-18.5197

> <Gold.Chemscore.ZeroCoef>
-5.4800

> <Gold.Chemscore.Hbond>
0.6298

> <Gold.Chemscore.Metal>
0.0000

> <Gold.Chemscore.Lipo>
127.3998

> <Gold.Chemscore.Internal_Hbond>
0.0000

> <Gold.Chemscore.DEClash>
0.0015

> <Gold.Chemscore.DEInternal>
0.7643

> <Gold.Chemscore.Rot>
1.5506

> <Gold.Chemscore.Internal.Correction>
   9.000000E+99

> <Gold.Chemscore.Hbonds>
donor molecule, donor type, donor heavy atom, donor atom, acceptor molecule, acceptor atom, score
      P1  H  6931  6943       L1    18  0.60

> <Gold.Chemscore.Hbond.Weighted>
-2.1034

> <Gold.Chemscore.Metal.Weighted>
-0.0000

> <Gold.Chemscore.Lipo.Weighted>
-14.9058

> <Gold.Chemscore.Internal_Hbond.Weighted>
0.0000

> <Gold.Chemscore.DEClash.Weighted>
0.0015

> <Gold.Chemscore.DEInternal.Weighted>
0.7643

> <Gold.Chemscore.Rot.Weighted>
3.9695

> <Gold.Chemscore.Internal.Correction.Weighted>
   9.000000E+99

> <Gold.Protein.RotatedTorsions>
[ 6907 6896 6895 6894 ] final -148.57 input  -60.11 | X-H torsion
[ 7974 7965 7964 7962 ] final   -8.32 input  175.53 | X-H torsion
[ 8008 7997 7996 7995 ] final  177.86 input   59.86 | X-H torsion
[ 10167 10162 10161 10158 ] final  -67.86 input  -65.29 | X-H torsion
[ 10718 10713 10712 10709 ] final   22.12 input   66.30 | X-H torsion
[ 10763 10752 10751 10750 ] final   50.48 input  -60.55 | X-H torsion
[ 11005 11000 10999 10996 ] final  -71.92 input  -57.11 | X-H torsion

> <Gold.Protein.ActiveResidues>
 VAL166  LYS551  ARG553  GLY616  TRP617  ASP618  TYR619  PRO620  LYS621  CYS622 
 ASP623  PHE694  ASN695  SER759  ASP760  ASP761  ALA762  ILE779  LEU786  VAL792 
 PHE793  MET794  SER795  GLU796  ALA797  LYS798  CYS799  TRP800  GLU811  SER814 

> <Gold.Protein.RotatedAtoms>
  151.1717  133.4780  159.2593 H   0  0  0  0  0  0  0  0  0  0  0  0  # atno 6907 bound_to 6896
  151.1349  135.0149  159.8609 H   0  0  0  0  0  0  0  0  0  0  0  0  # atno 6908 bound_to 6896
  152.5461  134.1616  159.8613 H   0  0  0  0  0  0  0  0  0  0  0  0  # atno 6909 bound_to 6896
  146.2283  140.2451  142.8345 H   0  0  0  0  0  0  0  0  0  0  0  0  # atno 7974 bound_to 7965
  156.0610  140.1348  156.9941 H   0  0  0  0  0  0  0  0  0  0  0  0  # atno 8008 bound_to 7997
  154.4482  140.0991  156.6588 H   0  0  0  0  0  0  0  0  0  0  0  0  # atno 8009 bound_to 7997
  155.5377  140.3460  155.4442 H   0  0  0  0  0  0  0  0  0  0  0  0  # atno 8010 bound_to 7997
  140.5551  143.2312  151.6837 H   0  0  0  0  0  0  0  0  0  0  0  0  # atno 10167 bound_to 10162
  157.1479  130.6661  149.6002 H   0  0  0  0  0  0  0  0  0  0  0  0  # atno 10718 bound_to 10713
  152.9784  135.5877  154.4259 H   0  0  0  0  0  0  0  0  0  0  0  0  # atno 10763 bound_to 10752
  154.3878  135.2767  155.2175 H   0  0  0  0  0  0  0  0  0  0  0  0  # atno 10764 bound_to 10752
  154.4060  135.6092  153.5979 H   0  0  0  0  0  0  0  0  0  0  0  0  # atno 10765 bound_to 10752
  141.1600  133.6831  156.6979 H   0  0  0  0  0  0  0  0  0  0  0  0  # atno 11005 bound_to 11000
  144.9454  140.8123  143.5604 LP  0  0  0  0  0  0  0  0  0  0  0  0  # atno 17320 bound_to 7965
  145.2407  139.2074  143.4994 LP  0  0  0  0  0  0  0  0  0  0  0  0  # atno 17321 bound_to 7965
  139.5044  144.3755  152.0428 LP  0  0  0  0  0  0  0  0  0  0  0  0  # atno 17342 bound_to 10162
  140.2875  144.3790  150.6099 LP  0  0  0  0  0  0  0  0  0  0  0  0  # atno 17343 bound_to 10162
  155.9776  130.4755  150.6603 LP  0  0  0  0  0  0  0  0  0  0  0  0  # atno 17370 bound_to 10713
  157.4247  131.0841  151.1097 LP  0  0  0  0  0  0  0  0  0  0  0  0  # atno 17371 bound_to 10713
  140.2981  134.8186  157.4074 LP  0  0  0  0  0  0  0  0  0  0  0  0  # atno 17394 bound_to 11000
  140.1287  134.5124  155.8124 LP  0  0  0  0  0  0  0  0  0  0  0  0  # atno 17395 bound_to 11000

$$$$
