AV-unprocessed.smi:434|AV-procd|sdf|2553|dock7
  -GOLD-   2262022523D 1   1.00000     0.00000
 Structure written by MMmdl.
 39 41  0  0  0  0  0  0  0  0  1 V2000
  151.7034  143.4204  157.8639 C   0  0  0  0  0  0  0  0  0  0  0  0
  152.3016  143.0905  159.1946 C   0  0  0  0  0  0  0  0  0  0  0  0
  153.0766  142.0220  159.3806 N   0  0  0  0  0  0  0  0  0  0  0  0
  153.4031  142.1144  160.7200 C   0  0  0  0  0  0  0  0  0  0  0  0
  154.2026  141.2766  161.5301 C   0  0  0  0  0  0  0  0  0  0  0  0
  154.3965  141.5768  162.8945 C   0  0  0  0  0  0  0  0  0  0  0  0
  153.7939  142.7154  163.4676 C   0  0  0  0  0  0  0  0  0  0  0  0
  152.9932  143.5634  162.6784 C   0  0  0  0  0  0  0  0  0  0  0  0
  152.8034  143.2599  161.3168 C   0  0  0  0  0  0  0  0  0  0  0  0
  152.0904  143.8661  160.2865 N   0  0  0  0  0  0  0  0  0  0  0  0
  151.2923  145.0817  160.3793 C   0  0  0  0  0  0  0  0  0  0  0  0
  149.7944  144.7959  160.6097 C   0  0  1  0  0  0  0  0  0  0  0  0
  149.0877  146.0208  160.6231 O   0  0  0  0  0  0  0  0  0  0  0  0
  149.2038  143.9039  159.5064 C   0  0  0  0  0  0  0  0  0  0  0  0
  148.1613  143.1162  160.0574 O   0  0  0  0  0  0  0  0  0  0  0  0
  146.8980  143.4007  159.4826 C   0  0  0  0  0  0  0  0  0  0  0  0
  145.9148  143.4117  160.6036 C   0  0  0  0  0  0  0  0  0  0  0  0
  145.1017  144.3755  161.1334 C   0  0  0  0  0  0  0  0  0  0  0  0
  144.3886  143.7577  162.1979 C   0  0  0  0  0  0  0  0  0  0  0  0
  144.8191  142.4620  162.2371 C   0  0  0  0  0  0  0  0  0  0  0  0
  145.7499  142.2345  161.2707 O   0  0  0  0  0  0  0  0  0  0  0  0
  151.9357  142.6416  157.1369 H   0  0  0  0  0  0  0  0  0  0  0  0
  152.1043  144.3645  157.4945 H   0  0  0  0  0  0  0  0  0  0  0  0
  150.6196  143.5018  157.9422 H   0  0  0  0  0  0  0  0  0  0  0  0
  154.6674  140.4012  161.1012 H   0  0  0  0  0  0  0  0  0  0  0  0
  155.0099  140.9295  163.5041 H   0  0  0  0  0  0  0  0  0  0  0  0
  153.9461  142.9371  164.5139 H   0  0  0  0  0  0  0  0  0  0  0  0
  152.5283  144.4346  163.1155 H   0  0  0  0  0  0  0  0  0  0  0  0
  151.6889  145.6982  161.1871 H   0  0  0  0  0  0  0  0  0  0  0  0
  151.4312  145.6598  159.4655 H   0  0  0  0  0  0  0  0  0  0  0  0
  149.6676  144.3075  161.5764 H   0  0  0  0  0  0  0  0  0  0  0  0
  149.6937  146.7182  160.4245 H   0  0  0  0  0  0  0  0  0  0  0  0
  148.8517  144.4994  158.6619 H   0  0  0  0  0  0  0  0  0  0  0  0
  149.9738  143.2300  159.1271 H   0  0  0  0  0  0  0  0  0  0  0  0
  146.9127  144.3675  158.9770 H   0  0  0  0  0  0  0  0  0  0  0  0
  146.6283  142.6395  158.7491 H   0  0  0  0  0  0  0  0  0  0  0  0
  145.0283  145.3986  160.7954 H   0  0  0  0  0  0  0  0  0  0  0  0
  143.6534  144.2039  162.8512 H   0  0  0  0  0  0  0  0  0  0  0  0
  144.5800  141.6103  162.8566 H   0  0  0  0  0  0  0  0  0  0  0  0
  1  2  1  0  0  0  0
  1 22  1  0  0  0  0
  1 23  1  0  0  0  0
  1 24  1  0  0  0  0
  2 10  1  0  0  0  0
  2  3  2  0  0  0  0
  3  4  1  0  0  0  0
  4  9  2  0  0  0  0
  4  5  1  0  0  0  0
  5  6  2  0  0  0  0
  5 25  1  0  0  0  0
  6  7  1  0  0  0  0
  6 26  1  0  0  0  0
  7  8  2  0  0  0  0
  7 27  1  0  0  0  0
  8  9  1  0  0  0  0
  8 28  1  0  0  0  0
  9 10  1  0  0  0  0
 10 11  1  0  0  0  0
 11 12  1  0  0  0  0
 11 29  1  0  0  0  0
 11 30  1  0  0  0  0
 12 13  1  0  0  0  0
 12 14  1  0  0  0  0
 12 31  1  0  0  0  0
 13 32  1  0  0  0  0
 14 15  1  0  0  0  0
 14 33  1  0  0  0  0
 14 34  1  0  0  0  0
 15 16  1  0  0  0  0
 16 17  1  0  0  0  0
 16 35  1  0  0  0  0
 16 36  1  0  0  0  0
 17 21  1  0  0  0  0
 17 18  2  0  0  0  0
 18 19  1  0  0  0  0
 18 37  1  0  0  0  0
 19 20  2  0  0  0  0
 19 38  1  0  0  0  0
 20 21  1  0  0  0  0
 20 39  1  0  0  0  0
M  END
> <s_m_source_file>
AV-unprocessed.smi

> <i_m_source_file_index>
434

> <i_lp_mmshare_version>
43012

> <i_f3d_flags>
0

> <s_epik_input>
W2NIXTFbY0hdW2NIXVtjSF1jKGMxMiluKGMobjIpW0NIM10pW0NIMl1bQ0BIXShbT0hdKVtDSDJdT1tDSDJdYzNbY0hdW2NIXVtjSF1vMw==

> <s_epik_cmdline>
J2VwaWtfcHl0aG9uJywgJy1waCcsICc3LjAnLCAnLXRuJywgJzgnLCAnLW1hJywgJzIwMCcsICctbWV0YWxfYmluZGluZycsICctaW1hZScsICc8aW5maWxlLm1hZT4nLCAnLW9tYWUnLCAnPG91dGZpbGUubWFlPic=

> <r_epik_Ionization_Penalty>
0.126634

> <r_epik_Ionization_Penalty_Charging>
0

> <r_epik_Ionization_Penalty_Neutral>
0.126634

> <r_epik_State_Penalty>
0.116082

> <r_epik_Charging_Adjusted_Penalty>
0.116082

> <i_epik_Tot_Q>
0

> <i_epik_Tot_abs_Q>
0

> <r_epik_Metal_State_Penalty>
0.00012822

> <b_epik_Metal_Only>
0

> <s_lp_Force_Field>
OPLS_2005

> <r_lp_Energy>
9.69126

> <b_lp_Chiralities_Consistent>
1

> <s_lp_Variant>
AV-unprocessed.smi:434-2

> <Gold.Version>
5.8.1

> <Gold.Id.Protein>
6NUR|6NUR_protein|mol2

> <Gold.PLP.Fitness>
52.2716

> <Gold.PLP.PLP>
-49.6764

> <Gold.PLP.part.hbond>
-3.8581

> <Gold.PLP.part.metal>
0.0000

> <Gold.PLP.part.buried>
-0.4855

> <Gold.PLP.part.nonpolar>
-46.3139

> <Gold.PLP.part.repulsive>
0.1069

> <Gold.PLP.ligand.clash>
0.0000

> <Gold.PLP.ligand.torsion>
1.4089

> <Gold.PLP.Chemscore.Hbond>
1.7840

> <Gold.PLP.Chemscore.CHOScore>
0.0000

> <Gold.PLP.Chemscore.Metal>
0.0000

> <Gold.Chemscore.Hbonds>
donor molecule, donor type, donor heavy atom, donor atom, acceptor molecule, acceptor atom, score
      P1  H  6933  6944       L1    15  0.78
      P1  H  6934  6946       L1    21  0.90

> <Gold.PLP.Chemscore.Internal.Correction>
0.0611

> <Gold.Rescore>
     Score         DG    S(hbond)    S(metal)    S(lipo)     H(rot)  DE(clash)    DE(int)     intcor
     14.75     -18.39       1.33        0.00     124.10       2.36       1.55       2.10       ----

> <Gold.Chemscore.Fitness>
14.7466

> <Gold.Chemscore.DG>
-18.3930

> <Gold.Chemscore.ZeroCoef>
-5.4800

> <Gold.Chemscore.Hbond>
1.3270

> <Gold.Chemscore.Metal>
0.0000

> <Gold.Chemscore.Lipo>
124.1019

> <Gold.Chemscore.Internal_Hbond>
0.0000

> <Gold.Chemscore.DEClash>
1.5470

> <Gold.Chemscore.DEInternal>
2.0993

> <Gold.Chemscore.Rot>
2.3591

> <Gold.Chemscore.Internal.Correction>
   9.000000E+99

> <Gold.Chemscore.Hbonds>
donor molecule, donor type, donor heavy atom, donor atom, acceptor molecule, acceptor atom, score
      P1  H  6933  6944       L1    15  0.71
      P1  H  6934  6946       L1    21  0.82

> <Gold.Chemscore.Hbond.Weighted>
-4.4323

> <Gold.Chemscore.Metal.Weighted>
-0.0000

> <Gold.Chemscore.Lipo.Weighted>
-14.5199

> <Gold.Chemscore.Internal_Hbond.Weighted>
0.0000

> <Gold.Chemscore.DEClash.Weighted>
1.5470

> <Gold.Chemscore.DEInternal.Weighted>
2.0993

> <Gold.Chemscore.Rot.Weighted>
6.0393

> <Gold.Chemscore.Internal.Correction.Weighted>
   9.000000E+99

> <Gold.Protein.RotatedTorsions>
[ 6907 6896 6895 6894 ] final -164.18 input  -60.11 | X-H torsion
[ 7974 7965 7964 7962 ] final -118.27 input  175.53 | X-H torsion
[ 8008 7997 7996 7995 ] final   14.19 input   59.86 | X-H torsion
[ 10167 10162 10161 10158 ] final  173.19 input  -65.29 | X-H torsion
[ 10718 10713 10712 10709 ] final   35.17 input   66.30 | X-H torsion
[ 10763 10752 10751 10750 ] final   80.60 input  -60.55 | X-H torsion
[ 11005 11000 10999 10996 ] final -133.82 input  -57.11 | X-H torsion

> <Gold.Protein.ActiveResidues>
 VAL166  LYS551  ARG553  GLY616  TRP617  ASP618  TYR619  PRO620  LYS621  CYS622 
 ASP623  PHE694  ASN695  SER759  ASP760  ASP761  ALA762  ILE779  LEU786  VAL792 
 PHE793  MET794  SER795  GLU796  ALA797  LYS798  CYS799  TRP800  GLU811  SER814 

> <Gold.Protein.RotatedAtoms>
  151.4078  133.3737  159.2739 H   0  0  0  0  0  0  0  0  0  0  0  0  # atno 6907 bound_to 6896
  150.9386  134.8798  159.7608 H   0  0  0  0  0  0  0  0  0  0  0  0  # atno 6908 bound_to 6896
  152.5061  134.4027  159.9474 H   0  0  0  0  0  0  0  0  0  0  0  0  # atno 6909 bound_to 6896
  145.0757  140.8391  143.4069 H   0  0  0  0  0  0  0  0  0  0  0  0  # atno 7974 bound_to 7965
  154.8450  140.2920  155.5635 H   0  0  0  0  0  0  0  0  0  0  0  0  # atno 8008 bound_to 7997
  156.3014  140.2507  156.3331 H   0  0  0  0  0  0  0  0  0  0  0  0  # atno 8009 bound_to 7997
  154.9083  140.0389  157.1921 H   0  0  0  0  0  0  0  0  0  0  0  0  # atno 8010 bound_to 7997
  139.5100  144.3289  152.0131 H   0  0  0  0  0  0  0  0  0  0  0  0  # atno 10167 bound_to 10162
  157.3194  130.7440  149.6775 H   0  0  0  0  0  0  0  0  0  0  0  0  # atno 10718 bound_to 10713
  153.1047  135.4796  154.8929 H   0  0  0  0  0  0  0  0  0  0  0  0  # atno 10763 bound_to 10752
  154.7417  135.3084  154.8719 H   0  0  0  0  0  0  0  0  0  0  0  0  # atno 10764 bound_to 10752
  153.9325  135.6843  153.4799 H   0  0  0  0  0  0  0  0  0  0  0  0  # atno 10765 bound_to 10752
  140.9046  134.1646  157.4435 H   0  0  0  0  0  0  0  0  0  0  0  0  # atno 11005 bound_to 11000
  145.1238  139.2676  143.5574 LP  0  0  0  0  0  0  0  0  0  0  0  0  # atno 17320 bound_to 7965
  146.3530  140.0870  142.8614 LP  0  0  0  0  0  0  0  0  0  0  0  0  # atno 17321 bound_to 7965
  140.2729  144.3944  150.6145 LP  0  0  0  0  0  0  0  0  0  0  0  0  # atno 17342 bound_to 10162
  140.6075  143.2168  151.6952 LP  0  0  0  0  0  0  0  0  0  0  0  0  # atno 17343 bound_to 10162
  155.9684  130.4227  150.4531 LP  0  0  0  0  0  0  0  0  0  0  0  0  # atno 17370 bound_to 10713
  157.2544  131.0553  151.2359 LP  0  0  0  0  0  0  0  0  0  0  0  0  # atno 17371 bound_to 10713
  139.8747  134.9912  156.5537 LP  0  0  0  0  0  0  0  0  0  0  0  0  # atno 17394 bound_to 11000
  140.8187  133.8371  155.8875 LP  0  0  0  0  0  0  0  0  0  0  0  0  # atno 17395 bound_to 11000

$$$$
