AV-unprocessed.smi:1603|AV-procd|sdf|6446|dock5
  -GOLD-   22720 7 93D 1   1.00000     0.00000
 Structure written by MMmdl.
 44 46  0  0  0  0  0  0  0  0  1 V2000
  152.9336  139.5646  158.0890 O   0  0  0  0  0  0  0  0  0  0  0  0
  152.5516  140.7069  158.3461 C   0  0  0  0  0  0  0  0  0  0  0  0
  153.0490  141.4926  159.4858 C   0  0  0  0  0  0  0  0  0  0  0  0
  154.1051  140.8578  160.3866 C   0  0  0  0  0  0  0  0  0  0  0  0
  153.9088  139.5461  160.5293 F   0  0  0  0  0  0  0  0  0  0  0  0
  155.3238  141.0350  159.8750 F   0  0  0  0  0  0  0  0  0  0  0  0
  154.0784  141.4083  161.6010 F   0  0  0  0  0  0  0  0  0  0  0  0
  152.5726  142.7417  159.7090 C   0  0  0  0  0  0  0  0  0  0  0  0
  151.5728  143.3118  158.8287 C   0  0  0  0  0  0  0  0  0  0  0  0
  150.9959  144.6845  159.0245 C   0  0  0  0  0  0  0  0  0  0  0  0
  151.5373  145.6421  160.0616 C   0  0  0  0  0  0  0  0  0  0  0  0
  150.1661  145.0321  160.2383 C   0  0  0  0  0  0  0  0  0  0  0  0
  151.1442  142.6239  157.8246 N   0  0  0  0  0  0  0  0  0  0  0  0
  151.6159  141.3485  157.5853 N   0  0  0  0  0  0  0  0  0  0  0  0
  151.0057  140.7001  156.4175 C   0  0  0  0  0  0  0  0  0  0  0  0
  149.7395  141.4439  155.9344 C   0  0  1  0  0  0  0  0  0  0  0  0
  150.1502  142.7057  155.4422 O   0  0  0  0  0  0  0  0  0  0  0  0
  149.0322  140.6929  154.7840 C   0  0  0  0  0  0  0  0  0  0  0  0
  147.6123  141.0049  154.6139 N   0  0  0  0  0  0  0  0  0  0  0  0
  146.8574  140.9034  155.8611 C   0  0  0  0  0  0  0  0  0  0  0  0
  145.3738  141.2633  155.6673 C   0  0  0  0  0  0  0  0  0  0  0  0
  145.2648  142.5689  155.1092 O   0  0  0  0  0  0  0  0  0  0  0  0
  145.9474  142.6919  153.8660 C   0  0  0  0  0  0  0  0  0  0  0  0
  147.4331  142.3426  154.0591 C   0  0  0  0  0  0  0  0  0  0  0  0
  152.9262  143.3347  160.5393 H   0  0  0  0  0  0  0  0  0  0  0  0
  150.6863  145.1121  158.0727 H   0  0  0  0  0  0  0  0  0  0  0  0
  152.3251  145.2928  160.7265 H   0  0  0  0  0  0  0  0  0  0  0  0
  151.5882  146.6954  159.7935 H   0  0  0  0  0  0  0  0  0  0  0  0
  149.3043  145.6794  160.0880 H   0  0  0  0  0  0  0  0  0  0  0  0
  150.0513  144.2753  161.0124 H   0  0  0  0  0  0  0  0  0  0  0  0
  151.7268  140.6036  155.6030 H   0  0  0  0  0  0  0  0  0  0  0  0
  150.7554  139.6729  156.6887 H   0  0  0  0  0  0  0  0  0  0  0  0
  149.0443  141.5809  156.7641 H   0  0  0  0  0  0  0  0  0  0  0  0
  149.4042  143.2859  155.4424 H   0  0  0  0  0  0  0  0  0  0  0  0
  149.5707  140.8320  153.8449 H   0  0  0  0  0  0  0  0  0  0  0  0
  149.1023  139.6256  154.9969 H   0  0  0  0  0  0  0  0  0  0  0  0
  146.9193  139.8904  156.2581 H   0  0  0  0  0  0  0  0  0  0  0  0
  147.2944  141.5626  156.6129 H   0  0  0  0  0  0  0  0  0  0  0  0
  144.8834  140.5394  155.0144 H   0  0  0  0  0  0  0  0  0  0  0  0
  144.8499  141.2392  156.6229 H   0  0  0  0  0  0  0  0  0  0  0  0
  145.4890  142.0362  153.1240 H   0  0  0  0  0  0  0  0  0  0  0  0
  145.8418  143.7136  153.5006 H   0  0  0  0  0  0  0  0  0  0  0  0
  147.8936  143.0808  154.7177 H   0  0  0  0  0  0  0  0  0  0  0  0
  147.9461  142.4180  153.0995 H   0  0  0  0  0  0  0  0  0  0  0  0
  1  2  2  0  0  0  0
  2 14  1  0  0  0  0
  2  3  1  0  0  0  0
  3  4  1  0  0  0  0
  3  8  2  0  0  0  0
  4  5  1  0  0  0  0
  4  6  1  0  0  0  0
  4  7  1  0  0  0  0
  8  9  1  0  0  0  0
  8 25  1  0  0  0  0
  9 10  1  0  0  0  0
  9 13  2  0  0  0  0
 10 12  1  0  0  0  0
 10 11  1  0  0  0  0
 10 26  1  0  0  0  0
 11 12  1  0  0  0  0
 11 27  1  0  0  0  0
 11 28  1  0  0  0  0
 12 29  1  0  0  0  0
 12 30  1  0  0  0  0
 13 14  1  0  0  0  0
 14 15  1  0  0  0  0
 15 16  1  0  0  0  0
 15 31  1  0  0  0  0
 15 32  1  0  0  0  0
 16 17  1  0  0  0  0
 16 18  1  0  0  0  0
 16 33  1  0  0  0  0
 17 34  1  0  0  0  0
 18 19  1  0  0  0  0
 18 35  1  0  0  0  0
 18 36  1  0  0  0  0
 19 24  1  0  0  0  0
 19 20  1  0  0  0  0
 20 21  1  0  0  0  0
 20 37  1  0  0  0  0
 20 38  1  0  0  0  0
 21 22  1  0  0  0  0
 21 39  1  0  0  0  0
 21 40  1  0  0  0  0
 22 23  1  0  0  0  0
 23 24  1  0  0  0  0
 23 41  1  0  0  0  0
 23 42  1  0  0  0  0
 24 43  1  0  0  0  0
 24 44  1  0  0  0  0
M  END
> <s_m_source_file>
AV-unprocessed.smi

> <i_m_source_file_index>
1603

> <i_lp_mmshare_version>
43012

> <i_f3d_flags>
0

> <s_epik_input>
Tz1jMWMoQyhGKShGKUYpW2NIXWMoW0NIXTJbQ0gyXVtDSDJdMilubjFbQ0gyXVtDQEhdKFtPSF0pW0NIMl1OM1tDSDJdW0NIMl1PW0NIMl1bQ0gyXTM=

> <s_epik_cmdline>
J2VwaWtfcHl0aG9uJywgJy1waCcsICc3LjAnLCAnLXRuJywgJzgnLCAnLW1hJywgJzIwMCcsICctbWV0YWxfYmluZGluZycsICctaW1hZScsICc8aW5maWxlLm1hZT4nLCAnLW9tYWUnLCAnPG91dGZpbGUubWFlPic=

> <r_lp_tautomer_probability>
1

> <r_epik_Ionization_Penalty>
0.450313

> <r_epik_Ionization_Penalty_Charging>
7.22079e-10

> <r_epik_Ionization_Penalty_Neutral>
0.450313

> <r_epik_State_Penalty>
0.45306

> <r_epik_Charging_Adjusted_Penalty>
0.45306

> <i_epik_Tot_Q>
0

> <i_epik_Tot_abs_Q>
0

> <r_epik_Metal_State_Penalty>
0.45306

> <b_epik_Metal_Only>
0

> <s_lp_Force_Field>
OPLS_2005

> <r_lp_Energy>
51.835

> <b_lp_Chiralities_Consistent>
1

> <s_lp_Variant>
AV-unprocessed.smi:1603-4

> <Gold.Version>
5.8.1

> <Gold.Id.Protein>
6NUR|6NUR_protein|mol2

> <Gold.PLP.Fitness>
50.7997

> <Gold.PLP.PLP>
-47.8057

> <Gold.PLP.part.hbond>
-1.4799

> <Gold.PLP.part.metal>
0.0000

> <Gold.PLP.part.buried>
-5.1727

> <Gold.PLP.part.nonpolar>
-42.3819

> <Gold.PLP.part.repulsive>
0.3734

> <Gold.PLP.ligand.clash>
0.0000

> <Gold.PLP.ligand.torsion>
1.6094

> <Gold.PLP.Chemscore.Hbond>
1.8620

> <Gold.PLP.Chemscore.CHOScore>
0.0000

> <Gold.PLP.Chemscore.Metal>
0.0000

> <Gold.Chemscore.Hbonds>
donor molecule, donor type, donor heavy atom, donor atom, acceptor molecule, acceptor atom, score
      L1  H    17    34       P1  8028  0.94
      P1  H  7997  8008       L1     1  0.90

> <Gold.PLP.Chemscore.Internal.Correction>
0.6268

> <Gold.Rescore>
     Score         DG    S(hbond)    S(metal)    S(lipo)     H(rot)  DE(clash)    DE(int)     intcor
     12.94     -15.88       1.11        0.00     110.35       2.43       0.47       2.48       ----

> <Gold.Chemscore.Fitness>
12.9376

> <Gold.Chemscore.DG>
-15.8820

> <Gold.Chemscore.ZeroCoef>
-5.4800

> <Gold.Chemscore.Hbond>
1.1093

> <Gold.Chemscore.Metal>
0.0000

> <Gold.Chemscore.Lipo>
110.3470

> <Gold.Chemscore.Internal_Hbond>
0.0000

> <Gold.Chemscore.DEClash>
0.4671

> <Gold.Chemscore.DEInternal>
2.4772

> <Gold.Chemscore.Rot>
2.4272

> <Gold.Chemscore.Internal.Correction>
   9.000000E+99

> <Gold.Chemscore.Hbonds>
donor molecule, donor type, donor heavy atom, donor atom, acceptor molecule, acceptor atom, score
      L1  H    17    34       P1  8028  0.85
      P1  H  7997  8008       L1     1  0.17

> <Gold.Chemscore.Hbond.Weighted>
-3.7049

> <Gold.Chemscore.Metal.Weighted>
-0.0000

> <Gold.Chemscore.Lipo.Weighted>
-12.9106

> <Gold.Chemscore.Internal_Hbond.Weighted>
0.0000

> <Gold.Chemscore.DEClash.Weighted>
0.4671

> <Gold.Chemscore.DEInternal.Weighted>
2.4772

> <Gold.Chemscore.Rot.Weighted>
6.2135

> <Gold.Chemscore.Internal.Correction.Weighted>
   9.000000E+99

> <Gold.Protein.RotatedTorsions>
[ 6907 6896 6895 6894 ] final  -75.51 input  -60.11 | X-H torsion
[ 7974 7965 7964 7962 ] final  102.42 input  175.53 | X-H torsion
[ 8008 7997 7996 7995 ] final  -77.71 input   59.86 | X-H torsion
[ 10167 10162 10161 10158 ] final   34.21 input  -65.29 | X-H torsion
[ 10718 10713 10712 10709 ] final -102.60 input   66.30 | X-H torsion
[ 10763 10752 10751 10750 ] final  146.39 input  -60.55 | X-H torsion
[ 11005 11000 10999 10996 ] final -154.17 input  -57.11 | X-H torsion

> <Gold.Protein.ActiveResidues>
 VAL166  LYS551  ARG553  GLY616  TRP617  ASP618  TYR619  PRO620  LYS621  CYS622 
 ASP623  PHE694  ASN695  SER759  ASP760  ASP761  ALA762  ILE779  LEU786  VAL792 
 PHE793  MET794  SER795  GLU796  ALA797  LYS798  CYS799  TRP800  GLU811  SER814 

> <Gold.Protein.RotatedAtoms>
  150.7057  134.4711  159.5425 H   0  0  0  0  0  0  0  0  0  0  0  0  # atno 6907 bound_to 6896
  152.2367  134.8266  160.0475 H   0  0  0  0  0  0  0  0  0  0  0  0  # atno 6908 bound_to 6896
  151.9063  133.3515  159.3885 H   0  0  0  0  0  0  0  0  0  0  0  0  # atno 6909 bound_to 6896
  145.3593  139.2421  143.3515 H   0  0  0  0  0  0  0  0  0  0  0  0  # atno 7974 bound_to 7965
  154.5621  140.0706  156.8835 H   0  0  0  0  0  0  0  0  0  0  0  0  # atno 8008 bound_to 7997
  155.2791  140.3370  155.4241 H   0  0  0  0  0  0  0  0  0  0  0  0  # atno 8009 bound_to 7997
  156.2051  140.1737  156.7803 H   0  0  0  0  0  0  0  0  0  0  0  0  # atno 8010 bound_to 7997
  140.4336  144.1289  150.6163 H   0  0  0  0  0  0  0  0  0  0  0  0  # atno 10167 bound_to 10162
  156.0234  130.5428  150.7132 H   0  0  0  0  0  0  0  0  0  0  0  0  # atno 10718 bound_to 10713
  154.0211  135.2906  155.3381 H   0  0  0  0  0  0  0  0  0  0  0  0  # atno 10763 bound_to 10752
  154.7045  135.5175  153.8579 H   0  0  0  0  0  0  0  0  0  0  0  0  # atno 10764 bound_to 10752
  153.0681  135.6638  154.0433 H   0  0  0  0  0  0  0  0  0  0  0  0  # atno 10765 bound_to 10752
  140.7002  134.3946  157.5210 H   0  0  0  0  0  0  0  0  0  0  0  0  # atno 11005 bound_to 11000
  146.2934  140.4224  142.8731 LP  0  0  0  0  0  0  0  0  0  0  0  0  # atno 17320 bound_to 7965
  144.8659  140.7204  143.6078 LP  0  0  0  0  0  0  0  0  0  0  0  0  # atno 17321 bound_to 7965
  140.4399  143.2531  151.9486 LP  0  0  0  0  0  0  0  0  0  0  0  0  # atno 17342 bound_to 10162
  139.4786  144.5664  151.8158 LP  0  0  0  0  0  0  0  0  0  0  0  0  # atno 17343 bound_to 10162
  157.4765  131.0898  151.0584 LP  0  0  0  0  0  0  0  0  0  0  0  0  # atno 17370 bound_to 10713
  157.1030  130.5989  149.5464 LP  0  0  0  0  0  0  0  0  0  0  0  0  # atno 17371 bound_to 10713
  139.8899  134.8819  156.2398 LP  0  0  0  0  0  0  0  0  0  0  0  0  # atno 17394 bound_to 11000
  141.0170  133.7063  156.1205 LP  0  0  0  0  0  0  0  0  0  0  0  0  # atno 17395 bound_to 11000

$$$$
