AV-unprocessed.smi:1831|AV-procd|sdf|7462|dock9
  -GOLD-   22720 9153D 1   1.00000     0.00000
 Structure written by MMmdl.
 40 41  0  0  0  0  0  0  0  0  3 V2000
  150.6539  137.9858  154.3272 C   0  0  0  0  0  0  0  0  0  0  0  0
  151.0104  136.8656  155.2431 C   0  0  0  0  0  0  0  0  0  0  0  0
  152.0362  136.9298  156.0951 N   0  0  0  0  0  0  0  0  0  0  0  0
  152.1674  135.7693  156.8436 N   0  0  0  0  0  0  0  0  0  0  0  0
  151.2473  134.8422  156.5424 C   0  0  0  0  0  0  0  0  0  0  0  0
  151.2007  133.6477  157.1552 N   0  5  0  0  0  0  0  0  0  0  0  0
  150.2800  132.7322  156.7798 C   0  0  0  0  0  0  0  0  0  0  0  0
  149.1284  132.6362  157.2102 O   0  0  0  0  0  0  0  0  0  0  0  0
  150.7262  131.8656  155.8588 N   0  0  0  0  0  0  0  0  0  0  0  0
  149.9744  130.7542  155.2831 C   0  0  0  0  0  0  0  0  0  0  0  0
  149.3394  131.1325  153.9316 C   0  0  2  0  0  0  0  0  0  0  0  0
  148.7073  132.5224  153.9115 C   0  0  0  0  0  0  0  0  0  0  0  0
  147.6442  132.4552  152.8065 C   0  0  0  0  0  0  0  0  0  0  0  0
  147.4686  131.0240  152.4529 N   0  3  2  0  0  0  0  0  0  0  0  0
  146.0656  130.6033  152.1788 C   0  0  0  0  0  0  0  0  0  0  0  0
  145.9553  129.0791  151.9805 C   0  0  0  0  0  0  0  0  0  0  0  0
  145.5026  131.3260  150.9406 C   0  0  0  0  0  0  0  0  0  0  0  0
  148.1767  130.2441  153.4892 C   0  0  0  0  0  0  0  0  0  0  0  0
  150.1129  135.3574  155.2944 S   0  0  0  0  0  0  0  0  0  0  0  0
  150.2070  138.8027  154.8938 H   0  0  0  0  0  0  0  0  0  0  0  0
  149.9402  137.6488  153.5754 H   0  0  0  0  0  0  0  0  0  0  0  0
  151.5454  138.3556  153.8201 H   0  0  0  0  0  0  0  0  0  0  0  0
  151.6738  131.9901  155.5331 H   0  0  0  0  0  0  0  0  0  0  0  0
  150.6060  129.8701  155.1814 H   0  0  0  0  0  0  0  0  0  0  0  0
  149.1898  130.4859  155.9908 H   0  0  0  0  0  0  0  0  0  0  0  0
  150.1082  131.0984  153.1575 H   0  0  0  0  0  0  0  0  0  0  0  0
  148.2231  132.7275  154.8675 H   0  0  0  0  0  0  0  0  0  0  0  0
  149.4411  133.3100  153.7384 H   0  0  0  0  0  0  0  0  0  0  0  0
  146.7155  132.9031  153.1637 H   0  0  0  0  0  0  0  0  0  0  0  0
  147.9588  133.0054  151.9191 H   0  0  0  0  0  0  0  0  0  0  0  0
  145.4556  130.8756  153.0417 H   0  0  0  0  0  0  0  0  0  0  0  0
  144.9342  128.7907  151.7293 H   0  0  0  0  0  0  0  0  0  0  0  0
  146.2233  128.5284  152.8824 H   0  0  0  0  0  0  0  0  0  0  0  0
  146.6028  128.7358  151.1728 H   0  0  0  0  0  0  0  0  0  0  0  0
  144.4823  131.0037  150.7312 H   0  0  0  0  0  0  0  0  0  0  0  0
  146.1028  131.1167  150.0543 H   0  0  0  0  0  0  0  0  0  0  0  0
  145.4715  132.4073  151.0738 H   0  0  0  0  0  0  0  0  0  0  0  0
  148.5187  129.2825  153.1051 H   0  0  0  0  0  0  0  0  0  0  0  0
  147.5053  130.0589  154.3297 H   0  0  0  0  0  0  0  0  0  0  0  0
  147.9930  130.8810  151.6016 H   0  0  0  0  0  0  0  0  0  0  0  0
  1  2  1  0  0  0  0
  1 20  1  0  0  0  0
  1 21  1  0  0  0  0
  1 22  1  0  0  0  0
  2 19  1  0  0  0  0
  2  3  2  0  0  0  0
  3  4  1  0  0  0  0
  4  5  2  0  0  0  0
  5  6  1  0  0  0  0
  5 19  1  0  0  0  0
  6  7  1  0  0  0  0
  7  8  2  0  0  0  0
  7  9  1  0  0  0  0
  9 10  1  0  0  0  0
  9 23  1  0  0  0  0
 10 11  1  0  0  0  0
 10 24  1  0  0  0  0
 10 25  1  0  0  0  0
 11 18  1  0  0  0  0
 11 12  1  0  0  0  0
 11 26  1  0  0  0  0
 12 13  1  0  0  0  0
 12 27  1  0  0  0  0
 12 28  1  0  0  0  0
 13 14  1  0  0  0  0
 13 29  1  0  0  0  0
 13 30  1  0  0  0  0
 14 15  1  0  0  0  0
 14 18  1  0  0  0  0
 14 40  1  0  0  0  0
 15 16  1  0  0  0  0
 15 17  1  0  0  0  0
 15 31  1  0  0  0  0
 16 32  1  0  0  0  0
 16 33  1  0  0  0  0
 16 34  1  0  0  0  0
 17 35  1  0  0  0  0
 17 36  1  0  0  0  0
 17 37  1  0  0  0  0
 18 38  1  0  0  0  0
 18 39  1  0  0  0  0
M  CHG  1   6  -1
M  CHG  1  14   1
M  END
> <s_m_source_file>
AV-unprocessed.smi

> <i_m_source_file_index>
1831

> <i_lp_mmshare_version>
43012

> <i_f3d_flags>
0

> <s_epik_input>
W0NIM11jMW5uYyhzMSlbTkhdQyg9TylbTkhdW0NIMl1bQ0BASF0yW0NIMl1bQ0gyXU4oW0NIMl0yKVtDSF0oW0NIM10pW0NIM10=

> <s_epik_cmdline>
J2VwaWtfcHl0aG9uJywgJy1waCcsICc3LjAnLCAnLXRuJywgJzgnLCAnLW1hJywgJzIwMCcsICctbWV0YWxfYmluZGluZycsICctaW1hZScsICc8aW5maWxlLm1hZT4nLCAnLW9tYWUnLCAnPG91dGZpbGUubWFlPic=

> <r_lp_tautomer_probability>
1

> <r_epik_Ionization_Penalty>
4.24531

> <r_epik_Ionization_Penalty_Charging>
4.11954

> <r_epik_Ionization_Penalty_Neutral>
0.125766

> <r_epik_State_Penalty>
4.11879

> <r_epik_Charging_Adjusted_Penalty>
8.23833

> <i_epik_Tot_Q>
0

> <i_epik_Tot_abs_Q>
2

> <r_epik_Metal_State_Penalty>
0.659341

> <b_epik_Metal_Only>
1

> <s_lp_Force_Field>
OPLS_2005

> <r_lp_Energy>
22.0207

> <b_lp_Chiralities_Consistent>
1

> <s_lp_Variant>
AV-unprocessed.smi:1831-7

> <Gold.Version>
5.8.1

> <Gold.Id.Protein>
6NUR|6NUR_protein|mol2

> <Gold.PLP.Fitness>
37.4699

> <Gold.PLP.PLP>
-32.9743

> <Gold.PLP.part.hbond>
-4.0000

> <Gold.PLP.part.metal>
0.0000

> <Gold.PLP.part.buried>
-4.3921

> <Gold.PLP.part.nonpolar>
-26.0494

> <Gold.PLP.part.repulsive>
0.0353

> <Gold.PLP.ligand.clash>
0.0000

> <Gold.PLP.ligand.torsion>
1.1494

> <Gold.PLP.Chemscore.Hbond>
2.2480

> <Gold.PLP.Chemscore.CHOScore>
0.0000

> <Gold.PLP.Chemscore.Metal>
0.0000

> <Gold.Chemscore.Hbonds>
donor molecule, donor type, donor heavy atom, donor atom, acceptor molecule, acceptor atom, score
      L1  H    14    40       P1 10747  1.00
      P1  H  6896  6908       L1     6  1.14

> <Gold.PLP.Chemscore.Internal.Correction>
0.0505

> <Gold.Rescore>
     Score         DG    S(hbond)    S(metal)    S(lipo)     H(rot)  DE(clash)    DE(int)     intcor
     14.59     -15.85       1.63        0.00      75.29       1.51       0.07       1.20       ----

> <Gold.Chemscore.Fitness>
14.5857

> <Gold.Chemscore.DG>
-15.8484

> <Gold.Chemscore.ZeroCoef>
-5.4800

> <Gold.Chemscore.Hbond>
1.6265

> <Gold.Chemscore.Metal>
0.0000

> <Gold.Chemscore.Lipo>
75.2925

> <Gold.Chemscore.Internal_Hbond>
0.0000

> <Gold.Chemscore.DEClash>
0.0668

> <Gold.Chemscore.DEInternal>
1.1959

> <Gold.Chemscore.Rot>
1.5131

> <Gold.Chemscore.Internal.Correction>
   9.000000E+99

> <Gold.Chemscore.Hbonds>
donor molecule, donor type, donor heavy atom, donor atom, acceptor molecule, acceptor atom, score
      L1  H    14    40       P1 10747  1.00
      P1  H  6896  6908       L1     6  0.21

> <Gold.Chemscore.Hbond.Weighted>
-5.4326

> <Gold.Chemscore.Metal.Weighted>
-0.0000

> <Gold.Chemscore.Lipo.Weighted>
-8.8092

> <Gold.Chemscore.Internal_Hbond.Weighted>
0.0000

> <Gold.Chemscore.DEClash.Weighted>
0.0668

> <Gold.Chemscore.DEInternal.Weighted>
1.1959

> <Gold.Chemscore.Rot.Weighted>
3.8735

> <Gold.Chemscore.Internal.Correction.Weighted>
   9.000000E+99

> <Gold.Protein.RotatedTorsions>
[ 6907 6896 6895 6894 ] final   88.66 input  -60.11 | X-H torsion
[ 7974 7965 7964 7962 ] final -179.55 input  175.53 | X-H torsion
[ 8008 7997 7996 7995 ] final  -73.91 input   59.86 | X-H torsion
[ 10167 10162 10161 10158 ] final -158.96 input  -65.29 | X-H torsion
[ 10718 10713 10712 10709 ] final -116.98 input   66.30 | X-H torsion
[ 10763 10752 10751 10750 ] final   72.70 input  -60.55 | X-H torsion
[ 11005 11000 10999 10996 ] final   69.31 input  -57.11 | X-H torsion

> <Gold.Protein.ActiveResidues>
 VAL166  LYS551  ARG553  GLY616  TRP617  ASP618  TYR619  PRO620  LYS621  CYS622 
 ASP623  PHE694  ASN695  SER759  ASP760  ASP761  ALA762  ILE779  LEU786  VAL792 
 PHE793  MET794  SER795  GLU796  ALA797  LYS798  CYS799  TRP800  GLU811  SER814 

> <Gold.Protein.RotatedAtoms>
  152.5428  134.2086  159.8740 H   0  0  0  0  0  0  0  0  0  0  0  0  # atno 6907 bound_to 6896
  151.2070  133.4571  159.2605 H   0  0  0  0  0  0  0  0  0  0  0  0  # atno 6908 bound_to 6896
  151.0933  134.9942  159.8469 H   0  0  0  0  0  0  0  0  0  0  0  0  # atno 6909 bound_to 6896
  144.7137  140.0700  143.6429 H   0  0  0  0  0  0  0  0  0  0  0  0  # atno 7974 bound_to 7965
  154.5286  140.0771  156.8304 H   0  0  0  0  0  0  0  0  0  0  0  0  # atno 8008 bound_to 7997
  155.3422  140.3408  155.4221 H   0  0  0  0  0  0  0  0  0  0  0  0  # atno 8009 bound_to 7997
  156.1758  140.1635  156.8352 H   0  0  0  0  0  0  0  0  0  0  0  0  # atno 8010 bound_to 7997
  139.6651  143.9843  152.2250 H   0  0  0  0  0  0  0  0  0  0  0  0  # atno 10167 bound_to 10162
  156.1001  130.6165  150.9105 H   0  0  0  0  0  0  0  0  0  0  0  0  # atno 10718 bound_to 10713
  153.0475  135.5090  154.7783 H   0  0  0  0  0  0  0  0  0  0  0  0  # atno 10763 bound_to 10752
  154.6671  135.2947  154.9793 H   0  0  0  0  0  0  0  0  0  0  0  0  # atno 10764 bound_to 10752
  154.0624  135.6689  153.4866 H   0  0  0  0  0  0  0  0  0  0  0  0  # atno 10765 bound_to 10752
  139.9661  134.6978  156.0543 H   0  0  0  0  0  0  0  0  0  0  0  0  # atno 11005 bound_to 11000
  145.9791  139.2927  143.1052 LP  0  0  0  0  0  0  0  0  0  0  0  0  # atno 17320 bound_to 7965
  145.9030  140.9230  143.0493 LP  0  0  0  0  0  0  0  0  0  0  0  0  # atno 17321 bound_to 7965
  139.9592  144.6569  150.8096 LP  0  0  0  0  0  0  0  0  0  0  0  0  # atno 17342 bound_to 10162
  140.7596  143.3133  151.2794 LP  0  0  0  0  0  0  0  0  0  0  0  0  # atno 17343 bound_to 10162
  157.6170  131.0932  150.8692 LP  0  0  0  0  0  0  0  0  0  0  0  0  # atno 17370 bound_to 10713
  156.8822  130.5183  149.5290 LP  0  0  0  0  0  0  0  0  0  0  0  0  # atno 17371 bound_to 10713
  141.1341  133.6579  156.3544 LP  0  0  0  0  0  0  0  0  0  0  0  0  # atno 17394 bound_to 11000
  140.5393  134.6136  157.5375 LP  0  0  0  0  0  0  0  0  0  0  0  0  # atno 17395 bound_to 11000

$$$$
