AV-unprocessed.smi:2532|AV-procd|sdf|9969|dock9
  -GOLD-   2272014 13D 1   1.00000     0.00000
 Structure written by MMmdl.
 36 38  0  0  0  0  0  0  0  0  1 V2000
  147.7144  138.4677  151.8346 O   0  0  0  0  0  0  0  0  0  0  0  0
  146.8294  138.5784  152.9326 C   0  0  1  0  0  0  0  0  0  0  0  0
  145.5670  137.7561  152.6277 C   0  0  0  0  0  0  0  0  0  0  0  0
  145.9116  136.6689  151.7854 O   0  0  0  0  0  0  0  0  0  0  0  0
  144.7758  136.0221  151.2342 C   0  0  0  0  0  0  0  0  0  0  0  0
  145.1341  134.5893  151.0000 C   0  0  0  0  0  0  0  0  0  0  0  0
  144.4927  133.7038  150.1714 C   0  0  0  0  0  0  0  0  0  0  0  0
  145.0949  132.4116  150.1521 C   0  0  0  0  0  0  0  0  0  0  0  0
  146.1961  132.3269  150.9615 C   0  0  0  0  0  0  0  0  0  0  0  0
  146.5167  133.8396  151.7649 S   0  0  0  0  0  0  0  0  0  0  0  0
  147.5447  138.0805  154.2036 C   0  0  0  0  0  0  0  0  0  0  0  0
  148.7511  138.8343  154.4977 N   0  0  0  0  0  0  0  0  0  0  0  0
  149.9275  138.7637  153.8455 C   0  0  0  0  0  0  0  0  0  0  0  0
  150.9117  139.5476  154.2767 N   0  0  0  0  0  0  0  0  0  0  0  0
  150.3029  140.2058  155.3316 C   0  0  0  0  0  0  0  0  0  0  0  0
  150.8092  141.1844  156.2167 C   0  0  0  0  0  0  0  0  0  0  0  0
  149.9910  141.7202  157.2330 C   0  0  0  0  0  0  0  0  0  0  0  0
  148.6577  141.2861  157.3809 C   0  0  0  0  0  0  0  0  0  0  0  0
  148.1311  140.3117  156.5113 C   0  0  0  0  0  0  0  0  0  0  0  0
  148.9498  139.7812  155.4970 C   0  0  0  0  0  0  0  0  0  0  0  0
  148.2236  139.2619  151.7793 H   0  0  0  0  0  0  0  0  0  0  0  0
  146.5596  139.6272  153.0656 H   0  0  0  0  0  0  0  0  0  0  0  0
  145.0867  137.4148  153.5466 H   0  0  0  0  0  0  0  0  0  0  0  0
  144.8431  138.3775  152.0979 H   0  0  0  0  0  0  0  0  0  0  0  0
  143.9290  136.0944  151.9187 H   0  0  0  0  0  0  0  0  0  0  0  0
  144.4877  136.4909  150.2924 H   0  0  0  0  0  0  0  0  0  0  0  0
  143.6171  133.9371  149.5835 H   0  0  0  0  0  0  0  0  0  0  0  0
  144.7058  131.6019  149.5522 H   0  0  0  0  0  0  0  0  0  0  0  0
  146.8370  131.4747  151.1325 H   0  0  0  0  0  0  0  0  0  0  0  0
  146.8794  138.1594  155.0644 H   0  0  0  0  0  0  0  0  0  0  0  0
  147.8036  137.0252  154.1080 H   0  0  0  0  0  0  0  0  0  0  0  0
  150.0693  138.0972  153.0072 H   0  0  0  0  0  0  0  0  0  0  0  0
  151.8294  141.5232  156.1136 H   0  0  0  0  0  0  0  0  0  0  0  0
  150.3889  142.4683  157.9030 H   0  0  0  0  0  0  0  0  0  0  0  0
  148.0391  141.7015  158.1630 H   0  0  0  0  0  0  0  0  0  0  0  0
  147.1108  139.9754  156.6235 H   0  0  0  0  0  0  0  0  0  0  0  0
  1  2  1  0  0  0  0
  1 21  1  0  0  0  0
  2  3  1  0  0  0  0
  2 11  1  0  0  0  0
  2 22  1  0  0  0  0
  3  4  1  0  0  0  0
  3 23  1  0  0  0  0
  3 24  1  0  0  0  0
  4  5  1  0  0  0  0
  5  6  1  0  0  0  0
  5 25  1  0  0  0  0
  5 26  1  0  0  0  0
  6 10  1  0  0  0  0
  6  7  2  0  0  0  0
  7  8  1  0  0  0  0
  7 27  1  0  0  0  0
  8  9  2  0  0  0  0
  8 28  1  0  0  0  0
  9 10  1  0  0  0  0
  9 29  1  0  0  0  0
 11 12  1  0  0  0  0
 11 30  1  0  0  0  0
 11 31  1  0  0  0  0
 12 20  1  0  0  0  0
 12 13  1  0  0  0  0
 13 14  2  0  0  0  0
 13 32  1  0  0  0  0
 14 15  1  0  0  0  0
 15 20  2  0  0  0  0
 15 16  1  0  0  0  0
 16 17  2  0  0  0  0
 16 33  1  0  0  0  0
 17 18  1  0  0  0  0
 17 34  1  0  0  0  0
 18 19  2  0  0  0  0
 18 35  1  0  0  0  0
 19 20  1  0  0  0  0
 19 36  1  0  0  0  0
M  END
> <s_m_source_file>
AV-unprocessed.smi

> <i_m_source_file_index>
2532

> <i_lp_mmshare_version>
43012

> <i_f3d_flags>
0

> <s_epik_input>
W2NIXTFbY0hdW2NIXVtjSF1jKGMxMiluKFtjSF1uMilbQ0gyXVtDQEhdKFtPSF0pW0NIMl1PW0NIMl1jM1tjSF1bY0hdW2NIXXMz

> <s_epik_cmdline>
J2VwaWtfcHl0aG9uJywgJy1waCcsICc3LjAnLCAnLXRuJywgJzgnLCAnLW1hJywgJzIwMCcsICctbWV0YWxfYmluZGluZycsICctaW1hZScsICc8aW5maWxlLm1hZT4nLCAnLW9tYWUnLCAnPG91dGZpbGUubWFlPic=

> <r_epik_Ionization_Penalty>
0.0678455

> <r_epik_Ionization_Penalty_Charging>
0

> <r_epik_Ionization_Penalty_Neutral>
0.0678455

> <r_epik_State_Penalty>
0.0593261

> <r_epik_Charging_Adjusted_Penalty>
0.0593261

> <i_epik_Tot_Q>
0

> <i_epik_Tot_abs_Q>
0

> <r_epik_Metal_State_Penalty>
6.23947e-05

> <b_epik_Metal_Only>
0

> <s_lp_Force_Field>
OPLS_2005

> <r_lp_Energy>
10.0551

> <b_lp_Chiralities_Consistent>
1

> <s_lp_Variant>
AV-unprocessed.smi:2532-2

> <Gold.Version>
5.8.1

> <Gold.Id.Protein>
6NUR|6NUR_protein|mol2

> <Gold.PLP.Fitness>
46.1485

> <Gold.PLP.PLP>
-33.7915

> <Gold.PLP.part.hbond>
-3.9302

> <Gold.PLP.part.metal>
0.0000

> <Gold.PLP.part.buried>
-1.0172

> <Gold.PLP.part.nonpolar>
-29.3734

> <Gold.PLP.part.repulsive>
0.8329

> <Gold.PLP.ligand.clash>
0.0000

> <Gold.PLP.ligand.torsion>
1.0083

> <Gold.PLP.Chemscore.Hbond>
2.5622

> <Gold.PLP.Chemscore.CHOScore>
2.2090

> <Gold.PLP.Chemscore.Metal>
0.0000

> <Gold.Chemscore.Hbonds>
donor molecule, donor type, donor heavy atom, donor atom, acceptor molecule, acceptor atom, score
      L1  H     1    21       P1  7957  0.93
      P1  H  7954  7966       L1     1  0.59
      P1  H  7989  7998       L1    14  1.00
      L1  C     9    29       P1 10747  1.00
      L1  C    13    32       P1  7948  1.00
      L1  C    13    32       P1  7949  0.03
      L1  C    13    32       P1  7957  0.17

> <Gold.PLP.Chemscore.Internal.Correction>
0.0600

> <Gold.Rescore>
     Score         DG    S(hbond)    S(metal)    S(lipo)     H(rot)  DE(clash)    DE(int)     intcor
     11.99     -14.18       1.65        0.00      79.07       2.36       0.22       1.98       ----

> <Gold.Chemscore.Fitness>
11.9875

> <Gold.Chemscore.DG>
-14.1797

> <Gold.Chemscore.ZeroCoef>
-5.4800

> <Gold.Chemscore.Hbond>
1.6453

> <Gold.Chemscore.Metal>
0.0000

> <Gold.Chemscore.Lipo>
79.0701

> <Gold.Chemscore.Internal_Hbond>
0.0000

> <Gold.Chemscore.DEClash>
0.2156

> <Gold.Chemscore.DEInternal>
1.9765

> <Gold.Chemscore.Rot>
2.3620

> <Gold.Chemscore.Internal.Correction>
   9.000000E+99

> <Gold.Chemscore.Hbonds>
donor molecule, donor type, donor heavy atom, donor atom, acceptor molecule, acceptor atom, score
      L1  H     1    21       P1  7957  0.88
      P1  H  7954  7966       L1     1  0.05
      P1  H  7989  7998       L1    14  0.26

> <Gold.Chemscore.Hbond.Weighted>
-5.4952

> <Gold.Chemscore.Metal.Weighted>
-0.0000

> <Gold.Chemscore.Lipo.Weighted>
-9.2512

> <Gold.Chemscore.Internal_Hbond.Weighted>
0.0000

> <Gold.Chemscore.DEClash.Weighted>
0.2156

> <Gold.Chemscore.DEInternal.Weighted>
1.9765

> <Gold.Chemscore.Rot.Weighted>
6.0468

> <Gold.Chemscore.Internal.Correction.Weighted>
   9.000000E+99

> <Gold.Protein.RotatedTorsions>
[ 6907 6896 6895 6894 ] final   97.35 input  -60.11 | X-H torsion
[ 7974 7965 7964 7962 ] final  -25.11 input  175.53 | X-H torsion
[ 8008 7997 7996 7995 ] final  -89.27 input   59.86 | X-H torsion
[ 10167 10162 10161 10158 ] final -115.02 input  -65.29 | X-H torsion
[ 10718 10713 10712 10709 ] final  -34.21 input   66.30 | X-H torsion
[ 10763 10752 10751 10750 ] final  -77.44 input  -60.55 | X-H torsion
[ 11005 11000 10999 10996 ] final  -84.89 input  -57.11 | X-H torsion

> <Gold.Protein.ActiveResidues>
 VAL166  LYS551  ARG553  GLY616  TRP617  ASP618  TYR619  PRO620  LYS621  CYS622 
 ASP623  PHE694  ASN695  SER759  ASP760  ASP761  ALA762  ILE779  LEU786  VAL792 
 PHE793  MET794  SER795  GLU796  ALA797  LYS798  CYS799  TRP800  GLU811  SER814 

> <Gold.Protein.RotatedAtoms>
  152.5424  134.0747  159.8208 H   0  0  0  0  0  0  0  0  0  0  0  0  # atno 6907 bound_to 6896
  151.0856  133.5348  159.2625 H   0  0  0  0  0  0  0  0  0  0  0  0  # atno 6908 bound_to 6896
  151.2159  135.0508  159.8984 H   0  0  0  0  0  0  0  0  0  0  0  0  # atno 6909 bound_to 6896
  146.1512  140.4842  142.8610 H   0  0  0  0  0  0  0  0  0  0  0  0  # atno 7974 bound_to 7965
  154.6847  140.0543  157.0302 H   0  0  0  0  0  0  0  0  0  0  0  0  # atno 8008 bound_to 7997
  155.0902  140.3218  155.4557 H   0  0  0  0  0  0  0  0  0  0  0  0  # atno 8009 bound_to 7997
  156.2707  140.2049  156.6029 H   0  0  0  0  0  0  0  0  0  0  0  0  # atno 8010 bound_to 7997
  140.0946  143.4668  152.1849 H   0  0  0  0  0  0  0  0  0  0  0  0  # atno 10167 bound_to 10162
  156.3533  130.4312  149.7685 H   0  0  0  0  0  0  0  0  0  0  0  0  # atno 10718 bound_to 10713
  154.5130  135.5764  153.6620 H   0  0  0  0  0  0  0  0  0  0  0  0  # atno 10763 bound_to 10752
  152.9901  135.6163  154.2854 H   0  0  0  0  0  0  0  0  0  0  0  0  # atno 10764 bound_to 10752
  154.2770  135.2852  155.2693 H   0  0  0  0  0  0  0  0  0  0  0  0  # atno 10765 bound_to 10752
  141.1646  133.7370  156.8935 H   0  0  0  0  0  0  0  0  0  0  0  0  # atno 11005 bound_to 11000
  144.7906  140.6024  143.6544 LP  0  0  0  0  0  0  0  0  0  0  0  0  # atno 17320 bound_to 7965
  145.4819  139.1495  143.3757 LP  0  0  0  0  0  0  0  0  0  0  0  0  # atno 17321 bound_to 7965
  139.5705  144.7460  151.3903 LP  0  0  0  0  0  0  0  0  0  0  0  0  # atno 17342 bound_to 10162
  140.7010  143.7631  150.7403 LP  0  0  0  0  0  0  0  0  0  0  0  0  # atno 17343 bound_to 10162
  156.4877  130.8070  151.3082 LP  0  0  0  0  0  0  0  0  0  0  0  0  # atno 17370 bound_to 10713
  157.7464  130.9985  150.2856 LP  0  0  0  0  0  0  0  0  0  0  0  0  # atno 17371 bound_to 10713
  140.1632  134.9151  157.2741 LP  0  0  0  0  0  0  0  0  0  0  0  0  # atno 17394 bound_to 11000
  140.2587  134.3597  155.7415 LP  0  0  0  0  0  0  0  0  0  0  0  0  # atno 17395 bound_to 11000

$$$$
