AV-unprocessed.smi:2268|AV-procd|sdf|9150|dock6
  -GOLD-   2272012353D 1   1.00000     0.00000
 Structure written by MMmdl.
 37 38  0  0  0  0  0  0  0  0  1 V2000
  153.3654  140.6928  159.1285 C   0  0  0  0  0  0  0  0  0  0  0  0
  152.9190  141.8832  159.9598 C   0  0  0  0  0  0  0  0  0  0  0  0
  153.3877  141.9910  161.2873 C   0  0  0  0  0  0  0  0  0  0  0  0
  152.9913  143.0668  162.1021 C   0  0  0  0  0  0  0  0  0  0  0  0
  153.4475  143.1587  163.3736 F   0  0  0  0  0  0  0  0  0  0  0  0
  152.1176  144.0440  161.5950 C   0  0  0  0  0  0  0  0  0  0  0  0
  151.6464  143.9456  160.2730 C   0  0  0  0  0  0  0  0  0  0  0  0
  152.0444  142.8746  159.4390 C   0  0  0  0  0  0  0  0  0  0  0  0
  151.5050  142.8052  158.0101 C   0  0  2  0  0  0  0  0  0  0  0  0
  150.5803  143.8455  157.7549 O   0  0  0  0  0  0  0  0  0  0  0  0
  150.8071  141.4509  157.7510 C   0  0  0  0  0  0  0  0  0  0  0  0
  149.7345  141.5518  156.7455 N   0  0  0  0  0  0  0  0  0  0  0  0
  150.1452  141.6260  155.4041 C   0  0  0  0  0  0  0  0  0  0  0  0
  149.2928  141.7134  154.4358 N   0  0  0  0  0  0  0  0  0  0  0  0
  147.9230  141.7327  154.7126 C   0  0  0  0  0  0  0  0  0  0  0  0
  147.0105  141.8333  153.5031 C   0  0  0  0  0  0  0  0  0  0  0  0
  147.4590  141.6629  155.9901 C   0  0  0  0  0  0  0  0  0  0  0  0
  145.9791  141.6779  156.3521 C   0  0  0  0  0  0  0  0  0  0  0  0
  148.4176  141.5648  157.1027 C   0  0  0  0  0  0  0  0  0  0  0  0
  148.0660  141.4959  158.2815 O   0  0  0  0  0  0  0  0  0  0  0  0
  153.9684  140.0000  159.7162 H   0  0  0  0  0  0  0  0  0  0  0  0
  153.9674  141.0199  158.2806 H   0  0  0  0  0  0  0  0  0  0  0  0
  152.5023  140.1424  158.7554 H   0  0  0  0  0  0  0  0  0  0  0  0
  154.0550  141.2435  161.6909 H   0  0  0  0  0  0  0  0  0  0  0  0
  151.8074  144.8686  162.2196 H   0  0  0  0  0  0  0  0  0  0  0  0
  150.9705  144.7022  159.9019 H   0  0  0  0  0  0  0  0  0  0  0  0
  152.3197  142.9457  157.3017 H   0  0  0  0  0  0  0  0  0  0  0  0
  150.2300  143.7270  156.8852 H   0  0  0  0  0  0  0  0  0  0  0  0
  151.5455  140.7325  157.3895 H   0  0  0  0  0  0  0  0  0  0  0  0
  150.4517  141.0213  158.6901 H   0  0  0  0  0  0  0  0  0  0  0  0
  151.2239  141.6001  155.2405 H   0  0  0  0  0  0  0  0  0  0  0  0
  146.4020  142.7363  153.5569 H   0  0  0  0  0  0  0  0  0  0  0  0
  146.3487  140.9685  153.4511 H   0  0  0  0  0  0  0  0  0  0  0  0
  147.5831  141.8707  152.5756 H   0  0  0  0  0  0  0  0  0  0  0  0
  145.7132  140.7642  156.8844 H   0  0  0  0  0  0  0  0  0  0  0  0
  145.3253  141.7540  155.4849 H   0  0  0  0  0  0  0  0  0  0  0  0
  145.7598  142.5247  157.0033 H   0  0  0  0  0  0  0  0  0  0  0  0
  1  2  1  0  0  0  0
  1 21  1  0  0  0  0
  1 22  1  0  0  0  0
  1 23  1  0  0  0  0
  2  8  1  0  0  0  0
  2  3  2  0  0  0  0
  3  4  1  0  0  0  0
  3 24  1  0  0  0  0
  4  5  1  0  0  0  0
  4  6  2  0  0  0  0
  6  7  1  0  0  0  0
  6 25  1  0  0  0  0
  7  8  2  0  0  0  0
  7 26  1  0  0  0  0
  8  9  1  0  0  0  0
  9 10  1  0  0  0  0
  9 11  1  0  0  0  0
  9 27  1  0  0  0  0
 10 28  1  0  0  0  0
 11 12  1  0  0  0  0
 11 29  1  0  0  0  0
 11 30  1  0  0  0  0
 12 19  1  0  0  0  0
 12 13  1  0  0  0  0
 13 14  2  0  0  0  0
 13 31  1  0  0  0  0
 14 15  1  0  0  0  0
 15 16  1  0  0  0  0
 15 17  2  0  0  0  0
 16 32  1  0  0  0  0
 16 33  1  0  0  0  0
 16 34  1  0  0  0  0
 17 18  1  0  0  0  0
 17 19  1  0  0  0  0
 18 35  1  0  0  0  0
 18 36  1  0  0  0  0
 18 37  1  0  0  0  0
 19 20  2  0  0  0  0
M  END
> <s_m_source_file>
AV-unprocessed.smi

> <i_m_source_file_index>
2268

> <i_lp_mmshare_version>
43012

> <i_f3d_flags>
0

> <s_epik_input>
W0NIM11jMVtjSF1jKEYpW2NIXVtjSF1jMVtDQEhdKFtPSF0pW0NIMl1uMltjSF1uYyhbQ0gzXSljKFtDSDNdKWMyPU8=

> <s_epik_cmdline>
J2VwaWtfcHl0aG9uJywgJy1waCcsICc3LjAnLCAnLXRuJywgJzgnLCAnLW1hJywgJzIwMCcsICctbWV0YWxfYmluZGluZycsICctaW1hZScsICc8aW5maWxlLm1hZT4nLCAnLW9tYWUnLCAnPG91dGZpbGUubWFlPic=

> <r_lp_tautomer_probability>
1

> <r_epik_Ionization_Penalty>
5.07449e-05

> <r_epik_Ionization_Penalty_Charging>
7.56727e-08

> <r_epik_Ionization_Penalty_Neutral>
5.06692e-05

> <r_epik_State_Penalty>
-0

> <r_epik_Charging_Adjusted_Penalty>
7.56727e-08

> <i_epik_Tot_Q>
0

> <i_epik_Tot_abs_Q>
0

> <r_epik_Metal_State_Penalty>
-0

> <b_epik_Metal_Only>
0

> <s_lp_Force_Field>
OPLS_2005

> <r_lp_Energy>
19.9067

> <b_lp_Chiralities_Consistent>
1

> <s_lp_Variant>
AV-unprocessed.smi:2268-1

> <Gold.Version>
5.8.1

> <Gold.Id.Protein>
6NUR|6NUR_protein|mol2

> <Gold.PLP.Fitness>
49.0517

> <Gold.PLP.PLP>
-48.4007

> <Gold.PLP.part.hbond>
-3.1367

> <Gold.PLP.part.metal>
0.0000

> <Gold.PLP.part.buried>
-6.3248

> <Gold.PLP.part.nonpolar>
-37.6635

> <Gold.PLP.part.repulsive>
0.2480

> <Gold.PLP.ligand.clash>
0.4966

> <Gold.PLP.ligand.torsion>
0.6397

> <Gold.PLP.Chemscore.Hbond>
0.8065

> <Gold.PLP.Chemscore.CHOScore>
0.0000

> <Gold.PLP.Chemscore.Metal>
0.0000

> <Gold.Chemscore.Hbonds>
donor molecule, donor type, donor heavy atom, donor atom, acceptor molecule, acceptor atom, score
      L1  H    10    28       P1  8028  0.65
      P1  H  8011  8017       L1    14  0.20

> <Gold.PLP.Chemscore.Internal.Correction>
0.0074

> <Gold.Rescore>
     Score         DG    S(hbond)    S(metal)    S(lipo)     H(rot)  DE(clash)    DE(int)     intcor
     14.40     -15.95       0.92        0.00     106.70       1.98       0.10       1.45       ----

> <Gold.Chemscore.Fitness>
14.4045

> <Gold.Chemscore.DG>
-15.9530

> <Gold.Chemscore.ZeroCoef>
-5.4800

> <Gold.Chemscore.Hbond>
0.9174

> <Gold.Chemscore.Metal>
0.0000

> <Gold.Chemscore.Lipo>
106.6979

> <Gold.Chemscore.Internal_Hbond>
0.0000

> <Gold.Chemscore.DEClash>
0.1031

> <Gold.Chemscore.DEInternal>
1.4455

> <Gold.Chemscore.Rot>
1.9823

> <Gold.Chemscore.Internal.Correction>
   9.000000E+99

> <Gold.Chemscore.Hbonds>
donor molecule, donor type, donor heavy atom, donor atom, acceptor molecule, acceptor atom, score
      L1  H    10    28       P1  8028  0.62
      P1  H  8011  8017       L1    14  0.17

> <Gold.Chemscore.Hbond.Weighted>
-3.0642

> <Gold.Chemscore.Metal.Weighted>
-0.0000

> <Gold.Chemscore.Lipo.Weighted>
-12.4837

> <Gold.Chemscore.Internal_Hbond.Weighted>
0.0000

> <Gold.Chemscore.DEClash.Weighted>
0.1031

> <Gold.Chemscore.DEInternal.Weighted>
1.4455

> <Gold.Chemscore.Rot.Weighted>
5.0748

> <Gold.Chemscore.Internal.Correction.Weighted>
   9.000000E+99

> <Gold.Protein.RotatedTorsions>
[ 6907 6896 6895 6894 ] final  -75.92 input  -60.11 | X-H torsion
[ 7974 7965 7964 7962 ] final   -9.71 input  175.53 | X-H torsion
[ 8008 7997 7996 7995 ] final  -27.00 input   59.86 | X-H torsion
[ 10167 10162 10161 10158 ] final -165.57 input  -65.29 | X-H torsion
[ 10718 10713 10712 10709 ] final  -11.24 input   66.30 | X-H torsion
[ 10763 10752 10751 10750 ] final  110.44 input  -60.55 | X-H torsion
[ 11005 11000 10999 10996 ] final   72.46 input  -57.11 | X-H torsion

> <Gold.Protein.ActiveResidues>
 VAL166  LYS551  ARG553  GLY616  TRP617  ASP618  TYR619  PRO620  LYS621  CYS622 
 ASP623  PHE694  ASN695  SER759  ASP760  ASP761  ALA762  ILE779  LEU786  VAL792 
 PHE793  MET794  SER795  GLU796  ALA797  LYS798  CYS799  TRP800  GLU811  SER814 

> <Gold.Protein.RotatedAtoms>
  150.7043  134.4650  159.5398 H   0  0  0  0  0  0  0  0  0  0  0  0  # atno 6907 bound_to 6896
  152.2317  134.8312  160.0482 H   0  0  0  0  0  0  0  0  0  0  0  0  # atno 6908 bound_to 6896
  151.9126  133.3530  159.3906 H   0  0  0  0  0  0  0  0  0  0  0  0  # atno 6909 bound_to 6896
  146.2243  140.2657  142.8354 H   0  0  0  0  0  0  0  0  0  0  0  0  # atno 7974 bound_to 7965
  154.4398  140.1884  156.0863 H   0  0  0  0  0  0  0  0  0  0  0  0  # atno 8008 bound_to 7997
  156.0400  140.3321  155.7207 H   0  0  0  0  0  0  0  0  0  0  0  0  # atno 8009 bound_to 7997
  155.5714  140.0613  157.2796 H   0  0  0  0  0  0  0  0  0  0  0  0  # atno 8010 bound_to 7997
  139.6173  144.0694  152.1900 H   0  0  0  0  0  0  0  0  0  0  0  0  # atno 10167 bound_to 10162
  156.6618  130.4984  149.6028 H   0  0  0  0  0  0  0  0  0  0  0  0  # atno 10718 bound_to 10713
  153.4490  135.3748  155.2273 H   0  0  0  0  0  0  0  0  0  0  0  0  # atno 10763 bound_to 10752
  154.8756  135.3881  154.4061 H   0  0  0  0  0  0  0  0  0  0  0  0  # atno 10764 bound_to 10752
  153.4617  135.7086  153.6110 H   0  0  0  0  0  0  0  0  0  0  0  0  # atno 10765 bound_to 10752
  139.9490  134.7261  156.0909 H   0  0  0  0  0  0  0  0  0  0  0  0  # atno 11005 bound_to 11000
  144.9306  140.7970  143.5691 LP  0  0  0  0  0  0  0  0  0  0  0  0  # atno 17320 bound_to 7965
  145.2600  139.1996  143.4897 LP  0  0  0  0  0  0  0  0  0  0  0  0  # atno 17321 bound_to 7965
  140.0327  144.6068  150.7475 LP  0  0  0  0  0  0  0  0  0  0  0  0  # atno 17342 bound_to 10162
  140.7359  143.2747  151.3779 LP  0  0  0  0  0  0  0  0  0  0  0  0  # atno 17343 bound_to 10162
  156.2005  130.6616  151.1162 LP  0  0  0  0  0  0  0  0  0  0  0  0  # atno 17370 bound_to 10713
  157.7107  131.0735  150.6511 LP  0  0  0  0  0  0  0  0  0  0  0  0  # atno 17371 bound_to 10713
  141.1148  133.6631  156.3066 LP  0  0  0  0  0  0  0  0  0  0  0  0  # atno 17394 bound_to 11000
  140.5765  134.5788  157.5470 LP  0  0  0  0  0  0  0  0  0  0  0  0  # atno 17395 bound_to 11000

$$$$
