AV-unprocessed.smi:2397|AV-procd|sdf|9495|dock4
  -GOLD-   2272013123D 1   1.00000     0.00000
 Structure written by MMmdl.
 37 38  0  0  0  0  0  0  0  0  2 V2000
  146.8234  142.5873  154.3525 C   0  0  0  0  0  0  0  0  0  0  0  0
  147.9871  141.6838  153.9165 C   0  0  0  0  0  0  0  0  0  0  0  0
  147.5259  140.4451  153.1335 C   0  0  0  0  0  0  0  0  0  0  0  0
  148.8856  141.3147  155.0876 C   0  0  0  0  0  0  0  0  0  0  0  0
  149.5511  142.2858  155.7325 N   0  3  0  0  0  0  0  0  0  0  0  0
  150.3468  141.9703  156.7829 C   0  0  0  0  0  0  0  0  0  0  0  0
  150.4749  140.6335  157.2034 C   0  0  0  0  0  0  0  0  0  0  0  0
  149.7461  139.6623  156.4900 C   0  0  0  0  0  0  0  0  0  0  0  0
  149.8321  138.3014  156.8556 N   0  0  0  0  0  0  0  0  0  0  0  0
  149.2946  138.0969  158.2005 C   0  0  0  0  0  0  0  0  0  0  0  0
  149.2385  136.6040  158.5509 C   0  0  0  0  0  0  0  0  0  0  0  0
  150.5374  136.0491  158.4097 O   0  0  0  0  0  0  0  0  0  0  0  0
  150.9891  136.1217  157.0637 C   0  0  0  0  0  0  0  0  0  0  0  0
  151.1020  137.5938  156.5995 C   0  0  1  0  0  0  0  0  0  0  0  0
  151.5914  137.5823  155.1361 C   0  0  0  0  0  0  0  0  0  0  0  0
  150.8339  136.9759  154.2160 N   0  0  0  0  0  0  0  0  0  0  0  0
  152.6459  138.1384  154.8391 O   0  0  0  0  0  0  0  0  0  0  0  0
  148.9743  140.0253  155.4404 N   0  0  0  0  0  0  0  0  0  0  0  0
  147.1904  143.4915  154.8390 H   0  0  0  0  0  0  0  0  0  0  0  0
  146.1625  142.0766  155.0541 H   0  0  0  0  0  0  0  0  0  0  0  0
  146.2224  142.8944  153.4963 H   0  0  0  0  0  0  0  0  0  0  0  0
  148.5917  142.2745  153.2262 H   0  0  0  0  0  0  0  0  0  0  0  0
  148.3786  139.8652  152.7789 H   0  0  0  0  0  0  0  0  0  0  0  0
  146.9352  140.7291  152.2620 H   0  0  0  0  0  0  0  0  0  0  0  0
  146.9100  139.7899  153.7504 H   0  0  0  0  0  0  0  0  0  0  0  0
  150.8526  142.7995  157.2554 H   0  0  0  0  0  0  0  0  0  0  0  0
  151.1018  140.3692  158.0428 H   0  0  0  0  0  0  0  0  0  0  0  0
  149.9233  138.6207  158.9229 H   0  0  0  0  0  0  0  0  0  0  0  0
  148.2922  138.5173  158.2884 H   0  0  0  0  0  0  0  0  0  0  0  0
  148.9070  136.4720  159.5809 H   0  0  0  0  0  0  0  0  0  0  0  0
  148.5255  136.0754  157.9158 H   0  0  0  0  0  0  0  0  0  0  0  0
  151.9602  135.6283  157.0060 H   0  0  0  0  0  0  0  0  0  0  0  0
  150.3116  135.5548  156.4218 H   0  0  0  0  0  0  0  0  0  0  0  0
  151.8778  138.0685  157.2036 H   0  0  0  0  0  0  0  0  0  0  0  0
  151.1215  136.9728  153.2483 H   0  0  0  0  0  0  0  0  0  0  0  0
  149.9648  136.5409  154.4910 H   0  0  0  0  0  0  0  0  0  0  0  0
  149.4632  143.2594  155.4402 H   0  0  0  0  0  0  0  0  0  0  0  0
  1  2  1  0  0  0  0
  1 19  1  0  0  0  0
  1 20  1  0  0  0  0
  1 21  1  0  0  0  0
  2  3  1  0  0  0  0
  2  4  1  0  0  0  0
  2 22  1  0  0  0  0
  3 23  1  0  0  0  0
  3 24  1  0  0  0  0
  3 25  1  0  0  0  0
  4 18  1  0  0  0  0
  4  5  2  0  0  0  0
  5  6  1  0  0  0  0
  5 37  1  0  0  0  0
  6  7  2  0  0  0  0
  6 26  1  0  0  0  0
  7  8  1  0  0  0  0
  7 27  1  0  0  0  0
  8  9  1  0  0  0  0
  8 18  2  0  0  0  0
  9 14  1  0  0  0  0
  9 10  1  0  0  0  0
 10 11  1  0  0  0  0
 10 28  1  0  0  0  0
 10 29  1  0  0  0  0
 11 12  1  0  0  0  0
 11 30  1  0  0  0  0
 11 31  1  0  0  0  0
 12 13  1  0  0  0  0
 13 14  1  0  0  0  0
 13 32  1  0  0  0  0
 13 33  1  0  0  0  0
 14 15  1  0  0  0  0
 14 34  1  0  0  0  0
 15 16  1  0  0  0  0
 15 17  2  0  0  0  0
 16 35  1  0  0  0  0
 16 36  1  0  0  0  0
M  CHG  1   5   1
M  END
> <s_m_source_file>
AV-unprocessed.smi

> <i_m_source_file_index>
2397

> <i_lp_mmshare_version>
43012

> <i_f3d_flags>
0

> <s_epik_input>
W0NIM11bQ0hdKFtDSDNdKWMxbltjSF1bY0hdYyhuMSlOMltDSDJdW0NIMl1PW0NIMl1bQ0BIXTJDKD1PKVtOSDJd

> <s_epik_cmdline>
J2VwaWtfcHl0aG9uJywgJy1waCcsICc3LjAnLCAnLXRuJywgJzgnLCAnLW1hJywgJzIwMCcsICctbWV0YWxfYmluZGluZycsICctaW1hZScsICc8aW5maWxlLm1hZT4nLCAnLW9tYWUnLCAnPG91dGZpbGUubWFlPic=

> <r_lp_tautomer_probability>
0.999336

> <r_epik_Ionization_Penalty>
1.74009

> <r_epik_Ionization_Penalty_Charging>
1.74009

> <r_epik_Ionization_Penalty_Neutral>
2.46902e-07

> <r_epik_State_Penalty>
1.8491

> <r_epik_Charging_Adjusted_Penalty>
3.5892

> <i_epik_Tot_Q>
1

> <i_epik_Tot_abs_Q>
1

> <r_epik_Metal_State_Penalty>
1.87997

> <b_epik_Metal_Only>
0

> <s_lp_Force_Field>
OPLS_2005

> <r_lp_Energy>
12.3684

> <b_lp_Chiralities_Consistent>
1

> <s_lp_Variant>
AV-unprocessed.smi:2397-3

> <Gold.Version>
5.8.1

> <Gold.Id.Protein>
6NUR|6NUR_protein|mol2

> <Gold.PLP.Fitness>
37.4222

> <Gold.PLP.PLP>
-26.0575

> <Gold.PLP.part.hbond>
-4.4906

> <Gold.PLP.part.metal>
0.0000

> <Gold.PLP.part.buried>
-3.0814

> <Gold.PLP.part.nonpolar>
-19.6814

> <Gold.PLP.part.repulsive>
0.3120

> <Gold.PLP.ligand.clash>
0.0000

> <Gold.PLP.ligand.torsion>
0.2488

> <Gold.PLP.Chemscore.Hbond>
3.8640

> <Gold.PLP.Chemscore.CHOScore>
0.0000

> <Gold.PLP.Chemscore.Metal>
0.0000

> <Gold.Chemscore.Hbonds>
donor molecule, donor type, donor heavy atom, donor atom, acceptor molecule, acceptor atom, score
      L1  H     5    37       P1  8028  2.00
      L1  H    16    35       P1  7949  0.94
      P1  H  6896  6909       L1    12  0.82

> <Gold.PLP.Chemscore.Internal.Correction>
0.2704

> <Gold.Rescore>
     Score         DG    S(hbond)    S(metal)    S(lipo)     H(rot)  DE(clash)    DE(int)     intcor
     13.63     -13.97       2.30        0.00      45.59       1.77       0.06       0.29       ----

> <Gold.Chemscore.Fitness>
13.6252

> <Gold.Chemscore.DG>
-13.9712

> <Gold.Chemscore.ZeroCoef>
-5.4800

> <Gold.Chemscore.Hbond>
2.3033

> <Gold.Chemscore.Metal>
0.0000

> <Gold.Chemscore.Lipo>
45.5892

> <Gold.Chemscore.Internal_Hbond>
0.0000

> <Gold.Chemscore.DEClash>
0.0561

> <Gold.Chemscore.DEInternal>
0.2899

> <Gold.Chemscore.Rot>
1.7717

> <Gold.Chemscore.Internal.Correction>
   9.000000E+99

> <Gold.Chemscore.Hbonds>
donor molecule, donor type, donor heavy atom, donor atom, acceptor molecule, acceptor atom, score
      L1  H     5    37       P1  8028  0.93
      L1  H    16    35       P1  7949  0.39
      P1  H  6896  6909       L1    12  0.64

> <Gold.Chemscore.Hbond.Weighted>
-7.6929

> <Gold.Chemscore.Metal.Weighted>
-0.0000

> <Gold.Chemscore.Lipo.Weighted>
-5.3339

> <Gold.Chemscore.Internal_Hbond.Weighted>
0.0000

> <Gold.Chemscore.DEClash.Weighted>
0.0561

> <Gold.Chemscore.DEInternal.Weighted>
0.2899

> <Gold.Chemscore.Rot.Weighted>
4.5357

> <Gold.Chemscore.Internal.Correction.Weighted>
   9.000000E+99

> <Gold.Protein.RotatedTorsions>
[ 6907 6896 6895 6894 ] final   71.28 input  -60.11 | X-H torsion
[ 7974 7965 7964 7962 ] final   71.16 input  175.53 | X-H torsion
[ 8008 7997 7996 7995 ] final  149.92 input   59.86 | X-H torsion
[ 10167 10162 10161 10158 ] final  -70.92 input  -65.29 | X-H torsion
[ 10718 10713 10712 10709 ] final   94.52 input   66.30 | X-H torsion
[ 10763 10752 10751 10750 ] final  -81.05 input  -60.55 | X-H torsion
[ 11005 11000 10999 10996 ] final   54.27 input  -57.11 | X-H torsion

> <Gold.Protein.ActiveResidues>
 VAL166  LYS551  ARG553  GLY616  TRP617  ASP618  TYR619  PRO620  LYS621  CYS622 
 ASP623  PHE694  ASN695  SER759  ASP760  ASP761  ALA762  ILE779  LEU786  VAL792 
 PHE793  MET794  SER795  GLU796  ALA797  LYS798  CYS799  TRP800  GLU811  SER814 

> <Gold.Protein.RotatedAtoms>
  152.4801  134.4743  159.9645 H   0  0  0  0  0  0  0  0  0  0  0  0  # atno 6907 bound_to 6896
  151.4751  133.3554  159.2837 H   0  0  0  0  0  0  0  0  0  0  0  0  # atno 6908 bound_to 6896
  150.8867  134.8291  159.7325 H   0  0  0  0  0  0  0  0  0  0  0  0  # atno 6909 bound_to 6896
  145.7693  139.2836  143.1330 H   0  0  0  0  0  0  0  0  0  0  0  0  # atno 7974 bound_to 7965
  156.2736  140.2089  156.5935 H   0  0  0  0  0  0  0  0  0  0  0  0  # atno 8008 bound_to 7997
  154.6963  140.0525  157.0438 H   0  0  0  0  0  0  0  0  0  0  0  0  # atno 8009 bound_to 7997
  155.0796  140.3185  155.4608 H   0  0  0  0  0  0  0  0  0  0  0  0  # atno 8010 bound_to 7997
  140.5314  143.2321  151.7255 H   0  0  0  0  0  0  0  0  0  0  0  0  # atno 10167 bound_to 10162
  157.6947  131.0515  150.4199 H   0  0  0  0  0  0  0  0  0  0  0  0  # atno 10718 bound_to 10713
  154.5587  135.5640  153.6988 H   0  0  0  0  0  0  0  0  0  0  0  0  # atno 10763 bound_to 10752
  153.0011  135.6268  154.2274 H   0  0  0  0  0  0  0  0  0  0  0  0  # atno 10764 bound_to 10752
  154.2211  135.2869  155.2904 H   0  0  0  0  0  0  0  0  0  0  0  0  # atno 10765 bound_to 10752
  140.0700  134.5483  155.9057 H   0  0  0  0  0  0  0  0  0  0  0  0  # atno 11005 bound_to 11000
  146.0186  140.8369  142.9935 LP  0  0  0  0  0  0  0  0  0  0  0  0  # atno 17320 bound_to 7965
  144.6815  140.2595  143.7321 LP  0  0  0  0  0  0  0  0  0  0  0  0  # atno 17321 bound_to 7965
  139.4955  144.4108  152.0082 LP  0  0  0  0  0  0  0  0  0  0  0  0  # atno 17342 bound_to 10162
  140.3211  144.3427  150.6009 LP  0  0  0  0  0  0  0  0  0  0  0  0  # atno 17343 bound_to 10162
  156.4575  130.4025  149.6597 LP  0  0  0  0  0  0  0  0  0  0  0  0  # atno 17370 bound_to 10713
  156.3724  130.7537  151.2522 LP  0  0  0  0  0  0  0  0  0  0  0  0  # atno 17371 bound_to 10713
  141.2008  133.6614  156.5915 LP  0  0  0  0  0  0  0  0  0  0  0  0  # atno 17394 bound_to 11000
  140.3642  134.7661  157.4554 LP  0  0  0  0  0  0  0  0  0  0  0  0  # atno 17395 bound_to 11000

$$$$
