AV-unprocessed.smi:651|AV-procd|sdf|3184|dock2
  -GOLD-   22720 0113D 1   1.00000     0.00000
 Structure written by MMmdl.
 38 39  0  0  0  0  0  0  0  0  1 V2000
  152.9461  142.9913  162.7042 C   0  0  0  0  0  0  0  0  0  0  0  0
  152.6030  142.9843  161.2293 C   0  0  0  0  0  0  0  0  0  0  0  0
  152.8957  141.8639  160.4237 C   0  0  0  0  0  0  0  0  0  0  0  0
  152.5515  141.9109  159.0594 C   0  0  0  0  0  0  0  0  0  0  0  0
  151.9269  143.0701  158.5545 C   0  0  0  0  0  0  0  0  0  0  0  0
  151.5238  143.1670  157.0925 C   0  0  0  0  0  0  0  0  0  0  0  0
  150.6140  142.0019  156.6947 C   0  0  0  0  0  0  0  0  0  0  0  0
  150.9569  140.8450  156.9360 O   0  0  0  0  0  0  0  0  0  0  0  0
  149.4576  142.3191  156.0916 N   0  0  0  0  0  0  0  0  0  0  0  0
  148.4663  141.3616  155.6099 C   0  0  2  0  0  0  0  0  0  0  0  0
  149.0792  140.3228  154.6554 C   0  0  0  0  0  0  0  0  0  0  0  0
  147.9784  140.0210  153.6442 C   0  0  0  0  0  0  0  0  0  0  0  0
  147.2845  141.3660  153.4439 C   0  0  0  0  0  0  0  0  0  0  0  0
  147.3475  142.0796  154.8089 C   0  0  1  0  0  0  0  0  0  0  0  0
  145.9980  142.0521  155.5451 C   0  0  0  0  0  0  0  0  0  0  0  0
  144.9410  141.6031  154.8636 N   0  0  0  0  0  0  0  0  0  0  0  0
  145.9102  142.4255  156.7136 O   0  0  0  0  0  0  0  0  0  0  0  0
  151.6799  144.1367  159.4451 C   0  0  0  0  0  0  0  0  0  0  0  0
  152.0077  144.1006  160.7546 N   0  0  0  0  0  0  0  0  0  0  0  0
  153.5720  142.1381  162.9675 H   0  0  0  0  0  0  0  0  0  0  0  0
  152.0364  142.9450  163.3033 H   0  0  0  0  0  0  0  0  0  0  0  0
  153.4864  143.9011  162.9673 H   0  0  0  0  0  0  0  0  0  0  0  0
  153.3714  140.9874  160.8388 H   0  0  0  0  0  0  0  0  0  0  0  0
  152.7585  141.0687  158.4156 H   0  0  0  0  0  0  0  0  0  0  0  0
  151.0097  144.1140  156.9214 H   0  0  0  0  0  0  0  0  0  0  0  0
  152.4091  143.1678  156.4556 H   0  0  0  0  0  0  0  0  0  0  0  0
  149.2616  143.2968  155.9331 H   0  0  0  0  0  0  0  0  0  0  0  0
  148.0431  140.8342  156.4680 H   0  0  0  0  0  0  0  0  0  0  0  0
  149.9366  140.7479  154.1305 H   0  0  0  0  0  0  0  0  0  0  0  0
  149.4235  139.4290  155.1766 H   0  0  0  0  0  0  0  0  0  0  0  0
  148.3638  139.6029  152.7139 H   0  0  0  0  0  0  0  0  0  0  0  0
  147.2762  139.3023  154.0687 H   0  0  0  0  0  0  0  0  0  0  0  0
  147.8348  141.9513  152.7061 H   0  0  0  0  0  0  0  0  0  0  0  0
  146.2706  141.2443  153.0596 H   0  0  0  0  0  0  0  0  0  0  0  0
  147.6153  143.1227  154.6277 H   0  0  0  0  0  0  0  0  0  0  0  0
  144.0332  141.5667  155.3039 H   0  0  0  0  0  0  0  0  0  0  0  0
  145.0545  141.3014  153.9066 H   0  0  0  0  0  0  0  0  0  0  0  0
  151.2020  145.0414  159.0989 H   0  0  0  0  0  0  0  0  0  0  0  0
  1  2  1  0  0  0  0
  1 20  1  0  0  0  0
  1 21  1  0  0  0  0
  1 22  1  0  0  0  0
  2 19  1  0  0  0  0
  2  3  2  0  0  0  0
  3  4  1  0  0  0  0
  3 23  1  0  0  0  0
  4  5  2  0  0  0  0
  4 24  1  0  0  0  0
  5  6  1  0  0  0  0
  5 18  1  0  0  0  0
  6  7  1  0  0  0  0
  6 25  1  0  0  0  0
  6 26  1  0  0  0  0
  7  8  2  0  0  0  0
  7  9  1  0  0  0  0
  9 10  1  0  0  0  0
  9 27  1  0  0  0  0
 10 14  1  0  0  0  0
 10 11  1  0  0  0  0
 10 28  1  0  0  0  0
 11 12  1  0  0  0  0
 11 29  1  0  0  0  0
 11 30  1  0  0  0  0
 12 13  1  0  0  0  0
 12 31  1  0  0  0  0
 12 32  1  0  0  0  0
 13 14  1  0  0  0  0
 13 33  1  0  0  0  0
 13 34  1  0  0  0  0
 14 15  1  0  0  0  0
 14 35  1  0  0  0  0
 15 16  1  0  0  0  0
 15 17  2  0  0  0  0
 16 36  1  0  0  0  0
 16 37  1  0  0  0  0
 18 19  2  0  0  0  0
 18 38  1  0  0  0  0
M  END
> <s_m_source_file>
AV-unprocessed.smi

> <i_m_source_file_index>
651

> <i_lp_mmshare_version>
43012

> <i_f3d_flags>
0

> <s_epik_input>
W0NIM11jMVtjSF1bY0hdYyhbY0hdbjEpW0NIMl1DKD1PKVtOSF1bQ0BASF0yW0NIMl1bQ0gyXVtDSDJdW0NASF0yQyg9TylbTkgyXQ==

> <s_epik_cmdline>
J2VwaWtfcHl0aG9uJywgJy1waCcsICc3LjAnLCAnLXRuJywgJzgnLCAnLW1hJywgJzIwMCcsICctbWV0YWxfYmluZGluZycsICctaW1hZScsICc8aW5maWxlLm1hZT4nLCAnLW9tYWUnLCAnPG91dGZpbGUubWFlPic=

> <r_epik_Ionization_Penalty>
0.0159502

> <r_epik_Ionization_Penalty_Charging>
0

> <r_epik_Ionization_Penalty_Neutral>
0.0159502

> <r_epik_State_Penalty>
0.012563

> <r_epik_Charging_Adjusted_Penalty>
0.012563

> <i_epik_Tot_Q>
0

> <i_epik_Tot_abs_Q>
0

> <r_epik_Metal_State_Penalty>
0.0122326

> <b_epik_Metal_Only>
0

> <s_lp_Force_Field>
OPLS_2005

> <r_lp_Energy>
13.4816

> <b_lp_Chiralities_Consistent>
1

> <s_lp_Variant>
AV-unprocessed.smi:651-1

> <Gold.Version>
5.8.1

> <Gold.Id.Protein>
6NUR|6NUR_protein|mol2

> <Gold.PLP.Fitness>
45.0321

> <Gold.PLP.PLP>
-41.1059

> <Gold.PLP.part.hbond>
-1.9845

> <Gold.PLP.part.metal>
0.0000

> <Gold.PLP.part.buried>
-4.3782

> <Gold.PLP.part.nonpolar>
-35.3798

> <Gold.PLP.part.repulsive>
0.3088

> <Gold.PLP.ligand.clash>
0.0000

> <Gold.PLP.ligand.torsion>
0.2701

> <Gold.PLP.Chemscore.Hbond>
1.4827

> <Gold.PLP.Chemscore.CHOScore>
0.0000

> <Gold.PLP.Chemscore.Metal>
0.0000

> <Gold.Chemscore.Hbonds>
donor molecule, donor type, donor heavy atom, donor atom, acceptor molecule, acceptor atom, score
      L1  H     9    27       P1  8028  0.91
      L1  H    16    37       P1 10175  0.49

> <Gold.PLP.Chemscore.Internal.Correction>
0.0185

> <Gold.Rescore>
     Score         DG    S(hbond)    S(metal)    S(lipo)     H(rot)  DE(clash)    DE(int)     intcor
     16.42     -18.68       1.86        0.00     102.89       1.97       0.05       2.20       ----

> <Gold.Chemscore.Fitness>
16.4177

> <Gold.Chemscore.DG>
-18.6759

> <Gold.Chemscore.ZeroCoef>
-5.4800

> <Gold.Chemscore.Hbond>
1.8569

> <Gold.Chemscore.Metal>
0.0000

> <Gold.Chemscore.Lipo>
102.8884

> <Gold.Chemscore.Internal_Hbond>
0.0000

> <Gold.Chemscore.DEClash>
0.0546

> <Gold.Chemscore.DEInternal>
2.2036

> <Gold.Chemscore.Rot>
1.9704

> <Gold.Chemscore.Internal.Correction>
   9.000000E+99

> <Gold.Chemscore.Hbonds>
donor molecule, donor type, donor heavy atom, donor atom, acceptor molecule, acceptor atom, score
      L1  H     9    27       P1  8028  0.89
      L1  H    16    37       P1 10175  0.24

> <Gold.Chemscore.Hbond.Weighted>
-6.2022

> <Gold.Chemscore.Metal.Weighted>
-0.0000

> <Gold.Chemscore.Lipo.Weighted>
-12.0379

> <Gold.Chemscore.Internal_Hbond.Weighted>
0.0000

> <Gold.Chemscore.DEClash.Weighted>
0.0546

> <Gold.Chemscore.DEInternal.Weighted>
2.2036

> <Gold.Chemscore.Rot.Weighted>
5.0443

> <Gold.Chemscore.Internal.Correction.Weighted>
   9.000000E+99

> <Gold.Protein.RotatedTorsions>
[ 6907 6896 6895 6894 ] final  -66.56 input  -60.11 | X-H torsion
[ 7974 7965 7964 7962 ] final  -44.00 input  175.53 | X-H torsion
[ 8008 7997 7996 7995 ] final  -57.50 input   59.86 | X-H torsion
[ 10167 10162 10161 10158 ] final   48.33 input  -65.29 | X-H torsion
[ 10718 10713 10712 10709 ] final   37.96 input   66.30 | X-H torsion
[ 10763 10752 10751 10750 ] final -114.73 input  -60.55 | X-H torsion
[ 11005 11000 10999 10996 ] final   90.69 input  -57.11 | X-H torsion

> <Gold.Protein.ActiveResidues>
 VAL166  LYS551  ARG553  GLY616  TRP617  ASP618  TYR619  PRO620  LYS621  CYS622 
 ASP623  PHE694  ASN695  SER759  ASP760  ASP761  ALA762  ILE779  LEU786  VAL792 
 PHE793  MET794  SER795  GLU796  ALA797  LYS798  CYS799  TRP800  GLU811  SER814 

> <Gold.Protein.RotatedAtoms>
  150.7459  134.6004  159.6033 H   0  0  0  0  0  0  0  0  0  0  0  0  # atno 6907 bound_to 6896
  152.3367  134.7186  160.0284 H   0  0  0  0  0  0  0  0  0  0  0  0  # atno 6908 bound_to 6896
  151.7651  133.3301  159.3465 H   0  0  0  0  0  0  0  0  0  0  0  0  # atno 6909 bound_to 6896
  145.9963  140.7124  142.9292 H   0  0  0  0  0  0  0  0  0  0  0  0  # atno 7974 bound_to 7965
  154.4270  140.1105  156.5807 H   0  0  0  0  0  0  0  0  0  0  0  0  # atno 8008 bound_to 7997
  155.6116  140.3494  155.4605 H   0  0  0  0  0  0  0  0  0  0  0  0  # atno 8009 bound_to 7997
  156.0095  140.1216  157.0457 H   0  0  0  0  0  0  0  0  0  0  0  0  # atno 8010 bound_to 7997
  140.2944  144.3008  150.6233 H   0  0  0  0  0  0  0  0  0  0  0  0  # atno 10167 bound_to 10162
  157.3531  130.7609  149.6993 H   0  0  0  0  0  0  0  0  0  0  0  0  # atno 10718 bound_to 10713
  154.8452  135.4407  154.1551 H   0  0  0  0  0  0  0  0  0  0  0  0  # atno 10763 bound_to 10752
  153.2702  135.6944  153.7495 H   0  0  0  0  0  0  0  0  0  0  0  0  # atno 10764 bound_to 10752
  153.6738  135.3414  155.3135 H   0  0  0  0  0  0  0  0  0  0  0  0  # atno 10765 bound_to 10752
  139.8851  134.8629  156.3320 H   0  0  0  0  0  0  0  0  0  0  0  0  # atno 11005 bound_to 11000
  144.6905  140.3157  143.7241 LP  0  0  0  0  0  0  0  0  0  0  0  0  # atno 17320 bound_to 7965
  145.7554  139.1807  143.2297 LP  0  0  0  0  0  0  0  0  0  0  0  0  # atno 17321 bound_to 7965
  140.5705  143.2181  151.7608 LP  0  0  0  0  0  0  0  0  0  0  0  0  # atno 17342 bound_to 10162
  139.4930  144.4224  151.9963 LP  0  0  0  0  0  0  0  0  0  0  0  0  # atno 17343 bound_to 10162
  155.9725  130.4135  150.4084 LP  0  0  0  0  0  0  0  0  0  0  0  0  # atno 17370 bound_to 10713
  157.2150  131.0469  151.2578 LP  0  0  0  0  0  0  0  0  0  0  0  0  # atno 17371 bound_to 10713
  140.9716  133.7324  156.0543 LP  0  0  0  0  0  0  0  0  0  0  0  0  # atno 17394 bound_to 11000
  140.7863  134.3668  157.5475 LP  0  0  0  0  0  0  0  0  0  0  0  0  # atno 17395 bound_to 11000

$$$$
