AV-unprocessed.smi:1586|AV-procd|sdf|6381|dock1
  -GOLD-   22720 7 13D 1   1.00000     0.00000
 Structure written by MMmdl.
 46 47  0  0  0  0  0  0  0  0  3 V2000
  143.3556  133.2591  151.6890 C   0  0  0  0  0  0  0  0  0  0  0  0
  143.8460  134.7142  151.7131 C   0  0  0  0  0  0  0  0  0  0  0  0
  145.2607  134.8229  151.3488 N   0  0  0  0  0  0  0  0  0  0  0  0
  145.6736  136.1354  150.8385 C   0  0  0  0  0  0  0  0  0  0  0  0
  145.6678  137.2164  151.9388 C   0  0  0  0  0  0  0  0  0  0  0  0
  146.5646  136.8153  153.0593 N   0  3  0  0  0  0  0  0  0  0  0  0
  146.7987  137.8335  154.1298 C   0  0  2  0  0  0  0  0  0  0  0  0
  145.4879  138.3217  154.7968 C   0  0  0  0  0  0  0  0  0  0  0  0
  147.7098  138.9781  153.6052 C   0  0  0  0  0  0  0  0  0  0  0  0
  148.2489  139.7727  154.7104 N   0  5  0  0  0  0  0  0  0  0  0  0
  149.5693  139.8580  155.0338 C   0  0  0  0  0  0  0  0  0  0  0  0
  150.5371  139.7212  154.2758 O   0  0  0  0  0  0  0  0  0  0  0  0
  149.7600  140.1142  156.3407 N   0  0  0  0  0  0  0  0  0  0  0  0
  150.9824  140.2683  157.0469 C   0  0  0  0  0  0  0  0  0  0  0  0
  151.1159  141.2581  158.0569 C   0  0  0  0  0  0  0  0  0  0  0  0
  152.4027  141.0910  158.4852 C   0  0  0  0  0  0  0  0  0  0  0  0
  153.2243  141.7782  159.5213 C   0  0  0  0  0  0  0  0  0  0  0  0
  153.0041  140.0832  157.7975 O   0  0  0  0  0  0  0  0  0  0  0  0
  152.0889  139.5601  156.8766 N   0  0  0  0  0  0  0  0  0  0  0  0
  146.1569  135.4879  153.5835 C   0  0  0  0  0  0  0  0  0  0  0  0
  146.1488  134.4412  152.4494 C   0  0  0  0  0  0  0  0  0  0  0  0
  142.3457  133.1916  152.0937 H   0  0  0  0  0  0  0  0  0  0  0  0
  143.9955  132.6153  152.2935 H   0  0  0  0  0  0  0  0  0  0  0  0
  143.3230  132.8544  150.6777 H   0  0  0  0  0  0  0  0  0  0  0  0
  143.2158  135.3354  151.0778 H   0  0  0  0  0  0  0  0  0  0  0  0
  143.7241  135.0912  152.7294 H   0  0  0  0  0  0  0  0  0  0  0  0
  146.6809  136.0436  150.4298 H   0  0  0  0  0  0  0  0  0  0  0  0
  145.0416  136.4386  150.0048 H   0  0  0  0  0  0  0  0  0  0  0  0
  146.0064  138.1580  151.5060 H   0  0  0  0  0  0  0  0  0  0  0  0
  144.6526  137.3886  152.2957 H   0  0  0  0  0  0  0  0  0  0  0  0
  147.3722  137.3280  154.9084 H   0  0  0  0  0  0  0  0  0  0  0  0
  145.6865  138.9384  155.6752 H   0  0  0  0  0  0  0  0  0  0  0  0
  144.8902  137.4780  155.1419 H   0  0  0  0  0  0  0  0  0  0  0  0
  144.8641  138.9111  154.1227 H   0  0  0  0  0  0  0  0  0  0  0  0
  148.5081  138.5442  153.0010 H   0  0  0  0  0  0  0  0  0  0  0  0
  147.1382  139.5971  152.9137 H   0  0  0  0  0  0  0  0  0  0  0  0
  148.9218  140.2129  156.8938 H   0  0  0  0  0  0  0  0  0  0  0  0
  150.3887  141.9740  158.4097 H   0  0  0  0  0  0  0  0  0  0  0  0
  152.7640  142.7194  159.8222 H   0  0  0  0  0  0  0  0  0  0  0  0
  154.2228  141.9970  159.1425 H   0  0  0  0  0  0  0  0  0  0  0  0
  153.3274  141.1527  160.4081 H   0  0  0  0  0  0  0  0  0  0  0  0
  146.8632  135.1625  154.3480 H   0  0  0  0  0  0  0  0  0  0  0  0
  145.1824  135.5557  154.0680 H   0  0  0  0  0  0  0  0  0  0  0  0
  145.8583  133.4641  152.8370 H   0  0  0  0  0  0  0  0  0  0  0  0
  147.1595  134.3245  152.0560 H   0  0  0  0  0  0  0  0  0  0  0  0
  147.4749  136.6654  152.6481 H   0  0  0  0  0  0  0  0  0  0  0  0
  1  2  1  0  0  0  0
  1 22  1  0  0  0  0
  1 23  1  0  0  0  0
  1 24  1  0  0  0  0
  2  3  1  0  0  0  0
  2 25  1  0  0  0  0
  2 26  1  0  0  0  0
  3 21  1  0  0  0  0
  3  4  1  0  0  0  0
  4  5  1  0  0  0  0
  4 27  1  0  0  0  0
  4 28  1  0  0  0  0
  5  6  1  0  0  0  0
  5 29  1  0  0  0  0
  5 30  1  0  0  0  0
  6  7  1  0  0  0  0
  6 20  1  0  0  0  0
  6 46  1  0  0  0  0
  7  8  1  0  0  0  0
  7  9  1  0  0  0  0
  7 31  1  0  0  0  0
  8 32  1  0  0  0  0
  8 33  1  0  0  0  0
  8 34  1  0  0  0  0
  9 10  1  0  0  0  0
  9 35  1  0  0  0  0
  9 36  1  0  0  0  0
 10 11  1  0  0  0  0
 11 12  2  0  0  0  0
 11 13  1  0  0  0  0
 13 14  1  0  0  0  0
 13 37  1  0  0  0  0
 14 19  2  0  0  0  0
 14 15  1  0  0  0  0
 15 16  2  0  0  0  0
 15 38  1  0  0  0  0
 16 17  1  0  0  0  0
 16 18  1  0  0  0  0
 17 39  1  0  0  0  0
 17 40  1  0  0  0  0
 17 41  1  0  0  0  0
 18 19  1  0  0  0  0
 20 21  1  0  0  0  0
 20 42  1  0  0  0  0
 20 43  1  0  0  0  0
 21 44  1  0  0  0  0
 21 45  1  0  0  0  0
M  CHG  1   6   1
M  CHG  1  10  -1
M  END
> <s_m_source_file>
AV-unprocessed.smi

> <i_m_source_file_index>
1586

> <i_lp_mmshare_version>
43012

> <i_f3d_flags>
0

> <s_epik_input>
W0NIM11bQ0gyXU4xW0NIMl1bQ0gyXU4oW0NIMl1bQ0gyXTEpW0NASF0oW0NIM10pW0NIMl1bTkhdQyg9TylbTkhdYzJbY0hdYyhbQ0gzXSlvbjI=

> <s_epik_cmdline>
J2VwaWtfcHl0aG9uJywgJy1waCcsICc3LjAnLCAnLXRuJywgJzgnLCAnLW1hJywgJzIwMCcsICctbWV0YWxfYmluZGluZycsICctaW1hZScsICc8aW5maWxlLm1hZT4nLCAnLW9tYWUnLCAnPG91dGZpbGUubWFlPic=

> <r_epik_Ionization_Penalty>
6.72969

> <r_epik_Ionization_Penalty_Charging>
6.72741

> <r_epik_Ionization_Penalty_Neutral>
0.00227419

> <r_epik_State_Penalty>
7.72748

> <r_epik_Charging_Adjusted_Penalty>
14.4549

> <i_epik_Tot_Q>
0

> <i_epik_Tot_abs_Q>
2

> <r_epik_Metal_State_Penalty>
3.65268

> <b_epik_Metal_Only>
1

> <s_lp_Force_Field>
OPLS_2005

> <r_lp_Energy>
18.0395

> <b_lp_Chiralities_Consistent>
1

> <s_lp_Variant>
AV-unprocessed.smi:1586-9

> <Gold.Version>
5.8.1

> <Gold.Id.Protein>
6NUR|6NUR_protein|mol2

> <Gold.PLP.Fitness>
39.0988

> <Gold.PLP.PLP>
-28.5366

> <Gold.PLP.part.hbond>
-3.0000

> <Gold.PLP.part.metal>
0.0000

> <Gold.PLP.part.buried>
-3.6706

> <Gold.PLP.part.nonpolar>
-22.9494

> <Gold.PLP.part.repulsive>
0.4321

> <Gold.PLP.ligand.clash>
0.0000

> <Gold.PLP.ligand.torsion>
0.9250

> <Gold.PLP.Chemscore.Hbond>
3.9920

> <Gold.PLP.Chemscore.CHOScore>
0.0000

> <Gold.PLP.Chemscore.Metal>
0.0000

> <Gold.Chemscore.Hbonds>
donor molecule, donor type, donor heavy atom, donor atom, acceptor molecule, acceptor atom, score
      L1  H     6    46       P1  7948  2.00
      P1  H  7989  7998       L1    12  1.00
      P1  H  7997  8009       L1    18  1.00

> <Gold.PLP.Chemscore.Internal.Correction>
0.4361

> <Gold.Rescore>
     Score         DG    S(hbond)    S(metal)    S(lipo)     H(rot)  DE(clash)    DE(int)     intcor
     16.27     -18.33       2.88        0.00      65.46       1.73       0.23       1.83       ----

> <Gold.Chemscore.Fitness>
16.2693

> <Gold.Chemscore.DG>
-18.3274

> <Gold.Chemscore.ZeroCoef>
-5.4800

> <Gold.Chemscore.Hbond>
2.8758

> <Gold.Chemscore.Metal>
0.0000

> <Gold.Chemscore.Lipo>
65.4558

> <Gold.Chemscore.Internal_Hbond>
0.0000

> <Gold.Chemscore.DEClash>
0.2312

> <Gold.Chemscore.DEInternal>
1.8269

> <Gold.Chemscore.Rot>
1.7250

> <Gold.Chemscore.Internal.Correction>
   9.000000E+99

> <Gold.Chemscore.Hbonds>
donor molecule, donor type, donor heavy atom, donor atom, acceptor molecule, acceptor atom, score
      L1  H     6    46       P1  7948  1.00
      P1  H  7989  7998       L1    12  1.00
      P1  H  7997  8009       L1    18  0.43

> <Gold.Chemscore.Hbond.Weighted>
-9.6052

> <Gold.Chemscore.Metal.Weighted>
-0.0000

> <Gold.Chemscore.Lipo.Weighted>
-7.6583

> <Gold.Chemscore.Internal_Hbond.Weighted>
0.0000

> <Gold.Chemscore.DEClash.Weighted>
0.2312

> <Gold.Chemscore.DEInternal.Weighted>
1.8269

> <Gold.Chemscore.Rot.Weighted>
4.4161

> <Gold.Chemscore.Internal.Correction.Weighted>
   9.000000E+99

> <Gold.Protein.RotatedTorsions>
[ 6907 6896 6895 6894 ] final   28.00 input  -60.11 | X-H torsion
[ 7974 7965 7964 7962 ] final  -39.80 input  175.53 | X-H torsion
[ 8008 7997 7996 7995 ] final  161.33 input   59.86 | X-H torsion
[ 10167 10162 10161 10158 ] final -122.34 input  -65.29 | X-H torsion
[ 10718 10713 10712 10709 ] final  -81.78 input   66.30 | X-H torsion
[ 10763 10752 10751 10750 ] final  -62.19 input  -60.55 | X-H torsion
[ 11005 11000 10999 10996 ] final  -84.11 input  -57.11 | X-H torsion

> <Gold.Protein.ActiveResidues>
 VAL166  LYS551  ARG553  GLY616  TRP617  ASP618  TYR619  PRO620  LYS621  CYS622 
 ASP623  PHE694  ASN695  SER759  ASP760  ASP761  ALA762  ILE779  LEU786  VAL792 
 PHE793  MET794  SER795  GLU796  ALA797  LYS798  CYS799  TRP800  GLU811  SER814 

> <Gold.Protein.RotatedAtoms>
  152.0106  134.9878  160.0567 H   0  0  0  0  0  0  0  0  0  0  0  0  # atno 6907 bound_to 6896
  152.1433  133.4472  159.4785 H   0  0  0  0  0  0  0  0  0  0  0  0  # atno 6908 bound_to 6896
  150.6867  134.2197  159.4435 H   0  0  0  0  0  0  0  0  0  0  0  0  # atno 6909 bound_to 6896
  146.0363  140.6667  142.9108 H   0  0  0  0  0  0  0  0  0  0  0  0  # atno 7974 bound_to 7965
  156.2110  140.1780  156.7694 H   0  0  0  0  0  0  0  0  0  0  0  0  # atno 8008 bound_to 7997
  154.5723  140.0680  156.9012 H   0  0  0  0  0  0  0  0  0  0  0  0  # atno 8009 bound_to 7997
  155.2651  140.3338  155.4272 H   0  0  0  0  0  0  0  0  0  0  0  0  # atno 8010 bound_to 7997
  140.0154  143.5399  152.2245 H   0  0  0  0  0  0  0  0  0  0  0  0  # atno 10167 bound_to 10162
  156.0044  130.4614  150.4004 H   0  0  0  0  0  0  0  0  0  0  0  0  # atno 10718 bound_to 10713
  154.2961  135.6244  153.5405 H   0  0  0  0  0  0  0  0  0  0  0  0  # atno 10763 bound_to 10752
  152.9846  135.5667  154.5336 H   0  0  0  0  0  0  0  0  0  0  0  0  # atno 10764 bound_to 10752
  154.4957  135.2869  155.1437 H   0  0  0  0  0  0  0  0  0  0  0  0  # atno 10765 bound_to 10752
  141.1653  133.7329  156.8820 H   0  0  0  0  0  0  0  0  0  0  0  0  # atno 11005 bound_to 11000
  144.7053  140.3826  143.7123 LP  0  0  0  0  0  0  0  0  0  0  0  0  # atno 17320 bound_to 7965
  145.6959  139.1649  143.2620 LP  0  0  0  0  0  0  0  0  0  0  0  0  # atno 17321 bound_to 7965
  139.6176  144.7623  151.2811 LP  0  0  0  0  0  0  0  0  0  0  0  0  # atno 17342 bound_to 10162
  140.7364  143.6707  150.8084 LP  0  0  0  0  0  0  0  0  0  0  0  0  # atno 17343 bound_to 10162
  157.2074  131.0452  151.2618 LP  0  0  0  0  0  0  0  0  0  0  0  0  # atno 17370 bound_to 10713
  157.3920  130.7287  149.6704 LP  0  0  0  0  0  0  0  0  0  0  0  0  # atno 17371 bound_to 10713
  140.1708  134.9101  157.2831 LP  0  0  0  0  0  0  0  0  0  0  0  0  # atno 17394 bound_to 11000
  140.2504  134.3690  155.7444 LP  0  0  0  0  0  0  0  0  0  0  0  0  # atno 17395 bound_to 11000

$$$$
