AV-unprocessed.smi:49|AV-procd|sdf|486|dock5
  -GOLD-   2262016343D 1   1.00000     0.00000
 Structure written by MMmdl.
 27 28  0  0  0  0  0  0  0  0  3 V2000
  152.8626  142.6390  160.2169 C   0  0  0  0  0  0  0  0  0  0  0  0
  153.2444  141.2770  159.6291 C   0  0  0  0  0  0  0  0  0  0  0  0
  152.5300  140.9994  158.3245 C   0  0  0  0  0  0  0  0  0  0  0  0
  151.6653  141.8094  157.7218 N   0  0  0  0  0  0  0  0  0  0  0  0
  151.3066  141.1863  156.5916 C   0  0  0  0  0  0  0  0  0  0  0  0
  150.3454  141.7619  155.5695 C   0  0  1  0  0  0  0  0  0  0  0  0
  150.0957  140.8000  154.3988 C   0  0  0  0  0  0  0  0  0  0  0  0
  148.7828  140.1140  154.7661 C   0  0  2  0  0  0  0  0  0  0  0  0
  148.1022  139.6232  153.6304 O   0  0  0  0  0  0  0  0  0  0  0  0
  148.0085  141.2279  155.4689 C   0  0  0  0  0  0  0  0  0  0  0  0
  149.0261  142.0177  156.1863 N   0  3  0  0  0  0  0  0  0  0  0  0
  151.9542  140.0162  156.4693 N   0  0  0  0  0  0  0  0  0  0  0  0
  152.7029  139.9157  157.5473 N   0  5  0  0  0  0  0  0  0  0  0  0
  150.7578  142.7022  155.2018 H   0  0  0  0  0  0  0  0  0  0  0  0
  148.9743  139.2960  155.4624 H   0  0  0  0  0  0  0  0  0  0  0  0
  153.3889  142.8194  161.1542 H   0  0  0  0  0  0  0  0  0  0  0  0
  151.7924  142.6930  160.4184 H   0  0  0  0  0  0  0  0  0  0  0  0
  153.1162  143.4473  159.5301 H   0  0  0  0  0  0  0  0  0  0  0  0
  154.3204  141.2328  159.4584 H   0  0  0  0  0  0  0  0  0  0  0  0
  153.0056  140.4841  160.3386 H   0  0  0  0  0  0  0  0  0  0  0  0
  149.9557  141.3833  153.4870 H   0  0  0  0  0  0  0  0  0  0  0  0
  150.9172  140.1049  154.2200 H   0  0  0  0  0  0  0  0  0  0  0  0
  148.7119  139.5803  152.9091 H   0  0  0  0  0  0  0  0  0  0  0  0
  147.5283  141.8802  154.7381 H   0  0  0  0  0  0  0  0  0  0  0  0
  147.2397  140.8497  156.1432 H   0  0  0  0  0  0  0  0  0  0  0  0
  149.0724  141.7018  157.1451 H   0  0  0  0  0  0  0  0  0  0  0  0
  148.8004  143.0013  156.1623 H   0  0  0  0  0  0  0  0  0  0  0  0
  1  2  1  0  0  0  0
  1 16  1  0  0  0  0
  1 17  1  0  0  0  0
  1 18  1  0  0  0  0
  2  3  1  0  0  0  0
  2 19  1  0  0  0  0
  2 20  1  0  0  0  0
  3 13  1  0  0  0  0
  3  4  2  0  0  0  0
  4  5  1  0  0  0  0
  5  6  1  0  0  0  0
  5 12  2  0  0  0  0
  6 14  1  0  0  0  0
  6 11  1  0  0  0  0
  6  7  1  0  0  0  0
  7  8  1  0  0  0  0
  7 21  1  0  0  0  0
  7 22  1  0  0  0  0
  8 15  1  0  0  0  0
  8  9  1  0  0  0  0
  8 10  1  0  0  0  0
  9 23  1  0  0  0  0
 10 11  1  0  0  0  0
 10 24  1  0  0  0  0
 10 25  1  0  0  0  0
 11 26  1  0  0  0  0
 11 27  1  0  0  0  0
 12 13  1  0  0  0  0
M  CHG  1  11   1
M  CHG  1  13  -1
M  END
> <s_m_source_file>
AV-unprocessed.smi

> <i_m_source_file_index>
49

> <i_lp_mmshare_version>
43012

> <i_f3d_flags>
0

> <s_epik_input>
W0NIM11bQ0gyXWMxbmMobltuSF0xKVtDQEBIXTJbQ0gyXVtDQEBIXShbT0hdKVtDSDJdW05IXTI=

> <s_epik_cmdline>
J2VwaWtfcHl0aG9uJywgJy1waCcsICc3LjAnLCAnLXRuJywgJzgnLCAnLW1hJywgJzIwMCcsICctbWV0YWxfYmluZGluZycsICctaW1hZScsICc8aW5maWxlLm1hZT4nLCAnLW9tYWUnLCAnPG91dGZpbGUubWFlPic=

> <r_lp_tautomer_probability>
0.948284

> <r_epik_Ionization_Penalty>
3.22013

> <r_epik_Ionization_Penalty_Charging>
3.22013

> <r_epik_Ionization_Penalty_Neutral>
3.9133e-08

> <r_epik_State_Penalty>
2.79459

> <r_epik_Charging_Adjusted_Penalty>
6.01472

> <i_epik_Tot_Q>
0

> <i_epik_Tot_abs_Q>
2

> <r_epik_Metal_State_Penalty>
0.589377

> <b_epik_Metal_Only>
1

> <s_lp_Force_Field>
OPLS_2005

> <r_lp_Energy>
10.3781

> <b_lp_Chiralities_Consistent>
1

> <s_lp_Variant>
AV-unprocessed.smi:49-24

> <Gold.Version>
5.8.1

> <Gold.Id.Protein>
6NUR|6NUR_protein|mol2

> <Gold.PLP.Fitness>
35.6114

> <Gold.PLP.PLP>
-20.6396

> <Gold.PLP.part.hbond>
-3.0000

> <Gold.PLP.part.metal>
0.0000

> <Gold.PLP.part.buried>
0.0830

> <Gold.PLP.part.nonpolar>
-16.3641

> <Gold.PLP.part.repulsive>
0.0781

> <Gold.PLP.ligand.clash>
0.0000

> <Gold.PLP.ligand.torsion>
0.0215

> <Gold.PLP.Chemscore.Hbond>
5.0000

> <Gold.PLP.Chemscore.CHOScore>
0.0000

> <Gold.PLP.Chemscore.Metal>
0.0000

> <Gold.Chemscore.Hbonds>
donor molecule, donor type, donor heavy atom, donor atom, acceptor molecule, acceptor atom, score
      L1  H     9    23       P1  7957  1.00
      L1  H    11    27       P1  8028  2.00
      P1  H  7997  8008       L1    13  2.00

> <Gold.PLP.Chemscore.Internal.Correction>
0.0148

> <Gold.Rescore>
     Score         DG    S(hbond)    S(metal)    S(lipo)     H(rot)  DE(clash)    DE(int)     intcor
     12.88     -14.58       2.45        0.00      48.46       1.86       1.54       0.16       ----

> <Gold.Chemscore.Fitness>
12.8837

> <Gold.Chemscore.DG>
-14.5779

> <Gold.Chemscore.ZeroCoef>
-5.4800

> <Gold.Chemscore.Hbond>
2.4494

> <Gold.Chemscore.Metal>
0.0000

> <Gold.Chemscore.Lipo>
48.4617

> <Gold.Chemscore.Internal_Hbond>
0.0000

> <Gold.Chemscore.DEClash>
1.5385

> <Gold.Chemscore.DEInternal>
0.1557

> <Gold.Chemscore.Rot>
1.8567

> <Gold.Chemscore.Internal.Correction>
   9.000000E+99

> <Gold.Chemscore.Hbonds>
donor molecule, donor type, donor heavy atom, donor atom, acceptor molecule, acceptor atom, score
      L1  H     9    23       P1  7957  0.94
      L1  H    11    27       P1  8028  0.99
      P1  H  7997  8008       L1    13  0.20

> <Gold.Chemscore.Hbond.Weighted>
-8.1809

> <Gold.Chemscore.Metal.Weighted>
-0.0000

> <Gold.Chemscore.Lipo.Weighted>
-5.6700

> <Gold.Chemscore.Internal_Hbond.Weighted>
0.0000

> <Gold.Chemscore.DEClash.Weighted>
1.5385

> <Gold.Chemscore.DEInternal.Weighted>
0.1557

> <Gold.Chemscore.Rot.Weighted>
4.7531

> <Gold.Chemscore.Internal.Correction.Weighted>
   9.000000E+99

> <Gold.Protein.RotatedTorsions>
[ 6907 6896 6895 6894 ] final   59.55 input  -60.11 | X-H torsion
[ 7974 7965 7964 7962 ] final -130.34 input  175.53 | X-H torsion
[ 8008 7997 7996 7995 ] final  -74.23 input   59.86 | X-H torsion
[ 10167 10162 10161 10158 ] final -177.36 input  -65.29 | X-H torsion
[ 10718 10713 10712 10709 ] final -105.00 input   66.30 | X-H torsion
[ 10763 10752 10751 10750 ] final  -66.28 input  -60.55 | X-H torsion
[ 11005 11000 10999 10996 ] final    5.63 input  -57.11 | X-H torsion

> <Gold.Protein.ActiveResidues>
 VAL166  LYS551  ARG553  GLY616  TRP617  ASP618  TYR619  PRO620  LYS621  CYS622 
 ASP623  PHE694  ASN695  SER759  ASP760  ASP761  ALA762  ILE779  LEU786  VAL792 
 PHE793  MET794  SER795  GLU796  ALA797  LYS798  CYS799  TRP800  GLU811  SER814 

> <Gold.Protein.RotatedAtoms>
  152.3924  134.6419  160.0101 H   0  0  0  0  0  0  0  0  0  0  0  0  # atno 6907 bound_to 6896
  151.6649  133.3310  159.3191 H   0  0  0  0  0  0  0  0  0  0  0  0  # atno 6908 bound_to 6896
  150.7838  134.6849  159.6509 H   0  0  0  0  0  0  0  0  0  0  0  0  # atno 6909 bound_to 6896
  144.9484  140.7318  143.4803 H   0  0  0  0  0  0  0  0  0  0  0  0  # atno 7974 bound_to 7965
  154.5313  140.0765  156.8350 H   0  0  0  0  0  0  0  0  0  0  0  0  # atno 8008 bound_to 7997
  155.3369  140.3405  155.4221 H   0  0  0  0  0  0  0  0  0  0  0  0  # atno 8009 bound_to 7997
  156.1784  140.1643  156.8307 H   0  0  0  0  0  0  0  0  0  0  0  0  # atno 8010 bound_to 7997
  139.5484  144.2174  152.1031 H   0  0  0  0  0  0  0  0  0  0  0  0  # atno 10167 bound_to 10162
  156.0327  130.5542  150.7477 H   0  0  0  0  0  0  0  0  0  0  0  0  # atno 10718 bound_to 10713
  154.3574  135.6123  153.5673 H   0  0  0  0  0  0  0  0  0  0  0  0  # atno 10763 bound_to 10752
  152.9795  135.5807  154.4672 H   0  0  0  0  0  0  0  0  0  0  0  0  # atno 10764 bound_to 10752
  154.4404  135.2850  155.1829 H   0  0  0  0  0  0  0  0  0  0  0  0  # atno 10765 bound_to 10752
  140.5686  134.0124  155.7999 H   0  0  0  0  0  0  0  0  0  0  0  0  # atno 11005 bound_to 11000
  145.2881  139.1893  143.4755 LP  0  0  0  0  0  0  0  0  0  0  0  0  # atno 17320 bound_to 7965
  146.3312  140.2854  142.8612 LP  0  0  0  0  0  0  0  0  0  0  0  0  # atno 17321 bound_to 7965
  140.1665  144.4977  150.6603 LP  0  0  0  0  0  0  0  0  0  0  0  0  # atno 17342 bound_to 10162
  140.6739  143.2297  151.5555 LP  0  0  0  0  0  0  0  0  0  0  0  0  # atno 17343 bound_to 10162
  157.5029  131.0920  151.0292 LP  0  0  0  0  0  0  0  0  0  0  0  0  # atno 17370 bound_to 10713
  157.0668  130.5848  149.5395 LP  0  0  0  0  0  0  0  0  0  0  0  0  # atno 17371 bound_to 10713
  141.1070  133.9677  157.2978 LP  0  0  0  0  0  0  0  0  0  0  0  0  # atno 17394 bound_to 11000
  139.9373  135.0195  156.8596 LP  0  0  0  0  0  0  0  0  0  0  0  0  # atno 17395 bound_to 11000

$$$$
