AV-unprocessed.smi:1684|AV-procd|sdf|6753|dock2
  -GOLD-   22720 7513D 1   1.00000     0.00000
 Structure written by MMmdl.
 42 43  0  0  0  0  0  0  0  0  1 V2000
  147.4477  133.0209  152.3772 C   0  0  0  0  0  0  0  0  0  0  0  0
  146.1967  132.9552  151.5162 C   0  0  0  0  0  0  0  0  0  0  0  0
  145.6279  131.6985  151.2194 C   0  0  0  0  0  0  0  0  0  0  0  0
  144.4704  131.6399  150.4245 C   0  0  0  0  0  0  0  0  0  0  0  0
  143.9278  132.8487  149.9562 C   0  0  0  0  0  0  0  0  0  0  0  0
  144.4658  134.0537  150.2335 N   0  0  0  0  0  0  0  0  0  0  0  0
  145.5831  134.1280  150.9999 C   0  0  0  0  0  0  0  0  0  0  0  0
  146.2038  135.3644  151.3359 N   0  0  0  0  0  0  0  0  0  0  0  0
  145.6239  136.5166  151.7154 C   0  0  0  0  0  0  0  0  0  0  0  0
  144.4111  136.7033  151.8172 O   0  0  0  0  0  0  0  0  0  0  0  0
  146.5453  137.4572  151.9724 N   0  0  0  0  0  0  0  0  0  0  0  0
  146.2732  138.8232  152.4165 C   0  0  2  0  0  0  0  0  0  0  0  0
  146.8947  139.8042  151.4132 C   0  0  0  0  0  0  0  0  0  0  0  0
  146.8380  139.0514  153.8358 C   0  0  0  0  0  0  0  0  0  0  0  0
  148.1807  139.6300  153.9021 N   0  0  0  0  0  0  0  0  0  0  0  0
  148.1890  140.8474  154.7054 C   0  0  0  0  0  0  0  0  0  0  0  0
  149.5911  141.4764  154.7824 C   0  0  0  0  0  0  0  0  0  0  0  0
  150.5145  140.5233  155.2982 O   0  0  0  0  0  0  0  0  0  0  0  0
  150.5693  139.3347  154.5163 C   0  0  0  0  0  0  0  0  0  0  0  0
  149.1700  138.7002  154.4437 C   0  0  0  0  0  0  0  0  0  0  0  0
  147.7692  132.0263  152.6877 H   0  0  0  0  0  0  0  0  0  0  0  0
  147.2619  133.6085  153.2767 H   0  0  0  0  0  0  0  0  0  0  0  0
  148.2675  133.4814  151.8246 H   0  0  0  0  0  0  0  0  0  0  0  0
  146.0708  130.7880  151.5956 H   0  0  0  0  0  0  0  0  0  0  0  0
  144.0106  130.6938  150.1804 H   0  0  0  0  0  0  0  0  0  0  0  0
  143.0388  132.8490  149.3431 H   0  0  0  0  0  0  0  0  0  0  0  0
  147.2115  135.3678  151.2859 H   0  0  0  0  0  0  0  0  0  0  0  0
  147.5168  137.2069  151.8617 H   0  0  0  0  0  0  0  0  0  0  0  0
  145.1995  139.0127  152.4107 H   0  0  0  0  0  0  0  0  0  0  0  0
  146.6865  140.8365  151.6958 H   0  0  0  0  0  0  0  0  0  0  0  0
  146.4913  139.6507  150.4117 H   0  0  0  0  0  0  0  0  0  0  0  0
  147.9776  139.6866  151.3581 H   0  0  0  0  0  0  0  0  0  0  0  0
  146.1454  139.7069  154.3655 H   0  0  0  0  0  0  0  0  0  0  0  0
  146.8270  138.1082  154.3838 H   0  0  0  0  0  0  0  0  0  0  0  0
  147.4935  141.5739  154.2835 H   0  0  0  0  0  0  0  0  0  0  0  0
  147.8367  140.6272  155.7143 H   0  0  0  0  0  0  0  0  0  0  0  0
  149.9181  141.8136  153.7977 H   0  0  0  0  0  0  0  0  0  0  0  0
  149.5793  142.3504  155.4334 H   0  0  0  0  0  0  0  0  0  0  0  0
  150.9409  139.5637  153.5162 H   0  0  0  0  0  0  0  0  0  0  0  0
  151.2771  138.6414  154.9706 H   0  0  0  0  0  0  0  0  0  0  0  0
  148.8681  138.3767  155.4409 H   0  0  0  0  0  0  0  0  0  0  0  0
  149.2285  137.8030  153.8298 H   0  0  0  0  0  0  0  0  0  0  0  0
  1  2  1  0  0  0  0
  1 21  1  0  0  0  0
  1 22  1  0  0  0  0
  1 23  1  0  0  0  0
  2  7  1  0  0  0  0
  2  3  2  0  0  0  0
  3  4  1  0  0  0  0
  3 24  1  0  0  0  0
  4  5  2  0  0  0  0
  4 25  1  0  0  0  0
  5  6  1  0  0  0  0
  5 26  1  0  0  0  0
  6  7  2  0  0  0  0
  7  8  1  0  0  0  0
  8  9  1  0  0  0  0
  8 27  1  0  0  0  0
  9 10  2  0  0  0  0
  9 11  1  0  0  0  0
 11 12  1  0  0  0  0
 11 28  1  0  0  0  0
 12 13  1  0  0  0  0
 12 14  1  0  0  0  0
 12 29  1  0  0  0  0
 13 30  1  0  0  0  0
 13 31  1  0  0  0  0
 13 32  1  0  0  0  0
 14 15  1  0  0  0  0
 14 33  1  0  0  0  0
 14 34  1  0  0  0  0
 15 20  1  0  0  0  0
 15 16  1  0  0  0  0
 16 17  1  0  0  0  0
 16 35  1  0  0  0  0
 16 36  1  0  0  0  0
 17 18  1  0  0  0  0
 17 37  1  0  0  0  0
 17 38  1  0  0  0  0
 18 19  1  0  0  0  0
 19 20  1  0  0  0  0
 19 39  1  0  0  0  0
 19 40  1  0  0  0  0
 20 41  1  0  0  0  0
 20 42  1  0  0  0  0
M  END
> <s_m_source_file>
AV-unprocessed.smi

> <i_m_source_file_index>
1684

> <i_lp_mmshare_version>
43012

> <i_f3d_flags>
0

> <s_epik_input>
W0NIM11jMVtjSF1bY0hdW2NIXW5jMVtOSF1DKD1PKVtOSF1bQ0BIXShbQ0gzXSlbQ0gyXU4yW0NIMl1bQ0gyXU9bQ0gyXVtDSDJdMg==

> <s_epik_cmdline>
J2VwaWtfcHl0aG9uJywgJy1waCcsICc3LjAnLCAnLXRuJywgJzgnLCAnLW1hJywgJzIwMCcsICctbWV0YWxfYmluZGluZycsICctaW1hZScsICc8aW5maWxlLm1hZT4nLCAnLW9tYWUnLCAnPG91dGZpbGUubWFlPic=

> <r_epik_Ionization_Penalty>
0.26605

> <r_epik_Ionization_Penalty_Charging>
0

> <r_epik_Ionization_Penalty_Neutral>
0.26605

> <r_epik_State_Penalty>
0.257924

> <r_epik_Charging_Adjusted_Penalty>
0.257924

> <i_epik_Tot_Q>
0

> <i_epik_Tot_abs_Q>
0

> <r_epik_Metal_State_Penalty>
0.257922

> <b_epik_Metal_Only>
0

> <s_lp_Force_Field>
OPLS_2005

> <r_lp_Energy>
27.9157

> <b_lp_Chiralities_Consistent>
1

> <s_lp_Variant>
AV-unprocessed.smi:1684-1

> <Gold.Version>
5.8.1

> <Gold.Id.Protein>
6NUR|6NUR_protein|mol2

> <Gold.PLP.Fitness>
40.7496

> <Gold.PLP.PLP>
-34.9204

> <Gold.PLP.part.hbond>
-3.0000

> <Gold.PLP.part.metal>
0.0000

> <Gold.PLP.part.buried>
-0.4766

> <Gold.PLP.part.nonpolar>
-32.7432

> <Gold.PLP.part.repulsive>
1.0425

> <Gold.PLP.ligand.clash>
0.0000

> <Gold.PLP.ligand.torsion>
1.5363

> <Gold.PLP.Chemscore.Hbond>
1.9600

> <Gold.PLP.Chemscore.CHOScore>
1.0000

> <Gold.PLP.Chemscore.Metal>
0.0000

> <Gold.Chemscore.Hbonds>
donor molecule, donor type, donor heavy atom, donor atom, acceptor molecule, acceptor atom, score
      L1  H     8    27       P1  7948  0.99
      L1  H    11    28       P1  7948  1.00
      L1  C     5    26       P1 10186  0.85

> <Gold.PLP.Chemscore.Internal.Correction>
0.0218

> <Gold.Rescore>
     Score         DG    S(hbond)    S(metal)    S(lipo)     H(rot)  DE(clash)    DE(int)     intcor
     15.29     -18.11       1.85        0.00      86.97       1.46       1.26       1.56       ----

> <Gold.Chemscore.Fitness>
15.2901

> <Gold.Chemscore.DG>
-18.1087

> <Gold.Chemscore.ZeroCoef>
-5.4800

> <Gold.Chemscore.Hbond>
1.8520

> <Gold.Chemscore.Metal>
0.0000

> <Gold.Chemscore.Lipo>
86.9728

> <Gold.Chemscore.Internal_Hbond>
0.0000

> <Gold.Chemscore.DEClash>
1.2612

> <Gold.Chemscore.DEInternal>
1.5574

> <Gold.Chemscore.Rot>
1.4581

> <Gold.Chemscore.Internal.Correction>
   9.000000E+99

> <Gold.Chemscore.Hbonds>
donor molecule, donor type, donor heavy atom, donor atom, acceptor molecule, acceptor atom, score
      L1  H     8    27       P1  7948  0.78
      L1  H    11    28       P1  7948  1.00

> <Gold.Chemscore.Hbond.Weighted>
-6.1855

> <Gold.Chemscore.Metal.Weighted>
-0.0000

> <Gold.Chemscore.Lipo.Weighted>
-10.1758

> <Gold.Chemscore.Internal_Hbond.Weighted>
0.0000

> <Gold.Chemscore.DEClash.Weighted>
1.2612

> <Gold.Chemscore.DEInternal.Weighted>
1.5574

> <Gold.Chemscore.Rot.Weighted>
3.7327

> <Gold.Chemscore.Internal.Correction.Weighted>
   9.000000E+99

> <Gold.Protein.RotatedTorsions>
[ 6907 6896 6895 6894 ] final -123.74 input  -60.11 | X-H torsion
[ 7974 7965 7964 7962 ] final   81.43 input  175.53 | X-H torsion
[ 8008 7997 7996 7995 ] final  155.31 input   59.86 | X-H torsion
[ 10167 10162 10161 10158 ] final   69.53 input  -65.29 | X-H torsion
[ 10718 10713 10712 10709 ] final    3.51 input   66.30 | X-H torsion
[ 10763 10752 10751 10750 ] final -170.35 input  -60.55 | X-H torsion
[ 11005 11000 10999 10996 ] final   22.84 input  -57.11 | X-H torsion

> <Gold.Protein.ActiveResidues>
 VAL166  LYS551  ARG553  GLY616  TRP617  ASP618  TYR619  PRO620  LYS621  CYS622 
 ASP623  PHE694  ASN695  SER759  ASP760  ASP761  ALA762  ILE779  LEU786  VAL792 
 PHE793  MET794  SER795  GLU796  ALA797  LYS798  CYS799  TRP800  GLU811  SER814 

> <Gold.Protein.RotatedAtoms>
  150.8700  133.7519  159.2964 H   0  0  0  0  0  0  0  0  0  0  0  0  # atno 6907 bound_to 6896
  151.5133  135.1064  159.9869 H   0  0  0  0  0  0  0  0  0  0  0  0  # atno 6908 bound_to 6896
  152.4688  133.7939  159.6972 H   0  0  0  0  0  0  0  0  0  0  0  0  # atno 6909 bound_to 6896
  145.6382  139.2419  143.2045 H   0  0  0  0  0  0  0  0  0  0  0  0  # atno 7974 bound_to 7965
  156.2485  140.1943  156.6781 H   0  0  0  0  0  0  0  0  0  0  0  0  # atno 8008 bound_to 7997
  154.6342  140.0592  156.9795 H   0  0  0  0  0  0  0  0  0  0  0  0  # atno 8009 bound_to 7997
  155.1663  140.3264  155.4404 H   0  0  0  0  0  0  0  0  0  0  0  0  # atno 8010 bound_to 7997
  140.0668  144.5186  150.7255 H   0  0  0  0  0  0  0  0  0  0  0  0  # atno 10167 bound_to 10162
  156.8789  130.5646  149.5654 H   0  0  0  0  0  0  0  0  0  0  0  0  # atno 10718 bound_to 10713
  154.6424  135.2900  155.0087 H   0  0  0  0  0  0  0  0  0  0  0  0  # atno 10763 bound_to 10752
  154.1209  135.6548  153.4907 H   0  0  0  0  0  0  0  0  0  0  0  0  # atno 10764 bound_to 10752
  153.0333  135.5287  154.7296 H   0  0  0  0  0  0  0  0  0  0  0  0  # atno 10765 bound_to 10752
  140.3761  134.1970  155.7665 H   0  0  0  0  0  0  0  0  0  0  0  0  # atno 11005 bound_to 11000
  146.1302  140.7196  142.9416 LP  0  0  0  0  0  0  0  0  0  0  0  0  # atno 17320 bound_to 7965
  144.7167  140.4235  143.7039 LP  0  0  0  0  0  0  0  0  0  0  0  0  # atno 17321 bound_to 7965
  140.7145  143.2533  151.4478 LP  0  0  0  0  0  0  0  0  0  0  0  0  # atno 17342 bound_to 10162
  139.5860  144.1604  152.2029 LP  0  0  0  0  0  0  0  0  0  0  0  0  # atno 17343 bound_to 10162
  156.0687  130.5725  150.9341 LP  0  0  0  0  0  0  0  0  0  0  0  0  # atno 17370 bound_to 10713
  157.6152  131.0934  150.8723 LP  0  0  0  0  0  0  0  0  0  0  0  0  # atno 17371 bound_to 10713
  141.1939  133.8141  157.0781 LP  0  0  0  0  0  0  0  0  0  0  0  0  # atno 17394 bound_to 11000
  140.0514  134.9803  157.1143 LP  0  0  0  0  0  0  0  0  0  0  0  0  # atno 17395 bound_to 11000

$$$$
