AV-unprocessed.smi:1240|AV-procd|sdf|5197|dock5
  -GOLD-   22720 4283D 1   1.00000     0.00000
 Structure written by MMmdl.
 47 49  0  0  0  0  0  0  0  0  1 V2000
  144.7583  135.9034  153.5031 O   0  0  0  0  0  0  0  0  0  0  0  0
  145.9300  135.8922  153.1263 C   0  0  0  0  0  0  0  0  0  0  0  0
  146.8626  136.7334  153.5951 N   0  0  0  0  0  0  0  0  0  0  0  0
  146.6267  137.7752  154.5915 C   0  0  0  0  0  0  0  0  0  0  0  0
  147.3095  139.1362  154.2452 C   0  0  2  0  0  0  0  0  0  0  0  0
  148.7377  139.1692  154.8905 C   0  0  1  0  0  0  0  0  0  0  0  0
  149.7481  138.0853  154.5555 C   0  0  0  0  0  0  0  0  0  0  0  0
  151.0279  138.6787  155.1309 C   0  0  0  0  0  0  0  0  0  0  0  0
  150.9244  140.0776  154.8888 O   0  0  0  0  0  0  0  0  0  0  0  0
  149.5724  140.4213  154.5931 C   0  0  0  0  0  0  0  0  0  0  0  0
  146.4946  140.3429  154.5384 N   0  0  0  0  0  0  0  0  0  0  0  0
  146.5001  140.6680  155.9711 C   0  0  0  0  0  0  0  0  0  0  0  0
  145.5757  141.8505  156.3034 C   0  0  0  0  0  0  0  0  0  0  0  0
  145.9899  142.9921  155.5630 O   0  0  0  0  0  0  0  0  0  0  0  0
  145.9924  142.7581  154.1599 C   0  0  0  0  0  0  0  0  0  0  0  0
  146.9017  141.5605  153.8298 C   0  0  0  0  0  0  0  0  0  0  0  0
  146.4426  135.0725  152.1923 N   0  0  0  0  0  0  0  0  0  0  0  0
  145.7856  134.0624  151.4383 C   0  0  0  0  0  0  0  0  0  0  0  0
  146.5803  133.0381  150.8832 C   0  0  0  0  0  0  0  0  0  0  0  0
  145.9525  132.0170  150.1424 C   0  0  0  0  0  0  0  0  0  0  0  0
  144.6194  131.9598  149.9409 N   0  0  0  0  0  0  0  0  0  0  0  0
  143.8585  132.9328  150.4851 C   0  0  0  0  0  0  0  0  0  0  0  0
  144.3849  133.9986  151.2420 C   0  0  0  0  0  0  0  0  0  0  0  0
  147.8008  136.6577  153.2300 H   0  0  0  0  0  0  0  0  0  0  0  0
  145.5457  137.8882  154.6823 H   0  0  0  0  0  0  0  0  0  0  0  0
  146.9764  137.4040  155.5550 H   0  0  0  0  0  0  0  0  0  0  0  0
  147.4602  139.1119  153.1650 H   0  0  0  0  0  0  0  0  0  0  0  0
  148.6074  139.1201  155.9727 H   0  0  0  0  0  0  0  0  0  0  0  0
  149.5015  137.1116  154.9797 H   0  0  0  0  0  0  0  0  0  0  0  0
  149.8828  137.9842  153.4787 H   0  0  0  0  0  0  0  0  0  0  0  0
  151.0783  138.5100  156.2072 H   0  0  0  0  0  0  0  0  0  0  0  0
  151.9265  138.2592  154.6779 H   0  0  0  0  0  0  0  0  0  0  0  0
  149.5058  140.6903  153.5380 H   0  0  0  0  0  0  0  0  0  0  0  0
  149.2586  141.2836  155.1817 H   0  0  0  0  0  0  0  0  0  0  0  0
  146.2172  139.8204  156.5868 H   0  0  0  0  0  0  0  0  0  0  0  0
  147.5152  140.9217  156.2812 H   0  0  0  0  0  0  0  0  0  0  0  0
  144.5374  141.6084  156.0718 H   0  0  0  0  0  0  0  0  0  0  0  0
  145.6228  142.0818  157.3677 H   0  0  0  0  0  0  0  0  0  0  0  0
  144.9738  142.5738  153.8148 H   0  0  0  0  0  0  0  0  0  0  0  0
  146.3455  143.6545  153.6503 H   0  0  0  0  0  0  0  0  0  0  0  0
  147.9351  141.8100  154.0761 H   0  0  0  0  0  0  0  0  0  0  0  0
  146.8559  141.4061  152.7521 H   0  0  0  0  0  0  0  0  0  0  0  0
  147.4070  135.2359  151.9436 H   0  0  0  0  0  0  0  0  0  0  0  0
  147.6525  133.0338  151.0142 H   0  0  0  0  0  0  0  0  0  0  0  0
  146.5378  131.2237  149.7013 H   0  0  0  0  0  0  0  0  0  0  0  0
  142.7942  132.8566  150.3182 H   0  0  0  0  0  0  0  0  0  0  0  0
  143.7089  134.7281  151.6602 H   0  0  0  0  0  0  0  0  0  0  0  0
  1  2  2  0  0  0  0
  2  3  1  0  0  0  0
  2 17  1  0  0  0  0
  3  4  1  0  0  0  0
  3 24  1  0  0  0  0
  4  5  1  0  0  0  0
  4 25  1  0  0  0  0
  4 26  1  0  0  0  0
  5  6  1  0  0  0  0
  5 11  1  0  0  0  0
  5 27  1  0  0  0  0
  6 10  1  0  0  0  0
  6  7  1  0  0  0  0
  6 28  1  0  0  0  0
  7  8  1  0  0  0  0
  7 29  1  0  0  0  0
  7 30  1  0  0  0  0
  8  9  1  0  0  0  0
  8 31  1  0  0  0  0
  8 32  1  0  0  0  0
  9 10  1  0  0  0  0
 10 33  1  0  0  0  0
 10 34  1  0  0  0  0
 11 16  1  0  0  0  0
 11 12  1  0  0  0  0
 12 13  1  0  0  0  0
 12 35  1  0  0  0  0
 12 36  1  0  0  0  0
 13 14  1  0  0  0  0
 13 37  1  0  0  0  0
 13 38  1  0  0  0  0
 14 15  1  0  0  0  0
 15 16  1  0  0  0  0
 15 39  1  0  0  0  0
 15 40  1  0  0  0  0
 16 41  1  0  0  0  0
 16 42  1  0  0  0  0
 17 18  1  0  0  0  0
 17 43  1  0  0  0  0
 18 23  1  0  0  0  0
 18 19  2  0  0  0  0
 19 20  1  0  0  0  0
 19 44  1  0  0  0  0
 20 21  2  0  0  0  0
 20 45  1  0  0  0  0
 21 22  1  0  0  0  0
 22 23  2  0  0  0  0
 22 46  1  0  0  0  0
 23 47  1  0  0  0  0
M  END
> <s_m_source_file>
AV-unprocessed.smi

> <i_m_source_file_index>
1240

> <i_lp_mmshare_version>
43012

> <i_f3d_flags>
0

> <s_epik_input>
W2NIXTFbY0hdbltjSF1bY0hdYzFbTkhdQyg9TylbTkhdW0NIMl1bQ0BIXShbQ0BASF0yW0NIMl1bQ0gyXU9bQ0gyXTIpTjNbQ0gyXVtDSDJdT1tDSDJdW0NIMl0z

> <s_epik_cmdline>
J2VwaWtfcHl0aG9uJywgJy1waCcsICc3LjAnLCAnLXRuJywgJzgnLCAnLW1hJywgJzIwMCcsICctbWV0YWxfYmluZGluZycsICctaW1hZScsICc8aW5maWxlLm1hZT4nLCAnLW9tYWUnLCAnPG91dGZpbGUubWFlPic=

> <r_epik_Ionization_Penalty>
0.238664

> <r_epik_Ionization_Penalty_Charging>
0

> <r_epik_Ionization_Penalty_Neutral>
0.238664

> <r_epik_State_Penalty>
0.217087

> <r_epik_Charging_Adjusted_Penalty>
0.217087

> <i_epik_Tot_Q>
0

> <i_epik_Tot_abs_Q>
0

> <r_epik_Metal_State_Penalty>
0.199194

> <b_epik_Metal_Only>
0

> <s_lp_Force_Field>
OPLS_2005

> <r_lp_Energy>
60.4564

> <b_lp_Chiralities_Consistent>
1

> <s_lp_Variant>
AV-unprocessed.smi:1240-3

> <Gold.Version>
5.8.1

> <Gold.Id.Protein>
6NUR|6NUR_protein|mol2

> <Gold.PLP.Fitness>
49.1982

> <Gold.PLP.PLP>
-36.3161

> <Gold.PLP.part.hbond>
-3.1572

> <Gold.PLP.part.metal>
0.0000

> <Gold.PLP.part.buried>
-6.0085

> <Gold.PLP.part.nonpolar>
-28.4576

> <Gold.PLP.part.repulsive>
0.6231

> <Gold.PLP.ligand.clash>
0.0000

> <Gold.PLP.ligand.torsion>
0.9511

> <Gold.PLP.Chemscore.Hbond>
3.0000

> <Gold.PLP.Chemscore.CHOScore>
1.8535

> <Gold.PLP.Chemscore.Metal>
0.0000

> <Gold.Chemscore.Hbonds>
donor molecule, donor type, donor heavy atom, donor atom, acceptor molecule, acceptor atom, score
      L1  H     3    24       P1  7948  1.00
      L1  H    17    43       P1  7948  1.00
      P1  H  7989  7998       L1     9  0.80
      L1  C    20    45       P1 10747  0.87
      L1  C    22    46       P1 10186  1.00

> <Gold.PLP.Chemscore.Internal.Correction>
0.2239

> <Gold.Rescore>
     Score         DG    S(hbond)    S(metal)    S(lipo)     H(rot)  DE(clash)    DE(int)     intcor
     18.27     -20.63       2.88        0.00      83.38       1.65       0.22       2.15       ----

> <Gold.Chemscore.Fitness>
18.2682

> <Gold.Chemscore.DG>
-20.6300

> <Gold.Chemscore.ZeroCoef>
-5.4800

> <Gold.Chemscore.Hbond>
2.8804

> <Gold.Chemscore.Metal>
0.0000

> <Gold.Chemscore.Lipo>
83.3805

> <Gold.Chemscore.Internal_Hbond>
0.0000

> <Gold.Chemscore.DEClash>
0.2160

> <Gold.Chemscore.DEInternal>
2.1458

> <Gold.Chemscore.Rot>
1.6508

> <Gold.Chemscore.Internal.Correction>
   9.000000E+99

> <Gold.Chemscore.Hbonds>
donor molecule, donor type, donor heavy atom, donor atom, acceptor molecule, acceptor atom, score
      L1  H     3    24       P1  7948  0.94
      L1  H    17    43       P1  7948  0.96
      P1  H  7989  7998       L1     9  0.12

> <Gold.Chemscore.Hbond.Weighted>
-9.6207

> <Gold.Chemscore.Metal.Weighted>
-0.0000

> <Gold.Chemscore.Lipo.Weighted>
-9.7555

> <Gold.Chemscore.Internal_Hbond.Weighted>
0.0000

> <Gold.Chemscore.DEClash.Weighted>
0.2160

> <Gold.Chemscore.DEInternal.Weighted>
2.1458

> <Gold.Chemscore.Rot.Weighted>
4.2262

> <Gold.Chemscore.Internal.Correction.Weighted>
   9.000000E+99

> <Gold.Protein.RotatedTorsions>
[ 6907 6896 6895 6894 ] final  -98.32 input  -60.11 | X-H torsion
[ 7974 7965 7964 7962 ] final  -49.57 input  175.53 | X-H torsion
[ 8008 7997 7996 7995 ] final -148.62 input   59.86 | X-H torsion
[ 10167 10162 10161 10158 ] final  -53.28 input  -65.29 | X-H torsion
[ 10718 10713 10712 10709 ] final -125.80 input   66.30 | X-H torsion
[ 10763 10752 10751 10750 ] final  -29.52 input  -60.55 | X-H torsion
[ 11005 11000 10999 10996 ] final  158.27 input  -57.11 | X-H torsion

> <Gold.Protein.ActiveResidues>
 VAL166  LYS551  ARG553  GLY616  TRP617  ASP618  TYR619  PRO620  LYS621  CYS622 
 ASP623  PHE694  ASN695  SER759  ASP760  ASP761  ALA762  ILE779  LEU786  VAL792 
 PHE793  MET794  SER795  GLU796  ALA797  LYS798  CYS799  TRP800  GLU811  SER814 

> <Gold.Protein.RotatedAtoms>
  150.7043  134.1213  159.4035 H   0  0  0  0  0  0  0  0  0  0  0  0  # atno 6907 bound_to 6896
  151.9199  135.0300  160.0530 H   0  0  0  0  0  0  0  0  0  0  0  0  # atno 6908 bound_to 6896
  152.2265  133.4989  159.5228 H   0  0  0  0  0  0  0  0  0  0  0  0  # atno 6909 bound_to 6896
  145.9392  140.7678  142.9561 H   0  0  0  0  0  0  0  0  0  0  0  0  # atno 7974 bound_to 7965
  155.5945  140.0656  157.2750 H   0  0  0  0  0  0  0  0  0  0  0  0  # atno 8008 bound_to 7997
  154.4296  140.1829  156.1156 H   0  0  0  0  0  0  0  0  0  0  0  0  # atno 8009 bound_to 7997
  156.0207  140.3317  155.7039 H   0  0  0  0  0  0  0  0  0  0  0  0  # atno 8010 bound_to 7997
  140.6493  143.2555  151.4769 H   0  0  0  0  0  0  0  0  0  0  0  0  # atno 10167 bound_to 10162
  156.1707  130.6666  151.0176 H   0  0  0  0  0  0  0  0  0  0  0  0  # atno 10718 bound_to 10713
  153.7661  135.6916  153.4916 H   0  0  0  0  0  0  0  0  0  0  0  0  # atno 10763 bound_to 10752
  153.1906  135.4472  155.0143 H   0  0  0  0  0  0  0  0  0  0  0  0  # atno 10764 bound_to 10752
  154.8135  135.3388  154.7173 H   0  0  0  0  0  0  0  0  0  0  0  0  # atno 10765 bound_to 10752
  140.1849  134.8449  157.2846 H   0  0  0  0  0  0  0  0  0  0  0  0  # atno 11005 bound_to 11000
  144.6776  140.2252  143.7362 LP  0  0  0  0  0  0  0  0  0  0  0  0  # atno 17320 bound_to 7965
  145.8323  139.2091  143.1875 LP  0  0  0  0  0  0  0  0  0  0  0  0  # atno 17321 bound_to 7965
  139.5707  144.1936  152.1831 LP  0  0  0  0  0  0  0  0  0  0  0  0  # atno 17342 bound_to 10162
  140.1231  144.5355  150.6850 LP  0  0  0  0  0  0  0  0  0  0  0  0  # atno 17343 bound_to 10162
  157.6801  131.0840  150.7393 LP  0  0  0  0  0  0  0  0  0  0  0  0  # atno 17370 bound_to 10713
  156.7452  130.4751  149.5468 LP  0  0  0  0  0  0  0  0  0  0  0  0  # atno 17371 bound_to 10713
  140.2225  134.4006  155.7559 LP  0  0  0  0  0  0  0  0  0  0  0  0  # atno 17394 bound_to 11000
  141.2224  133.7173  156.8513 LP  0  0  0  0  0  0  0  0  0  0  0  0  # atno 17395 bound_to 11000

$$$$
