AV-unprocessed.smi:2473|AV-procd|sdf|9748|dock1
  -GOLD-   2272013393D 1   1.00000     0.00000
 Structure written by MMmdl.
 47 48  0  0  0  0  0  0  0  0  1 V2000
  153.4323  142.3015  162.2600 C   0  0  0  0  0  0  0  0  0  0  0  0
  153.1053  142.5835  160.7864 C   0  0  1  0  0  0  0  0  0  0  0  0
  152.6598  141.3033  160.0565 C   0  0  0  0  0  0  0  0  0  0  0  0
  152.3444  141.5844  158.5749 C   0  0  1  0  0  0  0  0  0  0  0  0
  151.8897  140.3111  157.8502 C   0  0  0  0  0  0  0  0  0  0  0  0
  152.5389  139.8725  156.9003 O   0  0  0  0  0  0  0  0  0  0  0  0
  150.7916  139.7092  158.3351 N   0  0  0  0  0  0  0  0  0  0  0  0
  150.2787  138.4088  157.9112 C   0  0  0  0  0  0  0  0  0  0  0  0
  148.9228  138.5305  157.1880 C   0  0  0  0  0  0  0  0  0  0  0  0
  148.8648  139.6461  156.1849 C   0  0  0  0  0  0  0  0  0  0  0  0
  148.1702  140.7639  156.3734 N   0  0  0  0  0  0  0  0  0  0  0  0
  148.4157  141.5311  155.2402 C   0  0  0  0  0  0  0  0  0  0  0  0
  149.2542  140.8436  154.3969 C   0  0  0  0  0  0  0  0  0  0  0  0
  149.5358  139.6325  155.0150 N   0  0  0  0  0  0  0  0  0  0  0  0
  150.3891  138.5875  154.4817 C   0  0  0  0  0  0  0  0  0  0  0  0
  151.2664  142.6855  158.4569 C   0  0  0  0  0  0  0  0  0  0  0  0
  151.6419  143.9994  159.1837 C   0  0  0  0  0  0  0  0  0  0  0  0
  152.7875  144.7295  158.4488 C   0  0  0  0  0  0  0  0  0  0  0  0
  150.4153  144.9328  159.1825 C   0  0  0  0  0  0  0  0  0  0  0  0
  152.0314  143.6839  160.6501 C   0  0  0  0  0  0  0  0  0  0  0  0
  152.5587  141.9322  162.7976 H   0  0  0  0  0  0  0  0  0  0  0  0
  153.7779  143.2042  162.7648 H   0  0  0  0  0  0  0  0  0  0  0  0
  154.2201  141.5532  162.3507 H   0  0  0  0  0  0  0  0  0  0  0  0
  154.0254  142.9363  160.3203 H   0  0  0  0  0  0  0  0  0  0  0  0
  153.4428  140.5471  160.1311 H   0  0  0  0  0  0  0  0  0  0  0  0
  151.7822  140.8878  160.5551 H   0  0  0  0  0  0  0  0  0  0  0  0
  153.2580  141.9326  158.0919 H   0  0  0  0  0  0  0  0  0  0  0  0
  150.3171  140.1516  159.1087 H   0  0  0  0  0  0  0  0  0  0  0  0
  151.0099  137.9532  157.2433 H   0  0  0  0  0  0  0  0  0  0  0  0
  150.1848  137.7334  158.7629 H   0  0  0  0  0  0  0  0  0  0  0  0
  148.6798  137.5867  156.6999 H   0  0  0  0  0  0  0  0  0  0  0  0
  148.1354  138.6931  157.9245 H   0  0  0  0  0  0  0  0  0  0  0  0
  147.9745  142.5095  155.1202 H   0  0  0  0  0  0  0  0  0  0  0  0
  149.6646  141.1109  153.4343 H   0  0  0  0  0  0  0  0  0  0  0  0
  150.8517  138.9187  153.5516 H   0  0  0  0  0  0  0  0  0  0  0  0
  149.7976  137.6937  154.2830 H   0  0  0  0  0  0  0  0  0  0  0  0
  151.1772  138.3471  155.1953 H   0  0  0  0  0  0  0  0  0  0  0  0
  151.0616  142.8942  157.4062 H   0  0  0  0  0  0  0  0  0  0  0  0
  150.3291  142.3090  158.8707 H   0  0  0  0  0  0  0  0  0  0  0  0
  153.0351  145.6696  158.9428 H   0  0  0  0  0  0  0  0  0  0  0  0
  152.5079  144.9655  157.4215 H   0  0  0  0  0  0  0  0  0  0  0  0
  153.7025  144.1411  158.4045 H   0  0  0  0  0  0  0  0  0  0  0  0
  150.6309  145.8734  159.6904 H   0  0  0  0  0  0  0  0  0  0  0  0
  149.5635  144.4768  159.6887 H   0  0  0  0  0  0  0  0  0  0  0  0
  150.1000  145.1724  158.1663 H   0  0  0  0  0  0  0  0  0  0  0  0
  151.1413  143.3649  161.1949 H   0  0  0  0  0  0  0  0  0  0  0  0
  152.3720  144.5942  161.1452 H   0  0  0  0  0  0  0  0  0  0  0  0
  1  2  1  0  0  0  0
  1 21  1  0  0  0  0
  1 22  1  0  0  0  0
  1 23  1  0  0  0  0
  2 20  1  0  0  0  0
  2  3  1  0  0  0  0
  2 24  1  0  0  0  0
  3  4  1  0  0  0  0
  3 25  1  0  0  0  0
  3 26  1  0  0  0  0
  4  5  1  0  0  0  0
  4 16  1  0  0  0  0
  4 27  1  0  0  0  0
  5  6  2  0  0  0  0
  5  7  1  0  0  0  0
  7  8  1  0  0  0  0
  7 28  1  0  0  0  0
  8  9  1  0  0  0  0
  8 29  1  0  0  0  0
  8 30  1  0  0  0  0
  9 10  1  0  0  0  0
  9 31  1  0  0  0  0
  9 32  1  0  0  0  0
 10 14  1  0  0  0  0
 10 11  2  0  0  0  0
 11 12  1  0  0  0  0
 12 13  2  0  0  0  0
 12 33  1  0  0  0  0
 13 14  1  0  0  0  0
 13 34  1  0  0  0  0
 14 15  1  0  0  0  0
 15 35  1  0  0  0  0
 15 36  1  0  0  0  0
 15 37  1  0  0  0  0
 16 17  1  0  0  0  0
 16 38  1  0  0  0  0
 16 39  1  0  0  0  0
 17 18  1  0  0  0  0
 17 19  1  0  0  0  0
 17 20  1  0  0  0  0
 18 40  1  0  0  0  0
 18 41  1  0  0  0  0
 18 42  1  0  0  0  0
 19 43  1  0  0  0  0
 19 44  1  0  0  0  0
 19 45  1  0  0  0  0
 20 46  1  0  0  0  0
 20 47  1  0  0  0  0
M  END
> <s_m_source_file>
AV-unprocessed.smi

> <i_m_source_file_index>
2473

> <i_lp_mmshare_version>
43012

> <i_f3d_flags>
0

> <s_epik_input>
W0NIM11bQ0BASF0oW0NIMl0xKVtDSDJdW0NASF0oW0NIMl1DMShbQ0gzXSlbQ0gzXSlDKD1PKVtOSF1bQ0gyXVtDSDJdYzJuW2NIXVtjSF1uMltDSDNd

> <s_epik_cmdline>
J2VwaWtfcHl0aG9uJywgJy1waCcsICc3LjAnLCAnLXRuJywgJzgnLCAnLW1hJywgJzIwMCcsICctbWV0YWxfYmluZGluZycsICctaW1hZScsICc8aW5maWxlLm1hZT4nLCAnLW9tYWUnLCAnPG91dGZpbGUubWFlPic=

> <r_lp_tautomer_probability>
1

> <r_epik_Ionization_Penalty>
1.22858

> <r_epik_Ionization_Penalty_Charging>
1.22858

> <r_epik_Ionization_Penalty_Neutral>
2.12671e-08

> <r_epik_State_Penalty>
1.2965

> <r_epik_Charging_Adjusted_Penalty>
2.52508

> <i_epik_Tot_Q>
0

> <i_epik_Tot_abs_Q>
0

> <r_epik_Metal_State_Penalty>
0.411461

> <b_epik_Metal_Only>
0

> <s_lp_Force_Field>
OPLS_2005

> <r_lp_Energy>
12.6142

> <b_lp_Chiralities_Consistent>
1

> <s_lp_Variant>
AV-unprocessed.smi:2473-6

> <Gold.Version>
5.8.1

> <Gold.Id.Protein>
6NUR|6NUR_protein|mol2

> <Gold.PLP.Fitness>
51.7755

> <Gold.PLP.PLP>
-43.1171

> <Gold.PLP.part.hbond>
-1.0000

> <Gold.PLP.part.metal>
0.0000

> <Gold.PLP.part.buried>
-5.3693

> <Gold.PLP.part.nonpolar>
-37.5874

> <Gold.PLP.part.repulsive>
0.1861

> <Gold.PLP.ligand.clash>
0.0000

> <Gold.PLP.ligand.torsion>
0.2048

> <Gold.PLP.Chemscore.Hbond>
1.0000

> <Gold.PLP.Chemscore.CHOScore>
2.0000

> <Gold.PLP.Chemscore.Metal>
0.0000

> <Gold.Chemscore.Hbonds>
donor molecule, donor type, donor heavy atom, donor atom, acceptor molecule, acceptor atom, score
      P1  H  7997  8009       L1     6  1.00
      L1  C    12    33       P1  8028  1.00
      L1  C    13    34       P1  7957  1.00

> <Gold.PLP.Chemscore.Internal.Correction>
0.0679

> <Gold.Rescore>
     Score         DG    S(hbond)    S(metal)    S(lipo)     H(rot)  DE(clash)    DE(int)     intcor
     19.54     -19.63       0.99        0.00     125.73       1.51       0.03       0.07       ----

> <Gold.Chemscore.Fitness>
19.5405

> <Gold.Chemscore.DG>
-19.6332

> <Gold.Chemscore.ZeroCoef>
-5.4800

> <Gold.Chemscore.Hbond>
0.9914

> <Gold.Chemscore.Metal>
0.0000

> <Gold.Chemscore.Lipo>
125.7268

> <Gold.Chemscore.Internal_Hbond>
0.0000

> <Gold.Chemscore.DEClash>
0.0260

> <Gold.Chemscore.DEInternal>
0.0667

> <Gold.Chemscore.Rot>
1.5109

> <Gold.Chemscore.Internal.Correction>
   9.000000E+99

> <Gold.Chemscore.Hbonds>
donor molecule, donor type, donor heavy atom, donor atom, acceptor molecule, acceptor atom, score
      P1  H  7997  8009       L1     6  1.00

> <Gold.Chemscore.Hbond.Weighted>
-3.3112

> <Gold.Chemscore.Metal.Weighted>
-0.0000

> <Gold.Chemscore.Lipo.Weighted>
-14.7100

> <Gold.Chemscore.Internal_Hbond.Weighted>
0.0000

> <Gold.Chemscore.DEClash.Weighted>
0.0260

> <Gold.Chemscore.DEInternal.Weighted>
0.0667

> <Gold.Chemscore.Rot.Weighted>
3.8680

> <Gold.Chemscore.Internal.Correction.Weighted>
   9.000000E+99

> <Gold.Protein.RotatedTorsions>
[ 6907 6896 6895 6894 ] final  -23.73 input  -60.11 | X-H torsion
[ 7974 7965 7964 7962 ] final  144.78 input  175.53 | X-H torsion
[ 8008 7997 7996 7995 ] final -172.28 input   59.86 | X-H torsion
[ 10167 10162 10161 10158 ] final   -1.46 input  -65.29 | X-H torsion
[ 10718 10713 10712 10709 ] final   -0.29 input   66.30 | X-H torsion
[ 10763 10752 10751 10750 ] final -101.88 input  -60.55 | X-H torsion
[ 11005 11000 10999 10996 ] final  147.30 input  -57.11 | X-H torsion

> <Gold.Protein.ActiveResidues>
 VAL166  LYS551  ARG553  GLY616  TRP617  ASP618  TYR619  PRO620  LYS621  CYS622 
 ASP623  PHE694  ASN695  SER759  ASP760  ASP761  ALA762  ILE779  LEU786  VAL792 
 PHE793  MET794  SER795  GLU796  ALA797  LYS798  CYS799  TRP800  GLU811  SER814 

> <Gold.Protein.RotatedAtoms>
  151.1998  135.0437  159.8867 H   0  0  0  0  0  0  0  0  0  0  0  0  # atno 6907 bound_to 6896
  152.5433  134.0863  159.8267 H   0  0  0  0  0  0  0  0  0  0  0  0  # atno 6908 bound_to 6896
  151.1002  133.5202  159.2642 H   0  0  0  0  0  0  0  0  0  0  0  0  # atno 6909 bound_to 6896
  144.8807  139.5704  143.5844 H   0  0  0  0  0  0  0  0  0  0  0  0  # atno 7974 bound_to 7965
  155.9425  140.1111  157.1044 H   0  0  0  0  0  0  0  0  0  0  0  0  # atno 8008 bound_to 7997
  154.4092  140.1216  156.5012 H   0  0  0  0  0  0  0  0  0  0  0  0  # atno 8009 bound_to 7997
  155.6944  140.3472  155.4909 H   0  0  0  0  0  0  0  0  0  0  0  0  # atno 8010 bound_to 7997
  140.6811  143.6773  150.8135 H   0  0  0  0  0  0  0  0  0  0  0  0  # atno 10167 bound_to 10162
  156.8226  130.5461  149.5695 H   0  0  0  0  0  0  0  0  0  0  0  0  # atno 10718 bound_to 10713
  154.7691  135.4881  153.9614 H   0  0  0  0  0  0  0  0  0  0  0  0  # atno 10763 bound_to 10752
  153.1345  135.6760  153.9132 H   0  0  0  0  0  0  0  0  0  0  0  0  # atno 10764 bound_to 10752
  153.8825  135.3130  155.3424 H   0  0  0  0  0  0  0  0  0  0  0  0  # atno 10765 bound_to 10752
  140.0864  134.9067  157.1583 H   0  0  0  0  0  0  0  0  0  0  0  0  # atno 11005 bound_to 11000
  146.2992  139.7374  142.9104 LP  0  0  0  0  0  0  0  0  0  0  0  0  # atno 17320 bound_to 7965
  145.3960  141.0379  143.3097 LP  0  0  0  0  0  0  0  0  0  0  0  0  # atno 17321 bound_to 7965
  140.0473  143.5285  152.2690 LP  0  0  0  0  0  0  0  0  0  0  0  0  # atno 17342 bound_to 10162
  139.6134  144.7614  151.2901 LP  0  0  0  0  0  0  0  0  0  0  0  0  # atno 17343 bound_to 10162
  156.0980  130.5947  150.9846 LP  0  0  0  0  0  0  0  0  0  0  0  0  # atno 17370 bound_to 10713
  157.6449  131.0905  150.8174 LP  0  0  0  0  0  0  0  0  0  0  0  0  # atno 17371 bound_to 10713
  140.3414  134.2700  155.7211 LP  0  0  0  0  0  0  0  0  0  0  0  0  # atno 17394 bound_to 11000
  141.2064  133.7834  157.0179 LP  0  0  0  0  0  0  0  0  0  0  0  0  # atno 17395 bound_to 11000

$$$$
