AV-unprocessed.smi:648|AV-procd|sdf|3176|dock7
  -GOLD-   22720 0103D 1   1.00000     0.00000
 Structure written by MMmdl.
 45 46  0  0  0  0  0  0  0  0  1 V2000
  141.7466  135.5074  153.6054 C   0  0  0  0  0  0  0  0  0  0  0  0
  143.0217  135.4612  152.7506 C   0  0  2  0  0  0  0  0  0  0  0  0
  143.2532  134.0492  152.1798 C   0  0  0  0  0  0  0  0  0  0  0  0
  144.5128  133.9369  151.2891 C   0  0  0  0  0  0  0  0  0  0  0  0
  144.8114  132.4391  151.0575 C   0  0  0  0  0  0  0  0  0  0  0  0
  144.2528  134.5474  149.8924 C   0  0  0  0  0  0  0  0  0  0  0  0
  145.7467  134.5609  152.0114 C   0  0  0  0  0  0  0  0  0  0  0  0
  145.5644  135.9342  152.7331 C   0  0  2  0  0  0  0  0  0  0  0  0
  145.5601  137.1021  151.7085 C   0  0  0  0  0  0  0  0  0  0  0  0
  146.8200  137.2712  151.0856 O   0  0  0  0  0  0  0  0  0  0  0  0
  146.7371  136.1961  153.5987 N   0  0  0  0  0  0  0  0  0  0  0  0
  146.7651  137.3848  154.4627 C   0  0  0  0  0  0  0  0  0  0  0  0
  148.0350  137.4032  155.3274 C   0  0  0  0  0  0  0  0  0  0  0  0
  148.8237  138.6038  155.1211 N   0  0  0  0  0  0  0  0  0  0  0  0
  149.3936  139.0892  154.0169 C   0  0  0  0  0  0  0  0  0  0  0  0
  150.0410  140.2306  154.2061 N   0  0  0  0  0  0  0  0  0  0  0  0
  149.8146  140.4020  155.5428 C   0  0  0  0  0  0  0  0  0  0  0  0
  149.0913  139.4543  156.1395 N   0  0  0  0  0  0  0  0  0  0  0  0
  144.2514  135.9020  153.5653 C   0  0  0  0  0  0  0  0  0  0  0  0
  141.8157  134.8342  154.4606 H   0  0  0  0  0  0  0  0  0  0  0  0
  140.8725  135.2161  153.0223 H   0  0  0  0  0  0  0  0  0  0  0  0
  141.5664  136.5127  153.9867 H   0  0  0  0  0  0  0  0  0  0  0  0
  142.8705  136.1595  151.9287 H   0  0  0  0  0  0  0  0  0  0  0  0
  143.3400  133.3533  153.0159 H   0  0  0  0  0  0  0  0  0  0  0  0
  142.3748  133.7276  151.6181 H   0  0  0  0  0  0  0  0  0  0  0  0
  145.6943  132.3034  150.4314 H   0  0  0  0  0  0  0  0  0  0  0  0
  143.9790  131.9359  150.5640 H   0  0  0  0  0  0  0  0  0  0  0  0
  144.9926  131.9117  151.9950 H   0  0  0  0  0  0  0  0  0  0  0  0
  145.1763  134.6468  149.3213 H   0  0  0  0  0  0  0  0  0  0  0  0
  143.7706  135.5196  149.9267 H   0  0  0  0  0  0  0  0  0  0  0  0
  143.5825  133.9150  149.3091 H   0  0  0  0  0  0  0  0  0  0  0  0
  146.0461  133.8279  152.7574 H   0  0  0  0  0  0  0  0  0  0  0  0
  146.5912  134.6151  151.3226 H   0  0  0  0  0  0  0  0  0  0  0  0
  144.8101  136.9328  150.9346 H   0  0  0  0  0  0  0  0  0  0  0  0
  145.3206  138.0555  152.1632 H   0  0  0  0  0  0  0  0  0  0  0  0
  147.4564  136.7480  151.5485 H   0  0  0  0  0  0  0  0  0  0  0  0
  147.5761  136.1768  153.0271 H   0  0  0  0  0  0  0  0  0  0  0  0
  146.7393  138.3007  153.8744 H   0  0  0  0  0  0  0  0  0  0  0  0
  145.9024  137.4084  155.1257 H   0  0  0  0  0  0  0  0  0  0  0  0
  147.7661  137.3479  156.3831 H   0  0  0  0  0  0  0  0  0  0  0  0
  148.6562  136.5315  155.1165 H   0  0  0  0  0  0  0  0  0  0  0  0
  149.3298  138.6005  153.0556 H   0  0  0  0  0  0  0  0  0  0  0  0
  150.1950  141.2499  156.0930 H   0  0  0  0  0  0  0  0  0  0  0  0
  144.0671  136.8731  154.0260 H   0  0  0  0  0  0  0  0  0  0  0  0
  144.3439  135.1990  154.3918 H   0  0  0  0  0  0  0  0  0  0  0  0
  1  2  1  0  0  0  0
  1 20  1  0  0  0  0
  1 21  1  0  0  0  0
  1 22  1  0  0  0  0
  2 19  1  0  0  0  0
  2  3  1  0  0  0  0
  2 23  1  0  0  0  0
  3  4  1  0  0  0  0
  3 24  1  0  0  0  0
  3 25  1  0  0  0  0
  4  5  1  0  0  0  0
  4  6  1  0  0  0  0
  4  7  1  0  0  0  0
  5 26  1  0  0  0  0
  5 27  1  0  0  0  0
  5 28  1  0  0  0  0
  6 29  1  0  0  0  0
  6 30  1  0  0  0  0
  6 31  1  0  0  0  0
  7  8  1  0  0  0  0
  7 32  1  0  0  0  0
  7 33  1  0  0  0  0
  8  9  1  0  0  0  0
  8 11  1  0  0  0  0
  8 19  1  0  0  0  0
  9 10  1  0  0  0  0
  9 34  1  0  0  0  0
  9 35  1  0  0  0  0
 10 36  1  0  0  0  0
 11 12  1  0  0  0  0
 11 37  1  0  0  0  0
 12 13  1  0  0  0  0
 12 38  1  0  0  0  0
 12 39  1  0  0  0  0
 13 14  1  0  0  0  0
 13 40  1  0  0  0  0
 13 41  1  0  0  0  0
 14 18  1  0  0  0  0
 14 15  1  0  0  0  0
 15 16  2  0  0  0  0
 15 42  1  0  0  0  0
 16 17  1  0  0  0  0
 17 18  2  0  0  0  0
 17 43  1  0  0  0  0
 19 44  1  0  0  0  0
 19 45  1  0  0  0  0
M  END
> <s_m_source_file>
AV-unprocessed.smi

> <i_m_source_file_index>
648

> <i_lp_mmshare_version>
43012

> <i_f3d_flags>
0

> <s_epik_input>
W0NIM11DMShbQ0gzXSlbQ0gyXVtDQEBIXShbQ0gzXSlbQ0gyXVtDQF0oW0NIMl0xKShbQ0gyXVtPSF0pW05IXVtDSDJdW0NIMl1uMltjSF1uW2NIXW4y

> <s_epik_cmdline>
J2VwaWtfcHl0aG9uJywgJy1waCcsICc3LjAnLCAnLXRuJywgJzgnLCAnLW1hJywgJzIwMCcsICctbWV0YWxfYmluZGluZycsICctaW1hZScsICc8aW5maWxlLm1hZT4nLCAnLW9tYWUnLCAnPG91dGZpbGUubWFlPic=

> <r_lp_tautomer_probability>
1

> <r_epik_Ionization_Penalty>
2.45849

> <r_epik_Ionization_Penalty_Charging>
0

> <r_epik_Ionization_Penalty_Neutral>
2.45849

> <r_epik_State_Penalty>
2.62037

> <r_epik_Charging_Adjusted_Penalty>
2.62037

> <i_epik_Tot_Q>
0

> <i_epik_Tot_abs_Q>
0

> <r_epik_Metal_State_Penalty>
2.62024

> <b_epik_Metal_Only>
0

> <s_lp_Force_Field>
OPLS_2005

> <r_lp_Energy>
36.1132

> <b_lp_Chiralities_Consistent>
1

> <s_lp_Variant>
AV-unprocessed.smi:648-7

> <Gold.Version>
5.8.1

> <Gold.Id.Protein>
6NUR|6NUR_protein|mol2

> <Gold.PLP.Fitness>
40.6668

> <Gold.PLP.PLP>
-25.4996

> <Gold.PLP.part.hbond>
-3.5515

> <Gold.PLP.part.metal>
0.0000

> <Gold.PLP.part.buried>
-0.7713

> <Gold.PLP.part.nonpolar>
-21.8797

> <Gold.PLP.part.repulsive>
0.1197

> <Gold.PLP.ligand.clash>
0.0000

> <Gold.PLP.ligand.torsion>
0.4494

> <Gold.PLP.Chemscore.Hbond>
3.6420

> <Gold.PLP.Chemscore.CHOScore>
1.7089

> <Gold.PLP.Chemscore.Metal>
0.0000

> <Gold.Chemscore.Hbonds>
donor molecule, donor type, donor heavy atom, donor atom, acceptor molecule, acceptor atom, score
      L1  H    10    36       P1  7948  1.00
      L1  H    11    37       P1  7948  1.00
      P1  H  7954  7966       L1    10  0.50
      P1  H  7989  7998       L1    16  0.91
      L1  C    15    42       P1  7948  0.72
      L1  C    15    42       P1  7957  0.72

> <Gold.PLP.Chemscore.Internal.Correction>
0.0133

> <Gold.Rescore>
     Score         DG    S(hbond)    S(metal)    S(lipo)     H(rot)  DE(clash)    DE(int)     intcor
     12.28     -13.25       2.81        0.00      54.49       3.12       0.48       0.49       ----

> <Gold.Chemscore.Fitness>
12.2825

> <Gold.Chemscore.DG>
-13.2488

> <Gold.Chemscore.ZeroCoef>
-5.4800

> <Gold.Chemscore.Hbond>
2.8073

> <Gold.Chemscore.Metal>
0.0000

> <Gold.Chemscore.Lipo>
54.4893

> <Gold.Chemscore.Internal_Hbond>
0.0000

> <Gold.Chemscore.DEClash>
0.4794

> <Gold.Chemscore.DEInternal>
0.4869

> <Gold.Chemscore.Rot>
3.1183

> <Gold.Chemscore.Internal.Correction>
   9.000000E+99

> <Gold.Chemscore.Hbonds>
donor molecule, donor type, donor heavy atom, donor atom, acceptor molecule, acceptor atom, score
      L1  H    10    36       P1  7948  0.94
      L1  H    11    37       P1  7948  1.00
      P1  H  7954  7966       L1    10  0.02
      P1  H  7989  7998       L1    16  0.87

> <Gold.Chemscore.Hbond.Weighted>
-9.3765

> <Gold.Chemscore.Metal.Weighted>
-0.0000

> <Gold.Chemscore.Lipo.Weighted>
-6.3752

> <Gold.Chemscore.Internal_Hbond.Weighted>
0.0000

> <Gold.Chemscore.DEClash.Weighted>
0.4794

> <Gold.Chemscore.DEInternal.Weighted>
0.4869

> <Gold.Chemscore.Rot.Weighted>
7.9829

> <Gold.Chemscore.Internal.Correction.Weighted>
   9.000000E+99

> <Gold.Protein.RotatedTorsions>
[ 6907 6896 6895 6894 ] final  -81.46 input  -60.11 | X-H torsion
[ 7974 7965 7964 7962 ] final   16.74 input  175.53 | X-H torsion
[ 8008 7997 7996 7995 ] final  153.62 input   59.86 | X-H torsion
[ 10167 10162 10161 10158 ] final -106.11 input  -65.29 | X-H torsion
[ 10718 10713 10712 10709 ] final  -36.97 input   66.30 | X-H torsion
[ 10763 10752 10751 10750 ] final -149.92 input  -60.55 | X-H torsion
[ 11005 11000 10999 10996 ] final   -0.98 input  -57.11 | X-H torsion

> <Gold.Protein.ActiveResidues>
 VAL166  LYS551  ARG553  GLY616  TRP617  ASP618  TYR619  PRO620  LYS621  CYS622 
 ASP623  PHE694  ASN695  SER759  ASP760  ASP761  ALA762  ILE779  LEU786  VAL792 
 PHE793  MET794  SER795  GLU796  ALA797  LYS798  CYS799  TRP800  GLU811  SER814 

> <Gold.Protein.RotatedAtoms>
  150.6912  134.3814  159.5035 H   0  0  0  0  0  0  0  0  0  0  0  0  # atno 6907 bound_to 6896
  152.1616  134.8905  160.0550 H   0  0  0  0  0  0  0  0  0  0  0  0  # atno 6908 bound_to 6896
  151.9964  133.3775  159.4201 H   0  0  0  0  0  0  0  0  0  0  0  0  # atno 6909 bound_to 6896
  146.2240  139.8704  142.8588 H   0  0  0  0  0  0  0  0  0  0  0  0  # atno 7974 bound_to 7965
  156.2573  140.1989  156.6518 H   0  0  0  0  0  0  0  0  0  0  0  0  # atno 8008 bound_to 7997
  154.6531  140.0569  157.0003 H   0  0  0  0  0  0  0  0  0  0  0  0  # atno 8009 bound_to 7997
  155.1388  140.3240  155.4459 H   0  0  0  0  0  0  0  0  0  0  0  0  # atno 8010 bound_to 7997
  140.1912  143.3890  152.1204 H   0  0  0  0  0  0  0  0  0  0  0  0  # atno 10167 bound_to 10162
  156.3206  130.4265  149.7963 H   0  0  0  0  0  0  0  0  0  0  0  0  # atno 10718 bound_to 10713
  154.8149  135.3297  154.7203 H   0  0  0  0  0  0  0  0  0  0  0  0  # atno 10763 bound_to 10752
  153.7845  135.6916  153.4887 H   0  0  0  0  0  0  0  0  0  0  0  0  # atno 10764 bound_to 10752
  153.1958  135.4534  155.0152 H   0  0  0  0  0  0  0  0  0  0  0  0  # atno 10765 bound_to 10752
  140.6423  133.9478  155.8333 H   0  0  0  0  0  0  0  0  0  0  0  0  # atno 11005 bound_to 11000
  145.2614  141.0078  143.3824 LP  0  0  0  0  0  0  0  0  0  0  0  0  # atno 17320 bound_to 7965
  144.9295  139.4315  143.6502 LP  0  0  0  0  0  0  0  0  0  0  0  0  # atno 17321 bound_to 7965
  139.5255  144.7096  151.5246 LP  0  0  0  0  0  0  0  0  0  0  0  0  # atno 17342 bound_to 10162
  140.6454  143.8805  150.6732 LP  0  0  0  0  0  0  0  0  0  0  0  0  # atno 17343 bound_to 10162
  156.5272  130.8241  151.3224 LP  0  0  0  0  0  0  0  0  0  0  0  0  # atno 17370 bound_to 10713
  157.7411  130.9863  150.2422 LP  0  0  0  0  0  0  0  0  0  0  0  0  # atno 17371 bound_to 10713
  141.0597  134.0363  157.3674 LP  0  0  0  0  0  0  0  0  0  0  0  0  # atno 17394 bound_to 11000
  139.9075  135.0183  156.7552 LP  0  0  0  0  0  0  0  0  0  0  0  0  # atno 17395 bound_to 11000

$$$$
