AV-unprocessed.smi:1645|AV-procd|sdf|6610|dock1
  -GOLD-   22720 7313D 1   1.00000     0.00000
 Structure written by MMmdl.
 56 59  0  0  0  0  0  0  0  0  3 V2000
  149.2922  135.1937  156.2841 O   0  0  0  0  0  0  0  0  0  0  0  0
  149.1554  135.6066  155.1332 C   0  0  0  0  0  0  0  0  0  0  0  0
  149.4400  136.8522  154.7142 N   0  0  0  0  0  0  0  0  0  0  0  0
  149.9631  137.9426  155.4632 C   0  0  0  0  0  0  0  0  0  0  0  0
  150.4544  139.0555  154.7496 C   0  0  0  0  0  0  0  0  0  0  0  0
  150.9816  140.1622  155.4468 C   0  0  0  0  0  0  0  0  0  0  0  0
  151.0076  140.1570  156.8640 C   0  0  0  0  0  0  0  0  0  0  0  0
  151.5289  141.2108  157.6484 N   0  0  0  0  0  0  0  0  0  0  0  0
  151.9349  140.8735  159.0169 C   0  0  0  0  0  0  0  0  0  0  0  0
  152.8847  141.9344  159.5983 C   0  0  0  0  0  0  0  0  0  0  0  0
  152.2787  143.3401  159.4863 C   0  0  0  0  0  0  0  0  0  0  0  0
  151.9123  143.6339  158.0251 C   0  0  0  0  0  0  0  0  0  0  0  0
  150.9765  142.5532  157.4565 C   0  0  0  0  0  0  0  0  0  0  0  0
  150.5096  139.0712  157.5035 N   0  3  0  0  0  0  0  0  0  0  0  0
  149.9971  137.9908  156.8769 C   0  0  0  0  0  0  0  0  0  0  0  0
  148.7041  134.8438  154.1269 N   0  0  0  0  0  0  0  0  0  0  0  0
  148.3199  133.4396  154.2477 C   0  0  2  0  0  0  0  0  0  0  0  0
  149.5035  132.5086  154.4815 C   0  0  0  0  0  0  0  0  0  0  0  0
  148.9265  131.1478  154.0851 C   0  0  0  0  0  0  0  0  0  0  0  0
  147.9601  131.4143  152.9940 N   0  3  1  0  0  0  0  0  0  0  0  0
  146.7541  130.5504  153.0147 C   0  0  0  0  0  0  0  0  0  0  0  0
  145.8234  130.8794  151.8322 C   0  0  0  0  0  0  0  0  0  0  0  0
  145.5558  132.3906  151.6718 C   0  0  0  0  0  0  0  0  0  0  0  0
  146.1944  133.2188  152.7967 C   0  0  0  0  0  0  0  0  0  0  0  0
  147.6941  132.8808  152.9592 C   0  0  1  0  0  0  0  0  0  0  0  0
  149.3233  137.0240  153.7261 H   0  0  0  0  0  0  0  0  0  0  0  0
  150.4344  139.0644  153.6696 H   0  0  0  0  0  0  0  0  0  0  0  0
  151.3488  141.0009  154.8749 H   0  0  0  0  0  0  0  0  0  0  0  0
  151.0396  140.7983  159.6351 H   0  0  0  0  0  0  0  0  0  0  0  0
  152.4311  139.9045  159.0658 H   0  0  0  0  0  0  0  0  0  0  0  0
  153.1057  141.7042  160.6409 H   0  0  0  0  0  0  0  0  0  0  0  0
  153.8362  141.9034  159.0658 H   0  0  0  0  0  0  0  0  0  0  0  0
  151.3890  143.4108  160.1132 H   0  0  0  0  0  0  0  0  0  0  0  0
  152.9838  144.0854  159.8559 H   0  0  0  0  0  0  0  0  0  0  0  0
  151.4414  144.6142  157.9463 H   0  0  0  0  0  0  0  0  0  0  0  0
  152.8221  143.6792  157.4248 H   0  0  0  0  0  0  0  0  0  0  0  0
  150.8289  142.7557  156.3955 H   0  0  0  0  0  0  0  0  0  0  0  0
  150.0001  142.6093  157.9396 H   0  0  0  0  0  0  0  0  0  0  0  0
  149.6328  137.2201  157.5386 H   0  0  0  0  0  0  0  0  0  0  0  0
  148.6265  135.2609  153.2105 H   0  0  0  0  0  0  0  0  0  0  0  0
  147.6263  133.3067  155.0809 H   0  0  0  0  0  0  0  0  0  0  0  0
  150.3332  132.7692  153.8226 H   0  0  0  0  0  0  0  0  0  0  0  0
  149.8660  132.5297  155.5098 H   0  0  0  0  0  0  0  0  0  0  0  0
  149.6968  130.4428  153.7716 H   0  0  0  0  0  0  0  0  0  0  0  0
  148.4097  130.7145  154.9431 H   0  0  0  0  0  0  0  0  0  0  0  0
  147.0541  129.5027  152.9727 H   0  0  0  0  0  0  0  0  0  0  0  0
  146.2226  130.6863  153.9581 H   0  0  0  0  0  0  0  0  0  0  0  0
  146.2618  130.4970  150.9094 H   0  0  0  0  0  0  0  0  0  0  0  0
  144.8803  130.3468  151.9580 H   0  0  0  0  0  0  0  0  0  0  0  0
  145.9571  132.7246  150.7142 H   0  0  0  0  0  0  0  0  0  0  0  0
  144.4827  132.5807  151.6319 H   0  0  0  0  0  0  0  0  0  0  0  0
  146.0693  134.2819  152.5901 H   0  0  0  0  0  0  0  0  0  0  0  0
  145.6618  133.0288  153.7296 H   0  0  0  0  0  0  0  0  0  0  0  0
  148.2405  133.2641  152.0957 H   0  0  0  0  0  0  0  0  0  0  0  0
  148.4386  131.2069  152.1290 H   0  0  0  0  0  0  0  0  0  0  0  0
  150.5252  139.0672  158.5237 H   0  0  0  0  0  0  0  0  0  0  0  0
  1  2  2  0  0  0  0
  2  3  1  0  0  0  0
  2 16  1  0  0  0  0
  3  4  1  0  0  0  0
  3 26  1  0  0  0  0
  4 15  1  0  0  0  0
  4  5  2  0  0  0  0
  5  6  1  0  0  0  0
  5 27  1  0  0  0  0
  6  7  2  0  0  0  0
  6 28  1  0  0  0  0
  7  8  1  0  0  0  0
  7 14  1  0  0  0  0
  8 13  1  0  0  0  0
  8  9  1  0  0  0  0
  9 10  1  0  0  0  0
  9 29  1  0  0  0  0
  9 30  1  0  0  0  0
 10 11  1  0  0  0  0
 10 31  1  0  0  0  0
 10 32  1  0  0  0  0
 11 12  1  0  0  0  0
 11 33  1  0  0  0  0
 11 34  1  0  0  0  0
 12 13  1  0  0  0  0
 12 35  1  0  0  0  0
 12 36  1  0  0  0  0
 13 37  1  0  0  0  0
 13 38  1  0  0  0  0
 14 15  2  0  0  0  0
 14 56  1  0  0  0  0
 15 39  1  0  0  0  0
 16 17  1  0  0  0  0
 16 40  1  0  0  0  0
 17 25  1  0  0  0  0
 17 18  1  0  0  0  0
 17 41  1  0  0  0  0
 18 19  1  0  0  0  0
 18 42  1  0  0  0  0
 18 43  1  0  0  0  0
 19 20  1  0  0  0  0
 19 44  1  0  0  0  0
 19 45  1  0  0  0  0
 20 25  1  0  0  0  0
 20 21  1  0  0  0  0
 20 55  1  0  0  0  0
 21 22  1  0  0  0  0
 21 46  1  0  0  0  0
 21 47  1  0  0  0  0
 22 23  1  0  0  0  0
 22 48  1  0  0  0  0
 22 49  1  0  0  0  0
 23 24  1  0  0  0  0
 23 50  1  0  0  0  0
 23 51  1  0  0  0  0
 24 25  1  0  0  0  0
 24 52  1  0  0  0  0
 24 53  1  0  0  0  0
 25 54  1  0  0  0  0
M  CHG  1  14   1
M  CHG  1  20   1
M  END
> <s_m_source_file>
AV-unprocessed.smi

> <i_m_source_file_index>
1645

> <i_lp_mmshare_version>
43012

> <i_f3d_flags>
0

> <s_epik_input>
W0NIMl0xW0NIMl1bQ0gyXVtDSDJdW0NASF0oTjEyKVtDQEBIXShbQ0gyXVtDSDJdMilbTkhdQyg9TylbTkhdYzNbY0hdW2NIXWMobltjSF0zKU40W0NIMl1bQ0gyXVtDSDJdW0NIMl1bQ0gyXTQ=

> <s_epik_cmdline>
J2VwaWtfcHl0aG9uJywgJy1waCcsICc3LjAnLCAnLXRuJywgJzgnLCAnLW1hJywgJzIwMCcsICctbWV0YWxfYmluZGluZycsICctaW1hZScsICc8aW5maWxlLm1hZT4nLCAnLW9tYWUnLCAnPG91dGZpbGUubWFlPic=

> <r_lp_tautomer_probability>
0.999994

> <r_epik_Ionization_Penalty>
1.26838

> <r_epik_Ionization_Penalty_Charging>
1.26836

> <r_epik_Ionization_Penalty_Neutral>
1.95562e-05

> <r_epik_State_Penalty>
1.33841

> <r_epik_Charging_Adjusted_Penalty>
2.60677

> <i_epik_Tot_Q>
2

> <i_epik_Tot_abs_Q>
2

> <r_epik_Metal_State_Penalty>
1.40601

> <b_epik_Metal_Only>
0

> <s_lp_Force_Field>
OPLS_2005

> <r_lp_Energy>
64.1893

> <b_lp_Chiralities_Consistent>
1

> <s_lp_Variant>
AV-unprocessed.smi:1645-11

> <Gold.Version>
5.8.1

> <Gold.Id.Protein>
6NUR|6NUR_protein|mol2

> <Gold.PLP.Fitness>
55.6374

> <Gold.PLP.PLP>
-47.8872

> <Gold.PLP.part.hbond>
-3.0000

> <Gold.PLP.part.metal>
0.0000

> <Gold.PLP.part.buried>
-3.6308

> <Gold.PLP.part.nonpolar>
-41.1839

> <Gold.PLP.part.repulsive>
0.0792

> <Gold.PLP.ligand.clash>
0.0000

> <Gold.PLP.ligand.torsion>
0.7349

> <Gold.PLP.Chemscore.Hbond>
2.9760

> <Gold.PLP.Chemscore.CHOScore>
0.0000

> <Gold.PLP.Chemscore.Metal>
0.0000

> <Gold.Chemscore.Hbonds>
donor molecule, donor type, donor heavy atom, donor atom, acceptor molecule, acceptor atom, score
      L1  H     3    26       P1  7948  0.94
      L1  H    16    40       P1  7948  1.00
      L1  H    20    55       P1 10747  1.00

> <Gold.PLP.Chemscore.Internal.Correction>
0.2921

> <Gold.Rescore>
     Score         DG    S(hbond)    S(metal)    S(lipo)     H(rot)  DE(clash)    DE(int)     intcor
     24.06     -25.83       2.65        0.00     120.26       1.00       0.05       1.72       ----

> <Gold.Chemscore.Fitness>
24.0565

> <Gold.Chemscore.DG>
-25.8251

> <Gold.Chemscore.ZeroCoef>
-5.4800

> <Gold.Chemscore.Hbond>
2.6451

> <Gold.Chemscore.Metal>
0.0000

> <Gold.Chemscore.Lipo>
120.2595

> <Gold.Chemscore.Internal_Hbond>
0.0000

> <Gold.Chemscore.DEClash>
0.0496

> <Gold.Chemscore.DEInternal>
1.7190

> <Gold.Chemscore.Rot>
1.0000

> <Gold.Chemscore.Internal.Correction>
   9.000000E+99

> <Gold.Chemscore.Hbonds>
donor molecule, donor type, donor heavy atom, donor atom, acceptor molecule, acceptor atom, score
      L1  H     3    26       P1  7948  0.83
      L1  H    16    40       P1  7948  0.85
      L1  H    20    55       P1 10747  0.98

> <Gold.Chemscore.Hbond.Weighted>
-8.8348

> <Gold.Chemscore.Metal.Weighted>
-0.0000

> <Gold.Chemscore.Lipo.Weighted>
-14.0704

> <Gold.Chemscore.Internal_Hbond.Weighted>
0.0000

> <Gold.Chemscore.DEClash.Weighted>
0.0496

> <Gold.Chemscore.DEInternal.Weighted>
1.7190

> <Gold.Chemscore.Rot.Weighted>
2.5600

> <Gold.Chemscore.Internal.Correction.Weighted>
   9.000000E+99

> <Gold.Protein.RotatedTorsions>
[ 6907 6896 6895 6894 ] final  161.45 input  -60.11 | X-H torsion
[ 7974 7965 7964 7962 ] final  -44.67 input  175.53 | X-H torsion
[ 8008 7997 7996 7995 ] final  123.22 input   59.86 | X-H torsion
[ 10167 10162 10161 10158 ] final   59.36 input  -65.29 | X-H torsion
[ 10718 10713 10712 10709 ] final  -40.75 input   66.30 | X-H torsion
[ 10763 10752 10751 10750 ] final   13.70 input  -60.55 | X-H torsion
[ 11005 11000 10999 10996 ] final   38.79 input  -57.11 | X-H torsion

> <Gold.Protein.ActiveResidues>
 VAL166  LYS551  ARG553  GLY616  TRP617  ASP618  TYR619  PRO620  LYS621  CYS622 
 ASP623  PHE694  ASN695  SER759  ASP760  ASP761  ALA762  ILE779  LEU786  VAL792 
 PHE793  MET794  SER795  GLU796  ALA797  LYS798  CYS799  TRP800  GLU811  SER814 

> <Gold.Protein.RotatedAtoms>
  151.9554  133.3679  159.4015 H   0  0  0  0  0  0  0  0  0  0  0  0  # atno 6907 bound_to 6896
  150.6973  134.4296  159.5251 H   0  0  0  0  0  0  0  0  0  0  0  0  # atno 6908 bound_to 6896
  152.1976  134.8616  160.0562 H   0  0  0  0  0  0  0  0  0  0  0  0  # atno 6909 bound_to 6896
  145.9898  140.7193  142.9322 H   0  0  0  0  0  0  0  0  0  0  0  0  # atno 7974 bound_to 7965
  156.2758  140.2768  156.1593 H   0  0  0  0  0  0  0  0  0  0  0  0  # atno 8008 bound_to 7997
  155.0771  140.0387  157.2645 H   0  0  0  0  0  0  0  0  0  0  0  0  # atno 8009 bound_to 7997
  154.6994  140.2646  155.6740 H   0  0  0  0  0  0  0  0  0  0  0  0  # atno 8010 bound_to 7997
  140.1773  144.4217  150.6632 H   0  0  0  0  0  0  0  0  0  0  0  0  # atno 10167 bound_to 10162
  156.2778  130.4214  149.8368 H   0  0  0  0  0  0  0  0  0  0  0  0  # atno 10718 bound_to 10713
  153.1695  135.6810  153.8628 H   0  0  0  0  0  0  0  0  0  0  0  0  # atno 10763 bound_to 10752
  153.7997  135.3157  155.3390 H   0  0  0  0  0  0  0  0  0  0  0  0  # atno 10764 bound_to 10752
  154.7988  135.4790  154.0317 H   0  0  0  0  0  0  0  0  0  0  0  0  # atno 10765 bound_to 10752
  140.2092  134.3776  155.8057 H   0  0  0  0  0  0  0  0  0  0  0  0  # atno 11005 bound_to 11000
  144.6885  140.3050  143.7257 LP  0  0  0  0  0  0  0  0  0  0  0  0  # atno 17320 bound_to 7965
  145.7647  139.1836  143.2247 LP  0  0  0  0  0  0  0  0  0  0  0  0  # atno 17321 bound_to 7965
  140.6543  143.2233  151.6005 LP  0  0  0  0  0  0  0  0  0  0  0  0  # atno 17342 bound_to 10162
  139.5312  144.2912  152.1150 LP  0  0  0  0  0  0  0  0  0  0  0  0  # atno 17343 bound_to 10162
  156.5827  130.8472  151.3387 LP  0  0  0  0  0  0  0  0  0  0  0  0  # atno 17370 bound_to 10713
  157.7305  130.9686  150.1835 LP  0  0  0  0  0  0  0  0  0  0  0  0  # atno 17371 bound_to 10713
  141.2226  133.7134  156.8389 LP  0  0  0  0  0  0  0  0  0  0  0  0  # atno 17394 bound_to 11000
  140.1969  134.8925  157.3125 LP  0  0  0  0  0  0  0  0  0  0  0  0  # atno 17395 bound_to 11000

$$$$
