AV-unprocessed.smi:1242|AV-procd|sdf|5216|dock4
  -GOLD-   22720 4313D 1   1.00000     0.00000
 Structure written by MMmdl.
 39 40  0  0  0  0  0  0  0  0  1 V2000
  148.7582  140.4007  154.1067 O   0  0  0  0  0  0  0  0  0  0  0  0
  149.1315  141.4380  154.6568 C   0  0  0  0  0  0  0  0  0  0  0  0
  150.6237  141.7327  154.8682 C   0  0  0  0  0  0  0  0  0  0  0  0
  151.0693  141.5709  156.2626 N   0  0  0  0  0  0  0  0  0  0  0  0
  151.1055  142.7302  157.0623 C   0  0  0  0  0  0  0  0  0  0  0  0
  151.4865  142.7185  158.3539 C   0  0  0  0  0  0  0  0  0  0  0  0
  151.5673  143.9975  159.1728 C   0  0  0  0  0  0  0  0  0  0  0  0
  150.3594  144.5340  159.3489 F   0  0  0  0  0  0  0  0  0  0  0  0
  152.1007  143.7648  160.3726 F   0  0  0  0  0  0  0  0  0  0  0  0
  152.3319  144.8904  158.5456 F   0  0  0  0  0  0  0  0  0  0  0  0
  151.8981  141.4371  158.8934 C   0  0  0  0  0  0  0  0  0  0  0  0
  151.8746  140.3196  158.1409 C   0  0  0  0  0  0  0  0  0  0  0  0
  151.4363  140.3450  156.7437 C   0  0  0  0  0  0  0  0  0  0  0  0
  151.4026  139.3292  156.0488 O   0  0  0  0  0  0  0  0  0  0  0  0
  148.2857  142.3740  155.1135 N   0  0  0  0  0  0  0  0  0  0  0  0
  146.8256  142.3236  155.0360 C   0  0  2  0  0  0  0  0  0  0  0  0
  146.2836  141.0777  155.7852 C   0  0  0  0  0  0  0  0  0  0  0  0
  144.9317  140.5199  155.2928 C   0  0  0  0  0  0  0  0  0  0  0  0
  143.7678  141.5308  155.2572 C   0  0  0  0  0  0  0  0  0  0  0  0
  144.0147  142.8429  154.4765 C   0  0  0  0  0  0  0  0  0  0  0  0
  145.0068  142.7257  153.4088 N   0  0  0  0  0  0  0  0  0  0  0  0
  146.3201  142.5040  153.5905 C   0  0  0  0  0  0  0  0  0  0  0  0
  147.0948  142.4273  152.6376 O   0  0  0  0  0  0  0  0  0  0  0  0
  151.2091  141.0879  154.2099 H   0  0  0  0  0  0  0  0  0  0  0  0
  150.8225  142.7472  154.5197 H   0  0  0  0  0  0  0  0  0  0  0  0
  150.7999  143.6352  156.5573 H   0  0  0  0  0  0  0  0  0  0  0  0
  152.2272  141.3701  159.9200 H   0  0  0  0  0  0  0  0  0  0  0  0
  152.1862  139.3818  158.5768 H   0  0  0  0  0  0  0  0  0  0  0  0
  148.6805  143.1889  155.5610 H   0  0  0  0  0  0  0  0  0  0  0  0
  146.4657  143.2047  155.5688 H   0  0  0  0  0  0  0  0  0  0  0  0
  147.0122  140.2688  155.7130 H   0  0  0  0  0  0  0  0  0  0  0  0
  146.2110  141.3099  156.8484 H   0  0  0  0  0  0  0  0  0  0  0  0
  145.0609  140.0846  154.3007 H   0  0  0  0  0  0  0  0  0  0  0  0
  144.6468  139.6829  155.9310 H   0  0  0  0  0  0  0  0  0  0  0  0
  142.9084  141.0255  154.8154 H   0  0  0  0  0  0  0  0  0  0  0  0
  143.4679  141.7779  156.2760 H   0  0  0  0  0  0  0  0  0  0  0  0
  143.0772  143.1871  154.0393 H   0  0  0  0  0  0  0  0  0  0  0  0
  144.3179  143.6348  155.1622 H   0  0  0  0  0  0  0  0  0  0  0  0
  144.6731  142.8309  152.4615 H   0  0  0  0  0  0  0  0  0  0  0  0
  1  2  2  0  0  0  0
  2  3  1  0  0  0  0
  2 15  1  0  0  0  0
  3  4  1  0  0  0  0
  3 24  1  0  0  0  0
  3 25  1  0  0  0  0
  4 13  1  0  0  0  0
  4  5  1  0  0  0  0
  5  6  2  0  0  0  0
  5 26  1  0  0  0  0
  6  7  1  0  0  0  0
  6 11  1  0  0  0  0
  7  8  1  0  0  0  0
  7  9  1  0  0  0  0
  7 10  1  0  0  0  0
 11 12  2  0  0  0  0
 11 27  1  0  0  0  0
 12 13  1  0  0  0  0
 12 28  1  0  0  0  0
 13 14  2  0  0  0  0
 15 16  1  0  0  0  0
 15 29  1  0  0  0  0
 16 22  1  0  0  0  0
 16 17  1  0  0  0  0
 16 30  1  0  0  0  0
 17 18  1  0  0  0  0
 17 31  1  0  0  0  0
 17 32  1  0  0  0  0
 18 19  1  0  0  0  0
 18 33  1  0  0  0  0
 18 34  1  0  0  0  0
 19 20  1  0  0  0  0
 19 35  1  0  0  0  0
 19 36  1  0  0  0  0
 20 21  1  0  0  0  0
 20 37  1  0  0  0  0
 20 38  1  0  0  0  0
 21 22  1  0  0  0  0
 21 39  1  0  0  0  0
 22 23  2  0  0  0  0
M  END
> <s_m_source_file>
AV-unprocessed.smi

> <i_m_source_file_index>
1242

> <i_lp_mmshare_version>
43012

> <i_f3d_flags>
0

> <s_epik_input>
Tz1jMVtjSF1bY0hdYyhDKEYpKEYpRilbY0hdbjFbQ0gyXUMoPU8pW05IXVtDQEBIXTJbQ0gyXVtDSDJdW0NIMl1bQ0gyXVtOSF1DMj1P

> <s_epik_cmdline>
J2VwaWtfcHl0aG9uJywgJy1waCcsICc3LjAnLCAnLXRuJywgJzgnLCAnLW1hJywgJzIwMCcsICctbWV0YWxfYmluZGluZycsICctaW1hZScsICc8aW5maWxlLm1hZT4nLCAnLW9tYWUnLCAnPG91dGZpbGUubWFlPic=

> <r_lp_tautomer_probability>
1

> <r_epik_Ionization_Penalty>
6.92876e-08

> <r_epik_Ionization_Penalty_Charging>
1.59659e-08

> <r_epik_Ionization_Penalty_Neutral>
5.33217e-08

> <r_epik_State_Penalty>
-0

> <r_epik_Charging_Adjusted_Penalty>
1.59659e-08

> <i_epik_Tot_Q>
0

> <i_epik_Tot_abs_Q>
0

> <r_epik_Metal_State_Penalty>
-0

> <b_epik_Metal_Only>
0

> <s_lp_Force_Field>
OPLS_2005

> <r_lp_Energy>
26.9049

> <b_lp_Chiralities_Consistent>
1

> <s_lp_Variant>
AV-unprocessed.smi:1242-1

> <Gold.Version>
5.8.1

> <Gold.Id.Protein>
6NUR|6NUR_protein|mol2

> <Gold.PLP.Fitness>
47.9013

> <Gold.PLP.PLP>
-40.4760

> <Gold.PLP.part.hbond>
-2.1074

> <Gold.PLP.part.metal>
0.0000

> <Gold.PLP.part.buried>
-3.7207

> <Gold.PLP.part.nonpolar>
-34.6414

> <Gold.PLP.part.repulsive>
0.3582

> <Gold.PLP.ligand.clash>
0.0000

> <Gold.PLP.ligand.torsion>
0.6328

> <Gold.PLP.Chemscore.Hbond>
1.8681

> <Gold.PLP.Chemscore.CHOScore>
1.0000

> <Gold.PLP.Chemscore.Metal>
0.0000

> <Gold.Chemscore.Hbonds>
donor molecule, donor type, donor heavy atom, donor atom, acceptor molecule, acceptor atom, score
      L1  H    15    29       P1  8028  1.00
      L1  C     5    26       P1  8028  1.00

> <Gold.PLP.Chemscore.Internal.Correction>
0.0865

> <Gold.Rescore>
     Score         DG    S(hbond)    S(metal)    S(lipo)     H(rot)  DE(clash)    DE(int)     intcor
     10.37     -12.29       1.50        0.00      53.13       1.72       0.34       1.58       ----

> <Gold.Chemscore.Fitness>
10.3670

> <Gold.Chemscore.DG>
-12.2895

> <Gold.Chemscore.ZeroCoef>
-5.4800

> <Gold.Chemscore.Hbond>
1.4969

> <Gold.Chemscore.Metal>
0.0000

> <Gold.Chemscore.Lipo>
53.1295

> <Gold.Chemscore.Internal_Hbond>
0.0000

> <Gold.Chemscore.DEClash>
0.3423

> <Gold.Chemscore.DEInternal>
1.5802

> <Gold.Chemscore.Rot>
1.7212

> <Gold.Chemscore.Internal.Correction>
   9.000000E+99

> <Gold.Chemscore.Hbonds>
donor molecule, donor type, donor heavy atom, donor atom, acceptor molecule, acceptor atom, score
      L1  H    15    29       P1  8028  0.88

> <Gold.Chemscore.Hbond.Weighted>
-4.9996

> <Gold.Chemscore.Metal.Weighted>
-0.0000

> <Gold.Chemscore.Lipo.Weighted>
-6.2161

> <Gold.Chemscore.Internal_Hbond.Weighted>
0.0000

> <Gold.Chemscore.DEClash.Weighted>
0.3423

> <Gold.Chemscore.DEInternal.Weighted>
1.5802

> <Gold.Chemscore.Rot.Weighted>
4.4062

> <Gold.Chemscore.Internal.Correction.Weighted>
   9.000000E+99

> <Gold.Protein.RotatedTorsions>
[ 6907 6896 6895 6894 ] final -175.93 input  -60.11 | X-H torsion
[ 7974 7965 7964 7962 ] final  125.69 input  175.53 | X-H torsion
[ 8008 7997 7996 7995 ] final -109.72 input   59.86 | X-H torsion
[ 10167 10162 10161 10158 ] final   81.57 input  -65.29 | X-H torsion
[ 10718 10713 10712 10709 ] final -147.72 input   66.30 | X-H torsion
[ 10763 10752 10751 10750 ] final  126.80 input  -60.55 | X-H torsion
[ 11005 11000 10999 10996 ] final -115.27 input  -57.11 | X-H torsion

> <Gold.Protein.ActiveResidues>
 VAL166  LYS551  ARG553  GLY616  TRP617  ASP618  TYR619  PRO620  LYS621  CYS622 
 ASP623  PHE694  ASN695  SER759  ASP760  ASP761  ALA762  ILE779  LEU786  VAL792 
 PHE793  MET794  SER795  GLU796  ALA797  LYS798  CYS799  TRP800  GLU811  SER814 

> <Gold.Protein.RotatedAtoms>
  151.5965  133.3361  159.3038 H   0  0  0  0  0  0  0  0  0  0  0  0  # atno 6907 bound_to 6896
  150.8231  134.7452  159.6801 H   0  0  0  0  0  0  0  0  0  0  0  0  # atno 6908 bound_to 6896
  152.4323  134.5760  159.9986 H   0  0  0  0  0  0  0  0  0  0  0  0  # atno 6909 bound_to 6896
  145.0702  139.3736  143.4961 H   0  0  0  0  0  0  0  0  0  0  0  0  # atno 7974 bound_to 7965
  154.9636  140.0398  157.2201 H   0  0  0  0  0  0  0  0  0  0  0  0  # atno 8008 bound_to 7997
  154.7866  140.2828  155.6001 H   0  0  0  0  0  0  0  0  0  0  0  0  # atno 8009 bound_to 7997
  156.2944  140.2581  156.2704 H   0  0  0  0  0  0  0  0  0  0  0  0  # atno 8010 bound_to 7997
  139.9378  144.6109  150.8281 H   0  0  0  0  0  0  0  0  0  0  0  0  # atno 10167 bound_to 10162
  156.4111  130.7982  151.2199 H   0  0  0  0  0  0  0  0  0  0  0  0  # atno 10718 bound_to 10713
  153.6991  135.3286  155.3220 H   0  0  0  0  0  0  0  0  0  0  0  0  # atno 10763 bound_to 10752
  154.8418  135.4450  154.1429 H   0  0  0  0  0  0  0  0  0  0  0  0  # atno 10764 bound_to 10752
  153.2492  135.6979  153.7776 H   0  0  0  0  0  0  0  0  0  0  0  0  # atno 10765 bound_to 10752
  141.0498  133.9705  157.2855 H   0  0  0  0  0  0  0  0  0  0  0  0  # atno 11005 bound_to 11000
  146.3528  140.0443  142.8640 LP  0  0  0  0  0  0  0  0  0  0  0  0  # atno 17320 bound_to 7965
  145.1302  140.9513  143.4549 LP  0  0  0  0  0  0  0  0  0  0  0  0  # atno 17321 bound_to 7965
  140.7619  143.3186  151.2675 LP  0  0  0  0  0  0  0  0  0  0  0  0  # atno 17342 bound_to 10162
  139.6729  143.9989  152.2764 LP  0  0  0  0  0  0  0  0  0  0  0  0  # atno 17343 bound_to 10162
  157.7507  131.0257  150.3931 LP  0  0  0  0  0  0  0  0  0  0  0  0  # atno 17370 bound_to 10713
  156.4230  130.3956  149.6812 LP  0  0  0  0  0  0  0  0  0  0  0  0  # atno 17371 bound_to 10713
  139.9341  135.0198  156.8498 LP  0  0  0  0  0  0  0  0  0  0  0  0  # atno 17394 bound_to 11000
  140.6077  134.0112  155.7563 LP  0  0  0  0  0  0  0  0  0  0  0  0  # atno 17395 bound_to 11000

$$$$
