AV-unprocessed.smi:813|AV-procd|sdf|3819|dock1
  -GOLD-   22720 1253D 1   1.00000     0.00000
 Structure written by MMmdl.
 35 36  0  0  0  0  0  0  0  0  2 V2000
  149.1641  141.5440  155.6846 C   0  0  0  0  0  0  0  0  0  0  0  0
  150.6594  141.4249  156.0233 C   0  0  2  0  0  0  0  0  0  0  0  0
  150.9452  140.0234  156.3308 N   0  0  0  0  0  0  0  0  0  0  0  0
  151.9588  139.2982  155.8337 C   0  0  0  0  0  0  0  0  0  0  0  0
  152.7484  139.8105  155.0363 O   0  0  0  0  0  0  0  0  0  0  0  0
  151.9934  138.0253  156.2893 N   0  5  0  0  0  0  0  0  0  0  0  0
  152.1739  137.7859  157.5985 C   0  0  0  0  0  0  0  0  0  0  0  0
  152.2601  136.5416  158.0960 N   0  0  0  0  0  0  0  0  0  0  0  0
  152.4517  136.5154  159.4708 N   0  0  0  0  0  0  0  0  0  0  0  0
  152.5129  137.7471  159.9763 C   0  0  0  0  0  0  0  0  0  0  0  0
  152.3446  139.0504  158.8191 S   0  0  0  0  0  0  0  0  0  0  0  0
  150.9502  142.3176  157.2403 C   0  0  0  0  0  0  0  0  0  0  0  0
  150.4072  142.0997  158.3247 O   0  0  0  0  0  0  0  0  0  0  0  0
  151.8045  143.3320  157.0371 N   0  0  0  0  0  0  0  0  0  0  0  0
  152.2293  144.2902  158.0538 C   0  0  0  0  0  0  0  0  0  0  0  0
  152.8655  143.5677  159.2570 C   0  0  0  0  0  0  0  0  0  0  0  0
  152.2020  144.1555  160.5038 C   0  0  0  0  0  0  0  0  0  0  0  0
  150.8084  144.5594  160.0334 C   0  0  0  0  0  0  0  0  0  0  0  0
  151.0309  145.0822  158.6142 C   0  0  0  0  0  0  0  0  0  0  0  0
  148.8933  142.5726  155.4431 H   0  0  0  0  0  0  0  0  0  0  0  0
  148.5319  141.2179  156.5120 H   0  0  0  0  0  0  0  0  0  0  0  0
  148.9128  140.9314  154.8182 H   0  0  0  0  0  0  0  0  0  0  0  0
  151.2536  141.7456  155.1653 H   0  0  0  0  0  0  0  0  0  0  0  0
  150.3288  139.5670  156.9867 H   0  0  0  0  0  0  0  0  0  0  0  0
  152.6606  137.8890  161.0363 H   0  0  0  0  0  0  0  0  0  0  0  0
  152.2056  143.4340  156.1163 H   0  0  0  0  0  0  0  0  0  0  0  0
  152.9545  144.9838  157.6244 H   0  0  0  0  0  0  0  0  0  0  0  0
  152.6584  142.4967  159.2174 H   0  0  0  0  0  0  0  0  0  0  0  0
  153.9495  143.6839  159.2802 H   0  0  0  0  0  0  0  0  0  0  0  0
  152.1780  143.4534  161.3376 H   0  0  0  0  0  0  0  0  0  0  0  0
  152.7490  145.0413  160.8296 H   0  0  0  0  0  0  0  0  0  0  0  0
  150.1616  143.6814  160.0040 H   0  0  0  0  0  0  0  0  0  0  0  0
  150.3406  145.2981  160.6848 H   0  0  0  0  0  0  0  0  0  0  0  0
  151.2901  146.1408  158.6572 H   0  0  0  0  0  0  0  0  0  0  0  0
  150.1302  144.9997  158.0035 H   0  0  0  0  0  0  0  0  0  0  0  0
  1  2  1  0  0  0  0
  1 20  1  0  0  0  0
  1 21  1  0  0  0  0
  1 22  1  0  0  0  0
  2  3  1  0  0  0  0
  2 12  1  0  0  0  0
  2 23  1  0  0  0  0
  3  4  1  0  0  0  0
  3 24  1  0  0  0  0
  4  5  2  0  0  0  0
  4  6  1  0  0  0  0
  6  7  1  0  0  0  0
  7 11  1  0  0  0  0
  7  8  2  0  0  0  0
  8  9  1  0  0  0  0
  9 10  2  0  0  0  0
 10 11  1  0  0  0  0
 10 25  1  0  0  0  0
 12 13  2  0  0  0  0
 12 14  1  0  0  0  0
 14 15  1  0  0  0  0
 14 26  1  0  0  0  0
 15 19  1  0  0  0  0
 15 16  1  0  0  0  0
 15 27  1  0  0  0  0
 16 17  1  0  0  0  0
 16 28  1  0  0  0  0
 16 29  1  0  0  0  0
 17 18  1  0  0  0  0
 17 30  1  0  0  0  0
 17 31  1  0  0  0  0
 18 19  1  0  0  0  0
 18 32  1  0  0  0  0
 18 33  1  0  0  0  0
 19 34  1  0  0  0  0
 19 35  1  0  0  0  0
M  CHG  1   6  -1
M  END
> <s_m_source_file>
AV-unprocessed.smi

> <i_m_source_file_index>
813

> <i_lp_mmshare_version>
43012

> <i_f3d_flags>
0

> <s_epik_input>
W0NIMl0xW0NIMl1bQ0gyXVtDSDJdW0NIXTFbTkhdQyg9TylbQ0BIXShbQ0gzXSlbTkhdQyg9TylbTkhdYzJubltjSF1zMg==

> <s_epik_cmdline>
J2VwaWtfcHl0aG9uJywgJy1waCcsICc3LjAnLCAnLXRuJywgJzgnLCAnLW1hJywgJzIwMCcsICctbWV0YWxfYmluZGluZycsICctaW1hZScsICc8aW5maWxlLm1hZT4nLCAnLW9tYWUnLCAnPG91dGZpbGUubWFlPic=

> <r_lp_tautomer_probability>
1

> <r_epik_Ionization_Penalty>
3.13682

> <r_epik_Ionization_Penalty_Charging>
3.09647

> <r_epik_Ionization_Penalty_Neutral>
0.0403479

> <r_epik_State_Penalty>
3.09328

> <r_epik_Charging_Adjusted_Penalty>
6.18976

> <i_epik_Tot_Q>
-1

> <i_epik_Tot_abs_Q>
1

> <r_epik_Metal_State_Penalty>
0.461392

> <b_epik_Metal_Only>
1

> <s_lp_Force_Field>
OPLS_2005

> <r_lp_Energy>
16.0843

> <b_lp_Chiralities_Consistent>
1

> <s_lp_Variant>
AV-unprocessed.smi:813-3

> <Gold.Version>
5.8.1

> <Gold.Id.Protein>
6NUR|6NUR_protein|mol2

> <Gold.PLP.Fitness>
41.7773

> <Gold.PLP.PLP>
-35.4691

> <Gold.PLP.part.hbond>
-3.3960

> <Gold.PLP.part.metal>
0.0000

> <Gold.PLP.part.buried>
-3.4342

> <Gold.PLP.part.nonpolar>
-29.4351

> <Gold.PLP.part.repulsive>
0.2065

> <Gold.PLP.ligand.clash>
0.0000

> <Gold.PLP.ligand.torsion>
0.7301

> <Gold.PLP.Chemscore.Hbond>
2.5234

> <Gold.PLP.Chemscore.CHOScore>
0.0000

> <Gold.PLP.Chemscore.Metal>
0.0000

> <Gold.Chemscore.Hbonds>
donor molecule, donor type, donor heavy atom, donor atom, acceptor molecule, acceptor atom, score
      P1  H  6896  6909       L1     9  1.00
      P1  H  7989  7998       L1     5  0.37
      P1  H  7997  8008       L1     5  1.00

> <Gold.PLP.Chemscore.Internal.Correction>
0.1983

> <Gold.Rescore>
     Score         DG    S(hbond)    S(metal)    S(lipo)     H(rot)  DE(clash)    DE(int)     intcor
     13.50     -17.65       2.06        0.00      82.92       1.72       0.95       3.20       ----

> <Gold.Chemscore.Fitness>
13.4961

> <Gold.Chemscore.DG>
-17.6499

> <Gold.Chemscore.ZeroCoef>
-5.4800

> <Gold.Chemscore.Hbond>
2.0567

> <Gold.Chemscore.Metal>
0.0000

> <Gold.Chemscore.Lipo>
82.9240

> <Gold.Chemscore.Internal_Hbond>
0.0000

> <Gold.Chemscore.DEClash>
0.9528

> <Gold.Chemscore.DEInternal>
3.2009

> <Gold.Chemscore.Rot>
1.7194

> <Gold.Chemscore.Internal.Correction>
   9.000000E+99

> <Gold.Chemscore.Hbonds>
donor molecule, donor type, donor heavy atom, donor atom, acceptor molecule, acceptor atom, score
      P1  H  6896  6909       L1     9  0.63
      P1  H  7989  7998       L1     5  0.28
      P1  H  7997  8008       L1     5  0.81

> <Gold.Chemscore.Hbond.Weighted>
-6.8694

> <Gold.Chemscore.Metal.Weighted>
-0.0000

> <Gold.Chemscore.Lipo.Weighted>
-9.7021

> <Gold.Chemscore.Internal_Hbond.Weighted>
0.0000

> <Gold.Chemscore.DEClash.Weighted>
0.9528

> <Gold.Chemscore.DEInternal.Weighted>
3.2009

> <Gold.Chemscore.Rot.Weighted>
4.4016

> <Gold.Chemscore.Internal.Correction.Weighted>
   9.000000E+99

> <Gold.Protein.RotatedTorsions>
[ 6907 6896 6895 6894 ] final  140.95 input  -60.11 | X-H torsion
[ 7974 7965 7964 7962 ] final  170.43 input  175.53 | X-H torsion
[ 8008 7997 7996 7995 ] final  -13.91 input   59.86 | X-H torsion
[ 10167 10162 10161 10158 ] final  166.57 input  -65.29 | X-H torsion
[ 10718 10713 10712 10709 ] final -125.84 input   66.30 | X-H torsion
[ 10763 10752 10751 10750 ] final -166.92 input  -60.55 | X-H torsion
[ 11005 11000 10999 10996 ] final  -35.24 input  -57.11 | X-H torsion

> <Gold.Protein.ActiveResidues>
 VAL166  LYS551  ARG553  GLY616  TRP617  ASP618  TYR619  PRO620  LYS621  CYS622 
 ASP623  PHE694  ASN695  SER759  ASP760  ASP761  ALA762  ILE779  LEU786  VAL792 
 PHE793  MET794  SER795  GLU796  ALA797  LYS798  CYS799  TRP800  GLU811  SER814 

> <Gold.Protein.RotatedAtoms>
  152.2369  133.5103  159.5247 H   0  0  0  0  0  0  0  0  0  0  0  0  # atno 6907 bound_to 6896
  150.7053  134.1142  159.4020 H   0  0  0  0  0  0  0  0  0  0  0  0  # atno 6908 bound_to 6896
  151.9063  135.0357  160.0561 H   0  0  0  0  0  0  0  0  0  0  0  0  # atno 6909 bound_to 6896
  144.7324  139.9201  143.6419 H   0  0  0  0  0  0  0  0  0  0  0  0  # atno 7974 bound_to 7965
  154.5253  140.2237  155.8900 H   0  0  0  0  0  0  0  0  0  0  0  0  # atno 8008 bound_to 7997
  156.1707  140.3122  155.8933 H   0  0  0  0  0  0  0  0  0  0  0  0  # atno 8009 bound_to 7997
  155.3564  140.0458  157.3037 H   0  0  0  0  0  0  0  0  0  0  0  0  # atno 8010 bound_to 7997
  139.4927  144.4013  151.9406 H   0  0  0  0  0  0  0  0  0  0  0  0  # atno 10167 bound_to 10162
  156.1711  130.6668  151.0181 H   0  0  0  0  0  0  0  0  0  0  0  0  # atno 10718 bound_to 10713
  154.6784  135.2950  154.9646 H   0  0  0  0  0  0  0  0  0  0  0  0  # atno 10763 bound_to 10752
  154.0650  135.6626  153.4820 H   0  0  0  0  0  0  0  0  0  0  0  0  # atno 10764 bound_to 10752
  153.0531  135.5161  154.7815 H   0  0  0  0  0  0  0  0  0  0  0  0  # atno 10765 bound_to 10752
  140.9780  133.7072  156.1635 H   0  0  0  0  0  0  0  0  0  0  0  0  # atno 11005 bound_to 11000
  146.0936  139.3927  143.0390 LP  0  0  0  0  0  0  0  0  0  0  0  0  # atno 17320 bound_to 7965
  145.7677  140.9909  143.1166 LP  0  0  0  0  0  0  0  0  0  0  0  0  # atno 17321 bound_to 7965
  140.3452  144.3155  150.5959 LP  0  0  0  0  0  0  0  0  0  0  0  0  # atno 17342 bound_to 10162
  140.5532  143.2203  151.7892 LP  0  0  0  0  0  0  0  0  0  0  0  0  # atno 17343 bound_to 10162
  157.6803  131.0839  150.7386 LP  0  0  0  0  0  0  0  0  0  0  0  0  # atno 17370 bound_to 10713
  156.7445  130.4749  149.5470 LP  0  0  0  0  0  0  0  0  0  0  0  0  # atno 17371 bound_to 10713
  140.7229  134.4338  157.5573 LP  0  0  0  0  0  0  0  0  0  0  0  0  # atno 17394 bound_to 11000
  139.8938  134.8721  156.2204 LP  0  0  0  0  0  0  0  0  0  0  0  0  # atno 17395 bound_to 11000

$$$$
