AV-unprocessed.smi:3187|AV-procd|sdf|12176|dock9
  -GOLD-   2272018 13D 1   1.00000     0.00000
 Structure written by MMmdl.
 41 42  0  0  0  0  0  0  0  0  2 V2000
  147.7113  132.7357  152.9143 C   0  0  0  0  0  0  0  0  0  0  0  0
  146.4959  132.7694  152.0020 C   0  0  0  0  0  0  0  0  0  0  0  0
  145.8110  131.6352  151.7605 C   0  0  0  0  0  0  0  0  0  0  0  0
  144.6385  131.5333  150.8129 C   0  0  0  0  0  0  0  0  0  0  0  0
  144.6439  132.6877  149.8084 C   0  0  0  0  0  0  0  0  0  0  0  0
  144.8065  134.0446  150.5132 C   0  0  2  0  0  0  0  0  0  0  0  0
  144.7147  135.1763  149.4712 C   0  0  0  0  0  0  0  0  0  0  0  0
  146.1127  134.1207  151.3635 C   0  0  1  0  0  0  0  0  0  0  0  0
  146.0029  135.2678  152.4031 C   0  0  0  0  0  0  0  0  0  0  0  0
  146.5069  136.5582  151.8913 N   0  3  0  0  0  0  0  0  0  0  0  0
  146.3302  137.6907  152.8224 C   0  0  0  0  0  0  0  0  0  0  0  0
  147.2802  138.8508  152.4862 C   0  0  0  0  0  0  0  0  0  0  0  0
  147.4224  139.7786  153.5922 N   0  0  0  0  0  0  0  0  0  0  0  0
  148.3149  140.8385  153.6863 C   0  0  0  0  0  0  0  0  0  0  0  0
  148.0936  141.4312  154.9090 C   0  0  0  0  0  0  0  0  0  0  0  0
  147.0749  140.7571  155.5787 N   0  0  0  0  0  0  0  0  0  0  0  0
  146.7230  139.7955  154.7356 C   0  0  0  0  0  0  0  0  0  0  0  0
  148.5653  133.2110  152.4315 H   0  0  0  0  0  0  0  0  0  0  0  0
  147.9972  131.7110  153.1547 H   0  0  0  0  0  0  0  0  0  0  0  0
  147.5060  133.2439  153.8562 H   0  0  0  0  0  0  0  0  0  0  0  0
  146.1014  130.7152  152.2472 H   0  0  0  0  0  0  0  0  0  0  0  0
  144.6896  130.5825  150.2814 H   0  0  0  0  0  0  0  0  0  0  0  0
  143.7163  131.5270  151.3949 H   0  0  0  0  0  0  0  0  0  0  0  0
  145.4587  132.5463  149.0966 H   0  0  0  0  0  0  0  0  0  0  0  0
  143.7209  132.6656  149.2278 H   0  0  0  0  0  0  0  0  0  0  0  0
  143.9569  134.1497  151.1902 H   0  0  0  0  0  0  0  0  0  0  0  0
  145.5454  135.1324  148.7660 H   0  0  0  0  0  0  0  0  0  0  0  0
  144.7205  136.1650  149.9270 H   0  0  0  0  0  0  0  0  0  0  0  0
  143.7922  135.1009  148.8947 H   0  0  0  0  0  0  0  0  0  0  0  0
  146.9285  134.3575  150.6784 H   0  0  0  0  0  0  0  0  0  0  0  0
  144.9681  135.4289  152.7009 H   0  0  0  0  0  0  0  0  0  0  0  0
  146.5437  134.9963  153.3109 H   0  0  0  0  0  0  0  0  0  0  0  0
  147.4921  136.4579  151.6917 H   0  0  0  0  0  0  0  0  0  0  0  0
  145.2939  138.0303  152.7932 H   0  0  0  0  0  0  0  0  0  0  0  0
  146.5245  137.3456  153.8385 H   0  0  0  0  0  0  0  0  0  0  0  0
  148.2693  138.4627  152.2400 H   0  0  0  0  0  0  0  0  0  0  0  0
  146.9283  139.3939  151.6076 H   0  0  0  0  0  0  0  0  0  0  0  0
  149.0151  141.0771  152.8990 H   0  0  0  0  0  0  0  0  0  0  0  0
  148.5849  142.2840  155.3542 H   0  0  0  0  0  0  0  0  0  0  0  0
  145.9427  139.0824  154.9589 H   0  0  0  0  0  0  0  0  0  0  0  0
  146.0233  136.7717  151.0304 H   0  0  0  0  0  0  0  0  0  0  0  0
  1  2  1  0  0  0  0
  1 18  1  0  0  0  0
  1 19  1  0  0  0  0
  1 20  1  0  0  0  0
  2  8  1  0  0  0  0
  2  3  2  0  0  0  0
  3  4  1  0  0  0  0
  3 21  1  0  0  0  0
  4  5  1  0  0  0  0
  4 22  1  0  0  0  0
  4 23  1  0  0  0  0
  5  6  1  0  0  0  0
  5 24  1  0  0  0  0
  5 25  1  0  0  0  0
  6  7  1  0  0  0  0
  6  8  1  0  0  0  0
  6 26  1  0  0  0  0
  7 27  1  0  0  0  0
  7 28  1  0  0  0  0
  7 29  1  0  0  0  0
  8  9  1  0  0  0  0
  8 30  1  0  0  0  0
  9 10  1  0  0  0  0
  9 31  1  0  0  0  0
  9 32  1  0  0  0  0
 10 11  1  0  0  0  0
 10 33  1  0  0  0  0
 10 41  1  0  0  0  0
 11 12  1  0  0  0  0
 11 34  1  0  0  0  0
 11 35  1  0  0  0  0
 12 13  1  0  0  0  0
 12 36  1  0  0  0  0
 12 37  1  0  0  0  0
 13 17  1  0  0  0  0
 13 14  1  0  0  0  0
 14 15  2  0  0  0  0
 14 38  1  0  0  0  0
 15 16  1  0  0  0  0
 15 39  1  0  0  0  0
 16 17  2  0  0  0  0
 17 40  1  0  0  0  0
M  CHG  1  10   1
M  END
> <s_m_source_file>
AV-unprocessed.smi

> <i_m_source_file_index>
3187

> <i_lp_mmshare_version>
43012

> <i_f3d_flags>
0

> <s_epik_input>
W0NIM11DMT1bQ0hdW0NIMl1bQ0gyXVtDQEBIXShbQ0gzXSlbQ0BIXTFbQ0gyXVtOSF1bQ0gyXVtDSDJdbjJbY0hdW2NIXW5bY0hdMg==

> <s_epik_cmdline>
J2VwaWtfcHl0aG9uJywgJy1waCcsICc3LjAnLCAnLXRuJywgJzgnLCAnLW1hJywgJzIwMCcsICctbWV0YWxfYmluZGluZycsICctaW1hZScsICc8aW5maWxlLm1hZT4nLCAnLW9tYWUnLCAnPG91dGZpbGUubWFlPic=

> <r_lp_tautomer_probability>
1

> <r_epik_Ionization_Penalty>
0.0501625

> <r_epik_Ionization_Penalty_Charging>
0.0501625

> <r_epik_Ionization_Penalty_Neutral>
0

> <r_epik_State_Penalty>
0.0972392

> <r_epik_Charging_Adjusted_Penalty>
0.147402

> <i_epik_Tot_Q>
1

> <i_epik_Tot_abs_Q>
1

> <r_epik_Metal_State_Penalty>
0.000104376

> <b_epik_Metal_Only>
0

> <s_lp_Force_Field>
OPLS_2005

> <r_lp_Energy>
17.5131

> <b_lp_Chiralities_Consistent>
1

> <s_lp_Variant>
AV-unprocessed.smi:3187-2

> <Gold.Version>
5.8.1

> <Gold.Id.Protein>
6NUR|6NUR_protein|mol2

> <Gold.PLP.Fitness>
44.4765

> <Gold.PLP.PLP>
-33.8187

> <Gold.PLP.part.hbond>
-1.0000

> <Gold.PLP.part.metal>
0.0000

> <Gold.PLP.part.buried>
-0.2224

> <Gold.PLP.part.nonpolar>
-32.5752

> <Gold.PLP.part.repulsive>
0.1242

> <Gold.PLP.ligand.clash>
0.0000

> <Gold.PLP.ligand.torsion>
0.6937

> <Gold.PLP.Chemscore.Hbond>
2.0000

> <Gold.PLP.Chemscore.CHOScore>
1.9889

> <Gold.PLP.Chemscore.Metal>
0.0000

> <Gold.Chemscore.Hbonds>
donor molecule, donor type, donor heavy atom, donor atom, acceptor molecule, acceptor atom, score
      L1  H    10    33       P1  7948  1.62
      L1  C    14    38       P1  7957  1.00
      L1  C    15    39       P1  8028  1.00

> <Gold.PLP.Chemscore.Internal.Correction>
0.0783

> <Gold.Rescore>
     Score         DG    S(hbond)    S(metal)    S(lipo)     H(rot)  DE(clash)    DE(int)     intcor
     12.94     -15.04       1.00        0.00      94.49       1.89       1.39       0.71       ----

> <Gold.Chemscore.Fitness>
12.9368

> <Gold.Chemscore.DG>
-15.0384

> <Gold.Chemscore.ZeroCoef>
-5.4800

> <Gold.Chemscore.Hbond>
0.9967

> <Gold.Chemscore.Metal>
0.0000

> <Gold.Chemscore.Lipo>
94.4933

> <Gold.Chemscore.Internal_Hbond>
0.0000

> <Gold.Chemscore.DEClash>
1.3891

> <Gold.Chemscore.DEInternal>
0.7125

> <Gold.Chemscore.Rot>
1.8853

> <Gold.Chemscore.Internal.Correction>
   9.000000E+99

> <Gold.Chemscore.Hbonds>
donor molecule, donor type, donor heavy atom, donor atom, acceptor molecule, acceptor atom, score
      L1  H    10    33       P1  7948  0.80

> <Gold.Chemscore.Hbond.Weighted>
-3.3289

> <Gold.Chemscore.Metal.Weighted>
-0.0000

> <Gold.Chemscore.Lipo.Weighted>
-11.0557

> <Gold.Chemscore.Internal_Hbond.Weighted>
0.0000

> <Gold.Chemscore.DEClash.Weighted>
1.3891

> <Gold.Chemscore.DEInternal.Weighted>
0.7125

> <Gold.Chemscore.Rot.Weighted>
4.8263

> <Gold.Chemscore.Internal.Correction.Weighted>
   9.000000E+99

> <Gold.Protein.RotatedTorsions>
[ 6907 6896 6895 6894 ] final -133.70 input  -60.11 | X-H torsion
[ 7974 7965 7964 7962 ] final  180.00 input  175.53 | X-H torsion
[ 8008 7997 7996 7995 ] final   44.25 input   59.86 | X-H torsion
[ 10167 10162 10161 10158 ] final   44.43 input  -65.29 | X-H torsion
[ 10718 10713 10712 10709 ] final -151.02 input   66.30 | X-H torsion
[ 10763 10752 10751 10750 ] final   31.27 input  -60.55 | X-H torsion
[ 11005 11000 10999 10996 ] final  127.08 input  -57.11 | X-H torsion

> <Gold.Protein.ActiveResidues>
 VAL166  LYS551  ARG553  GLY616  TRP617  ASP618  TYR619  PRO620  LYS621  CYS622 
 ASP623  PHE694  ASN695  SER759  ASP760  ASP761  ALA762  ILE779  LEU786  VAL792 
 PHE793  MET794  SER795  GLU796  ALA797  LYS798  CYS799  TRP800  GLU811  SER814 

> <Gold.Protein.RotatedAtoms>
  150.9771  133.6283  159.2728 H   0  0  0  0  0  0  0  0  0  0  0  0  # atno 6907 bound_to 6896
  151.3551  135.0891  159.9425 H   0  0  0  0  0  0  0  0  0  0  0  0  # atno 6908 bound_to 6896
  152.5203  133.9356  159.7656 H   0  0  0  0  0  0  0  0  0  0  0  0  # atno 6909 bound_to 6896
  144.7141  140.0632  143.6432 H   0  0  0  0  0  0  0  0  0  0  0  0  # atno 7974 bound_to 7965
  155.3161  140.3394  155.4242 H   0  0  0  0  0  0  0  0  0  0  0  0  # atno 8008 bound_to 7997
  156.1932  140.1705  156.8089 H   0  0  0  0  0  0  0  0  0  0  0  0  # atno 8009 bound_to 7997
  154.5467  140.0714  156.8583 H   0  0  0  0  0  0  0  0  0  0  0  0  # atno 8010 bound_to 7997
  140.3344  144.2549  150.6163 H   0  0  0  0  0  0  0  0  0  0  0  0  # atno 10167 bound_to 10162
  156.4538  130.8180  151.2411 H   0  0  0  0  0  0  0  0  0  0  0  0  # atno 10718 bound_to 10713
  153.0325  135.6443  154.1174 H   0  0  0  0  0  0  0  0  0  0  0  0  # atno 10763 bound_to 10752
  154.0894  135.2867  155.3276 H   0  0  0  0  0  0  0  0  0  0  0  0  # atno 10764 bound_to 10752
  154.6475  135.5438  153.7926 H   0  0  0  0  0  0  0  0  0  0  0  0  # atno 10765 bound_to 10752
  139.9489  134.9625  156.8802 H   0  0  0  0  0  0  0  0  0  0  0  0  # atno 11005 bound_to 11000
  145.9846  139.2967  143.1021 LP  0  0  0  0  0  0  0  0  0  0  0  0  # atno 17320 bound_to 7965
  145.8972  140.9266  143.0521 LP  0  0  0  0  0  0  0  0  0  0  0  0  # atno 17321 bound_to 7965
  140.5368  143.2231  151.8150 LP  0  0  0  0  0  0  0  0  0  0  0  0  # atno 17342 bound_to 10162
  139.4851  144.4651  151.9493 LP  0  0  0  0  0  0  0  0  0  0  0  0  # atno 17343 bound_to 10162
  157.7501  131.0129  150.3404 LP  0  0  0  0  0  0  0  0  0  0  0  0  # atno 17370 bound_to 10713
  156.3788  130.3877  149.7118 LP  0  0  0  0  0  0  0  0  0  0  0  0  # atno 17371 bound_to 10713
  140.5767  134.0391  155.7449 LP  0  0  0  0  0  0  0  0  0  0  0  0  # atno 17394 bound_to 11000
  141.1147  133.9560  157.2845 LP  0  0  0  0  0  0  0  0  0  0  0  0  # atno 17395 bound_to 11000

$$$$
