AV-unprocessed.smi:2999|AV-procd|sdf|11428|dock2
  -GOLD-   2272016353D 1   1.00000     0.00000
 Structure written by MMmdl.
 37 39  0  0  0  0  0  0  0  0  3 V2000
  150.3850  136.3557  158.7265 O   0  0  0  0  0  0  0  0  0  0  0  0
  149.1678  136.5397  158.6579 C   0  0  0  0  0  0  0  0  0  0  0  0
  148.4878  136.1081  157.5890 N   0  0  0  0  0  0  0  0  0  0  0  0
  149.0690  135.4199  156.4434 C   0  0  0  0  0  0  0  0  0  0  0  0
  149.2187  136.3695  155.2456 C   0  0  1  0  0  0  0  0  0  0  0  0
  147.8997  137.0790  154.8711 C   0  0  0  0  0  0  0  0  0  0  0  0
  148.1246  138.0334  153.7624 N   0  3  1  0  0  0  0  0  0  0  0  0
  146.8797  138.7081  153.3365 C   0  0  0  0  0  0  0  0  0  0  0  0
  146.0322  137.8803  152.3989 C   0  0  0  0  0  0  0  0  0  0  0  0
  146.8422  139.0401  151.8630 C   0  0  0  0  0  0  0  0  0  0  0  0
  149.1982  138.9914  154.1088 C   0  0  0  0  0  0  0  0  0  0  0  0
  150.4754  138.2354  154.5076 C   0  0  0  0  0  0  0  0  0  0  0  0
  150.1892  137.3547  155.5874 O   0  0  0  0  0  0  0  0  0  0  0  0
  148.3942  137.1581  159.5779 N   0  5  0  0  0  0  0  0  0  0  0  0
  147.5964  136.4339  160.3798 C   0  0  0  0  0  0  0  0  0  0  0  0
  146.8372  136.9786  161.3376 N   0  0  0  0  0  0  0  0  0  0  0  0
  146.0892  136.0416  162.0530 C   0  0  0  0  0  0  0  0  0  0  0  0
  146.2911  134.7525  161.6367 C   0  0  0  0  0  0  0  0  0  0  0  0
  147.4337  134.6761  160.3259 S   0  0  0  0  0  0  0  0  0  0  0  0
  147.4918  136.2718  157.5760 H   0  0  0  0  0  0  0  0  0  0  0  0
  150.0416  135.0038  156.7118 H   0  0  0  0  0  0  0  0  0  0  0  0
  148.4245  134.5813  156.1759 H   0  0  0  0  0  0  0  0  0  0  0  0
  149.5833  135.7976  154.3899 H   0  0  0  0  0  0  0  0  0  0  0  0
  147.1483  136.3487  154.5685 H   0  0  0  0  0  0  0  0  0  0  0  0
  147.4980  137.6106  155.7356 H   0  0  0  0  0  0  0  0  0  0  0  0
  146.4138  139.3706  154.0641 H   0  0  0  0  0  0  0  0  0  0  0  0
  146.3687  136.8752  152.1500 H   0  0  0  0  0  0  0  0  0  0  0  0
  144.9529  138.0092  152.4518 H   0  0  0  0  0  0  0  0  0  0  0  0
  146.2959  139.9319  151.5629 H   0  0  0  0  0  0  0  0  0  0  0  0
  147.7166  138.8050  151.2588 H   0  0  0  0  0  0  0  0  0  0  0  0
  149.4021  139.6424  153.2580 H   0  0  0  0  0  0  0  0  0  0  0  0
  148.8691  139.6297  154.9305 H   0  0  0  0  0  0  0  0  0  0  0  0
  150.8787  137.6759  153.6618 H   0  0  0  0  0  0  0  0  0  0  0  0
  151.2465  138.9395  154.8204 H   0  0  0  0  0  0  0  0  0  0  0  0
  145.4380  136.3814  162.8446 H   0  0  0  0  0  0  0  0  0  0  0  0
  145.8415  133.8486  162.0183 H   0  0  0  0  0  0  0  0  0  0  0  0
  148.4527  137.4942  152.9738 H   0  0  0  0  0  0  0  0  0  0  0  0
  1  2  2  0  0  0  0
  2  3  1  0  0  0  0
  2 14  1  0  0  0  0
  3  4  1  0  0  0  0
  3 20  1  0  0  0  0
  4  5  1  0  0  0  0
  4 21  1  0  0  0  0
  4 22  1  0  0  0  0
  5 13  1  0  0  0  0
  5  6  1  0  0  0  0
  5 23  1  0  0  0  0
  6  7  1  0  0  0  0
  6 24  1  0  0  0  0
  6 25  1  0  0  0  0
  7  8  1  0  0  0  0
  7 11  1  0  0  0  0
  7 37  1  0  0  0  0
  8 10  1  0  0  0  0
  8  9  1  0  0  0  0
  8 26  1  0  0  0  0
  9 10  1  0  0  0  0
  9 27  1  0  0  0  0
  9 28  1  0  0  0  0
 10 29  1  0  0  0  0
 10 30  1  0  0  0  0
 11 12  1  0  0  0  0
 11 31  1  0  0  0  0
 11 32  1  0  0  0  0
 12 13  1  0  0  0  0
 12 33  1  0  0  0  0
 12 34  1  0  0  0  0
 14 15  1  0  0  0  0
 15 19  1  0  0  0  0
 15 16  2  0  0  0  0
 16 17  1  0  0  0  0
 17 18  2  0  0  0  0
 17 35  1  0  0  0  0
 18 19  1  0  0  0  0
 18 36  1  0  0  0  0
M  CHG  1   7   1
M  CHG  1  14  -1
M  END
> <s_m_source_file>
AV-unprocessed.smi

> <i_m_source_file_index>
2999

> <i_lp_mmshare_version>
43012

> <i_f3d_flags>
0

> <s_epik_input>
czFbY0hdW2NIXW5jMVtOSF1DKD1PKVtOSF1bQ0gyXVtDQEBIXTJbQ0gyXU4oW0NIMl1bQ0gyXU8yKVtDSF0zW0NIMl1bQ0gyXTM=

> <s_epik_cmdline>
J2VwaWtfcHl0aG9uJywgJy1waCcsICc3LjAnLCAnLXRuJywgJzgnLCAnLW1hJywgJzIwMCcsICctbWV0YWxfYmluZGluZycsICctaW1hZScsICc8aW5maWxlLm1hZT4nLCAnLW9tYWUnLCAnPG91dGZpbGUubWFlPic=

> <r_lp_tautomer_probability>
0.999

> <r_epik_Ionization_Penalty>
7.79196

> <r_epik_Ionization_Penalty_Charging>
6.93299

> <r_epik_Ionization_Penalty_Neutral>
0.858963

> <r_epik_State_Penalty>
7.05108

> <r_epik_Charging_Adjusted_Penalty>
13.9841

> <i_epik_Tot_Q>
0

> <i_epik_Tot_abs_Q>
2

> <r_epik_Metal_State_Penalty>
3.05936

> <b_epik_Metal_Only>
1

> <s_lp_Force_Field>
OPLS_2005

> <r_lp_Energy>
14.293

> <b_lp_Chiralities_Consistent>
1

> <s_lp_Variant>
AV-unprocessed.smi:2999-12

> <Gold.Version>
5.8.1

> <Gold.Id.Protein>
6NUR|6NUR_protein|mol2

> <Gold.PLP.Fitness>
42.2116

> <Gold.PLP.PLP>
-31.2065

> <Gold.PLP.part.hbond>
-5.2753

> <Gold.PLP.part.metal>
0.0000

> <Gold.PLP.part.buried>
-2.0211

> <Gold.PLP.part.nonpolar>
-23.8527

> <Gold.PLP.part.repulsive>
0.1312

> <Gold.PLP.ligand.clash>
0.0000

> <Gold.PLP.ligand.torsion>
1.4720

> <Gold.PLP.Chemscore.Hbond>
4.1752

> <Gold.PLP.Chemscore.CHOScore>
0.0000

> <Gold.PLP.Chemscore.Metal>
0.0000

> <Gold.Chemscore.Hbonds>
donor molecule, donor type, donor heavy atom, donor atom, acceptor molecule, acceptor atom, score
      L1  H     7    37       P1  7948  2.00
      P1  H  6896  6908       L1     1  1.00
      P1  H  6934  6947       L1    16  0.81

> <Gold.PLP.Chemscore.Internal.Correction>
1.4236

> <Gold.Rescore>
     Score         DG    S(hbond)    S(metal)    S(lipo)     H(rot)  DE(clash)    DE(int)     intcor
     16.30     -17.78       2.69        0.00      62.39       1.55       0.07       1.42       ----

> <Gold.Chemscore.Fitness>
16.2979

> <Gold.Chemscore.DG>
-17.7814

> <Gold.Chemscore.ZeroCoef>
-5.4800

> <Gold.Chemscore.Hbond>
2.6859

> <Gold.Chemscore.Metal>
0.0000

> <Gold.Chemscore.Lipo>
62.3894

> <Gold.Chemscore.Internal_Hbond>
0.0000

> <Gold.Chemscore.DEClash>
0.0670

> <Gold.Chemscore.DEInternal>
1.4164

> <Gold.Chemscore.Rot>
1.5504

> <Gold.Chemscore.Internal.Correction>
   9.000000E+99

> <Gold.Chemscore.Hbonds>
donor molecule, donor type, donor heavy atom, donor atom, acceptor molecule, acceptor atom, score
      L1  H     7    37       P1  7948  1.00
      P1  H  6896  6908       L1     1  0.93
      P1  H  6934  6947       L1    16  0.20

> <Gold.Chemscore.Hbond.Weighted>
-8.9709

> <Gold.Chemscore.Metal.Weighted>
-0.0000

> <Gold.Chemscore.Lipo.Weighted>
-7.2996

> <Gold.Chemscore.Internal_Hbond.Weighted>
0.0000

> <Gold.Chemscore.DEClash.Weighted>
0.0670

> <Gold.Chemscore.DEInternal.Weighted>
1.4164

> <Gold.Chemscore.Rot.Weighted>
3.9690

> <Gold.Chemscore.Internal.Correction.Weighted>
   9.000000E+99

> <Gold.Protein.RotatedTorsions>
[ 6907 6896 6895 6894 ] final -151.98 input  -60.11 | X-H torsion
[ 7974 7965 7964 7962 ] final  -16.51 input  175.53 | X-H torsion
[ 8008 7997 7996 7995 ] final  -78.10 input   59.86 | X-H torsion
[ 10167 10162 10161 10158 ] final  124.34 input  -65.29 | X-H torsion
[ 10718 10713 10712 10709 ] final   40.01 input   66.30 | X-H torsion
[ 10763 10752 10751 10750 ] final  -84.56 input  -60.55 | X-H torsion
[ 11005 11000 10999 10996 ] final   59.29 input  -57.11 | X-H torsion

> <Gold.Protein.ActiveResidues>
 VAL166  LYS551  ARG553  GLY616  TRP617  ASP618  TYR619  PRO620  LYS621  CYS622 
 ASP623  PHE694  ASN695  SER759  ASP760  ASP761  ALA762  ILE779  LEU786  VAL792 
 PHE793  MET794  SER795  GLU796  ALA797  LYS798  CYS799  TRP800  GLU811  SER814 

> <Gold.Protein.RotatedAtoms>
  151.2210  133.4502  159.2600 H   0  0  0  0  0  0  0  0  0  0  0  0  # atno 6907 bound_to 6896
  151.0885  134.9902  159.8401 H   0  0  0  0  0  0  0  0  0  0  0  0  # atno 6908 bound_to 6896
  152.5432  134.2145  159.8816 H   0  0  0  0  0  0  0  0  0  0  0  0  # atno 6909 bound_to 6896
  146.1984  140.3647  142.8432 H   0  0  0  0  0  0  0  0  0  0  0  0  # atno 7974 bound_to 7965
  154.5658  140.0699  156.8889 H   0  0  0  0  0  0  0  0  0  0  0  0  # atno 8008 bound_to 7997
  155.2726  140.3366  155.4246 H   0  0  0  0  0  0  0  0  0  0  0  0  # atno 8009 bound_to 7997
  156.2079  140.1747  156.7745 H   0  0  0  0  0  0  0  0  0  0  0  0  # atno 8010 bound_to 7997
  139.5747  144.6957  151.3685 H   0  0  0  0  0  0  0  0  0  0  0  0  # atno 10167 bound_to 10162
  157.3772  130.7733  149.7164 H   0  0  0  0  0  0  0  0  0  0  0  0  # atno 10718 bound_to 10713
  154.6009  135.5516  153.7373 H   0  0  0  0  0  0  0  0  0  0  0  0  # atno 10763 bound_to 10752
  153.0154  135.6366  154.1715 H   0  0  0  0  0  0  0  0  0  0  0  0  # atno 10764 bound_to 10752
  154.1655  135.2895  155.3076 H   0  0  0  0  0  0  0  0  0  0  0  0  # atno 10765 bound_to 10752
  140.0315  134.6006  155.9501 H   0  0  0  0  0  0  0  0  0  0  0  0  # atno 11005 bound_to 11000
  144.8630  140.7166  143.6095 LP  0  0  0  0  0  0  0  0  0  0  0  0  # atno 17320 bound_to 7965
  145.3567  139.1692  143.4405 LP  0  0  0  0  0  0  0  0  0  0  0  0  # atno 17321 bound_to 7965
  140.7030  143.7584  150.7435 LP  0  0  0  0  0  0  0  0  0  0  0  0  # atno 17342 bound_to 10162
  140.1100  143.4708  152.2375 LP  0  0  0  0  0  0  0  0  0  0  0  0  # atno 17343 bound_to 10162
  155.9768  130.4071  150.3756 LP  0  0  0  0  0  0  0  0  0  0  0  0  # atno 17370 bound_to 10713
  157.1855  131.0402  151.2727 LP  0  0  0  0  0  0  0  0  0  0  0  0  # atno 17371 bound_to 10713
  141.1833  133.6550  156.5112 LP  0  0  0  0  0  0  0  0  0  0  0  0  # atno 17394 bound_to 11000
  140.4218  134.7180  157.4894 LP  0  0  0  0  0  0  0  0  0  0  0  0  # atno 17395 bound_to 11000

$$$$
