AV-unprocessed.smi:281|AV-procd|sdf|2107|dock3
  -GOLD-   2262021403D 1   1.00000     0.00000
 Structure written by MMmdl.
 55 59  0  0  0  0  0  0  0  0  1 V2000
  147.9420  142.0891  154.0880 C   0  0  0  0  0  0  0  0  0  0  0  0
  148.6474  140.7717  154.4246 C   0  0  2  0  0  0  0  0  0  0  0  0
  147.6473  139.6336  154.6892 C   0  0  0  0  0  0  0  0  0  0  0  0
  148.3626  138.4347  155.1048 N   0  0  0  0  0  0  0  0  0  0  0  0
  147.6665  137.2730  155.0301 C   0  0  0  0  0  0  0  0  0  0  0  0
  147.7969  136.3403  156.0111 N   0  0  0  0  0  0  0  0  0  0  0  0
  147.1196  135.1906  155.9433 C   0  0  0  0  0  0  0  0  0  0  0  0
  146.2761  134.7736  154.9974 N   0  0  0  0  0  0  0  0  0  0  0  0
  146.1439  135.7024  154.0075 C   0  0  0  0  0  0  0  0  0  0  0  0
  146.7973  136.9658  153.9454 C   0  0  0  0  0  0  0  0  0  0  0  0
  146.4343  137.6278  152.7783 N   0  0  0  0  0  0  0  0  0  0  0  0
  145.6094  136.8065  152.1886 C   0  0  0  0  0  0  0  0  0  0  0  0
  145.3717  135.6286  152.8608 N   0  0  0  0  0  0  0  0  0  0  0  0
  144.5103  134.5364  152.4331 C   0  0  0  0  0  0  0  0  0  0  0  0
  144.8551  133.9813  151.0307 C   0  0  2  0  0  0  0  0  0  0  0  0
  144.5162  134.9472  150.0507 O   0  0  0  0  0  0  0  0  0  0  0  0
  144.1083  132.6923  150.7104 C   0  0  0  0  0  0  0  0  0  0  0  0
  145.0621  131.9739  149.7662 C   0  0  0  0  0  0  0  0  0  0  0  0
  146.3316  132.2495  150.3323 O   0  0  0  0  0  0  0  0  0  0  0  0
  146.3331  133.5825  150.8350 C   0  0  0  0  0  0  0  0  0  0  0  0
  149.2409  138.6479  156.2514 C   0  0  0  0  0  0  0  0  0  0  0  0
  150.2018  139.8399  156.0038 C   0  0  1  0  0  0  0  0  0  0  0  0
  150.9053  140.2306  157.2972 C   0  0  0  0  0  0  0  0  0  0  0  0
  152.1623  139.3772  157.2712 C   0  0  0  0  0  0  0  0  0  0  0  0
  152.5671  139.4354  155.9147 O   0  0  0  0  0  0  0  0  0  0  0  0
  151.4216  139.5672  155.0747 C   0  0  1  0  0  0  0  0  0  0  0  0
  151.3506  138.3517  154.1342 C   0  0  0  0  0  0  0  0  0  0  0  0
  149.4430  140.9801  155.5902 O   0  0  0  0  0  0  0  0  0  0  0  0
  147.3262  141.9866  153.1943 H   0  0  0  0  0  0  0  0  0  0  0  0
  148.6669  142.8821  153.9031 H   0  0  0  0  0  0  0  0  0  0  0  0
  147.2963  142.4114  154.9055 H   0  0  0  0  0  0  0  0  0  0  0  0
  149.2911  140.5054  153.5857 H   0  0  0  0  0  0  0  0  0  0  0  0
  146.9523  139.9189  155.4800 H   0  0  0  0  0  0  0  0  0  0  0  0
  147.0514  139.4552  153.7947 H   0  0  0  0  0  0  0  0  0  0  0  0
  147.2778  134.5061  156.7636 H   0  0  0  0  0  0  0  0  0  0  0  0
  145.1533  137.0392  151.2375 H   0  0  0  0  0  0  0  0  0  0  0  0
  144.5761  133.7423  153.1780 H   0  0  0  0  0  0  0  0  0  0  0  0
  143.4776  134.8874  152.4536 H   0  0  0  0  0  0  0  0  0  0  0  0
  145.2331  135.0185  149.4392 H   0  0  0  0  0  0  0  0  0  0  0  0
  143.9851  132.0920  151.6126 H   0  0  0  0  0  0  0  0  0  0  0  0
  143.1182  132.8524  150.2815 H   0  0  0  0  0  0  0  0  0  0  0  0
  144.8717  130.9021  149.7066 H   0  0  0  0  0  0  0  0  0  0  0  0
  145.0087  132.3924  148.7599 H   0  0  0  0  0  0  0  0  0  0  0  0
  146.8517  134.2445  150.1397 H   0  0  0  0  0  0  0  0  0  0  0  0
  146.8923  133.5879  151.7701 H   0  0  0  0  0  0  0  0  0  0  0  0
  148.6139  138.8557  157.1200 H   0  0  0  0  0  0  0  0  0  0  0  0
  149.8053  137.7429  156.4792 H   0  0  0  0  0  0  0  0  0  0  0  0
  151.1904  141.2837  157.2690 H   0  0  0  0  0  0  0  0  0  0  0  0
  150.3019  140.0757  158.1923 H   0  0  0  0  0  0  0  0  0  0  0  0
  152.9405  139.7475  157.9386 H   0  0  0  0  0  0  0  0  0  0  0  0
  151.9397  138.3439  157.5410 H   0  0  0  0  0  0  0  0  0  0  0  0
  151.6044  140.4551  154.4682 H   0  0  0  0  0  0  0  0  0  0  0  0
  150.5202  138.4319  153.4334 H   0  0  0  0  0  0  0  0  0  0  0  0
  151.2414  137.4186  154.6865 H   0  0  0  0  0  0  0  0  0  0  0  0
  152.2636  138.2730  153.5437 H   0  0  0  0  0  0  0  0  0  0  0  0
  1  2  1  0  0  0  0
  1 29  1  0  0  0  0
  1 30  1  0  0  0  0
  1 31  1  0  0  0  0
  2 28  1  0  0  0  0
  2  3  1  0  0  0  0
  2 32  1  0  0  0  0
  3  4  1  0  0  0  0
  3 33  1  0  0  0  0
  3 34  1  0  0  0  0
  4  5  1  0  0  0  0
  4 21  1  0  0  0  0
  5 10  1  0  0  0  0
  5  6  2  0  0  0  0
  6  7  1  0  0  0  0
  7  8  2  0  0  0  0
  7 35  1  0  0  0  0
  8  9  1  0  0  0  0
  9 13  1  0  0  0  0
  9 10  2  0  0  0  0
 10 11  1  0  0  0  0
 11 12  2  0  0  0  0
 12 13  1  0  0  0  0
 12 36  1  0  0  0  0
 13 14  1  0  0  0  0
 14 15  1  0  0  0  0
 14 37  1  0  0  0  0
 14 38  1  0  0  0  0
 15 20  1  0  0  0  0
 15 16  1  0  0  0  0
 15 17  1  0  0  0  0
 16 39  1  0  0  0  0
 17 18  1  0  0  0  0
 17 40  1  0  0  0  0
 17 41  1  0  0  0  0
 18 19  1  0  0  0  0
 18 42  1  0  0  0  0
 18 43  1  0  0  0  0
 19 20  1  0  0  0  0
 20 44  1  0  0  0  0
 20 45  1  0  0  0  0
 21 22  1  0  0  0  0
 21 46  1  0  0  0  0
 21 47  1  0  0  0  0
 22 26  1  0  0  0  0
 22 23  1  0  0  0  0
 22 28  1  0  0  0  0
 23 24  1  0  0  0  0
 23 48  1  0  0  0  0
 23 49  1  0  0  0  0
 24 25  1  0  0  0  0
 24 50  1  0  0  0  0
 24 51  1  0  0  0  0
 25 26  1  0  0  0  0
 26 27  1  0  0  0  0
 26 52  1  0  0  0  0
 27 53  1  0  0  0  0
 27 54  1  0  0  0  0
 27 55  1  0  0  0  0
M  END
> <s_m_source_file>
AV-unprocessed.smi

> <i_m_source_file_index>
281

> <i_lp_mmshare_version>
43012

> <i_f3d_flags>
0

> <s_epik_input>
W0NIM11bQ0BASF0xT1tDSDJdW0NIMl1bQ0BAXTEyW0NIMl1OKFtDSDJdW0NASF0oTzIpW0NIM10pYyhuW2NIXW4zKWMoYzM0KW5bY0hdbjRbQ0gyXVtDQEBdNShbT0hdKVtDSDJdW0NIMl1PW0NIMl01

> <s_epik_cmdline>
J2VwaWtfcHl0aG9uJywgJy1waCcsICc3LjAnLCAnLXRuJywgJzgnLCAnLW1hJywgJzIwMCcsICctbWV0YWxfYmluZGluZycsICctaW1hZScsICc8aW5maWxlLm1hZT4nLCAnLW9tYWUnLCAnPG91dGZpbGUubWFlPic=

> <r_lp_tautomer_probability>
1

> <r_epik_Ionization_Penalty>
0.00571331

> <r_epik_Ionization_Penalty_Charging>
0

> <r_epik_Ionization_Penalty_Neutral>
0.00571331

> <r_epik_State_Penalty>
0.00399586

> <r_epik_Charging_Adjusted_Penalty>
0.00399586

> <i_epik_Tot_Q>
0

> <i_epik_Tot_abs_Q>
0

> <r_epik_Metal_State_Penalty>
-0

> <b_epik_Metal_Only>
0

> <s_lp_Force_Field>
OPLS_2005

> <r_lp_Energy>
55.2886

> <b_lp_Chiralities_Consistent>
1

> <s_lp_Variant>
AV-unprocessed.smi:281-7

> <Gold.Version>
5.8.1

> <Gold.Id.Protein>
6NUR|6NUR_protein|mol2

> <Gold.PLP.Fitness>
42.6578

> <Gold.PLP.PLP>
-34.0600

> <Gold.PLP.part.hbond>
-1.9480

> <Gold.PLP.part.metal>
0.0000

> <Gold.PLP.part.buried>
-5.0312

> <Gold.PLP.part.nonpolar>
-28.0181

> <Gold.PLP.part.repulsive>
1.0521

> <Gold.PLP.ligand.clash>
0.0000

> <Gold.PLP.ligand.torsion>
0.3600

> <Gold.PLP.Chemscore.Hbond>
1.9750

> <Gold.PLP.Chemscore.CHOScore>
1.0000

> <Gold.PLP.Chemscore.Metal>
0.0000

> <Gold.Chemscore.Hbonds>
donor molecule, donor type, donor heavy atom, donor atom, acceptor molecule, acceptor atom, score
      L1  H    16    39       P1  7921  1.00
      P1  H  7997  8010       L1    25  0.60
      L1  C    12    36       P1 10171  1.00

> <Gold.PLP.Chemscore.Internal.Correction>
0.3928

> <Gold.Rescore>
     Score         DG    S(hbond)    S(metal)    S(lipo)     H(rot)  DE(clash)    DE(int)     intcor
     12.91     -15.70       1.73        0.00      83.85       2.09       1.38       1.41       ----

> <Gold.Chemscore.Fitness>
12.9102

> <Gold.Chemscore.DG>
-15.7017

> <Gold.Chemscore.ZeroCoef>
-5.4800

> <Gold.Chemscore.Hbond>
1.7272

> <Gold.Chemscore.Metal>
0.0000

> <Gold.Chemscore.Lipo>
83.8493

> <Gold.Chemscore.Internal_Hbond>
0.0000

> <Gold.Chemscore.DEClash>
1.3825

> <Gold.Chemscore.DEInternal>
1.4090

> <Gold.Chemscore.Rot>
2.0927

> <Gold.Chemscore.Internal.Correction>
   9.000000E+99

> <Gold.Chemscore.Hbonds>
donor molecule, donor type, donor heavy atom, donor atom, acceptor molecule, acceptor atom, score
      L1  H    16    39       P1  7921  0.92
      P1  H  7997  8010       L1    25  0.04

> <Gold.Chemscore.Hbond.Weighted>
-5.7687

> <Gold.Chemscore.Metal.Weighted>
-0.0000

> <Gold.Chemscore.Lipo.Weighted>
-9.8104

> <Gold.Chemscore.Internal_Hbond.Weighted>
0.0000

> <Gold.Chemscore.DEClash.Weighted>
1.3825

> <Gold.Chemscore.DEInternal.Weighted>
1.4090

> <Gold.Chemscore.Rot.Weighted>
5.3573

> <Gold.Chemscore.Internal.Correction.Weighted>
   9.000000E+99

> <Gold.Protein.RotatedTorsions>
[ 6907 6896 6895 6894 ] final   89.12 input  -60.11 | X-H torsion
[ 7974 7965 7964 7962 ] final -177.62 input  175.53 | X-H torsion
[ 8008 7997 7996 7995 ] final   73.38 input   59.86 | X-H torsion
[ 10167 10162 10161 10158 ] final  -97.07 input  -65.29 | X-H torsion
[ 10718 10713 10712 10709 ] final -166.41 input   66.30 | X-H torsion
[ 10763 10752 10751 10750 ] final   78.31 input  -60.55 | X-H torsion
[ 11005 11000 10999 10996 ] final  106.67 input  -57.11 | X-H torsion

> <Gold.Protein.ActiveResidues>
 VAL166  LYS551  ARG553  GLY616  TRP617  ASP618  TYR619  PRO620  LYS621  CYS622 
 ASP623  PHE694  ASN695  SER759  ASP760  ASP761  ALA762  ILE779  LEU786  VAL792 
 PHE793  MET794  SER795  GLU796  ALA797  LYS798  CYS799  TRP800  GLU811  SER814 

> <Gold.Protein.RotatedAtoms>
  152.5433  134.2015  159.8713 H   0  0  0  0  0  0  0  0  0  0  0  0  # atno 6907 bound_to 6896
  151.2004  133.4607  159.2603 H   0  0  0  0  0  0  0  0  0  0  0  0  # atno 6908 bound_to 6896
  151.0995  134.9976  159.8497 H   0  0  0  0  0  0  0  0  0  0  0  0  # atno 6909 bound_to 6896
  144.7128  140.0992  143.6417 H   0  0  0  0  0  0  0  0  0  0  0  0  # atno 7974 bound_to 7965
  155.7828  140.3481  155.5307 H   0  0  0  0  0  0  0  0  0  0  0  0  # atno 8008 bound_to 7997
  155.8711  140.0986  157.1570 H   0  0  0  0  0  0  0  0  0  0  0  0  # atno 8009 bound_to 7997
  154.4017  140.1340  156.4067 H   0  0  0  0  0  0  0  0  0  0  0  0  # atno 8010 bound_to 7997
  140.2873  143.3244  152.0381 H   0  0  0  0  0  0  0  0  0  0  0  0  # atno 10167 bound_to 10162
  156.6674  130.9070  151.3038 H   0  0  0  0  0  0  0  0  0  0  0  0  # atno 10718 bound_to 10713
  153.0864  135.4882  154.8605 H   0  0  0  0  0  0  0  0  0  0  0  0  # atno 10763 bound_to 10752
  154.7216  135.3040  154.9041 H   0  0  0  0  0  0  0  0  0  0  0  0  # atno 10764 bound_to 10752
  153.9703  135.6802  153.4800 H   0  0  0  0  0  0  0  0  0  0  0  0  # atno 10765 bound_to 10752
  139.8817  134.9376  156.5702 H   0  0  0  0  0  0  0  0  0  0  0  0  # atno 11005 bound_to 11000
  145.9552  139.2762  143.1188 LP  0  0  0  0  0  0  0  0  0  0  0  0  # atno 17320 bound_to 7965
  145.9280  140.9069  143.0371 LP  0  0  0  0  0  0  0  0  0  0  0  0  # atno 17321 bound_to 7965
  139.4947  144.6550  151.6593 LP  0  0  0  0  0  0  0  0  0  0  0  0  # atno 17342 bound_to 10162
  140.5762  144.0025  150.6243 LP  0  0  0  0  0  0  0  0  0  0  0  0  # atno 17343 bound_to 10162
  157.7089  130.9417  150.1022 LP  0  0  0  0  0  0  0  0  0  0  0  0  # atno 17370 bound_to 10713
  156.1964  130.3657  149.8843 LP  0  0  0  0  0  0  0  0  0  0  0  0  # atno 17371 bound_to 10713
  140.8104  133.8434  155.8805 LP  0  0  0  0  0  0  0  0  0  0  0  0  # atno 17394 bound_to 11000
  140.9511  134.1777  157.4727 LP  0  0  0  0  0  0  0  0  0  0  0  0  # atno 17395 bound_to 11000

$$$$
