AV-unprocessed.smi:1419|AV-procd|sdf|5779|dock1
  -GOLD-   22720 5423D 1   1.00000     0.00000
 Structure written by MMmdl.
 42 43  0  0  0  0  0  0  0  0  2 V2000
  150.5853  140.3853  155.3193 C   0  0  0  0  0  0  0  0  0  0  0  0
  149.8386  141.6155  155.8598 C   0  0  1  0  0  0  0  0  0  0  0  0
  148.5104  141.2565  156.5628 C   0  0  0  0  0  0  0  0  0  0  0  0
  147.3330  141.5205  155.7314 N   0  0  0  0  0  0  0  0  0  0  0  0
  146.4849  142.5958  155.8023 C   0  0  0  0  0  0  0  0  0  0  0  0
  145.5376  142.4106  154.8283 C   0  0  0  0  0  0  0  0  0  0  0  0
  145.8494  141.2330  154.2028 N   0  3  0  0  0  0  0  0  0  0  0  0
  146.9433  140.6947  154.7517 C   0  0  0  0  0  0  0  0  0  0  0  0
  150.7148  142.3413  156.7742 N   0  0  0  0  0  0  0  0  0  0  0  0
  151.1929  141.8703  157.9388 C   0  0  0  0  0  0  0  0  0  0  0  0
  150.9205  140.7407  158.3483 O   0  0  0  0  0  0  0  0  0  0  0  0
  151.9967  142.7306  158.6114 N   0  0  0  0  0  0  0  0  0  0  0  0
  152.8541  142.4252  159.7642 C   0  0  0  0  0  0  0  0  0  0  0  0
  152.2536  143.1108  161.0065 C   0  0  1  0  0  0  0  0  0  0  0  0
  153.1222  142.9078  162.2528 C   0  0  0  0  0  0  0  0  0  0  0  0
  152.1448  144.5169  160.7696 O   0  0  0  0  0  0  0  0  0  0  0  0
  151.4126  144.8962  159.5993 C   0  0  2  0  0  0  0  0  0  0  0  0
  149.8993  144.6884  159.7923 C   0  0  0  0  0  0  0  0  0  0  0  0
  151.9918  144.1743  158.3640 C   0  0  0  0  0  0  0  0  0  0  0  0
  150.0026  139.8644  154.5593 H   0  0  0  0  0  0  0  0  0  0  0  0
  150.8059  139.6741  156.1161 H   0  0  0  0  0  0  0  0  0  0  0  0
  151.5312  140.6725  154.8587 H   0  0  0  0  0  0  0  0  0  0  0  0
  149.6210  142.2645  155.0093 H   0  0  0  0  0  0  0  0  0  0  0  0
  148.4955  140.2006  156.8366 H   0  0  0  0  0  0  0  0  0  0  0  0
  148.3917  141.8231  157.4877 H   0  0  0  0  0  0  0  0  0  0  0  0
  146.6134  143.3901  156.5232 H   0  0  0  0  0  0  0  0  0  0  0  0
  144.6878  143.0128  154.5412 H   0  0  0  0  0  0  0  0  0  0  0  0
  147.4175  139.7733  154.4628 H   0  0  0  0  0  0  0  0  0  0  0  0
  150.9805  143.2771  156.5036 H   0  0  0  0  0  0  0  0  0  0  0  0
  152.9798  141.3588  159.9513 H   0  0  0  0  0  0  0  0  0  0  0  0
  153.8585  142.8067  159.5733 H   0  0  0  0  0  0  0  0  0  0  0  0
  151.2653  142.6970  161.2100 H   0  0  0  0  0  0  0  0  0  0  0  0
  153.2316  141.8488  162.4875 H   0  0  0  0  0  0  0  0  0  0  0  0
  152.6783  143.3962  163.1205 H   0  0  0  0  0  0  0  0  0  0  0  0
  154.1199  143.3242  162.1103 H   0  0  0  0  0  0  0  0  0  0  0  0
  151.5751  145.9665  159.4686 H   0  0  0  0  0  0  0  0  0  0  0  0
  149.3459  145.0632  158.9310 H   0  0  0  0  0  0  0  0  0  0  0  0
  149.5435  145.2256  160.6717 H   0  0  0  0  0  0  0  0  0  0  0  0
  149.6344  143.6387  159.9154 H   0  0  0  0  0  0  0  0  0  0  0  0
  153.0152  144.5076  158.1855 H   0  0  0  0  0  0  0  0  0  0  0  0
  151.4319  144.4526  157.4702 H   0  0  0  0  0  0  0  0  0  0  0  0
  145.3295  140.8265  153.4350 H   0  0  0  0  0  0  0  0  0  0  0  0
  1  2  1  0  0  0  0
  1 20  1  0  0  0  0
  1 21  1  0  0  0  0
  1 22  1  0  0  0  0
  2  3  1  0  0  0  0
  2  9  1  0  0  0  0
  2 23  1  0  0  0  0
  3  4  1  0  0  0  0
  3 24  1  0  0  0  0
  3 25  1  0  0  0  0
  4  8  1  0  0  0  0
  4  5  1  0  0  0  0
  5  6  2  0  0  0  0
  5 26  1  0  0  0  0
  6  7  1  0  0  0  0
  6 27  1  0  0  0  0
  7  8  2  0  0  0  0
  7 42  1  0  0  0  0
  8 28  1  0  0  0  0
  9 10  1  0  0  0  0
  9 29  1  0  0  0  0
 10 11  2  0  0  0  0
 10 12  1  0  0  0  0
 12 19  1  0  0  0  0
 12 13  1  0  0  0  0
 13 14  1  0  0  0  0
 13 30  1  0  0  0  0
 13 31  1  0  0  0  0
 14 15  1  0  0  0  0
 14 16  1  0  0  0  0
 14 32  1  0  0  0  0
 15 33  1  0  0  0  0
 15 34  1  0  0  0  0
 15 35  1  0  0  0  0
 16 17  1  0  0  0  0
 17 18  1  0  0  0  0
 17 19  1  0  0  0  0
 17 36  1  0  0  0  0
 18 37  1  0  0  0  0
 18 38  1  0  0  0  0
 18 39  1  0  0  0  0
 19 40  1  0  0  0  0
 19 41  1  0  0  0  0
M  CHG  1   7   1
M  END
> <s_m_source_file>
AV-unprocessed.smi

> <i_m_source_file_index>
1419

> <i_lp_mmshare_version>
43012

> <i_f3d_flags>
0

> <s_epik_input>
W2NIXTFuW2NIXVtjSF1uMVtDSDJdW0NAQEhdKFtDSDNdKVtOSF1DKD1PKU4yW0NIMl1bQ0BASF0oW0NIM10pT1tDQEBIXShbQ0gzXSlbQ0gyXTI=

> <s_epik_cmdline>
J2VwaWtfcHl0aG9uJywgJy1waCcsICc3LjAnLCAnLXRuJywgJzgnLCAnLW1hJywgJzIwMCcsICctbWV0YWxfYmluZGluZycsICctaW1hZScsICc8aW5maWxlLm1hZT4nLCAnLW9tYWUnLCAnPG91dGZpbGUubWFlPic=

> <r_lp_tautomer_probability>
1

> <r_epik_Ionization_Penalty>
0.253607

> <r_epik_Ionization_Penalty_Charging>
0

> <r_epik_Ionization_Penalty_Neutral>
0.253607

> <r_epik_State_Penalty>
0.245018

> <r_epik_Charging_Adjusted_Penalty>
0.245018

> <i_epik_Tot_Q>
1

> <i_epik_Tot_abs_Q>
1

> <r_epik_Metal_State_Penalty>
0.535379

> <b_epik_Metal_Only>
0

> <s_lp_Force_Field>
OPLS_2005

> <r_lp_Energy>
32.7532

> <b_lp_Chiralities_Consistent>
1

> <s_lp_Variant>
AV-unprocessed.smi:1419-6

> <Gold.Version>
5.8.1

> <Gold.Id.Protein>
6NUR|6NUR_protein|mol2

> <Gold.PLP.Fitness>
44.9798

> <Gold.PLP.PLP>
-41.2802

> <Gold.PLP.part.hbond>
-1.4285

> <Gold.PLP.part.metal>
0.0000

> <Gold.PLP.part.buried>
-4.6265

> <Gold.PLP.part.nonpolar>
-35.0633

> <Gold.PLP.part.repulsive>
0.1792

> <Gold.PLP.ligand.clash>
0.2935

> <Gold.PLP.ligand.torsion>
1.0092

> <Gold.PLP.Chemscore.Hbond>
1.9840

> <Gold.PLP.Chemscore.CHOScore>
0.0000

> <Gold.PLP.Chemscore.Metal>
0.0000

> <Gold.Chemscore.Hbonds>
donor molecule, donor type, donor heavy atom, donor atom, acceptor molecule, acceptor atom, score
      L1  H     7    42       P1 10175  2.00

> <Gold.PLP.Chemscore.Internal.Correction>
0.0593

> <Gold.Rescore>
     Score         DG    S(hbond)    S(metal)    S(lipo)     H(rot)  DE(clash)    DE(int)     intcor
     13.08     -15.31       0.98        0.00      91.74       1.63       0.07       2.16       ----

> <Gold.Chemscore.Fitness>
13.0838

> <Gold.Chemscore.DG>
-15.3139

> <Gold.Chemscore.ZeroCoef>
-5.4800

> <Gold.Chemscore.Hbond>
0.9779

> <Gold.Chemscore.Metal>
0.0000

> <Gold.Chemscore.Lipo>
91.7411

> <Gold.Chemscore.Internal_Hbond>
0.0000

> <Gold.Chemscore.DEClash>
0.0712

> <Gold.Chemscore.DEInternal>
2.1590

> <Gold.Chemscore.Rot>
1.6273

> <Gold.Chemscore.Internal.Correction>
   9.000000E+99

> <Gold.Chemscore.Hbonds>
donor molecule, donor type, donor heavy atom, donor atom, acceptor molecule, acceptor atom, score
      L1  H     7    42       P1 10175  0.75

> <Gold.Chemscore.Hbond.Weighted>
-3.2660

> <Gold.Chemscore.Metal.Weighted>
-0.0000

> <Gold.Chemscore.Lipo.Weighted>
-10.7337

> <Gold.Chemscore.Internal_Hbond.Weighted>
0.0000

> <Gold.Chemscore.DEClash.Weighted>
0.0712

> <Gold.Chemscore.DEInternal.Weighted>
2.1590

> <Gold.Chemscore.Rot.Weighted>
4.1658

> <Gold.Chemscore.Internal.Correction.Weighted>
   9.000000E+99

> <Gold.Protein.RotatedTorsions>
[ 6907 6896 6895 6894 ] final    6.28 input  -60.11 | X-H torsion
[ 7974 7965 7964 7962 ] final   73.86 input  175.53 | X-H torsion
[ 8008 7997 7996 7995 ] final  -28.75 input   59.86 | X-H torsion
[ 10167 10162 10161 10158 ] final -128.91 input  -65.29 | X-H torsion
[ 10718 10713 10712 10709 ] final   69.62 input   66.30 | X-H torsion
[ 10763 10752 10751 10750 ] final   25.08 input  -60.55 | X-H torsion
[ 11005 11000 10999 10996 ] final   42.29 input  -57.11 | X-H torsion

> <Gold.Protein.ActiveResidues>
 VAL166  LYS551  ARG553  GLY616  TRP617  ASP618  TYR619  PRO620  LYS621  CYS622 
 ASP623  PHE694  ASN695  SER759  ASP760  ASP761  ALA762  ILE779  LEU786  VAL792 
 PHE793  MET794  SER795  GLU796  ALA797  LYS798  CYS799  TRP800  GLU811  SER814 

> <Gold.Protein.RotatedAtoms>
  151.6711  135.0976  160.0197 H   0  0  0  0  0  0  0  0  0  0  0  0  # atno 6907 bound_to 6896
  152.3891  133.6648  159.6231 H   0  0  0  0  0  0  0  0  0  0  0  0  # atno 6908 bound_to 6896
  150.7810  133.8902  159.3352 H   0  0  0  0  0  0  0  0  0  0  0  0  # atno 6909 bound_to 6896
  145.7356  139.2700  143.1516 H   0  0  0  0  0  0  0  0  0  0  0  0  # atno 7974 bound_to 7965
  154.4319  140.1837  156.1139 H   0  0  0  0  0  0  0  0  0  0  0  0  # atno 8008 bound_to 7997
  156.0196  140.3342  155.6999 H   0  0  0  0  0  0  0  0  0  0  0  0  # atno 8009 bound_to 7997
  155.5995  140.0639  157.2727 H   0  0  0  0  0  0  0  0  0  0  0  0  # atno 8010 bound_to 7997
  139.9453  143.6116  152.2491 H   0  0  0  0  0  0  0  0  0  0  0  0  # atno 10167 bound_to 10162
  157.6356  130.9435  150.0539 H   0  0  0  0  0  0  0  0  0  0  0  0  # atno 10718 bound_to 10713
  153.0718  135.6591  154.0232 H   0  0  0  0  0  0  0  0  0  0  0  0  # atno 10763 bound_to 10752
  153.9875  135.2949  155.3416 H   0  0  0  0  0  0  0  0  0  0  0  0  # atno 10764 bound_to 10752
  154.7094  135.5211  153.8714 H   0  0  0  0  0  0  0  0  0  0  0  0  # atno 10765 bound_to 10752
  140.1753  134.4171  155.8232 H   0  0  0  0  0  0  0  0  0  0  0  0  # atno 11005 bound_to 11000
  146.0496  140.8082  142.9788 LP  0  0  0  0  0  0  0  0  0  0  0  0  # atno 17320 bound_to 7965
  144.6882  140.3033  143.7260 LP  0  0  0  0  0  0  0  0  0  0  0  0  # atno 17321 bound_to 7965
  139.6671  144.7662  151.1852 LP  0  0  0  0  0  0  0  0  0  0  0  0  # atno 17342 bound_to 10162
  140.7599  143.5921  150.8786 LP  0  0  0  0  0  0  0  0  0  0  0  0  # atno 17343 bound_to 10162
  156.1592  130.3643  149.9324 LP  0  0  0  0  0  0  0  0  0  0  0  0  # atno 17370 bound_to 10713
  156.7326  130.9049  151.3627 LP  0  0  0  0  0  0  0  0  0  0  0  0  # atno 17371 bound_to 10713
  141.2220  133.6975  156.7836 LP  0  0  0  0  0  0  0  0  0  0  0  0  # atno 17394 bound_to 11000
  140.2329  134.8672  157.3495 LP  0  0  0  0  0  0  0  0  0  0  0  0  # atno 17395 bound_to 11000

$$$$
