AV-unprocessed.smi:1032|AV-procd|sdf|4487|dock5
  -GOLD-   22720 2473D 1   1.00000     0.00000
 Structure written by MMmdl.
 47 48  0  0  0  0  0  0  0  0  3 V2000
  150.9898  144.3430  159.9470 C   0  0  0  0  0  0  0  0  0  0  0  0
  150.6570  143.2017  158.9762 C   0  0  2  0  0  0  0  0  0  0  0  0
  151.3644  143.3806  157.6227 C   0  0  0  0  0  0  0  0  0  0  0  0
  151.0009  142.2479  156.6478 C   0  0  0  0  0  0  0  0  0  0  0  0
  149.5307  142.1570  156.4544 N   0  3  1  0  0  0  0  0  0  0  0  0
  149.1571  141.1636  155.4145 C   0  0  0  0  0  0  0  0  0  0  0  0
  147.6412  141.1501  155.1301 C   0  0  1  0  0  0  0  0  0  0  0  0
  147.1758  142.4794  155.2619 O   0  0  0  0  0  0  0  0  0  0  0  0
  147.3357  140.6599  153.7005 C   0  0  0  0  0  0  0  0  0  0  0  0
  146.1478  139.8127  153.6623 N   0  0  0  0  0  0  0  0  0  0  0  0
  146.1225  138.5120  153.9858 C   0  0  0  0  0  0  0  0  0  0  0  0
  147.1081  137.8958  154.3898 O   0  0  0  0  0  0  0  0  0  0  0  0
  144.8933  137.9928  153.8229 N   0  0  0  0  0  0  0  0  0  0  0  0
  144.4614  136.6505  154.0084 C   0  0  0  0  0  0  0  0  0  0  0  0
  143.1121  136.3547  153.7123 C   0  0  0  0  0  0  0  0  0  0  0  0
  142.6388  135.0353  153.8627 C   0  0  0  0  0  0  0  0  0  0  0  0
  143.4779  134.0640  154.2812 N   0  3  0  0  0  0  0  0  0  0  0  0
  144.7777  134.2944  154.5643 C   0  0  0  0  0  0  0  0  0  0  0  0
  145.3083  135.5937  154.4308 C   0  0  0  0  0  0  0  0  0  0  0  0
  148.8235  141.9489  157.7460 C   0  0  0  0  0  0  0  0  0  0  0  0
  149.1425  143.0760  158.7420 C   0  0  0  0  0  0  0  0  0  0  0  0
  150.6596  145.3061  159.5565 H   0  0  0  0  0  0  0  0  0  0  0  0
  152.0636  144.4063  160.1251 H   0  0  0  0  0  0  0  0  0  0  0  0
  150.5054  144.1912  160.9120 H   0  0  0  0  0  0  0  0  0  0  0  0
  151.0103  142.2717  159.4246 H   0  0  0  0  0  0  0  0  0  0  0  0
  151.0876  144.3405  157.1839 H   0  0  0  0  0  0  0  0  0  0  0  0
  152.4452  143.4075  157.7666 H   0  0  0  0  0  0  0  0  0  0  0  0
  151.4879  142.4347  155.6898 H   0  0  0  0  0  0  0  0  0  0  0  0
  151.3808  141.2941  157.0174 H   0  0  0  0  0  0  0  0  0  0  0  0
  149.6825  141.3817  154.4830 H   0  0  0  0  0  0  0  0  0  0  0  0
  149.4999  140.1762  155.7281 H   0  0  0  0  0  0  0  0  0  0  0  0
  147.1238  140.5160  155.8499 H   0  0  0  0  0  0  0  0  0  0  0  0
  147.9131  143.0429  155.4438 H   0  0  0  0  0  0  0  0  0  0  0  0
  147.2636  141.4921  152.9975 H   0  0  0  0  0  0  0  0  0  0  0  0
  148.1598  140.0397  153.3465 H   0  0  0  0  0  0  0  0  0  0  0  0
  145.2900  140.2450  153.3512 H   0  0  0  0  0  0  0  0  0  0  0  0
  144.1689  138.6470  153.5655 H   0  0  0  0  0  0  0  0  0  0  0  0
  142.4403  137.1312  153.3758 H   0  0  0  0  0  0  0  0  0  0  0  0
  141.6226  134.7301  153.6601 H   0  0  0  0  0  0  0  0  0  0  0  0
  145.3531  133.4369  154.8812 H   0  0  0  0  0  0  0  0  0  0  0  0
  146.3550  135.7470  154.6434 H   0  0  0  0  0  0  0  0  0  0  0  0
  147.7464  141.9120  157.5893 H   0  0  0  0  0  0  0  0  0  0  0  0
  149.1117  140.9851  158.1689 H   0  0  0  0  0  0  0  0  0  0  0  0
  148.6333  142.8839  159.6871 H   0  0  0  0  0  0  0  0  0  0  0  0
  148.7450  144.0193  158.3639 H   0  0  0  0  0  0  0  0  0  0  0  0
  149.2398  143.0570  156.0986 H   0  0  0  0  0  0  0  0  0  0  0  0
  143.1163  133.1153  154.3837 H   0  0  0  0  0  0  0  0  0  0  0  0
  1  2  1  0  0  0  0
  1 22  1  0  0  0  0
  1 23  1  0  0  0  0
  1 24  1  0  0  0  0
  2 21  1  0  0  0  0
  2  3  1  0  0  0  0
  2 25  1  0  0  0  0
  3  4  1  0  0  0  0
  3 26  1  0  0  0  0
  3 27  1  0  0  0  0
  4  5  1  0  0  0  0
  4 28  1  0  0  0  0
  4 29  1  0  0  0  0
  5  6  1  0  0  0  0
  5 20  1  0  0  0  0
  5 46  1  0  0  0  0
  6  7  1  0  0  0  0
  6 30  1  0  0  0  0
  6 31  1  0  0  0  0
  7  8  1  0  0  0  0
  7  9  1  0  0  0  0
  7 32  1  0  0  0  0
  8 33  1  0  0  0  0
  9 10  1  0  0  0  0
  9 34  1  0  0  0  0
  9 35  1  0  0  0  0
 10 11  1  0  0  0  0
 10 36  1  0  0  0  0
 11 12  2  0  0  0  0
 11 13  1  0  0  0  0
 13 14  1  0  0  0  0
 13 37  1  0  0  0  0
 14 19  1  0  0  0  0
 14 15  2  0  0  0  0
 15 16  1  0  0  0  0
 15 38  1  0  0  0  0
 16 17  2  0  0  0  0
 16 39  1  0  0  0  0
 17 18  1  0  0  0  0
 17 47  1  0  0  0  0
 18 19  2  0  0  0  0
 18 40  1  0  0  0  0
 19 41  1  0  0  0  0
 20 21  1  0  0  0  0
 20 42  1  0  0  0  0
 20 43  1  0  0  0  0
 21 44  1  0  0  0  0
 21 45  1  0  0  0  0
M  CHG  1   5   1
M  CHG  1  17   1
M  END
> <s_m_source_file>
AV-unprocessed.smi

> <i_m_source_file_index>
1032

> <i_lp_mmshare_version>
43012

> <i_f3d_flags>
0

> <s_epik_input>
W0NIM11bQ0hdMVtDSDJdW0NIMl1OKFtDSDJdW0NIMl0xKVtDSDJdW0NASF0oW09IXSlbQ0gyXVtOSF1DKD1PKVtOSF1jMltjSF1bY0hdbltjSF1bY0hdMg==

> <s_epik_cmdline>
J2VwaWtfcHl0aG9uJywgJy1waCcsICc3LjAnLCAnLXRuJywgJzgnLCAnLW1hJywgJzIwMCcsICctbWV0YWxfYmluZGluZycsICctaW1hZScsICc8aW5maWxlLm1hZT4nLCAnLW9tYWUnLCAnPG91dGZpbGUubWFlPic=

> <r_epik_Ionization_Penalty>
1.02509

> <r_epik_Ionization_Penalty_Charging>
1.02507

> <r_epik_Ionization_Penalty_Neutral>
1.85474e-05

> <r_epik_State_Penalty>
1.07411

> <r_epik_Charging_Adjusted_Penalty>
2.09917

> <i_epik_Tot_Q>
2

> <i_epik_Tot_abs_Q>
2

> <r_epik_Metal_State_Penalty>
1.1725

> <b_epik_Metal_Only>
0

> <s_lp_Force_Field>
OPLS_2005

> <r_lp_Energy>
29.9623

> <b_lp_Chiralities_Consistent>
1

> <s_lp_Variant>
AV-unprocessed.smi:1032-6

> <Gold.Version>
5.8.1

> <Gold.Id.Protein>
6NUR|6NUR_protein|mol2

> <Gold.PLP.Fitness>
50.5897

> <Gold.PLP.PLP>
-31.5533

> <Gold.PLP.part.hbond>
-5.0000

> <Gold.PLP.part.metal>
0.0000

> <Gold.PLP.part.buried>
-5.7830

> <Gold.PLP.part.nonpolar>
-21.4732

> <Gold.PLP.part.repulsive>
0.2326

> <Gold.PLP.ligand.clash>
0.0000

> <Gold.PLP.ligand.torsion>
1.0032

> <Gold.PLP.Chemscore.Hbond>
7.0000

> <Gold.PLP.Chemscore.CHOScore>
0.0000

> <Gold.PLP.Chemscore.Metal>
0.0000

> <Gold.Chemscore.Hbonds>
donor molecule, donor type, donor heavy atom, donor atom, acceptor molecule, acceptor atom, score
      L1  H     5    46       P1  8028  2.00
      L1  H     8    33       P1  8028  1.00
      L1  H    10    36       P1 10175  1.00
      L1  H    13    37       P1 10175  0.63
      L1  H    17    47       P1 10957  1.76

> <Gold.PLP.Chemscore.Internal.Correction>
0.0428

> <Gold.Rescore>
     Score         DG    S(hbond)    S(metal)    S(lipo)     H(rot)  DE(clash)    DE(int)     intcor
     22.53     -24.74       4.79        0.00      79.19       2.34       0.01       2.21       ----

> <Gold.Chemscore.Fitness>
22.5251

> <Gold.Chemscore.DG>
-24.7408

> <Gold.Chemscore.ZeroCoef>
-5.4800

> <Gold.Chemscore.Hbond>
4.7858

> <Gold.Chemscore.Metal>
0.0000

> <Gold.Chemscore.Lipo>
79.1878

> <Gold.Chemscore.Internal_Hbond>
0.0000

> <Gold.Chemscore.DEClash>
0.0088

> <Gold.Chemscore.DEInternal>
2.2069

> <Gold.Chemscore.Rot>
2.3393

> <Gold.Chemscore.Internal.Correction>
   9.000000E+99

> <Gold.Chemscore.Hbonds>
donor molecule, donor type, donor heavy atom, donor atom, acceptor molecule, acceptor atom, score
      L1  H     5    46       P1  8028  1.00
      L1  H     8    33       P1  8028  0.73
      L1  H    10    36       P1 10175  0.99
      L1  H    13    37       P1 10175  0.61
      L1  H    17    47       P1 10957  0.86

> <Gold.Chemscore.Hbond.Weighted>
-15.9844

> <Gold.Chemscore.Metal.Weighted>
-0.0000

> <Gold.Chemscore.Lipo.Weighted>
-9.2650

> <Gold.Chemscore.Internal_Hbond.Weighted>
0.0000

> <Gold.Chemscore.DEClash.Weighted>
0.0088

> <Gold.Chemscore.DEInternal.Weighted>
2.2069

> <Gold.Chemscore.Rot.Weighted>
5.9886

> <Gold.Chemscore.Internal.Correction.Weighted>
   9.000000E+99

> <Gold.Protein.RotatedTorsions>
[ 6907 6896 6895 6894 ] final -175.87 input  -60.11 | X-H torsion
[ 7974 7965 7964 7962 ] final -129.84 input  175.53 | X-H torsion
[ 8008 7997 7996 7995 ] final  123.51 input   59.86 | X-H torsion
[ 10167 10162 10161 10158 ] final -131.08 input  -65.29 | X-H torsion
[ 10718 10713 10712 10709 ] final   14.75 input   66.30 | X-H torsion
[ 10763 10752 10751 10750 ] final   71.60 input  -60.55 | X-H torsion
[ 11005 11000 10999 10996 ] final -133.54 input  -57.11 | X-H torsion

> <Gold.Protein.ActiveResidues>
 VAL166  LYS551  ARG553  GLY616  TRP617  ASP618  TYR619  PRO620  LYS621  CYS622 
 ASP623  PHE694  ASN695  SER759  ASP760  ASP761  ALA762  ILE779  LEU786  VAL792 
 PHE793  MET794  SER795  GLU796  ALA797  LYS798  CYS799  TRP800  GLU811  SER814 

> <Gold.Protein.RotatedAtoms>
  151.5956  133.3362  159.3036 H   0  0  0  0  0  0  0  0  0  0  0  0  # atno 6907 bound_to 6896
  150.8236  134.7459  159.6805 H   0  0  0  0  0  0  0  0  0  0  0  0  # atno 6908 bound_to 6896
  152.4327  134.5752  159.9984 H   0  0  0  0  0  0  0  0  0  0  0  0  # atno 6909 bound_to 6896
  144.9533  140.7368  143.4774 H   0  0  0  0  0  0  0  0  0  0  0  0  # atno 7974 bound_to 7965
  156.2768  140.2761  156.1639 H   0  0  0  0  0  0  0  0  0  0  0  0  # atno 8008 bound_to 7997
  155.0724  140.0387  157.2631 H   0  0  0  0  0  0  0  0  0  0  0  0  # atno 8009 bound_to 7997
  154.7029  140.2653  155.6708 H   0  0  0  0  0  0  0  0  0  0  0  0  # atno 8010 bound_to 7997
  139.9226  143.6364  152.2550 H   0  0  0  0  0  0  0  0  0  0  0  0  # atno 10167 bound_to 10162
  157.0436  130.6241  149.5755 H   0  0  0  0  0  0  0  0  0  0  0  0  # atno 10718 bound_to 10713
  153.0409  135.5131  154.7618 H   0  0  0  0  0  0  0  0  0  0  0  0  # atno 10763 bound_to 10752
  154.6556  135.2931  154.9934 H   0  0  0  0  0  0  0  0  0  0  0  0  # atno 10764 bound_to 10752
  154.0802  135.6665  153.4889 H   0  0  0  0  0  0  0  0  0  0  0  0  # atno 10765 bound_to 10752
  140.9071  134.1616  157.4417 H   0  0  0  0  0  0  0  0  0  0  0  0  # atno 11005 bound_to 11000
  145.2811  139.1918  143.4790 LP  0  0  0  0  0  0  0  0  0  0  0  0  # atno 17320 bound_to 7965
  146.3328  140.2773  142.8608 LP  0  0  0  0  0  0  0  0  0  0  0  0  # atno 17321 bound_to 7965
  139.6849  144.7652  151.1542 LP  0  0  0  0  0  0  0  0  0  0  0  0  # atno 17342 bound_to 10162
  140.7658  143.5672  150.9035 LP  0  0  0  0  0  0  0  0  0  0  0  0  # atno 17343 bound_to 10162
  156.0030  130.5112  150.7730 LP  0  0  0  0  0  0  0  0  0  0  0  0  # atno 17370 bound_to 10713
  157.5085  131.0924  151.0228 LP  0  0  0  0  0  0  0  0  0  0  0  0  # atno 17371 bound_to 10713
  139.8751  134.9921  156.5581 LP  0  0  0  0  0  0  0  0  0  0  0  0  # atno 17394 bound_to 11000
  140.8157  133.8393  155.8850 LP  0  0  0  0  0  0  0  0  0  0  0  0  # atno 17395 bound_to 11000

$$$$
