AV-unprocessed.smi:2198|AV-procd|sdf|8915|dock5
  -GOLD-   2272012133D 1   1.00000     0.00000
 Structure written by MMmdl.
 43 44  0  0  0  0  0  0  0  0  1 V2000
  154.7593  140.9343  161.6894 C   0  0  0  0  0  0  0  0  0  0  0  0
  153.8151  141.2544  160.5510 C   0  0  0  0  0  0  0  0  0  0  0  0
  153.1740  142.4747  160.6861 N   0  0  0  0  0  0  0  0  0  0  0  0
  152.2892  142.8545  159.6927 C   0  0  0  0  0  0  0  0  0  0  0  0
  151.6275  144.2030  159.9184 C   0  0  0  0  0  0  0  0  0  0  0  0
  152.0591  142.0610  158.6159 C   0  0  0  0  0  0  0  0  0  0  0  0
  151.0955  142.4483  157.4948 C   0  0  0  0  0  0  0  0  0  0  0  0
  149.9316  141.4841  157.2510 C   0  0  0  0  0  0  0  0  0  0  0  0
  150.0482  140.2863  157.5098 O   0  0  0  0  0  0  0  0  0  0  0  0
  148.8115  142.0247  156.7482 N   0  0  0  0  0  0  0  0  0  0  0  0
  147.5880  141.2933  156.4239 C   0  0  2  0  0  0  0  0  0  0  0  0
  147.9086  140.0992  155.5044 C   0  0  0  0  0  0  0  0  0  0  0  0
  148.2869  140.5451  154.0816 C   0  0  0  0  0  0  0  0  0  0  0  0
  147.1995  141.4415  153.4697 C   0  0  0  0  0  0  0  0  0  0  0  0
  146.9106  142.6655  154.3594 C   0  0  1  0  0  0  0  0  0  0  0  0
  145.8268  143.5625  153.7448 C   0  0  0  0  0  0  0  0  0  0  0  0
  146.5277  142.2174  155.7852 C   0  0  0  0  0  0  0  0  0  0  0  0
  152.7811  140.7701  158.5227 C   0  0  0  0  0  0  0  0  0  0  0  0
  152.6265  140.0135  157.5651 O   0  0  0  0  0  0  0  0  0  0  0  0
  153.6616  140.4275  159.5618 N   0  0  0  0  0  0  0  0  0  0  0  0
  153.3198  143.0977  161.4675 H   0  0  0  0  0  0  0  0  0  0  0  0
  155.1079  139.9025  161.6285 H   0  0  0  0  0  0  0  0  0  0  0  0
  154.2611  141.0676  162.6501 H   0  0  0  0  0  0  0  0  0  0  0  0
  155.6284  141.5915  161.6543 H   0  0  0  0  0  0  0  0  0  0  0  0
  150.5464  144.0880  159.9972 H   0  0  0  0  0  0  0  0  0  0  0  0
  151.8440  144.8778  159.0901 H   0  0  0  0  0  0  0  0  0  0  0  0
  151.9810  144.6758  160.8355 H   0  0  0  0  0  0  0  0  0  0  0  0
  151.6670  142.5398  156.5706 H   0  0  0  0  0  0  0  0  0  0  0  0
  150.6846  143.4438  157.6659 H   0  0  0  0  0  0  0  0  0  0  0  0
  148.8056  143.0186  156.5709 H   0  0  0  0  0  0  0  0  0  0  0  0
  147.1810  140.8916  157.3536 H   0  0  0  0  0  0  0  0  0  0  0  0
  148.7091  139.4955  155.9337 H   0  0  0  0  0  0  0  0  0  0  0  0
  147.0354  139.4481  155.4500 H   0  0  0  0  0  0  0  0  0  0  0  0
  149.2358  141.0824  154.1020 H   0  0  0  0  0  0  0  0  0  0  0  0
  148.4442  139.6701  153.4504 H   0  0  0  0  0  0  0  0  0  0  0  0
  147.5109  141.7660  152.4762 H   0  0  0  0  0  0  0  0  0  0  0  0
  146.2861  140.8610  153.3320 H   0  0  0  0  0  0  0  0  0  0  0  0
  147.8242  143.2583  154.4228 H   0  0  0  0  0  0  0  0  0  0  0  0
  144.8778  143.0334  153.6532 H   0  0  0  0  0  0  0  0  0  0  0  0
  146.1160  143.9024  152.7500 H   0  0  0  0  0  0  0  0  0  0  0  0
  145.6566  144.4479  154.3583 H   0  0  0  0  0  0  0  0  0  0  0  0
  145.5760  141.6858  155.7478 H   0  0  0  0  0  0  0  0  0  0  0  0
  146.3572  143.0887  156.4187 H   0  0  0  0  0  0  0  0  0  0  0  0
  1 22  1  0  0  0  0
  1 23  1  0  0  0  0
  1 24  1  0  0  0  0
  1  2  1  0  0  0  0
  2  3  1  0  0  0  0
  2 20  2  0  0  0  0
  3  4  1  0  0  0  0
  3 21  1  0  0  0  0
  4  6  2  0  0  0  0
  4  5  1  0  0  0  0
  5 25  1  0  0  0  0
  5 26  1  0  0  0  0
  5 27  1  0  0  0  0
  6 18  1  0  0  0  0
  6  7  1  0  0  0  0
  7  8  1  0  0  0  0
  7 28  1  0  0  0  0
  7 29  1  0  0  0  0
  8  9  2  0  0  0  0
  8 10  1  0  0  0  0
 10 11  1  0  0  0  0
 10 30  1  0  0  0  0
 11 17  1  0  0  0  0
 11 12  1  0  0  0  0
 11 31  1  0  0  0  0
 12 13  1  0  0  0  0
 12 32  1  0  0  0  0
 12 33  1  0  0  0  0
 13 14  1  0  0  0  0
 13 34  1  0  0  0  0
 13 35  1  0  0  0  0
 14 15  1  0  0  0  0
 14 36  1  0  0  0  0
 14 37  1  0  0  0  0
 15 16  1  0  0  0  0
 15 17  1  0  0  0  0
 15 38  1  0  0  0  0
 16 39  1  0  0  0  0
 16 40  1  0  0  0  0
 16 41  1  0  0  0  0
 17 42  1  0  0  0  0
 17 43  1  0  0  0  0
 18 19  2  0  0  0  0
 18 20  1  0  0  0  0
M  END
> <s_m_source_file>
AV-unprocessed.smi

> <i_m_source_file_index>
2198

> <i_lp_mmshare_version>
43012

> <i_f3d_flags>
0

> <s_epik_input>
W0NIM11jMW5jKFtDSDNdKWMoYyg9TylbbkhdMSlbQ0gyXUMoPU8pW05IXVtDQEBIXTJbQ0gyXVtDSDJdW0NIMl1bQ0BASF0oW0NIM10pW0NIMl0y

> <s_epik_cmdline>
J2VwaWtfcHl0aG9uJywgJy1waCcsICc3LjAnLCAnLXRuJywgJzgnLCAnLW1hJywgJzIwMCcsICctbWV0YWxfYmluZGluZycsICctaW1hZScsICc8aW5maWxlLm1hZT4nLCAnLW9tYWUnLCAnPG91dGZpbGUubWFlPic=

> <r_lp_tautomer_probability>
0.156392

> <r_epik_Ionization_Penalty>
0.0136514

> <r_epik_Ionization_Penalty_Charging>
0.0135207

> <r_epik_Ionization_Penalty_Neutral>
0.000130657

> <r_epik_State_Penalty>
1.15342

> <r_epik_Charging_Adjusted_Penalty>
1.16694

> <i_epik_Tot_Q>
0

> <i_epik_Tot_abs_Q>
0

> <r_epik_Metal_State_Penalty>
1.31404

> <b_epik_Metal_Only>
0

> <s_lp_Force_Field>
OPLS_2005

> <r_lp_Energy>
13.5111

> <b_lp_Chiralities_Consistent>
1

> <s_lp_Variant>
AV-unprocessed.smi:2198-5

> <Gold.Version>
5.8.1

> <Gold.Id.Protein>
6NUR|6NUR_protein|mol2

> <Gold.PLP.Fitness>
42.3879

> <Gold.PLP.PLP>
-37.1857

> <Gold.PLP.part.hbond>
-2.0000

> <Gold.PLP.part.metal>
0.0000

> <Gold.PLP.part.buried>
-3.5280

> <Gold.PLP.part.nonpolar>
-31.1767

> <Gold.PLP.part.repulsive>
0.0461

> <Gold.PLP.ligand.clash>
0.0000

> <Gold.PLP.ligand.torsion>
0.4034

> <Gold.PLP.Chemscore.Hbond>
2.0000

> <Gold.PLP.Chemscore.CHOScore>
0.0000

> <Gold.PLP.Chemscore.Metal>
0.0000

> <Gold.Chemscore.Hbonds>
donor molecule, donor type, donor heavy atom, donor atom, acceptor molecule, acceptor atom, score
      L1  H    10    30       P1  8028  1.00
      P1  H  7997  8008       L1    19  1.00

> <Gold.PLP.Chemscore.Internal.Correction>
0.0089

> <Gold.Rescore>
     Score         DG    S(hbond)    S(metal)    S(lipo)     H(rot)  DE(clash)    DE(int)     intcor
     12.55     -17.53       1.72        0.00      86.11       1.48       0.68       4.29       ----

> <Gold.Chemscore.Fitness>
12.5537

> <Gold.Chemscore.DG>
-17.5264

> <Gold.Chemscore.ZeroCoef>
-5.4800

> <Gold.Chemscore.Hbond>
1.7248

> <Gold.Chemscore.Metal>
0.0000

> <Gold.Chemscore.Lipo>
86.1087

> <Gold.Chemscore.Internal_Hbond>
0.0000

> <Gold.Chemscore.DEClash>
0.6838

> <Gold.Chemscore.DEInternal>
4.2888

> <Gold.Chemscore.Rot>
1.4801

> <Gold.Chemscore.Internal.Correction>
   9.000000E+99

> <Gold.Chemscore.Hbonds>
donor molecule, donor type, donor heavy atom, donor atom, acceptor molecule, acceptor atom, score
      L1  H    10    30       P1  8028  0.94
      P1  H  7997  8008       L1    19  0.25

> <Gold.Chemscore.Hbond.Weighted>
-5.7608

> <Gold.Chemscore.Metal.Weighted>
-0.0000

> <Gold.Chemscore.Lipo.Weighted>
-10.0747

> <Gold.Chemscore.Internal_Hbond.Weighted>
0.0000

> <Gold.Chemscore.DEClash.Weighted>
0.6838

> <Gold.Chemscore.DEInternal.Weighted>
4.2888

> <Gold.Chemscore.Rot.Weighted>
3.7891

> <Gold.Chemscore.Internal.Correction.Weighted>
   9.000000E+99

> <Gold.Protein.RotatedTorsions>
[ 6907 6896 6895 6894 ] final -135.42 input  -60.11 | X-H torsion
[ 7974 7965 7964 7962 ] final    5.22 input  175.53 | X-H torsion
[ 8008 7997 7996 7995 ] final  -68.21 input   59.86 | X-H torsion
[ 10167 10162 10161 10158 ] final  131.58 input  -65.29 | X-H torsion
[ 10718 10713 10712 10709 ] final    1.46 input   66.30 | X-H torsion
[ 10763 10752 10751 10750 ] final   91.37 input  -60.55 | X-H torsion
[ 11005 11000 10999 10996 ] final   81.81 input  -57.11 | X-H torsion

> <Gold.Protein.ActiveResidues>
 VAL166  LYS551  ARG553  GLY616  TRP617  ASP618  TYR619  PRO620  LYS621  CYS622 
 ASP623  PHE694  ASN695  SER759  ASP760  ASP761  ALA762  ILE779  LEU786  VAL792 
 PHE793  MET794  SER795  GLU796  ALA797  LYS798  CYS799  TRP800  GLU811  SER814 

> <Gold.Protein.RotatedAtoms>
  150.9976  133.6087  159.2699 H   0  0  0  0  0  0  0  0  0  0  0  0  # atno 6907 bound_to 6896
  151.3285  135.0835  159.9340 H   0  0  0  0  0  0  0  0  0  0  0  0  # atno 6908 bound_to 6896
  152.5264  133.9610  159.7771 H   0  0  0  0  0  0  0  0  0  0  0  0  # atno 6909 bound_to 6896
  146.2441  140.0416  142.8381 H   0  0  0  0  0  0  0  0  0  0  0  0  # atno 7974 bound_to 7965
  154.4852  140.0877  156.7470 H   0  0  0  0  0  0  0  0  0  0  0  0  # atno 8008 bound_to 7997
  155.4368  140.3452  155.4267 H   0  0  0  0  0  0  0  0  0  0  0  0  # atno 8009 bound_to 7997
  156.1251  140.1485  156.9136 H   0  0  0  0  0  0  0  0  0  0  0  0  # atno 8010 bound_to 7997
  139.5378  144.6700  151.4728 H   0  0  0  0  0  0  0  0  0  0  0  0  # atno 10167 bound_to 10162
  156.8485  130.5545  149.5671 H   0  0  0  0  0  0  0  0  0  0  0  0  # atno 10718 bound_to 10713
  153.2075  135.4400  155.0340 H   0  0  0  0  0  0  0  0  0  0  0  0  # atno 10763 bound_to 10752
  154.8181  135.3325  154.7119 H   0  0  0  0  0  0  0  0  0  0  0  0  # atno 10764 bound_to 10752
  153.7559  135.6995  153.4991 H   0  0  0  0  0  0  0  0  0  0  0  0  # atno 10765 bound_to 10752
  139.9085  134.8025  156.2091 H   0  0  0  0  0  0  0  0  0  0  0  0  # atno 11005 bound_to 11000
  145.1064  140.9378  143.4682 LP  0  0  0  0  0  0  0  0  0  0  0  0  # atno 17320 bound_to 7965
  145.0620  139.3098  143.5875 LP  0  0  0  0  0  0  0  0  0  0  0  0  # atno 17321 bound_to 7965
  140.6593  143.8533  150.6869 LP  0  0  0  0  0  0  0  0  0  0  0  0  # atno 17342 bound_to 10162
  140.1922  143.4027  152.1854 LP  0  0  0  0  0  0  0  0  0  0  0  0  # atno 17343 bound_to 10162
  156.0841  130.5844  150.9616 LP  0  0  0  0  0  0  0  0  0  0  0  0  # atno 17370 bound_to 10713
  157.6316  131.0920  150.8429 LP  0  0  0  0  0  0  0  0  0  0  0  0  # atno 17371 bound_to 10713
  141.0476  133.6905  156.1713 LP  0  0  0  0  0  0  0  0  0  0  0  0  # atno 17394 bound_to 11000
  140.6859  134.4717  157.5589 LP  0  0  0  0  0  0  0  0  0  0  0  0  # atno 17395 bound_to 11000

$$$$
