AV-unprocessed.smi:952|AV-procd|sdf|4256|dock1
  -GOLD-   22720 2163D 1   1.00000     0.00000
 Structure written by MMmdl.
 35 35  0  0  0  0  0  0  0  0  1 V2000
  151.7327  139.0803  154.4796 C   0  0  0  0  0  0  0  0  0  0  0  0
  150.5686  138.2992  153.8612 C   0  0  0  0  0  0  0  0  0  0  0  0
  149.3186  139.1710  153.6588 C   0  0  0  0  0  0  0  0  0  0  0  0
  148.3327  138.5061  152.8149 N   0  0  0  0  0  0  0  0  0  0  0  0
  147.1512  139.0280  152.4520 C   0  0  0  0  0  0  0  0  0  0  0  0
  146.7632  140.1390  152.8170 O   0  0  0  0  0  0  0  0  0  0  0  0
  146.2725  138.1453  151.5571 C   0  0  0  0  0  0  0  0  0  0  0  0
  146.5135  136.7178  151.7506 N   0  0  0  0  0  0  0  0  0  0  0  0
  145.6072  135.8317  152.1944 C   0  0  0  0  0  0  0  0  0  0  0  0
  144.4491  136.1403  152.4793 O   0  0  0  0  0  0  0  0  0  0  0  0
  146.0900  134.3793  152.3309 C   0  0  1  0  0  0  0  0  0  0  0  0
  145.9180  133.8243  153.7569 C   0  0  0  0  0  0  0  0  0  0  0  0
  145.4213  133.5284  151.3551 N   0  0  0  0  0  0  0  0  0  0  0  0
  145.9702  132.5933  150.4985 C   0  0  0  0  0  0  0  0  0  0  0  0
  144.9479  132.0531  149.7727 C   0  0  0  0  0  0  0  0  0  0  0  0
  143.7951  132.7305  150.2579 C   0  0  0  0  0  0  0  0  0  0  0  0
  144.0811  133.6126  151.2018 N   0  0  0  0  0  0  0  0  0  0  0  0
  152.6011  138.4362  154.6198 H   0  0  0  0  0  0  0  0  0  0  0  0
  151.4605  139.4892  155.4531 H   0  0  0  0  0  0  0  0  0  0  0  0
  152.0337  139.9096  153.8388 H   0  0  0  0  0  0  0  0  0  0  0  0
  150.8889  137.8816  152.9061 H   0  0  0  0  0  0  0  0  0  0  0  0
  150.3243  137.4512  154.5021 H   0  0  0  0  0  0  0  0  0  0  0  0
  148.8523  139.3801  154.6220 H   0  0  0  0  0  0  0  0  0  0  0  0
  149.5902  140.1371  153.2296 H   0  0  0  0  0  0  0  0  0  0  0  0
  148.5698  137.5854  152.4745 H   0  0  0  0  0  0  0  0  0  0  0  0
  145.2177  138.3718  151.7244 H   0  0  0  0  0  0  0  0  0  0  0  0
  146.4836  138.3899  150.5161 H   0  0  0  0  0  0  0  0  0  0  0  0
  147.4421  136.3802  151.5421 H   0  0  0  0  0  0  0  0  0  0  0  0
  147.1593  134.3749  152.1090 H   0  0  0  0  0  0  0  0  0  0  0  0
  146.4250  134.4533  154.4895 H   0  0  0  0  0  0  0  0  0  0  0  0
  146.3432  132.8236  153.8366 H   0  0  0  0  0  0  0  0  0  0  0  0
  144.8675  133.7592  154.0431 H   0  0  0  0  0  0  0  0  0  0  0  0
  147.0312  132.3923  150.4786 H   0  0  0  0  0  0  0  0  0  0  0  0
  145.0138  131.2909  149.0105 H   0  0  0  0  0  0  0  0  0  0  0  0
  142.7658  132.6089  149.9540 H   0  0  0  0  0  0  0  0  0  0  0  0
  1  2  1  0  0  0  0
  1 18  1  0  0  0  0
  1 19  1  0  0  0  0
  1 20  1  0  0  0  0
  2  3  1  0  0  0  0
  2 21  1  0  0  0  0
  2 22  1  0  0  0  0
  3  4  1  0  0  0  0
  3 23  1  0  0  0  0
  3 24  1  0  0  0  0
  4  5  1  0  0  0  0
  4 25  1  0  0  0  0
  5  6  2  0  0  0  0
  5  7  1  0  0  0  0
  7  8  1  0  0  0  0
  7 26  1  0  0  0  0
  7 27  1  0  0  0  0
  8  9  1  0  0  0  0
  8 28  1  0  0  0  0
  9 10  2  0  0  0  0
  9 11  1  0  0  0  0
 11 12  1  0  0  0  0
 11 13  1  0  0  0  0
 11 29  1  0  0  0  0
 12 30  1  0  0  0  0
 12 31  1  0  0  0  0
 12 32  1  0  0  0  0
 13 17  1  0  0  0  0
 13 14  1  0  0  0  0
 14 15  2  0  0  0  0
 14 33  1  0  0  0  0
 15 16  1  0  0  0  0
 15 34  1  0  0  0  0
 16 17  2  0  0  0  0
 16 35  1  0  0  0  0
M  END
> <s_m_source_file>
AV-unprocessed.smi

> <i_m_source_file_index>
952

> <i_lp_mmshare_version>
43012

> <i_f3d_flags>
0

> <s_epik_input>
W0NIM11bQ0gyXVtDSDJdW05IXUMoPU8pW0NIMl1bTkhdQyg9TylbQ0BIXShbQ0gzXSluMVtjSF1bY0hdW2NIXW4x

> <s_epik_cmdline>
J2VwaWtfcHl0aG9uJywgJy1waCcsICc3LjAnLCAnLXRuJywgJzgnLCAnLW1hJywgJzIwMCcsICctbWV0YWxfYmluZGluZycsICctaW1hZScsICc8aW5maWxlLm1hZT4nLCAnLW9tYWUnLCAnPG91dGZpbGUubWFlPic=

> <r_lp_tautomer_probability>
1

> <r_epik_Ionization_Penalty>
2.62173e-05

> <r_epik_Ionization_Penalty_Charging>
0

> <r_epik_Ionization_Penalty_Neutral>
2.62173e-05

> <r_epik_State_Penalty>
-0

> <r_epik_Charging_Adjusted_Penalty>
0

> <i_epik_Tot_Q>
0

> <i_epik_Tot_abs_Q>
0

> <r_epik_Metal_State_Penalty>
-0

> <b_epik_Metal_Only>
0

> <s_lp_Force_Field>
OPLS_2005

> <r_lp_Energy>
2.421

> <b_lp_Chiralities_Consistent>
1

> <s_lp_Variant>
AV-unprocessed.smi:952-2

> <Gold.Version>
5.8.1

> <Gold.Id.Protein>
6NUR|6NUR_protein|mol2

> <Gold.PLP.Fitness>
43.1243

> <Gold.PLP.PLP>
-32.6898

> <Gold.PLP.part.hbond>
-2.8525

> <Gold.PLP.part.metal>
0.0000

> <Gold.PLP.part.buried>
-4.4069

> <Gold.PLP.part.nonpolar>
-27.0919

> <Gold.PLP.part.repulsive>
0.5323

> <Gold.PLP.ligand.clash>
0.0000

> <Gold.PLP.ligand.torsion>
0.8653

> <Gold.PLP.Chemscore.Hbond>
1.9750

> <Gold.PLP.Chemscore.CHOScore>
1.9996

> <Gold.PLP.Chemscore.Metal>
0.0000

> <Gold.Chemscore.Hbonds>
donor molecule, donor type, donor heavy atom, donor atom, acceptor molecule, acceptor atom, score
      L1  H     4    25       P1  7948  0.96
      L1  H     8    28       P1  7948  0.96
      L1  C    14    33       P1 10747  1.00
      L1  C    16    35       P1 10186  0.92

> <Gold.PLP.Chemscore.Internal.Correction>
0.2414

> <Gold.Rescore>
     Score         DG    S(hbond)    S(metal)    S(lipo)     H(rot)  DE(clash)    DE(int)     intcor
     11.96     -14.34       1.98        0.00      68.17       2.24       0.02       2.37       ----

> <Gold.Chemscore.Fitness>
11.9573

> <Gold.Chemscore.DG>
-14.3445

> <Gold.Chemscore.ZeroCoef>
-5.4800

> <Gold.Chemscore.Hbond>
1.9803

> <Gold.Chemscore.Metal>
0.0000

> <Gold.Chemscore.Lipo>
68.1651

> <Gold.Chemscore.Internal_Hbond>
0.0000

> <Gold.Chemscore.DEClash>
0.0191

> <Gold.Chemscore.DEInternal>
2.3681

> <Gold.Chemscore.Rot>
2.2364

> <Gold.Chemscore.Internal.Correction>
   9.000000E+99

> <Gold.Chemscore.Hbonds>
donor molecule, donor type, donor heavy atom, donor atom, acceptor molecule, acceptor atom, score
      L1  H     4    25       P1  7948  0.90
      L1  H     8    28       P1  7948  0.89

> <Gold.Chemscore.Hbond.Weighted>
-6.6143

> <Gold.Chemscore.Metal.Weighted>
-0.0000

> <Gold.Chemscore.Lipo.Weighted>
-7.9753

> <Gold.Chemscore.Internal_Hbond.Weighted>
0.0000

> <Gold.Chemscore.DEClash.Weighted>
0.0191

> <Gold.Chemscore.DEInternal.Weighted>
2.3681

> <Gold.Chemscore.Rot.Weighted>
5.7251

> <Gold.Chemscore.Internal.Correction.Weighted>
   9.000000E+99

> <Gold.Protein.RotatedTorsions>
[ 6907 6896 6895 6894 ] final   85.81 input  -60.11 | X-H torsion
[ 7974 7965 7964 7962 ] final    0.74 input  175.53 | X-H torsion
[ 8008 7997 7996 7995 ] final  101.59 input   59.86 | X-H torsion
[ 10167 10162 10161 10158 ] final  168.76 input  -65.29 | X-H torsion
[ 10718 10713 10712 10709 ] final  -95.73 input   66.30 | X-H torsion
[ 10763 10752 10751 10750 ] final   90.88 input  -60.55 | X-H torsion
[ 11005 11000 10999 10996 ] final  -73.61 input  -57.11 | X-H torsion

> <Gold.Protein.ActiveResidues>
 VAL166  LYS551  ARG553  GLY616  TRP617  ASP618  TYR619  PRO620  LYS621  CYS622 
 ASP623  PHE694  ASN695  SER759  ASP760  ASP761  ALA762  ILE779  LEU786  VAL792 
 PHE793  MET794  SER795  GLU796  ALA797  LYS798  CYS799  TRP800  GLU811  SER814 

> <Gold.Protein.RotatedAtoms>
  152.5382  134.2528  159.8904 H   0  0  0  0  0  0  0  0  0  0  0  0  # atno 6907 bound_to 6896
  151.2491  133.4353  159.2618 H   0  0  0  0  0  0  0  0  0  0  0  0  # atno 6908 bound_to 6896
  151.0556  134.9716  159.8290 H   0  0  0  0  0  0  0  0  0  0  0  0  # atno 6909 bound_to 6896
  146.2436  140.1092  142.8344 H   0  0  0  0  0  0  0  0  0  0  0  0  # atno 7974 bound_to 7965
  156.1314  140.3195  155.8354 H   0  0  0  0  0  0  0  0  0  0  0  0  # atno 8008 bound_to 7997
  155.4325  140.0520  157.3034 H   0  0  0  0  0  0  0  0  0  0  0  0  # atno 8009 bound_to 7997
  154.4902  140.2089  155.9578 H   0  0  0  0  0  0  0  0  0  0  0  0  # atno 8010 bound_to 7997
  139.4976  144.3779  151.9654 H   0  0  0  0  0  0  0  0  0  0  0  0  # atno 10167 bound_to 10162
  156.0048  130.5121  150.6120 H   0  0  0  0  0  0  0  0  0  0  0  0  # atno 10718 bound_to 10713
  153.2023  135.4417  155.0281 H   0  0  0  0  0  0  0  0  0  0  0  0  # atno 10763 bound_to 10752
  154.8154  135.3313  154.7193 H   0  0  0  0  0  0  0  0  0  0  0  0  # atno 10764 bound_to 10752
  153.7637  135.6989  153.4976 H   0  0  0  0  0  0  0  0  0  0  0  0  # atno 10765 bound_to 10752
  141.1625  133.6884  156.7238 H   0  0  0  0  0  0  0  0  0  0  0  0  # atno 11005 bound_to 11000
  145.0502  140.9012  143.5000 LP  0  0  0  0  0  0  0  0  0  0  0  0  # atno 17320 bound_to 7965
  145.1188  139.2707  143.5599 LP  0  0  0  0  0  0  0  0  0  0  0  0  # atno 17321 bound_to 7965
  140.3216  144.3422  150.6008 LP  0  0  0  0  0  0  0  0  0  0  0  0  # atno 17342 bound_to 10162
  140.5718  143.2180  151.7585 LP  0  0  0  0  0  0  0  0  0  0  0  0  # atno 17343 bound_to 10162
  157.3951  131.0801  151.1359 LP  0  0  0  0  0  0  0  0  0  0  0  0  # atno 17370 bound_to 10713
  157.2039  130.6407  149.5748 LP  0  0  0  0  0  0  0  0  0  0  0  0  # atno 17371 bound_to 10713
  140.2796  134.8327  157.3921 LP  0  0  0  0  0  0  0  0  0  0  0  0  # atno 17394 bound_to 11000
  140.1445  134.4928  155.8006 LP  0  0  0  0  0  0  0  0  0  0  0  0  # atno 17395 bound_to 11000

$$$$
