AV-unprocessed.smi:2873|AV-procd|sdf|11037|dock1
  -GOLD-   2272015503D 1   1.00000     0.00000
 Structure written by MMmdl.
 40 42  0  0  0  0  0  0  0  0  1 V2000
  145.3583  135.6632  150.7575 C   0  0  0  0  0  0  0  0  0  0  0  0
  145.3411  134.6022  151.8775 C   0  0  2  0  0  0  0  0  0  0  0  0
  145.5615  135.2608  153.2606 C   0  0  0  0  0  0  0  0  0  0  0  0
  146.7847  136.0580  153.3233 N   0  0  0  0  0  0  0  0  0  0  0  0
  147.0409  137.0317  154.2079 C   0  0  0  0  0  0  0  0  0  0  0  0
  146.2432  137.3956  155.0710 O   0  0  0  0  0  0  0  0  0  0  0  0
  148.2659  137.5476  154.0130 N   0  0  0  0  0  0  0  0  0  0  0  0
  148.9381  138.5490  154.7641 C   0  0  0  0  0  0  0  0  0  0  0  0
  150.0483  139.1995  154.1864 C   0  0  0  0  0  0  0  0  0  0  0  0
  150.7469  140.1481  154.8456 N   0  0  0  0  0  0  0  0  0  0  0  0
  150.3348  140.4512  156.0796 C   0  0  0  0  0  0  0  0  0  0  0  0
  151.1358  141.4743  156.8234 C   0  0  0  0  0  0  0  0  0  0  0  0
  151.8671  141.1102  158.0995 C   0  0  0  0  0  0  0  0  0  0  0  0
  150.6632  142.0083  158.1602 C   0  0  0  0  0  0  0  0  0  0  0  0
  149.3166  139.8910  156.7384 N   0  0  0  0  0  0  0  0  0  0  0  0
  148.6116  138.9412  156.0862 C   0  0  0  0  0  0  0  0  0  0  0  0
  146.3840  133.4995  151.5935 C   0  0  0  0  0  0  0  0  0  0  0  0
  145.7496  132.4763  150.6503 C   0  0  0  0  0  0  0  0  0  0  0  0
  144.3493  132.2074  151.1955 C   0  0  0  0  0  0  0  0  0  0  0  0
  143.7228  133.7716  151.8572 S   0  0  0  0  0  0  0  0  0  0  0  0
  146.3321  136.1461  150.6731 H   0  0  0  0  0  0  0  0  0  0  0  0
  144.6188  136.4428  150.9430 H   0  0  0  0  0  0  0  0  0  0  0  0
  145.1299  135.2254  149.7855 H   0  0  0  0  0  0  0  0  0  0  0  0
  144.7288  135.9285  153.4837 H   0  0  0  0  0  0  0  0  0  0  0  0
  145.5522  134.5054  154.0484 H   0  0  0  0  0  0  0  0  0  0  0  0
  147.5007  135.8345  152.6476 H   0  0  0  0  0  0  0  0  0  0  0  0
  148.7748  137.1909  153.2176 H   0  0  0  0  0  0  0  0  0  0  0  0
  150.3818  138.9574  153.1878 H   0  0  0  0  0  0  0  0  0  0  0  0
  151.6199  142.1704  156.1409 H   0  0  0  0  0  0  0  0  0  0  0  0
  151.7541  140.0965  158.4790 H   0  0  0  0  0  0  0  0  0  0  0  0
  152.8421  141.5637  158.2650 H   0  0  0  0  0  0  0  0  0  0  0  0
  150.8320  143.0633  158.3655 H   0  0  0  0  0  0  0  0  0  0  0  0
  149.7490  141.5924  158.5794 H   0  0  0  0  0  0  0  0  0  0  0  0
  147.8063  138.4967  156.6489 H   0  0  0  0  0  0  0  0  0  0  0  0
  147.3122  133.9034  151.1878 H   0  0  0  0  0  0  0  0  0  0  0  0
  146.6446  132.9881  152.5211 H   0  0  0  0  0  0  0  0  0  0  0  0
  145.6830  132.8907  149.6439 H   0  0  0  0  0  0  0  0  0  0  0  0
  146.3400  131.5621  150.5849 H   0  0  0  0  0  0  0  0  0  0  0  0
  143.6801  131.8048  150.4347 H   0  0  0  0  0  0  0  0  0  0  0  0
  144.3984  131.4876  152.0131 H   0  0  0  0  0  0  0  0  0  0  0  0
  1  2  1  0  0  0  0
  1 21  1  0  0  0  0
  1 22  1  0  0  0  0
  1 23  1  0  0  0  0
  2 20  1  0  0  0  0
  2  3  1  0  0  0  0
  2 17  1  0  0  0  0
  3  4  1  0  0  0  0
  3 24  1  0  0  0  0
  3 25  1  0  0  0  0
  4  5  1  0  0  0  0
  4 26  1  0  0  0  0
  5  6  2  0  0  0  0
  5  7  1  0  0  0  0
  7  8  1  0  0  0  0
  7 27  1  0  0  0  0
  8 16  1  0  0  0  0
  8  9  2  0  0  0  0
  9 10  1  0  0  0  0
  9 28  1  0  0  0  0
 10 11  2  0  0  0  0
 11 12  1  0  0  0  0
 11 15  1  0  0  0  0
 12 14  1  0  0  0  0
 12 13  1  0  0  0  0
 12 29  1  0  0  0  0
 13 14  1  0  0  0  0
 13 30  1  0  0  0  0
 13 31  1  0  0  0  0
 14 32  1  0  0  0  0
 14 33  1  0  0  0  0
 15 16  2  0  0  0  0
 16 34  1  0  0  0  0
 17 18  1  0  0  0  0
 17 35  1  0  0  0  0
 17 36  1  0  0  0  0
 18 19  1  0  0  0  0
 18 37  1  0  0  0  0
 18 38  1  0  0  0  0
 19 20  1  0  0  0  0
 19 39  1  0  0  0  0
 19 40  1  0  0  0  0
M  END
> <s_m_source_file>
AV-unprocessed.smi

> <i_m_source_file_index>
2873

> <i_lp_mmshare_version>
43012

> <i_f3d_flags>
0

> <s_epik_input>
UzFbQ0gyXVtDSDJdW0NIMl1bQ0BAXTEoW0NIM10pW0NIMl1bTkhdQyg9TylbTkhdYzJbY0hdbmMobltjSF0yKVtDSF0zW0NIMl1bQ0gyXTM=

> <s_epik_cmdline>
J2VwaWtfcHl0aG9uJywgJy1waCcsICc3LjAnLCAnLXRuJywgJzgnLCAnLW1hJywgJzIwMCcsICctbWV0YWxfYmluZGluZycsICctaW1hZScsICc8aW5maWxlLm1hZT4nLCAnLW9tYWUnLCAnPG91dGZpbGUubWFlPic=

> <r_lp_tautomer_probability>
1

> <r_epik_Ionization_Penalty>
2.48741e-05

> <r_epik_Ionization_Penalty_Charging>
0

> <r_epik_Ionization_Penalty_Neutral>
2.48741e-05

> <r_epik_State_Penalty>
-0

> <r_epik_Charging_Adjusted_Penalty>
0

> <i_epik_Tot_Q>
0

> <i_epik_Tot_abs_Q>
0

> <r_epik_Metal_State_Penalty>
-0

> <b_epik_Metal_Only>
0

> <s_lp_Force_Field>
OPLS_2005

> <r_lp_Energy>
11.3468

> <b_lp_Chiralities_Consistent>
1

> <s_lp_Variant>
AV-unprocessed.smi:2873-2

> <Gold.Version>
5.8.1

> <Gold.Id.Protein>
6NUR|6NUR_protein|mol2

> <Gold.PLP.Fitness>
42.4109

> <Gold.PLP.PLP>
-30.8895

> <Gold.PLP.part.hbond>
-3.0000

> <Gold.PLP.part.metal>
0.0000

> <Gold.PLP.part.buried>
-4.1647

> <Gold.PLP.part.nonpolar>
-24.0794

> <Gold.PLP.part.repulsive>
0.1004

> <Gold.PLP.ligand.clash>
0.0000

> <Gold.PLP.ligand.torsion>
0.3313

> <Gold.PLP.Chemscore.Hbond>
3.0000

> <Gold.PLP.Chemscore.CHOScore>
1.0000

> <Gold.PLP.Chemscore.Metal>
0.0000

> <Gold.Chemscore.Hbonds>
donor molecule, donor type, donor heavy atom, donor atom, acceptor molecule, acceptor atom, score
      L1  H     4    26       P1  7948  1.00
      L1  H     7    27       P1  7948  1.00
      P1  H  7989  7998       L1    10  1.00
      L1  C     9    28       P1  7957  0.92

> <Gold.PLP.Chemscore.Internal.Correction>
0.1839

> <Gold.Rescore>
     Score         DG    S(hbond)    S(metal)    S(lipo)     H(rot)  DE(clash)    DE(int)     intcor
     17.63     -19.01       2.58        0.00      71.49       1.35       0.00       1.39       ----

> <Gold.Chemscore.Fitness>
17.6255

> <Gold.Chemscore.DG>
-19.0144

> <Gold.Chemscore.ZeroCoef>
-5.4800

> <Gold.Chemscore.Hbond>
2.5827

> <Gold.Chemscore.Metal>
0.0000

> <Gold.Chemscore.Lipo>
71.4929

> <Gold.Chemscore.Internal_Hbond>
0.0000

> <Gold.Chemscore.DEClash>
0.0029

> <Gold.Chemscore.DEInternal>
1.3860

> <Gold.Chemscore.Rot>
1.3501

> <Gold.Chemscore.Internal.Correction>
   9.000000E+99

> <Gold.Chemscore.Hbonds>
donor molecule, donor type, donor heavy atom, donor atom, acceptor molecule, acceptor atom, score
      L1  H     4    26       P1  7948  0.95
      L1  H     7    27       P1  7948  0.98
      P1  H  7989  7998       L1    10  0.26

> <Gold.Chemscore.Hbond.Weighted>
-8.6261

> <Gold.Chemscore.Metal.Weighted>
-0.0000

> <Gold.Chemscore.Lipo.Weighted>
-8.3647

> <Gold.Chemscore.Internal_Hbond.Weighted>
0.0000

> <Gold.Chemscore.DEClash.Weighted>
0.0029

> <Gold.Chemscore.DEInternal.Weighted>
1.3860

> <Gold.Chemscore.Rot.Weighted>
3.4563

> <Gold.Chemscore.Internal.Correction.Weighted>
   9.000000E+99

> <Gold.Protein.RotatedTorsions>
[ 6907 6896 6895 6894 ] final   77.31 input  -60.11 | X-H torsion
[ 7974 7965 7964 7962 ] final  104.72 input  175.53 | X-H torsion
[ 8008 7997 7996 7995 ] final -126.36 input   59.86 | X-H torsion
[ 10167 10162 10161 10158 ] final   86.31 input  -65.29 | X-H torsion
[ 10718 10713 10712 10709 ] final   37.85 input   66.30 | X-H torsion
[ 10763 10752 10751 10750 ] final  120.57 input  -60.55 | X-H torsion
[ 11005 11000 10999 10996 ] final -116.90 input  -57.11 | X-H torsion

> <Gold.Protein.ActiveResidues>
 VAL166  LYS551  ARG553  GLY616  TRP617  ASP618  TYR619  PRO620  LYS621  CYS622 
 ASP623  PHE694  ASN695  SER759  ASP760  ASP761  ALA762  ILE779  LEU786  VAL792 
 PHE793  MET794  SER795  GLU796  ALA797  LYS798  CYS799  TRP800  GLU811  SER814 

> <Gold.Protein.RotatedAtoms>
  152.5112  134.3836  159.9359 H   0  0  0  0  0  0  0  0  0  0  0  0  # atno 6907 bound_to 6896
  151.3794  133.3820  159.2716 H   0  0  0  0  0  0  0  0  0  0  0  0  # atno 6908 bound_to 6896
  150.9516  134.8935  159.7734 H   0  0  0  0  0  0  0  0  0  0  0  0  # atno 6909 bound_to 6896
  145.3291  139.2491  143.3670 H   0  0  0  0  0  0  0  0  0  0  0  0  # atno 7974 bound_to 7965
  155.2284  140.0424  157.2958 H   0  0  0  0  0  0  0  0  0  0  0  0  # atno 8008 bound_to 7997
  154.5904  140.2425  155.7899 H   0  0  0  0  0  0  0  0  0  0  0  0  # atno 8009 bound_to 7997
  156.2255  140.2956  156.0065 H   0  0  0  0  0  0  0  0  0  0  0  0  # atno 8010 bound_to 7997
  139.8888  144.6397  150.8761 H   0  0  0  0  0  0  0  0  0  0  0  0  # atno 10167 bound_to 10162
  157.3519  130.7603  149.6984 H   0  0  0  0  0  0  0  0  0  0  0  0  # atno 10718 bound_to 10713
  153.6005  135.3449  155.2943 H   0  0  0  0  0  0  0  0  0  0  0  0  # atno 10763 bound_to 10752
  154.8637  135.4226  154.2418 H   0  0  0  0  0  0  0  0  0  0  0  0  # atno 10764 bound_to 10752
  153.3245  135.7040  153.7073 H   0  0  0  0  0  0  0  0  0  0  0  0  # atno 10765 bound_to 10752
  141.0391  133.9864  157.3023 H   0  0  0  0  0  0  0  0  0  0  0  0  # atno 11005 bound_to 11000
  146.3052  140.3865  142.8689 LP  0  0  0  0  0  0  0  0  0  0  0  0  # atno 17320 bound_to 7965
  144.8878  140.7485  143.5946 LP  0  0  0  0  0  0  0  0  0  0  0  0  # atno 17321 bound_to 7965
  140.7730  143.3526  151.1983 LP  0  0  0  0  0  0  0  0  0  0  0  0  # atno 17342 bound_to 10162
  139.7128  143.9348  152.2954 LP  0  0  0  0  0  0  0  0  0  0  0  0  # atno 17343 bound_to 10162
  155.9723  130.4138  150.4101 LP  0  0  0  0  0  0  0  0  0  0  0  0  # atno 17370 bound_to 10713
  157.2165  131.0472  151.2570 LP  0  0  0  0  0  0  0  0  0  0  0  0  # atno 17371 bound_to 10713
  139.9262  135.0201  156.8243 LP  0  0  0  0  0  0  0  0  0  0  0  0  # atno 17394 bound_to 11000
  140.6268  133.9943  155.7643 LP  0  0  0  0  0  0  0  0  0  0  0  0  # atno 17395 bound_to 11000

$$$$
