AV-unprocessed.smi:21|AV-procd|sdf|142|dock5
  -GOLD-   2262015353D 1   1.00000     0.00000
 Structure written by MMmdl.
 62 65  0  0  0  0  0  0  0  0  2 V2000
  145.6138  131.4749  150.3685 C   0  0  0  0  0  0  0  0  0  0  0  0
  144.4580  132.0714  150.9358 O   0  0  0  0  0  0  0  0  0  0  0  0
  144.4969  133.4925  150.9577 C   0  0  2  0  0  0  0  0  0  0  0  0
  145.7552  133.9385  151.6904 C   0  0  0  0  0  0  0  0  0  0  0  0
  145.3783  133.8262  153.1726 C   0  0  1  0  0  0  0  0  0  0  0  0
  146.2551  134.6851  154.1168 C   0  0  0  0  0  0  0  0  0  0  0  0
  147.5829  134.1057  154.3300 N   0  0  0  0  0  0  0  0  0  0  0  0
  147.9705  132.9534  153.5263 C   0  0  0  0  0  0  0  0  0  0  0  0
  148.5373  134.8268  154.9817 C   0  0  0  0  0  0  0  0  0  0  0  0
  149.8088  134.3455  154.9872 N   0  0  0  0  0  0  0  0  0  0  0  0
  150.7881  135.0081  155.6075 C   0  0  0  0  0  0  0  0  0  0  0  0
  150.7193  136.1554  156.2819 N   0  0  0  0  0  0  0  0  0  0  0  0
  149.4484  136.6473  156.2912 C   0  0  0  0  0  0  0  0  0  0  0  0
  148.3077  136.0561  155.6731 C   0  0  0  0  0  0  0  0  0  0  0  0
  147.1889  136.8465  155.9186 N   0  0  0  0  0  0  0  0  0  0  0  0
  147.6413  137.8444  156.6259 C   0  0  0  0  0  0  0  0  0  0  0  0
  148.9901  137.8085  156.8888 N   0  0  0  0  0  0  0  0  0  0  0  0
  149.7475  138.7886  157.6485 C   0  0  0  0  0  0  0  0  0  0  0  0
  151.0841  139.1828  156.9733 C   0  0  1  0  0  0  0  0  0  0  0  0
  150.8420  139.6216  155.5101 C   0  0  0  0  0  0  0  0  0  0  0  0
  152.0636  139.6888  154.8040 O   0  0  0  0  0  0  0  0  0  0  0  0
  151.8906  140.2172  157.8082 C   0  0  2  0  0  0  0  0  0  0  0  0
  152.4107  139.7324  159.1559 C   0  0  0  0  0  0  0  0  0  0  0  0
  152.5398  141.0346  159.9322 C   0  0  0  0  0  0  0  0  0  0  0  0
  151.3748  141.7449  159.5454 O   0  0  0  0  0  0  0  0  0  0  0  0
  151.1451  141.5174  158.1585 C   0  0  0  0  0  0  0  0  0  0  0  0
  143.9103  134.0853  153.2311 N   0  3  1  0  0  0  0  0  0  0  0  0
  143.4530  135.2648  154.0039 C   0  0  0  0  0  0  0  0  0  0  0  0
  143.3847  134.0637  151.8446 C   0  0  0  0  0  0  0  0  0  0  0  0
  144.4729  133.8954  149.9437 H   0  0  0  0  0  0  0  0  0  0  0  0
  145.4901  132.7803  153.4623 H   0  0  0  0  0  0  0  0  0  0  0  0
  145.5121  130.3901  150.3941 H   0  0  0  0  0  0  0  0  0  0  0  0
  146.5097  131.7384  150.9321 H   0  0  0  0  0  0  0  0  0  0  0  0
  145.7561  131.7714  149.3295 H   0  0  0  0  0  0  0  0  0  0  0  0
  146.6314  133.3452  151.4264 H   0  0  0  0  0  0  0  0  0  0  0  0
  145.9700  134.9782  151.4392 H   0  0  0  0  0  0  0  0  0  0  0  0
  146.3213  135.7102  153.7531 H   0  0  0  0  0  0  0  0  0  0  0  0
  145.7789  134.7516  155.0953 H   0  0  0  0  0  0  0  0  0  0  0  0
  148.6890  132.3293  154.0589 H   0  0  0  0  0  0  0  0  0  0  0  0
  148.4116  133.2728  152.5818 H   0  0  0  0  0  0  0  0  0  0  0  0
  147.1029  132.3339  153.2987 H   0  0  0  0  0  0  0  0  0  0  0  0
  151.7670  134.5547  155.5553 H   0  0  0  0  0  0  0  0  0  0  0  0
  147.0009  138.6415  156.9754 H   0  0  0  0  0  0  0  0  0  0  0  0
  149.1117  139.6651  157.7773 H   0  0  0  0  0  0  0  0  0  0  0  0
  149.9315  138.3955  158.6487 H   0  0  0  0  0  0  0  0  0  0  0  0
  151.7030  138.2846  156.9370 H   0  0  0  0  0  0  0  0  0  0  0  0
  150.1786  138.9268  154.9949 H   0  0  0  0  0  0  0  0  0  0  0  0
  150.3764  140.6046  155.4558 H   0  0  0  0  0  0  0  0  0  0  0  0
  152.6621  139.0598  155.1775 H   0  0  0  0  0  0  0  0  0  0  0  0
  152.7590  140.5316  157.2285 H   0  0  0  0  0  0  0  0  0  0  0  0
  151.6904  139.0878  159.6581 H   0  0  0  0  0  0  0  0  0  0  0  0
  153.3538  139.1913  159.0809 H   0  0  0  0  0  0  0  0  0  0  0  0
  152.5808  140.8825  161.0109 H   0  0  0  0  0  0  0  0  0  0  0  0
  153.4285  141.5882  159.6243 H   0  0  0  0  0  0  0  0  0  0  0  0
  151.5446  142.3528  157.5820 H   0  0  0  0  0  0  0  0  0  0  0  0
  150.0740  141.4735  157.9642 H   0  0  0  0  0  0  0  0  0  0  0  0
  143.8678  136.1898  153.6016 H   0  0  0  0  0  0  0  0  0  0  0  0
  143.7297  135.1818  155.0548 H   0  0  0  0  0  0  0  0  0  0  0  0
  142.3657  135.3391  153.9634 H   0  0  0  0  0  0  0  0  0  0  0  0
  143.1745  135.0842  151.5197 H   0  0  0  0  0  0  0  0  0  0  0  0
  142.4497  133.5075  151.7856 H   0  0  0  0  0  0  0  0  0  0  0  0
  143.5166  133.2793  153.6957 H   0  0  0  0  0  0  0  0  0  0  0  0
  1  2  1  0  0  0  0
  1 32  1  0  0  0  0
  1 33  1  0  0  0  0
  1 34  1  0  0  0  0
  2  3  1  0  0  0  0
  3 30  1  0  0  0  0
  3 29  1  0  0  0  0
  3  4  1  0  0  0  0
  4  5  1  0  0  0  0
  4 35  1  0  0  0  0
  4 36  1  0  0  0  0
  5 31  1  0  0  0  0
  5  6  1  0  0  0  0
  5 27  1  0  0  0  0
  6  7  1  0  0  0  0
  6 37  1  0  0  0  0
  6 38  1  0  0  0  0
  7  8  1  0  0  0  0
  7  9  1  0  0  0  0
  8 39  1  0  0  0  0
  8 40  1  0  0  0  0
  8 41  1  0  0  0  0
  9 14  1  0  0  0  0
  9 10  2  0  0  0  0
 10 11  1  0  0  0  0
 11 12  2  0  0  0  0
 11 42  1  0  0  0  0
 12 13  1  0  0  0  0
 13 17  1  0  0  0  0
 13 14  2  0  0  0  0
 14 15  1  0  0  0  0
 15 16  2  0  0  0  0
 16 17  1  0  0  0  0
 16 43  1  0  0  0  0
 17 18  1  0  0  0  0
 18 19  1  0  0  0  0
 18 44  1  0  0  0  0
 18 45  1  0  0  0  0
 19 20  1  0  0  0  0
 19 22  1  0  0  0  0
 19 46  1  0  0  0  0
 20 21  1  0  0  0  0
 20 47  1  0  0  0  0
 20 48  1  0  0  0  0
 21 49  1  0  0  0  0
 22 26  1  0  0  0  0
 22 23  1  0  0  0  0
 22 50  1  0  0  0  0
 23 24  1  0  0  0  0
 23 51  1  0  0  0  0
 23 52  1  0  0  0  0
 24 25  1  0  0  0  0
 24 53  1  0  0  0  0
 24 54  1  0  0  0  0
 25 26  1  0  0  0  0
 26 55  1  0  0  0  0
 26 56  1  0  0  0  0
 27 28  1  0  0  0  0
 27 29  1  0  0  0  0
 27 62  1  0  0  0  0
 28 57  1  0  0  0  0
 28 58  1  0  0  0  0
 28 59  1  0  0  0  0
 29 60  1  0  0  0  0
 29 61  1  0  0  0  0
M  CHG  1  27   1
M  END
> <s_m_source_file>
AV-unprocessed.smi

> <i_m_source_file_index>
21

> <i_lp_mmshare_version>
43012

> <i_f3d_flags>
0

> <s_epik_input>
W0NIM11PW0NASF0xW0NIMl1bQ0BIXShOKFtDSDNdKVtDSDJdMSlbQ0gyXU4oW0NIM10pYyhuW2NIXW4yKWMoYzIzKW5bY0hdbjNbQ0gyXVtDQEhdKFtDSDJdW09IXSlbQ0BASF00W0NIMl1bQ0gyXU9bQ0gyXTQ=

> <s_epik_cmdline>
J2VwaWtfcHl0aG9uJywgJy1waCcsICc3LjAnLCAnLXRuJywgJzgnLCAnLW1hJywgJzIwMCcsICctbWV0YWxfYmluZGluZycsICctaW1hZScsICc8aW5maWxlLm1hZT4nLCAnLW9tYWUnLCAnPG91dGZpbGUubWFlPic=

> <r_lp_tautomer_probability>
1

> <r_epik_Ionization_Penalty>
0.0157465

> <r_epik_Ionization_Penalty_Charging>
0.015354

> <r_epik_Ionization_Penalty_Neutral>
0.000392529

> <r_epik_State_Penalty>
0.0120612

> <r_epik_Charging_Adjusted_Penalty>
0.0274152

> <i_epik_Tot_Q>
1

> <i_epik_Tot_abs_Q>
1

> <r_epik_Metal_State_Penalty>
0.0121253

> <b_epik_Metal_Only>
0

> <s_lp_Force_Field>
OPLS_2005

> <r_lp_Energy>
62.7223

> <b_lp_Chiralities_Consistent>
1

> <s_lp_Variant>
AV-unprocessed.smi:21-22

> <Gold.Version>
5.8.1

> <Gold.Id.Protein>
6NUR|6NUR_protein|mol2

> <Gold.PLP.Fitness>
43.3078

> <Gold.PLP.PLP>
-35.0221

> <Gold.PLP.part.hbond>
-2.4896

> <Gold.PLP.part.metal>
0.0000

> <Gold.PLP.part.buried>
-7.2134

> <Gold.PLP.part.nonpolar>
-25.9512

> <Gold.PLP.part.repulsive>
0.3365

> <Gold.PLP.ligand.clash>
0.0000

> <Gold.PLP.ligand.torsion>
0.6139

> <Gold.PLP.Chemscore.Hbond>
2.9600

> <Gold.PLP.Chemscore.CHOScore>
0.0000

> <Gold.PLP.Chemscore.Metal>
0.0000

> <Gold.Chemscore.Hbonds>
donor molecule, donor type, donor heavy atom, donor atom, acceptor molecule, acceptor atom, score
      L1  H    27    62       P1 10957  1.92
      P1  H  7989  7998       L1    21  0.86

> <Gold.PLP.Chemscore.Internal.Correction>
0.6335

> <Gold.Rescore>
     Score         DG    S(hbond)    S(metal)    S(lipo)     H(rot)  DE(clash)    DE(int)     intcor
     11.65     -13.37       1.93        0.00      79.57       3.08       0.00       1.72       ----

> <Gold.Chemscore.Fitness>
11.6479

> <Gold.Chemscore.DG>
-13.3684

> <Gold.Chemscore.ZeroCoef>
-5.4800

> <Gold.Chemscore.Hbond>
1.9320

> <Gold.Chemscore.Metal>
0.0000

> <Gold.Chemscore.Lipo>
79.5695

> <Gold.Chemscore.Internal_Hbond>
0.0000

> <Gold.Chemscore.DEClash>
0.0004

> <Gold.Chemscore.DEInternal>
1.7201

> <Gold.Chemscore.Rot>
3.0758

> <Gold.Chemscore.Internal.Correction>
   9.000000E+99

> <Gold.Chemscore.Hbonds>
donor molecule, donor type, donor heavy atom, donor atom, acceptor molecule, acceptor atom, score
      L1  H    27    62       P1 10957  0.91
      P1  H  7989  7998       L1    21  0.29

> <Gold.Chemscore.Hbond.Weighted>
-6.4529

> <Gold.Chemscore.Metal.Weighted>
-0.0000

> <Gold.Chemscore.Lipo.Weighted>
-9.3096

> <Gold.Chemscore.Internal_Hbond.Weighted>
0.0000

> <Gold.Chemscore.DEClash.Weighted>
0.0004

> <Gold.Chemscore.DEInternal.Weighted>
1.7201

> <Gold.Chemscore.Rot.Weighted>
7.8741

> <Gold.Chemscore.Internal.Correction.Weighted>
   9.000000E+99

> <Gold.Protein.RotatedTorsions>
[ 6907 6896 6895 6894 ] final -108.01 input  -60.11 | X-H torsion
[ 7974 7965 7964 7962 ] final -178.80 input  175.53 | X-H torsion
[ 8008 7997 7996 7995 ] final  -11.43 input   59.86 | X-H torsion
[ 10167 10162 10161 10158 ] final  -77.09 input  -65.29 | X-H torsion
[ 10718 10713 10712 10709 ] final -158.24 input   66.30 | X-H torsion
[ 10763 10752 10751 10750 ] final   11.65 input  -60.55 | X-H torsion
[ 11005 11000 10999 10996 ] final   58.97 input  -57.11 | X-H torsion

> <Gold.Protein.ActiveResidues>
 VAL166  LYS551  ARG553  GLY616  TRP617  ASP618  TYR619  PRO620  LYS621  CYS622 
 ASP623  PHE694  ASN695  SER759  ASP760  ASP761  ALA762  ILE779  LEU786  VAL792 
 PHE793  MET794  SER795  GLU796  ALA797  LYS798  CYS799  TRP800  GLU811  SER814 

> <Gold.Protein.RotatedAtoms>
  150.7477  133.9742  159.3555 H   0  0  0  0  0  0  0  0  0  0  0  0  # atno 6907 bound_to 6896
  151.7678  135.0792  160.0364 H   0  0  0  0  0  0  0  0  0  0  0  0  # atno 6908 bound_to 6896
  152.3360  133.5975  159.5879 H   0  0  0  0  0  0  0  0  0  0  0  0  # atno 6909 bound_to 6896
  144.7133  140.0814  143.6425 H   0  0  0  0  0  0  0  0  0  0  0  0  # atno 7974 bound_to 7965
  154.5466  140.2303  155.8553 H   0  0  0  0  0  0  0  0  0  0  0  0  # atno 8008 bound_to 7997
  156.1908  140.3077  155.9290 H   0  0  0  0  0  0  0  0  0  0  0  0  # atno 8009 bound_to 7997
  155.3153  140.0438  157.3027 H   0  0  0  0  0  0  0  0  0  0  0  0  # atno 8010 bound_to 7997
  140.4800  143.2404  151.8073 H   0  0  0  0  0  0  0  0  0  0  0  0  # atno 10167 bound_to 10162
  156.5514  130.8607  151.2781 H   0  0  0  0  0  0  0  0  0  0  0  0  # atno 10718 bound_to 10713
  153.1904  135.6841  153.8360 H   0  0  0  0  0  0  0  0  0  0  0  0  # atno 10763 bound_to 10752
  153.7661  135.3202  155.3346 H   0  0  0  0  0  0  0  0  0  0  0  0  # atno 10764 bound_to 10752
  154.8114  135.4715  154.0624 H   0  0  0  0  0  0  0  0  0  0  0  0  # atno 10765 bound_to 10752
  140.0338  134.5973  155.9471 H   0  0  0  0  0  0  0  0  0  0  0  0  # atno 11005 bound_to 11000
  145.9699  139.2862  143.1105 LP  0  0  0  0  0  0  0  0  0  0  0  0  # atno 17320 bound_to 7965
  145.9128  140.9168  143.0445 LP  0  0  0  0  0  0  0  0  0  0  0  0  # atno 17321 bound_to 7965
  139.4832  144.4784  151.9337 LP  0  0  0  0  0  0  0  0  0  0  0  0  # atno 17342 bound_to 10162
  140.3870  144.2664  150.5903 LP  0  0  0  0  0  0  0  0  0  0  0  0  # atno 17343 bound_to 10162
  157.7386  130.9817  150.2266 LP  0  0  0  0  0  0  0  0  0  0  0  0  # atno 17370 bound_to 10713
  156.2881  130.3742  149.7869 LP  0  0  0  0  0  0  0  0  0  0  0  0  # atno 17371 bound_to 10713
  141.1846  133.6553  156.5164 LP  0  0  0  0  0  0  0  0  0  0  0  0  # atno 17394 bound_to 11000
  140.4181  134.7212  157.4874 LP  0  0  0  0  0  0  0  0  0  0  0  0  # atno 17395 bound_to 11000

$$$$
