AV-unprocessed.smi:213|AV-procd|sdf|1643|dock3
  -GOLD-   2262020 13D 1   1.00000     0.00000
 Structure written by MMmdl.
 58 61  0  0  0  0  0  0  0  0  1 V2000
  147.1891  135.3116  155.8658 C   0  0  0  0  0  0  0  0  0  0  0  0
  148.1769  135.0584  154.7124 C   0  0  2  0  0  0  0  0  0  0  0  0
  147.8423  133.7703  153.9260 C   0  0  0  0  0  0  0  0  0  0  0  0
  147.1212  133.9667  152.6673 N   0  0  0  0  0  0  0  0  0  0  0  0
  145.8904  134.7197  152.8842 C   0  0  0  0  0  0  0  0  0  0  0  0
  145.1142  134.9452  151.5753 C   0  0  0  0  0  0  0  0  0  0  0  0
  144.8324  133.6887  150.9681 O   0  0  0  0  0  0  0  0  0  0  0  0
  146.0095  132.9360  150.6954 C   0  0  0  0  0  0  0  0  0  0  0  0
  146.7946  132.7078  151.9990 C   0  0  0  0  0  0  0  0  0  0  0  0
  149.5584  135.0290  155.2017 N   0  0  0  0  0  0  0  0  0  0  0  0
  150.4082  133.8600  154.9821 C   0  0  0  0  0  0  0  0  0  0  0  0
  150.0768  136.0717  155.9066 C   0  0  0  0  0  0  0  0  0  0  0  0
  150.4674  135.8402  157.1887 N   0  0  0  0  0  0  0  0  0  0  0  0
  150.9885  136.8205  157.9312 C   0  0  0  0  0  0  0  0  0  0  0  0
  151.2031  138.0935  157.5986 N   0  0  0  0  0  0  0  0  0  0  0  0
  150.8027  138.3420  156.3198 C   0  0  0  0  0  0  0  0  0  0  0  0
  150.2347  137.4020  155.4110 C   0  0  0  0  0  0  0  0  0  0  0  0
  149.9407  138.0419  154.2103 N   0  0  0  0  0  0  0  0  0  0  0  0
  150.3233  139.2752  154.3937 C   0  0  0  0  0  0  0  0  0  0  0  0
  150.8465  139.5439  155.6367 N   0  0  0  0  0  0  0  0  0  0  0  0
  151.3327  140.8238  156.1187 C   0  0  0  0  0  0  0  0  0  0  0  0
  151.9437  140.7465  157.5343 C   0  0  1  0  0  0  0  0  0  0  0  0
  153.0886  139.9216  157.4524 O   0  0  0  0  0  0  0  0  0  0  0  0
  152.3473  142.1133  158.1306 C   0  0  2  0  0  0  0  0  0  0  0  0
  152.9841  142.0370  159.5191 C   0  0  0  0  0  0  0  0  0  0  0  0
  152.7627  143.4298  160.0841 C   0  0  0  0  0  0  0  0  0  0  0  0
  151.6057  143.9847  159.2494 C   0  0  0  0  0  0  0  0  0  0  0  0
  151.2074  142.9155  158.4024 O   0  0  0  0  0  0  0  0  0  0  0  0
  146.1731  135.4383  155.4917 H   0  0  0  0  0  0  0  0  0  0  0  0
  147.4480  136.2171  156.4149 H   0  0  0  0  0  0  0  0  0  0  0  0
  147.1762  134.4853  156.5767 H   0  0  0  0  0  0  0  0  0  0  0  0
  148.0916  135.8810  154.0079 H   0  0  0  0  0  0  0  0  0  0  0  0
  148.7651  133.2229  153.7270 H   0  0  0  0  0  0  0  0  0  0  0  0
  147.2478  133.1220  154.5707 H   0  0  0  0  0  0  0  0  0  0  0  0
  145.2525  134.1900  153.5935 H   0  0  0  0  0  0  0  0  0  0  0  0
  146.1216  135.6857  153.3345 H   0  0  0  0  0  0  0  0  0  0  0  0
  144.1763  135.4638  151.7744 H   0  0  0  0  0  0  0  0  0  0  0  0
  145.6874  135.5699  150.8884 H   0  0  0  0  0  0  0  0  0  0  0  0
  145.7275  131.9816  150.2507 H   0  0  0  0  0  0  0  0  0  0  0  0
  146.6238  133.4617  149.9627 H   0  0  0  0  0  0  0  0  0  0  0  0
  147.7023  132.1559  151.7593 H   0  0  0  0  0  0  0  0  0  0  0  0
  146.2093  132.0747  152.6674 H   0  0  0  0  0  0  0  0  0  0  0  0
  150.9591  133.6051  155.8881 H   0  0  0  0  0  0  0  0  0  0  0  0
  151.1257  134.0560  154.1848 H   0  0  0  0  0  0  0  0  0  0  0  0
  149.8216  132.9870  154.6979 H   0  0  0  0  0  0  0  0  0  0  0  0
  151.2733  136.5454  158.9360 H   0  0  0  0  0  0  0  0  0  0  0  0
  150.2207  140.0292  153.6270 H   0  0  0  0  0  0  0  0  0  0  0  0
  152.0728  141.1930  155.4075 H   0  0  0  0  0  0  0  0  0  0  0  0
  150.5044  141.5337  156.1031 H   0  0  0  0  0  0  0  0  0  0  0  0
  151.2383  140.2573  158.2072 H   0  0  0  0  0  0  0  0  0  0  0  0
  153.0838  139.3271  158.1868 H   0  0  0  0  0  0  0  0  0  0  0  0
  153.0090  142.6493  157.4473 H   0  0  0  0  0  0  0  0  0  0  0  0
  152.4567  141.3054  160.1332 H   0  0  0  0  0  0  0  0  0  0  0  0
  154.0371  141.7557  159.4893 H   0  0  0  0  0  0  0  0  0  0  0  0
  152.5252  143.3953  161.1476 H   0  0  0  0  0  0  0  0  0  0  0  0
  153.6512  144.0491  159.9564 H   0  0  0  0  0  0  0  0  0  0  0  0
  150.7698  144.3191  159.8640 H   0  0  0  0  0  0  0  0  0  0  0  0
  151.9386  144.8254  158.6395 H   0  0  0  0  0  0  0  0  0  0  0  0
  1  2  1  0  0  0  0
  1 29  1  0  0  0  0
  1 30  1  0  0  0  0
  1 31  1  0  0  0  0
  2  3  1  0  0  0  0
  2 10  1  0  0  0  0
  2 32  1  0  0  0  0
  3  4  1  0  0  0  0
  3 33  1  0  0  0  0
  3 34  1  0  0  0  0
  4  9  1  0  0  0  0
  4  5  1  0  0  0  0
  5  6  1  0  0  0  0
  5 35  1  0  0  0  0
  5 36  1  0  0  0  0
  6  7  1  0  0  0  0
  6 37  1  0  0  0  0
  6 38  1  0  0  0  0
  7  8  1  0  0  0  0
  8  9  1  0  0  0  0
  8 39  1  0  0  0  0
  8 40  1  0  0  0  0
  9 41  1  0  0  0  0
  9 42  1  0  0  0  0
 10 11  1  0  0  0  0
 10 12  1  0  0  0  0
 11 43  1  0  0  0  0
 11 44  1  0  0  0  0
 11 45  1  0  0  0  0
 12 17  1  0  0  0  0
 12 13  2  0  0  0  0
 13 14  1  0  0  0  0
 14 15  2  0  0  0  0
 14 46  1  0  0  0  0
 15 16  1  0  0  0  0
 16 20  1  0  0  0  0
 16 17  2  0  0  0  0
 17 18  1  0  0  0  0
 18 19  2  0  0  0  0
 19 20  1  0  0  0  0
 19 47  1  0  0  0  0
 20 21  1  0  0  0  0
 21 22  1  0  0  0  0
 21 48  1  0  0  0  0
 21 49  1  0  0  0  0
 22 23  1  0  0  0  0
 22 24  1  0  0  0  0
 22 50  1  0  0  0  0
 23 51  1  0  0  0  0
 24 28  1  0  0  0  0
 24 25  1  0  0  0  0
 24 52  1  0  0  0  0
 25 26  1  0  0  0  0
 25 53  1  0  0  0  0
 25 54  1  0  0  0  0
 26 27  1  0  0  0  0
 26 55  1  0  0  0  0
 26 56  1  0  0  0  0
 27 28  1  0  0  0  0
 27 57  1  0  0  0  0
 27 58  1  0  0  0  0
M  END
> <s_m_source_file>
AV-unprocessed.smi

> <i_m_source_file_index>
213

> <i_lp_mmshare_version>
43012

> <i_f3d_flags>
0

> <s_epik_input>
W0NIMl0xW0NIMl1PW0NIMl1bQ0gyXU4xW0NIMl1bQ0BASF0oW0NIM10pTihbQ0gzXSljKG5bY0hdbjIpYyhjMjMpbltjSF1uM1tDSDJdW0NASF0oW09IXSlbQ0BASF00W0NIMl1bQ0gyXVtDSDJdTzQ=

> <s_epik_cmdline>
J2VwaWtfcHl0aG9uJywgJy1waCcsICc3LjAnLCAnLXRuJywgJzgnLCAnLW1hJywgJzIwMCcsICctbWV0YWxfYmluZGluZycsICctaW1hZScsICc8aW5maWxlLm1hZT4nLCAnLW9tYWUnLCAnPG91dGZpbGUubWFlPic=

> <r_lp_tautomer_probability>
1

> <r_epik_Ionization_Penalty>
0.423322

> <r_epik_Ionization_Penalty_Charging>
0

> <r_epik_Ionization_Penalty_Neutral>
0.423322

> <r_epik_State_Penalty>
0.569486

> <r_epik_Charging_Adjusted_Penalty>
0.569486

> <i_epik_Tot_Q>
0

> <i_epik_Tot_abs_Q>
0

> <r_epik_Metal_State_Penalty>
0.568671

> <b_epik_Metal_Only>
0

> <s_lp_Force_Field>
OPLS_2005

> <r_lp_Energy>
51.7694

> <b_lp_Chiralities_Consistent>
1

> <s_lp_Variant>
AV-unprocessed.smi:213-11

> <Gold.Version>
5.8.1

> <Gold.Id.Protein>
6NUR|6NUR_protein|mol2

> <Gold.PLP.Fitness>
42.4181

> <Gold.PLP.PLP>
-39.7469

> <Gold.PLP.part.hbond>
-1.0000

> <Gold.PLP.part.metal>
0.0000

> <Gold.PLP.part.buried>
-6.3463

> <Gold.PLP.part.nonpolar>
-34.1352

> <Gold.PLP.part.repulsive>
2.0252

> <Gold.PLP.ligand.clash>
0.0000

> <Gold.PLP.ligand.torsion>
1.8380

> <Gold.PLP.Chemscore.Hbond>
1.0000

> <Gold.PLP.Chemscore.CHOScore>
0.9984

> <Gold.PLP.Chemscore.Metal>
0.0000

> <Gold.Chemscore.Hbonds>
donor molecule, donor type, donor heavy atom, donor atom, acceptor molecule, acceptor atom, score
      P1  H  7997  8009       L1    23  1.00
      L1  C    19    47       P1  7957  0.99

> <Gold.PLP.Chemscore.Internal.Correction>
0.3520

> <Gold.Rescore>
     Score         DG    S(hbond)    S(metal)    S(lipo)     H(rot)  DE(clash)    DE(int)     intcor
      9.03     -12.47       0.98        0.00      91.67       2.74       0.01       3.43       ----

> <Gold.Chemscore.Fitness>
9.0271

> <Gold.Chemscore.DG>
-12.4732

> <Gold.Chemscore.ZeroCoef>
-5.4800

> <Gold.Chemscore.Hbond>
0.9808

> <Gold.Chemscore.Metal>
0.0000

> <Gold.Chemscore.Lipo>
91.6747

> <Gold.Chemscore.Internal_Hbond>
0.0000

> <Gold.Chemscore.DEClash>
0.0121

> <Gold.Chemscore.DEInternal>
3.4340

> <Gold.Chemscore.Rot>
2.7378

> <Gold.Chemscore.Internal.Correction>
   9.000000E+99

> <Gold.Chemscore.Hbonds>
donor molecule, donor type, donor heavy atom, donor atom, acceptor molecule, acceptor atom, score
      P1  H  7997  8009       L1    23  0.54

> <Gold.Chemscore.Hbond.Weighted>
-3.2759

> <Gold.Chemscore.Metal.Weighted>
-0.0000

> <Gold.Chemscore.Lipo.Weighted>
-10.7259

> <Gold.Chemscore.Internal_Hbond.Weighted>
0.0000

> <Gold.Chemscore.DEClash.Weighted>
0.0121

> <Gold.Chemscore.DEInternal.Weighted>
3.4340

> <Gold.Chemscore.Rot.Weighted>
7.0087

> <Gold.Chemscore.Internal.Correction.Weighted>
   9.000000E+99

> <Gold.Protein.RotatedTorsions>
[ 6907 6896 6895 6894 ] final -162.40 input  -60.11 | X-H torsion
[ 7974 7965 7964 7962 ] final   26.50 input  175.53 | X-H torsion
[ 8008 7997 7996 7995 ] final  156.22 input   59.86 | X-H torsion
[ 10167 10162 10161 10158 ] final   -6.72 input  -65.29 | X-H torsion
[ 10718 10713 10712 10709 ] final   70.04 input   66.30 | X-H torsion
[ 10763 10752 10751 10750 ] final  -51.98 input  -60.55 | X-H torsion
[ 11005 11000 10999 10996 ] final -134.27 input  -57.11 | X-H torsion

> <Gold.Protein.ActiveResidues>
 VAL166  LYS551  ARG553  GLY616  TRP617  ASP618  TYR619  PRO620  LYS621  CYS622 
 ASP623  PHE694  ASN695  SER759  ASP760  ASP761  ALA762  ILE779  LEU786  VAL792 
 PHE793  MET794  SER795  GLU796  ALA797  LYS798  CYS799  TRP800  GLU811  SER814 

> <Gold.Protein.RotatedAtoms>
  151.3797  133.3825  159.2708 H   0  0  0  0  0  0  0  0  0  0  0  0  # atno 6907 bound_to 6896
  150.9587  134.8979  159.7727 H   0  0  0  0  0  0  0  0  0  0  0  0  # atno 6908 bound_to 6896
  152.5141  134.3755  159.9385 H   0  0  0  0  0  0  0  0  0  0  0  0  # atno 6909 bound_to 6896
  146.1834  139.7319  142.8884 H   0  0  0  0  0  0  0  0  0  0  0  0  # atno 7974 bound_to 7965
  156.2434  140.1918  156.6922 H   0  0  0  0  0  0  0  0  0  0  0  0  # atno 8008 bound_to 7997
  154.6243  140.0604  156.9680 H   0  0  0  0  0  0  0  0  0  0  0  0  # atno 8009 bound_to 7997
  155.1811  140.3276  155.4377 H   0  0  0  0  0  0  0  0  0  0  0  0  # atno 8010 bound_to 7997
  140.7006  143.6161  150.8657 H   0  0  0  0  0  0  0  0  0  0  0  0  # atno 10167 bound_to 10162
  157.6379  130.9457  150.0597 H   0  0  0  0  0  0  0  0  0  0  0  0  # atno 10718 bound_to 10713
  154.1354  135.6513  153.4930 H   0  0  0  0  0  0  0  0  0  0  0  0  # atno 10763 bound_to 10752
  153.0182  135.5302  154.6959 H   0  0  0  0  0  0  0  0  0  0  0  0  # atno 10764 bound_to 10752
  154.6206  135.2964  155.0301 H   0  0  0  0  0  0  0  0  0  0  0  0  # atno 10765 bound_to 10752
  140.9005  134.1696  157.4463 H   0  0  0  0  0  0  0  0  0  0  0  0  # atno 11005 bound_to 11000
  145.4010  141.0385  143.3070 LP  0  0  0  0  0  0  0  0  0  0  0  0  # atno 17320 bound_to 7965
  144.8354  139.5558  143.6924 LP  0  0  0  0  0  0  0  0  0  0  0  0  # atno 17321 bound_to 7965
  139.9883  143.5875  152.2919 LP  0  0  0  0  0  0  0  0  0  0  0  0  # atno 17342 bound_to 10162
  139.6521  144.7661  151.2128 LP  0  0  0  0  0  0  0  0  0  0  0  0  # atno 17343 bound_to 10162
  156.1633  130.3644  149.9268 LP  0  0  0  0  0  0  0  0  0  0  0  0  # atno 17370 bound_to 10713
  156.7261  130.9025  151.3622 LP  0  0  0  0  0  0  0  0  0  0  0  0  # atno 17371 bound_to 10713
  139.8741  134.9896  156.5465 LP  0  0  0  0  0  0  0  0  0  0  0  0  # atno 17394 bound_to 11000
  140.8235  133.8335  155.8918 LP  0  0  0  0  0  0  0  0  0  0  0  0  # atno 17395 bound_to 11000

$$$$
