AV-unprocessed.smi:2645|AV-procd|sdf|10280|dock3
  -GOLD-   2272014293D 1   1.00000     0.00000
 Structure written by MMmdl.
 50 52  0  0  0  0  0  0  0  0  2 V2000
  144.6909  137.0855  152.3374 O   0  0  0  0  0  0  0  0  0  0  0  0
  145.8767  136.8106  152.1503 C   0  0  0  0  0  0  0  0  0  0  0  0
  146.8770  137.6664  152.4070 N   0  0  0  0  0  0  0  0  0  0  0  0
  146.7004  139.0078  152.9519 C   0  0  0  0  0  0  0  0  0  0  0  0
  147.1943  139.0994  154.4094 C   0  0  0  0  0  0  0  0  0  0  0  0
  148.3903  139.9667  154.5525 N   0  3  0  0  0  0  0  0  0  0  0  0
  148.2942  140.8592  155.7401 C   0  0  0  0  0  0  0  0  0  0  0  0
  149.5427  141.7490  155.8871 C   0  0  0  0  0  0  0  0  0  0  0  0
  150.7320  140.8934  155.9267 N   0  0  0  0  0  0  0  0  0  0  0  0
  151.5035  140.7539  157.0324 C   0  0  0  0  0  0  0  0  0  0  0  0
  152.4372  139.9521  157.0778 O   0  0  0  0  0  0  0  0  0  0  0  0
  151.2320  141.6604  158.2526 C   0  0  0  0  0  0  0  0  0  0  0  0
  151.5024  143.1667  158.0651 C   0  0  0  0  0  0  0  0  0  0  0  0
  152.8226  143.0087  158.8253 C   0  0  0  0  0  0  0  0  0  0  0  0
  152.3480  141.6356  159.3109 C   0  0  0  0  0  0  0  0  0  0  0  0
  150.8838  140.1480  154.6741 C   0  0  0  0  0  0  0  0  0  0  0  0
  149.6745  139.2119  154.5016 C   0  0  0  0  0  0  0  0  0  0  0  0
  146.3402  135.6413  151.6743 N   0  0  0  0  0  0  0  0  0  0  0  0
  145.5936  134.4995  151.2778 C   0  0  0  0  0  0  0  0  0  0  0  0
  146.3645  133.4145  150.8024 C   0  0  0  0  0  0  0  0  0  0  0  0
  145.7171  132.2358  150.3836 C   0  0  0  0  0  0  0  0  0  0  0  0
  144.3137  132.1730  150.4493 C   0  0  0  0  0  0  0  0  0  0  0  0
  143.6215  133.2982  150.9334 C   0  0  0  0  0  0  0  0  0  0  0  0
  144.2399  134.4285  151.3362 N   0  0  0  0  0  0  0  0  0  0  0  0
  147.8238  137.3633  152.2291 H   0  0  0  0  0  0  0  0  0  0  0  0
  147.2174  139.7192  152.3075 H   0  0  0  0  0  0  0  0  0  0  0  0
  145.6403  139.2577  152.9025 H   0  0  0  0  0  0  0  0  0  0  0  0
  146.3829  139.5062  155.0151 H   0  0  0  0  0  0  0  0  0  0  0  0
  147.4138  138.1111  154.8162 H   0  0  0  0  0  0  0  0  0  0  0  0
  147.4070  141.4877  155.6548 H   0  0  0  0  0  0  0  0  0  0  0  0
  148.1679  140.2515  156.6377 H   0  0  0  0  0  0  0  0  0  0  0  0
  149.6192  142.4339  155.0415 H   0  0  0  0  0  0  0  0  0  0  0  0
  149.4410  142.3797  156.7712 H   0  0  0  0  0  0  0  0  0  0  0  0
  150.2367  141.4979  158.6679 H   0  0  0  0  0  0  0  0  0  0  0  0
  151.6223  143.5182  157.0397 H   0  0  0  0  0  0  0  0  0  0  0  0
  150.7811  143.7845  158.6018 H   0  0  0  0  0  0  0  0  0  0  0  0
  153.6855  142.9442  158.1611 H   0  0  0  0  0  0  0  0  0  0  0  0
  152.9772  143.7404  159.6191 H   0  0  0  0  0  0  0  0  0  0  0  0
  151.9578  141.6551  160.3292 H   0  0  0  0  0  0  0  0  0  0  0  0
  153.0910  140.8464  159.1876 H   0  0  0  0  0  0  0  0  0  0  0  0
  150.9248  140.8553  153.8443 H   0  0  0  0  0  0  0  0  0  0  0  0
  151.8106  139.5804  154.6090 H   0  0  0  0  0  0  0  0  0  0  0  0
  149.6818  138.4540  155.2869 H   0  0  0  0  0  0  0  0  0  0  0  0
  149.7680  138.6852  153.5529 H   0  0  0  0  0  0  0  0  0  0  0  0
  147.3420  135.5556  151.5861 H   0  0  0  0  0  0  0  0  0  0  0  0
  147.4422  133.4790  150.7580 H   0  0  0  0  0  0  0  0  0  0  0  0
  146.2885  131.3952  150.0182 H   0  0  0  0  0  0  0  0  0  0  0  0
  143.7814  131.2867  150.1374 H   0  0  0  0  0  0  0  0  0  0  0  0
  142.5434  133.2914  150.9996 H   0  0  0  0  0  0  0  0  0  0  0  0
  148.3914  140.5829  153.7523 H   0  0  0  0  0  0  0  0  0  0  0  0
  1  2  2  0  0  0  0
  2  3  1  0  0  0  0
  2 18  1  0  0  0  0
  3  4  1  0  0  0  0
  3 25  1  0  0  0  0
  4  5  1  0  0  0  0
  4 26  1  0  0  0  0
  4 27  1  0  0  0  0
  5  6  1  0  0  0  0
  5 28  1  0  0  0  0
  5 29  1  0  0  0  0
  6 17  1  0  0  0  0
  6  7  1  0  0  0  0
  6 50  1  0  0  0  0
  7  8  1  0  0  0  0
  7 30  1  0  0  0  0
  7 31  1  0  0  0  0
  8  9  1  0  0  0  0
  8 32  1  0  0  0  0
  8 33  1  0  0  0  0
  9 10  1  0  0  0  0
  9 16  1  0  0  0  0
 10 11  2  0  0  0  0
 10 12  1  0  0  0  0
 12 15  1  0  0  0  0
 12 13  1  0  0  0  0
 12 34  1  0  0  0  0
 13 14  1  0  0  0  0
 13 35  1  0  0  0  0
 13 36  1  0  0  0  0
 14 15  1  0  0  0  0
 14 37  1  0  0  0  0
 14 38  1  0  0  0  0
 15 39  1  0  0  0  0
 15 40  1  0  0  0  0
 16 17  1  0  0  0  0
 16 41  1  0  0  0  0
 16 42  1  0  0  0  0
 17 43  1  0  0  0  0
 17 44  1  0  0  0  0
 18 19  1  0  0  0  0
 18 45  1  0  0  0  0
 19 24  1  0  0  0  0
 19 20  2  0  0  0  0
 20 21  1  0  0  0  0
 20 46  1  0  0  0  0
 21 22  2  0  0  0  0
 21 47  1  0  0  0  0
 22 23  1  0  0  0  0
 22 48  1  0  0  0  0
 23 24  2  0  0  0  0
 23 49  1  0  0  0  0
M  CHG  1   6   1
M  END
> <s_m_source_file>
AV-unprocessed.smi

> <i_m_source_file_index>
2645

> <i_lp_mmshare_version>
43012

> <i_f3d_flags>
0

> <s_epik_input>
bjFbY0hdW2NIXVtjSF1bY0hdYzFbTkhdQyg9TylbTkhdW0NIMl1bQ0gyXU4yW0NIMl1bQ0gyXU4oW0NIMl1bQ0gyXTIpQyg9TylbQ0hdM1tDSDJdW0NIMl1bQ0gyXTM=

> <s_epik_cmdline>
J2VwaWtfcHl0aG9uJywgJy1waCcsICc3LjAnLCAnLXRuJywgJzgnLCAnLW1hJywgJzIwMCcsICctbWV0YWxfYmluZGluZycsICctaW1hZScsICc8aW5maWxlLm1hZT4nLCAnLW9tYWUnLCAnPG91dGZpbGUubWFlPic=

> <r_epik_Ionization_Penalty>
0.58203

> <r_epik_Ionization_Penalty_Charging>
0.581996

> <r_epik_Ionization_Penalty_Neutral>
3.43439e-05

> <r_epik_State_Penalty>
0.594836

> <r_epik_Charging_Adjusted_Penalty>
1.17683

> <i_epik_Tot_Q>
1

> <i_epik_Tot_abs_Q>
1

> <r_epik_Metal_State_Penalty>
0.594839

> <b_epik_Metal_Only>
0

> <s_lp_Force_Field>
OPLS_2005

> <r_lp_Energy>
52.325

> <b_lp_Chiralities_Consistent>
1

> <s_lp_Variant>
AV-unprocessed.smi:2645-2

> <Gold.Version>
5.8.1

> <Gold.Id.Protein>
6NUR|6NUR_protein|mol2

> <Gold.PLP.Fitness>
51.6218

> <Gold.PLP.PLP>
-41.5350

> <Gold.PLP.part.hbond>
-2.7690

> <Gold.PLP.part.metal>
0.0000

> <Gold.PLP.part.buried>
-1.5709

> <Gold.PLP.part.nonpolar>
-37.6883

> <Gold.PLP.part.repulsive>
0.7668

> <Gold.PLP.ligand.clash>
0.0000

> <Gold.PLP.ligand.torsion>
1.1436

> <Gold.PLP.Chemscore.Hbond>
2.9760

> <Gold.PLP.Chemscore.CHOScore>
1.0000

> <Gold.PLP.Chemscore.Metal>
0.0000

> <Gold.Chemscore.Hbonds>
donor molecule, donor type, donor heavy atom, donor atom, acceptor molecule, acceptor atom, score
      L1  H     3    25       P1  7948  1.00
      L1  H    18    45       P1  7948  1.00
      P1  H  7997  8010       L1    11  1.00
      L1  C    23    49       P1 10186  0.95

> <Gold.PLP.Chemscore.Internal.Correction>
0.4460

> <Gold.Rescore>
     Score         DG    S(hbond)    S(metal)    S(lipo)     H(rot)  DE(clash)    DE(int)     intcor
     19.12     -23.05       2.89        0.00     106.85       1.79       1.38       2.55       ----

> <Gold.Chemscore.Fitness>
19.1231

> <Gold.Chemscore.DG>
-23.0549

> <Gold.Chemscore.ZeroCoef>
-5.4800

> <Gold.Chemscore.Hbond>
2.8906

> <Gold.Chemscore.Metal>
0.0000

> <Gold.Chemscore.Lipo>
106.8467

> <Gold.Chemscore.Internal_Hbond>
0.0000

> <Gold.Chemscore.DEClash>
1.3837

> <Gold.Chemscore.DEInternal>
2.5481

> <Gold.Chemscore.Rot>
1.7894

> <Gold.Chemscore.Internal.Correction>
   9.000000E+99

> <Gold.Chemscore.Hbonds>
donor molecule, donor type, donor heavy atom, donor atom, acceptor molecule, acceptor atom, score
      L1  H     3    25       P1  7948  0.97
      L1  H    18    45       P1  7948  0.94
      P1  H  7997  8010       L1    11  0.97

> <Gold.Chemscore.Hbond.Weighted>
-9.6546

> <Gold.Chemscore.Metal.Weighted>
-0.0000

> <Gold.Chemscore.Lipo.Weighted>
-12.5011

> <Gold.Chemscore.Internal_Hbond.Weighted>
0.0000

> <Gold.Chemscore.DEClash.Weighted>
1.3837

> <Gold.Chemscore.DEInternal.Weighted>
2.5481

> <Gold.Chemscore.Rot.Weighted>
4.5807

> <Gold.Chemscore.Internal.Correction.Weighted>
   9.000000E+99

> <Gold.Protein.RotatedTorsions>
[ 6907 6896 6895 6894 ] final  -30.65 input  -60.11 | X-H torsion
[ 7974 7965 7964 7962 ] final   30.20 input  175.53 | X-H torsion
[ 8008 7997 7996 7995 ] final   60.73 input   59.86 | X-H torsion
[ 10167 10162 10161 10158 ] final -137.81 input  -65.29 | X-H torsion
[ 10718 10713 10712 10709 ] final -119.41 input   66.30 | X-H torsion
[ 10763 10752 10751 10750 ] final   59.53 input  -60.55 | X-H torsion
[ 11005 11000 10999 10996 ] final  -63.87 input  -57.11 | X-H torsion

> <Gold.Protein.ActiveResidues>
 VAL166  LYS551  ARG553  GLY616  TRP617  ASP618  TYR619  PRO620  LYS621  CYS622 
 ASP623  PHE694  ASN695  SER759  ASP760  ASP761  ALA762  ILE779  LEU786  VAL792 
 PHE793  MET794  SER795  GLU796  ALA797  LYS798  CYS799  TRP800  GLU811  SER814 

> <Gold.Protein.RotatedAtoms>
  151.1027  134.9981  159.8455 H   0  0  0  0  0  0  0  0  0  0  0  0  # atno 6907 bound_to 6896
  152.5438  134.1931  159.8692 H   0  0  0  0  0  0  0  0  0  0  0  0  # atno 6908 bound_to 6896
  151.1975  133.4586  159.2629 H   0  0  0  0  0  0  0  0  0  0  0  0  # atno 6909 bound_to 6896
  146.1626  139.6820  142.9023 H   0  0  0  0  0  0  0  0  0  0  0  0  # atno 7974 bound_to 7965
  155.5870  140.3492  155.4556 H   0  0  0  0  0  0  0  0  0  0  0  0  # atno 8008 bound_to 7997
  156.0330  140.1279  157.0263 H   0  0  0  0  0  0  0  0  0  0  0  0  # atno 8009 bound_to 7997
  154.4360  140.1039  156.6113 H   0  0  0  0  0  0  0  0  0  0  0  0  # atno 8010 bound_to 7997
  139.8541  143.7161  152.2655 H   0  0  0  0  0  0  0  0  0  0  0  0  # atno 10167 bound_to 10162
  156.1179  130.6300  150.9413 H   0  0  0  0  0  0  0  0  0  0  0  0  # atno 10718 bound_to 10713
  152.9897  135.5568  154.5728 H   0  0  0  0  0  0  0  0  0  0  0  0  # atno 10763 bound_to 10752
  154.5125  135.2803  155.1333 H   0  0  0  0  0  0  0  0  0  0  0  0  # atno 10764 bound_to 10752
  154.2719  135.6361  153.5366 H   0  0  0  0  0  0  0  0  0  0  0  0  # atno 10765 bound_to 10752
  141.1407  133.6658  156.5747 H   0  0  0  0  0  0  0  0  0  0  0  0  # atno 11005 bound_to 11000
  145.4549  141.0430  143.2783 LP  0  0  0  0  0  0  0  0  0  0  0  0  # atno 17320 bound_to 7965
  144.8048  139.6072  143.7056 LP  0  0  0  0  0  0  0  0  0  0  0  0  # atno 17321 bound_to 7965
  139.7437  144.7553  151.0613 LP  0  0  0  0  0  0  0  0  0  0  0  0  # atno 17342 bound_to 10162
  140.7784  143.4942  150.9854 LP  0  0  0  0  0  0  0  0  0  0  0  0  # atno 17343 bound_to 10162
  157.6362  131.0915  150.8343 LP  0  0  0  0  0  0  0  0  0  0  0  0  # atno 17370 bound_to 10713
  156.8444  130.5059  149.5318 LP  0  0  0  0  0  0  0  0  0  0  0  0  # atno 17371 bound_to 10713
  140.3885  134.7461  157.4706 LP  0  0  0  0  0  0  0  0  0  0  0  0  # atno 17394 bound_to 11000
  140.0584  134.6031  155.8778 LP  0  0  0  0  0  0  0  0  0  0  0  0  # atno 17395 bound_to 11000

$$$$
