AV-unprocessed.smi:3062|AV-procd|sdf|11684|dock3
  -GOLD-   2272017 93D 1   1.00000     0.00000
 Structure written by MMmdl.
 39 40  0  0  0  0  0  0  0  0  1 V2000
  154.7405  135.5707  163.1558 C   0  0  0  0  0  0  0  0  0  0  0  0
  154.5258  136.2467  161.8283 C   0  0  0  0  0  0  0  0  0  0  0  0
  154.1667  137.4880  161.8601 N   0  0  0  0  0  0  0  0  0  0  0  0
  153.9462  138.2030  160.6998 N   0  0  0  0  0  0  0  0  0  0  0  0
  153.5430  139.5958  160.9273 C   0  0  0  0  0  0  0  0  0  0  0  0
  154.5844  140.3777  161.7583 C   0  0  1  0  0  0  0  0  0  0  0  0
  155.6547  140.7995  160.9373 O   0  0  0  0  0  0  0  0  0  0  0  0
  153.9961  141.6264  162.4355 C   0  0  0  0  0  0  0  0  0  0  0  0
  152.9227  142.1317  161.6583 O   0  0  0  0  0  0  0  0  0  0  0  0
  153.3357  142.6269  160.3956 C   0  0  0  0  0  0  0  0  0  0  0  0
  152.1504  143.2606  159.7359 C   0  0  0  0  0  0  0  0  0  0  0  0
  152.0168  144.5808  159.3878 C   0  0  0  0  0  0  0  0  0  0  0  0
  150.7626  144.8809  158.7792 C   0  0  0  0  0  0  0  0  0  0  0  0
  149.9486  143.7852  158.6718 C   0  0  0  0  0  0  0  0  0  0  0  0
  150.7086  142.3588  159.3215 S   0  0  0  0  0  0  0  0  0  0  0  0
  154.0802  137.6994  159.4397 C   0  0  0  0  0  0  0  0  0  0  0  0
  153.8720  138.3750  158.4306 O   0  0  0  0  0  0  0  0  0  0  0  0
  154.4869  136.2926  159.4103 C   0  0  0  0  0  0  0  0  0  0  0  0
  154.6418  135.7254  158.1096 C   0  0  0  0  0  0  0  0  0  0  0  0
  154.7474  135.2696  157.0506 N   0  0  0  0  0  0  0  0  0  0  0  0
  154.7025  135.5781  160.5431 C   0  0  0  0  0  0  0  0  0  0  0  0
  155.1272  134.1160  160.5660 C   0  0  0  0  0  0  0  0  0  0  0  0
  155.7378  135.1346  163.2119 H   0  0  0  0  0  0  0  0  0  0  0  0
  154.0124  134.7732  163.3047 H   0  0  0  0  0  0  0  0  0  0  0  0
  154.6413  136.2685  163.9889 H   0  0  0  0  0  0  0  0  0  0  0  0
  153.3524  140.1047  159.9801 H   0  0  0  0  0  0  0  0  0  0  0  0
  152.5826  139.6014  161.4457 H   0  0  0  0  0  0  0  0  0  0  0  0
  155.0035  139.7409  162.5380 H   0  0  0  0  0  0  0  0  0  0  0  0
  155.5702  140.3744  160.0975 H   0  0  0  0  0  0  0  0  0  0  0  0
  153.6195  141.3544  163.4227 H   0  0  0  0  0  0  0  0  0  0  0  0
  154.7636  142.3882  162.5834 H   0  0  0  0  0  0  0  0  0  0  0  0
  154.1314  143.3628  160.5176 H   0  0  0  0  0  0  0  0  0  0  0  0
  153.7205  141.8145  159.7772 H   0  0  0  0  0  0  0  0  0  0  0  0
  152.7719  145.3364  159.5472 H   0  0  0  0  0  0  0  0  0  0  0  0
  150.5049  145.8757  158.4464 H   0  0  0  0  0  0  0  0  0  0  0  0
  148.9540  143.7285  158.2543 H   0  0  0  0  0  0  0  0  0  0  0  0
  155.1358  133.6732  159.5704 H   0  0  0  0  0  0  0  0  0  0  0  0
  154.4448  133.5244  161.1773 H   0  0  0  0  0  0  0  0  0  0  0  0
  156.1317  134.0194  160.9793 H   0  0  0  0  0  0  0  0  0  0  0  0
  1  2  1  0  0  0  0
  1 23  1  0  0  0  0
  1 24  1  0  0  0  0
  1 25  1  0  0  0  0
  2 21  1  0  0  0  0
  2  3  2  0  0  0  0
  3  4  1  0  0  0  0
  4  5  1  0  0  0  0
  4 16  1  0  0  0  0
  5  6  1  0  0  0  0
  5 26  1  0  0  0  0
  5 27  1  0  0  0  0
  6  7  1  0  0  0  0
  6  8  1  0  0  0  0
  6 28  1  0  0  0  0
  7 29  1  0  0  0  0
  8  9  1  0  0  0  0
  8 30  1  0  0  0  0
  8 31  1  0  0  0  0
  9 10  1  0  0  0  0
 10 11  1  0  0  0  0
 10 32  1  0  0  0  0
 10 33  1  0  0  0  0
 11 15  1  0  0  0  0
 11 12  2  0  0  0  0
 12 13  1  0  0  0  0
 12 34  1  0  0  0  0
 13 14  2  0  0  0  0
 13 35  1  0  0  0  0
 14 15  1  0  0  0  0
 14 36  1  0  0  0  0
 16 17  2  0  0  0  0
 16 18  1  0  0  0  0
 18 19  1  0  0  0  0
 18 21  2  0  0  0  0
 19 20  3  0  0  0  0
 21 22  1  0  0  0  0
 22 37  1  0  0  0  0
 22 38  1  0  0  0  0
 22 39  1  0  0  0  0
M  END
> <s_m_source_file>
AV-unprocessed.smi

> <i_m_source_file_index>
3062

> <i_lp_mmshare_version>
43012

> <i_f3d_flags>
0

> <s_epik_input>
TiNDYyhjMVtDSDNdKWMoPU8pbihuYzFbQ0gzXSlbQ0gyXVtDQEhdKFtPSF0pW0NIMl1PW0NIMl1jMltjSF1bY0hdW2NIXXMy

> <s_epik_cmdline>
J2VwaWtfcHl0aG9uJywgJy1waCcsICc3LjAnLCAnLXRuJywgJzgnLCAnLW1hJywgJzIwMCcsICctbWV0YWxfYmluZGluZycsICctaW1hZScsICc8aW5maWxlLm1hZT4nLCAnLW9tYWUnLCAnPG91dGZpbGUubWFlPic=

> <r_lp_tautomer_probability>
1

> <r_epik_Ionization_Penalty>
6.86395e-08

> <r_epik_Ionization_Penalty_Charging>
2.24757e-10

> <r_epik_Ionization_Penalty_Neutral>
6.84147e-08

> <r_epik_State_Penalty>
-0

> <r_epik_Charging_Adjusted_Penalty>
2.24757e-10

> <i_epik_Tot_Q>
0

> <i_epik_Tot_abs_Q>
0

> <r_epik_Metal_State_Penalty>
-0

> <b_epik_Metal_Only>
0

> <s_lp_Force_Field>
OPLS_2005

> <r_lp_Energy>
25.5383

> <b_lp_Chiralities_Consistent>
1

> <s_lp_Variant>
AV-unprocessed.smi:3062-2

> <Gold.Version>
5.8.1

> <Gold.Id.Protein>
6NUR|6NUR_protein|mol2

> <Gold.PLP.Fitness>
45.0510

> <Gold.PLP.PLP>
-37.2452

> <Gold.PLP.part.hbond>
-3.0000

> <Gold.PLP.part.metal>
0.0000

> <Gold.PLP.part.buried>
-2.8532

> <Gold.PLP.part.nonpolar>
-30.9669

> <Gold.PLP.part.repulsive>
0.0291

> <Gold.PLP.ligand.clash>
0.0000

> <Gold.PLP.ligand.torsion>
0.6352

> <Gold.PLP.Chemscore.Hbond>
2.0000

> <Gold.PLP.Chemscore.CHOScore>
1.0000

> <Gold.PLP.Chemscore.Metal>
0.0000

> <Gold.Chemscore.Hbonds>
donor molecule, donor type, donor heavy atom, donor atom, acceptor molecule, acceptor atom, score
      P1  H  7997  8009       L1    17  0.46
      P1  H 10752 10763       L1    20  1.00
      L1  C    14    36       P1  8028  0.14
      L1  C    14    36       P1  8029  0.42

> <Gold.PLP.Chemscore.Internal.Correction>
0.0763

> <Gold.Rescore>
     Score         DG    S(hbond)    S(metal)    S(lipo)     H(rot)  DE(clash)    DE(int)     intcor
     17.29     -19.18       1.95        0.00     116.32       2.51       1.16       0.72       ----

> <Gold.Chemscore.Fitness>
17.2941

> <Gold.Chemscore.DG>
-19.1778

> <Gold.Chemscore.ZeroCoef>
-5.4800

> <Gold.Chemscore.Hbond>
1.9518

> <Gold.Chemscore.Metal>
0.0000

> <Gold.Chemscore.Lipo>
116.3188

> <Gold.Chemscore.Internal_Hbond>
0.0000

> <Gold.Chemscore.DEClash>
1.1624

> <Gold.Chemscore.DEInternal>
0.7214

> <Gold.Chemscore.Rot>
2.5119

> <Gold.Chemscore.Internal.Correction>
   9.000000E+99

> <Gold.Chemscore.Hbonds>
donor molecule, donor type, donor heavy atom, donor atom, acceptor molecule, acceptor atom, score
      P1  H  7997  8009       L1    17  0.45
      P1  H 10752 10763       L1    20  1.00

> <Gold.Chemscore.Hbond.Weighted>
-6.5190

> <Gold.Chemscore.Metal.Weighted>
-0.0000

> <Gold.Chemscore.Lipo.Weighted>
-13.6093

> <Gold.Chemscore.Internal_Hbond.Weighted>
0.0000

> <Gold.Chemscore.DEClash.Weighted>
1.1624

> <Gold.Chemscore.DEInternal.Weighted>
0.7214

> <Gold.Chemscore.Rot.Weighted>
6.4305

> <Gold.Chemscore.Internal.Correction.Weighted>
   9.000000E+99

> <Gold.Protein.RotatedTorsions>
[ 6907 6896 6895 6894 ] final  -56.54 input  -60.11 | X-H torsion
[ 7974 7965 7964 7962 ] final  -99.74 input  175.53 | X-H torsion
[ 8008 7997 7996 7995 ] final  133.06 input   59.86 | X-H torsion
[ 10167 10162 10161 10158 ] final   73.02 input  -65.29 | X-H torsion
[ 10718 10713 10712 10709 ] final  -99.77 input   66.30 | X-H torsion
[ 10763 10752 10751 10750 ] final  153.04 input  -60.55 | X-H torsion
[ 11005 11000 10999 10996 ] final  -41.96 input  -57.11 | X-H torsion

> <Gold.Protein.ActiveResidues>
 VAL166  LYS551  ARG553  GLY616  TRP617  ASP618  TYR619  PRO620  LYS621  CYS622 
 ASP623  PHE694  ASN695  SER759  ASP760  ASP761  ALA762  ILE779  LEU786  VAL792 
 PHE793  MET794  SER795  GLU796  ALA797  LYS798  CYS799  TRP800  GLU811  SER814 

> <Gold.Protein.RotatedAtoms>
  150.8159  134.7341  159.6729 H   0  0  0  0  0  0  0  0  0  0  0  0  # atno 6907 bound_to 6896
  152.4278  134.5832  159.9963 H   0  0  0  0  0  0  0  0  0  0  0  0  # atno 6908 bound_to 6896
  151.6029  133.3317  159.3087 H   0  0  0  0  0  0  0  0  0  0  0  0  # atno 6909 bound_to 6896
  145.3037  140.9383  143.2809 H   0  0  0  0  0  0  0  0  0  0  0  0  # atno 7974 bound_to 7965
  156.2989  140.2531  156.3191 H   0  0  0  0  0  0  0  0  0  0  0  0  # atno 8008 bound_to 7997
  154.9253  140.0399  157.2038 H   0  0  0  0  0  0  0  0  0  0  0  0  # atno 8009 bound_to 7997
  154.8271  140.2869  155.5751 H   0  0  0  0  0  0  0  0  0  0  0  0  # atno 8010 bound_to 7997
  140.0290  144.5480  150.7522 H   0  0  0  0  0  0  0  0  0  0  0  0  # atno 10167 bound_to 10162
  156.0143  130.5297  150.6719 H   0  0  0  0  0  0  0  0  0  0  0  0  # atno 10718 bound_to 10713
  154.1297  135.2827  155.3188 H   0  0  0  0  0  0  0  0  0  0  0  0  # atno 10763 bound_to 10752
  154.6364  135.5417  153.7742 H   0  0  0  0  0  0  0  0  0  0  0  0  # atno 10764 bound_to 10752
  153.0285  135.6475  154.1448 H   0  0  0  0  0  0  0  0  0  0  0  0  # atno 10765 bound_to 10752
  141.0282  133.6832  156.2528 H   0  0  0  0  0  0  0  0  0  0  0  0  # atno 11005 bound_to 11000
  144.9073  139.4573  143.6604 LP  0  0  0  0  0  0  0  0  0  0  0  0  # atno 17320 bound_to 7965
  146.3143  139.7860  142.8996 LP  0  0  0  0  0  0  0  0  0  0  0  0  # atno 17321 bound_to 7965
  140.7310  143.2689  151.3951 LP  0  0  0  0  0  0  0  0  0  0  0  0  # atno 17342 bound_to 10162
  139.6089  144.1140  152.2278 LP  0  0  0  0  0  0  0  0  0  0  0  0  # atno 17343 bound_to 10162
  157.4439  131.0864  151.0915 LP  0  0  0  0  0  0  0  0  0  0  0  0  # atno 17370 bound_to 10713
  157.1451  130.6159  149.5566 LP  0  0  0  0  0  0  0  0  0  0  0  0  # atno 17371 bound_to 10713
  140.6454  134.5123  157.5573 LP  0  0  0  0  0  0  0  0  0  0  0  0  # atno 17394 bound_to 11000
  139.9190  134.8187  156.1272 LP  0  0  0  0  0  0  0  0  0  0  0  0  # atno 17395 bound_to 11000

$$$$
