AV-unprocessed.smi:1982|AV-procd|sdf|8027|dock8
  -GOLD-   2272010223D 1   1.00000     0.00000
 Structure written by MMmdl.
 36 37  0  0  0  0  0  0  0  0  1 V2000
  145.8753  132.3311  149.8690 C   0  0  0  0  0  0  0  0  0  0  0  0
  146.1589  133.4203  150.9189 C   0  0  1  0  0  0  0  0  0  0  0  0
  145.3085  134.6714  150.6148 C   0  0  0  0  0  0  0  0  0  0  0  0
  145.5600  135.8015  151.6218 C   0  0  0  0  0  0  0  0  0  0  0  0
  145.3054  135.3228  153.0580 C   0  0  0  0  0  0  0  0  0  0  0  0
  146.1423  134.0759  153.4021 C   0  0  2  0  0  0  0  0  0  0  0  0
  147.5609  134.4163  153.5007 N   0  0  0  0  0  0  0  0  0  0  0  0
  148.3682  134.1475  154.5383 C   0  0  0  0  0  0  0  0  0  0  0  0
  147.9843  133.6219  155.5825 O   0  0  0  0  0  0  0  0  0  0  0  0
  149.8401  134.5264  154.3670 C   0  0  0  0  0  0  0  0  0  0  0  0
  150.5890  134.2715  155.5844 N   0  0  0  0  0  0  0  0  0  0  0  0
  150.6371  133.1980  156.3757 C   0  0  0  0  0  0  0  0  0  0  0  0
  151.4783  133.3710  157.3836 N   0  0  0  0  0  0  0  0  0  0  0  0
  151.9661  134.6497  157.1706 N   0  0  0  0  0  0  0  0  0  0  0  0
  151.4419  135.1893  156.1047 N   0  0  0  0  0  0  0  0  0  0  0  0
  145.9207  132.9339  152.3762 C   0  0  2  0  0  0  0  0  0  0  0  0
  146.7565  131.6888  152.7402 C   0  0  0  0  0  0  0  0  0  0  0  0
  144.8578  131.9496  149.9575 H   0  0  0  0  0  0  0  0  0  0  0  0
  146.5601  131.4890  149.9644 H   0  0  0  0  0  0  0  0  0  0  0  0
  145.9953  132.7218  148.8582 H   0  0  0  0  0  0  0  0  0  0  0  0
  147.2085  133.7008  150.8183 H   0  0  0  0  0  0  0  0  0  0  0  0
  145.5234  135.0328  149.6087 H   0  0  0  0  0  0  0  0  0  0  0  0
  144.2499  134.4077  150.6258 H   0  0  0  0  0  0  0  0  0  0  0  0
  146.5851  136.1608  151.5244 H   0  0  0  0  0  0  0  0  0  0  0  0
  144.9144  136.6503  151.3950 H   0  0  0  0  0  0  0  0  0  0  0  0
  145.5133  136.1282  153.7637 H   0  0  0  0  0  0  0  0  0  0  0  0
  144.2470  135.0860  153.1731 H   0  0  0  0  0  0  0  0  0  0  0  0
  145.8096  133.7104  154.3755 H   0  0  0  0  0  0  0  0  0  0  0  0
  147.9721  134.8572  152.6904 H   0  0  0  0  0  0  0  0  0  0  0  0
  150.2755  133.9582  153.5436 H   0  0  0  0  0  0  0  0  0  0  0  0
  149.9304  135.5840  154.1159 H   0  0  0  0  0  0  0  0  0  0  0  0
  150.0659  132.2962  156.2101 H   0  0  0  0  0  0  0  0  0  0  0  0
  144.8723  132.6415  152.4538 H   0  0  0  0  0  0  0  0  0  0  0  0
  147.8205  131.8492  152.5619 H   0  0  0  0  0  0  0  0  0  0  0  0
  146.4510  130.8169  152.1626 H   0  0  0  0  0  0  0  0  0  0  0  0
  146.6331  131.4297  153.7921 H   0  0  0  0  0  0  0  0  0  0  0  0
  1  2  1  0  0  0  0
  1 18  1  0  0  0  0
  1 19  1  0  0  0  0
  1 20  1  0  0  0  0
  2 16  1  0  0  0  0
  2  3  1  0  0  0  0
  2 21  1  0  0  0  0
  3  4  1  0  0  0  0
  3 22  1  0  0  0  0
  3 23  1  0  0  0  0
  4  5  1  0  0  0  0
  4 24  1  0  0  0  0
  4 25  1  0  0  0  0
  5  6  1  0  0  0  0
  5 26  1  0  0  0  0
  5 27  1  0  0  0  0
  6  7  1  0  0  0  0
  6 16  1  0  0  0  0
  6 28  1  0  0  0  0
  7  8  1  0  0  0  0
  7 29  1  0  0  0  0
  8  9  2  0  0  0  0
  8 10  1  0  0  0  0
 10 11  1  0  0  0  0
 10 30  1  0  0  0  0
 10 31  1  0  0  0  0
 11 15  1  0  0  0  0
 11 12  1  0  0  0  0
 12 13  2  0  0  0  0
 12 32  1  0  0  0  0
 13 14  1  0  0  0  0
 14 15  2  0  0  0  0
 16 17  1  0  0  0  0
 16 33  1  0  0  0  0
 17 34  1  0  0  0  0
 17 35  1  0  0  0  0
 17 36  1  0  0  0  0
M  END
> <s_m_source_file>
AV-unprocessed.smi

> <i_m_source_file_index>
1982

> <i_lp_mmshare_version>
43012

> <i_f3d_flags>
0

> <s_epik_input>
W0NIM11bQ0BASF0xW0NIMl1bQ0gyXVtDSDJdW0NASF0oW0NASF0xW0NIM10pW05IXUMoPU8pW0NIMl1uMltjSF1ubm4y

> <s_epik_cmdline>
J2VwaWtfcHl0aG9uJywgJy1waCcsICc3LjAnLCAnLXRuJywgJzgnLCAnLW1hJywgJzIwMCcsICctbWV0YWxfYmluZGluZycsICctaW1hZScsICc8aW5maWxlLm1hZT4nLCAnLW9tYWUnLCAnPG91dGZpbGUubWFlPic=

> <r_lp_tautomer_probability>
1

> <r_epik_Ionization_Penalty>
5.03816e-07

> <r_epik_Ionization_Penalty_Charging>
0

> <r_epik_Ionization_Penalty_Neutral>
5.03816e-07

> <r_epik_State_Penalty>
-0

> <r_epik_Charging_Adjusted_Penalty>
0

> <i_epik_Tot_Q>
0

> <i_epik_Tot_abs_Q>
0

> <r_epik_Metal_State_Penalty>
-0

> <b_epik_Metal_Only>
0

> <s_lp_Force_Field>
OPLS_2005

> <r_lp_Energy>
12.4214

> <b_lp_Chiralities_Consistent>
1

> <s_lp_Variant>
AV-unprocessed.smi:1982-8

> <Gold.Version>
5.8.1

> <Gold.Id.Protein>
6NUR|6NUR_protein|mol2

> <Gold.PLP.Fitness>
33.3257

> <Gold.PLP.PLP>
-26.1081

> <Gold.PLP.part.hbond>
-4.0000

> <Gold.PLP.part.metal>
0.0000

> <Gold.PLP.part.buried>
-2.6218

> <Gold.PLP.part.nonpolar>
-19.1205

> <Gold.PLP.part.repulsive>
0.0264

> <Gold.PLP.ligand.clash>
0.0000

> <Gold.PLP.ligand.torsion>
0.2339

> <Gold.PLP.Chemscore.Hbond>
2.5576

> <Gold.PLP.Chemscore.CHOScore>
0.0000

> <Gold.PLP.Chemscore.Metal>
0.0000

> <Gold.Chemscore.Hbonds>
donor molecule, donor type, donor heavy atom, donor atom, acceptor molecule, acceptor atom, score
      L1  H     7    29       P1  7948  1.00
      P1  H  6896  6907       L1    13  0.58
      P1  H 10752 10763       L1    15  0.90

> <Gold.PLP.Chemscore.Internal.Correction>
0.0126

> <Gold.Rescore>
     Score         DG    S(hbond)    S(metal)    S(lipo)     H(rot)  DE(clash)    DE(int)     intcor
     10.40     -12.23       1.81        0.00      47.79       1.91       0.07       1.77       ----

> <Gold.Chemscore.Fitness>
10.3963

> <Gold.Chemscore.DG>
-12.2274

> <Gold.Chemscore.ZeroCoef>
-5.4800

> <Gold.Chemscore.Hbond>
1.8069

> <Gold.Chemscore.Metal>
0.0000

> <Gold.Chemscore.Lipo>
47.7874

> <Gold.Chemscore.Internal_Hbond>
0.0000

> <Gold.Chemscore.DEClash>
0.0655

> <Gold.Chemscore.DEInternal>
1.7656

> <Gold.Chemscore.Rot>
1.9058

> <Gold.Chemscore.Internal.Correction>
   9.000000E+99

> <Gold.Chemscore.Hbonds>
donor molecule, donor type, donor heavy atom, donor atom, acceptor molecule, acceptor atom, score
      L1  H     7    29       P1  7948  0.83
      P1  H  6896  6907       L1    13  0.13
      P1  H 10752 10763       L1    15  0.15

> <Gold.Chemscore.Hbond.Weighted>
-6.0351

> <Gold.Chemscore.Metal.Weighted>
-0.0000

> <Gold.Chemscore.Lipo.Weighted>
-5.5911

> <Gold.Chemscore.Internal_Hbond.Weighted>
0.0000

> <Gold.Chemscore.DEClash.Weighted>
0.0655

> <Gold.Chemscore.DEInternal.Weighted>
1.7656

> <Gold.Chemscore.Rot.Weighted>
4.8788

> <Gold.Chemscore.Internal.Correction.Weighted>
   9.000000E+99

> <Gold.Protein.RotatedTorsions>
[ 6907 6896 6895 6894 ] final -174.90 input  -60.11 | X-H torsion
[ 7974 7965 7964 7962 ] final -139.93 input  175.53 | X-H torsion
[ 8008 7997 7996 7995 ] final    6.15 input   59.86 | X-H torsion
[ 10167 10162 10161 10158 ] final -168.67 input  -65.29 | X-H torsion
[ 10718 10713 10712 10709 ] final  143.88 input   66.30 | X-H torsion
[ 10763 10752 10751 10750 ] final   89.61 input  -60.55 | X-H torsion
[ 11005 11000 10999 10996 ] final  -17.49 input  -57.11 | X-H torsion

> <Gold.Protein.ActiveResidues>
 VAL166  LYS551  ARG553  GLY616  TRP617  ASP618  TYR619  PRO620  LYS621  CYS622 
 ASP623  PHE694  ASN695  SER759  ASP760  ASP761  ALA762  ILE779  LEU786  VAL792 
 PHE793  MET794  SER795  GLU796  ALA797  LYS798  CYS799  TRP800  GLU811  SER814 

> <Gold.Protein.RotatedAtoms>
  151.5799  133.3379  159.3006 H   0  0  0  0  0  0  0  0  0  0  0  0  # atno 6907 bound_to 6896
  150.8319  134.7579  159.6872 H   0  0  0  0  0  0  0  0  0  0  0  0  # atno 6908 bound_to 6896
  152.4401  134.5614  159.9947 H   0  0  0  0  0  0  0  0  0  0  0  0  # atno 6909 bound_to 6896
  144.8637  140.6260  143.5311 H   0  0  0  0  0  0  0  0  0  0  0  0  # atno 7974 bound_to 7965
  154.7374  140.2742  155.6403 H   0  0  0  0  0  0  0  0  0  0  0  0  # atno 8008 bound_to 7997
  156.2865  140.2704  156.2018 H   0  0  0  0  0  0  0  0  0  0  0  0  # atno 8009 bound_to 7997
  155.0302  140.0371  157.2461 H   0  0  0  0  0  0  0  0  0  0  0  0  # atno 8010 bound_to 7997
  139.5970  144.1090  152.1701 H   0  0  0  0  0  0  0  0  0  0  0  0  # atno 10167 bound_to 10162
  157.3637  131.0969  151.0891 H   0  0  0  0  0  0  0  0  0  0  0  0  # atno 10718 bound_to 10713
  153.1889  135.4464  155.0123 H   0  0  0  0  0  0  0  0  0  0  0  0  # atno 10763 bound_to 10752
  154.8077  135.3281  154.7389 H   0  0  0  0  0  0  0  0  0  0  0  0  # atno 10764 bound_to 10752
  153.7845  135.6975  153.4937 H   0  0  0  0  0  0  0  0  0  0  0  0  # atno 10765 bound_to 10752
  140.8174  133.8094  155.9624 H   0  0  0  0  0  0  0  0  0  0  0  0  # atno 11005 bound_to 11000
  145.4262  139.1556  143.4047 LP  0  0  0  0  0  0  0  0  0  0  0  0  # atno 17320 bound_to 7965
  146.2880  140.4375  142.8750 LP  0  0  0  0  0  0  0  0  0  0  0  0  # atno 17321 bound_to 7965
  140.0678  144.5804  150.7214 LP  0  0  0  0  0  0  0  0  0  0  0  0  # atno 17342 bound_to 10162
  140.7220  143.2598  151.4247 LP  0  0  0  0  0  0  0  0  0  0  0  0  # atno 17343 bound_to 10162
  157.2021  130.6399  149.5742 LP  0  0  0  0  0  0  0  0  0  0  0  0  # atno 17370 bound_to 10713
  155.9742  130.4687  150.6370 LP  0  0  0  0  0  0  0  0  0  0  0  0  # atno 17371 bound_to 10713
  140.9135  134.2231  157.4971 LP  0  0  0  0  0  0  0  0  0  0  0  0  # atno 17394 bound_to 11000
  139.8710  134.9761  156.4907 LP  0  0  0  0  0  0  0  0  0  0  0  0  # atno 17395 bound_to 11000

$$$$
