AV-unprocessed.smi:1959|AV-procd|sdf|7912|dock2
  -GOLD-   2272010 73D 1   1.00000     0.00000
 Structure written by MMmdl.
 44 45  0  0  0  0  0  0  0  0  1 V2000
  151.6789  145.6916  159.7443 C   0  0  0  0  0  0  0  0  0  0  0  0
  152.0862  144.2484  159.7125 C   0  0  0  0  0  0  0  0  0  0  0  0
  152.7630  143.5008  160.7160 C   0  0  0  0  0  0  0  0  0  0  0  0
  152.8959  142.2530  160.1753 C   0  0  0  0  0  0  0  0  0  0  0  0
  153.5329  141.0264  160.7413 C   0  0  0  0  0  0  0  0  0  0  0  0
  152.3163  142.2949  158.9184 N   0  0  0  0  0  0  0  0  0  0  0  0
  152.2108  141.2449  157.9136 C   0  0  0  0  0  0  0  0  0  0  0  0
  150.7715  141.1005  157.4138 C   0  0  0  0  0  0  0  0  0  0  0  0
  149.8741  141.7820  157.9082 O   0  0  0  0  0  0  0  0  0  0  0  0
  150.5734  140.2242  156.4171 N   0  0  0  0  0  0  0  0  0  0  0  0
  149.3350  140.0580  155.6635 C   0  0  2  0  0  0  0  0  0  0  0  0
  149.5227  138.9432  154.6224 C   0  0  0  0  0  0  0  0  0  0  0  0
  148.9525  141.3973  154.9955 C   0  0  0  0  0  0  0  0  0  0  0  0
  147.5190  141.6975  154.9402 N   0  0  0  0  0  0  0  0  0  0  0  0
  146.9791  142.1479  156.2227 C   0  0  0  0  0  0  0  0  0  0  0  0
  145.4874  142.5118  156.1341 C   0  0  0  0  0  0  0  0  0  0  0  0
  145.2908  143.4934  155.1228 O   0  0  0  0  0  0  0  0  0  0  0  0
  145.7471  143.0592  153.8464 C   0  0  0  0  0  0  0  0  0  0  0  0
  147.2436  142.7132  153.9290 C   0  0  0  0  0  0  0  0  0  0  0  0
  151.8184  143.5203  158.6416 N   0  0  0  0  0  0  0  0  0  0  0  0
  150.6091  145.8033  159.5661 H   0  0  0  0  0  0  0  0  0  0  0  0
  152.2069  146.2636  158.9810 H   0  0  0  0  0  0  0  0  0  0  0  0
  151.9031  146.1430  160.7108 H   0  0  0  0  0  0  0  0  0  0  0  0
  153.1052  143.8333  161.6848 H   0  0  0  0  0  0  0  0  0  0  0  0
  153.9197  141.2170  161.7426 H   0  0  0  0  0  0  0  0  0  0  0  0
  154.3652  140.6964  160.1201 H   0  0  0  0  0  0  0  0  0  0  0  0
  152.8136  140.2106  160.8110 H   0  0  0  0  0  0  0  0  0  0  0  0
  152.8718  141.4695  157.0767 H   0  0  0  0  0  0  0  0  0  0  0  0
  152.5536  140.3035  158.3457 H   0  0  0  0  0  0  0  0  0  0  0  0
  151.3724  139.7017  156.0888 H   0  0  0  0  0  0  0  0  0  0  0  0
  148.5261  139.7594  156.3333 H   0  0  0  0  0  0  0  0  0  0  0  0
  148.6068  138.7785  154.0543 H   0  0  0  0  0  0  0  0  0  0  0  0
  149.7837  137.9977  155.0991 H   0  0  0  0  0  0  0  0  0  0  0  0
  150.3146  139.1894  153.9140 H   0  0  0  0  0  0  0  0  0  0  0  0
  149.4935  142.2206  155.4654 H   0  0  0  0  0  0  0  0  0  0  0  0
  149.3191  141.3621  153.9688 H   0  0  0  0  0  0  0  0  0  0  0  0
  147.0889  141.3671  156.9732 H   0  0  0  0  0  0  0  0  0  0  0  0
  147.5419  143.0123  156.5785 H   0  0  0  0  0  0  0  0  0  0  0  0
  144.8874  141.6273  155.9148 H   0  0  0  0  0  0  0  0  0  0  0  0
  145.1381  142.9073  157.0880 H   0  0  0  0  0  0  0  0  0  0  0  0
  145.1665  142.1960  153.5171 H   0  0  0  0  0  0  0  0  0  0  0  0
  145.5813  143.8540  153.1193 H   0  0  0  0  0  0  0  0  0  0  0  0
  147.8088  143.6197  154.1521 H   0  0  0  0  0  0  0  0  0  0  0  0
  147.5849  142.3659  152.9532 H   0  0  0  0  0  0  0  0  0  0  0  0
  1  2  1  0  0  0  0
  1 21  1  0  0  0  0
  1 22  1  0  0  0  0
  1 23  1  0  0  0  0
  2 20  2  0  0  0  0
  2  3  1  0  0  0  0
  3  4  2  0  0  0  0
  3 24  1  0  0  0  0
  4  5  1  0  0  0  0
  4  6  1  0  0  0  0
  5 25  1  0  0  0  0
  5 26  1  0  0  0  0
  5 27  1  0  0  0  0
  6  7  1  0  0  0  0
  6 20  1  0  0  0  0
  7  8  1  0  0  0  0
  7 28  1  0  0  0  0
  7 29  1  0  0  0  0
  8  9  2  0  0  0  0
  8 10  1  0  0  0  0
 10 11  1  0  0  0  0
 10 30  1  0  0  0  0
 11 12  1  0  0  0  0
 11 13  1  0  0  0  0
 11 31  1  0  0  0  0
 12 32  1  0  0  0  0
 12 33  1  0  0  0  0
 12 34  1  0  0  0  0
 13 14  1  0  0  0  0
 13 35  1  0  0  0  0
 13 36  1  0  0  0  0
 14 19  1  0  0  0  0
 14 15  1  0  0  0  0
 15 16  1  0  0  0  0
 15 37  1  0  0  0  0
 15 38  1  0  0  0  0
 16 17  1  0  0  0  0
 16 39  1  0  0  0  0
 16 40  1  0  0  0  0
 17 18  1  0  0  0  0
 18 19  1  0  0  0  0
 18 41  1  0  0  0  0
 18 42  1  0  0  0  0
 19 43  1  0  0  0  0
 19 44  1  0  0  0  0
M  END
> <s_m_source_file>
AV-unprocessed.smi

> <i_m_source_file_index>
1959

> <i_lp_mmshare_version>
43012

> <i_f3d_flags>
0

> <s_epik_input>
W0NIM11jMVtjSF1jKFtDSDNdKW4objEpW0NIMl1DKD1PKVtOSF1bQ0BIXShbQ0gzXSlbQ0gyXU4yW0NIMl1bQ0gyXU9bQ0gyXVtDSDJdMg==

> <s_epik_cmdline>
J2VwaWtfcHl0aG9uJywgJy1waCcsICc3LjAnLCAnLXRuJywgJzgnLCAnLW1hJywgJzIwMCcsICctbWV0YWxfYmluZGluZycsICctaW1hZScsICc8aW5maWxlLm1hZT4nLCAnLW9tYWUnLCAnPG91dGZpbGUubWFlPic=

> <r_lp_tautomer_probability>
1

> <r_epik_Ionization_Penalty>
0.197284

> <r_epik_Ionization_Penalty_Charging>
0

> <r_epik_Ionization_Penalty_Neutral>
0.197284

> <r_epik_State_Penalty>
0.186684

> <r_epik_Charging_Adjusted_Penalty>
0.186684

> <i_epik_Tot_Q>
0

> <i_epik_Tot_abs_Q>
0

> <r_epik_Metal_State_Penalty>
0.186639

> <b_epik_Metal_Only>
0

> <s_lp_Force_Field>
OPLS_2005

> <r_lp_Energy>
23.1408

> <b_lp_Chiralities_Consistent>
1

> <s_lp_Variant>
AV-unprocessed.smi:1959-1

> <Gold.Version>
5.8.1

> <Gold.Id.Protein>
6NUR|6NUR_protein|mol2

> <Gold.PLP.Fitness>
38.2721

> <Gold.PLP.PLP>
-39.6439

> <Gold.PLP.part.hbond>
0.0000

> <Gold.PLP.part.metal>
0.0000

> <Gold.PLP.part.buried>
-6.2500

> <Gold.PLP.part.nonpolar>
-33.8221

> <Gold.PLP.part.repulsive>
0.4582

> <Gold.PLP.ligand.clash>
0.0000

> <Gold.PLP.ligand.torsion>
0.7382

> <Gold.PLP.Chemscore.Hbond>
0.0000

> <Gold.PLP.Chemscore.CHOScore>
0.0000

> <Gold.PLP.Chemscore.Metal>
0.0000

> <Gold.PLP.Chemscore.Internal.Correction>
0.1047

> <Gold.Rescore>
     Score         DG    S(hbond)    S(metal)    S(lipo)     H(rot)  DE(clash)    DE(int)     intcor
     10.76     -12.85       0.00        0.00     100.11       1.70       0.08       2.01       ----

> <Gold.Chemscore.Fitness>
10.7579

> <Gold.Chemscore.DG>
-12.8535

> <Gold.Chemscore.ZeroCoef>
-5.4800

> <Gold.Chemscore.Hbond>
0.0000

> <Gold.Chemscore.Metal>
0.0000

> <Gold.Chemscore.Lipo>
100.1139

> <Gold.Chemscore.Internal_Hbond>
0.0000

> <Gold.Chemscore.DEClash>
0.0825

> <Gold.Chemscore.DEInternal>
2.0131

> <Gold.Chemscore.Rot>
1.6952

> <Gold.Chemscore.Internal.Correction>
   9.000000E+99

> <Gold.Chemscore.Hbond.Weighted>
-0.0000

> <Gold.Chemscore.Metal.Weighted>
-0.0000

> <Gold.Chemscore.Lipo.Weighted>
-11.7133

> <Gold.Chemscore.Internal_Hbond.Weighted>
0.0000

> <Gold.Chemscore.DEClash.Weighted>
0.0825

> <Gold.Chemscore.DEInternal.Weighted>
2.0131

> <Gold.Chemscore.Rot.Weighted>
4.3398

> <Gold.Chemscore.Internal.Correction.Weighted>
   9.000000E+99

> <Gold.Protein.RotatedTorsions>
[ 6907 6896 6895 6894 ] final  165.49 input  -60.11 | X-H torsion
[ 7974 7965 7964 7962 ] final  -94.53 input  175.53 | X-H torsion
[ 8008 7997 7996 7995 ] final   46.92 input   59.86 | X-H torsion
[ 10167 10162 10161 10158 ] final  106.33 input  -65.29 | X-H torsion
[ 10718 10713 10712 10709 ] final  133.80 input   66.30 | X-H torsion
[ 10763 10752 10751 10750 ] final  -44.79 input  -60.55 | X-H torsion
[ 11005 11000 10999 10996 ] final  -10.63 input  -57.11 | X-H torsion

> <Gold.Protein.ActiveResidues>
 VAL166  LYS551  ARG553  GLY616  TRP617  ASP618  TYR619  PRO620  LYS621  CYS622 
 ASP623  PHE694  ASN695  SER759  ASP760  ASP761  ALA762  ILE779  LEU786  VAL792 
 PHE793  MET794  SER795  GLU796  ALA797  LYS798  CYS799  TRP800  GLU811  SER814 

> <Gold.Protein.RotatedAtoms>
  151.8935  133.3521  159.3806 H   0  0  0  0  0  0  0  0  0  0  0  0  # atno 6907 bound_to 6896
  150.7097  134.4899  159.5520 H   0  0  0  0  0  0  0  0  0  0  0  0  # atno 6908 bound_to 6896
  152.2474  134.8167  160.0502 H   0  0  0  0  0  0  0  0  0  0  0  0  # atno 6909 bound_to 6896
  145.3720  140.9506  143.2441 H   0  0  0  0  0  0  0  0  0  0  0  0  # atno 7974 bound_to 7965
  155.3605  140.3418  155.4240 H   0  0  0  0  0  0  0  0  0  0  0  0  # atno 8008 bound_to 7997
  156.1716  140.1633  156.8472 H   0  0  0  0  0  0  0  0  0  0  0  0  # atno 8009 bound_to 7997
  154.5239  140.0760  156.8205 H   0  0  0  0  0  0  0  0  0  0  0  0  # atno 8010 bound_to 7997
  139.7018  144.7093  151.1172 H   0  0  0  0  0  0  0  0  0  0  0  0  # atno 10167 bound_to 10162
  157.4737  131.1081  150.9771 H   0  0  0  0  0  0  0  0  0  0  0  0  # atno 10718 bound_to 10713
  154.0179  135.6673  153.4770 H   0  0  0  0  0  0  0  0  0  0  0  0  # atno 10763 bound_to 10752
  153.0592  135.5037  154.8051 H   0  0  0  0  0  0  0  0  0  0  0  0  # atno 10764 bound_to 10752
  154.6955  135.3069  154.9382 H   0  0  0  0  0  0  0  0  0  0  0  0  # atno 10765 bound_to 10752
  140.7468  133.8625  155.9012 H   0  0  0  0  0  0  0  0  0  0  0  0  # atno 11005 bound_to 11000
  144.8569  139.5236  143.6830 LP  0  0  0  0  0  0  0  0  0  0  0  0  # atno 17320 bound_to 7965
  146.2881  139.7060  142.9181 LP  0  0  0  0  0  0  0  0  0  0  0  0  # atno 17321 bound_to 7965
  140.7711  143.5413  150.9309 LP  0  0  0  0  0  0  0  0  0  0  0  0  # atno 17342 bound_to 10162
  139.9095  143.6738  152.3117 LP  0  0  0  0  0  0  0  0  0  0  0  0  # atno 17343 bound_to 10162
  157.0527  130.5793  149.5373 LP  0  0  0  0  0  0  0  0  0  0  0  0  # atno 17370 bound_to 10713
  156.0086  130.5175  150.7913 LP  0  0  0  0  0  0  0  0  0  0  0  0  # atno 17371 bound_to 10713
  140.9787  134.1434  157.4513 LP  0  0  0  0  0  0  0  0  0  0  0  0  # atno 17394 bound_to 11000
  139.8795  135.0003  156.6004 LP  0  0  0  0  0  0  0  0  0  0  0  0  # atno 17395 bound_to 11000

$$$$
