AV-unprocessed.smi:1762|AV-procd|sdf|7124|dock10
  -GOLD-   22720 8363D 1   1.00000     0.00000
 Structure written by MMmdl.
 52 53  0  0  0  0  0  0  0  0  3 V2000
  157.8105  139.1602  164.6871 C   0  0  0  0  0  0  0  0  0  0  0  0
  156.3655  139.0148  164.1770 C   0  0  1  0  0  0  0  0  0  0  0  0
  156.2498  139.0866  162.6415 C   0  0  0  0  0  0  0  0  0  0  0  0
  156.7582  137.8450  161.9948 N   0  3  2  0  0  0  0  0  0  0  0  0
  156.7448  137.8568  160.4931 C   0  0  2  0  0  0  0  0  0  0  0  0
  155.3447  138.2499  159.9606 C   0  0  0  0  0  0  0  0  0  0  0  0
  154.3897  137.5028  160.1993 O   0  0  0  0  0  0  0  0  0  0  0  0
  155.3855  139.4406  159.3039 N   0  5  0  0  0  0  0  0  0  0  0  0
  155.1415  140.7373  159.9327 C   0  0  0  0  0  0  0  0  0  0  0  0
  153.9279  140.6509  160.8871 C   0  0  0  0  0  0  0  0  0  0  0  0
  153.0369  141.8910  160.9277 C   0  0  0  0  0  0  0  0  0  0  0  0
  152.7456  142.5265  162.1567 C   0  0  0  0  0  0  0  0  0  0  0  0
  151.9089  143.6587  162.1505 C   0  0  0  0  0  0  0  0  0  0  0  0
  151.3884  144.1106  160.9231 C   0  0  0  0  0  0  0  0  0  0  0  0
  151.7289  143.4060  159.7514 C   0  0  0  0  0  0  0  0  0  0  0  0
  152.5294  142.3187  159.7454 N   0  0  0  0  0  0  0  0  0  0  0  0
  157.2523  136.5346  159.8228 C   0  0  0  0  0  0  0  0  0  0  0  0
  157.7340  136.7440  158.3736 C   0  0  0  0  0  0  0  0  0  0  0  0
  156.2542  135.3590  159.8854 C   0  0  0  0  0  0  0  0  0  0  0  0
  156.0420  136.6748  162.5777 C   0  0  0  0  0  0  0  0  0  0  0  0
  156.2163  136.6255  164.1041 C   0  0  2  0  0  0  0  0  0  0  0  0
  155.4360  135.4649  164.7316 C   0  0  0  0  0  0  0  0  0  0  0  0
  155.7326  137.8371  164.6721 O   0  0  0  0  0  0  0  0  0  0  0  0
  158.2191  140.1337  164.4152 H   0  0  0  0  0  0  0  0  0  0  0  0
  158.4757  138.4045  164.2699 H   0  0  0  0  0  0  0  0  0  0  0  0
  157.8500  139.0792  165.7735 H   0  0  0  0  0  0  0  0  0  0  0  0
  155.8022  139.8521  164.5900 H   0  0  0  0  0  0  0  0  0  0  0  0
  155.2073  139.2337  162.3548 H   0  0  0  0  0  0  0  0  0  0  0  0
  156.7946  139.9696  162.3139 H   0  0  0  0  0  0  0  0  0  0  0  0
  157.4645  138.6289  160.2085 H   0  0  0  0  0  0  0  0  0  0  0  0
  156.0142  141.0856  160.4855 H   0  0  0  0  0  0  0  0  0  0  0  0
  154.9334  141.5131  159.1942 H   0  0  0  0  0  0  0  0  0  0  0  0
  153.3106  139.8002  160.5955 H   0  0  0  0  0  0  0  0  0  0  0  0
  154.2711  140.4285  161.8986 H   0  0  0  0  0  0  0  0  0  0  0  0
  153.1633  142.1581  163.0822 H   0  0  0  0  0  0  0  0  0  0  0  0
  151.6706  144.1706  163.0711 H   0  0  0  0  0  0  0  0  0  0  0  0
  150.7439  144.9760  160.8808 H   0  0  0  0  0  0  0  0  0  0  0  0
  151.3457  143.7235  158.7930 H   0  0  0  0  0  0  0  0  0  0  0  0
  158.1503  136.2223  160.3542 H   0  0  0  0  0  0  0  0  0  0  0  0
  156.9096  136.9722  157.6970 H   0  0  0  0  0  0  0  0  0  0  0  0
  158.2267  135.8490  157.9929 H   0  0  0  0  0  0  0  0  0  0  0  0
  158.4505  137.5637  158.3120 H   0  0  0  0  0  0  0  0  0  0  0  0
  155.3852  135.5313  159.2507 H   0  0  0  0  0  0  0  0  0  0  0  0
  155.8933  135.1790  160.8974 H   0  0  0  0  0  0  0  0  0  0  0  0
  156.7236  134.4372  159.5408 H   0  0  0  0  0  0  0  0  0  0  0  0
  154.9834  136.7330  162.3185 H   0  0  0  0  0  0  0  0  0  0  0  0
  156.4114  135.7349  162.1688 H   0  0  0  0  0  0  0  0  0  0  0  0
  157.2706  136.4938  164.3488 H   0  0  0  0  0  0  0  0  0  0  0  0
  155.7736  134.5062  164.3366 H   0  0  0  0  0  0  0  0  0  0  0  0
  154.3679  135.5520  164.5299 H   0  0  0  0  0  0  0  0  0  0  0  0
  155.5707  135.4436  165.8132 H   0  0  0  0  0  0  0  0  0  0  0  0
  157.7287  137.7549  162.2596 H   0  0  0  0  0  0  0  0  0  0  0  0
  1  2  1  0  0  0  0
  1 24  1  0  0  0  0
  1 25  1  0  0  0  0
  1 26  1  0  0  0  0
  2 23  1  0  0  0  0
  2  3  1  0  0  0  0
  2 27  1  0  0  0  0
  3  4  1  0  0  0  0
  3 28  1  0  0  0  0
  3 29  1  0  0  0  0
  4  5  1  0  0  0  0
  4 20  1  0  0  0  0
  4 52  1  0  0  0  0
  5  6  1  0  0  0  0
  5 17  1  0  0  0  0
  5 30  1  0  0  0  0
  6  7  2  0  0  0  0
  6  8  1  0  0  0  0
  8  9  1  0  0  0  0
  9 10  1  0  0  0  0
  9 31  1  0  0  0  0
  9 32  1  0  0  0  0
 10 11  1  0  0  0  0
 10 33  1  0  0  0  0
 10 34  1  0  0  0  0
 11 16  1  0  0  0  0
 11 12  2  0  0  0  0
 12 13  1  0  0  0  0
 12 35  1  0  0  0  0
 13 14  2  0  0  0  0
 13 36  1  0  0  0  0
 14 15  1  0  0  0  0
 14 37  1  0  0  0  0
 15 16  2  0  0  0  0
 15 38  1  0  0  0  0
 17 18  1  0  0  0  0
 17 19  1  0  0  0  0
 17 39  1  0  0  0  0
 18 40  1  0  0  0  0
 18 41  1  0  0  0  0
 18 42  1  0  0  0  0
 19 43  1  0  0  0  0
 19 44  1  0  0  0  0
 19 45  1  0  0  0  0
 20 21  1  0  0  0  0
 20 46  1  0  0  0  0
 20 47  1  0  0  0  0
 21 22  1  0  0  0  0
 21 23  1  0  0  0  0
 21 48  1  0  0  0  0
 22 49  1  0  0  0  0
 22 50  1  0  0  0  0
 22 51  1  0  0  0  0
M  CHG  1   4   1
M  CHG  1   8  -1
M  END
> <s_m_source_file>
AV-unprocessed.smi

> <i_m_source_file_index>
1762

> <i_lp_mmshare_version>
43012

> <i_f3d_flags>
0

> <s_epik_input>
W0NIM11bQ0BASF0xW0NIMl1OKFtDSDJdW0NASF0oTzEpW0NIM10pW0NAQEhdKFtDSF0oW0NIM10pW0NIM10pQyg9TylbTkhdW0NIMl1bQ0gyXWMyW2NIXVtjSF1bY0hdW2NIXW4y

> <s_epik_cmdline>
J2VwaWtfcHl0aG9uJywgJy1waCcsICc3LjAnLCAnLXRuJywgJzgnLCAnLW1hJywgJzIwMCcsICctbWV0YWxfYmluZGluZycsICctaW1hZScsICc8aW5maWxlLm1hZT4nLCAnLW9tYWUnLCAnPG91dGZpbGUubWFlPic=

> <r_epik_Ionization_Penalty>
7.82966

> <r_epik_Ionization_Penalty_Charging>
7.7461

> <r_epik_Ionization_Penalty_Neutral>
0.0835571

> <r_epik_State_Penalty>
8.52273

> <r_epik_Charging_Adjusted_Penalty>
16.2688

> <i_epik_Tot_Q>
0

> <i_epik_Tot_abs_Q>
2

> <r_epik_Metal_State_Penalty>
4.47451

> <b_epik_Metal_Only>
1

> <s_lp_Force_Field>
OPLS_2005

> <r_lp_Energy>
24.9826

> <b_lp_Chiralities_Consistent>
1

> <s_lp_Variant>
AV-unprocessed.smi:1762-26

> <Gold.Version>
5.8.1

> <Gold.Id.Protein>
6NUR|6NUR_protein|mol2

> <Gold.PLP.Fitness>
43.8035

> <Gold.PLP.PLP>
-40.4409

> <Gold.PLP.part.hbond>
-1.0000

> <Gold.PLP.part.metal>
0.0000

> <Gold.PLP.part.buried>
-5.1129

> <Gold.PLP.part.nonpolar>
-33.5833

> <Gold.PLP.part.repulsive>
0.0616

> <Gold.PLP.ligand.clash>
0.0000

> <Gold.PLP.ligand.torsion>
1.4948

> <Gold.PLP.Chemscore.Hbond>
2.0000

> <Gold.PLP.Chemscore.CHOScore>
0.0000

> <Gold.PLP.Chemscore.Metal>
0.0000

> <Gold.Chemscore.Hbonds>
donor molecule, donor type, donor heavy atom, donor atom, acceptor molecule, acceptor atom, score
      P1  H  7997  8009       L1     8  1.90

> <Gold.PLP.Chemscore.Internal.Correction>
0.3521

> <Gold.Rescore>
     Score         DG    S(hbond)    S(metal)    S(lipo)     H(rot)  DE(clash)    DE(int)     intcor
     14.57     -18.53       0.86        0.00     121.90       1.60       0.04       3.92       ----

> <Gold.Chemscore.Fitness>
14.5717

> <Gold.Chemscore.DG>
-18.5281

> <Gold.Chemscore.ZeroCoef>
-5.4800

> <Gold.Chemscore.Hbond>
0.8636

> <Gold.Chemscore.Metal>
0.0000

> <Gold.Chemscore.Lipo>
121.9018

> <Gold.Chemscore.Internal_Hbond>
0.0000

> <Gold.Chemscore.DEClash>
0.0351

> <Gold.Chemscore.DEInternal>
3.9212

> <Gold.Chemscore.Rot>
1.6012

> <Gold.Chemscore.Internal.Correction>
   9.000000E+99

> <Gold.Chemscore.Hbonds>
donor molecule, donor type, donor heavy atom, donor atom, acceptor molecule, acceptor atom, score
      P1  H  7997  8009       L1     8  0.20

> <Gold.Chemscore.Hbond.Weighted>
-2.8846

> <Gold.Chemscore.Metal.Weighted>
-0.0000

> <Gold.Chemscore.Lipo.Weighted>
-14.2625

> <Gold.Chemscore.Internal_Hbond.Weighted>
0.0000

> <Gold.Chemscore.DEClash.Weighted>
0.0351

> <Gold.Chemscore.DEInternal.Weighted>
3.9212

> <Gold.Chemscore.Rot.Weighted>
4.0990

> <Gold.Chemscore.Internal.Correction.Weighted>
   9.000000E+99

> <Gold.Protein.RotatedTorsions>
[ 6907 6896 6895 6894 ] final  -25.32 input  -60.11 | X-H torsion
[ 7974 7965 7964 7962 ] final  140.89 input  175.53 | X-H torsion
[ 8008 7997 7996 7995 ] final  105.71 input   59.86 | X-H torsion
[ 10167 10162 10161 10158 ] final -170.47 input  -65.29 | X-H torsion
[ 10718 10713 10712 10709 ] final  158.70 input   66.30 | X-H torsion
[ 10763 10752 10751 10750 ] final   76.55 input  -60.55 | X-H torsion
[ 11005 11000 10999 10996 ] final   90.76 input  -57.11 | X-H torsion

> <Gold.Protein.ActiveResidues>
 VAL166  LYS551  ARG553  GLY616  TRP617  ASP618  TYR619  PRO620  LYS621  CYS622 
 ASP623  PHE694  ASN695  SER759  ASP760  ASP761  ALA762  ILE779  LEU786  VAL792 
 PHE793  MET794  SER795  GLU796  ALA797  LYS798  CYS799  TRP800  GLU811  SER814 

> <Gold.Protein.RotatedAtoms>
  151.1769  135.0343  159.8775 H   0  0  0  0  0  0  0  0  0  0  0  0  # atno 6907 bound_to 6896
  152.5446  134.1107  159.8367 H   0  0  0  0  0  0  0  0  0  0  0  0  # atno 6908 bound_to 6896
  151.1220  133.5051  159.2634 H   0  0  0  0  0  0  0  0  0  0  0  0  # atno 6909 bound_to 6896
  144.9145  139.5248  143.5693 H   0  0  0  0  0  0  0  0  0  0  0  0  # atno 7974 bound_to 7965
  156.1682  140.3125  155.8927 H   0  0  0  0  0  0  0  0  0  0  0  0  # atno 8008 bound_to 7997
  155.3642  140.0478  157.3063 H   0  0  0  0  0  0  0  0  0  0  0  0  # atno 8009 bound_to 7997
  154.5214  140.2199  155.8980 H   0  0  0  0  0  0  0  0  0  0  0  0  # atno 8010 bound_to 7997
  139.5860  144.1317  152.1576 H   0  0  0  0  0  0  0  0  0  0  0  0  # atno 10167 bound_to 10162
  157.1742  131.0617  151.2166 H   0  0  0  0  0  0  0  0  0  0  0  0  # atno 10718 bound_to 10713
  153.0733  135.4947  154.8351 H   0  0  0  0  0  0  0  0  0  0  0  0  # atno 10763 bound_to 10752
  154.7053  135.3009  154.9282 H   0  0  0  0  0  0  0  0  0  0  0  0  # atno 10764 bound_to 10752
  153.9993  135.6768  153.4811 H   0  0  0  0  0  0  0  0  0  0  0  0  # atno 10765 bound_to 10752
  139.8850  134.8633  156.3331 H   0  0  0  0  0  0  0  0  0  0  0  0  # atno 11005 bound_to 11000
  146.3175  139.7977  142.8972 LP  0  0  0  0  0  0  0  0  0  0  0  0  # atno 17320 bound_to 7965
  145.3398  141.0285  143.3399 LP  0  0  0  0  0  0  0  0  0  0  0  0  # atno 17321 bound_to 7965
  140.0881  144.5644  150.7074 LP  0  0  0  0  0  0  0  0  0  0  0  0  # atno 17342 bound_to 10162
  140.7132  143.2522  151.4518 LP  0  0  0  0  0  0  0  0  0  0  0  0  # atno 17343 bound_to 10162
  157.4014  130.7335  149.6770 LP  0  0  0  0  0  0  0  0  0  0  0  0  # atno 17370 bound_to 10713
  155.9734  130.4120  150.4008 LP  0  0  0  0  0  0  0  0  0  0  0  0  # atno 17371 bound_to 10713
  140.9709  133.7328  156.0534 LP  0  0  0  0  0  0  0  0  0  0  0  0  # atno 17394 bound_to 11000
  140.7871  134.3659  157.5473 LP  0  0  0  0  0  0  0  0  0  0  0  0  # atno 17395 bound_to 11000

$$$$
