AV-unprocessed.smi:299|AV-procd|sdf|2265|dock8
  -GOLD-   2262022153D 1   1.00000     0.00000
 Structure written by MMmdl.
 42 43  0  0  0  0  0  0  0  0  2 V2000
  147.4748  134.3630  154.3488 C   0  0  0  0  0  0  0  0  0  0  0  0
  146.3383  134.8695  153.4366 C   0  0  2  0  0  0  0  0  0  0  0  0
  146.2119  133.9085  152.2334 C   0  0  0  0  0  0  0  0  0  0  0  0
  145.0973  134.3303  151.2739 C   0  0  0  0  0  0  0  0  0  0  0  0
  145.3368  135.7707  150.8238 C   0  0  0  0  0  0  0  0  0  0  0  0
  145.4491  136.7051  152.0366 C   0  0  0  0  0  0  0  0  0  0  0  0
  146.5325  136.2839  152.9730 N   0  3  1  0  0  0  0  0  0  0  0  0
  146.7230  137.2639  154.0831 C   0  0  0  0  0  0  0  0  0  0  0  0
  147.2119  138.6470  153.6104 C   0  0  0  0  0  0  0  0  0  0  0  0
  147.2850  139.6651  154.7607 C   0  0  0  0  0  0  0  0  0  0  0  0
  148.6202  139.7170  155.3446 N   0  0  0  0  0  0  0  0  0  0  0  0
  149.6648  140.3802  154.8220 C   0  0  0  0  0  0  0  0  0  0  0  0
  149.6031  141.0124  153.7679 O   0  0  0  0  0  0  0  0  0  0  0  0
  150.9865  140.3086  155.5911 C   0  0  0  0  0  0  0  0  0  0  0  0
  151.8707  139.2900  155.0540 N   0  0  0  0  0  0  0  0  0  0  0  0
  151.6253  138.2481  154.2569 C   0  0  0  0  0  0  0  0  0  0  0  0
  152.7249  137.5549  154.0052 N   0  0  0  0  0  0  0  0  0  0  0  0
  153.6989  138.2440  154.7082 N   0  0  0  0  0  0  0  0  0  0  0  0
  153.1983  139.2750  155.3319 N   0  0  0  0  0  0  0  0  0  0  0  0
  147.3880  133.2895  154.5192 H   0  0  0  0  0  0  0  0  0  0  0  0
  147.4538  134.8242  155.3356 H   0  0  0  0  0  0  0  0  0  0  0  0
  148.4536  134.5450  153.9034 H   0  0  0  0  0  0  0  0  0  0  0  0
  145.4069  134.8283  154.0044 H   0  0  0  0  0  0  0  0  0  0  0  0
  147.1590  133.8677  151.6931 H   0  0  0  0  0  0  0  0  0  0  0  0
  146.0157  132.8941  152.5832 H   0  0  0  0  0  0  0  0  0  0  0  0
  145.0694  133.6644  150.4109 H   0  0  0  0  0  0  0  0  0  0  0  0
  144.1279  134.2482  151.7672 H   0  0  0  0  0  0  0  0  0  0  0  0
  146.2494  135.8266  150.2285 H   0  0  0  0  0  0  0  0  0  0  0  0
  144.5232  136.0974  150.1755 H   0  0  0  0  0  0  0  0  0  0  0  0
  145.6329  137.7078  151.6561 H   0  0  0  0  0  0  0  0  0  0  0  0
  144.4988  136.7407  152.5717 H   0  0  0  0  0  0  0  0  0  0  0  0
  145.7985  137.3608  154.6544 H   0  0  0  0  0  0  0  0  0  0  0  0
  147.4776  136.9000  154.7763 H   0  0  0  0  0  0  0  0  0  0  0  0
  148.1978  138.5502  153.1536 H   0  0  0  0  0  0  0  0  0  0  0  0
  146.5472  139.0430  152.8436 H   0  0  0  0  0  0  0  0  0  0  0  0
  146.9860  140.6566  154.4157 H   0  0  0  0  0  0  0  0  0  0  0  0
  146.5847  139.3883  155.5493 H   0  0  0  0  0  0  0  0  0  0  0  0
  148.7582  139.2212  156.2133 H   0  0  0  0  0  0  0  0  0  0  0  0
  151.4894  141.2752  155.5442 H   0  0  0  0  0  0  0  0  0  0  0  0
  150.7992  140.0938  156.6443 H   0  0  0  0  0  0  0  0  0  0  0  0
  150.6495  137.9989  153.8667 H   0  0  0  0  0  0  0  0  0  0  0  0
  147.3910  136.2871  152.4410 H   0  0  0  0  0  0  0  0  0  0  0  0
  1  2  1  0  0  0  0
  1 20  1  0  0  0  0
  1 21  1  0  0  0  0
  1 22  1  0  0  0  0
  2  7  1  0  0  0  0
  2  3  1  0  0  0  0
  2 23  1  0  0  0  0
  3  4  1  0  0  0  0
  3 24  1  0  0  0  0
  3 25  1  0  0  0  0
  4  5  1  0  0  0  0
  4 26  1  0  0  0  0
  4 27  1  0  0  0  0
  5  6  1  0  0  0  0
  5 28  1  0  0  0  0
  5 29  1  0  0  0  0
  6  7  1  0  0  0  0
  6 30  1  0  0  0  0
  6 31  1  0  0  0  0
  7  8  1  0  0  0  0
  7 42  1  0  0  0  0
  8  9  1  0  0  0  0
  8 32  1  0  0  0  0
  8 33  1  0  0  0  0
  9 10  1  0  0  0  0
  9 34  1  0  0  0  0
  9 35  1  0  0  0  0
 10 11  1  0  0  0  0
 10 36  1  0  0  0  0
 10 37  1  0  0  0  0
 11 12  1  0  0  0  0
 11 38  1  0  0  0  0
 12 13  2  0  0  0  0
 12 14  1  0  0  0  0
 14 15  1  0  0  0  0
 14 39  1  0  0  0  0
 14 40  1  0  0  0  0
 15 19  1  0  0  0  0
 15 16  1  0  0  0  0
 16 17  2  0  0  0  0
 16 41  1  0  0  0  0
 17 18  1  0  0  0  0
 18 19  2  0  0  0  0
M  CHG  1   7   1
M  END
> <s_m_source_file>
AV-unprocessed.smi

> <i_m_source_file_index>
299

> <i_lp_mmshare_version>
43012

> <i_f3d_flags>
0

> <s_epik_input>
W0NIM11bQ0BASF0xW0NIMl1bQ0gyXVtDSDJdW0NIMl1OMVtDSDJdW0NIMl1bQ0gyXVtOSF1DKD1PKVtDSDJdbjJbY0hdbm5uMg==

> <s_epik_cmdline>
J2VwaWtfcHl0aG9uJywgJy1waCcsICc3LjAnLCAnLXRuJywgJzgnLCAnLW1hJywgJzIwMCcsICctbWV0YWxfYmluZGluZycsICctaW1hZScsICc8aW5maWxlLm1hZT4nLCAnLW9tYWUnLCAnPG91dGZpbGUubWFlPic=

> <r_lp_tautomer_probability>
1

> <r_epik_Ionization_Penalty>
0.000544863

> <r_epik_Ionization_Penalty_Charging>
0.000543475

> <r_epik_Ionization_Penalty_Neutral>
1.38784e-06

> <r_epik_State_Penalty>
0.000340025

> <r_epik_Charging_Adjusted_Penalty>
0.0008835

> <i_epik_Tot_Q>
1

> <i_epik_Tot_abs_Q>
1

> <r_epik_Metal_State_Penalty>
-0

> <b_epik_Metal_Only>
0

> <s_lp_Force_Field>
OPLS_2005

> <r_lp_Energy>
24.2757

> <b_lp_Chiralities_Consistent>
1

> <s_lp_Variant>
AV-unprocessed.smi:299-1

> <Gold.Version>
5.8.1

> <Gold.Id.Protein>
6NUR|6NUR_protein|mol2

> <Gold.PLP.Fitness>
43.8318

> <Gold.PLP.PLP>
-31.3671

> <Gold.PLP.part.hbond>
-6.4536

> <Gold.PLP.part.metal>
0.0000

> <Gold.PLP.part.buried>
-4.9968

> <Gold.PLP.part.nonpolar>
-22.3297

> <Gold.PLP.part.repulsive>
2.2988

> <Gold.PLP.ligand.clash>
0.0000

> <Gold.PLP.ligand.torsion>
0.9670

> <Gold.PLP.Chemscore.Hbond>
4.7776

> <Gold.PLP.Chemscore.CHOScore>
0.0000

> <Gold.PLP.Chemscore.Metal>
0.0000

> <Gold.Chemscore.Hbonds>
donor molecule, donor type, donor heavy atom, donor atom, acceptor molecule, acceptor atom, score
      L1  H     7    42       P1  7948  2.00
      P1  H  7989  7998       L1    13  0.23
      P1  H  7997  8009       L1    19  1.00
      P1  H  8011  8017       L1    13  0.96
      P1  H 10752 10764       L1    17  0.59

> <Gold.PLP.Chemscore.Internal.Correction>
0.0659

> <Gold.Rescore>
     Score         DG    S(hbond)    S(metal)    S(lipo)     H(rot)  DE(clash)    DE(int)     intcor
     11.68     -13.73       3.16        0.00      45.26       2.97       1.02       1.04       ----

> <Gold.Chemscore.Fitness>
11.6782

> <Gold.Chemscore.DG>
-13.7341

> <Gold.Chemscore.ZeroCoef>
-5.4800

> <Gold.Chemscore.Hbond>
3.1607

> <Gold.Chemscore.Metal>
0.0000

> <Gold.Chemscore.Lipo>
45.2598

> <Gold.Chemscore.Internal_Hbond>
0.0000

> <Gold.Chemscore.DEClash>
1.0210

> <Gold.Chemscore.DEInternal>
1.0350

> <Gold.Chemscore.Rot>
2.9680

> <Gold.Chemscore.Internal.Correction>
   9.000000E+99

> <Gold.Chemscore.Hbonds>
donor molecule, donor type, donor heavy atom, donor atom, acceptor molecule, acceptor atom, score
      L1  H     7    42       P1  7948  1.00
      P1  H  7989  7998       L1    13  0.02
      P1  H  7997  8009       L1    19  0.81
      P1  H  8011  8017       L1    13  0.88
      P1  H 10752 10764       L1    17  0.45

> <Gold.Chemscore.Hbond.Weighted>
-10.5567

> <Gold.Chemscore.Metal.Weighted>
-0.0000

> <Gold.Chemscore.Lipo.Weighted>
-5.2954

> <Gold.Chemscore.Internal_Hbond.Weighted>
0.0000

> <Gold.Chemscore.DEClash.Weighted>
1.0210

> <Gold.Chemscore.DEInternal.Weighted>
1.0350

> <Gold.Chemscore.Rot.Weighted>
7.5980

> <Gold.Chemscore.Internal.Correction.Weighted>
   9.000000E+99

> <Gold.Protein.RotatedTorsions>
[ 6907 6896 6895 6894 ] final  127.29 input  -60.11 | X-H torsion
[ 7974 7965 7964 7962 ] final  100.72 input  175.53 | X-H torsion
[ 8008 7997 7996 7995 ] final -154.37 input   59.86 | X-H torsion
[ 10167 10162 10161 10158 ] final   45.42 input  -65.29 | X-H torsion
[ 10718 10713 10712 10709 ] final   98.21 input   66.30 | X-H torsion
[ 10763 10752 10751 10750 ] final  -95.83 input  -60.55 | X-H torsion
[ 11005 11000 10999 10996 ] final  -39.39 input  -57.11 | X-H torsion

> <Gold.Protein.ActiveResidues>
 VAL166  LYS551  ARG553  GLY616  TRP617  ASP618  TYR619  PRO620  LYS621  CYS622 
 ASP623  PHE694  ASN695  SER759  ASP760  ASP761  ALA762  ILE779  LEU786  VAL792 
 PHE793  MET794  SER795  GLU796  ALA797  LYS798  CYS799  TRP800  GLU811  SER814 

> <Gold.Protein.RotatedAtoms>
  152.3826  133.6567  159.6173 H   0  0  0  0  0  0  0  0  0  0  0  0  # atno 6907 bound_to 6896
  150.7753  133.9088  159.3372 H   0  0  0  0  0  0  0  0  0  0  0  0  # atno 6908 bound_to 6896
  151.6891  135.0951  160.0281 H   0  0  0  0  0  0  0  0  0  0  0  0  # atno 6909 bound_to 6896
  145.3818  139.2378  143.3399 H   0  0  0  0  0  0  0  0  0  0  0  0  # atno 7974 bound_to 7965
  155.6854  140.0749  157.2469 H   0  0  0  0  0  0  0  0  0  0  0  0  # atno 8008 bound_to 7997
  154.4098  140.1674  156.2080 H   0  0  0  0  0  0  0  0  0  0  0  0  # atno 8009 bound_to 7997
  155.9498  140.3378  155.6401 H   0  0  0  0  0  0  0  0  0  0  0  0  # atno 8010 bound_to 7997
  140.3244  144.2666  150.6177 H   0  0  0  0  0  0  0  0  0  0  0  0  # atno 10167 bound_to 10162
  157.6899  131.0633  150.4761 H   0  0  0  0  0  0  0  0  0  0  0  0  # atno 10718 bound_to 10713
  154.7185  135.5106  153.8774 H   0  0  0  0  0  0  0  0  0  0  0  0  # atno 10763 bound_to 10752
  153.0841  135.6640  153.9994 H   0  0  0  0  0  0  0  0  0  0  0  0  # atno 10764 bound_to 10752
  153.9821  135.3028  155.3398 H   0  0  0  0  0  0  0  0  0  0  0  0  # atno 10765 bound_to 10752
  141.0098  133.6913  156.2181 H   0  0  0  0  0  0  0  0  0  0  0  0  # atno 11005 bound_to 11000
  146.2838  140.4487  142.8766 LP  0  0  0  0  0  0  0  0  0  0  0  0  # atno 17320 bound_to 7965
  144.8502  140.6990  143.6173 LP  0  0  0  0  0  0  0  0  0  0  0  0  # atno 17321 bound_to 7965
  140.5455  143.2215  151.8015 LP  0  0  0  0  0  0  0  0  0  0  0  0  # atno 17342 bound_to 10162
  139.4868  144.4545  151.9614 LP  0  0  0  0  0  0  0  0  0  0  0  0  # atno 17343 bound_to 10162
  156.5096  130.4136  149.6308 LP  0  0  0  0  0  0  0  0  0  0  0  0  # atno 17370 bound_to 10713
  156.3253  130.7302  151.2222 LP  0  0  0  0  0  0  0  0  0  0  0  0  # atno 17371 bound_to 10713
  140.6752  134.4826  157.5588 LP  0  0  0  0  0  0  0  0  0  0  0  0  # atno 17394 bound_to 11000
  139.9084  134.8399  156.1620 LP  0  0  0  0  0  0  0  0  0  0  0  0  # atno 17395 bound_to 11000

$$$$
