AV-unprocessed.smi:3294|AV-procd|sdf|12633|dock2
  -GOLD-   2272018573D 1   1.00000     0.00000
 Structure written by MMmdl.
 37 39  0  0  0  0  0  0  0  0  1 V2000
  153.4496  141.5668  160.6543 C   0  0  0  0  0  0  0  0  0  0  0  0
  152.5488  142.6167  160.0373 C   0  0  0  0  0  0  0  0  0  0  0  0
  151.6589  142.2835  158.9940 C   0  0  0  0  0  0  0  0  0  0  0  0
  150.8391  143.3023  158.4514 C   0  0  0  0  0  0  0  0  0  0  0  0
  149.8905  143.0921  157.4140 N   0  0  0  0  0  0  0  0  0  0  0  0
  149.4885  141.9304  156.8696 C   0  0  0  0  0  0  0  0  0  0  0  0
  149.9225  140.8182  157.1692 O   0  0  0  0  0  0  0  0  0  0  0  0
  148.5542  142.1363  155.9277 N   0  0  0  0  0  0  0  0  0  0  0  0
  147.8904  141.1165  155.1170 C   0  0  0  0  0  0  0  0  0  0  0  0
  148.8019  140.4544  154.0936 C   0  0  0  0  0  0  0  0  0  0  0  0
  148.9287  138.9518  154.0115 C   0  0  0  0  0  0  0  0  0  0  0  0
  150.0878  139.7841  154.5124 C   0  0  0  0  0  0  0  0  0  0  0  0
  146.5998  141.5936  154.4674 C   0  0  0  0  0  0  0  0  0  0  0  0
  146.4764  142.9917  153.9104 C   0  0  0  0  0  0  0  0  0  0  0  0
  145.7042  142.6001  155.1502 C   0  0  0  0  0  0  0  0  0  0  0  0
  150.9358  144.5966  159.0026 C   0  0  0  0  0  0  0  0  0  0  0  0
  151.8580  144.8242  160.0435 C   0  0  0  0  0  0  0  0  0  0  0  0
  152.6530  143.8605  160.5535 N   0  0  0  0  0  0  0  0  0  0  0  0
  153.3674  140.6155  160.1277 H   0  0  0  0  0  0  0  0  0  0  0  0
  153.1801  141.4031  161.6980 H   0  0  0  0  0  0  0  0  0  0  0  0
  154.4910  141.8874  160.6140 H   0  0  0  0  0  0  0  0  0  0  0  0
  151.6109  141.2647  158.6412 H   0  0  0  0  0  0  0  0  0  0  0  0
  149.5102  143.9306  157.0006 H   0  0  0  0  0  0  0  0  0  0  0  0
  148.2725  143.0901  155.7546 H   0  0  0  0  0  0  0  0  0  0  0  0
  147.6120  140.3420  155.8332 H   0  0  0  0  0  0  0  0  0  0  0  0
  148.8321  140.9715  153.1364 H   0  0  0  0  0  0  0  0  0  0  0  0
  148.3921  138.3526  154.7440 H   0  0  0  0  0  0  0  0  0  0  0  0
  149.0159  138.5100  153.0210 H   0  0  0  0  0  0  0  0  0  0  0  0
  150.9482  139.8977  153.8564 H   0  0  0  0  0  0  0  0  0  0  0  0
  150.3140  139.7404  155.5759 H   0  0  0  0  0  0  0  0  0  0  0  0
  146.0783  140.8172  153.9107 H   0  0  0  0  0  0  0  0  0  0  0  0
  147.3200  143.6670  154.0390 H   0  0  0  0  0  0  0  0  0  0  0  0
  145.9166  143.1154  152.9855 H   0  0  0  0  0  0  0  0  0  0  0  0
  144.6292  142.4622  155.0522 H   0  0  0  0  0  0  0  0  0  0  0  0
  146.0358  143.0193  156.0980 H   0  0  0  0  0  0  0  0  0  0  0  0
  150.3216  145.4051  158.6338 H   0  0  0  0  0  0  0  0  0  0  0  0
  151.9576  145.8073  160.4791 H   0  0  0  0  0  0  0  0  0  0  0  0
  1  2  1  0  0  0  0
  1 19  1  0  0  0  0
  1 20  1  0  0  0  0
  1 21  1  0  0  0  0
  2 18  1  0  0  0  0
  2  3  2  0  0  0  0
  3  4  1  0  0  0  0
  3 22  1  0  0  0  0
  4  5  1  0  0  0  0
  4 16  2  0  0  0  0
  5  6  1  0  0  0  0
  5 23  1  0  0  0  0
  6  7  2  0  0  0  0
  6  8  1  0  0  0  0
  8  9  1  0  0  0  0
  8 24  1  0  0  0  0
  9 10  1  0  0  0  0
  9 13  1  0  0  0  0
  9 25  1  0  0  0  0
 10 12  1  0  0  0  0
 10 11  1  0  0  0  0
 10 26  1  0  0  0  0
 11 12  1  0  0  0  0
 11 27  1  0  0  0  0
 11 28  1  0  0  0  0
 12 29  1  0  0  0  0
 12 30  1  0  0  0  0
 13 15  1  0  0  0  0
 13 14  1  0  0  0  0
 13 31  1  0  0  0  0
 14 15  1  0  0  0  0
 14 32  1  0  0  0  0
 14 33  1  0  0  0  0
 15 34  1  0  0  0  0
 15 35  1  0  0  0  0
 16 17  1  0  0  0  0
 16 36  1  0  0  0  0
 17 18  2  0  0  0  0
 17 37  1  0  0  0  0
M  END
> <s_m_source_file>
AV-unprocessed.smi

> <i_m_source_file_index>
3294

> <i_lp_mmshare_version>
43012

> <i_f3d_flags>
0

> <s_epik_input>
W0NIM11jMVtjSF1jKFtjSF1bY0hdbjEpW05IXUMoPU8pW05IXVtDSF0oW0NIXTJbQ0gyXVtDSDJdMilbQ0hdM1tDSDJdW0NIMl0z

> <s_epik_cmdline>
J2VwaWtfcHl0aG9uJywgJy1waCcsICc3LjAnLCAnLXRuJywgJzgnLCAnLW1hJywgJzIwMCcsICctbWV0YWxfYmluZGluZycsICctaW1hZScsICc8aW5maWxlLm1hZT4nLCAnLW9tYWUnLCAnPG91dGZpbGUubWFlPic=

> <r_epik_Ionization_Penalty>
0.389791

> <r_epik_Ionization_Penalty_Charging>
0

> <r_epik_Ionization_Penalty_Neutral>
0.389791

> <r_epik_State_Penalty>
0.388374

> <r_epik_Charging_Adjusted_Penalty>
0.388374

> <i_epik_Tot_Q>
0

> <i_epik_Tot_abs_Q>
0

> <r_epik_Metal_State_Penalty>
0.232337

> <b_epik_Metal_Only>
0

> <s_lp_Force_Field>
OPLS_2005

> <r_lp_Energy>
28.7122

> <b_lp_Chiralities_Consistent>
1

> <s_lp_Variant>
AV-unprocessed.smi:3294-1

> <Gold.Version>
5.8.1

> <Gold.Id.Protein>
6NUR|6NUR_protein|mol2

> <Gold.PLP.Fitness>
43.7834

> <Gold.PLP.PLP>
-38.6768

> <Gold.PLP.part.hbond>
-2.0000

> <Gold.PLP.part.metal>
0.0000

> <Gold.PLP.part.buried>
-2.4805

> <Gold.PLP.part.nonpolar>
-33.9603

> <Gold.PLP.part.repulsive>
0.1737

> <Gold.PLP.ligand.clash>
0.0000

> <Gold.PLP.ligand.torsion>
1.3989

> <Gold.PLP.Chemscore.Hbond>
1.9120

> <Gold.PLP.Chemscore.CHOScore>
0.0000

> <Gold.PLP.Chemscore.Metal>
0.0000

> <Gold.Chemscore.Hbonds>
donor molecule, donor type, donor heavy atom, donor atom, acceptor molecule, acceptor atom, score
      L1  H     5    23       P1  8028  1.00
      L1  H     8    24       P1  8028  0.88

> <Gold.PLP.Chemscore.Internal.Correction>
2.1684

> <Gold.Rescore>
     Score         DG    S(hbond)    S(metal)    S(lipo)     H(rot)  DE(clash)    DE(int)     intcor
     16.50     -20.76       1.85        0.00     105.85       1.28       0.33       3.93       ----

> <Gold.Chemscore.Fitness>
16.5000

> <Gold.Chemscore.DG>
-20.7570

> <Gold.Chemscore.ZeroCoef>
-5.4800

> <Gold.Chemscore.Hbond>
1.8498

> <Gold.Chemscore.Metal>
0.0000

> <Gold.Chemscore.Lipo>
105.8534

> <Gold.Chemscore.Internal_Hbond>
0.0000

> <Gold.Chemscore.DEClash>
0.3299

> <Gold.Chemscore.DEInternal>
3.9271

> <Gold.Chemscore.Rot>
1.2837

> <Gold.Chemscore.Internal.Correction>
   9.000000E+99

> <Gold.Chemscore.Hbonds>
donor molecule, donor type, donor heavy atom, donor atom, acceptor molecule, acceptor atom, score
      L1  H     5    23       P1  8028  0.71
      L1  H     8    24       P1  8028  0.78

> <Gold.Chemscore.Hbond.Weighted>
-6.1785

> <Gold.Chemscore.Metal.Weighted>
-0.0000

> <Gold.Chemscore.Lipo.Weighted>
-12.3848

> <Gold.Chemscore.Internal_Hbond.Weighted>
0.0000

> <Gold.Chemscore.DEClash.Weighted>
0.3299

> <Gold.Chemscore.DEInternal.Weighted>
3.9271

> <Gold.Chemscore.Rot.Weighted>
3.2863

> <Gold.Chemscore.Internal.Correction.Weighted>
   9.000000E+99

> <Gold.Protein.RotatedTorsions>
[ 6907 6896 6895 6894 ] final   38.98 input  -60.11 | X-H torsion
[ 7974 7965 7964 7962 ] final   52.22 input  175.53 | X-H torsion
[ 8008 7997 7996 7995 ] final   17.83 input   59.86 | X-H torsion
[ 10167 10162 10161 10158 ] final   14.43 input  -65.29 | X-H torsion
[ 10718 10713 10712 10709 ] final  -45.01 input   66.30 | X-H torsion
[ 10763 10752 10751 10750 ] final   33.57 input  -60.55 | X-H torsion
[ 11005 11000 10999 10996 ] final -134.36 input  -57.11 | X-H torsion

> <Gold.Protein.ActiveResidues>
 VAL166  LYS551  ARG553  GLY616  TRP617  ASP618  TYR619  PRO620  LYS621  CYS622 
 ASP623  PHE694  ASN695  SER759  ASP760  ASP761  ALA762  ILE779  LEU786  VAL792 
 PHE793  MET794  SER795  GLU796  ALA797  LYS798  CYS799  TRP800  GLU811  SER814 

> <Gold.Protein.RotatedAtoms>
  152.1636  134.8892  160.0539 H   0  0  0  0  0  0  0  0  0  0  0  0  # atno 6907 bound_to 6896
  151.9879  133.3775  159.4141 H   0  0  0  0  0  0  0  0  0  0  0  0  # atno 6908 bound_to 6896
  150.6891  134.3891  159.5112 H   0  0  0  0  0  0  0  0  0  0  0  0  # atno 6909 bound_to 6896
  145.9835  139.4266  143.0117 H   0  0  0  0  0  0  0  0  0  0  0  0  # atno 7974 bound_to 7965
  154.8971  140.2995  155.5338 H   0  0  0  0  0  0  0  0  0  0  0  0  # atno 8008 bound_to 7997
  156.3019  140.2414  156.3929 H   0  0  0  0  0  0  0  0  0  0  0  0  # atno 8009 bound_to 7997
  154.8559  140.0407  157.1623 H   0  0  0  0  0  0  0  0  0  0  0  0  # atno 8010 bound_to 7997
  140.5936  143.8746  150.6897 H   0  0  0  0  0  0  0  0  0  0  0  0  # atno 10167 bound_to 10162
  156.2327  130.4174  149.8855 H   0  0  0  0  0  0  0  0  0  0  0  0  # atno 10718 bound_to 10713
  153.0205  135.6383  154.1532 H   0  0  0  0  0  0  0  0  0  0  0  0  # atno 10763 bound_to 10752
  154.1267  135.2843  155.3197 H   0  0  0  0  0  0  0  0  0  0  0  0  # atno 10764 bound_to 10752
  154.6224  135.5520  153.7652 H   0  0  0  0  0  0  0  0  0  0  0  0  # atno 10765 bound_to 10752
  140.8997  134.1706  157.4469 H   0  0  0  0  0  0  0  0  0  0  0  0  # atno 11005 bound_to 11000
  145.7734  140.9887  143.1137 LP  0  0  0  0  0  0  0  0  0  0  0  0  # atno 17320 bound_to 7965
  144.6868  139.9475  143.7477 LP  0  0  0  0  0  0  0  0  0  0  0  0  # atno 17321 bound_to 7965
  140.2275  143.3761  152.1593 LP  0  0  0  0  0  0  0  0  0  0  0  0  # atno 17342 bound_to 10162
  139.5243  144.7083  151.5287 LP  0  0  0  0  0  0  0  0  0  0  0  0  # atno 17343 bound_to 10162
  156.6464  130.8725  151.3523 LP  0  0  0  0  0  0  0  0  0  0  0  0  # atno 17370 bound_to 10713
  157.7140  130.9475  150.1190 LP  0  0  0  0  0  0  0  0  0  0  0  0  # atno 17371 bound_to 10713
  139.8740  134.9893  156.5450 LP  0  0  0  0  0  0  0  0  0  0  0  0  # atno 17394 bound_to 11000
  140.8245  133.8327  155.8926 LP  0  0  0  0  0  0  0  0  0  0  0  0  # atno 17395 bound_to 11000

$$$$
