AV-unprocessed.smi:1643|AV-procd|sdf|6579|dock1
  -GOLD-   22720 7263D 1   1.00000     0.00000
 Structure written by MMmdl.
 55 57  0  0  0  0  0  0  0  0  3 V2000
  146.6424  131.5811  154.6103 C   0  0  0  0  0  0  0  0  0  0  0  0
  147.1239  132.4046  155.8086 C   0  0  0  0  0  0  0  0  0  0  0  0
  146.4597  132.3611  156.8443 O   0  0  0  0  0  0  0  0  0  0  0  0
  148.2561  133.1418  155.6915 N   0  0  0  0  0  0  0  0  0  0  0  0
  148.7820  133.9070  156.8327 C   0  0  0  0  0  0  0  0  0  0  0  0
  148.3920  135.3930  156.7386 C   0  0  0  0  0  0  0  0  0  0  0  0
  148.3344  135.9499  155.3003 C   0  0  0  0  0  0  0  0  0  0  0  0
  149.5967  135.7798  154.5281 N   0  3  1  0  0  0  0  0  0  0  0  0
  150.6732  136.7083  154.9739 C   0  0  0  0  0  0  0  0  0  0  0  0
  150.2550  138.1966  154.9141 C   0  0  2  0  0  0  0  0  0  0  0  0
  149.8417  138.5320  153.6059 O   0  0  0  0  0  0  0  0  0  0  0  0
  151.3882  139.1810  155.2792 C   0  0  0  0  0  0  0  0  0  0  0  0
  150.9188  140.4108  155.9315 N   0  0  0  0  0  0  0  0  0  0  0  0
  149.9625  141.2989  155.5436 C   0  0  0  0  0  0  0  0  0  0  0  0
  149.8915  142.2681  156.4974 N   0  3  0  0  0  0  0  0  0  0  0  0
  150.8042  141.9871  157.5165 C   0  0  0  0  0  0  0  0  0  0  0  0
  151.0949  142.6689  158.6921 C   0  0  0  0  0  0  0  0  0  0  0  0
  152.0829  142.1102  159.5339 C   0  0  0  0  0  0  0  0  0  0  0  0
  152.4246  142.8304  160.8273 C   0  0  0  0  0  0  0  0  0  0  0  0
  152.7422  140.9029  159.1852 C   0  0  0  0  0  0  0  0  0  0  0  0
  153.7991  140.3090  160.1011 C   0  0  0  0  0  0  0  0  0  0  0  0
  152.4327  140.2248  157.9842 C   0  0  0  0  0  0  0  0  0  0  0  0
  151.4603  140.7918  157.1640 C   0  0  0  0  0  0  0  0  0  0  0  0
  150.0687  134.3724  154.3357 C   0  0  0  0  0  0  0  0  0  0  0  0
  148.9887  133.2593  154.4122 C   0  0  0  0  0  0  0  0  0  0  0  0
  147.4382  130.9431  154.2251 H   0  0  0  0  0  0  0  0  0  0  0  0
  146.2913  132.2321  153.8096 H   0  0  0  0  0  0  0  0  0  0  0  0
  145.8131  130.9347  154.8994 H   0  0  0  0  0  0  0  0  0  0  0  0
  148.4397  133.5067  157.7884 H   0  0  0  0  0  0  0  0  0  0  0  0
  149.8636  133.7968  156.8905 H   0  0  0  0  0  0  0  0  0  0  0  0
  147.4058  135.5217  157.1859 H   0  0  0  0  0  0  0  0  0  0  0  0
  149.0738  135.9858  157.3491 H   0  0  0  0  0  0  0  0  0  0  0  0
  147.5148  135.4895  154.7477 H   0  0  0  0  0  0  0  0  0  0  0  0
  148.0696  137.0072  155.3344 H   0  0  0  0  0  0  0  0  0  0  0  0
  150.9051  136.4673  156.0107 H   0  0  0  0  0  0  0  0  0  0  0  0
  151.5959  136.5305  154.4192 H   0  0  0  0  0  0  0  0  0  0  0  0
  149.4109  138.3590  155.5848 H   0  0  0  0  0  0  0  0  0  0  0  0
  149.6000  137.7401  153.1495 H   0  0  0  0  0  0  0  0  0  0  0  0
  152.0976  138.7050  155.9579 H   0  0  0  0  0  0  0  0  0  0  0  0
  151.9554  139.4687  154.3923 H   0  0  0  0  0  0  0  0  0  0  0  0
  149.3677  141.2466  154.6427 H   0  0  0  0  0  0  0  0  0  0  0  0
  150.5861  143.5855  158.9536 H   0  0  0  0  0  0  0  0  0  0  0  0
  153.4701  143.1393  160.8291 H   0  0  0  0  0  0  0  0  0  0  0  0
  152.2535  142.1796  161.6851 H   0  0  0  0  0  0  0  0  0  0  0  0
  151.8128  143.7229  160.9609 H   0  0  0  0  0  0  0  0  0  0  0  0
  154.2232  139.3956  159.6832 H   0  0  0  0  0  0  0  0  0  0  0  0
  153.3688  140.0624  161.0721 H   0  0  0  0  0  0  0  0  0  0  0  0
  154.6153  141.0152  160.2533 H   0  0  0  0  0  0  0  0  0  0  0  0
  152.9309  139.3032  157.7213 H   0  0  0  0  0  0  0  0  0  0  0  0
  150.5282  134.3224  153.3485 H   0  0  0  0  0  0  0  0  0  0  0  0
  150.8789  134.1460  155.0288 H   0  0  0  0  0  0  0  0  0  0  0  0
  149.4662  132.3005  154.2064 H   0  0  0  0  0  0  0  0  0  0  0  0
  148.2832  133.4314  153.5983 H   0  0  0  0  0  0  0  0  0  0  0  0
  149.3465  136.0967  153.6021 H   0  0  0  0  0  0  0  0  0  0  0  0
  149.2589  143.0575  156.4587 H   0  0  0  0  0  0  0  0  0  0  0  0
  1  2  1  0  0  0  0
  1 26  1  0  0  0  0
  1 27  1  0  0  0  0
  1 28  1  0  0  0  0
  2  3  2  0  0  0  0
  2  4  1  0  0  0  0
  4 25  1  0  0  0  0
  4  5  1  0  0  0  0
  5  6  1  0  0  0  0
  5 29  1  0  0  0  0
  5 30  1  0  0  0  0
  6  7  1  0  0  0  0
  6 31  1  0  0  0  0
  6 32  1  0  0  0  0
  7  8  1  0  0  0  0
  7 33  1  0  0  0  0
  7 34  1  0  0  0  0
  8  9  1  0  0  0  0
  8 24  1  0  0  0  0
  8 54  1  0  0  0  0
  9 10  1  0  0  0  0
  9 35  1  0  0  0  0
  9 36  1  0  0  0  0
 10 11  1  0  0  0  0
 10 12  1  0  0  0  0
 10 37  1  0  0  0  0
 11 38  1  0  0  0  0
 12 13  1  0  0  0  0
 12 39  1  0  0  0  0
 12 40  1  0  0  0  0
 13 23  1  0  0  0  0
 13 14  1  0  0  0  0
 14 15  2  0  0  0  0
 14 41  1  0  0  0  0
 15 16  1  0  0  0  0
 15 55  1  0  0  0  0
 16 23  2  0  0  0  0
 16 17  1  0  0  0  0
 17 18  2  0  0  0  0
 17 42  1  0  0  0  0
 18 19  1  0  0  0  0
 18 20  1  0  0  0  0
 19 43  1  0  0  0  0
 19 44  1  0  0  0  0
 19 45  1  0  0  0  0
 20 21  1  0  0  0  0
 20 22  2  0  0  0  0
 21 46  1  0  0  0  0
 21 47  1  0  0  0  0
 21 48  1  0  0  0  0
 22 23  1  0  0  0  0
 22 49  1  0  0  0  0
 24 25  1  0  0  0  0
 24 50  1  0  0  0  0
 24 51  1  0  0  0  0
 25 52  1  0  0  0  0
 25 53  1  0  0  0  0
M  CHG  1   8   1
M  CHG  1  15   1
M  END
> <s_m_source_file>
AV-unprocessed.smi

> <i_m_source_file_index>
1643

> <i_lp_mmshare_version>
43012

> <i_f3d_flags>
0

> <s_epik_input>
W0NIM11DKD1PKU4xW0NIMl1bQ0gyXVtDSDJdTihbQ0gyXVtDSDJdMSlbQ0gyXVtDQEhdKFtPSF0pW0NIMl1uKFtjSF1uMiljKGMyMylbY0hdYyhbQ0gzXSljKFtjSF0zKVtDSDNd

> <s_epik_cmdline>
J2VwaWtfcHl0aG9uJywgJy1waCcsICc3LjAnLCAnLXRuJywgJzgnLCAnLW1hJywgJzIwMCcsICctbWV0YWxfYmluZGluZycsICctaW1hZScsICc8aW5maWxlLm1hZT4nLCAnLW9tYWUnLCAnPG91dGZpbGUubWFlPic=

> <r_epik_Ionization_Penalty>
1.2865

> <r_epik_Ionization_Penalty_Charging>
1.2865

> <r_epik_Ionization_Penalty_Neutral>
2.89706e-06

> <r_epik_State_Penalty>
1.3566

> <r_epik_Charging_Adjusted_Penalty>
2.6431

> <i_epik_Tot_Q>
2

> <i_epik_Tot_abs_Q>
2

> <r_epik_Metal_State_Penalty>
5.37339

> <b_epik_Metal_Only>
0

> <s_lp_Force_Field>
OPLS_2005

> <r_lp_Energy>
60.8109

> <b_lp_Chiralities_Consistent>
1

> <s_lp_Variant>
AV-unprocessed.smi:1643-8

> <Gold.Version>
5.8.1

> <Gold.Id.Protein>
6NUR|6NUR_protein|mol2

> <Gold.PLP.Fitness>
56.2269

> <Gold.PLP.PLP>
-42.1140

> <Gold.PLP.part.hbond>
-4.0000

> <Gold.PLP.part.metal>
0.0000

> <Gold.PLP.part.buried>
-4.8557

> <Gold.PLP.part.nonpolar>
-32.9370

> <Gold.PLP.part.repulsive>
0.1788

> <Gold.PLP.ligand.clash>
0.0000

> <Gold.PLP.ligand.torsion>
0.4856

> <Gold.PLP.Chemscore.Hbond>
5.0000

> <Gold.PLP.Chemscore.CHOScore>
0.0000

> <Gold.PLP.Chemscore.Metal>
0.0000

> <Gold.Chemscore.Hbonds>
donor molecule, donor type, donor heavy atom, donor atom, acceptor molecule, acceptor atom, score
      L1  H     8    54       P1  7948  2.00
      L1  H    11    38       P1  7948  0.96
      L1  H    15    55       P1  8028  1.86

> <Gold.PLP.Chemscore.Internal.Correction>
0.0840

> <Gold.Rescore>
     Score         DG    S(hbond)    S(metal)    S(lipo)     H(rot)  DE(clash)    DE(int)     intcor
     21.07     -21.61       2.88        0.00     103.12       2.17       0.06       0.47       ----

> <Gold.Chemscore.Fitness>
21.0745

> <Gold.Chemscore.DG>
-21.6090

> <Gold.Chemscore.ZeroCoef>
-5.4800

> <Gold.Chemscore.Hbond>
2.8833

> <Gold.Chemscore.Metal>
0.0000

> <Gold.Chemscore.Lipo>
103.1225

> <Gold.Chemscore.Internal_Hbond>
0.0000

> <Gold.Chemscore.DEClash>
0.0650

> <Gold.Chemscore.DEInternal>
0.4696

> <Gold.Chemscore.Rot>
2.1744

> <Gold.Chemscore.Internal.Correction>
   9.000000E+99

> <Gold.Chemscore.Hbonds>
donor molecule, donor type, donor heavy atom, donor atom, acceptor molecule, acceptor atom, score
      L1  H     8    54       P1  7948  0.74
      L1  H    11    38       P1  7948  0.75
      L1  H    15    55       P1  8028  0.89

> <Gold.Chemscore.Hbond.Weighted>
-9.6303

> <Gold.Chemscore.Metal.Weighted>
-0.0000

> <Gold.Chemscore.Lipo.Weighted>
-12.0653

> <Gold.Chemscore.Internal_Hbond.Weighted>
0.0000

> <Gold.Chemscore.DEClash.Weighted>
0.0650

> <Gold.Chemscore.DEInternal.Weighted>
0.4696

> <Gold.Chemscore.Rot.Weighted>
5.5666

> <Gold.Chemscore.Internal.Correction.Weighted>
   9.000000E+99

> <Gold.Protein.RotatedTorsions>
[ 6907 6896 6895 6894 ] final  -42.91 input  -60.11 | X-H torsion
[ 7974 7965 7964 7962 ] final   68.27 input  175.53 | X-H torsion
[ 8008 7997 7996 7995 ] final   19.40 input   59.86 | X-H torsion
[ 10167 10162 10161 10158 ] final  -45.36 input  -65.29 | X-H torsion
[ 10718 10713 10712 10709 ] final   46.63 input   66.30 | X-H torsion
[ 10763 10752 10751 10750 ] final  107.89 input  -60.55 | X-H torsion
[ 11005 11000 10999 10996 ] final  123.46 input  -57.11 | X-H torsion

> <Gold.Protein.ActiveResidues>
 VAL166  LYS551  ARG553  GLY616  TRP617  ASP618  TYR619  PRO620  LYS621  CYS622 
 ASP623  PHE694  ASN695  SER759  ASP760  ASP761  ALA762  ILE779  LEU786  VAL792 
 PHE793  MET794  SER795  GLU796  ALA797  LYS798  CYS799  TRP800  GLU811  SER814 

> <Gold.Protein.RotatedAtoms>
  150.9499  134.8900  159.7664 H   0  0  0  0  0  0  0  0  0  0  0  0  # atno 6907 bound_to 6896
  152.5115  134.3822  159.9365 H   0  0  0  0  0  0  0  0  0  0  0  0  # atno 6908 bound_to 6896
  151.3838  133.3772  159.2748 H   0  0  0  0  0  0  0  0  0  0  0  0  # atno 6909 bound_to 6896
  145.8046  139.3000  143.1135 H   0  0  0  0  0  0  0  0  0  0  0  0  # atno 7974 bound_to 7965
  154.9202  140.3026  155.5220 H   0  0  0  0  0  0  0  0  0  0  0  0  # atno 8008 bound_to 7997
  156.3010  140.2373  156.4187 H   0  0  0  0  0  0  0  0  0  0  0  0  # atno 8009 bound_to 7997
  154.8339  140.0417  157.1484 H   0  0  0  0  0  0  0  0  0  0  0  0  # atno 8010 bound_to 7997
  140.6861  143.2883  151.3628 H   0  0  0  0  0  0  0  0  0  0  0  0  # atno 10167 bound_to 10162
  157.4501  130.8133  149.7780 H   0  0  0  0  0  0  0  0  0  0  0  0  # atno 10718 bound_to 10713
  153.4130  135.3829  155.2063 H   0  0  0  0  0  0  0  0  0  0  0  0  # atno 10763 bound_to 10752
  154.8739  135.3799  154.4477 H   0  0  0  0  0  0  0  0  0  0  0  0  # atno 10764 bound_to 10752
  153.4988  135.7088  153.5906 H   0  0  0  0  0  0  0  0  0  0  0  0  # atno 10765 bound_to 10752
  139.9313  134.9641  156.8262 H   0  0  0  0  0  0  0  0  0  0  0  0  # atno 11005 bound_to 11000
  145.9842  140.8657  143.0099 LP  0  0  0  0  0  0  0  0  0  0  0  0  # atno 17320 bound_to 7965
  144.6764  140.2123  143.7375 LP  0  0  0  0  0  0  0  0  0  0  0  0  # atno 17321 bound_to 7965
  139.6221  144.0887  152.2400 LP  0  0  0  0  0  0  0  0  0  0  0  0  # atno 17342 bound_to 10162
  140.0334  144.6063  150.7469 LP  0  0  0  0  0  0  0  0  0  0  0  0  # atno 17343 bound_to 10162
  155.9983  130.3895  150.2705 LP  0  0  0  0  0  0  0  0  0  0  0  0  # atno 17370 bound_to 10713
  157.0876  131.0161  151.3133 LP  0  0  0  0  0  0  0  0  0  0  0  0  # atno 17371 bound_to 10713
  140.6194  134.0008  155.7611 LP  0  0  0  0  0  0  0  0  0  0  0  0  # atno 17394 bound_to 11000
  141.0904  133.9926  157.3247 LP  0  0  0  0  0  0  0  0  0  0  0  0  # atno 17395 bound_to 11000

$$$$
