AV-unprocessed.smi:113|AV-procd|sdf|1093|dock1
  -GOLD-   2262018193D 1   1.00000     0.00000
 Structure written by MMmdl.
 52 55  0  0  0  0  0  0  0  0  1 V2000
  153.1508  139.1693  159.8651 C   0  0  0  0  0  0  0  0  0  0  0  0
  152.5547  140.4867  159.4147 C   0  0  0  0  0  0  0  0  0  0  0  0
  151.9256  140.5974  158.1622 C   0  0  0  0  0  0  0  0  0  0  0  0
  151.3768  141.8418  157.7770 C   0  0  0  0  0  0  0  0  0  0  0  0
  150.6830  142.0163  156.4211 C   0  0  0  0  0  0  0  0  0  0  0  0
  150.3691  140.8015  155.6815 N   0  0  0  0  0  0  0  0  0  0  0  0
  151.4495  140.0005  155.2382 C   0  0  0  0  0  0  0  0  0  0  0  0
  152.6210  140.3201  155.4522 O   0  0  0  0  0  0  0  0  0  0  0  0
  151.0664  138.7734  154.5365 C   0  0  0  0  0  0  0  0  0  0  0  0
  152.1731  137.8586  154.0359 C   0  0  0  0  0  0  0  0  0  0  0  0
  149.7556  138.4819  154.3579 C   0  0  0  0  0  0  0  0  0  0  0  0
  148.7165  139.2853  154.7942 N   0  0  0  0  0  0  0  0  0  0  0  0
  147.2875  138.8255  154.5865 C   0  0  2  0  0  0  0  0  0  0  0  0
  146.8903  137.6318  155.4620 C   0  0  0  0  0  0  0  0  0  0  0  0
  145.9438  136.8978  154.5350 C   0  0  2  0  0  0  0  0  0  0  0  0
  145.8743  135.5260  154.8656 O   0  0  0  0  0  0  0  0  0  0  0  0
  146.5734  137.1361  153.1586 C   0  0  1  0  0  0  0  0  0  0  0  0
  145.5607  137.0688  152.0052 C   0  0  0  0  0  0  0  0  0  0  0  0
  146.2218  137.2290  150.7683 O   0  0  0  0  0  0  0  0  0  0  0  0
  147.1166  138.4542  153.2499 O   0  0  0  0  0  0  0  0  0  0  0  0
  149.0062  140.4718  155.5050 C   0  0  0  0  0  0  0  0  0  0  0  0
  148.1079  141.1784  155.9660 O   0  0  0  0  0  0  0  0  0  0  0  0
  151.4878  142.9276  158.6872 C   0  0  0  0  0  0  0  0  0  0  0  0
  150.9616  144.2060  158.3812 C   0  0  0  0  0  0  0  0  0  0  0  0
  151.0856  145.2686  159.2937 C   0  0  0  0  0  0  0  0  0  0  0  0
  151.7356  145.0646  160.5220 C   0  0  0  0  0  0  0  0  0  0  0  0
  152.2585  143.7972  160.8350 C   0  0  0  0  0  0  0  0  0  0  0  0
  152.1456  142.7160  159.9348 C   0  0  0  0  0  0  0  0  0  0  0  0
  152.6615  141.5154  160.2780 N   0  0  0  0  0  0  0  0  0  0  0  0
  153.4842  138.5828  159.0084 H   0  0  0  0  0  0  0  0  0  0  0  0
  152.4071  138.5878  160.4104 H   0  0  0  0  0  0  0  0  0  0  0  0
  154.0096  139.3289  160.5183 H   0  0  0  0  0  0  0  0  0  0  0  0
  151.8725  139.7318  157.5195 H   0  0  0  0  0  0  0  0  0  0  0  0
  149.7526  142.5728  156.5436 H   0  0  0  0  0  0  0  0  0  0  0  0
  151.2879  142.6458  155.7672 H   0  0  0  0  0  0  0  0  0  0  0  0
  151.7751  136.9790  153.5291 H   0  0  0  0  0  0  0  0  0  0  0  0
  152.7883  137.5134  154.8679 H   0  0  0  0  0  0  0  0  0  0  0  0
  152.8154  138.3872  153.3305 H   0  0  0  0  0  0  0  0  0  0  0  0
  149.5111  137.5653  153.8404 H   0  0  0  0  0  0  0  0  0  0  0  0
  146.6533  139.6922  154.7751 H   0  0  0  0  0  0  0  0  0  0  0  0
  147.7551  137.0176  155.7108 H   0  0  0  0  0  0  0  0  0  0  0  0
  146.4229  137.9650  156.3890 H   0  0  0  0  0  0  0  0  0  0  0  0
  144.9511  137.3479  154.5870 H   0  0  0  0  0  0  0  0  0  0  0  0
  144.9836  135.3201  155.1062 H   0  0  0  0  0  0  0  0  0  0  0  0
  147.3873  136.4256  153.0041 H   0  0  0  0  0  0  0  0  0  0  0  0
  145.0744  136.0929  151.9901 H   0  0  0  0  0  0  0  0  0  0  0  0
  144.7778  137.8190  152.1192 H   0  0  0  0  0  0  0  0  0  0  0  0
  145.5848  137.4816  150.1175 H   0  0  0  0  0  0  0  0  0  0  0  0
  150.4551  144.3959  157.4475 H   0  0  0  0  0  0  0  0  0  0  0  0
  150.6813  146.2401  159.0504 H   0  0  0  0  0  0  0  0  0  0  0  0
  151.8328  145.8790  161.2248 H   0  0  0  0  0  0  0  0  0  0  0  0
  152.7552  143.6525  161.7833 H   0  0  0  0  0  0  0  0  0  0  0  0
  1  2  1  0  0  0  0
  1 30  1  0  0  0  0
  1 31  1  0  0  0  0
  1 32  1  0  0  0  0
  2 29  1  0  0  0  0
  2  3  2  0  0  0  0
  3  4  1  0  0  0  0
  3 33  1  0  0  0  0
  4  5  1  0  0  0  0
  4 23  2  0  0  0  0
  5  6  1  0  0  0  0
  5 34  1  0  0  0  0
  5 35  1  0  0  0  0
  6 21  1  0  0  0  0
  6  7  1  0  0  0  0
  7  8  2  0  0  0  0
  7  9  1  0  0  0  0
  9 10  1  0  0  0  0
  9 11  2  0  0  0  0
 10 36  1  0  0  0  0
 10 37  1  0  0  0  0
 10 38  1  0  0  0  0
 11 12  1  0  0  0  0
 11 39  1  0  0  0  0
 12 13  1  0  0  0  0
 12 21  1  0  0  0  0
 13 20  1  0  0  0  0
 13 14  1  0  0  0  0
 13 40  1  0  0  0  0
 14 15  1  0  0  0  0
 14 41  1  0  0  0  0
 14 42  1  0  0  0  0
 15 16  1  0  0  0  0
 15 17  1  0  0  0  0
 15 43  1  0  0  0  0
 16 44  1  0  0  0  0
 17 18  1  0  0  0  0
 17 20  1  0  0  0  0
 17 45  1  0  0  0  0
 18 19  1  0  0  0  0
 18 46  1  0  0  0  0
 18 47  1  0  0  0  0
 19 48  1  0  0  0  0
 21 22  2  0  0  0  0
 23 28  1  0  0  0  0
 23 24  1  0  0  0  0
 24 25  2  0  0  0  0
 24 49  1  0  0  0  0
 25 26  1  0  0  0  0
 25 50  1  0  0  0  0
 26 27  2  0  0  0  0
 26 51  1  0  0  0  0
 27 28  1  0  0  0  0
 27 52  1  0  0  0  0
 28 29  2  0  0  0  0
M  END
> <s_m_source_file>
AV-unprocessed.smi

> <i_m_source_file_index>
113

> <i_lp_mmshare_version>
43012

> <i_f3d_flags>
0

> <s_epik_input>
W2NIXTFbY0hdW2NIXVtjSF1jKGMxMiluYyhbQ0gzXSlbY0hdYzJbQ0gyXW4zYyg9TyljKFtDSDNdKVtjSF1uKGMzPU8pW0NAQEhdNFtDSDJdW0NAQEhdKFtPSF0pW0NASF0oTzQpW0NIMl1bT0hd

> <s_epik_cmdline>
J2VwaWtfcHl0aG9uJywgJy1waCcsICc3LjAnLCAnLXRuJywgJzgnLCAnLW1hJywgJzIwMCcsICctbWV0YWxfYmluZGluZycsICctaW1hZScsICc8aW5maWxlLm1hZT4nLCAnLW9tYWUnLCAnPG91dGZpbGUubWFlPic=

> <r_lp_tautomer_probability>
1

> <r_epik_Ionization_Penalty>
0.214728

> <r_epik_Ionization_Penalty_Charging>
3.04883e-08

> <r_epik_Ionization_Penalty_Neutral>
0.214728

> <r_epik_State_Penalty>
0.204913

> <r_epik_Charging_Adjusted_Penalty>
0.204913

> <i_epik_Tot_Q>
0

> <i_epik_Tot_abs_Q>
0

> <r_epik_Metal_State_Penalty>
0.000244761

> <b_epik_Metal_Only>
0

> <s_epik_Chemistry_Notes>
This compound contains an acetal/aminal-like group ( X-CH(R)-Y where X, Y are N, S, or O) that may be acid/base labile, releasing an aldehyde.

> <s_lp_Force_Field>
OPLS_2005

> <r_lp_Energy>
34.9534

> <b_lp_Chiralities_Consistent>
1

> <s_lp_Variant>
AV-unprocessed.smi:113-3

> <Gold.Version>
5.8.1

> <Gold.Id.Protein>
6NUR|6NUR_protein|mol2

> <Gold.PLP.Fitness>
57.5863

> <Gold.PLP.PLP>
-49.3819

> <Gold.PLP.part.hbond>
-3.0000

> <Gold.PLP.part.metal>
0.0000

> <Gold.PLP.part.buried>
-3.3738

> <Gold.PLP.part.nonpolar>
-43.5050

> <Gold.PLP.part.repulsive>
0.2962

> <Gold.PLP.ligand.clash>
0.0000

> <Gold.PLP.ligand.torsion>
0.4423

> <Gold.PLP.Chemscore.Hbond>
2.0000

> <Gold.PLP.Chemscore.CHOScore>
1.0000

> <Gold.PLP.Chemscore.Metal>
0.0000

> <Gold.Chemscore.Hbonds>
donor molecule, donor type, donor heavy atom, donor atom, acceptor molecule, acceptor atom, score
      L1  H    19    48       P1 10171  0.86
      P1  H  7954  7966       L1    19  0.53
      P1  H  7997  8008       L1     8  1.00
      L1  C    11    39       P1  7948  1.00

> <Gold.PLP.Chemscore.Internal.Correction>
0.0890

> <Gold.Rescore>
     Score         DG    S(hbond)    S(metal)    S(lipo)     H(rot)  DE(clash)    DE(int)     intcor
     17.56     -19.35       1.98        0.00     126.37       2.95       0.14       1.65       ----

> <Gold.Chemscore.Fitness>
17.5556

> <Gold.Chemscore.DG>
-19.3505

> <Gold.Chemscore.ZeroCoef>
-5.4800

> <Gold.Chemscore.Hbond>
1.9847

> <Gold.Chemscore.Metal>
0.0000

> <Gold.Chemscore.Lipo>
126.3718

> <Gold.Chemscore.Internal_Hbond>
0.0000

> <Gold.Chemscore.DEClash>
0.1421

> <Gold.Chemscore.DEInternal>
1.6529

> <Gold.Chemscore.Rot>
2.9469

> <Gold.Chemscore.Internal.Correction>
   9.000000E+99

> <Gold.Chemscore.Hbonds>
donor molecule, donor type, donor heavy atom, donor atom, acceptor molecule, acceptor atom, score
      L1  H    19    48       P1 10171  0.80
      P1  H  7954  7966       L1    19  0.23
      P1  H  7997  8008       L1     8  0.98

> <Gold.Chemscore.Hbond.Weighted>
-6.6290

> <Gold.Chemscore.Metal.Weighted>
-0.0000

> <Gold.Chemscore.Lipo.Weighted>
-14.7855

> <Gold.Chemscore.Internal_Hbond.Weighted>
0.0000

> <Gold.Chemscore.DEClash.Weighted>
0.1421

> <Gold.Chemscore.DEInternal.Weighted>
1.6529

> <Gold.Chemscore.Rot.Weighted>
7.5439

> <Gold.Chemscore.Internal.Correction.Weighted>
   9.000000E+99

> <Gold.Protein.RotatedTorsions>
[ 6907 6896 6895 6894 ] final  -83.59 input  -60.11 | X-H torsion
[ 7974 7965 7964 7962 ] final  -19.68 input  175.53 | X-H torsion
[ 8008 7997 7996 7995 ] final  -18.14 input   59.86 | X-H torsion
[ 10167 10162 10161 10158 ] final  121.86 input  -65.29 | X-H torsion
[ 10718 10713 10712 10709 ] final   42.18 input   66.30 | X-H torsion
[ 10763 10752 10751 10750 ] final  -65.04 input  -60.55 | X-H torsion
[ 11005 11000 10999 10996 ] final  167.67 input  -57.11 | X-H torsion

> <Gold.Protein.ActiveResidues>
 VAL166  LYS551  ARG553  GLY616  TRP617  ASP618  TYR619  PRO620  LYS621  CYS622 
 ASP623  PHE694  ASN695  SER759  ASP760  ASP761  ALA762  ILE779  LEU786  VAL792 
 PHE793  MET794  SER795  GLU796  ALA797  LYS798  CYS799  TRP800  GLU811  SER814 

> <Gold.Protein.RotatedAtoms>
  150.6884  134.3489  159.4899 H   0  0  0  0  0  0  0  0  0  0  0  0  # atno 6907 bound_to 6896
  152.1332  134.9116  160.0567 H   0  0  0  0  0  0  0  0  0  0  0  0  # atno 6908 bound_to 6896
  152.0278  133.3890  159.4321 H   0  0  0  0  0  0  0  0  0  0  0  0  # atno 6909 bound_to 6896
  146.1828  140.4096  142.8488 H   0  0  0  0  0  0  0  0  0  0  0  0  # atno 7974 bound_to 7965
  154.4927  140.2123  155.9513 H   0  0  0  0  0  0  0  0  0  0  0  0  # atno 8008 bound_to 7997
  156.1328  140.3194  155.8343 H   0  0  0  0  0  0  0  0  0  0  0  0  # atno 8009 bound_to 7997
  155.4265  140.0500  157.3012 H   0  0  0  0  0  0  0  0  0  0  0  0  # atno 8010 bound_to 7997
  139.5894  144.7019  151.3329 H   0  0  0  0  0  0  0  0  0  0  0  0  # atno 10167 bound_to 10162
  157.4019  130.7865  149.7356 H   0  0  0  0  0  0  0  0  0  0  0  0  # atno 10718 bound_to 10713
  154.3391  135.6160  153.5588 H   0  0  0  0  0  0  0  0  0  0  0  0  # atno 10763 bound_to 10752
  152.9805  135.5765  154.4873 H   0  0  0  0  0  0  0  0  0  0  0  0  # atno 10764 bound_to 10752
  154.4574  135.2855  155.1715 H   0  0  0  0  0  0  0  0  0  0  0  0  # atno 10765 bound_to 10752
  140.2793  134.7764  157.3744 H   0  0  0  0  0  0  0  0  0  0  0  0  # atno 11005 bound_to 11000
  144.8345  140.6760  143.6269 LP  0  0  0  0  0  0  0  0  0  0  0  0  # atno 17320 bound_to 7965
  145.4025  139.1595  143.4169 LP  0  0  0  0  0  0  0  0  0  0  0  0  # atno 17321 bound_to 7965
  140.7159  143.7266  150.7655 LP  0  0  0  0  0  0  0  0  0  0  0  0  # atno 17342 bound_to 10162
  140.0818  143.4961  152.2526 LP  0  0  0  0  0  0  0  0  0  0  0  0  # atno 17343 bound_to 10162
  155.9826  130.4008  150.3410 LP  0  0  0  0  0  0  0  0  0  0  0  0  # atno 17370 bound_to 10713
  157.1538  131.0328  151.2873 LP  0  0  0  0  0  0  0  0  0  0  0  0  # atno 17371 bound_to 10713
  140.1299  134.5109  155.8114 LP  0  0  0  0  0  0  0  0  0  0  0  0  # atno 17394 bound_to 11000
  141.2165  133.6786  156.7020 LP  0  0  0  0  0  0  0  0  0  0  0  0  # atno 17395 bound_to 11000

$$$$
