AV-unprocessed.smi:1584|AV-procd|sdf|6367|dock10
  -GOLD-   22720 6593D 1   1.00000     0.00000
 Structure written by MMmdl.
 39 40  0  0  0  0  0  0  0  0  1 V2000
  151.0598  140.3630  157.6785 C   0  0  0  0  0  0  0  0  0  0  0  0
  150.4337  141.6493  157.1149 C   0  0  2  0  0  0  0  0  0  0  0  0
  149.8412  142.5675  158.2067 C   0  0  0  0  0  0  0  0  0  0  0  0
  150.7892  143.5604  158.6794 N   0  0  0  0  0  0  0  0  0  0  0  0
  151.3496  144.6068  157.9778 C   0  0  0  0  0  0  0  0  0  0  0  0
  152.1806  145.2711  158.8337 C   0  0  0  0  0  0  0  0  0  0  0  0
  152.0577  144.5479  160.0530 C   0  0  0  0  0  0  0  0  0  0  0  0
  151.2228  143.5257  159.9583 N   0  0  0  0  0  0  0  0  0  0  0  0
  149.4040  141.2929  156.1429 N   0  0  0  0  0  0  0  0  0  0  0  0
  149.6132  140.6222  154.9989 C   0  0  0  0  0  0  0  0  0  0  0  0
  150.7243  140.2256  154.6460 O   0  0  0  0  0  0  0  0  0  0  0  0
  148.3750  140.3517  154.1261 C   0  0  1  0  0  0  0  0  0  0  0  0
  147.2913  139.5492  154.8598 C   0  0  0  0  0  0  0  0  0  0  0  0
  146.5503  140.4011  155.8993 C   0  0  0  0  0  0  0  0  0  0  0  0
  146.1102  141.6994  155.3742 N   0  0  0  0  0  0  0  0  0  0  0  0
  145.0326  142.3390  156.1316 C   0  0  0  0  0  0  0  0  0  0  0  0
  146.6653  142.3276  154.3094 C   0  0  0  0  0  0  0  0  0  0  0  0
  146.2855  143.4357  153.9301 O   0  0  0  0  0  0  0  0  0  0  0  0
  147.7973  141.6487  153.5145 C   0  0  0  0  0  0  0  0  0  0  0  0
  151.8984  140.5829  158.3393 H   0  0  0  0  0  0  0  0  0  0  0  0
  151.4393  139.7277  156.8773 H   0  0  0  0  0  0  0  0  0  0  0  0
  150.3313  139.7839  158.2467 H   0  0  0  0  0  0  0  0  0  0  0  0
  151.2245  142.1935  156.5950 H   0  0  0  0  0  0  0  0  0  0  0  0
  148.9678  143.0976  157.8252 H   0  0  0  0  0  0  0  0  0  0  0  0
  149.4963  141.9739  159.0551 H   0  0  0  0  0  0  0  0  0  0  0  0
  151.1134  144.7873  156.9393 H   0  0  0  0  0  0  0  0  0  0  0  0
  152.7837  146.1414  158.6214 H   0  0  0  0  0  0  0  0  0  0  0  0
  152.5468  144.7349  160.9977 H   0  0  0  0  0  0  0  0  0  0  0  0
  148.4595  141.5786  156.3573 H   0  0  0  0  0  0  0  0  0  0  0  0
  148.7145  139.7349  153.2920 H   0  0  0  0  0  0  0  0  0  0  0  0
  146.5735  139.1746  154.1288 H   0  0  0  0  0  0  0  0  0  0  0  0
  147.7208  138.6679  155.3382 H   0  0  0  0  0  0  0  0  0  0  0  0
  145.6919  139.8357  156.2645 H   0  0  0  0  0  0  0  0  0  0  0  0
  147.1889  140.5808  156.7649 H   0  0  0  0  0  0  0  0  0  0  0  0
  145.3211  143.3429  156.4471 H   0  0  0  0  0  0  0  0  0  0  0  0
  144.7738  141.7812  157.0324 H   0  0  0  0  0  0  0  0  0  0  0  0
  144.1328  142.4178  155.5202 H   0  0  0  0  0  0  0  0  0  0  0  0
  148.5876  142.3800  153.3358 H   0  0  0  0  0  0  0  0  0  0  0  0
  147.3894  141.4153  152.5304 H   0  0  0  0  0  0  0  0  0  0  0  0
  1  2  1  0  0  0  0
  1 20  1  0  0  0  0
  1 21  1  0  0  0  0
  1 22  1  0  0  0  0
  2  3  1  0  0  0  0
  2  9  1  0  0  0  0
  2 23  1  0  0  0  0
  3  4  1  0  0  0  0
  3 24  1  0  0  0  0
  3 25  1  0  0  0  0
  4  8  1  0  0  0  0
  4  5  1  0  0  0  0
  5  6  2  0  0  0  0
  5 26  1  0  0  0  0
  6  7  1  0  0  0  0
  6 27  1  0  0  0  0
  7  8  2  0  0  0  0
  7 28  1  0  0  0  0
  9 10  1  0  0  0  0
  9 29  1  0  0  0  0
 10 11  2  0  0  0  0
 10 12  1  0  0  0  0
 12 19  1  0  0  0  0
 12 13  1  0  0  0  0
 12 30  1  0  0  0  0
 13 14  1  0  0  0  0
 13 31  1  0  0  0  0
 13 32  1  0  0  0  0
 14 15  1  0  0  0  0
 14 33  1  0  0  0  0
 14 34  1  0  0  0  0
 15 16  1  0  0  0  0
 15 17  1  0  0  0  0
 16 35  1  0  0  0  0
 16 36  1  0  0  0  0
 16 37  1  0  0  0  0
 17 18  2  0  0  0  0
 17 19  1  0  0  0  0
 19 38  1  0  0  0  0
 19 39  1  0  0  0  0
M  END
> <s_m_source_file>
AV-unprocessed.smi

> <i_m_source_file_index>
1584

> <i_lp_mmshare_version>
43012

> <i_f3d_flags>
0

> <s_epik_input>
bjFbY0hdW2NIXVtjSF1uMVtDSDJdW0NAQEhdKFtDSDNdKVtOSF1DKD1PKVtDQEBIXTJbQ0gyXVtDSDJdTihbQ0gzXSlDKD1PKVtDSDJdMg==

> <s_epik_cmdline>
J2VwaWtfcHl0aG9uJywgJy1waCcsICc3LjAnLCAnLXRuJywgJzgnLCAnLW1hJywgJzIwMCcsICctbWV0YWxfYmluZGluZycsICctaW1hZScsICc8aW5maWxlLm1hZT4nLCAnLW9tYWUnLCAnPG91dGZpbGUubWFlPic=

> <r_lp_tautomer_probability>
1

> <r_epik_Ionization_Penalty>
0.000299422

> <r_epik_Ionization_Penalty_Charging>
0

> <r_epik_Ionization_Penalty_Neutral>
0.000299422

> <r_epik_State_Penalty>
-0

> <r_epik_Charging_Adjusted_Penalty>
0

> <i_epik_Tot_Q>
0

> <i_epik_Tot_abs_Q>
0

> <r_epik_Metal_State_Penalty>
-0

> <b_epik_Metal_Only>
0

> <s_lp_Force_Field>
OPLS_2005

> <r_lp_Energy>
12.5002

> <b_lp_Chiralities_Consistent>
1

> <s_lp_Variant>
AV-unprocessed.smi:1584-3

> <Gold.Version>
5.8.1

> <Gold.Id.Protein>
6NUR|6NUR_protein|mol2

> <Gold.PLP.Fitness>
40.9926

> <Gold.PLP.PLP>
-36.0560

> <Gold.PLP.part.hbond>
-1.9127

> <Gold.PLP.part.metal>
0.0000

> <Gold.PLP.part.buried>
-5.2271

> <Gold.PLP.part.nonpolar>
-28.9355

> <Gold.PLP.part.repulsive>
0.4111

> <Gold.PLP.ligand.clash>
0.0094

> <Gold.PLP.ligand.torsion>
0.5595

> <Gold.PLP.Chemscore.Hbond>
1.0000

> <Gold.PLP.Chemscore.CHOScore>
1.0000

> <Gold.PLP.Chemscore.Metal>
0.0000

> <Gold.Chemscore.Hbonds>
donor molecule, donor type, donor heavy atom, donor atom, acceptor molecule, acceptor atom, score
      P1  H  7989  7998       L1    11  1.00
      L1  C     5    26       P1  8028  1.00

> <Gold.PLP.Chemscore.Internal.Correction>
0.0650

> <Gold.Rescore>
     Score         DG    S(hbond)    S(metal)    S(lipo)     H(rot)  DE(clash)    DE(int)     intcor
     12.59     -13.24       1.00        0.00      74.46       1.67       0.02       0.62       ----

> <Gold.Chemscore.Fitness>
12.5882

> <Gold.Chemscore.DG>
-13.2362

> <Gold.Chemscore.ZeroCoef>
-5.4800

> <Gold.Chemscore.Hbond>
0.9965

> <Gold.Chemscore.Metal>
0.0000

> <Gold.Chemscore.Lipo>
74.4617

> <Gold.Chemscore.Internal_Hbond>
0.0000

> <Gold.Chemscore.DEClash>
0.0240

> <Gold.Chemscore.DEInternal>
0.6240

> <Gold.Chemscore.Rot>
1.6734

> <Gold.Chemscore.Internal.Correction>
   9.000000E+99

> <Gold.Chemscore.Hbonds>
donor molecule, donor type, donor heavy atom, donor atom, acceptor molecule, acceptor atom, score
      P1  H  7989  7998       L1    11  0.98

> <Gold.Chemscore.Hbond.Weighted>
-3.3282

> <Gold.Chemscore.Metal.Weighted>
-0.0000

> <Gold.Chemscore.Lipo.Weighted>
-8.7120

> <Gold.Chemscore.Internal_Hbond.Weighted>
0.0000

> <Gold.Chemscore.DEClash.Weighted>
0.0240

> <Gold.Chemscore.DEInternal.Weighted>
0.6240

> <Gold.Chemscore.Rot.Weighted>
4.2840

> <Gold.Chemscore.Internal.Correction.Weighted>
   9.000000E+99

> <Gold.Protein.RotatedTorsions>
[ 6907 6896 6895 6894 ] final   -8.81 input  -60.11 | X-H torsion
[ 7974 7965 7964 7962 ] final  165.88 input  175.53 | X-H torsion
[ 8008 7997 7996 7995 ] final   99.36 input   59.86 | X-H torsion
[ 10167 10162 10161 10158 ] final -102.80 input  -65.29 | X-H torsion
[ 10718 10713 10712 10709 ] final   73.90 input   66.30 | X-H torsion
[ 10763 10752 10751 10750 ] final -134.68 input  -60.55 | X-H torsion
[ 11005 11000 10999 10996 ] final -154.07 input  -57.11 | X-H torsion

> <Gold.Protein.ActiveResidues>
 VAL166  LYS551  ARG553  GLY616  TRP617  ASP618  TYR619  PRO620  LYS621  CYS622 
 ASP623  PHE694  ASN695  SER759  ASP760  ASP761  ALA762  ILE779  LEU786  VAL792 
 PHE793  MET794  SER795  GLU796  ALA797  LYS798  CYS799  TRP800  GLU811  SER814 

> <Gold.Protein.RotatedAtoms>
  151.4278  135.1006  159.9632 H   0  0  0  0  0  0  0  0  0  0  0  0  # atno 6907 bound_to 6896
  152.4966  133.8646  159.7278 H   0  0  0  0  0  0  0  0  0  0  0  0  # atno 6908 bound_to 6896
  150.9177  133.6861  159.2867 H   0  0  0  0  0  0  0  0  0  0  0  0  # atno 6909 bound_to 6896
  144.7484  139.8535  143.6374 H   0  0  0  0  0  0  0  0  0  0  0  0  # atno 7974 bound_to 7965
  156.1097  140.3230  155.8055 H   0  0  0  0  0  0  0  0  0  0  0  0  # atno 8008 bound_to 7997
  155.4695  140.0545  157.2998 H   0  0  0  0  0  0  0  0  0  0  0  0  # atno 8009 bound_to 7997
  154.4751  140.2029  155.9912 H   0  0  0  0  0  0  0  0  0  0  0  0  # atno 8010 bound_to 7997
  140.2267  143.3636  152.0922 H   0  0  0  0  0  0  0  0  0  0  0  0  # atno 10167 bound_to 10162
  157.6569  130.9651  150.1135 H   0  0  0  0  0  0  0  0  0  0  0  0  # atno 10718 bound_to 10713
  154.8715  135.3727  154.4774 H   0  0  0  0  0  0  0  0  0  0  0  0  # atno 10763 bound_to 10752
  153.5430  135.7026  153.5632 H   0  0  0  0  0  0  0  0  0  0  0  0  # atno 10764 bound_to 10752
  153.3785  135.4002  155.1804 H   0  0  0  0  0  0  0  0  0  0  0  0  # atno 10765 bound_to 10752
  140.7013  134.3934  157.5209 H   0  0  0  0  0  0  0  0  0  0  0  0  # atno 11005 bound_to 11000
  146.1399  139.4453  143.0115 LP  0  0  0  0  0  0  0  0  0  0  0  0  # atno 17320 bound_to 7965
  145.7034  141.0129  143.1492 LP  0  0  0  0  0  0  0  0  0  0  0  0  # atno 17321 bound_to 7965
  139.5124  144.6917  151.5743 LP  0  0  0  0  0  0  0  0  0  0  0  0  # atno 17342 bound_to 10162
  140.6215  143.9249  150.6530 LP  0  0  0  0  0  0  0  0  0  0  0  0  # atno 17343 bound_to 10162
  156.2025  130.3661  149.8770 LP  0  0  0  0  0  0  0  0  0  0  0  0  # atno 17370 bound_to 10713
  156.6670  130.8805  151.3556 LP  0  0  0  0  0  0  0  0  0  0  0  0  # atno 17371 bound_to 10713
  139.8896  134.8826  156.2413 LP  0  0  0  0  0  0  0  0  0  0  0  0  # atno 17394 bound_to 11000
  141.0161  133.7067  156.1191 LP  0  0  0  0  0  0  0  0  0  0  0  0  # atno 17395 bound_to 11000

$$$$
