AV-unprocessed.smi:593|AV-procd|sdf|3013|dock1
  -GOLD-   2262023523D 1   1.00000     0.00000
 Structure written by MMmdl.
 40 41  0  0  0  0  0  0  0  0  3 V2000
  149.8935  140.1883  158.2251 O   0  0  0  0  0  0  0  0  0  0  0  0
  150.4653  140.6393  157.2337 C   0  0  0  0  0  0  0  0  0  0  0  0
  149.7882  140.5161  155.8571 C   0  0  0  0  0  0  0  0  0  0  0  0
  148.4908  141.2079  155.7390 N   0  0  0  0  0  0  0  0  0  0  0  0
  147.7940  141.4648  156.9362 C   0  0  0  0  0  0  0  0  0  0  0  0
  146.6056  142.0993  156.9516 C   0  0  0  0  0  0  0  0  0  0  0  0
  145.9082  142.3606  158.1915 N   0  3  0  0  0  0  0  0  0  0  0  0
  146.4158  141.9833  159.2428 O   0  0  0  0  0  0  0  0  0  0  0  0
  144.8319  142.9497  158.1566 O   0  5  0  0  0  0  0  0  0  0  0  0
  146.0491  142.5189  155.6802 C   0  0  0  0  0  0  0  0  0  0  0  0
  146.7123  142.2805  154.5317 C   0  0  0  0  0  0  0  0  0  0  0  0
  148.0080  141.5942  154.5179 C   0  0  0  0  0  0  0  0  0  0  0  0
  148.6259  141.3872  153.4737 O   0  0  0  0  0  0  0  0  0  0  0  0
  151.6654  141.2376  157.2972 N   0  0  0  0  0  0  0  0  0  0  0  0
  152.4637  141.3973  158.5041 C   0  0  0  0  0  0  0  0  0  0  0  0
  151.8895  142.5084  159.4041 C   0  0  0  0  0  0  0  0  0  0  0  0
  151.7303  143.8514  158.6545 C   0  0  0  0  0  0  0  0  0  0  0  0
  151.1739  144.9532  159.5711 C   0  0  0  0  0  0  0  0  0  0  0  0
  152.0431  145.1291  160.8252 C   0  0  0  0  0  0  0  0  0  0  0  0
  152.1980  143.8006  161.5800 C   0  0  0  0  0  0  0  0  0  0  0  0
  152.7585  142.7011  160.6632 C   0  0  0  0  0  0  0  0  0  0  0  0
  150.4819  140.8826  155.0986 H   0  0  0  0  0  0  0  0  0  0  0  0
  149.6689  139.4547  155.6349 H   0  0  0  0  0  0  0  0  0  0  0  0
  148.2958  141.1193  157.8288 H   0  0  0  0  0  0  0  0  0  0  0  0
  145.0974  143.0282  155.6398 H   0  0  0  0  0  0  0  0  0  0  0  0
  146.2800  142.6033  153.5959 H   0  0  0  0  0  0  0  0  0  0  0  0
  152.0670  141.5863  156.4390 H   0  0  0  0  0  0  0  0  0  0  0  0
  152.4772  140.4470  159.0393 H   0  0  0  0  0  0  0  0  0  0  0  0
  153.4968  141.6299  158.2392 H   0  0  0  0  0  0  0  0  0  0  0  0
  150.8989  142.1896  159.7328 H   0  0  0  0  0  0  0  0  0  0  0  0
  152.6955  144.1649  158.2548 H   0  0  0  0  0  0  0  0  0  0  0  0
  151.0660  143.7368  157.7975 H   0  0  0  0  0  0  0  0  0  0  0  0
  151.1158  145.8954  159.0254 H   0  0  0  0  0  0  0  0  0  0  0  0
  150.1539  144.7027  159.8650 H   0  0  0  0  0  0  0  0  0  0  0  0
  153.0266  145.5042  160.5395 H   0  0  0  0  0  0  0  0  0  0  0  0
  151.6033  145.8808  161.4811 H   0  0  0  0  0  0  0  0  0  0  0  0
  152.8539  143.9372  162.4400 H   0  0  0  0  0  0  0  0  0  0  0  0
  151.2303  143.4893  161.9752 H   0  0  0  0  0  0  0  0  0  0  0  0
  152.8238  141.7646  161.2180 H   0  0  0  0  0  0  0  0  0  0  0  0
  153.7781  142.9573  160.3718 H   0  0  0  0  0  0  0  0  0  0  0  0
  1  2  2  0  0  0  0
  2  3  1  0  0  0  0
  2 14  1  0  0  0  0
  3  4  1  0  0  0  0
  3 22  1  0  0  0  0
  3 23  1  0  0  0  0
  4 12  1  0  0  0  0
  4  5  1  0  0  0  0
  5  6  2  0  0  0  0
  5 24  1  0  0  0  0
  6  7  1  0  0  0  0
  6 10  1  0  0  0  0
  7  8  2  0  0  0  0
  7  9  1  0  0  0  0
 10 11  2  0  0  0  0
 10 25  1  0  0  0  0
 11 12  1  0  0  0  0
 11 26  1  0  0  0  0
 12 13  2  0  0  0  0
 14 15  1  0  0  0  0
 14 27  1  0  0  0  0
 15 16  1  0  0  0  0
 15 28  1  0  0  0  0
 15 29  1  0  0  0  0
 16 21  1  0  0  0  0
 16 17  1  0  0  0  0
 16 30  1  0  0  0  0
 17 18  1  0  0  0  0
 17 31  1  0  0  0  0
 17 32  1  0  0  0  0
 18 19  1  0  0  0  0
 18 33  1  0  0  0  0
 18 34  1  0  0  0  0
 19 20  1  0  0  0  0
 19 35  1  0  0  0  0
 19 36  1  0  0  0  0
 20 21  1  0  0  0  0
 20 37  1  0  0  0  0
 20 38  1  0  0  0  0
 21 39  1  0  0  0  0
 21 40  1  0  0  0  0
M  CHG  1   7   1
M  CHG  1   9  -1
M  END
> <s_m_source_file>
AV-unprocessed.smi

> <i_m_source_file_index>
593

> <i_lp_mmshare_version>
43012

> <i_f3d_flags>
0

> <s_epik_input>
W0NIMl0xW0NIMl1bQ0gyXVtDSDJdW0NIMl1bQ0hdMVtDSDJdW05IXUMoPU8pW0NIMl1uMltjSF1jKFtOK10oPU8pW08tXSlbY0hdW2NIXWMyPU8=

> <s_epik_cmdline>
J2VwaWtfcHl0aG9uJywgJy1waCcsICc3LjAnLCAnLXRuJywgJzgnLCAnLW1hJywgJzIwMCcsICctbWV0YWxfYmluZGluZycsICctaW1hZScsICc8aW5maWxlLm1hZT4nLCAnLW9tYWUnLCAnPG91dGZpbGUubWFlPic=

> <r_lp_tautomer_probability>
1

> <r_epik_Ionization_Penalty>
1.98738e-08

> <r_epik_Ionization_Penalty_Charging>
7.60687e-11

> <r_epik_Ionization_Penalty_Neutral>
1.97978e-08

> <r_epik_State_Penalty>
-0

> <r_epik_Charging_Adjusted_Penalty>
7.60687e-11

> <i_epik_Tot_Q>
0

> <i_epik_Tot_abs_Q>
2

> <r_epik_Metal_State_Penalty>
-0

> <b_epik_Metal_Only>
0

> <s_lp_Force_Field>
OPLS_2005

> <r_lp_Energy>
22.1176

> <b_lp_Chiralities_Consistent>
1

> <s_lp_Variant>
AV-unprocessed.smi:593-1

> <Gold.Version>
5.8.1

> <Gold.Id.Protein>
6NUR|6NUR_protein|mol2

> <Gold.PLP.Fitness>
43.6821

> <Gold.PLP.PLP>
-38.9888

> <Gold.PLP.part.hbond>
-2.0000

> <Gold.PLP.part.metal>
0.0000

> <Gold.PLP.part.buried>
-6.1070

> <Gold.PLP.part.nonpolar>
-32.9433

> <Gold.PLP.part.repulsive>
2.1042

> <Gold.PLP.ligand.clash>
0.0000

> <Gold.PLP.ligand.torsion>
0.4339

> <Gold.PLP.Chemscore.Hbond>
1.8240

> <Gold.PLP.Chemscore.CHOScore>
0.0000

> <Gold.PLP.Chemscore.Metal>
0.0000

> <Gold.Chemscore.Hbonds>
donor molecule, donor type, donor heavy atom, donor atom, acceptor molecule, acceptor atom, score
      P1  H  6934  6946       L1     8  0.96
      P1  H  8011  8017       L1    13  0.82

> <Gold.PLP.Chemscore.Internal.Correction>
0.0891

> <Gold.Rescore>
     Score         DG    S(hbond)    S(metal)    S(lipo)     H(rot)  DE(clash)    DE(int)     intcor
     14.98     -17.81       1.76        0.00      94.13       1.78       0.95       1.88       ----

> <Gold.Chemscore.Fitness>
14.9758

> <Gold.Chemscore.DG>
-17.8063

> <Gold.Chemscore.ZeroCoef>
-5.4800

> <Gold.Chemscore.Hbond>
1.7592

> <Gold.Chemscore.Metal>
0.0000

> <Gold.Chemscore.Lipo>
94.1302

> <Gold.Chemscore.Internal_Hbond>
0.0000

> <Gold.Chemscore.DEClash>
0.9473

> <Gold.Chemscore.DEInternal>
1.8833

> <Gold.Chemscore.Rot>
1.7823

> <Gold.Chemscore.Internal.Correction>
   9.000000E+99

> <Gold.Chemscore.Hbonds>
donor molecule, donor type, donor heavy atom, donor atom, acceptor molecule, acceptor atom, score
      P1  H  6934  6946       L1     8  0.92
      P1  H  8011  8017       L1    13  0.81

> <Gold.Chemscore.Hbond.Weighted>
-5.8757

> <Gold.Chemscore.Metal.Weighted>
-0.0000

> <Gold.Chemscore.Lipo.Weighted>
-11.0132

> <Gold.Chemscore.Internal_Hbond.Weighted>
0.0000

> <Gold.Chemscore.DEClash.Weighted>
0.9473

> <Gold.Chemscore.DEInternal.Weighted>
1.8833

> <Gold.Chemscore.Rot.Weighted>
4.5627

> <Gold.Chemscore.Internal.Correction.Weighted>
   9.000000E+99

> <Gold.Protein.RotatedTorsions>
[ 6907 6896 6895 6894 ] final  -87.91 input  -60.11 | X-H torsion
[ 7974 7965 7964 7962 ] final   14.89 input  175.53 | X-H torsion
[ 8008 7997 7996 7995 ] final   51.02 input   59.86 | X-H torsion
[ 10167 10162 10161 10158 ] final -101.76 input  -65.29 | X-H torsion
[ 10718 10713 10712 10709 ] final  -44.73 input   66.30 | X-H torsion
[ 10763 10752 10751 10750 ] final   52.81 input  -60.55 | X-H torsion
[ 11005 11000 10999 10996 ] final   -9.91 input  -57.11 | X-H torsion

> <Gold.Protein.ActiveResidues>
 VAL166  LYS551  ARG553  GLY616  TRP617  ASP618  TYR619  PRO620  LYS621  CYS622 
 ASP623  PHE694  ASN695  SER759  ASP760  ASP761  ALA762  ILE779  LEU786  VAL792 
 PHE793  MET794  SER795  GLU796  ALA797  LYS798  CYS799  TRP800  GLU811  SER814 

> <Gold.Protein.RotatedAtoms>
  150.6867  134.2824  159.4632 H   0  0  0  0  0  0  0  0  0  0  0  0  # atno 6907 bound_to 6896
  152.0736  134.9514  160.0583 H   0  0  0  0  0  0  0  0  0  0  0  0  # atno 6908 bound_to 6896
  152.0895  133.4158  159.4574 H   0  0  0  0  0  0  0  0  0  0  0  0  # atno 6909 bound_to 6896
  146.2293  139.8975  142.8544 H   0  0  0  0  0  0  0  0  0  0  0  0  # atno 7974 bound_to 7965
  155.4284  140.3449  155.4278 H   0  0  0  0  0  0  0  0  0  0  0  0  # atno 8008 bound_to 7997
  156.1351  140.1525  156.9037 H   0  0  0  0  0  0  0  0  0  0  0  0  # atno 8009 bound_to 7997
  154.4925  140.0837  156.7606 H   0  0  0  0  0  0  0  0  0  0  0  0  # atno 8010 bound_to 7997
  140.2378  143.3560  152.0829 H   0  0  0  0  0  0  0  0  0  0  0  0  # atno 10167 bound_to 10162
  156.2355  130.4176  149.8823 H   0  0  0  0  0  0  0  0  0  0  0  0  # atno 10718 bound_to 10713
  152.9791  135.5800  154.4639 H   0  0  0  0  0  0  0  0  0  0  0  0  # atno 10763 bound_to 10752
  154.4211  135.2771  155.1976 H   0  0  0  0  0  0  0  0  0  0  0  0  # atno 10764 bound_to 10752
  154.3725  135.6164  153.5801 H   0  0  0  0  0  0  0  0  0  0  0  0  # atno 10765 bound_to 10752
  140.7392  133.8684  155.8954 H   0  0  0  0  0  0  0  0  0  0  0  0  # atno 11005 bound_to 11000
  145.2356  140.9990  143.3965 LP  0  0  0  0  0  0  0  0  0  0  0  0  # atno 17320 bound_to 7965
  144.9494  139.4099  143.6410 LP  0  0  0  0  0  0  0  0  0  0  0  0  # atno 17321 bound_to 7965
  139.5087  144.6855  151.5898 LP  0  0  0  0  0  0  0  0  0  0  0  0  # atno 17342 bound_to 10162
  140.6136  143.9390  150.6472 LP  0  0  0  0  0  0  0  0  0  0  0  0  # atno 17343 bound_to 10162
  156.6422  130.8709  151.3516 LP  0  0  0  0  0  0  0  0  0  0  0  0  # atno 17370 bound_to 10713
  157.7152  130.9489  150.1231 LP  0  0  0  0  0  0  0  0  0  0  0  0  # atno 17371 bound_to 10713
  140.9852  134.1352  157.4458 LP  0  0  0  0  0  0  0  0  0  0  0  0  # atno 17394 bound_to 11000
  139.8810  135.0023  156.6119 LP  0  0  0  0  0  0  0  0  0  0  0  0  # atno 17395 bound_to 11000

$$$$
