AV-unprocessed.smi:3269|AV-procd|sdf|12511|dock7
  -GOLD-   2272018423D 1   1.00000     0.00000
 Structure written by MMmdl.
 39 40  0  0  0  0  0  0  0  0  1 V2000
  154.7616  140.5776  159.7781 C   0  0  0  0  0  0  0  0  0  0  0  0
  153.8528  141.2287  160.7812 C   0  0  0  0  0  0  0  0  0  0  0  0
  154.1042  141.0900  162.0723 N   0  0  0  0  0  0  0  0  0  0  0  0
  153.1308  141.7892  162.6894 N   0  0  0  0  0  0  0  0  0  0  0  0
  153.1124  141.8575  164.1377 C   0  0  0  0  0  0  0  0  0  0  0  0
  152.2592  142.3662  161.7865 C   0  0  0  0  0  0  0  0  0  0  0  0
  151.0981  143.1996  162.2249 C   0  0  0  0  0  0  0  0  0  0  0  0
  152.6962  142.0247  160.5336 C   0  0  0  0  0  0  0  0  0  0  0  0
  152.1173  142.4023  159.1932 C   0  0  0  0  0  0  0  0  0  0  0  0
  151.7822  141.1302  158.4158 C   0  0  0  0  0  0  0  0  0  0  0  0
  152.1461  140.0335  158.8405 O   0  0  0  0  0  0  0  0  0  0  0  0
  151.1187  141.2960  157.2618 N   0  0  0  0  0  0  0  0  0  0  0  0
  150.8383  140.2416  156.2964 C   0  0  0  0  0  0  0  0  0  0  0  0
  149.4101  140.3754  155.7434 C   0  0  1  0  0  0  0  0  0  0  0  0
  149.0201  141.7998  155.3554 C   0  0  0  0  0  0  0  0  0  0  0  0
  147.9536  141.5995  154.2882 C   0  0  0  0  0  0  0  0  0  0  0  0
  148.0709  140.1195  153.9111 C   0  0  0  0  0  0  0  0  0  0  0  0
  149.2799  139.6814  154.5127 O   0  0  0  0  0  0  0  0  0  0  0  0
  155.0871  141.2954  159.0250 H   0  0  0  0  0  0  0  0  0  0  0  0
  154.2518  139.7638  159.2626 H   0  0  0  0  0  0  0  0  0  0  0  0
  155.6552  140.1650  160.2480 H   0  0  0  0  0  0  0  0  0  0  0  0
  152.1764  141.4429  164.5128 H   0  0  0  0  0  0  0  0  0  0  0  0
  153.1958  142.8969  164.4558 H   0  0  0  0  0  0  0  0  0  0  0  0
  153.9432  141.2913  164.5614 H   0  0  0  0  0  0  0  0  0  0  0  0
  150.4496  143.4491  161.3857 H   0  0  0  0  0  0  0  0  0  0  0  0
  151.4411  144.1329  162.6714 H   0  0  0  0  0  0  0  0  0  0  0  0
  150.4953  142.6710  162.9634 H   0  0  0  0  0  0  0  0  0  0  0  0
  151.2086  142.9951  159.3023 H   0  0  0  0  0  0  0  0  0  0  0  0
  152.8099  143.0176  158.6174 H   0  0  0  0  0  0  0  0  0  0  0  0
  150.8593  142.2347  156.9957 H   0  0  0  0  0  0  0  0  0  0  0  0
  151.5662  140.2713  155.4840 H   0  0  0  0  0  0  0  0  0  0  0  0
  150.9627  139.2782  156.7916 H   0  0  0  0  0  0  0  0  0  0  0  0
  148.6827  139.9778  156.4544 H   0  0  0  0  0  0  0  0  0  0  0  0
  148.6659  142.3833  156.2060 H   0  0  0  0  0  0  0  0  0  0  0  0
  149.8749  142.3216  154.9225 H   0  0  0  0  0  0  0  0  0  0  0  0
  146.9561  141.8220  154.6688 H   0  0  0  0  0  0  0  0  0  0  0  0
  148.1384  142.2480  153.4312 H   0  0  0  0  0  0  0  0  0  0  0  0
  147.2384  139.5497  154.3271 H   0  0  0  0  0  0  0  0  0  0  0  0
  148.0870  139.9602  152.8328 H   0  0  0  0  0  0  0  0  0  0  0  0
  1  2  1  0  0  0  0
  1 19  1  0  0  0  0
  1 20  1  0  0  0  0
  1 21  1  0  0  0  0
  2  8  1  0  0  0  0
  2  3  2  0  0  0  0
  3  4  1  0  0  0  0
  4  5  1  0  0  0  0
  4  6  1  0  0  0  0
  5 22  1  0  0  0  0
  5 23  1  0  0  0  0
  5 24  1  0  0  0  0
  6  7  1  0  0  0  0
  6  8  2  0  0  0  0
  7 25  1  0  0  0  0
  7 26  1  0  0  0  0
  7 27  1  0  0  0  0
  8  9  1  0  0  0  0
  9 10  1  0  0  0  0
  9 28  1  0  0  0  0
  9 29  1  0  0  0  0
 10 11  2  0  0  0  0
 10 12  1  0  0  0  0
 12 13  1  0  0  0  0
 12 30  1  0  0  0  0
 13 14  1  0  0  0  0
 13 31  1  0  0  0  0
 13 32  1  0  0  0  0
 14 18  1  0  0  0  0
 14 15  1  0  0  0  0
 14 33  1  0  0  0  0
 15 16  1  0  0  0  0
 15 34  1  0  0  0  0
 15 35  1  0  0  0  0
 16 17  1  0  0  0  0
 16 36  1  0  0  0  0
 16 37  1  0  0  0  0
 17 18  1  0  0  0  0
 17 38  1  0  0  0  0
 17 39  1  0  0  0  0
M  END
> <s_m_source_file>
AV-unprocessed.smi

> <i_m_source_file_index>
3269

> <i_lp_mmshare_version>
43012

> <i_f3d_flags>
0

> <s_epik_input>
W0NIM11jMW5uKFtDSDNdKWMoW0NIM10pYzFbQ0gyXUMoPU8pW05IXVtDSDJdW0NAQEhdMltDSDJdW0NIMl1bQ0gyXU8y

> <s_epik_cmdline>
J2VwaWtfcHl0aG9uJywgJy1waCcsICc3LjAnLCAnLXRuJywgJzgnLCAnLW1hJywgJzIwMCcsICctbWV0YWxfYmluZGluZycsICctaW1hZScsICc8aW5maWxlLm1hZT4nLCAnLW9tYWUnLCAnPG91dGZpbGUubWFlPic=

> <r_lp_tautomer_probability>
1

> <r_epik_Ionization_Penalty>
0.00306713

> <r_epik_Ionization_Penalty_Charging>
0

> <r_epik_Ionization_Penalty_Neutral>
0.00306713

> <r_epik_State_Penalty>
0.00215672

> <r_epik_Charging_Adjusted_Penalty>
0.00215672

> <i_epik_Tot_Q>
0

> <i_epik_Tot_abs_Q>
0

> <r_epik_Metal_State_Penalty>
-0

> <b_epik_Metal_Only>
0

> <s_lp_Force_Field>
OPLS_2005

> <r_lp_Energy>
10.8306

> <b_lp_Chiralities_Consistent>
1

> <s_lp_Variant>
AV-unprocessed.smi:3269-2

> <Gold.Version>
5.8.1

> <Gold.Id.Protein>
6NUR|6NUR_protein|mol2

> <Gold.PLP.Fitness>
40.1727

> <Gold.PLP.PLP>
-40.8558

> <Gold.PLP.part.hbond>
-1.0000

> <Gold.PLP.part.metal>
0.0000

> <Gold.PLP.part.buried>
-3.5459

> <Gold.PLP.part.nonpolar>
-36.3427

> <Gold.PLP.part.repulsive>
0.2090

> <Gold.PLP.ligand.clash>
0.0000

> <Gold.PLP.ligand.torsion>
0.3485

> <Gold.PLP.Chemscore.Hbond>
0.0000

> <Gold.PLP.Chemscore.CHOScore>
0.0000

> <Gold.PLP.Chemscore.Metal>
0.0000

> <Gold.PLP.Chemscore.Internal.Correction>
0.0139

> <Gold.Rescore>
     Score         DG    S(hbond)    S(metal)    S(lipo)     H(rot)  DE(clash)    DE(int)     intcor
     11.01     -13.94       0.00        0.00     105.08       1.50       0.04       2.89       ----

> <Gold.Chemscore.Fitness>
11.0097

> <Gold.Chemscore.DG>
-13.9371

> <Gold.Chemscore.ZeroCoef>
-5.4800

> <Gold.Chemscore.Hbond>
0.0000

> <Gold.Chemscore.Metal>
0.0000

> <Gold.Chemscore.Lipo>
105.0782

> <Gold.Chemscore.Internal_Hbond>
0.0000

> <Gold.Chemscore.DEClash>
0.0419

> <Gold.Chemscore.DEInternal>
2.8855

> <Gold.Chemscore.Rot>
1.4989

> <Gold.Chemscore.Internal.Correction>
   9.000000E+99

> <Gold.Chemscore.Hbond.Weighted>
-0.0000

> <Gold.Chemscore.Metal.Weighted>
-0.0000

> <Gold.Chemscore.Lipo.Weighted>
-12.2942

> <Gold.Chemscore.Internal_Hbond.Weighted>
0.0000

> <Gold.Chemscore.DEClash.Weighted>
0.0419

> <Gold.Chemscore.DEInternal.Weighted>
2.8855

> <Gold.Chemscore.Rot.Weighted>
3.8371

> <Gold.Chemscore.Internal.Correction.Weighted>
   9.000000E+99

> <Gold.Protein.RotatedTorsions>
[ 6907 6896 6895 6894 ] final -149.76 input  -60.11 | X-H torsion
[ 7974 7965 7964 7962 ] final   57.45 input  175.53 | X-H torsion
[ 8008 7997 7996 7995 ] final  -31.70 input   59.86 | X-H torsion
[ 10167 10162 10161 10158 ] final   34.37 input  -65.29 | X-H torsion
[ 10718 10713 10712 10709 ] final  126.78 input   66.30 | X-H torsion
[ 10763 10752 10751 10750 ] final -105.77 input  -60.55 | X-H torsion
[ 11005 11000 10999 10996 ] final -142.42 input  -57.11 | X-H torsion

> <Gold.Protein.ActiveResidues>
 VAL166  LYS551  ARG553  GLY616  TRP617  ASP618  TYR619  PRO620  LYS621  CYS622 
 ASP623  PHE694  ASN695  SER759  ASP760  ASP761  ALA762  ILE779  LEU786  VAL792 
 PHE793  MET794  SER795  GLU796  ALA797  LYS798  CYS799  TRP800  GLU811  SER814 

> <Gold.Protein.RotatedAtoms>
  151.1887  133.4680  159.2594 H   0  0  0  0  0  0  0  0  0  0  0  0  # atno 6907 bound_to 6896
  151.1185  135.0066  159.8537 H   0  0  0  0  0  0  0  0  0  0  0  0  # atno 6908 bound_to 6896
  152.5454  134.1800  159.8685 H   0  0  0  0  0  0  0  0  0  0  0  0  # atno 6909 bound_to 6896
  145.9289  139.3791  143.0433 H   0  0  0  0  0  0  0  0  0  0  0  0  # atno 7974 bound_to 7965
  154.4205  140.1757  156.1608 H   0  0  0  0  0  0  0  0  0  0  0  0  # atno 8008 bound_to 7997
  155.9840  140.3375  155.6665 H   0  0  0  0  0  0  0  0  0  0  0  0  # atno 8009 bound_to 7997
  155.6462  140.0685  157.2593 H   0  0  0  0  0  0  0  0  0  0  0  0  # atno 8010 bound_to 7997
  140.4321  144.1310  150.6161 H   0  0  0  0  0  0  0  0  0  0  0  0  # atno 10167 bound_to 10162
  157.5390  131.1097  150.8890 H   0  0  0  0  0  0  0  0  0  0  0  0  # atno 10718 bound_to 10713
  154.7969  135.4736  154.0181 H   0  0  0  0  0  0  0  0  0  0  0  0  # atno 10763 bound_to 10752
  153.1717  135.6826  153.8605 H   0  0  0  0  0  0  0  0  0  0  0  0  # atno 10764 bound_to 10752
  153.8185  135.3207  155.3386 H   0  0  0  0  0  0  0  0  0  0  0  0  # atno 10765 bound_to 10752
  140.8227  134.2612  157.4893 H   0  0  0  0  0  0  0  0  0  0  0  0  # atno 11005 bound_to 11000
  145.8452  140.9559  143.0778 LP  0  0  0  0  0  0  0  0  0  0  0  0  # atno 17320 bound_to 7965
  144.6762  140.0336  143.7482 LP  0  0  0  0  0  0  0  0  0  0  0  0  # atno 17321 bound_to 7965
  140.4415  143.2524  151.9466 LP  0  0  0  0  0  0  0  0  0  0  0  0  # atno 17342 bound_to 10162
  139.4785  144.5649  151.8180 LP  0  0  0  0  0  0  0  0  0  0  0  0  # atno 17343 bound_to 10162
  156.9448  130.5398  149.5281 LP  0  0  0  0  0  0  0  0  0  0  0  0  # atno 17370 bound_to 10713
  156.0481  130.5555  150.8927 LP  0  0  0  0  0  0  0  0  0  0  0  0  # atno 17371 bound_to 10713
  139.8708  134.9544  156.4174 LP  0  0  0  0  0  0  0  0  0  0  0  0  # atno 17394 bound_to 11000
  140.9082  133.7730  155.9760 LP  0  0  0  0  0  0  0  0  0  0  0  0  # atno 17395 bound_to 11000

$$$$
