AV-unprocessed.smi:3161|AV-procd|sdf|12056|dock10
  -GOLD-   2272017483D 1   1.00000     0.00000
 Structure written by MMmdl.
 41 42  0  0  0  0  0  0  0  0  2 V2000
  146.1668  142.9230  154.2811 C   0  0  0  0  0  0  0  0  0  0  0  0
  147.1116  141.7560  154.2631 C   0  0  0  0  0  0  0  0  0  0  0  0
  146.8437  140.4203  153.8485 C   0  0  0  0  0  0  0  0  0  0  0  0
  147.8969  139.6266  153.9583 N   0  0  0  0  0  0  0  0  0  0  0  0
  148.8721  140.4258  154.4398 N   0  0  0  0  0  0  0  0  0  0  0  0
  150.1921  139.8774  154.6945 C   0  0  0  0  0  0  0  0  0  0  0  0
  150.5906  139.9249  156.1886 C   0  0  1  0  0  0  0  0  0  0  0  0
  151.7348  138.9531  156.5246 C   0  0  0  0  0  0  0  0  0  0  0  0
  150.9811  141.2931  156.5958 N   0  3  0  0  0  0  0  0  0  0  0  0
  150.8673  141.5865  158.0405 C   0  0  0  0  0  0  0  0  0  0  0  0
  150.9103  143.0998  158.2961 C   0  0  2  0  0  0  0  0  0  0  0  0
  152.3438  143.6595  158.2058 C   0  0  0  0  0  0  0  0  0  0  0  0
  152.3626  145.1521  158.5554 C   0  0  0  0  0  0  0  0  0  0  0  0
  151.6867  145.3736  159.9126 C   0  0  0  0  0  0  0  0  0  0  0  0
  150.2944  144.7232  159.9280 C   0  0  0  0  0  0  0  0  0  0  0  0
  150.4018  143.3395  159.6069 O   0  0  0  0  0  0  0  0  0  0  0  0
  148.4239  141.7143  154.6402 C   0  0  0  0  0  0  0  0  0  0  0  0
  145.3623  142.8034  153.5551 H   0  0  0  0  0  0  0  0  0  0  0  0
  146.6746  143.8582  154.0443 H   0  0  0  0  0  0  0  0  0  0  0  0
  145.7021  143.0478  155.2592 H   0  0  0  0  0  0  0  0  0  0  0  0
  145.9191  140.0062  153.4739 H   0  0  0  0  0  0  0  0  0  0  0  0
  150.2085  138.8475  154.3350 H   0  0  0  0  0  0  0  0  0  0  0  0
  150.9030  140.4319  154.0817 H   0  0  0  0  0  0  0  0  0  0  0  0
  149.7302  139.6320  156.7925 H   0  0  0  0  0  0  0  0  0  0  0  0
  151.4524  137.9171  156.3358 H   0  0  0  0  0  0  0  0  0  0  0  0
  152.0111  139.0222  157.5773 H   0  0  0  0  0  0  0  0  0  0  0  0
  152.6248  139.1687  155.9322 H   0  0  0  0  0  0  0  0  0  0  0  0
  151.9494  141.4213  156.3393 H   0  0  0  0  0  0  0  0  0  0  0  0
  149.9436  141.1701  158.4424 H   0  0  0  0  0  0  0  0  0  0  0  0
  151.6938  141.1027  158.5625 H   0  0  0  0  0  0  0  0  0  0  0  0
  150.2780  143.6034  157.5624 H   0  0  0  0  0  0  0  0  0  0  0  0
  152.9956  143.1174  158.8926 H   0  0  0  0  0  0  0  0  0  0  0  0
  152.7486  143.5071  157.2049 H   0  0  0  0  0  0  0  0  0  0  0  0
  153.3864  145.5268  158.5740 H   0  0  0  0  0  0  0  0  0  0  0  0
  151.8350  145.7171  157.7859 H   0  0  0  0  0  0  0  0  0  0  0  0
  152.3004  144.9395  160.7028 H   0  0  0  0  0  0  0  0  0  0  0  0
  151.6081  146.4399  160.1269 H   0  0  0  0  0  0  0  0  0  0  0  0
  149.8457  144.8220  160.9166 H   0  0  0  0  0  0  0  0  0  0  0  0
  149.6246  145.2198  159.2241 H   0  0  0  0  0  0  0  0  0  0  0  0
  149.0696  142.4887  155.0280 H   0  0  0  0  0  0  0  0  0  0  0  0
  150.4246  141.9604  156.0804 H   0  0  0  0  0  0  0  0  0  0  0  0
  1  2  1  0  0  0  0
  1 18  1  0  0  0  0
  1 19  1  0  0  0  0
  1 20  1  0  0  0  0
  2 17  2  0  0  0  0
  2  3  1  0  0  0  0
  3  4  2  0  0  0  0
  3 21  1  0  0  0  0
  4  5  1  0  0  0  0
  5  6  1  0  0  0  0
  5 17  1  0  0  0  0
  6  7  1  0  0  0  0
  6 22  1  0  0  0  0
  6 23  1  0  0  0  0
  7  8  1  0  0  0  0
  7  9  1  0  0  0  0
  7 24  1  0  0  0  0
  8 25  1  0  0  0  0
  8 26  1  0  0  0  0
  8 27  1  0  0  0  0
  9 10  1  0  0  0  0
  9 28  1  0  0  0  0
  9 41  1  0  0  0  0
 10 11  1  0  0  0  0
 10 29  1  0  0  0  0
 10 30  1  0  0  0  0
 11 16  1  0  0  0  0
 11 12  1  0  0  0  0
 11 31  1  0  0  0  0
 12 13  1  0  0  0  0
 12 32  1  0  0  0  0
 12 33  1  0  0  0  0
 13 14  1  0  0  0  0
 13 34  1  0  0  0  0
 13 35  1  0  0  0  0
 14 15  1  0  0  0  0
 14 36  1  0  0  0  0
 14 37  1  0  0  0  0
 15 16  1  0  0  0  0
 15 38  1  0  0  0  0
 15 39  1  0  0  0  0
 17 40  1  0  0  0  0
M  CHG  1   9   1
M  END
> <s_m_source_file>
AV-unprocessed.smi

> <i_m_source_file_index>
3161

> <i_lp_mmshare_version>
43012

> <i_f3d_flags>
0

> <s_epik_input>
W0NIM11jMVtjSF1ubihbY0hdMSlbQ0gyXVtDQEhdKFtDSDNdKVtOSF1bQ0gyXVtDQEBIXTJbQ0gyXVtDSDJdW0NIMl1bQ0gyXU8y

> <s_epik_cmdline>
J2VwaWtfcHl0aG9uJywgJy1waCcsICc3LjAnLCAnLXRuJywgJzgnLCAnLW1hJywgJzIwMCcsICctbWV0YWxfYmluZGluZycsICctaW1hZScsICc8aW5maWxlLm1hZT4nLCAnLW9tYWUnLCAnPG91dGZpbGUubWFlPic=

> <r_lp_tautomer_probability>
1

> <r_epik_Ionization_Penalty>
0.00849661

> <r_epik_Ionization_Penalty_Charging>
0.00848754

> <r_epik_Ionization_Penalty_Neutral>
9.06711e-06

> <r_epik_State_Penalty>
0.00639836

> <r_epik_Charging_Adjusted_Penalty>
0.0148859

> <i_epik_Tot_Q>
1

> <i_epik_Tot_abs_Q>
1

> <r_epik_Metal_State_Penalty>
0.00639921

> <b_epik_Metal_Only>
0

> <s_lp_Force_Field>
OPLS_2005

> <r_lp_Energy>
12.4763

> <b_lp_Chiralities_Consistent>
1

> <s_lp_Variant>
AV-unprocessed.smi:3161-2

> <Gold.Version>
5.8.1

> <Gold.Id.Protein>
6NUR|6NUR_protein|mol2

> <Gold.PLP.Fitness>
45.3177

> <Gold.PLP.PLP>
-40.4211

> <Gold.PLP.part.hbond>
-1.0000

> <Gold.PLP.part.metal>
0.0000

> <Gold.PLP.part.buried>
-4.9870

> <Gold.PLP.part.nonpolar>
-35.9790

> <Gold.PLP.part.repulsive>
0.3419

> <Gold.PLP.ligand.clash>
0.0000

> <Gold.PLP.ligand.torsion>
0.5653

> <Gold.PLP.Chemscore.Hbond>
0.0000

> <Gold.PLP.Chemscore.CHOScore>
2.0000

> <Gold.PLP.Chemscore.Metal>
0.0000

> <Gold.Chemscore.Hbonds>
donor molecule, donor type, donor heavy atom, donor atom, acceptor molecule, acceptor atom, score
      L1  C     3    21       P1 10175  1.00
      L1  C    17    40       P1  8028  1.00

> <Gold.PLP.Chemscore.Internal.Correction>
0.0271

> <Gold.Rescore>
     Score         DG    S(hbond)    S(metal)    S(lipo)     H(rot)  DE(clash)    DE(int)     intcor
     13.52     -14.36       0.00        0.00     110.30       1.57       0.33       0.51       ----

> <Gold.Chemscore.Fitness>
13.5204

> <Gold.Chemscore.DG>
-14.3621

> <Gold.Chemscore.ZeroCoef>
-5.4800

> <Gold.Chemscore.Hbond>
0.0000

> <Gold.Chemscore.Metal>
0.0000

> <Gold.Chemscore.Lipo>
110.2990

> <Gold.Chemscore.Internal_Hbond>
0.0000

> <Gold.Chemscore.DEClash>
0.3324

> <Gold.Chemscore.DEInternal>
0.5094

> <Gold.Chemscore.Rot>
1.5714

> <Gold.Chemscore.Internal.Correction>
   9.000000E+99

> <Gold.Chemscore.Hbond.Weighted>
-0.0000

> <Gold.Chemscore.Metal.Weighted>
-0.0000

> <Gold.Chemscore.Lipo.Weighted>
-12.9050

> <Gold.Chemscore.Internal_Hbond.Weighted>
0.0000

> <Gold.Chemscore.DEClash.Weighted>
0.3324

> <Gold.Chemscore.DEInternal.Weighted>
0.5094

> <Gold.Chemscore.Rot.Weighted>
4.0228

> <Gold.Chemscore.Internal.Correction.Weighted>
   9.000000E+99

> <Gold.Protein.RotatedTorsions>
[ 6907 6896 6895 6894 ] final   -9.99 input  -60.11 | X-H torsion
[ 7974 7965 7964 7962 ] final   31.24 input  175.53 | X-H torsion
[ 8008 7997 7996 7995 ] final   44.02 input   59.86 | X-H torsion
[ 10167 10162 10161 10158 ] final  -42.60 input  -65.29 | X-H torsion
[ 10718 10713 10712 10709 ] final  136.44 input   66.30 | X-H torsion
[ 10763 10752 10751 10750 ] final  -52.56 input  -60.55 | X-H torsion
[ 11005 11000 10999 10996 ] final  -20.14 input  -57.11 | X-H torsion

> <Gold.Protein.ActiveResidues>
 VAL166  LYS551  ARG553  GLY616  TRP617  ASP618  TYR619  PRO620  LYS621  CYS622 
 ASP623  PHE694  ASN695  SER759  ASP760  ASP761  ALA762  ILE779  LEU786  VAL792 
 PHE793  MET794  SER795  GLU796  ALA797  LYS798  CYS799  TRP800  GLU811  SER814 

> <Gold.Protein.RotatedAtoms>
  151.4090  135.0982  159.9578 H   0  0  0  0  0  0  0  0  0  0  0  0  # atno 6907 bound_to 6896
  152.5026  133.8815  159.7359 H   0  0  0  0  0  0  0  0  0  0  0  0  # atno 6908 bound_to 6896
  150.9306  133.6714  159.2840 H   0  0  0  0  0  0  0  0  0  0  0  0  # atno 6909 bound_to 6896
  146.1562  139.6682  142.9065 H   0  0  0  0  0  0  0  0  0  0  0  0  # atno 7974 bound_to 7965
  155.3124  140.3392  155.4243 H   0  0  0  0  0  0  0  0  0  0  0  0  # atno 8008 bound_to 7997
  156.1949  140.1711  156.8056 H   0  0  0  0  0  0  0  0  0  0  0  0  # atno 8009 bound_to 7997
  154.5486  140.0710  156.8615 H   0  0  0  0  0  0  0  0  0  0  0  0  # atno 8010 bound_to 7997
  140.6963  143.3029  151.3232 H   0  0  0  0  0  0  0  0  0  0  0  0  # atno 10167 bound_to 10162
  157.4466  131.1062  151.0082 H   0  0  0  0  0  0  0  0  0  0  0  0  # atno 10718 bound_to 10713
  154.1446  135.6499  153.4950 H   0  0  0  0  0  0  0  0  0  0  0  0  # atno 10763 bound_to 10752
  153.0155  135.5323  154.6870 H   0  0  0  0  0  0  0  0  0  0  0  0  # atno 10764 bound_to 10752
  154.6141  135.2957  155.0371 H   0  0  0  0  0  0  0  0  0  0  0  0  # atno 10765 bound_to 10752
  140.8435  133.7908  155.9887 H   0  0  0  0  0  0  0  0  0  0  0  0  # atno 11005 bound_to 11000
  145.4702  141.0436  143.2703 LP  0  0  0  0  0  0  0  0  0  0  0  0  # atno 17320 bound_to 7965
  144.7967  139.6221  143.7090 LP  0  0  0  0  0  0  0  0  0  0  0  0  # atno 17321 bound_to 7965
  139.6424  144.0515  152.2564 LP  0  0  0  0  0  0  0  0  0  0  0  0  # atno 17342 bound_to 10162
  140.0024  144.6283  150.7718 LP  0  0  0  0  0  0  0  0  0  0  0  0  # atno 17343 bound_to 10162
  157.0926  130.5948  149.5443 LP  0  0  0  0  0  0  0  0  0  0  0  0  # atno 17370 bound_to 10713
  155.9970  130.5040  150.7518 LP  0  0  0  0  0  0  0  0  0  0  0  0  # atno 17371 bound_to 10713
  140.8869  134.2543  157.5115 LP  0  0  0  0  0  0  0  0  0  0  0  0  # atno 17394 bound_to 11000
  139.8703  134.9642  156.4488 LP  0  0  0  0  0  0  0  0  0  0  0  0  # atno 17395 bound_to 11000

$$$$
