AV-unprocessed.smi:667|AV-procd|sdf|3258|dock4
  -GOLD-   22720 0213D 1   1.00000     0.00000
 Structure written by MMmdl.
 48 49  0  0  0  0  0  0  0  0  1 V2000
  153.6767  138.8786  160.1917 C   0  0  0  0  0  0  0  0  0  0  0  0
  152.9816  140.0250  159.5136 C   0  0  0  0  0  0  0  0  0  0  0  0
  153.1966  141.2594  159.9372 N   0  0  0  0  0  0  0  0  0  0  0  0
  152.4440  142.0358  159.1319 N   0  0  0  0  0  0  0  0  0  0  0  0
  152.4470  143.4730  159.3235 C   0  0  0  0  0  0  0  0  0  0  0  0
  151.7538  141.2905  158.1959 C   0  0  0  0  0  0  0  0  0  0  0  0
  150.8534  141.9187  157.1817 C   0  0  0  0  0  0  0  0  0  0  0  0
  152.0765  139.9776  158.4127 C   0  0  0  0  0  0  0  0  0  0  0  0
  151.6008  138.7521  157.6697 C   0  0  0  0  0  0  0  0  0  0  0  0
  151.1232  137.6604  158.6338 C   0  0  0  0  0  0  0  0  0  0  0  0
  151.9492  136.9656  159.2247 O   0  0  0  0  0  0  0  0  0  0  0  0
  149.7971  137.4903  158.7600 N   0  0  0  0  0  0  0  0  0  0  0  0
  149.1507  136.4478  159.5476 C   0  0  0  0  0  0  0  0  0  0  0  0
  147.6166  136.6110  159.5652 C   0  0  1  0  0  0  0  0  0  0  0  0
  147.0311  136.8279  158.1715 C   0  0  0  0  0  0  0  0  0  0  0  0
  146.2009  135.5757  157.9127 C   0  0  0  0  0  0  0  0  0  0  0  0
  145.7589  135.2092  159.2067 O   0  0  0  0  0  0  0  0  0  0  0  0
  146.8661  135.3632  160.0841 C   0  0  2  0  0  0  0  0  0  0  0  0
  146.3978  135.4112  161.5574 C   0  0  0  0  0  0  0  0  0  0  0  0
  147.5847  135.6570  162.5018 C   0  0  0  0  0  0  0  0  0  0  0  0
  145.6127  134.1592  161.9903 C   0  0  0  0  0  0  0  0  0  0  0  0
  154.1709  138.2370  159.4622 H   0  0  0  0  0  0  0  0  0  0  0  0
  152.9657  138.2649  160.7444 H   0  0  0  0  0  0  0  0  0  0  0  0
  154.4362  139.2226  160.8945 H   0  0  0  0  0  0  0  0  0  0  0  0
  151.4230  143.8333  159.4227 H   0  0  0  0  0  0  0  0  0  0  0  0
  152.9132  143.9554  158.4641 H   0  0  0  0  0  0  0  0  0  0  0  0
  153.0019  143.7402  160.2239 H   0  0  0  0  0  0  0  0  0  0  0  0
  150.4693  141.1770  156.4814 H   0  0  0  0  0  0  0  0  0  0  0  0
  151.3857  142.6755  156.6051 H   0  0  0  0  0  0  0  0  0  0  0  0
  150.0008  142.3966  157.6647 H   0  0  0  0  0  0  0  0  0  0  0  0
  150.7767  138.9921  156.9973 H   0  0  0  0  0  0  0  0  0  0  0  0
  152.3922  138.3463  157.0385 H   0  0  0  0  0  0  0  0  0  0  0  0
  149.1917  138.1121  158.2436 H   0  0  0  0  0  0  0  0  0  0  0  0
  149.4246  135.4649  159.1604 H   0  0  0  0  0  0  0  0  0  0  0  0
  149.5453  136.4974  160.5630 H   0  0  0  0  0  0  0  0  0  0  0  0
  147.3723  137.4867  160.1655 H   0  0  0  0  0  0  0  0  0  0  0  0
  146.3793  137.7025  158.1823 H   0  0  0  0  0  0  0  0  0  0  0  0
  147.7843  136.9889  157.3993 H   0  0  0  0  0  0  0  0  0  0  0  0
  145.3655  135.7554  157.2356 H   0  0  0  0  0  0  0  0  0  0  0  0
  146.8176  134.7773  157.4965 H   0  0  0  0  0  0  0  0  0  0  0  0
  147.5053  134.4894  159.9423 H   0  0  0  0  0  0  0  0  0  0  0  0
  145.7307  136.2661  161.6670 H   0  0  0  0  0  0  0  0  0  0  0  0
  148.3017  134.8367  162.4584 H   0  0  0  0  0  0  0  0  0  0  0  0
  147.2518  135.7540  163.5354 H   0  0  0  0  0  0  0  0  0  0  0  0
  148.1133  136.5745  162.2418 H   0  0  0  0  0  0  0  0  0  0  0  0
  146.2200  133.2578  161.9036 H   0  0  0  0  0  0  0  0  0  0  0  0
  144.7131  134.0122  161.3942 H   0  0  0  0  0  0  0  0  0  0  0  0
  145.2953  134.2411  163.0302 H   0  0  0  0  0  0  0  0  0  0  0  0
  1  2  1  0  0  0  0
  1 22  1  0  0  0  0
  1 23  1  0  0  0  0
  1 24  1  0  0  0  0
  2  8  1  0  0  0  0
  2  3  2  0  0  0  0
  3  4  1  0  0  0  0
  4  5  1  0  0  0  0
  4  6  1  0  0  0  0
  5 25  1  0  0  0  0
  5 26  1  0  0  0  0
  5 27  1  0  0  0  0
  6  7  1  0  0  0  0
  6  8  2  0  0  0  0
  7 28  1  0  0  0  0
  7 29  1  0  0  0  0
  7 30  1  0  0  0  0
  8  9  1  0  0  0  0
  9 10  1  0  0  0  0
  9 31  1  0  0  0  0
  9 32  1  0  0  0  0
 10 11  2  0  0  0  0
 10 12  1  0  0  0  0
 12 13  1  0  0  0  0
 12 33  1  0  0  0  0
 13 14  1  0  0  0  0
 13 34  1  0  0  0  0
 13 35  1  0  0  0  0
 14 18  1  0  0  0  0
 14 15  1  0  0  0  0
 14 36  1  0  0  0  0
 15 16  1  0  0  0  0
 15 37  1  0  0  0  0
 15 38  1  0  0  0  0
 16 17  1  0  0  0  0
 16 39  1  0  0  0  0
 16 40  1  0  0  0  0
 17 18  1  0  0  0  0
 18 19  1  0  0  0  0
 18 41  1  0  0  0  0
 19 20  1  0  0  0  0
 19 21  1  0  0  0  0
 19 42  1  0  0  0  0
 20 43  1  0  0  0  0
 20 44  1  0  0  0  0
 20 45  1  0  0  0  0
 21 46  1  0  0  0  0
 21 47  1  0  0  0  0
 21 48  1  0  0  0  0
M  END
> <s_m_source_file>
AV-unprocessed.smi

> <i_m_source_file_index>
667

> <i_lp_mmshare_version>
43012

> <i_f3d_flags>
0

> <s_epik_input>
W0NIM11jMW5uKFtDSDNdKWMoW0NIM10pYzFbQ0gyXUMoPU8pW05IXVtDSDJdW0NAQEhdMltDSDJdW0NIMl1PW0NASF0yW0NIXShbQ0gzXSlbQ0gzXQ==

> <s_epik_cmdline>
J2VwaWtfcHl0aG9uJywgJy1waCcsICc3LjAnLCAnLXRuJywgJzgnLCAnLW1hJywgJzIwMCcsICctbWV0YWxfYmluZGluZycsICctaW1hZScsICc8aW5maWxlLm1hZT4nLCAnLW9tYWUnLCAnPG91dGZpbGUubWFlPic=

> <r_lp_tautomer_probability>
1

> <r_epik_Ionization_Penalty>
0.00315488

> <r_epik_Ionization_Penalty_Charging>
0

> <r_epik_Ionization_Penalty_Neutral>
0.00315488

> <r_epik_State_Penalty>
0.00222269

> <r_epik_Charging_Adjusted_Penalty>
0.00222269

> <i_epik_Tot_Q>
0

> <i_epik_Tot_abs_Q>
0

> <r_epik_Metal_State_Penalty>
-0

> <b_epik_Metal_Only>
0

> <s_lp_Force_Field>
OPLS_2005

> <r_lp_Energy>
15.0171

> <b_lp_Chiralities_Consistent>
1

> <s_lp_Variant>
AV-unprocessed.smi:667-4

> <Gold.Version>
5.8.1

> <Gold.Id.Protein>
6NUR|6NUR_protein|mol2

> <Gold.PLP.Fitness>
39.0179

> <Gold.PLP.PLP>
-36.8733

> <Gold.PLP.part.hbond>
-1.0000

> <Gold.PLP.part.metal>
0.0000

> <Gold.PLP.part.buried>
-6.0192

> <Gold.PLP.part.nonpolar>
-30.8786

> <Gold.PLP.part.repulsive>
0.2088

> <Gold.PLP.ligand.clash>
0.0000

> <Gold.PLP.ligand.torsion>
0.4383

> <Gold.PLP.Chemscore.Hbond>
0.9913

> <Gold.PLP.Chemscore.CHOScore>
0.0000

> <Gold.PLP.Chemscore.Metal>
0.0000

> <Gold.Chemscore.Hbonds>
donor molecule, donor type, donor heavy atom, donor atom, acceptor molecule, acceptor atom, score
      P1  H  6896  6908       L1    11  1.00

> <Gold.PLP.Chemscore.Internal.Correction>
0.0473

> <Gold.Rescore>
     Score         DG    S(hbond)    S(metal)    S(lipo)     H(rot)  DE(clash)    DE(int)     intcor
     14.38     -16.22       0.95        0.00      98.00       1.52       0.08       1.77       ----

> <Gold.Chemscore.Fitness>
14.3768

> <Gold.Chemscore.DG>
-16.2232

> <Gold.Chemscore.ZeroCoef>
-5.4800

> <Gold.Chemscore.Hbond>
0.9496

> <Gold.Chemscore.Metal>
0.0000

> <Gold.Chemscore.Lipo>
98.0012

> <Gold.Chemscore.Internal_Hbond>
0.0000

> <Gold.Chemscore.DEClash>
0.0811

> <Gold.Chemscore.DEInternal>
1.7653

> <Gold.Chemscore.Rot>
1.5213

> <Gold.Chemscore.Internal.Correction>
   9.000000E+99

> <Gold.Chemscore.Hbonds>
donor molecule, donor type, donor heavy atom, donor atom, acceptor molecule, acceptor atom, score
      P1  H  6896  6908       L1    11  0.95

> <Gold.Chemscore.Hbond.Weighted>
-3.1716

> <Gold.Chemscore.Metal.Weighted>
-0.0000

> <Gold.Chemscore.Lipo.Weighted>
-11.4661

> <Gold.Chemscore.Internal_Hbond.Weighted>
0.0000

> <Gold.Chemscore.DEClash.Weighted>
0.0811

> <Gold.Chemscore.DEInternal.Weighted>
1.7653

> <Gold.Chemscore.Rot.Weighted>
3.8945

> <Gold.Chemscore.Internal.Correction.Weighted>
   9.000000E+99

> <Gold.Protein.RotatedTorsions>
[ 6907 6896 6895 6894 ] final -113.78 input  -60.11 | X-H torsion
[ 7974 7965 7964 7962 ] final -116.05 input  175.53 | X-H torsion
[ 8008 7997 7996 7995 ] final  -21.39 input   59.86 | X-H torsion
[ 10167 10162 10161 10158 ] final  -17.07 input  -65.29 | X-H torsion
[ 10718 10713 10712 10709 ] final  111.77 input   66.30 | X-H torsion
[ 10763 10752 10751 10750 ] final  -12.69 input  -60.55 | X-H torsion
[ 11005 11000 10999 10996 ] final -164.16 input  -57.11 | X-H torsion

> <Gold.Protein.ActiveResidues>
 VAL166  LYS551  ARG553  GLY616  TRP617  ASP618  TYR619  PRO620  LYS621  CYS622 
 ASP623  PHE694  ASN695  SER759  ASP760  ASP761  ALA762  ILE779  LEU786  VAL792 
 PHE793  MET794  SER795  GLU796  ALA797  LYS798  CYS799  TRP800  GLU811  SER814 

> <Gold.Protein.RotatedAtoms>
  150.7854  133.8896  159.3309 H   0  0  0  0  0  0  0  0  0  0  0  0  # atno 6907 bound_to 6896
  151.6748  135.0969  160.0214 H   0  0  0  0  0  0  0  0  0  0  0  0  # atno 6908 bound_to 6896
  152.3916  133.6648  159.6278 H   0  0  0  0  0  0  0  0  0  0  0  0  # atno 6909 bound_to 6896
  145.1012  140.8553  143.3925 H   0  0  0  0  0  0  0  0  0  0  0  0  # atno 7974 bound_to 7965
  154.4708  140.2036  155.9999 H   0  0  0  0  0  0  0  0  0  0  0  0  # atno 8008 bound_to 7997
  156.1008  140.3244  155.7910 H   0  0  0  0  0  0  0  0  0  0  0  0  # atno 8009 bound_to 7997
  155.4801  140.0538  157.2959 H   0  0  0  0  0  0  0  0  0  0  0  0  # atno 8010 bound_to 7997
  140.7242  143.5052  150.9819 H   0  0  0  0  0  0  0  0  0  0  0  0  # atno 10167 bound_to 10162
  157.6427  131.0956  150.6797 H   0  0  0  0  0  0  0  0  0  0  0  0  # atno 10718 bound_to 10713
  153.5022  135.7017  153.5825 H   0  0  0  0  0  0  0  0  0  0  0  0  # atno 10763 bound_to 10752
  153.3952  135.3886  155.1950 H   0  0  0  0  0  0  0  0  0  0  0  0  # atno 10764 bound_to 10752
  154.8710  135.3868  154.4494 H   0  0  0  0  0  0  0  0  0  0  0  0  # atno 10765 bound_to 10752
  140.5901  134.5054  157.5191 H   0  0  0  0  0  0  0  0  0  0  0  0  # atno 11005 bound_to 11000
  145.0953  139.2861  143.5714 LP  0  0  0  0  0  0  0  0  0  0  0  0  # atno 17320 bound_to 7965
  146.3529  140.0503  142.8636 LP  0  0  0  0  0  0  0  0  0  0  0  0  # atno 17321 bound_to 7965
  139.8763  143.7128  152.3161 LP  0  0  0  0  0  0  0  0  0  0  0  0  # atno 17342 bound_to 10162
  139.7395  144.7563  151.0675 LP  0  0  0  0  0  0  0  0  0  0  0  0  # atno 17343 bound_to 10162
  156.7119  130.4654  149.5545 LP  0  0  0  0  0  0  0  0  0  0  0  0  # atno 17370 bound_to 10713
  156.1724  130.6446  151.0854 LP  0  0  0  0  0  0  0  0  0  0  0  0  # atno 17371 bound_to 10713
  139.9278  134.8022  156.1018 LP  0  0  0  0  0  0  0  0  0  0  0  0  # atno 17394 bound_to 11000
  141.0941  133.6703  156.2605 LP  0  0  0  0  0  0  0  0  0  0  0  0  # atno 17395 bound_to 11000

$$$$
