AV-unprocessed.smi:3018|AV-procd|sdf|11481|dock7
  -GOLD-   2272016423D 1   1.00000     0.00000
 Structure written by MMmdl.
 44 45  0  0  0  0  0  0  0  0  2 V2000
  149.6728  140.2327  154.5421 C   0  0  0  0  0  0  0  0  0  0  0  0
  150.5620  140.4329  155.7760 C   0  0  0  0  0  0  0  0  0  0  0  0
  149.9844  141.4680  156.7596 C   0  0  2  0  0  0  0  0  0  0  0  0
  150.7336  141.3886  157.9704 O   0  0  0  0  0  0  0  0  0  0  0  0
  151.5581  142.5104  158.2753 C   0  0  0  0  0  0  0  0  0  0  0  0
  152.3708  142.2288  159.5549 C   0  0  0  0  0  0  0  0  0  0  0  0
  153.1727  143.4652  159.9914 C   0  0  0  0  0  0  0  0  0  0  0  0
  152.2622  144.6908  160.1700 C   0  0  0  0  0  0  0  0  0  0  0  0
  151.4409  144.9674  158.9005 C   0  0  0  0  0  0  0  0  0  0  0  0
  150.6392  143.7273  158.4750 C   0  0  0  0  0  0  0  0  0  0  0  0
  148.5013  141.2046  157.0639 C   0  0  0  0  0  0  0  0  0  0  0  0
  148.1342  140.1069  157.4843 O   0  0  0  0  0  0  0  0  0  0  0  0
  147.6647  142.2327  156.8660 N   0  0  0  0  0  0  0  0  0  0  0  0
  146.2461  142.2311  157.2025 C   0  0  0  0  0  0  0  0  0  0  0  0
  145.8506  143.5066  157.9669 C   0  0  0  0  0  0  0  0  0  0  0  0
  146.4402  143.5757  159.3655 C   0  0  0  0  0  0  0  0  0  0  0  0
  146.5715  142.6400  160.2322 N   0  0  0  0  0  0  0  0  0  0  0  0
  147.1919  143.2713  161.3591 N   0  5  0  0  0  0  0  0  0  0  0  0
  147.3734  144.5749  161.0349 C   0  0  0  0  0  0  0  0  0  0  0  0
  147.8680  145.4730  161.7125 O   0  0  0  0  0  0  0  0  0  0  0  0
  146.9170  144.7776  159.8034 N   0  0  0  0  0  0  0  0  0  0  0  0
  146.9114  145.6449  159.2877 H   0  0  0  0  0  0  0  0  0  0  0  0
  150.1049  139.4933  153.8676 H   0  0  0  0  0  0  0  0  0  0  0  0
  149.5553  141.1625  153.9851 H   0  0  0  0  0  0  0  0  0  0  0  0
  148.6790  139.8849  154.8254 H   0  0  0  0  0  0  0  0  0  0  0  0
  150.6809  139.4721  156.2788 H   0  0  0  0  0  0  0  0  0  0  0  0
  151.5592  140.7374  155.4552 H   0  0  0  0  0  0  0  0  0  0  0  0
  150.0852  142.4572  156.3104 H   0  0  0  0  0  0  0  0  0  0  0  0
  152.2390  142.7363  157.4539 H   0  0  0  0  0  0  0  0  0  0  0  0
  151.6955  141.9307  160.3579 H   0  0  0  0  0  0  0  0  0  0  0  0
  153.0521  141.3927  159.3998 H   0  0  0  0  0  0  0  0  0  0  0  0
  153.7014  143.2564  160.9219 H   0  0  0  0  0  0  0  0  0  0  0  0
  153.9371  143.6826  159.2454 H   0  0  0  0  0  0  0  0  0  0  0  0
  151.5879  144.5248  161.0110 H   0  0  0  0  0  0  0  0  0  0  0  0
  152.8624  145.5657  160.4218 H   0  0  0  0  0  0  0  0  0  0  0  0
  150.7672  145.8078  159.0681 H   0  0  0  0  0  0  0  0  0  0  0  0
  152.1075  145.2655  158.0914 H   0  0  0  0  0  0  0  0  0  0  0  0
  150.0972  143.9369  157.5522 H   0  0  0  0  0  0  0  0  0  0  0  0
  149.8875  143.5018  159.2326 H   0  0  0  0  0  0  0  0  0  0  0  0
  148.0522  143.0996  156.5228 H   0  0  0  0  0  0  0  0  0  0  0  0
  145.6701  142.1609  156.2792 H   0  0  0  0  0  0  0  0  0  0  0  0
  145.9982  141.3500  157.7977 H   0  0  0  0  0  0  0  0  0  0  0  0
  146.1546  144.3861  157.3973 H   0  0  0  0  0  0  0  0  0  0  0  0
  144.7648  143.5595  158.0499 H   0  0  0  0  0  0  0  0  0  0  0  0
  1  2  1  0  0  0  0
  1 23  1  0  0  0  0
  1 24  1  0  0  0  0
  1 25  1  0  0  0  0
  2  3  1  0  0  0  0
  2 26  1  0  0  0  0
  2 27  1  0  0  0  0
  3  4  1  0  0  0  0
  3 11  1  0  0  0  0
  3 28  1  0  0  0  0
  4  5  1  0  0  0  0
  5 10  1  0  0  0  0
  5  6  1  0  0  0  0
  5 29  1  0  0  0  0
  6  7  1  0  0  0  0
  6 30  1  0  0  0  0
  6 31  1  0  0  0  0
  7  8  1  0  0  0  0
  7 32  1  0  0  0  0
  7 33  1  0  0  0  0
  8  9  1  0  0  0  0
  8 34  1  0  0  0  0
  8 35  1  0  0  0  0
  9 10  1  0  0  0  0
  9 36  1  0  0  0  0
  9 37  1  0  0  0  0
 10 38  1  0  0  0  0
 10 39  1  0  0  0  0
 11 12  2  0  0  0  0
 11 13  1  0  0  0  0
 13 14  1  0  0  0  0
 13 40  1  0  0  0  0
 14 15  1  0  0  0  0
 14 41  1  0  0  0  0
 14 42  1  0  0  0  0
 15 16  1  0  0  0  0
 15 43  1  0  0  0  0
 15 44  1  0  0  0  0
 16 21  1  0  0  0  0
 16 17  2  0  0  0  0
 17 18  1  0  0  0  0
 18 19  1  0  0  0  0
 19 20  2  0  0  0  0
 19 21  1  0  0  0  0
 21 22  1  0  0  0  0
M  CHG  1  18  -1
M  END
> <s_m_source_file>
AV-unprocessed.smi

> <i_m_source_file_index>
3018

> <i_lp_mmshare_version>
43012

> <i_f3d_flags>
0

> <s_epik_input>
W0NIMl0xW0NIMl1bQ0gyXVtDSDJdW0NIMl1bQ0hdMU9bQ0BASF0oW0NIMl1bQ0gzXSlDKD1PKVtOSF1bQ0gyXVtDSDJdYzJuW25IXWMoPU8pW25IXTI=

> <s_epik_cmdline>
J2VwaWtfcHl0aG9uJywgJy1waCcsICc3LjAnLCAnLXRuJywgJzgnLCAnLW1hJywgJzIwMCcsICctbWV0YWxfYmluZGluZycsICctaW1hZScsICc8aW5maWxlLm1hZT4nLCAnLW9tYWUnLCAnPG91dGZpbGUubWFlPic=

> <r_lp_tautomer_probability>
1

> <r_epik_Ionization_Penalty>
14.1812

> <r_epik_Ionization_Penalty_Charging>
13.7758

> <r_epik_Ionization_Penalty_Neutral>
0.405355

> <r_epik_State_Penalty>
4.92413

> <r_epik_Charging_Adjusted_Penalty>
18.7

> <i_epik_Tot_Q>
-1

> <i_epik_Tot_abs_Q>
1

> <r_epik_Metal_State_Penalty>
1.32654

> <b_epik_Metal_Only>
1

> <s_lp_Force_Field>
OPLS_2005

> <r_lp_Energy>
19.863

> <b_lp_Chiralities_Consistent>
1

> <s_lp_Variant>
AV-unprocessed.smi:3018-3

> <Gold.Version>
5.8.1

> <Gold.Id.Protein>
6NUR|6NUR_protein|mol2

> <Gold.PLP.Fitness>
49.7829

> <Gold.PLP.PLP>
-39.0354

> <Gold.PLP.part.hbond>
-5.0443

> <Gold.PLP.part.metal>
0.0000

> <Gold.PLP.part.buried>
-6.2174

> <Gold.PLP.part.nonpolar>
-27.2812

> <Gold.PLP.part.repulsive>
0.4241

> <Gold.PLP.ligand.clash>
0.0000

> <Gold.PLP.ligand.torsion>
1.2041

> <Gold.PLP.Chemscore.Hbond>
4.3304

> <Gold.PLP.Chemscore.CHOScore>
0.0000

> <Gold.PLP.Chemscore.Metal>
0.0000

> <Gold.Chemscore.Hbonds>
donor molecule, donor type, donor heavy atom, donor atom, acceptor molecule, acceptor atom, score
      L1  H    13    40       P1  8028  1.00
      L1  H    21    22       P1  8029  0.25
      P1  H  6933  6944       L1    18  1.90
      P1  H  6934  6946       L1    17  0.85

> <Gold.PLP.Chemscore.Internal.Correction>
0.1646

> <Gold.Rescore>
     Score         DG    S(hbond)    S(metal)    S(lipo)     H(rot)  DE(clash)    DE(int)     intcor
     14.69     -16.15       2.30        0.00      90.71       2.98       0.31       1.16       ----

> <Gold.Chemscore.Fitness>
14.6913

> <Gold.Chemscore.DG>
-16.1548

> <Gold.Chemscore.ZeroCoef>
-5.4800

> <Gold.Chemscore.Hbond>
2.3005

> <Gold.Chemscore.Metal>
0.0000

> <Gold.Chemscore.Lipo>
90.7061

> <Gold.Chemscore.Internal_Hbond>
0.0000

> <Gold.Chemscore.DEClash>
0.3067

> <Gold.Chemscore.DEInternal>
1.1568

> <Gold.Chemscore.Rot>
2.9772

> <Gold.Chemscore.Internal.Correction>
   9.000000E+99

> <Gold.Chemscore.Hbonds>
donor molecule, donor type, donor heavy atom, donor atom, acceptor molecule, acceptor atom, score
      L1  H    13    40       P1  8028  0.29
      L1  H    21    22       P1  8029  0.26
      P1  H  6933  6944       L1    18  0.20
      P1  H  6934  6946       L1    17  0.14

> <Gold.Chemscore.Hbond.Weighted>
-7.6838

> <Gold.Chemscore.Metal.Weighted>
-0.0000

> <Gold.Chemscore.Lipo.Weighted>
-10.6126

> <Gold.Chemscore.Internal_Hbond.Weighted>
0.0000

> <Gold.Chemscore.DEClash.Weighted>
0.3067

> <Gold.Chemscore.DEInternal.Weighted>
1.1568

> <Gold.Chemscore.Rot.Weighted>
7.6216

> <Gold.Chemscore.Internal.Correction.Weighted>
   9.000000E+99

> <Gold.Protein.RotatedTorsions>
[ 6907 6896 6895 6894 ] final   54.46 input  -60.11 | X-H torsion
[ 7974 7965 7964 7962 ] final  139.32 input  175.53 | X-H torsion
[ 8008 7997 7996 7995 ] final  131.74 input   59.86 | X-H torsion
[ 10167 10162 10161 10158 ] final  161.44 input  -65.29 | X-H torsion
[ 10718 10713 10712 10709 ] final   47.30 input   66.30 | X-H torsion
[ 10763 10752 10751 10750 ] final  -72.03 input  -60.55 | X-H torsion
[ 11005 11000 10999 10996 ] final   74.10 input  -57.11 | X-H torsion

> <Gold.Protein.ActiveResidues>
 VAL166  LYS551  ARG553  GLY616  TRP617  ASP618  TYR619  PRO620  LYS621  CYS622 
 ASP623  PHE694  ASN695  SER759  ASP760  ASP761  ALA762  ILE779  LEU786  VAL792 
 PHE793  MET794  SER795  GLU796  ALA797  LYS798  CYS799  TRP800  GLU811  SER814 

> <Gold.Protein.RotatedAtoms>
  152.3441  134.7094  160.0255 H   0  0  0  0  0  0  0  0  0  0  0  0  # atno 6907 bound_to 6896
  151.7470  133.3319  159.3389 H   0  0  0  0  0  0  0  0  0  0  0  0  # atno 6908 bound_to 6896
  150.7498  134.6160  159.6155 H   0  0  0  0  0  0  0  0  0  0  0  0  # atno 6909 bound_to 6896
  144.9289  139.5072  143.5627 H   0  0  0  0  0  0  0  0  0  0  0  0  # atno 7974 bound_to 7965
  156.2974  140.2563  156.2976 H   0  0  0  0  0  0  0  0  0  0  0  0  # atno 8008 bound_to 7997
  154.9449  140.0395  157.2134 H   0  0  0  0  0  0  0  0  0  0  0  0  # atno 8009 bound_to 7997
  154.8091  140.2841  155.5870 H   0  0  0  0  0  0  0  0  0  0  0  0  # atno 8010 bound_to 7997
  139.4849  144.4536  151.8798 H   0  0  0  0  0  0  0  0  0  0  0  0  # atno 10167 bound_to 10162
  157.4570  130.8173  149.7847 H   0  0  0  0  0  0  0  0  0  0  0  0  # atno 10718 bound_to 10713
  154.4401  135.5943  153.6123 H   0  0  0  0  0  0  0  0  0  0  0  0  # atno 10763 bound_to 10752
  152.9805  135.5996  154.3733 H   0  0  0  0  0  0  0  0  0  0  0  0  # atno 10764 bound_to 10752
  154.3582  135.2841  155.2313 H   0  0  0  0  0  0  0  0  0  0  0  0  # atno 10765 bound_to 10752
  139.9407  134.7404  156.1107 H   0  0  0  0  0  0  0  0  0  0  0  0  # atno 11005 bound_to 11000
  146.3238  139.8225  142.8924 LP  0  0  0  0  0  0  0  0  0  0  0  0  # atno 17320 bound_to 7965
  145.3174  141.0235  143.3520 LP  0  0  0  0  0  0  0  0  0  0  0  0  # atno 17321 bound_to 7965
  140.3994  144.2513  150.5894 LP  0  0  0  0  0  0  0  0  0  0  0  0  # atno 17342 bound_to 10162
  140.5071  143.2301  151.8591 LP  0  0  0  0  0  0  0  0  0  0  0  0  # atno 17343 bound_to 10162
  156.0012  130.3879  150.2600 LP  0  0  0  0  0  0  0  0  0  0  0  0  # atno 17370 bound_to 10713
  157.0776  131.0134  151.3168 LP  0  0  0  0  0  0  0  0  0  0  0  0  # atno 17371 bound_to 10713
  141.1040  133.6666  156.2821 LP  0  0  0  0  0  0  0  0  0  0  0  0  # atno 17394 bound_to 11000
  140.5959  134.5604  157.5508 LP  0  0  0  0  0  0  0  0  0  0  0  0  # atno 17395 bound_to 11000

$$$$
