AV-unprocessed.smi:1047|AV-procd|sdf|4587|dock3
  -GOLD-   22720 3 63D 1   1.00000     0.00000
 Structure written by MMmdl.
 58 60  0  0  0  0  0  0  0  0  4 V2000
  146.2582  131.0672  152.3520 C   0  0  0  0  0  0  0  0  0  0  0  0
  146.3647  132.4067  153.0943 C   0  0  0  0  0  0  0  0  0  0  0  0
  147.7558  132.7213  153.5064 N   0  3  2  0  0  0  0  0  0  0  0  0
  148.3954  131.6467  154.3047 C   0  0  0  0  0  0  0  0  0  0  0  0
  149.8355  132.0368  154.6764 C   0  0  0  0  0  0  0  0  0  0  0  0
  149.8328  133.2793  155.3698 O   0  0  0  0  0  0  0  0  0  0  0  0
  149.3167  134.3414  154.5742 C   0  0  2  0  0  0  0  0  0  0  0  0
  149.4351  135.6456  155.3782 C   0  0  0  0  0  0  0  0  0  0  0  0
  149.6261  136.8102  154.4904 N   0  3  0  0  0  0  0  0  0  0  0  0
  150.9798  137.3980  154.5498 C   0  0  0  0  0  0  0  0  0  0  0  0
  150.9257  138.8847  154.9500 C   0  0  1  0  0  0  0  0  0  0  0  0
  150.1956  139.5947  153.9705 O   0  0  0  0  0  0  0  0  0  0  0  0
  150.2545  139.1492  156.3128 C   0  0  0  0  0  0  0  0  0  0  0  0
  150.2034  140.5755  156.6636 N   0  0  0  0  0  0  0  0  0  0  0  0
  149.4560  141.5733  156.1174 C   0  0  0  0  0  0  0  0  0  0  0  0
  149.7485  142.7211  156.7885 N   0  3  0  0  0  0  0  0  0  0  0  0
  150.6925  142.4532  157.7815 C   0  0  0  0  0  0  0  0  0  0  0  0
  151.2938  143.2905  158.7132 C   0  0  0  0  0  0  0  0  0  0  0  0
  152.2263  142.7059  159.5991 C   0  0  0  0  0  0  0  0  0  0  0  0
  152.9003  143.5932  160.6318 C   0  0  0  0  0  0  0  0  0  0  0  0
  152.5289  141.3213  159.5308 C   0  0  0  0  0  0  0  0  0  0  0  0
  153.5344  140.7034  160.4879 C   0  0  0  0  0  0  0  0  0  0  0  0
  151.9059  140.4858  158.5760 C   0  0  0  0  0  0  0  0  0  0  0  0
  150.9882  141.0774  157.7101 C   0  0  0  0  0  0  0  0  0  0  0  0
  147.8516  134.0187  154.2181 C   0  0  0  0  0  0  0  0  0  0  0  0
  145.2441  130.9152  151.9818 H   0  0  0  0  0  0  0  0  0  0  0  0
  146.4949  130.2217  152.9969 H   0  0  0  0  0  0  0  0  0  0  0  0
  146.9298  131.0368  151.4937 H   0  0  0  0  0  0  0  0  0  0  0  0
  146.0074  133.1887  152.4232 H   0  0  0  0  0  0  0  0  0  0  0  0
  145.7038  132.4187  153.9622 H   0  0  0  0  0  0  0  0  0  0  0  0
  147.8137  131.4666  155.2101 H   0  0  0  0  0  0  0  0  0  0  0  0
  148.4113  130.7127  153.7439 H   0  0  0  0  0  0  0  0  0  0  0  0
  150.2758  131.2747  155.3197 H   0  0  0  0  0  0  0  0  0  0  0  0
  150.4636  132.1034  153.7867 H   0  0  0  0  0  0  0  0  0  0  0  0
  149.9015  134.4321  153.6564 H   0  0  0  0  0  0  0  0  0  0  0  0
  148.5265  135.8027  155.9611 H   0  0  0  0  0  0  0  0  0  0  0  0
  150.2629  135.5810  156.0859 H   0  0  0  0  0  0  0  0  0  0  0  0
  149.4414  136.5251  153.5389 H   0  0  0  0  0  0  0  0  0  0  0  0
  151.5984  136.8367  155.2516 H   0  0  0  0  0  0  0  0  0  0  0  0
  151.4329  137.2883  153.5643 H   0  0  0  0  0  0  0  0  0  0  0  0
  151.9390  139.2886  154.9723 H   0  0  0  0  0  0  0  0  0  0  0  0
  150.1148  139.0549  153.1984 H   0  0  0  0  0  0  0  0  0  0  0  0
  149.2231  138.7939  156.2915 H   0  0  0  0  0  0  0  0  0  0  0  0
  150.7471  138.5958  157.1123 H   0  0  0  0  0  0  0  0  0  0  0  0
  148.7549  141.4726  155.3010 H   0  0  0  0  0  0  0  0  0  0  0  0
  151.0579  144.3440  158.7596 H   0  0  0  0  0  0  0  0  0  0  0  0
  152.6720  143.2482  161.6404 H   0  0  0  0  0  0  0  0  0  0  0  0
  152.5640  144.6273  160.5499 H   0  0  0  0  0  0  0  0  0  0  0  0
  153.9823  143.5834  160.4983 H   0  0  0  0  0  0  0  0  0  0  0  0
  153.6512  139.6339  160.3093 H   0  0  0  0  0  0  0  0  0  0  0  0
  153.2110  140.8347  161.5209 H   0  0  0  0  0  0  0  0  0  0  0  0
  154.5130  141.1696  160.3693 H   0  0  0  0  0  0  0  0  0  0  0  0
  152.1398  139.4328  158.5291 H   0  0  0  0  0  0  0  0  0  0  0  0
  147.4444  134.8111  153.5884 H   0  0  0  0  0  0  0  0  0  0  0  0
  147.2422  133.9833  155.1229 H   0  0  0  0  0  0  0  0  0  0  0  0
  148.9610  137.5270  154.7449 H   0  0  0  0  0  0  0  0  0  0  0  0
  148.2925  132.8204  152.6564 H   0  0  0  0  0  0  0  0  0  0  0  0
  149.3288  143.6196  156.5853 H   0  0  0  0  0  0  0  0  0  0  0  0
  1  2  1  0  0  0  0
  1 26  1  0  0  0  0
  1 27  1  0  0  0  0
  1 28  1  0  0  0  0
  2  3  1  0  0  0  0
  2 29  1  0  0  0  0
  2 30  1  0  0  0  0
  3 25  1  0  0  0  0
  3  4  1  0  0  0  0
  3 57  1  0  0  0  0
  4  5  1  0  0  0  0
  4 31  1  0  0  0  0
  4 32  1  0  0  0  0
  5  6  1  0  0  0  0
  5 33  1  0  0  0  0
  5 34  1  0  0  0  0
  6  7  1  0  0  0  0
  7  8  1  0  0  0  0
  7 25  1  0  0  0  0
  7 35  1  0  0  0  0
  8  9  1  0  0  0  0
  8 36  1  0  0  0  0
  8 37  1  0  0  0  0
  9 10  1  0  0  0  0
  9 38  1  0  0  0  0
  9 56  1  0  0  0  0
 10 11  1  0  0  0  0
 10 39  1  0  0  0  0
 10 40  1  0  0  0  0
 11 12  1  0  0  0  0
 11 13  1  0  0  0  0
 11 41  1  0  0  0  0
 12 42  1  0  0  0  0
 13 14  1  0  0  0  0
 13 43  1  0  0  0  0
 13 44  1  0  0  0  0
 14 24  1  0  0  0  0
 14 15  1  0  0  0  0
 15 16  2  0  0  0  0
 15 45  1  0  0  0  0
 16 17  1  0  0  0  0
 16 58  1  0  0  0  0
 17 24  2  0  0  0  0
 17 18  1  0  0  0  0
 18 19  2  0  0  0  0
 18 46  1  0  0  0  0
 19 20  1  0  0  0  0
 19 21  1  0  0  0  0
 20 47  1  0  0  0  0
 20 48  1  0  0  0  0
 20 49  1  0  0  0  0
 21 22  1  0  0  0  0
 21 23  2  0  0  0  0
 22 50  1  0  0  0  0
 22 51  1  0  0  0  0
 22 52  1  0  0  0  0
 23 24  1  0  0  0  0
 23 53  1  0  0  0  0
 25 54  1  0  0  0  0
 25 55  1  0  0  0  0
M  CHG  1   3   1
M  CHG  1   9   1
M  CHG  1  16   1
M  END
> <s_m_source_file>
AV-unprocessed.smi

> <i_m_source_file_index>
1047

> <i_lp_mmshare_version>
43012

> <i_f3d_flags>
0

> <s_epik_input>
W0NIM11bQ0gyXU4xW0NIMl1bQ0gyXU9bQ0BIXShbQ0gyXTEpW0NIMl1bTkhdW0NIMl1bQ0BIXShbT0hdKVtDSDJdbihbY0hdbjIpYyhjMjMpW2NIXWMoW0NIM10pYyhbY0hdMylbQ0gzXQ==

> <s_epik_cmdline>
J2VwaWtfcHl0aG9uJywgJy1waCcsICc3LjAnLCAnLXRuJywgJzgnLCAnLW1hJywgJzIwMCcsICctbWV0YWxfYmluZGluZycsICctaW1hZScsICc8aW5maWxlLm1hZT4nLCAnLW9tYWUnLCAnPG91dGZpbGUubWFlPic=

> <r_epik_Ionization_Penalty>
1.6114

> <r_epik_Ionization_Penalty_Charging>
1.61139

> <r_epik_Ionization_Penalty_Neutral>
5.04732e-06

> <r_epik_State_Penalty>
1.63724

> <r_epik_Charging_Adjusted_Penalty>
3.24864

> <i_epik_Tot_Q>
3

> <i_epik_Tot_abs_Q>
3

> <r_epik_Metal_State_Penalty>
5.64594

> <b_epik_Metal_Only>
0

> <s_lp_Force_Field>
OPLS_2005

> <r_lp_Energy>
41.4775

> <b_lp_Chiralities_Consistent>
1

> <s_lp_Variant>
AV-unprocessed.smi:1047-28

> <Gold.Version>
5.8.1

> <Gold.Id.Protein>
6NUR|6NUR_protein|mol2

> <Gold.PLP.Fitness>
57.8285

> <Gold.PLP.PLP>
-44.5266

> <Gold.PLP.part.hbond>
-4.0000

> <Gold.PLP.part.metal>
0.0000

> <Gold.PLP.part.buried>
-5.5364

> <Gold.PLP.part.nonpolar>
-35.0391

> <Gold.PLP.part.repulsive>
0.0861

> <Gold.PLP.ligand.clash>
0.0000

> <Gold.PLP.ligand.torsion>
1.2074

> <Gold.PLP.Chemscore.Hbond>
5.1810

> <Gold.PLP.Chemscore.CHOScore>
0.0000

> <Gold.PLP.Chemscore.Metal>
0.0000

> <Gold.Chemscore.Hbonds>
donor molecule, donor type, donor heavy atom, donor atom, acceptor molecule, acceptor atom, score
      L1  H     9    38       P1  7948  2.00
      L1  H    12    42       P1  7957  0.12
      L1  H    16    58       P1  8028  1.85
      P1  H  7989  7998       L1    12  0.85

> <Gold.PLP.Chemscore.Internal.Correction>
0.1739

> <Gold.Rescore>
     Score         DG    S(hbond)    S(metal)    S(lipo)     H(rot)  DE(clash)    DE(int)     intcor
     17.91     -20.25       2.24        0.00     123.29       2.78       0.16       2.18       ----

> <Gold.Chemscore.Fitness>
17.9083

> <Gold.Chemscore.DG>
-20.2514

> <Gold.Chemscore.ZeroCoef>
-5.4800

> <Gold.Chemscore.Hbond>
2.2381

> <Gold.Chemscore.Metal>
0.0000

> <Gold.Chemscore.Lipo>
123.2942

> <Gold.Chemscore.Internal_Hbond>
0.0000

> <Gold.Chemscore.DEClash>
0.1602

> <Gold.Chemscore.DEInternal>
2.1829

> <Gold.Chemscore.Rot>
2.7848

> <Gold.Chemscore.Internal.Correction>
   9.000000E+99

> <Gold.Chemscore.Hbonds>
donor molecule, donor type, donor heavy atom, donor atom, acceptor molecule, acceptor atom, score
      L1  H     9    38       P1  7948  0.82
      L1  H    12    42       P1  7957  0.11
      L1  H    16    58       P1  8028  0.85
      P1  H  7989  7998       L1    12  0.05

> <Gold.Chemscore.Hbond.Weighted>
-7.4751

> <Gold.Chemscore.Metal.Weighted>
-0.0000

> <Gold.Chemscore.Lipo.Weighted>
-14.4254

> <Gold.Chemscore.Internal_Hbond.Weighted>
0.0000

> <Gold.Chemscore.DEClash.Weighted>
0.1602

> <Gold.Chemscore.DEInternal.Weighted>
2.1829

> <Gold.Chemscore.Rot.Weighted>
7.1291

> <Gold.Chemscore.Internal.Correction.Weighted>
   9.000000E+99

> <Gold.Protein.RotatedTorsions>
[ 6907 6896 6895 6894 ] final  155.36 input  -60.11 | X-H torsion
[ 7974 7965 7964 7962 ] final  -88.35 input  175.53 | X-H torsion
[ 8008 7997 7996 7995 ] final  140.74 input   59.86 | X-H torsion
[ 10167 10162 10161 10158 ] final -155.17 input  -65.29 | X-H torsion
[ 10718 10713 10712 10709 ] final  -33.29 input   66.30 | X-H torsion
[ 10763 10752 10751 10750 ] final   -5.98 input  -60.55 | X-H torsion
[ 11005 11000 10999 10996 ] final   92.58 input  -57.11 | X-H torsion

> <Gold.Protein.ActiveResidues>
 VAL166  LYS551  ARG553  GLY616  TRP617  ASP618  TYR619  PRO620  LYS621  CYS622 
 ASP623  PHE694  ASN695  SER759  ASP760  ASP761  ALA762  ILE779  LEU786  VAL792 
 PHE793  MET794  SER795  GLU796  ALA797  LYS798  CYS799  TRP800  GLU811  SER814 

> <Gold.Protein.RotatedAtoms>
  152.0453  133.3995  159.4353 H   0  0  0  0  0  0  0  0  0  0  0  0  # atno 6907 bound_to 6896
  150.6873  134.3369  159.4860 H   0  0  0  0  0  0  0  0  0  0  0  0  # atno 6908 bound_to 6896
  152.1172  134.9231  160.0615 H   0  0  0  0  0  0  0  0  0  0  0  0  # atno 6909 bound_to 6896
  145.4543  140.9561  143.2005 H   0  0  0  0  0  0  0  0  0  0  0  0  # atno 7974 bound_to 7965
  156.2975  140.2333  156.4450 H   0  0  0  0  0  0  0  0  0  0  0  0  # atno 8008 bound_to 7997
  154.8152  140.0441  157.1392 H   0  0  0  0  0  0  0  0  0  0  0  0  # atno 8009 bound_to 7997
  154.9378  140.3025  155.5139 H   0  0  0  0  0  0  0  0  0  0  0  0  # atno 8010 bound_to 7997
  139.6953  143.9352  152.2404 H   0  0  0  0  0  0  0  0  0  0  0  0  # atno 10167 bound_to 10162
  156.3644  130.4329  149.7597 H   0  0  0  0  0  0  0  0  0  0  0  0  # atno 10718 bound_to 10713
  153.4060  135.7006  153.6392 H   0  0  0  0  0  0  0  0  0  0  0  0  # atno 10763 bound_to 10752
  153.4906  135.3673  155.2490 H   0  0  0  0  0  0  0  0  0  0  0  0  # atno 10764 bound_to 10752
  154.8714  135.4088  154.3404 H   0  0  0  0  0  0  0  0  0  0  0  0  # atno 10765 bound_to 10752
  139.8821  134.8741  156.3594 H   0  0  0  0  0  0  0  0  0  0  0  0  # atno 11005 bound_to 11000
  144.8042  139.6083  143.7058 LP  0  0  0  0  0  0  0  0  0  0  0  0  # atno 17320 bound_to 7965
  146.2487  139.6153  142.9442 LP  0  0  0  0  0  0  0  0  0  0  0  0  # atno 17321 bound_to 7965
  139.9179  144.6817  150.8492 LP  0  0  0  0  0  0  0  0  0  0  0  0  # atno 17342 bound_to 10162
  140.7694  143.3396  151.2237 LP  0  0  0  0  0  0  0  0  0  0  0  0  # atno 17343 bound_to 10162
  156.4748  130.8013  151.3030 LP  0  0  0  0  0  0  0  0  0  0  0  0  # atno 17370 bound_to 10713
  157.7477  131.0024  150.3000 LP  0  0  0  0  0  0  0  0  0  0  0  0  # atno 17371 bound_to 10713
  140.9540  133.7432  156.0310 LP  0  0  0  0  0  0  0  0  0  0  0  0  # atno 17394 bound_to 11000
  140.8071  134.3442  157.5423 LP  0  0  0  0  0  0  0  0  0  0  0  0  # atno 17395 bound_to 11000

$$$$
