AV-unprocessed.smi:1769|AV-procd|sdf|7153|dock6
  -GOLD-   22720 8393D 1   1.00000     0.00000
 Structure written by MMmdl.
 42 43  0  0  0  0  0  0  0  0  2 V2000
  150.4888  140.5622  156.7170 C   0  0  0  0  0  0  0  0  0  0  0  0
  150.0376  139.6525  155.5721 C   0  0  0  0  0  0  0  0  0  0  0  0
  150.2244  138.4411  155.6882 O   0  0  0  0  0  0  0  0  0  0  0  0
  149.4492  140.2015  154.4821 N   0  0  0  0  0  0  0  0  0  0  0  0
  149.1269  141.6248  154.3177 C   0  0  0  0  0  0  0  0  0  0  0  0
  147.6006  141.7973  154.4113 C   0  0  0  0  0  0  0  0  0  0  0  0
  146.8825  140.9140  153.3732 C   0  0  0  0  0  0  0  0  0  0  0  0
  147.3662  139.4452  153.4341 C   0  0  1  0  0  0  0  0  0  0  0  0
  146.7505  138.6109  152.3032 C   0  0  0  0  0  0  0  0  0  0  0  0
  146.8218  138.9971  151.1360 O   0  0  0  0  0  0  0  0  0  0  0  0
  146.1454  137.4677  152.6614 N   0  0  0  0  0  0  0  0  0  0  0  0
  145.5002  136.5418  151.7385 C   0  0  0  0  0  0  0  0  0  0  0  0
  145.8301  135.0805  152.0839 C   0  0  0  0  0  0  0  0  0  0  0  0
  145.1877  134.1059  151.1164 C   0  0  0  0  0  0  0  0  0  0  0  0
  145.9174  133.0027  150.6210 C   0  0  0  0  0  0  0  0  0  0  0  0
  145.2955  132.1080  149.7254 C   0  0  0  0  0  0  0  0  0  0  0  0
  143.9570  132.3365  149.3457 C   0  0  0  0  0  0  0  0  0  0  0  0
  143.2903  133.4029  149.8406 N   0  3  0  0  0  0  0  0  0  0  0  0
  143.8504  134.2826  150.7000 C   0  0  0  0  0  0  0  0  0  0  0  0
  148.9101  139.3936  153.3809 C   0  0  0  0  0  0  0  0  0  0  0  0
  149.6470  141.1276  157.1176 H   0  0  0  0  0  0  0  0  0  0  0  0
  151.2557  141.2588  156.3777 H   0  0  0  0  0  0  0  0  0  0  0  0
  150.9109  139.9734  157.5320 H   0  0  0  0  0  0  0  0  0  0  0  0
  149.6194  142.2721  155.0418 H   0  0  0  0  0  0  0  0  0  0  0  0
  149.4801  141.9609  153.3417 H   0  0  0  0  0  0  0  0  0  0  0  0
  147.2647  141.5309  155.4144 H   0  0  0  0  0  0  0  0  0  0  0  0
  147.3305  142.8429  154.2613 H   0  0  0  0  0  0  0  0  0  0  0  0
  145.8043  140.9643  153.5299 H   0  0  0  0  0  0  0  0  0  0  0  0
  147.0677  141.3257  152.3796 H   0  0  0  0  0  0  0  0  0  0  0  0
  147.0458  139.0219  154.3883 H   0  0  0  0  0  0  0  0  0  0  0  0
  146.1357  137.2217  153.6410 H   0  0  0  0  0  0  0  0  0  0  0  0
  144.4204  136.7026  151.7447 H   0  0  0  0  0  0  0  0  0  0  0  0
  145.8421  136.7732  150.7294 H   0  0  0  0  0  0  0  0  0  0  0  0
  146.9106  134.9302  152.0789 H   0  0  0  0  0  0  0  0  0  0  0  0
  145.4926  134.8438  153.0941 H   0  0  0  0  0  0  0  0  0  0  0  0
  146.9419  132.8416  150.9247 H   0  0  0  0  0  0  0  0  0  0  0  0
  145.8379  131.2586  149.3366 H   0  0  0  0  0  0  0  0  0  0  0  0
  143.4036  131.7036  148.6672 H   0  0  0  0  0  0  0  0  0  0  0  0
  143.2153  135.0934  151.0268 H   0  0  0  0  0  0  0  0  0  0  0  0
  149.2765  139.7932  152.4335 H   0  0  0  0  0  0  0  0  0  0  0  0
  149.2551  138.3588  153.4155 H   0  0  0  0  0  0  0  0  0  0  0  0
  142.3223  133.5495  149.5533 H   0  0  0  0  0  0  0  0  0  0  0  0
  1  2  1  0  0  0  0
  1 21  1  0  0  0  0
  1 22  1  0  0  0  0
  1 23  1  0  0  0  0
  2  3  2  0  0  0  0
  2  4  1  0  0  0  0
  4 20  1  0  0  0  0
  4  5  1  0  0  0  0
  5  6  1  0  0  0  0
  5 24  1  0  0  0  0
  5 25  1  0  0  0  0
  6  7  1  0  0  0  0
  6 26  1  0  0  0  0
  6 27  1  0  0  0  0
  7  8  1  0  0  0  0
  7 28  1  0  0  0  0
  7 29  1  0  0  0  0
  8  9  1  0  0  0  0
  8 20  1  0  0  0  0
  8 30  1  0  0  0  0
  9 10  2  0  0  0  0
  9 11  1  0  0  0  0
 11 12  1  0  0  0  0
 11 31  1  0  0  0  0
 12 13  1  0  0  0  0
 12 32  1  0  0  0  0
 12 33  1  0  0  0  0
 13 14  1  0  0  0  0
 13 34  1  0  0  0  0
 13 35  1  0  0  0  0
 14 19  1  0  0  0  0
 14 15  2  0  0  0  0
 15 16  1  0  0  0  0
 15 36  1  0  0  0  0
 16 17  2  0  0  0  0
 16 37  1  0  0  0  0
 17 18  1  0  0  0  0
 17 38  1  0  0  0  0
 18 19  2  0  0  0  0
 18 42  1  0  0  0  0
 19 39  1  0  0  0  0
 20 40  1  0  0  0  0
 20 41  1  0  0  0  0
M  CHG  1  18   1
M  END
> <s_m_source_file>
AV-unprocessed.smi

> <i_m_source_file_index>
1769

> <i_lp_mmshare_version>
43012

> <i_f3d_flags>
0

> <s_epik_input>
W0NIM11DKD1PKU4xW0NIMl1bQ0gyXVtDSDJdW0NASF0oW0NIMl0xKUMoPU8pW05IXVtDSDJdW0NIMl1jMltjSF1bY0hdW2NIXW5bY0hdMg==

> <s_epik_cmdline>
J2VwaWtfcHl0aG9uJywgJy1waCcsICc3LjAnLCAnLXRuJywgJzgnLCAnLW1hJywgJzIwMCcsICctbWV0YWxfYmluZGluZycsICctaW1hZScsICc8aW5maWxlLm1hZT4nLCAnLW9tYWUnLCAnPG91dGZpbGUubWFlPic=

> <r_epik_Ionization_Penalty>
2.25127

> <r_epik_Ionization_Penalty_Charging>
2.25127

> <r_epik_Ionization_Penalty_Neutral>
1.02261e-06

> <r_epik_State_Penalty>
2.39841

> <r_epik_Charging_Adjusted_Penalty>
4.64968

> <i_epik_Tot_Q>
1

> <i_epik_Tot_abs_Q>
1

> <r_epik_Metal_State_Penalty>
2.41159

> <b_epik_Metal_Only>
0

> <s_lp_Force_Field>
OPLS_2005

> <r_lp_Energy>
29.7946

> <b_lp_Chiralities_Consistent>
1

> <s_lp_Variant>
AV-unprocessed.smi:1769-3

> <Gold.Version>
5.8.1

> <Gold.Id.Protein>
6NUR|6NUR_protein|mol2

> <Gold.PLP.Fitness>
43.7071

> <Gold.PLP.PLP>
-36.8728

> <Gold.PLP.part.hbond>
-2.9440

> <Gold.PLP.part.metal>
0.0000

> <Gold.PLP.part.buried>
4.5084

> <Gold.PLP.part.nonpolar>
-39.9288

> <Gold.PLP.part.repulsive>
1.8694

> <Gold.PLP.ligand.clash>
0.0000

> <Gold.PLP.ligand.torsion>
0.5267

> <Gold.PLP.Chemscore.Hbond>
2.6179

> <Gold.PLP.Chemscore.CHOScore>
0.0000

> <Gold.PLP.Chemscore.Metal>
0.0000

> <Gold.Chemscore.Hbonds>
donor molecule, donor type, donor heavy atom, donor atom, acceptor molecule, acceptor atom, score
      L1  H    18    42       P1 10186  2.00
      P1  H  7954  7966       L1    10  0.62

> <Gold.PLP.Chemscore.Internal.Correction>
0.0341

> <Gold.Rescore>
     Score         DG    S(hbond)    S(metal)    S(lipo)     H(rot)  DE(clash)    DE(int)     intcor
     14.64     -18.14       1.78        0.00      92.56       1.61       3.04       0.46       ----

> <Gold.Chemscore.Fitness>
14.6444

> <Gold.Chemscore.DG>
-18.1442

> <Gold.Chemscore.ZeroCoef>
-5.4800

> <Gold.Chemscore.Hbond>
1.7832

> <Gold.Chemscore.Metal>
0.0000

> <Gold.Chemscore.Lipo>
92.5627

> <Gold.Chemscore.Internal_Hbond>
0.0000

> <Gold.Chemscore.DEClash>
3.0364

> <Gold.Chemscore.DEInternal>
0.4634

> <Gold.Chemscore.Rot>
1.6100

> <Gold.Chemscore.Internal.Correction>
   9.000000E+99

> <Gold.Chemscore.Hbonds>
donor molecule, donor type, donor heavy atom, donor atom, acceptor molecule, acceptor atom, score
      L1  H    18    42       P1 10186  0.93
      P1  H  7954  7966       L1    10  0.56

> <Gold.Chemscore.Hbond.Weighted>
-5.9560

> <Gold.Chemscore.Metal.Weighted>
-0.0000

> <Gold.Chemscore.Lipo.Weighted>
-10.8298

> <Gold.Chemscore.Internal_Hbond.Weighted>
0.0000

> <Gold.Chemscore.DEClash.Weighted>
3.0364

> <Gold.Chemscore.DEInternal.Weighted>
0.4634

> <Gold.Chemscore.Rot.Weighted>
4.1216

> <Gold.Chemscore.Internal.Correction.Weighted>
   9.000000E+99

> <Gold.Protein.RotatedTorsions>
[ 6907 6896 6895 6894 ] final  146.43 input  -60.11 | X-H torsion
[ 7974 7965 7964 7962 ] final  -44.43 input  175.53 | X-H torsion
[ 8008 7997 7996 7995 ] final  -64.73 input   59.86 | X-H torsion
[ 10167 10162 10161 10158 ] final -101.55 input  -65.29 | X-H torsion
[ 10718 10713 10712 10709 ] final   50.89 input   66.30 | X-H torsion
[ 10763 10752 10751 10750 ] final  114.56 input  -60.55 | X-H torsion
[ 11005 11000 10999 10996 ] final  174.84 input  -57.11 | X-H torsion

> <Gold.Protein.ActiveResidues>
 VAL166  LYS551  ARG553  GLY616  TRP617  ASP618  TYR619  PRO620  LYS621  CYS622 
 ASP623  PHE694  ASN695  SER759  ASP760  ASP761  ALA762  ILE779  LEU786  VAL792 
 PHE793  MET794  SER795  GLU796  ALA797  LYS798  CYS799  TRP800  GLU811  SER814 

> <Gold.Protein.RotatedAtoms>
  152.1679  133.4624  159.4894 H   0  0  0  0  0  0  0  0  0  0  0  0  # atno 6907 bound_to 6896
  150.6915  134.1989  159.4323 H   0  0  0  0  0  0  0  0  0  0  0  0  # atno 6908 bound_to 6896
  151.9895  134.9986  160.0611 H   0  0  0  0  0  0  0  0  0  0  0  0  # atno 6909 bound_to 6896
  145.9921  140.7169  142.9312 H   0  0  0  0  0  0  0  0  0  0  0  0  # atno 7974 bound_to 7965
  154.4629  140.0948  156.6942 H   0  0  0  0  0  0  0  0  0  0  0  0  # atno 8008 bound_to 7997
  155.4942  140.3471  155.4341 H   0  0  0  0  0  0  0  0  0  0  0  0  # atno 8009 bound_to 7997
  156.0904  140.1395  156.9588 H   0  0  0  0  0  0  0  0  0  0  0  0  # atno 8010 bound_to 7997
  140.2401  143.3544  152.0809 H   0  0  0  0  0  0  0  0  0  0  0  0  # atno 10167 bound_to 10162
  157.4928  130.8387  149.8223 H   0  0  0  0  0  0  0  0  0  0  0  0  # atno 10718 bound_to 10713
  153.5091  135.3622  155.2578 H   0  0  0  0  0  0  0  0  0  0  0  0  # atno 10763 bound_to 10752
  154.8743  135.4018  154.3390 H   0  0  0  0  0  0  0  0  0  0  0  0  # atno 10764 bound_to 10752
  153.4039  135.7076  153.6473 H   0  0  0  0  0  0  0  0  0  0  0  0  # atno 10765 bound_to 10752
  140.3557  134.7156  157.4298 H   0  0  0  0  0  0  0  0  0  0  0  0  # atno 11005 bound_to 11000
  144.6892  140.3087  143.7251 LP  0  0  0  0  0  0  0  0  0  0  0  0  # atno 17320 bound_to 7965
  145.7615  139.1826  143.2264 LP  0  0  0  0  0  0  0  0  0  0  0  0  # atno 17321 bound_to 7965
  139.5080  144.6842  151.5930 LP  0  0  0  0  0  0  0  0  0  0  0  0  # atno 17342 bound_to 10162
  140.6120  143.9419  150.6460 LP  0  0  0  0  0  0  0  0  0  0  0  0  # atno 17343 bound_to 10162
  156.0183  130.3805  150.2041 LP  0  0  0  0  0  0  0  0  0  0  0  0  # atno 17370 bound_to 10713
  157.0230  130.9985  151.3334 LP  0  0  0  0  0  0  0  0  0  0  0  0  # atno 17371 bound_to 10713
  140.0667  134.5920  155.8688 LP  0  0  0  0  0  0  0  0  0  0  0  0  # atno 17394 bound_to 11000
  141.1999  133.6609  156.5868 LP  0  0  0  0  0  0  0  0  0  0  0  0  # atno 17395 bound_to 11000

$$$$
