AV-unprocessed.smi:157|AV-procd|sdf|1309|dock9
  -GOLD-   2262019 03D 1   1.00000     0.00000
 Structure written by MMmdl.
 36 38  0  0  0  0  0  0  0  0  2 V2000
  146.3103  131.0027  150.5225 O   0  0  0  0  0  0  0  0  0  0  0  0
  145.2219  131.1815  151.4031 C   0  0  0  0  0  0  0  0  0  0  0  0
  144.5311  132.5217  151.1122 C   0  0  1  0  0  0  0  0  0  0  0  0
  145.4529  133.5916  151.3020 O   0  0  0  0  0  0  0  0  0  0  0  0
  145.0963  134.6825  150.5044 C   0  0  2  0  0  0  0  0  0  0  0  0
  144.5757  135.7746  151.3849 N   0  0  0  0  0  0  0  0  0  0  0  0
  145.0875  137.0165  151.5260 C   0  0  0  0  0  0  0  0  0  0  0  0
  144.4306  137.7826  152.3802 N   0  3  0  0  0  0  0  0  0  0  0  0
  143.3892  137.0216  152.8673 C   0  0  0  0  0  0  0  0  0  0  0  0
  143.5027  135.7755  152.2456 C   0  0  0  0  0  0  0  0  0  0  0  0
  142.7123  134.6244  152.3857 N   0  0  0  0  0  0  0  0  0  0  0  0
  141.8766  134.4571  153.3588 C   0  0  0  0  0  0  0  0  0  0  0  0
  141.5189  135.3385  154.3657 N   0  0  0  0  0  0  0  0  0  0  0  0
  141.1988  136.7343  154.1249 C   0  0  0  0  0  0  0  0  0  0  0  0
  142.4289  137.6096  153.8529 C   0  0  1  0  0  0  0  0  0  0  0  0
  143.0414  137.9230  155.0868 O   0  0  0  0  0  0  0  0  0  0  0  0
  143.9945  134.2094  149.5510 C   0  0  0  0  0  0  0  0  0  0  0  0
  144.1256  132.7028  149.6486 C   0  0  2  0  0  0  0  0  0  0  0  0
  142.9021  132.0660  149.3428 O   0  0  0  0  0  0  0  0  0  0  0  0
  143.6617  132.6686  151.7565 H   0  0  0  0  0  0  0  0  0  0  0  0
  145.9735  135.0995  150.0083 H   0  0  0  0  0  0  0  0  0  0  0  0
  142.0758  138.5571  153.4443 H   0  0  0  0  0  0  0  0  0  0  0  0
  144.9135  132.3488  148.9818 H   0  0  0  0  0  0  0  0  0  0  0  0
  147.1098  131.1830  150.9933 H   0  0  0  0  0  0  0  0  0  0  0  0
  144.5240  130.3478  151.3210 H   0  0  0  0  0  0  0  0  0  0  0  0
  145.6175  131.1747  152.4191 H   0  0  0  0  0  0  0  0  0  0  0  0
  145.9543  137.3538  150.9864 H   0  0  0  0  0  0  0  0  0  0  0  0
  141.3462  133.5073  153.4403 H   0  0  0  0  0  0  0  0  0  0  0  0
  141.0232  134.9793  155.1692 H   0  0  0  0  0  0  0  0  0  0  0  0
  140.5376  136.7732  153.2578 H   0  0  0  0  0  0  0  0  0  0  0  0
  140.6221  137.1275  154.9629 H   0  0  0  0  0  0  0  0  0  0  0  0
  143.4499  138.7720  155.0165 H   0  0  0  0  0  0  0  0  0  0  0  0
  143.0198  134.5422  149.9141 H   0  0  0  0  0  0  0  0  0  0  0  0
  144.1490  134.5987  148.5442 H   0  0  0  0  0  0  0  0  0  0  0  0
  142.2438  132.7277  149.1952 H   0  0  0  0  0  0  0  0  0  0  0  0
  144.6499  138.7414  152.6189 H   0  0  0  0  0  0  0  0  0  0  0  0
  1  2  1  0  0  0  0
  1 24  1  0  0  0  0
  2  3  1  0  0  0  0
  2 25  1  0  0  0  0
  2 26  1  0  0  0  0
  3 20  1  0  0  0  0
  3 18  1  0  0  0  0
  3  4  1  0  0  0  0
  4  5  1  0  0  0  0
  5 21  1  0  0  0  0
  5  6  1  0  0  0  0
  5 17  1  0  0  0  0
  6 10  1  0  0  0  0
  6  7  1  0  0  0  0
  7  8  2  0  0  0  0
  7 27  1  0  0  0  0
  8  9  1  0  0  0  0
  8 36  1  0  0  0  0
  9 15  1  0  0  0  0
  9 10  2  0  0  0  0
 10 11  1  0  0  0  0
 11 12  2  0  0  0  0
 12 13  1  0  0  0  0
 12 28  1  0  0  0  0
 13 14  1  0  0  0  0
 13 29  1  0  0  0  0
 14 15  1  0  0  0  0
 14 30  1  0  0  0  0
 14 31  1  0  0  0  0
 15 22  1  0  0  0  0
 15 16  1  0  0  0  0
 16 32  1  0  0  0  0
 17 18  1  0  0  0  0
 17 33  1  0  0  0  0
 17 34  1  0  0  0  0
 18 23  1  0  0  0  0
 18 19  1  0  0  0  0
 19 35  1  0  0  0  0
M  CHG  1   8   1
M  END
> <s_m_source_file>
AV-unprocessed.smi

> <i_m_source_file_index>
157

> <i_lp_mmshare_version>
43012

> <i_f3d_flags>
0

> <s_epik_input>
W09IXVtDSDJdW0NASF0xT1tDQEhdKFtDSDJdW0NAQEhdMVtPSF0pbihbY0hdbjIpYyhjMjMpTj1bQ0hdW05IXVtDSDJdW0NASF0zW09IXQ==

> <s_epik_cmdline>
J2VwaWtfcHl0aG9uJywgJy1waCcsICc3LjAnLCAnLXRuJywgJzgnLCAnLW1hJywgJzIwMCcsICctbWV0YWxfYmluZGluZycsICctaW1hZScsICc8aW5maWxlLm1hZT4nLCAnLW9tYWUnLCAnPG91dGZpbGUubWFlPic=

> <r_epik_Ionization_Penalty>
1.68594

> <r_epik_Ionization_Penalty_Charging>
0

> <r_epik_Ionization_Penalty_Neutral>
1.68594

> <r_epik_State_Penalty>
1.79006

> <r_epik_Charging_Adjusted_Penalty>
1.79006

> <i_epik_Tot_Q>
1

> <i_epik_Tot_abs_Q>
1

> <r_epik_Metal_State_Penalty>
5.85324

> <b_epik_Metal_Only>
0

> <s_epik_Chemistry_Notes>
This compound has an imine and may undergo hydrolysis. This compound contains an acetal/aminal-like group ( X-CH(R)-Y where X, Y are N, S, or O) that may be acid/base labile, releasing an aldehyde.

> <s_lp_Force_Field>
OPLS_2005

> <r_lp_Energy>
51.4634

> <b_lp_Chiralities_Consistent>
1

> <s_lp_Variant>
AV-unprocessed.smi:157-19

> <Gold.Version>
5.8.1

> <Gold.Id.Protein>
6NUR|6NUR_protein|mol2

> <Gold.PLP.Fitness>
47.3745

> <Gold.PLP.PLP>
-31.5049

> <Gold.PLP.part.hbond>
-7.0000

> <Gold.PLP.part.metal>
0.0000

> <Gold.PLP.part.buried>
1.6489

> <Gold.PLP.part.nonpolar>
-26.9645

> <Gold.PLP.part.repulsive>
0.4253

> <Gold.PLP.ligand.clash>
0.0000

> <Gold.PLP.ligand.torsion>
0.0228

> <Gold.PLP.Chemscore.Hbond>
4.6275

> <Gold.PLP.Chemscore.CHOScore>
0.6714

> <Gold.PLP.Chemscore.Metal>
0.0000

> <Gold.Chemscore.Hbonds>
donor molecule, donor type, donor heavy atom, donor atom, acceptor molecule, acceptor atom, score
      L1  H     1    24       P1 10747  0.50
      L1  H     8    36       P1 10175  1.34
      L1  H    13    29       P1 11000  1.00
      L1  H    19    35       P1 10186  0.80
      P1  H 10785 10796       L1    19  0.99
      L1  C    12    28       P1 10957  0.67

> <Gold.PLP.Chemscore.Internal.Correction>
0.0185

> <Gold.Rescore>
     Score         DG    S(hbond)    S(metal)    S(lipo)     H(rot)  DE(clash)    DE(int)     intcor
     11.59     -14.86       4.00        0.00      46.04       3.67       2.37       0.90       ----

> <Gold.Chemscore.Fitness>
11.5852

> <Gold.Chemscore.DG>
-14.8552

> <Gold.Chemscore.ZeroCoef>
-5.4800

> <Gold.Chemscore.Hbond>
4.0039

> <Gold.Chemscore.Metal>
0.0000

> <Gold.Chemscore.Lipo>
46.0427

> <Gold.Chemscore.Internal_Hbond>
0.0000

> <Gold.Chemscore.DEClash>
2.3710

> <Gold.Chemscore.DEInternal>
0.8990

> <Gold.Chemscore.Rot>
3.6659

> <Gold.Chemscore.Internal.Correction>
   9.000000E+99

> <Gold.Chemscore.Hbonds>
donor molecule, donor type, donor heavy atom, donor atom, acceptor molecule, acceptor atom, score
      L1  H     1    24       P1 10747  0.45
      L1  H     8    36       P1 10175  0.65
      L1  H    13    29       P1 11000  0.70
      L1  H    19    35       P1 10186  0.78
      P1  H 10785 10796       L1    19  0.76

> <Gold.Chemscore.Hbond.Weighted>
-13.3730

> <Gold.Chemscore.Metal.Weighted>
-0.0000

> <Gold.Chemscore.Lipo.Weighted>
-5.3870

> <Gold.Chemscore.Internal_Hbond.Weighted>
0.0000

> <Gold.Chemscore.DEClash.Weighted>
2.3710

> <Gold.Chemscore.DEInternal.Weighted>
0.8990

> <Gold.Chemscore.Rot.Weighted>
9.3848

> <Gold.Chemscore.Internal.Correction.Weighted>
   9.000000E+99

> <Gold.Protein.RotatedTorsions>
[ 6907 6896 6895 6894 ] final  114.90 input  -60.11 | X-H torsion
[ 7974 7965 7964 7962 ] final -130.75 input  175.53 | X-H torsion
[ 8008 7997 7996 7995 ] final -111.06 input   59.86 | X-H torsion
[ 10167 10162 10161 10158 ] final  -19.23 input  -65.29 | X-H torsion
[ 10718 10713 10712 10709 ] final   10.72 input   66.30 | X-H torsion
[ 10763 10752 10751 10750 ] final   73.59 input  -60.55 | X-H torsion
[ 11005 11000 10999 10996 ] final -179.45 input  -57.11 | X-H torsion

> <Gold.Protein.ActiveResidues>
 VAL166  LYS551  ARG553  GLY616  TRP617  ASP618  TYR619  PRO620  LYS621  CYS622 
 ASP623  PHE694  ASN695  SER759  ASP760  ASP761  ALA762  ILE779  LEU786  VAL792 
 PHE793  MET794  SER795  GLU796  ALA797  LYS798  CYS799  TRP800  GLU811  SER814 

> <Gold.Protein.RotatedAtoms>
  152.4774  133.8172  159.7034 H   0  0  0  0  0  0  0  0  0  0  0  0  # atno 6907 bound_to 6896
  150.8801  133.7375  159.2941 H   0  0  0  0  0  0  0  0  0  0  0  0  # atno 6908 bound_to 6896
  151.4882  135.1059  159.9848 H   0  0  0  0  0  0  0  0  0  0  0  0  # atno 6909 bound_to 6896
  144.9445  140.7276  143.4826 H   0  0  0  0  0  0  0  0  0  0  0  0  # atno 7974 bound_to 7965
  154.9841  140.0396  157.2290 H   0  0  0  0  0  0  0  0  0  0  0  0  # atno 8008 bound_to 7997
  154.7688  140.2798  155.6132 H   0  0  0  0  0  0  0  0  0  0  0  0  # atno 8009 bound_to 7997
  156.2917  140.2614  156.2485 H   0  0  0  0  0  0  0  0  0  0  0  0  # atno 8010 bound_to 7997
  140.7266  143.4839  151.0081 H   0  0  0  0  0  0  0  0  0  0  0  0  # atno 10167 bound_to 10162
  156.9850  130.6020  149.5680 H   0  0  0  0  0  0  0  0  0  0  0  0  # atno 10718 bound_to 10713
  153.0531  135.5057  154.7916 H   0  0  0  0  0  0  0  0  0  0  0  0  # atno 10763 bound_to 10752
  154.6762  135.2961  154.9677 H   0  0  0  0  0  0  0  0  0  0  0  0  # atno 10764 bound_to 10752
  154.0479  135.6708  153.4849 H   0  0  0  0  0  0  0  0  0  0  0  0  # atno 10765 bound_to 10752
  140.4185  134.6627  157.4652 H   0  0  0  0  0  0  0  0  0  0  0  0  # atno 11005 bound_to 11000
  145.2939  139.1874  143.4725 LP  0  0  0  0  0  0  0  0  0  0  0  0  # atno 17320 bound_to 7965
  146.3298  140.2920  142.8616 LP  0  0  0  0  0  0  0  0  0  0  0  0  # atno 17321 bound_to 7965
  139.8539  143.7403  152.3177 LP  0  0  0  0  0  0  0  0  0  0  0  0  # atno 17342 bound_to 10162
  139.7594  144.7511  151.0386 LP  0  0  0  0  0  0  0  0  0  0  0  0  # atno 17343 bound_to 10162
  156.0229  130.5324  150.8327 LP  0  0  0  0  0  0  0  0  0  0  0  0  # atno 17370 bound_to 10713
  157.5499  131.0943  150.9710 LP  0  0  0  0  0  0  0  0  0  0  0  0  # atno 17371 bound_to 10713
  140.0217  134.6538  155.9231 LP  0  0  0  0  0  0  0  0  0  0  0  0  # atno 17394 bound_to 11000
  141.1793  133.6544  156.4955 LP  0  0  0  0  0  0  0  0  0  0  0  0  # atno 17395 bound_to 11000

$$$$
