AV-unprocessed.smi:99|AV-procd|sdf|877|dock6
  -GOLD-   2262017343D 1   1.00000     0.00000
 Structure written by MMmdl.
 53 56  0  0  0  0  0  0  0  0  1 V2000
  155.9721  139.6979  153.7233 O   0  0  0  0  0  0  0  0  0  0  0  0
  155.8411  138.4921  153.9446 C   0  0  0  0  0  0  0  0  0  0  0  0
  154.7605  137.9570  154.5446 O   0  0  0  0  0  0  0  0  0  0  0  0
  153.6628  138.7816  154.8971 C   0  0  0  0  0  0  0  0  0  0  0  0
  152.7060  137.9808  155.7962 C   0  0  2  0  0  0  0  0  0  0  0  0
  152.0842  136.9668  155.0061 O   0  0  0  0  0  0  0  0  0  0  0  0
  150.7793  137.3270  154.6442 C   0  0  1  0  0  0  0  0  0  0  0  0
  149.8105  136.3121  155.2106 N   0  0  0  0  0  0  0  0  0  0  0  0
  150.2416  135.2513  155.9976 C   0  0  0  0  0  0  0  0  0  0  0  0
  149.3972  134.3395  156.5350 C   0  0  0  0  0  0  0  0  0  0  0  0
  147.9592  134.4381  156.3088 C   0  0  0  0  0  0  0  0  0  0  0  0
  147.1171  133.6595  156.7504 O   0  0  0  0  0  0  0  0  0  0  0  0
  147.5688  135.5267  155.5240 N   0  0  0  0  0  0  0  0  0  0  0  0
  148.4287  136.4759  154.9692 C   0  0  0  0  0  0  0  0  0  0  0  0
  147.9724  137.4092  154.3100 O   0  0  0  0  0  0  0  0  0  0  0  0
  150.4850  138.7151  155.2309 C   0  0  2  0  0  0  0  0  0  0  0  0
  150.6593  139.7196  154.2489 O   0  0  0  0  0  0  0  0  0  0  0  0
  151.5239  138.7840  156.3405 C   0  0  2  0  0  0  0  0  0  0  0  0
  151.8363  140.1073  156.7622 O   0  0  0  0  0  0  0  0  0  0  0  0
  152.1400  140.3699  158.0511 C   0  0  0  0  0  0  0  0  0  0  0  0
  152.3823  139.4976  158.8876 O   0  0  0  0  0  0  0  0  0  0  0  0
  152.1432  141.8288  158.3585 C   0  0  0  0  0  0  0  0  0  0  0  0
  151.5449  142.7305  157.4476 C   0  0  0  0  0  0  0  0  0  0  0  0
  151.5364  144.1144  157.7092 C   0  0  0  0  0  0  0  0  0  0  0  0
  152.1264  144.6133  158.8849 C   0  0  0  0  0  0  0  0  0  0  0  0
  152.7247  143.7267  159.7992 C   0  0  0  0  0  0  0  0  0  0  0  0
  152.7339  142.3424  159.5396 C   0  0  0  0  0  0  0  0  0  0  0  0
  156.8651  137.4714  153.5790 C   0  0  0  0  0  0  0  0  0  0  0  0
  157.3389  136.5792  154.5690 C   0  0  0  0  0  0  0  0  0  0  0  0
  158.3058  135.6051  154.2525 C   0  0  0  0  0  0  0  0  0  0  0  0
  158.8118  135.5125  152.9430 C   0  0  0  0  0  0  0  0  0  0  0  0
  158.3496  136.3950  151.9496 C   0  0  0  0  0  0  0  0  0  0  0  0
  157.3819  137.3691  152.2637 C   0  0  0  0  0  0  0  0  0  0  0  0
  146.5808  135.6393  155.3489 H   0  0  0  0  0  0  0  0  0  0  0  0
  154.0375  139.6539  155.4343 H   0  0  0  0  0  0  0  0  0  0  0  0
  153.1578  139.1383  153.9992 H   0  0  0  0  0  0  0  0  0  0  0  0
  153.2651  137.5325  156.6182 H   0  0  0  0  0  0  0  0  0  0  0  0
  150.6855  137.2676  153.5579 H   0  0  0  0  0  0  0  0  0  0  0  0
  151.2944  135.1325  156.2067 H   0  0  0  0  0  0  0  0  0  0  0  0
  149.7882  133.5329  157.1384 H   0  0  0  0  0  0  0  0  0  0  0  0
  149.4659  138.7776  155.6150 H   0  0  0  0  0  0  0  0  0  0  0  0
  149.8338  139.8558  153.8092 H   0  0  0  0  0  0  0  0  0  0  0  0
  151.1393  138.2228  157.1939 H   0  0  0  0  0  0  0  0  0  0  0  0
  151.0862  142.3706  156.5378 H   0  0  0  0  0  0  0  0  0  0  0  0
  151.0773  144.7936  157.0059 H   0  0  0  0  0  0  0  0  0  0  0  0
  152.1210  145.6747  159.0848 H   0  0  0  0  0  0  0  0  0  0  0  0
  153.1782  144.1089  160.7018 H   0  0  0  0  0  0  0  0  0  0  0  0
  153.2029  141.6904  160.2621 H   0  0  0  0  0  0  0  0  0  0  0  0
  156.9649  136.6306  155.5814 H   0  0  0  0  0  0  0  0  0  0  0  0
  158.6590  134.9280  155.0160 H   0  0  0  0  0  0  0  0  0  0  0  0
  159.5534  134.7655  152.7007 H   0  0  0  0  0  0  0  0  0  0  0  0
  158.7376  136.3255  150.9442 H   0  0  0  0  0  0  0  0  0  0  0  0
  157.0504  138.0318  151.4777 H   0  0  0  0  0  0  0  0  0  0  0  0
  1  2  2  0  0  0  0
  2  3  1  0  0  0  0
  2 28  1  0  0  0  0
  3  4  1  0  0  0  0
  4  5  1  0  0  0  0
  4 35  1  0  0  0  0
  4 36  1  0  0  0  0
  5 18  1  0  0  0  0
  5  6  1  0  0  0  0
  5 37  1  0  0  0  0
  6  7  1  0  0  0  0
  7  8  1  0  0  0  0
  7 16  1  0  0  0  0
  7 38  1  0  0  0  0
  8 14  1  0  0  0  0
  8  9  1  0  0  0  0
  9 10  2  0  0  0  0
  9 39  1  0  0  0  0
 10 11  1  0  0  0  0
 10 40  1  0  0  0  0
 11 12  2  0  0  0  0
 11 13  1  0  0  0  0
 13 34  1  0  0  0  0
 13 14  1  0  0  0  0
 14 15  2  0  0  0  0
 16 17  1  0  0  0  0
 16 18  1  0  0  0  0
 16 41  1  0  0  0  0
 17 42  1  0  0  0  0
 18 19  1  0  0  0  0
 18 43  1  0  0  0  0
 19 20  1  0  0  0  0
 20 21  2  0  0  0  0
 20 22  1  0  0  0  0
 22 27  1  0  0  0  0
 22 23  2  0  0  0  0
 23 24  1  0  0  0  0
 23 44  1  0  0  0  0
 24 25  2  0  0  0  0
 24 45  1  0  0  0  0
 25 26  1  0  0  0  0
 25 46  1  0  0  0  0
 26 27  2  0  0  0  0
 26 47  1  0  0  0  0
 27 48  1  0  0  0  0
 28 33  1  0  0  0  0
 28 29  2  0  0  0  0
 29 30  1  0  0  0  0
 29 49  1  0  0  0  0
 30 31  2  0  0  0  0
 30 50  1  0  0  0  0
 31 32  1  0  0  0  0
 31 51  1  0  0  0  0
 32 33  2  0  0  0  0
 32 52  1  0  0  0  0
 33 53  1  0  0  0  0
M  END
> <s_m_source_file>
AV-unprocessed.smi

> <i_m_source_file_index>
99

> <i_lp_mmshare_version>
43012

> <i_f3d_flags>
0

> <s_epik_input>
W2NIXTFbY0hdW2NIXVtjSF1bY0hdYzFDKD1PKU9bQ0gyXVtDQEBIXTJPW0NAQEhdKG4zW2NIXVtjSF1jKD1PKVtuSF1jMz1PKVtDQEBIXShbT0hdKVtDQEhdMk9DKD1PKWM0W2NIXVtjSF1bY0hdW2NIXVtjSF00

> <s_epik_cmdline>
J2VwaWtfcHl0aG9uJywgJy1waCcsICc3LjAnLCAnLXRuJywgJzgnLCAnLW1hJywgJzIwMCcsICctbWV0YWxfYmluZGluZycsICctaW1hZScsICc8aW5maWxlLm1hZT4nLCAnLW9tYWUnLCAnPG91dGZpbGUubWFlPic=

> <r_lp_tautomer_probability>
1

> <r_epik_Ionization_Penalty>
0.00454555

> <r_epik_Ionization_Penalty_Charging>
0.0045191

> <r_epik_Ionization_Penalty_Neutral>
2.64449e-05

> <r_epik_State_Penalty>
-0

> <r_epik_Charging_Adjusted_Penalty>
0.0045191

> <i_epik_Tot_Q>
0

> <i_epik_Tot_abs_Q>
0

> <r_epik_Metal_State_Penalty>
1.27877

> <b_epik_Metal_Only>
0

> <s_epik_Chemistry_Notes>
This compound has an ester and may undergo hydrolysis at high or low pH. This compound contains an acetal/aminal-like group ( X-CH(R)-Y where X, Y are N, S, or O) that may be acid/base labile, releasing an aldehyde.

> <s_lp_Force_Field>
OPLS_2005

> <r_lp_Energy>
39.429

> <b_lp_Chiralities_Consistent>
1

> <s_lp_Variant>
AV-unprocessed.smi:99-13

> <Gold.Version>
5.8.1

> <Gold.Id.Protein>
6NUR|6NUR_protein|mol2

> <Gold.PLP.Fitness>
58.8430

> <Gold.PLP.PLP>
-53.1917

> <Gold.PLP.part.hbond>
-4.4363

> <Gold.PLP.part.metal>
0.0000

> <Gold.PLP.part.buried>
-5.0337

> <Gold.PLP.part.nonpolar>
-46.2863

> <Gold.PLP.part.repulsive>
1.0084

> <Gold.PLP.ligand.clash>
0.0000

> <Gold.PLP.ligand.torsion>
1.7261

> <Gold.PLP.Chemscore.Hbond>
3.0000

> <Gold.PLP.Chemscore.CHOScore>
0.0000

> <Gold.PLP.Chemscore.Metal>
0.0000

> <Gold.Chemscore.Hbonds>
donor molecule, donor type, donor heavy atom, donor atom, acceptor molecule, acceptor atom, score
      P1  H  7989  7998       L1    17  1.00
      P1  H  7997  8009       L1     1  0.95
      P1  H 10752 10765       L1     6  0.96

> <Gold.PLP.Chemscore.Internal.Correction>
0.1035

> <Gold.Rescore>
     Score         DG    S(hbond)    S(metal)    S(lipo)     H(rot)  DE(clash)    DE(int)     intcor
     19.75     -24.34       2.40        0.00     162.44       3.19       1.92       2.67       ----

> <Gold.Chemscore.Fitness>
19.7485

> <Gold.Chemscore.DG>
-24.3396

> <Gold.Chemscore.ZeroCoef>
-5.4800

> <Gold.Chemscore.Hbond>
2.4016

> <Gold.Chemscore.Metal>
0.0000

> <Gold.Chemscore.Lipo>
162.4397

> <Gold.Chemscore.Internal_Hbond>
0.0000

> <Gold.Chemscore.DEClash>
1.9218

> <Gold.Chemscore.DEInternal>
2.6693

> <Gold.Chemscore.Rot>
3.1903

> <Gold.Chemscore.Internal.Correction>
   9.000000E+99

> <Gold.Chemscore.Hbonds>
donor molecule, donor type, donor heavy atom, donor atom, acceptor molecule, acceptor atom, score
      P1  H  7989  7998       L1    17  0.30
      P1  H  7997  8009       L1     1  0.22
      P1  H 10752 10765       L1     6  0.89

> <Gold.Chemscore.Hbond.Weighted>
-8.0212

> <Gold.Chemscore.Metal.Weighted>
-0.0000

> <Gold.Chemscore.Lipo.Weighted>
-19.0054

> <Gold.Chemscore.Internal_Hbond.Weighted>
0.0000

> <Gold.Chemscore.DEClash.Weighted>
1.9218

> <Gold.Chemscore.DEInternal.Weighted>
2.6693

> <Gold.Chemscore.Rot.Weighted>
8.1671

> <Gold.Chemscore.Internal.Correction.Weighted>
   9.000000E+99

> <Gold.Protein.RotatedTorsions>
[ 6907 6896 6895 6894 ] final   -9.13 input  -60.11 | X-H torsion
[ 7974 7965 7964 7962 ] final  -38.11 input  175.53 | X-H torsion
[ 8008 7997 7996 7995 ] final  -49.65 input   59.86 | X-H torsion
[ 10167 10162 10161 10158 ] final  179.16 input  -65.29 | X-H torsion
[ 10718 10713 10712 10709 ] final -111.21 input   66.30 | X-H torsion
[ 10763 10752 10751 10750 ] final  179.33 input  -60.55 | X-H torsion
[ 11005 11000 10999 10996 ] final -158.94 input  -57.11 | X-H torsion

> <Gold.Protein.ActiveResidues>
 VAL166  LYS551  ARG553  GLY616  TRP617  ASP618  TYR619  PRO620  LYS621  CYS622 
 ASP623  PHE694  ASN695  SER759  ASP760  ASP761  ALA762  ILE779  LEU786  VAL792 
 PHE793  MET794  SER795  GLU796  ALA797  LYS798  CYS799  TRP800  GLU811  SER814 

> <Gold.Protein.RotatedAtoms>
  151.4227  135.1000  159.9618 H   0  0  0  0  0  0  0  0  0  0  0  0  # atno 6907 bound_to 6896
  152.4983  133.8692  159.7300 H   0  0  0  0  0  0  0  0  0  0  0  0  # atno 6908 bound_to 6896
  150.9211  133.6821  159.2860 H   0  0  0  0  0  0  0  0  0  0  0  0  # atno 6909 bound_to 6896
  146.0515  140.6474  142.9039 H   0  0  0  0  0  0  0  0  0  0  0  0  # atno 7974 bound_to 7965
  154.4048  140.1291  156.4537 H   0  0  0  0  0  0  0  0  0  0  0  0  # atno 8008 bound_to 7997
  155.7341  140.3491  155.5053 H   0  0  0  0  0  0  0  0  0  0  0  0  # atno 8009 bound_to 7997
  155.9100  140.1034  157.1277 H   0  0  0  0  0  0  0  0  0  0  0  0  # atno 8010 bound_to 7997
  139.5324  144.2594  152.0719 H   0  0  0  0  0  0  0  0  0  0  0  0  # atno 10167 bound_to 10162
  156.0634  130.5855  150.8342 H   0  0  0  0  0  0  0  0  0  0  0  0  # atno 10718 bound_to 10713
  154.5193  135.2793  155.1276 H   0  0  0  0  0  0  0  0  0  0  0  0  # atno 10763 bound_to 10752
  154.2840  135.6280  153.5362 H   0  0  0  0  0  0  0  0  0  0  0  0  # atno 10764 bound_to 10752
  152.9933  135.5658  154.5678 H   0  0  0  0  0  0  0  0  0  0  0  0  # atno 10765 bound_to 10752
  140.6481  134.4480  157.5234 H   0  0  0  0  0  0  0  0  0  0  0  0  # atno 11005 bound_to 11000
  144.7125  140.4092  143.7069 LP  0  0  0  0  0  0  0  0  0  0  0  0  # atno 17320 bound_to 7965
  145.6716  139.1600  143.2751 LP  0  0  0  0  0  0  0  0  0  0  0  0  # atno 17321 bound_to 7965
  140.2059  144.4611  150.6408 LP  0  0  0  0  0  0  0  0  0  0  0  0  # atno 17342 bound_to 10162
  140.6511  143.2225  151.6075 LP  0  0  0  0  0  0  0  0  0  0  0  0  # atno 17343 bound_to 10162
  157.5659  131.0946  150.9491 LP  0  0  0  0  0  0  0  0  0  0  0  0  # atno 17370 bound_to 10713
  156.9718  130.5494  149.5291 LP  0  0  0  0  0  0  0  0  0  0  0  0  # atno 17371 bound_to 10713
  139.9056  134.8457  156.1721 LP  0  0  0  0  0  0  0  0  0  0  0  0  # atno 17394 bound_to 11000
  141.0557  133.6866  156.1856 LP  0  0  0  0  0  0  0  0  0  0  0  0  # atno 17395 bound_to 11000

$$$$
