AV-unprocessed.smi:793|AV-procd|sdf|3753|dock9
  -GOLD-   22720 1183D 1   1.00000     0.00000
 Structure written by MMmdl.
 39 40  0  0  0  0  0  0  0  0  1 V2000
  147.8201  145.0623  160.4395 C   0  0  0  0  0  0  0  0  0  0  0  0
  147.6509  143.8164  159.5611 C   0  0  0  0  0  0  0  0  0  0  0  0
  148.9378  143.4446  158.8009 C   0  0  1  0  0  0  0  0  0  0  0  0
  149.9941  143.3430  159.7549 O   0  0  0  0  0  0  0  0  0  0  0  0
  150.7452  144.5310  159.9974 C   0  0  0  0  0  0  0  0  0  0  0  0
  151.4102  145.0061  158.7005 C   0  0  0  0  0  0  0  0  0  0  0  0
  152.6857  144.1656  158.5515 C   0  0  0  0  0  0  0  0  0  0  0  0
  152.9565  143.5380  159.9267 C   0  0  0  0  0  0  0  0  0  0  0  0
  151.9342  144.1587  160.8824 C   0  0  0  0  0  0  0  0  0  0  0  0
  148.7780  142.1186  158.0383 C   0  0  0  0  0  0  0  0  0  0  0  0
  148.7004  141.0646  158.6689 O   0  0  0  0  0  0  0  0  0  0  0  0
  148.7442  142.2262  156.6955 N   0  0  0  0  0  0  0  0  0  0  0  0
  148.6346  141.2226  155.7191 C   0  0  0  0  0  0  0  0  0  0  0  0
  149.3094  141.1795  154.5414 C   0  0  0  0  0  0  0  0  0  0  0  0
  149.1653  140.1652  153.6053 N   0  0  0  0  0  0  0  0  0  0  0  0
  148.2860  139.1279  153.8702 C   0  0  0  0  0  0  0  0  0  0  0  0
  147.5532  139.0518  154.9984 C   0  0  0  0  0  0  0  0  0  0  0  0
  147.6797  140.1181  156.0173 C   0  0  0  0  0  0  0  0  0  0  0  0
  147.0216  140.0823  157.0569 O   0  0  0  0  0  0  0  0  0  0  0  0
  146.8889  145.3044  160.9518 H   0  0  0  0  0  0  0  0  0  0  0  0
  148.1068  145.9288  159.8431 H   0  0  0  0  0  0  0  0  0  0  0  0
  148.5873  144.9095  161.1991 H   0  0  0  0  0  0  0  0  0  0  0  0
  147.3288  142.9801  160.1832 H   0  0  0  0  0  0  0  0  0  0  0  0
  146.8434  143.9992  158.8506 H   0  0  0  0  0  0  0  0  0  0  0  0
  149.1627  144.2470  158.0951 H   0  0  0  0  0  0  0  0  0  0  0  0
  150.1421  145.3113  160.4648 H   0  0  0  0  0  0  0  0  0  0  0  0
  150.7584  144.9297  157.8302 H   0  0  0  0  0  0  0  0  0  0  0  0
  151.6853  146.0564  158.8051 H   0  0  0  0  0  0  0  0  0  0  0  0
  152.5445  143.3829  157.8054 H   0  0  0  0  0  0  0  0  0  0  0  0
  153.5212  144.7837  158.2211 H   0  0  0  0  0  0  0  0  0  0  0  0
  152.7982  142.4602  159.8715 H   0  0  0  0  0  0  0  0  0  0  0  0
  153.9805  143.7008  160.2633 H   0  0  0  0  0  0  0  0  0  0  0  0
  152.3542  145.0635  161.3238 H   0  0  0  0  0  0  0  0  0  0  0  0
  151.6605  143.4906  161.6996 H   0  0  0  0  0  0  0  0  0  0  0  0
  148.8000  143.1638  156.3245 H   0  0  0  0  0  0  0  0  0  0  0  0
  150.0154  141.9277  154.2202 H   0  0  0  0  0  0  0  0  0  0  0  0
  148.2363  138.3805  153.0919 H   0  0  0  0  0  0  0  0  0  0  0  0
  146.8753  138.2301  155.1769 H   0  0  0  0  0  0  0  0  0  0  0  0
  149.6941  140.1838  152.7445 H   0  0  0  0  0  0  0  0  0  0  0  0
  1  2  1  0  0  0  0
  1 20  1  0  0  0  0
  1 21  1  0  0  0  0
  1 22  1  0  0  0  0
  2  3  1  0  0  0  0
  2 23  1  0  0  0  0
  2 24  1  0  0  0  0
  3  4  1  0  0  0  0
  3 10  1  0  0  0  0
  3 25  1  0  0  0  0
  4  5  1  0  0  0  0
  5  9  1  0  0  0  0
  5  6  1  0  0  0  0
  5 26  1  0  0  0  0
  6  7  1  0  0  0  0
  6 27  1  0  0  0  0
  6 28  1  0  0  0  0
  7  8  1  0  0  0  0
  7 29  1  0  0  0  0
  7 30  1  0  0  0  0
  8  9  1  0  0  0  0
  8 31  1  0  0  0  0
  8 32  1  0  0  0  0
  9 33  1  0  0  0  0
  9 34  1  0  0  0  0
 10 11  2  0  0  0  0
 10 12  1  0  0  0  0
 12 35  1  0  0  0  0
 12 13  1  0  0  0  0
 13 18  1  0  0  0  0
 13 14  2  0  0  0  0
 14 36  1  0  0  0  0
 14 15  1  0  0  0  0
 15 39  1  0  0  0  0
 15 16  1  0  0  0  0
 16 37  1  0  0  0  0
 16 17  2  0  0  0  0
 17 18  1  0  0  0  0
 17 38  1  0  0  0  0
 18 19  2  0  0  0  0
M  END
> <s_m_source_file>
AV-unprocessed.smi

> <i_m_source_file_index>
793

> <i_lp_mmshare_version>
43012

> <i_f3d_flags>
0

> <s_epik_input>
W0NIMl0xW0NIMl1bQ0gyXVtDSDJdW0NIXTFPW0NAQEhdKFtDSDJdW0NIM10pQyg9TylbTkhdYzJbY0hdbltjSF1bY0hdYzJbT0hd

> <s_epik_cmdline>
J2VwaWtfcHl0aG9uJywgJy1waCcsICc3LjAnLCAnLXRuJywgJzgnLCAnLW1hJywgJzIwMCcsICctbWV0YWxfYmluZGluZycsICctaW1hZScsICc8aW5maWxlLm1hZT4nLCAnLW9tYWUnLCAnPG91dGZpbGUubWFlPic=

> <r_lp_tautomer_probability>
1

> <r_epik_Ionization_Penalty>
0.000234492

> <r_epik_Ionization_Penalty_Charging>
0.000234447

> <r_epik_Ionization_Penalty_Neutral>
4.48517e-08

> <r_epik_State_Penalty>
-0

> <r_epik_Charging_Adjusted_Penalty>
0.000234447

> <i_epik_Tot_Q>
0

> <i_epik_Tot_abs_Q>
0

> <r_epik_Metal_State_Penalty>
0.110344

> <b_epik_Metal_Only>
0

> <s_lp_Force_Field>
OPLS_2005

> <r_lp_Energy>
26.0672

> <b_lp_Chiralities_Consistent>
1

> <s_lp_Variant>
AV-unprocessed.smi:793-2

> <Gold.Version>
5.8.1

> <Gold.Id.Protein>
6NUR|6NUR_protein|mol2

> <Gold.PLP.Fitness>
40.4118

> <Gold.PLP.PLP>
-33.2430

> <Gold.PLP.part.hbond>
-4.2754

> <Gold.PLP.part.metal>
0.0000

> <Gold.PLP.part.buried>
-0.6759

> <Gold.PLP.part.nonpolar>
-27.6504

> <Gold.PLP.part.repulsive>
0.2717

> <Gold.PLP.ligand.clash>
0.0000

> <Gold.PLP.ligand.torsion>
0.9537

> <Gold.PLP.Chemscore.Hbond>
1.9357

> <Gold.PLP.Chemscore.CHOScore>
1.0515

> <Gold.PLP.Chemscore.Metal>
0.0000

> <Gold.Chemscore.Hbonds>
donor molecule, donor type, donor heavy atom, donor atom, acceptor molecule, acceptor atom, score
      L1  H    12    35       P1  8028  1.00
      L1  H    15    39       P1  7957  0.91
      L1  C    16    37       P1  7948  0.93
      L1  C    16    37       P1  7957  0.04

> <Gold.PLP.Chemscore.Internal.Correction>
0.1146

> <Gold.Rescore>
     Score         DG    S(hbond)    S(metal)    S(lipo)     H(rot)  DE(clash)    DE(int)     intcor
     15.00     -18.83       1.89        0.00      95.29       1.61       0.41       3.41       ----

> <Gold.Chemscore.Fitness>
15.0047

> <Gold.Chemscore.DG>
-18.8302

> <Gold.Chemscore.ZeroCoef>
-5.4800

> <Gold.Chemscore.Hbond>
1.8900

> <Gold.Chemscore.Metal>
0.0000

> <Gold.Chemscore.Lipo>
95.2921

> <Gold.Chemscore.Internal_Hbond>
0.0000

> <Gold.Chemscore.DEClash>
0.4129

> <Gold.Chemscore.DEInternal>
3.4125

> <Gold.Chemscore.Rot>
1.6061

> <Gold.Chemscore.Internal.Correction>
   9.000000E+99

> <Gold.Chemscore.Hbonds>
donor molecule, donor type, donor heavy atom, donor atom, acceptor molecule, acceptor atom, score
      L1  H    12    35       P1  8028  0.98
      L1  H    15    39       P1  7957  0.87

> <Gold.Chemscore.Hbond.Weighted>
-6.3126

> <Gold.Chemscore.Metal.Weighted>
-0.0000

> <Gold.Chemscore.Lipo.Weighted>
-11.1492

> <Gold.Chemscore.Internal_Hbond.Weighted>
0.0000

> <Gold.Chemscore.DEClash.Weighted>
0.4129

> <Gold.Chemscore.DEInternal.Weighted>
3.4125

> <Gold.Chemscore.Rot.Weighted>
4.1116

> <Gold.Chemscore.Internal.Correction.Weighted>
   9.000000E+99

> <Gold.Protein.RotatedTorsions>
[ 6907 6896 6895 6894 ] final -124.66 input  -60.11 | X-H torsion
[ 7974 7965 7964 7962 ] final   81.01 input  175.53 | X-H torsion
[ 8008 7997 7996 7995 ] final   36.34 input   59.86 | X-H torsion
[ 10167 10162 10161 10158 ] final   74.88 input  -65.29 | X-H torsion
[ 10718 10713 10712 10709 ] final   63.70 input   66.30 | X-H torsion
[ 10763 10752 10751 10750 ] final  172.43 input  -60.55 | X-H torsion
[ 11005 11000 10999 10996 ] final  -75.88 input  -57.11 | X-H torsion

> <Gold.Protein.ActiveResidues>
 VAL166  LYS551  ARG553  GLY616  TRP617  ASP618  TYR619  PRO620  LYS621  CYS622 
 ASP623  PHE694  ASN695  SER759  ASP760  ASP761  ALA762  ILE779  LEU786  VAL792 
 PHE793  MET794  SER795  GLU796  ALA797  LYS798  CYS799  TRP800  GLU811  SER814 

> <Gold.Protein.RotatedAtoms>
  150.8790  133.7399  159.2937 H   0  0  0  0  0  0  0  0  0  0  0  0  # atno 6907 bound_to 6896
  151.4986  135.1059  159.9832 H   0  0  0  0  0  0  0  0  0  0  0  0  # atno 6908 bound_to 6896
  152.4747  133.8064  159.7036 H   0  0  0  0  0  0  0  0  0  0  0  0  # atno 6909 bound_to 6896
  145.6437  139.2431  143.2016 H   0  0  0  0  0  0  0  0  0  0  0  0  # atno 7974 bound_to 7965
  155.1857  140.3303  155.4367 H   0  0  0  0  0  0  0  0  0  0  0  0  # atno 8008 bound_to 7997
  156.2460  140.1919  156.6903 H   0  0  0  0  0  0  0  0  0  0  0  0  # atno 8009 bound_to 7997
  154.6240  140.0591  156.9636 H   0  0  0  0  0  0  0  0  0  0  0  0  # atno 8010 bound_to 7997
  140.0090  144.5629  150.7674 H   0  0  0  0  0  0  0  0  0  0  0  0  # atno 10167 bound_to 10162
  157.5989  130.9120  149.9750 H   0  0  0  0  0  0  0  0  0  0  0  0  # atno 10718 bound_to 10713
  154.4260  135.2759  155.1944 H   0  0  0  0  0  0  0  0  0  0  0  0  # atno 10763 bound_to 10752
  154.3870  135.6075  153.5825 H   0  0  0  0  0  0  0  0  0  0  0  0  # atno 10764 bound_to 10752
  152.9834  135.5894  154.4564 H   0  0  0  0  0  0  0  0  0  0  0  0  # atno 10765 bound_to 10752
  141.1649  133.6963  156.7584 H   0  0  0  0  0  0  0  0  0  0  0  0  # atno 11005 bound_to 11000
  146.1260  140.7248  142.9435 LP  0  0  0  0  0  0  0  0  0  0  0  0  # atno 17320 bound_to 7965
  144.7148  140.4169  143.7053 LP  0  0  0  0  0  0  0  0  0  0  0  0  # atno 17321 bound_to 7965
  140.7389  143.2784  151.3672 LP  0  0  0  0  0  0  0  0  0  0  0  0  # atno 17342 bound_to 10162
  139.6218  144.0891  152.2398 LP  0  0  0  0  0  0  0  0  0  0  0  0  # atno 17343 bound_to 10162
  156.1058  130.3653  150.0136 LP  0  0  0  0  0  0  0  0  0  0  0  0  # atno 17370 bound_to 10713
  156.8244  130.9370  151.3640 LP  0  0  0  0  0  0  0  0  0  0  0  0  # atno 17371 bound_to 10713
  140.2552  134.8509  157.3706 LP  0  0  0  0  0  0  0  0  0  0  0  0  # atno 17394 bound_to 11000
  140.1664  134.4664  155.7860 LP  0  0  0  0  0  0  0  0  0  0  0  0  # atno 17395 bound_to 11000

$$$$
