AV-unprocessed.smi:81|AV-procd|sdf|788|dock9
  -GOLD-   2262017163D 1   1.00000     0.00000
 Structure written by MMmdl.
 64 67  0  0  0  0  0  0  0  0  2 V2000
  152.3101  144.0255  158.0689 C   0  0  0  0  0  0  0  0  0  0  0  0
  151.7447  142.8139  158.8285 C   0  0  0  0  0  0  0  0  0  0  0  0
  152.5956  142.5129  160.0700 C   0  0  0  0  0  0  0  0  0  0  0  0
  151.6480  141.5628  157.9259 C   0  0  0  0  0  0  0  0  0  0  0  0
  150.3778  140.8403  158.0414 N   0  0  0  0  0  0  0  0  0  0  0  0
  150.4917  139.5612  158.4783 C   0  0  0  0  0  0  0  0  0  0  0  0
  149.4924  138.6700  158.2443 N   0  0  0  0  0  0  0  0  0  0  0  0
  149.6133  137.4055  158.6599 C   0  0  0  0  0  0  0  0  0  0  0  0
  150.6295  136.8345  159.3100 N   0  0  0  0  0  0  0  0  0  0  0  0
  151.6383  137.7246  159.5345 C   0  0  0  0  0  0  0  0  0  0  0  0
  151.6486  139.0959  159.1577 C   0  0  0  0  0  0  0  0  0  0  0  0
  152.8403  139.6911  159.5511 N   0  0  0  0  0  0  0  0  0  0  0  0
  153.5001  138.7239  160.1276 C   0  0  0  0  0  0  0  0  0  0  0  0
  152.8559  137.5071  160.1546 N   0  0  0  0  0  0  0  0  0  0  0  0
  153.3624  136.2664  160.7191 C   0  0  0  0  0  0  0  0  0  0  0  0
  153.7896  136.3971  162.2004 C   0  0  1  0  0  0  0  0  0  0  0  0
  154.9955  137.1420  162.2596 O   0  0  0  0  0  0  0  0  0  0  0  0
  152.7578  137.0777  163.0878 C   0  0  0  0  0  0  0  0  0  0  0  0
  153.1173  136.5560  164.4733 C   0  0  0  0  0  0  0  0  0  0  0  0
  153.5466  135.2169  164.2613 O   0  0  0  0  0  0  0  0  0  0  0  0
  153.9540  135.0334  162.9058 C   0  0  2  0  0  0  0  0  0  0  0  0
  155.3444  134.3824  162.8311 C   0  0  0  0  0  0  0  0  0  0  0  0
  149.3894  141.0796  156.9798 C   0  0  2  0  0  0  0  0  0  0  0  0
  150.0148  141.3897  155.6034 C   0  0  0  0  0  0  0  0  0  0  0  0
  148.9263  141.5406  154.5287 C   0  0  0  0  0  0  0  0  0  0  0  0
  147.9515  142.5944  154.9048 N   0  3  1  0  0  0  0  0  0  0  0  0
  146.9636  142.8553  153.8360 C   0  0  0  0  0  0  0  0  0  0  0  0
  147.3078  142.3156  156.2128 C   0  0  0  0  0  0  0  0  0  0  0  0
  148.3570  142.1740  157.3281 C   0  0  0  0  0  0  0  0  0  0  0  0
  153.3115  143.8220  157.6883 H   0  0  0  0  0  0  0  0  0  0  0  0
  152.3718  144.9004  158.7166 H   0  0  0  0  0  0  0  0  0  0  0  0
  151.6811  144.2949  157.2205 H   0  0  0  0  0  0  0  0  0  0  0  0
  150.7485  143.0764  159.1866 H   0  0  0  0  0  0  0  0  0  0  0  0
  153.6161  142.2433  159.7958 H   0  0  0  0  0  0  0  0  0  0  0  0
  152.1749  141.6859  160.6430 H   0  0  0  0  0  0  0  0  0  0  0  0
  152.6454  143.3781  160.7316 H   0  0  0  0  0  0  0  0  0  0  0  0
  151.7917  141.8610  156.8866 H   0  0  0  0  0  0  0  0  0  0  0  0
  152.4680  140.8817  158.1571 H   0  0  0  0  0  0  0  0  0  0  0  0
  148.7787  136.7573  158.4367 H   0  0  0  0  0  0  0  0  0  0  0  0
  154.4858  138.8707  160.5447 H   0  0  0  0  0  0  0  0  0  0  0  0
  152.5829  135.5103  160.6160 H   0  0  0  0  0  0  0  0  0  0  0  0
  154.2014  135.9242  160.1116 H   0  0  0  0  0  0  0  0  0  0  0  0
  155.6063  136.7727  161.6403 H   0  0  0  0  0  0  0  0  0  0  0  0
  152.7702  138.1668  163.0232 H   0  0  0  0  0  0  0  0  0  0  0  0
  151.7546  136.7380  162.8262 H   0  0  0  0  0  0  0  0  0  0  0  0
  153.9438  137.1288  164.8957 H   0  0  0  0  0  0  0  0  0  0  0  0
  152.2805  136.6034  165.1704 H   0  0  0  0  0  0  0  0  0  0  0  0
  153.2307  134.3356  162.4814 H   0  0  0  0  0  0  0  0  0  0  0  0
  155.6605  134.2512  161.7961 H   0  0  0  0  0  0  0  0  0  0  0  0
  155.3347  133.3993  163.3019 H   0  0  0  0  0  0  0  0  0  0  0  0
  156.0987  134.9815  163.3418 H   0  0  0  0  0  0  0  0  0  0  0  0
  148.8440  140.1412  156.8701 H   0  0  0  0  0  0  0  0  0  0  0  0
  150.5997  142.3098  155.6431 H   0  0  0  0  0  0  0  0  0  0  0  0
  150.7012  140.5925  155.3160 H   0  0  0  0  0  0  0  0  0  0  0  0
  149.3910  141.7949  153.5752 H   0  0  0  0  0  0  0  0  0  0  0  0
  148.4053  140.5926  154.3850 H   0  0  0  0  0  0  0  0  0  0  0  0
  146.3418  141.9776  153.6541 H   0  0  0  0  0  0  0  0  0  0  0  0
  147.4645  143.1197  152.9042 H   0  0  0  0  0  0  0  0  0  0  0  0
  146.3117  143.6857  154.1090 H   0  0  0  0  0  0  0  0  0  0  0  0
  146.6212  143.1256  156.4618 H   0  0  0  0  0  0  0  0  0  0  0  0
  146.7113  141.4047  156.1408 H   0  0  0  0  0  0  0  0  0  0  0  0
  147.8537  141.9407  158.2666 H   0  0  0  0  0  0  0  0  0  0  0  0
  148.8527  143.1343  157.4711 H   0  0  0  0  0  0  0  0  0  0  0  0
  148.4801  143.4476  155.0198 H   0  0  0  0  0  0  0  0  0  0  0  0
  1  2  1  0  0  0  0
  1 30  1  0  0  0  0
  1 31  1  0  0  0  0
  1 32  1  0  0  0  0
  2  3  1  0  0  0  0
  2  4  1  0  0  0  0
  2 33  1  0  0  0  0
  3 34  1  0  0  0  0
  3 35  1  0  0  0  0
  3 36  1  0  0  0  0
  4  5  1  0  0  0  0
  4 37  1  0  0  0  0
  4 38  1  0  0  0  0
  5  6  1  0  0  0  0
  5 23  1  0  0  0  0
  6 11  1  0  0  0  0
  6  7  2  0  0  0  0
  7  8  1  0  0  0  0
  8  9  2  0  0  0  0
  8 39  1  0  0  0  0
  9 10  1  0  0  0  0
 10 14  1  0  0  0  0
 10 11  2  0  0  0  0
 11 12  1  0  0  0  0
 12 13  2  0  0  0  0
 13 14  1  0  0  0  0
 13 40  1  0  0  0  0
 14 15  1  0  0  0  0
 15 16  1  0  0  0  0
 15 41  1  0  0  0  0
 15 42  1  0  0  0  0
 16 21  1  0  0  0  0
 16 17  1  0  0  0  0
 16 18  1  0  0  0  0
 17 43  1  0  0  0  0
 18 19  1  0  0  0  0
 18 44  1  0  0  0  0
 18 45  1  0  0  0  0
 19 20  1  0  0  0  0
 19 46  1  0  0  0  0
 19 47  1  0  0  0  0
 20 21  1  0  0  0  0
 21 22  1  0  0  0  0
 21 48  1  0  0  0  0
 22 49  1  0  0  0  0
 22 50  1  0  0  0  0
 22 51  1  0  0  0  0
 23 29  1  0  0  0  0
 23 24  1  0  0  0  0
 23 52  1  0  0  0  0
 24 25  1  0  0  0  0
 24 53  1  0  0  0  0
 24 54  1  0  0  0  0
 25 26  1  0  0  0  0
 25 55  1  0  0  0  0
 25 56  1  0  0  0  0
 26 27  1  0  0  0  0
 26 28  1  0  0  0  0
 26 64  1  0  0  0  0
 27 57  1  0  0  0  0
 27 58  1  0  0  0  0
 27 59  1  0  0  0  0
 28 29  1  0  0  0  0
 28 60  1  0  0  0  0
 28 61  1  0  0  0  0
 29 62  1  0  0  0  0
 29 63  1  0  0  0  0
M  CHG  1  26   1
M  END
> <s_m_source_file>
AV-unprocessed.smi

> <i_m_source_file_index>
81

> <i_lp_mmshare_version>
43012

> <i_f3d_flags>
0

> <s_epik_input>
W0NIMl0xW0NIMl1OKFtDSDNdKVtDSDJdW0NIMl1bQ0hdMU4oW0NIMl1bQ0hdKFtDSDNdKVtDSDNdKWMobltjSF1uMiljKGMyMyluW2NIXW4zW0NIMl1bQ0BAXTQoW09IXSlbQ0gyXVtDSDJdT1tDQEhdNFtDSDNd

> <s_epik_cmdline>
J2VwaWtfcHl0aG9uJywgJy1waCcsICc3LjAnLCAnLXRuJywgJzgnLCAnLW1hJywgJzIwMCcsICctbWV0YWxfYmluZGluZycsICctaW1hZScsICc8aW5maWxlLm1hZT4nLCAnLW9tYWUnLCAnPG91dGZpbGUubWFlPic=

> <r_lp_tautomer_probability>
1

> <r_epik_Ionization_Penalty>
0.00272708

> <r_epik_Ionization_Penalty_Charging>
0.00158983

> <r_epik_Ionization_Penalty_Neutral>
0.00113725

> <r_epik_State_Penalty>
-0

> <r_epik_Charging_Adjusted_Penalty>
0.00158983

> <i_epik_Tot_Q>
1

> <i_epik_Tot_abs_Q>
1

> <r_epik_Metal_State_Penalty>
-0

> <b_epik_Metal_Only>
0

> <s_lp_Force_Field>
OPLS_2005

> <r_lp_Energy>
45.229

> <b_lp_Chiralities_Consistent>
1

> <s_lp_Variant>
AV-unprocessed.smi:81-3

> <Gold.Version>
5.8.1

> <Gold.Id.Protein>
6NUR|6NUR_protein|mol2

> <Gold.PLP.Fitness>
55.1437

> <Gold.PLP.PLP>
-51.5741

> <Gold.PLP.part.hbond>
-2.0000

> <Gold.PLP.part.metal>
0.0000

> <Gold.PLP.part.buried>
-8.1302

> <Gold.PLP.part.nonpolar>
-42.3234

> <Gold.PLP.part.repulsive>
0.1972

> <Gold.PLP.ligand.clash>
0.0000

> <Gold.PLP.ligand.torsion>
3.1129

> <Gold.PLP.Chemscore.Hbond>
3.0000

> <Gold.PLP.Chemscore.CHOScore>
0.0000

> <Gold.PLP.Chemscore.Metal>
0.0000

> <Gold.Chemscore.Hbonds>
donor molecule, donor type, donor heavy atom, donor atom, acceptor molecule, acceptor atom, score
      L1  H    26    64       P1  8028  1.62
      P1  H  6896  6907       L1     9  1.00

> <Gold.PLP.Chemscore.Internal.Correction>
0.7954

> <Gold.Rescore>
     Score         DG    S(hbond)    S(metal)    S(lipo)     H(rot)  DE(clash)    DE(int)     intcor
     15.01     -19.46       1.98        0.00     119.36       2.58       0.01       4.44       ----

> <Gold.Chemscore.Fitness>
15.0112

> <Gold.Chemscore.DG>
-19.4634

> <Gold.Chemscore.ZeroCoef>
-5.4800

> <Gold.Chemscore.Hbond>
1.9809

> <Gold.Chemscore.Metal>
0.0000

> <Gold.Chemscore.Lipo>
119.3618

> <Gold.Chemscore.Internal_Hbond>
0.0000

> <Gold.Chemscore.DEClash>
0.0115

> <Gold.Chemscore.DEInternal>
4.4407

> <Gold.Chemscore.Rot>
2.5774

> <Gold.Chemscore.Internal.Correction>
   9.000000E+99

> <Gold.Chemscore.Hbonds>
donor molecule, donor type, donor heavy atom, donor atom, acceptor molecule, acceptor atom, score
      L1  H    26    64       P1  8028  0.79
      P1  H  6896  6907       L1     9  0.39

> <Gold.Chemscore.Hbond.Weighted>
-6.6163

> <Gold.Chemscore.Metal.Weighted>
-0.0000

> <Gold.Chemscore.Lipo.Weighted>
-13.9653

> <Gold.Chemscore.Internal_Hbond.Weighted>
0.0000

> <Gold.Chemscore.DEClash.Weighted>
0.0115

> <Gold.Chemscore.DEInternal.Weighted>
4.4407

> <Gold.Chemscore.Rot.Weighted>
6.5982

> <Gold.Chemscore.Internal.Correction.Weighted>
   9.000000E+99

> <Gold.Protein.RotatedTorsions>
[ 6907 6896 6895 6894 ] final  -10.52 input  -60.11 | X-H torsion
[ 7974 7965 7964 7962 ] final  147.16 input  175.53 | X-H torsion
[ 8008 7997 7996 7995 ] final   47.90 input   59.86 | X-H torsion
[ 10167 10162 10161 10158 ] final -161.26 input  -65.29 | X-H torsion
[ 10718 10713 10712 10709 ] final   41.26 input   66.30 | X-H torsion
[ 10763 10752 10751 10750 ] final -139.41 input  -60.55 | X-H torsion
[ 11005 11000 10999 10996 ] final   -1.69 input  -57.11 | X-H torsion

> <Gold.Protein.ActiveResidues>
 VAL166  LYS551  ARG553  GLY616  TRP617  ASP618  TYR619  PRO620  LYS621  CYS622 
 ASP623  PHE694  ASN695  SER759  ASP760  ASP761  ALA762  ILE779  LEU786  VAL792 
 PHE793  MET794  SER795  GLU796  ALA797  LYS798  CYS799  TRP800  GLU811  SER814 

> <Gold.Protein.RotatedAtoms>
  151.4007  135.0970  159.9554 H   0  0  0  0  0  0  0  0  0  0  0  0  # atno 6907 bound_to 6896
  152.5051  133.8891  159.7395 H   0  0  0  0  0  0  0  0  0  0  0  0  # atno 6908 bound_to 6896
  150.9364  133.6650  159.2828 H   0  0  0  0  0  0  0  0  0  0  0  0  # atno 6909 bound_to 6896
  144.8614  139.5994  143.5929 H   0  0  0  0  0  0  0  0  0  0  0  0  # atno 7974 bound_to 7965
  155.3768  140.3426  155.4245 H   0  0  0  0  0  0  0  0  0  0  0  0  # atno 8008 bound_to 7997
  156.1632  140.1607  156.8609 H   0  0  0  0  0  0  0  0  0  0  0  0  # atno 8009 bound_to 7997
  154.5160  140.0778  156.8063 H   0  0  0  0  0  0  0  0  0  0  0  0  # atno 8010 bound_to 7997
  139.6478  144.0139  152.2140 H   0  0  0  0  0  0  0  0  0  0  0  0  # atno 10167 bound_to 10162
  157.3916  130.7809  149.7274 H   0  0  0  0  0  0  0  0  0  0  0  0  # atno 10718 bound_to 10713
  154.8610  135.3583  154.5542 H   0  0  0  0  0  0  0  0  0  0  0  0  # atno 10763 bound_to 10752
  153.6159  135.7008  153.5334 H   0  0  0  0  0  0  0  0  0  0  0  0  # atno 10764 bound_to 10752
  153.3170  135.4162  155.1345 H   0  0  0  0  0  0  0  0  0  0  0  0  # atno 10765 bound_to 10752
  140.6501  133.9412  155.8375 H   0  0  0  0  0  0  0  0  0  0  0  0  # atno 11005 bound_to 11000
  146.2863  139.7013  142.9193 LP  0  0  0  0  0  0  0  0  0  0  0  0  # atno 17320 bound_to 7965
  145.4306  141.0415  143.2913 LP  0  0  0  0  0  0  0  0  0  0  0  0  # atno 17321 bound_to 7965
  139.9845  144.6405  150.7870 LP  0  0  0  0  0  0  0  0  0  0  0  0  # atno 17342 bound_to 10162
  140.7523  143.2988  151.3134 LP  0  0  0  0  0  0  0  0  0  0  0  0  # atno 17343 bound_to 10162
  155.9800  130.4034  150.3556 LP  0  0  0  0  0  0  0  0  0  0  0  0  # atno 17370 bound_to 10713
  157.1673  131.0360  151.2812 LP  0  0  0  0  0  0  0  0  0  0  0  0  # atno 17371 bound_to 10713
  141.0543  134.0439  157.3743 LP  0  0  0  0  0  0  0  0  0  0  0  0  # atno 17394 bound_to 11000
  139.9049  135.0176  156.7439 LP  0  0  0  0  0  0  0  0  0  0  0  0  # atno 17395 bound_to 11000

$$$$
