AV-unprocessed.smi:2145|AV-procd|sdf|8736|dock4
  -GOLD-   2272011503D 1   1.00000     0.00000
 Structure written by MMmdl.
 45 47  0  0  0  0  0  0  0  0  2 V2000
  149.7979  130.4124  154.1965 C   0  0  0  0  0  0  0  0  0  0  0  0
  150.6106  130.9842  155.3567 C   0  0  0  0  0  0  0  0  0  0  0  0
  151.1297  130.2051  156.1554 O   0  0  0  0  0  0  0  0  0  0  0  0
  150.7298  132.4667  155.4585 C   0  0  0  0  0  0  0  0  0  0  0  0
  150.0114  133.2845  154.5581 C   0  0  0  0  0  0  0  0  0  0  0  0
  150.1067  134.6870  154.6325 C   0  0  0  0  0  0  0  0  0  0  0  0
  150.9195  135.3060  155.6021 C   0  0  0  0  0  0  0  0  0  0  0  0
  150.9554  136.6837  155.6012 O   0  0  0  0  0  0  0  0  0  0  0  0
  151.6160  137.3428  156.6734 C   0  0  0  0  0  0  0  0  0  0  0  0
  151.6333  138.8512  156.3825 C   0  0  2  0  0  0  0  0  0  0  0  0
  152.8505  139.1667  155.7361 O   0  0  0  0  0  0  0  0  0  0  0  0
  151.5117  139.6897  157.6707 C   0  0  0  0  0  0  0  0  0  0  0  0
  151.1606  141.0946  157.4056 N   0  0  0  0  0  0  0  0  0  0  0  0
  150.3858  141.6287  156.4190 C   0  0  0  0  0  0  0  0  0  0  0  0
  149.6832  140.8816  155.3357 C   0  0  0  0  0  0  0  0  0  0  0  0
  150.3684  142.9787  156.6034 N   0  3  0  0  0  0  0  0  0  0  0  0
  151.1401  143.3127  157.7173 C   0  0  0  0  0  0  0  0  0  0  0  0
  151.4215  144.5485  158.2917 C   0  0  0  0  0  0  0  0  0  0  0  0
  152.2534  144.5421  159.4305 C   0  0  0  0  0  0  0  0  0  0  0  0
  152.7709  143.3398  159.9546 C   0  0  0  0  0  0  0  0  0  0  0  0
  152.4780  142.0929  159.3638 C   0  0  0  0  0  0  0  0  0  0  0  0
  151.6535  142.1069  158.2386 C   0  0  0  0  0  0  0  0  0  0  0  0
  151.6396  134.4886  156.5074 C   0  0  0  0  0  0  0  0  0  0  0  0
  151.5446  133.0849  156.4354 C   0  0  0  0  0  0  0  0  0  0  0  0
  150.2331  130.7088  153.2420 H   0  0  0  0  0  0  0  0  0  0  0  0
  148.7681  130.7676  154.2398 H   0  0  0  0  0  0  0  0  0  0  0  0
  149.7842  129.3231  154.2409 H   0  0  0  0  0  0  0  0  0  0  0  0
  149.3788  132.8459  153.7997 H   0  0  0  0  0  0  0  0  0  0  0  0
  149.5496  135.2950  153.9347 H   0  0  0  0  0  0  0  0  0  0  0  0
  151.0532  137.1581  157.5900 H   0  0  0  0  0  0  0  0  0  0  0  0
  152.6293  136.9637  156.8200 H   0  0  0  0  0  0  0  0  0  0  0  0
  150.8057  139.1016  155.7176 H   0  0  0  0  0  0  0  0  0  0  0  0
  152.7499  138.9954  154.8117 H   0  0  0  0  0  0  0  0  0  0  0  0
  150.7259  139.2802  158.3065 H   0  0  0  0  0  0  0  0  0  0  0  0
  152.4276  139.6485  158.2607 H   0  0  0  0  0  0  0  0  0  0  0  0
  149.1778  141.5709  154.6589 H   0  0  0  0  0  0  0  0  0  0  0  0
  148.9402  140.2092  155.7647 H   0  0  0  0  0  0  0  0  0  0  0  0
  150.3967  140.2919  154.7601 H   0  0  0  0  0  0  0  0  0  0  0  0
  151.0281  145.4709  157.8903 H   0  0  0  0  0  0  0  0  0  0  0  0
  152.5011  145.4779  159.9105 H   0  0  0  0  0  0  0  0  0  0  0  0
  153.4075  143.3742  160.8268 H   0  0  0  0  0  0  0  0  0  0  0  0
  152.8863  141.1796  159.7701 H   0  0  0  0  0  0  0  0  0  0  0  0
  152.2731  134.9141  157.2707 H   0  0  0  0  0  0  0  0  0  0  0  0
  152.1097  132.4997  157.1453 H   0  0  0  0  0  0  0  0  0  0  0  0
  149.8650  143.6233  156.0078 H   0  0  0  0  0  0  0  0  0  0  0  0
  1  2  1  0  0  0  0
  1 25  1  0  0  0  0
  1 26  1  0  0  0  0
  1 27  1  0  0  0  0
  2  3  2  0  0  0  0
  2  4  1  0  0  0  0
  4 24  1  0  0  0  0
  4  5  2  0  0  0  0
  5  6  1  0  0  0  0
  5 28  1  0  0  0  0
  6  7  2  0  0  0  0
  6 29  1  0  0  0  0
  7  8  1  0  0  0  0
  7 23  1  0  0  0  0
  8  9  1  0  0  0  0
  9 10  1  0  0  0  0
  9 30  1  0  0  0  0
  9 31  1  0  0  0  0
 10 11  1  0  0  0  0
 10 12  1  0  0  0  0
 10 32  1  0  0  0  0
 11 33  1  0  0  0  0
 12 13  1  0  0  0  0
 12 34  1  0  0  0  0
 12 35  1  0  0  0  0
 13 22  1  0  0  0  0
 13 14  1  0  0  0  0
 14 15  1  0  0  0  0
 14 16  2  0  0  0  0
 15 36  1  0  0  0  0
 15 37  1  0  0  0  0
 15 38  1  0  0  0  0
 16 17  1  0  0  0  0
 16 45  1  0  0  0  0
 17 22  2  0  0  0  0
 17 18  1  0  0  0  0
 18 19  2  0  0  0  0
 18 39  1  0  0  0  0
 19 20  1  0  0  0  0
 19 40  1  0  0  0  0
 20 21  2  0  0  0  0
 20 41  1  0  0  0  0
 21 22  1  0  0  0  0
 21 42  1  0  0  0  0
 23 24  2  0  0  0  0
 23 43  1  0  0  0  0
 24 44  1  0  0  0  0
M  CHG  1  16   1
M  END
> <s_m_source_file>
AV-unprocessed.smi

> <i_m_source_file_index>
2145

> <i_lp_mmshare_version>
43012

> <i_f3d_flags>
0

> <s_epik_input>
W0NIM11DKD1PKWMxW2NIXVtjSF1jKFtjSF1bY0hdMSlPW0NIMl1bQ0BIXShbT0hdKVtDSDJdbihjKG4yKVtDSDNdKWMoYzIzKVtjSF1bY0hdW2NIXVtjSF0z

> <s_epik_cmdline>
J2VwaWtfcHl0aG9uJywgJy1waCcsICc3LjAnLCAnLXRuJywgJzgnLCAnLW1hJywgJzIwMCcsICctbWV0YWxfYmluZGluZycsICctaW1hZScsICc8aW5maWxlLm1hZT4nLCAnLW9tYWUnLCAnPG91dGZpbGUubWFlPic=

> <r_lp_tautomer_probability>
0.99995

> <r_epik_Ionization_Penalty>
1.05477

> <r_epik_Ionization_Penalty_Charging>
1.05477

> <r_epik_Ionization_Penalty_Neutral>
2.3993e-06

> <r_epik_State_Penalty>
1.10796

> <r_epik_Charging_Adjusted_Penalty>
2.16273

> <i_epik_Tot_Q>
1

> <i_epik_Tot_abs_Q>
1

> <r_epik_Metal_State_Penalty>
5.10164

> <b_epik_Metal_Only>
0

> <s_lp_Force_Field>
OPLS_2005

> <r_lp_Energy>
25.5273

> <b_lp_Chiralities_Consistent>
1

> <s_lp_Variant>
AV-unprocessed.smi:2145-3

> <Gold.Version>
5.8.1

> <Gold.Id.Protein>
6NUR|6NUR_protein|mol2

> <Gold.PLP.Fitness>
56.4862

> <Gold.PLP.PLP>
-49.4239

> <Gold.PLP.part.hbond>
-2.0000

> <Gold.PLP.part.metal>
0.0000

> <Gold.PLP.part.buried>
-6.4015

> <Gold.PLP.part.nonpolar>
-42.4840

> <Gold.PLP.part.repulsive>
0.1488

> <Gold.PLP.ligand.clash>
0.0000

> <Gold.PLP.ligand.torsion>
1.0193

> <Gold.PLP.Chemscore.Hbond>
2.9840

> <Gold.PLP.Chemscore.CHOScore>
0.0000

> <Gold.PLP.Chemscore.Metal>
0.0000

> <Gold.Chemscore.Hbonds>
donor molecule, donor type, donor heavy atom, donor atom, acceptor molecule, acceptor atom, score
      L1  H    16    45       P1  8028  1.89
      P1  H  7997  8008       L1    11  0.99

> <Gold.PLP.Chemscore.Internal.Correction>
0.1489

> <Gold.Rescore>
     Score         DG    S(hbond)    S(metal)    S(lipo)     H(rot)  DE(clash)    DE(int)     intcor
     19.53     -20.36       1.87        0.00     124.18       2.30       0.01       0.82       ----

> <Gold.Chemscore.Fitness>
19.5324

> <Gold.Chemscore.DG>
-20.3611

> <Gold.Chemscore.ZeroCoef>
-5.4800

> <Gold.Chemscore.Hbond>
1.8671

> <Gold.Chemscore.Metal>
0.0000

> <Gold.Chemscore.Lipo>
124.1789

> <Gold.Chemscore.Internal_Hbond>
0.0000

> <Gold.Chemscore.DEClash>
0.0104

> <Gold.Chemscore.DEInternal>
0.8183

> <Gold.Chemscore.Rot>
2.2984

> <Gold.Chemscore.Internal.Correction>
   9.000000E+99

> <Gold.Chemscore.Hbonds>
donor molecule, donor type, donor heavy atom, donor atom, acceptor molecule, acceptor atom, score
      L1  H    16    45       P1  8028  0.89
      P1  H  7997  8008       L1    11  0.93

> <Gold.Chemscore.Hbond.Weighted>
-6.2360

> <Gold.Chemscore.Metal.Weighted>
-0.0000

> <Gold.Chemscore.Lipo.Weighted>
-14.5289

> <Gold.Chemscore.Internal_Hbond.Weighted>
0.0000

> <Gold.Chemscore.DEClash.Weighted>
0.0104

> <Gold.Chemscore.DEInternal.Weighted>
0.8183

> <Gold.Chemscore.Rot.Weighted>
5.8839

> <Gold.Chemscore.Internal.Correction.Weighted>
   9.000000E+99

> <Gold.Protein.RotatedTorsions>
[ 6907 6896 6895 6894 ] final   40.61 input  -60.11 | X-H torsion
[ 7974 7965 7964 7962 ] final  114.28 input  175.53 | X-H torsion
[ 8008 7997 7996 7995 ] final  -54.11 input   59.86 | X-H torsion
[ 10167 10162 10161 10158 ] final   67.09 input  -65.29 | X-H torsion
[ 10718 10713 10712 10709 ] final   69.75 input   66.30 | X-H torsion
[ 10763 10752 10751 10750 ] final   19.58 input  -60.55 | X-H torsion
[ 11005 11000 10999 10996 ] final  155.70 input  -57.11 | X-H torsion

> <Gold.Protein.ActiveResidues>
 VAL166  LYS551  ARG553  GLY616  TRP617  ASP618  TYR619  PRO620  LYS621  CYS622 
 ASP623  PHE694  ASN695  SER759  ASP760  ASP761  ALA762  ILE779  LEU786  VAL792 
 PHE793  MET794  SER795  GLU796  ALA797  LYS798  CYS799  TRP800  GLU811  SER814 

> <Gold.Protein.RotatedAtoms>
  152.1847  134.8724  160.0522 H   0  0  0  0  0  0  0  0  0  0  0  0  # atno 6907 bound_to 6896
  151.9635  133.3698  159.4052 H   0  0  0  0  0  0  0  0  0  0  0  0  # atno 6908 bound_to 6896
  150.6924  134.4138  159.5218 H   0  0  0  0  0  0  0  0  0  0  0  0  # atno 6909 bound_to 6896
  145.2064  139.2927  143.4291 H   0  0  0  0  0  0  0  0  0  0  0  0  # atno 7974 bound_to 7965
  154.4153  140.1184  156.5262 H   0  0  0  0  0  0  0  0  0  0  0  0  # atno 8008 bound_to 7997
  155.6652  140.3496  155.4778 H   0  0  0  0  0  0  0  0  0  0  0  0  # atno 8009 bound_to 7997
  155.9680  140.1136  157.0828 H   0  0  0  0  0  0  0  0  0  0  0  0  # atno 8010 bound_to 7997
  140.0933  144.4969  150.7085 H   0  0  0  0  0  0  0  0  0  0  0  0  # atno 10167 bound_to 10162
  157.6363  130.9442  150.0556 H   0  0  0  0  0  0  0  0  0  0  0  0  # atno 10718 bound_to 10713
  153.1150  135.6706  153.9434 H   0  0  0  0  0  0  0  0  0  0  0  0  # atno 10763 bound_to 10752
  153.8966  135.3041  155.3449 H   0  0  0  0  0  0  0  0  0  0  0  0  # atno 10764 bound_to 10752
  154.7567  135.5008  153.9466 H   0  0  0  0  0  0  0  0  0  0  0  0  # atno 10765 bound_to 10752
  140.1606  134.8612  157.2569 H   0  0  0  0  0  0  0  0  0  0  0  0  # atno 11005 bound_to 11000
  146.3407  140.2326  142.8593 LP  0  0  0  0  0  0  0  0  0  0  0  0  # atno 17320 bound_to 7965
  144.9898  140.8536  143.5346 LP  0  0  0  0  0  0  0  0  0  0  0  0  # atno 17321 bound_to 7965
  140.7017  143.2439  151.4845 LP  0  0  0  0  0  0  0  0  0  0  0  0  # atno 17342 bound_to 10162
  139.5712  144.1923  152.1839 LP  0  0  0  0  0  0  0  0  0  0  0  0  # atno 17343 bound_to 10162
  156.1604  130.3644  149.9307 LP  0  0  0  0  0  0  0  0  0  0  0  0  # atno 17370 bound_to 10713
  156.7306  130.9042  151.3625 LP  0  0  0  0  0  0  0  0  0  0  0  0  # atno 17371 bound_to 10713
  140.2494  134.3701  155.7448 LP  0  0  0  0  0  0  0  0  0  0  0  0  # atno 17394 bound_to 11000
  141.2209  133.7308  156.8912 LP  0  0  0  0  0  0  0  0  0  0  0  0  # atno 17395 bound_to 11000

$$$$
