AV-unprocessed.smi:1433|AV-procd|sdf|5843|dock6
  -GOLD-   22720 5503D 1   1.00000     0.00000
 Structure written by MMmdl.
 45 46  0  0  0  0  0  0  0  0  2 V2000
  146.3451  132.2785  151.7461 C   0  0  0  0  0  0  0  0  0  0  0  0
  146.3850  133.8049  151.8822 C   0  0  2  0  0  0  0  0  0  0  0  0
  146.7625  134.2474  153.3058 C   0  0  0  0  0  0  0  0  0  0  0  0
  146.7299  135.7285  153.4315 N   0  3  2  0  0  0  0  0  0  0  0  0
  147.2450  136.2003  154.7587 C   0  0  1  0  0  0  0  0  0  0  0  0
  146.4183  135.5672  155.9017 C   0  0  0  0  0  0  0  0  0  0  0  0
  148.7617  135.9360  154.9788 C   0  0  0  0  0  0  0  0  0  0  0  0
  149.5826  137.1177  154.7366 N   0  0  0  0  0  0  0  0  0  0  0  0
  150.9053  137.1961  154.9496 C   0  0  0  0  0  0  0  0  0  0  0  0
  151.5699  136.2800  155.4334 O   0  0  0  0  0  0  0  0  0  0  0  0
  151.5844  138.5014  154.5347 C   0  0  0  0  0  0  0  0  0  0  0  0
  151.0599  139.6210  155.2968 N   0  0  0  0  0  0  0  0  0  0  0  0
  151.1416  139.8450  156.6554 C   0  0  0  0  0  0  0  0  0  0  0  0
  150.5170  141.0323  156.9095 C   0  0  0  0  0  0  0  0  0  0  0  0
  150.0785  141.4654  155.6270 C   0  0  0  0  0  0  0  0  0  0  0  0
  150.4078  140.6208  154.6632 N   0  0  0  0  0  0  0  0  0  0  0  0
  145.3823  136.2268  153.0409 C   0  0  0  0  0  0  0  0  0  0  0  0
  144.9676  135.7218  151.6437 C   0  0  1  0  0  0  0  0  0  0  0  0
  145.6982  136.4332  150.4903 C   0  0  0  0  0  0  0  0  0  0  0  0
  145.0906  134.3039  151.5653 O   0  0  0  0  0  0  0  0  0  0  0  0
  147.3173  131.8384  151.9697 H   0  0  0  0  0  0  0  0  0  0  0  0
  146.0740  131.9849  150.7317 H   0  0  0  0  0  0  0  0  0  0  0  0
  145.6143  131.8396  152.4260 H   0  0  0  0  0  0  0  0  0  0  0  0
  147.1173  134.1876  151.1712 H   0  0  0  0  0  0  0  0  0  0  0  0
  146.0738  133.8073  154.0293 H   0  0  0  0  0  0  0  0  0  0  0  0
  147.7517  133.8582  153.5397 H   0  0  0  0  0  0  0  0  0  0  0  0
  147.1015  137.2816  154.7941 H   0  0  0  0  0  0  0  0  0  0  0  0
  146.7257  135.9389  156.8794 H   0  0  0  0  0  0  0  0  0  0  0  0
  146.5318  134.4828  155.9125 H   0  0  0  0  0  0  0  0  0  0  0  0
  145.3547  135.7847  155.8215 H   0  0  0  0  0  0  0  0  0  0  0  0
  148.9414  135.6091  156.0035 H   0  0  0  0  0  0  0  0  0  0  0  0
  149.1294  135.1445  154.3244 H   0  0  0  0  0  0  0  0  0  0  0  0
  149.1208  137.9225  154.3368 H   0  0  0  0  0  0  0  0  0  0  0  0
  152.6629  138.4291  154.6841 H   0  0  0  0  0  0  0  0  0  0  0  0
  151.4179  138.6902  153.4733 H   0  0  0  0  0  0  0  0  0  0  0  0
  151.6334  139.1495  157.3195 H   0  0  0  0  0  0  0  0  0  0  0  0
  150.3911  141.5170  157.8663 H   0  0  0  0  0  0  0  0  0  0  0  0
  149.5355  142.3628  155.3696 H   0  0  0  0  0  0  0  0  0  0  0  0
  144.6535  135.8973  153.7833 H   0  0  0  0  0  0  0  0  0  0  0  0
  145.3534  137.3158  153.0205 H   0  0  0  0  0  0  0  0  0  0  0  0
  143.9058  135.9365  151.5185 H   0  0  0  0  0  0  0  0  0  0  0  0
  145.4714  137.4996  150.4882 H   0  0  0  0  0  0  0  0  0  0  0  0
  145.3869  136.0300  149.5263 H   0  0  0  0  0  0  0  0  0  0  0  0
  146.7810  136.3345  150.5605 H   0  0  0  0  0  0  0  0  0  0  0  0
  147.3668  136.0968  152.7395 H   0  0  0  0  0  0  0  0  0  0  0  0
  1  2  1  0  0  0  0
  1 21  1  0  0  0  0
  1 22  1  0  0  0  0
  1 23  1  0  0  0  0
  2 20  1  0  0  0  0
  2  3  1  0  0  0  0
  2 24  1  0  0  0  0
  3  4  1  0  0  0  0
  3 25  1  0  0  0  0
  3 26  1  0  0  0  0
  4  5  1  0  0  0  0
  4 17  1  0  0  0  0
  4 45  1  0  0  0  0
  5  6  1  0  0  0  0
  5  7  1  0  0  0  0
  5 27  1  0  0  0  0
  6 28  1  0  0  0  0
  6 29  1  0  0  0  0
  6 30  1  0  0  0  0
  7  8  1  0  0  0  0
  7 31  1  0  0  0  0
  7 32  1  0  0  0  0
  8  9  1  0  0  0  0
  8 33  1  0  0  0  0
  9 10  2  0  0  0  0
  9 11  1  0  0  0  0
 11 12  1  0  0  0  0
 11 34  1  0  0  0  0
 11 35  1  0  0  0  0
 12 16  1  0  0  0  0
 12 13  1  0  0  0  0
 13 14  2  0  0  0  0
 13 36  1  0  0  0  0
 14 15  1  0  0  0  0
 14 37  1  0  0  0  0
 15 16  2  0  0  0  0
 15 38  1  0  0  0  0
 17 18  1  0  0  0  0
 17 39  1  0  0  0  0
 17 40  1  0  0  0  0
 18 19  1  0  0  0  0
 18 20  1  0  0  0  0
 18 41  1  0  0  0  0
 19 42  1  0  0  0  0
 19 43  1  0  0  0  0
 19 44  1  0  0  0  0
M  CHG  1   4   1
M  END
> <s_m_source_file>
AV-unprocessed.smi

> <i_m_source_file_index>
1433

> <i_lp_mmshare_version>
43012

> <i_f3d_flags>
0

> <s_epik_input>
W0NIM11bQ0BASF0xW0NIMl1OKFtDSDJdW0NASF0oTzEpW0NIM10pW0NASF0oW0NIM10pW0NIMl1bTkhdQyg9TylbQ0gyXW4yW2NIXVtjSF1bY0hdbjI=

> <s_epik_cmdline>
J2VwaWtfcHl0aG9uJywgJy1waCcsICc3LjAnLCAnLXRuJywgJzgnLCAnLW1hJywgJzIwMCcsICctbWV0YWxfYmluZGluZycsICctaW1hZScsICc8aW5maWxlLm1hZT4nLCAnLW9tYWUnLCAnPG91dGZpbGUubWFlPic=

> <r_lp_tautomer_probability>
1

> <r_epik_Ionization_Penalty>
0.748405

> <r_epik_Ionization_Penalty_Charging>
0.748396

> <r_epik_Ionization_Penalty_Neutral>
8.54426e-06

> <r_epik_State_Penalty>
0.775162

> <r_epik_Charging_Adjusted_Penalty>
1.52356

> <i_epik_Tot_Q>
1

> <i_epik_Tot_abs_Q>
1

> <r_epik_Metal_State_Penalty>
0.775167

> <b_epik_Metal_Only>
0

> <s_lp_Force_Field>
OPLS_2005

> <r_lp_Energy>
20.9037

> <b_lp_Chiralities_Consistent>
1

> <s_lp_Variant>
AV-unprocessed.smi:1433-9

> <Gold.Version>
5.8.1

> <Gold.Id.Protein>
6NUR|6NUR_protein|mol2

> <Gold.PLP.Fitness>
42.8071

> <Gold.PLP.PLP>
-29.3033

> <Gold.PLP.part.hbond>
-3.9343

> <Gold.PLP.part.metal>
0.0000

> <Gold.PLP.part.buried>
-0.6075

> <Gold.PLP.part.nonpolar>
-24.9345

> <Gold.PLP.part.repulsive>
0.3274

> <Gold.PLP.ligand.clash>
0.0000

> <Gold.PLP.ligand.torsion>
0.7026

> <Gold.PLP.Chemscore.Hbond>
3.9920

> <Gold.PLP.Chemscore.CHOScore>
0.9474

> <Gold.PLP.Chemscore.Metal>
0.0000

> <Gold.Chemscore.Hbonds>
donor molecule, donor type, donor heavy atom, donor atom, acceptor molecule, acceptor atom, score
      L1  H     4    45       P1  7948  2.00
      P1  H  7989  7998       L1    16  0.73
      P1  H 10752 10765       L1    10  1.00
      L1  C    15    38       P1  8028  1.00

> <Gold.PLP.Chemscore.Internal.Correction>
0.0909

> <Gold.Rescore>
     Score         DG    S(hbond)    S(metal)    S(lipo)     H(rot)  DE(clash)    DE(int)     intcor
     16.58     -17.49       2.82        0.00      63.10       1.87       0.20       0.71       ----

> <Gold.Chemscore.Fitness>
16.5808

> <Gold.Chemscore.DG>
-17.4932

> <Gold.Chemscore.ZeroCoef>
-5.4800

> <Gold.Chemscore.Hbond>
2.8162

> <Gold.Chemscore.Metal>
0.0000

> <Gold.Chemscore.Lipo>
63.1031

> <Gold.Chemscore.Internal_Hbond>
0.0000

> <Gold.Chemscore.DEClash>
0.2027

> <Gold.Chemscore.DEInternal>
0.7096

> <Gold.Chemscore.Rot>
1.8657

> <Gold.Chemscore.Internal.Correction>
   9.000000E+99

> <Gold.Chemscore.Hbonds>
donor molecule, donor type, donor heavy atom, donor atom, acceptor molecule, acceptor atom, score
      L1  H     4    45       P1  7948  0.98
      P1  H  7989  7998       L1    16  0.11
      P1  H 10752 10765       L1    10  1.00

> <Gold.Chemscore.Hbond.Weighted>
-9.4062

> <Gold.Chemscore.Metal.Weighted>
-0.0000

> <Gold.Chemscore.Lipo.Weighted>
-7.3831

> <Gold.Chemscore.Internal_Hbond.Weighted>
0.0000

> <Gold.Chemscore.DEClash.Weighted>
0.2027

> <Gold.Chemscore.DEInternal.Weighted>
0.7096

> <Gold.Chemscore.Rot.Weighted>
4.7761

> <Gold.Chemscore.Internal.Correction.Weighted>
   9.000000E+99

> <Gold.Protein.RotatedTorsions>
[ 6907 6896 6895 6894 ] final   -2.56 input  -60.11 | X-H torsion
[ 7974 7965 7964 7962 ] final  -69.71 input  175.53 | X-H torsion
[ 8008 7997 7996 7995 ] final  -26.12 input   59.86 | X-H torsion
[ 10167 10162 10161 10158 ] final   94.10 input  -65.29 | X-H torsion
[ 10718 10713 10712 10709 ] final   49.70 input   66.30 | X-H torsion
[ 10763 10752 10751 10750 ] final -166.06 input  -60.55 | X-H torsion
[ 11005 11000 10999 10996 ] final  -23.15 input  -57.11 | X-H torsion

> <Gold.Protein.ActiveResidues>
 VAL166  LYS551  ARG553  GLY616  TRP617  ASP618  TYR619  PRO620  LYS621  CYS622 
 ASP623  PHE694  ASN695  SER759  ASP760  ASP761  ALA762  ILE779  LEU786  VAL792 
 PHE793  MET794  SER795  GLU796  ALA797  LYS798  CYS799  TRP800  GLU811  SER814 

> <Gold.Protein.RotatedAtoms>
  151.5280  135.1068  159.9895 H   0  0  0  0  0  0  0  0  0  0  0  0  # atno 6907 bound_to 6896
  152.4591  133.7781  159.6846 H   0  0  0  0  0  0  0  0  0  0  0  0  # atno 6908 bound_to 6896
  150.8546  133.7669  159.3038 H   0  0  0  0  0  0  0  0  0  0  0  0  # atno 6909 bound_to 6896
  145.7002  140.9119  143.0735 H   0  0  0  0  0  0  0  0  0  0  0  0  # atno 7974 bound_to 7965
  154.4441  140.1908  156.0725 H   0  0  0  0  0  0  0  0  0  0  0  0  # atno 8008 bound_to 7997
  156.0500  140.3309  155.7314 H   0  0  0  0  0  0  0  0  0  0  0  0  # atno 8009 bound_to 7997
  155.5571  140.0600  157.2828 H   0  0  0  0  0  0  0  0  0  0  0  0  # atno 8010 bound_to 7997
  139.8116  144.6771  150.9633 H   0  0  0  0  0  0  0  0  0  0  0  0  # atno 10167 bound_to 10162
  157.4813  130.8317  149.8096 H   0  0  0  0  0  0  0  0  0  0  0  0  # atno 10718 bound_to 10713
  154.6871  135.2964  154.9532 H   0  0  0  0  0  0  0  0  0  0  0  0  # atno 10763 bound_to 10752
  154.0508  135.6645  153.4804 H   0  0  0  0  0  0  0  0  0  0  0  0  # atno 10764 bound_to 10752
  153.0586  135.5129  154.7944 H   0  0  0  0  0  0  0  0  0  0  0  0  # atno 10765 bound_to 10752
  140.8724  133.7711  156.0203 H   0  0  0  0  0  0  0  0  0  0  0  0  # atno 11005 bound_to 11000
  144.6971  139.8938  143.7454 LP  0  0  0  0  0  0  0  0  0  0  0  0  # atno 17320 bound_to 7965
  146.0804  139.3792  143.0468 LP  0  0  0  0  0  0  0  0  0  0  0  0  # atno 17321 bound_to 7965
  140.7817  143.4179  151.0887 LP  0  0  0  0  0  0  0  0  0  0  0  0  # atno 17342 bound_to 10162
  139.7846  143.8306  152.3143 LP  0  0  0  0  0  0  0  0  0  0  0  0  # atno 17343 bound_to 10162
  156.0123  130.3828  150.2224 LP  0  0  0  0  0  0  0  0  0  0  0  0  # atno 17370 bound_to 10713
  157.0410  131.0035  151.3283 LP  0  0  0  0  0  0  0  0  0  0  0  0  # atno 17371 bound_to 10713
  140.8557  134.2901  157.5256 LP  0  0  0  0  0  0  0  0  0  0  0  0  # atno 17394 bound_to 11000
  139.8713  134.9491  156.4017 LP  0  0  0  0  0  0  0  0  0  0  0  0  # atno 17395 bound_to 11000

$$$$
