AV-unprocessed.smi:2727|AV-procd|sdf|10524|dock6
  -GOLD-   2272014563D 1   1.00000     0.00000
 Structure written by MMmdl.
 39 40  0  0  0  0  0  0  0  0  2 V2000
  149.1042  136.7898  157.8600 O   0  0  0  0  0  0  0  0  0  0  0  0
  149.8942  136.4859  158.7569 C   0  0  0  0  0  0  0  0  0  0  0  0
  151.1269  137.0104  158.7641 N   0  0  0  0  0  0  0  0  0  0  0  0
  151.6493  137.9469  157.7735 C   0  0  0  0  0  0  0  0  0  0  0  0
  151.7503  139.3769  158.3412 C   0  0  0  0  0  0  0  0  0  0  0  0
  153.0230  139.6494  159.1686 C   0  0  0  0  0  0  0  0  0  0  0  0
  153.4832  138.7449  159.8677 O   0  0  0  0  0  0  0  0  0  0  0  0
  153.6055  140.8727  159.1102 N   0  0  0  0  0  0  0  0  0  0  0  0
  154.7628  141.2092  159.9488 C   0  0  0  0  0  0  0  0  0  0  0  0
  154.3414  141.6259  161.3728 C   0  0  0  0  0  0  0  0  0  0  0  0
  153.0167  142.4138  161.4810 C   0  0  0  0  0  0  0  0  0  0  0  0
  152.7903  143.4787  160.3891 C   0  0  0  0  0  0  0  0  0  0  0  0
  152.1856  142.9137  159.0858 C   0  0  0  0  0  0  0  0  0  0  0  0
  153.1320  141.9956  158.2890 C   0  0  0  0  0  0  0  0  0  0  0  0
  149.6539  135.6442  159.7875 N   0  5  0  0  0  0  0  0  0  0  0  0
  148.6573  135.9087  160.6478 C   0  0  0  0  0  0  0  0  0  0  0  0
  148.1087  137.1026  160.8805 N   0  0  0  0  0  0  0  0  0  0  0  0
  147.1330  136.8905  161.8423 C   0  0  0  0  0  0  0  0  0  0  0  0
  147.1387  135.5596  162.1597 C   0  0  0  0  0  0  0  0  0  0  0  0
  148.0985  134.9306  161.4158 O   0  0  0  0  0  0  0  0  0  0  0  0
  151.7478  136.7337  159.5102 H   0  0  0  0  0  0  0  0  0  0  0  0
  152.6227  137.6040  157.4186 H   0  0  0  0  0  0  0  0  0  0  0  0
  150.9855  137.9496  156.9078 H   0  0  0  0  0  0  0  0  0  0  0  0
  151.7241  140.0935  157.5199 H   0  0  0  0  0  0  0  0  0  0  0  0
  150.8600  139.5568  158.9425 H   0  0  0  0  0  0  0  0  0  0  0  0
  155.4684  140.3779  159.9947 H   0  0  0  0  0  0  0  0  0  0  0  0
  155.3314  142.0248  159.5010 H   0  0  0  0  0  0  0  0  0  0  0  0
  154.2575  140.7349  161.9962 H   0  0  0  0  0  0  0  0  0  0  0  0
  155.1484  142.2140  161.8106 H   0  0  0  0  0  0  0  0  0  0  0  0
  152.1756  141.7188  161.4839 H   0  0  0  0  0  0  0  0  0  0  0  0
  152.9930  142.8967  162.4584 H   0  0  0  0  0  0  0  0  0  0  0  0
  152.0924  144.2194  160.7807 H   0  0  0  0  0  0  0  0  0  0  0  0
  153.7144  144.0205  160.1842 H   0  0  0  0  0  0  0  0  0  0  0  0
  151.2610  142.3847  159.3182 H   0  0  0  0  0  0  0  0  0  0  0  0
  151.8947  143.7466  158.4449 H   0  0  0  0  0  0  0  0  0  0  0  0
  153.9768  142.5802  157.9231 H   0  0  0  0  0  0  0  0  0  0  0  0
  152.6406  141.6467  157.3807 H   0  0  0  0  0  0  0  0  0  0  0  0
  146.5205  137.6949  162.2215 H   0  0  0  0  0  0  0  0  0  0  0  0
  146.5700  134.9451  162.8412 H   0  0  0  0  0  0  0  0  0  0  0  0
  1  2  2  0  0  0  0
  2  3  1  0  0  0  0
  2 15  1  0  0  0  0
  3  4  1  0  0  0  0
  3 21  1  0  0  0  0
  4  5  1  0  0  0  0
  4 22  1  0  0  0  0
  4 23  1  0  0  0  0
  5  6  1  0  0  0  0
  5 24  1  0  0  0  0
  5 25  1  0  0  0  0
  6  7  2  0  0  0  0
  6  8  1  0  0  0  0
  8 14  1  0  0  0  0
  8  9  1  0  0  0  0
  9 10  1  0  0  0  0
  9 26  1  0  0  0  0
  9 27  1  0  0  0  0
 10 11  1  0  0  0  0
 10 28  1  0  0  0  0
 10 29  1  0  0  0  0
 11 12  1  0  0  0  0
 11 30  1  0  0  0  0
 11 31  1  0  0  0  0
 12 13  1  0  0  0  0
 12 32  1  0  0  0  0
 12 33  1  0  0  0  0
 13 14  1  0  0  0  0
 13 34  1  0  0  0  0
 13 35  1  0  0  0  0
 14 36  1  0  0  0  0
 14 37  1  0  0  0  0
 15 16  1  0  0  0  0
 16 20  1  0  0  0  0
 16 17  2  0  0  0  0
 17 18  1  0  0  0  0
 18 19  2  0  0  0  0
 18 38  1  0  0  0  0
 19 20  1  0  0  0  0
 19 39  1  0  0  0  0
M  CHG  1  15  -1
M  END
> <s_m_source_file>
AV-unprocessed.smi

> <i_m_source_file_index>
2727

> <i_lp_mmshare_version>
43012

> <i_f3d_flags>
0

> <s_epik_input>
bzFbY0hdW2NIXW5jMVtOSF1DKD1PKVtOSF1bQ0gyXVtDSDJdQyg9TylOMltDSDJdW0NIMl1bQ0gyXVtDSDJdW0NIMl1bQ0gyXTI=

> <s_epik_cmdline>
J2VwaWtfcHl0aG9uJywgJy1waCcsICc3LjAnLCAnLXRuJywgJzgnLCAnLW1hJywgJzIwMCcsICctbWV0YWxfYmluZGluZycsICctaW1hZScsICc8aW5maWxlLm1hZT4nLCAnLW9tYWUnLCAnPG91dGZpbGUubWFlPic=

> <r_lp_tautomer_probability>
0.785861

> <r_epik_Ionization_Penalty>
9.14426

> <r_epik_Ionization_Penalty_Charging>
6.65642

> <r_epik_Ionization_Penalty_Neutral>
2.48784

> <r_epik_State_Penalty>
6.67734

> <r_epik_Charging_Adjusted_Penalty>
13.3338

> <i_epik_Tot_Q>
-1

> <i_epik_Tot_abs_Q>
1

> <r_epik_Metal_State_Penalty>
2.58025

> <b_epik_Metal_Only>
1

> <s_lp_Force_Field>
OPLS_2005

> <r_lp_Energy>
17.6318

> <b_lp_Chiralities_Consistent>
1

> <s_lp_Variant>
AV-unprocessed.smi:2727-4

> <Gold.Version>
5.8.1

> <Gold.Id.Protein>
6NUR|6NUR_protein|mol2

> <Gold.PLP.Fitness>
49.8059

> <Gold.PLP.PLP>
-40.8516

> <Gold.PLP.part.hbond>
-3.0000

> <Gold.PLP.part.metal>
0.0000

> <Gold.PLP.part.buried>
-4.7411

> <Gold.PLP.part.nonpolar>
-33.7622

> <Gold.PLP.part.repulsive>
0.1631

> <Gold.PLP.ligand.clash>
0.0000

> <Gold.PLP.ligand.torsion>
1.2077

> <Gold.PLP.Chemscore.Hbond>
3.7745

> <Gold.PLP.Chemscore.CHOScore>
0.0000

> <Gold.PLP.Chemscore.Metal>
0.0000

> <Gold.Chemscore.Hbonds>
donor molecule, donor type, donor heavy atom, donor atom, acceptor molecule, acceptor atom, score
      P1  H  6896  6908       L1    15  1.40
      P1  H  6931  6943       L1    17  0.66

> <Gold.PLP.Chemscore.Internal.Correction>
0.0462

> <Gold.Rescore>
     Score         DG    S(hbond)    S(metal)    S(lipo)     H(rot)  DE(clash)    DE(int)     intcor
     16.10     -17.32       1.60        0.00      92.26       1.67       0.07       1.16       ----

> <Gold.Chemscore.Fitness>
16.0995

> <Gold.Chemscore.DG>
-17.3232

> <Gold.Chemscore.ZeroCoef>
-5.4800

> <Gold.Chemscore.Hbond>
1.5975

> <Gold.Chemscore.Metal>
0.0000

> <Gold.Chemscore.Lipo>
92.2585

> <Gold.Chemscore.Internal_Hbond>
0.0000

> <Gold.Chemscore.DEClash>
0.0673

> <Gold.Chemscore.DEInternal>
1.1563

> <Gold.Chemscore.Rot>
1.6745

> <Gold.Chemscore.Internal.Correction>
   9.000000E+99

> <Gold.Chemscore.Hbonds>
donor molecule, donor type, donor heavy atom, donor atom, acceptor molecule, acceptor atom, score
      P1  H  6896  6908       L1    15  0.17
      P1  H  6931  6943       L1    17  0.06

> <Gold.Chemscore.Hbond.Weighted>
-5.3356

> <Gold.Chemscore.Metal.Weighted>
-0.0000

> <Gold.Chemscore.Lipo.Weighted>
-10.7943

> <Gold.Chemscore.Internal_Hbond.Weighted>
0.0000

> <Gold.Chemscore.DEClash.Weighted>
0.0673

> <Gold.Chemscore.DEInternal.Weighted>
1.1563

> <Gold.Chemscore.Rot.Weighted>
4.2866

> <Gold.Chemscore.Internal.Correction.Weighted>
   9.000000E+99

> <Gold.Protein.RotatedTorsions>
[ 6907 6896 6895 6894 ] final -174.56 input  -60.11 | X-H torsion
[ 7974 7965 7964 7962 ] final  -73.57 input  175.53 | X-H torsion
[ 8008 7997 7996 7995 ] final -170.54 input   59.86 | X-H torsion
[ 10167 10162 10161 10158 ] final  144.75 input  -65.29 | X-H torsion
[ 10718 10713 10712 10709 ] final    0.29 input   66.30 | X-H torsion
[ 10763 10752 10751 10750 ] final -165.77 input  -60.55 | X-H torsion
[ 11005 11000 10999 10996 ] final   48.23 input  -57.11 | X-H torsion

> <Gold.Protein.ActiveResidues>
 VAL166  LYS551  ARG553  GLY616  TRP617  ASP618  TYR619  PRO620  LYS621  CYS622 
 ASP623  PHE694  ASN695  SER759  ASP760  ASP761  ALA762  ILE779  LEU786  VAL792 
 PHE793  MET794  SER795  GLU796  ALA797  LYS798  CYS799  TRP800  GLU811  SER814 

> <Gold.Protein.RotatedAtoms>
  151.5744  133.3385  159.2995 H   0  0  0  0  0  0  0  0  0  0  0  0  # atno 6907 bound_to 6896
  150.8349  134.7621  159.6896 H   0  0  0  0  0  0  0  0  0  0  0  0  # atno 6908 bound_to 6896
  152.4427  134.5565  159.9933 H   0  0  0  0  0  0  0  0  0  0  0  0  # atno 6909 bound_to 6896
  145.6504  140.9284  143.0988 H   0  0  0  0  0  0  0  0  0  0  0  0  # atno 7974 bound_to 7965
  155.9197  140.1072  157.1216 H   0  0  0  0  0  0  0  0  0  0  0  0  # atno 8008 bound_to 7997
  154.4052  140.1258  156.4729 H   0  0  0  0  0  0  0  0  0  0  0  0  # atno 8009 bound_to 7997
  155.7210  140.3470  155.5018 H   0  0  0  0  0  0  0  0  0  0  0  0  # atno 8010 bound_to 7997
  139.4940  144.5950  151.6601 H   0  0  0  0  0  0  0  0  0  0  0  0  # atno 10167 bound_to 10162
  156.8312  130.5489  149.5686 H   0  0  0  0  0  0  0  0  0  0  0  0  # atno 10718 bound_to 10713
  154.6899  135.2969  154.9495 H   0  0  0  0  0  0  0  0  0  0  0  0  # atno 10763 bound_to 10752
  154.0462  135.6651  153.4799 H   0  0  0  0  0  0  0  0  0  0  0  0  # atno 10764 bound_to 10752
  153.0604  135.5119  154.7985 H   0  0  0  0  0  0  0  0  0  0  0  0  # atno 10765 bound_to 10752
  140.1209  134.4831  155.8598 H   0  0  0  0  0  0  0  0  0  0  0  0  # atno 11005 bound_to 11000
  144.7124  139.8319  143.7410 LP  0  0  0  0  0  0  0  0  0  0  0  0  # atno 17320 bound_to 7965
  146.1208  139.4226  143.0229 LP  0  0  0  0  0  0  0  0  0  0  0  0  # atno 17321 bound_to 7965
  140.5586  144.0306  150.6159 LP  0  0  0  0  0  0  0  0  0  0  0  0  # atno 17342 bound_to 10162
  140.3384  143.3034  152.0614 LP  0  0  0  0  0  0  0  0  0  0  0  0  # atno 17343 bound_to 10162
  156.0933  130.5913  150.9770 LP  0  0  0  0  0  0  0  0  0  0  0  0  # atno 17370 bound_to 10713
  157.6405  131.0911  150.8260 LP  0  0  0  0  0  0  0  0  0  0  0  0  # atno 17371 bound_to 10713
  141.2151  133.6760  156.6886 LP  0  0  0  0  0  0  0  0  0  0  0  0  # atno 17394 bound_to 11000
  140.2966  134.8197  157.4062 LP  0  0  0  0  0  0  0  0  0  0  0  0  # atno 17395 bound_to 11000

$$$$
