AV-unprocessed.smi:50|AV-procd|sdf|493|dock5
  -GOLD-   2262016353D 1   1.00000     0.00000
 Structure written by MMmdl.
 43 44  0  0  0  0  0  0  0  0  1 V2000
  146.3389  134.2878  151.0598 C   0  0  0  0  0  0  0  0  0  0  0  0
  147.5425  133.6648  151.7885 C   0  0  0  0  0  0  0  0  0  0  0  0
  147.4760  132.1264  151.7137 C   0  0  0  0  0  0  0  0  0  0  0  0
  147.7109  134.2390  153.2231 C   0  0  2  0  0  0  0  0  0  0  0  0
  147.5557  135.6945  153.2235 N   0  0  0  0  0  0  0  0  0  0  0  0
  148.9915  133.7747  153.9438 C   0  0  0  0  0  0  0  0  0  0  0  0
  149.3554  132.5991  153.9874 O   0  0  0  0  0  0  0  0  0  0  0  0
  149.6543  134.8101  154.4937 O   0  0  0  0  0  0  0  0  0  0  0  0
  150.8588  134.5770  155.2040 C   0  0  0  0  0  0  0  0  0  0  0  0
  151.2513  135.8477  155.9621 C   0  0  0  0  0  0  0  0  0  0  0  0
  152.0009  136.6824  155.0948 O   0  0  0  0  0  0  0  0  0  0  0  0
  151.9979  138.0161  155.4823 C   0  0  0  0  0  0  0  0  0  0  0  0
  150.8171  138.6342  154.9122 N   0  0  0  0  0  0  0  0  0  0  0  0
  149.9502  138.1266  153.9769 C   0  0  0  0  0  0  0  0  0  0  0  0
  148.9775  138.9363  153.6624 N   0  0  0  0  0  0  0  0  0  0  0  0
  149.2110  140.0677  154.4392 C   0  0  0  0  0  0  0  0  0  0  0  0
  148.4767  141.2981  154.5263 C   0  0  0  0  0  0  0  0  0  0  0  0
  147.4590  141.6226  153.9183 O   0  0  0  0  0  0  0  0  0  0  0  0
  149.0520  142.1927  155.4379 N   0  0  0  0  0  0  0  0  0  0  0  0
  150.2024  141.9252  156.1766 C   0  0  0  0  0  0  0  0  0  0  0  0
  150.6232  142.8897  157.0055 N   0  0  0  0  0  0  0  0  0  0  0  0
  150.8774  140.7917  156.0962 N   0  0  0  0  0  0  0  0  0  0  0  0
  150.3418  139.8924  155.2131 C   0  0  0  0  0  0  0  0  0  0  0  0
  146.8724  133.8550  153.8049 H   0  0  0  0  0  0  0  0  0  0  0  0
  148.5920  143.0836  155.5547 H   0  0  0  0  0  0  0  0  0  0  0  0
  145.3949  134.0074  151.5276 H   0  0  0  0  0  0  0  0  0  0  0  0
  146.2996  133.9620  150.0200 H   0  0  0  0  0  0  0  0  0  0  0  0
  146.3997  135.3764  151.0589 H   0  0  0  0  0  0  0  0  0  0  0  0
  148.4263  133.9668  151.2242 H   0  0  0  0  0  0  0  0  0  0  0  0
  146.5577  131.7362  152.1530 H   0  0  0  0  0  0  0  0  0  0  0  0
  148.3178  131.6648  152.2302 H   0  0  0  0  0  0  0  0  0  0  0  0
  147.5061  131.7883  150.6777 H   0  0  0  0  0  0  0  0  0  0  0  0
  147.7478  136.0877  154.1336 H   0  0  0  0  0  0  0  0  0  0  0  0
  148.2005  136.1342  152.5824 H   0  0  0  0  0  0  0  0  0  0  0  0
  150.7253  133.7494  155.9023 H   0  0  0  0  0  0  0  0  0  0  0  0
  151.6486  134.2968  154.5056 H   0  0  0  0  0  0  0  0  0  0  0  0
  150.3563  136.3702  156.3038 H   0  0  0  0  0  0  0  0  0  0  0  0
  151.8423  135.5893  156.8421 H   0  0  0  0  0  0  0  0  0  0  0  0
  151.9457  138.1072  156.5689 H   0  0  0  0  0  0  0  0  0  0  0  0
  152.8883  138.5329  155.1195 H   0  0  0  0  0  0  0  0  0  0  0  0
  150.0607  137.1461  153.5368 H   0  0  0  0  0  0  0  0  0  0  0  0
  150.1086  143.7564  157.0680 H   0  0  0  0  0  0  0  0  0  0  0  0
  151.4513  142.7535  157.5670 H   0  0  0  0  0  0  0  0  0  0  0  0
  1  2  1  0  0  0  0
  1 26  1  0  0  0  0
  1 27  1  0  0  0  0
  1 28  1  0  0  0  0
  2  3  1  0  0  0  0
  2  4  1  0  0  0  0
  2 29  1  0  0  0  0
  3 30  1  0  0  0  0
  3 31  1  0  0  0  0
  3 32  1  0  0  0  0
  4 24  1  0  0  0  0
  4  5  1  0  0  0  0
  4  6  1  0  0  0  0
  5 33  1  0  0  0  0
  5 34  1  0  0  0  0
  6  7  2  0  0  0  0
  6  8  1  0  0  0  0
  8  9  1  0  0  0  0
  9 10  1  0  0  0  0
  9 35  1  0  0  0  0
  9 36  1  0  0  0  0
 10 11  1  0  0  0  0
 10 37  1  0  0  0  0
 10 38  1  0  0  0  0
 11 12  1  0  0  0  0
 12 13  1  0  0  0  0
 12 39  1  0  0  0  0
 12 40  1  0  0  0  0
 13 23  1  0  0  0  0
 13 14  1  0  0  0  0
 14 15  2  0  0  0  0
 14 41  1  0  0  0  0
 15 16  1  0  0  0  0
 16 23  2  0  0  0  0
 16 17  1  0  0  0  0
 17 18  2  0  0  0  0
 17 19  1  0  0  0  0
 19 25  1  0  0  0  0
 19 20  1  0  0  0  0
 20 21  1  0  0  0  0
 20 22  2  0  0  0  0
 21 42  1  0  0  0  0
 21 43  1  0  0  0  0
 22 23  1  0  0  0  0
M  END
> <s_m_source_file>
AV-unprocessed.smi

> <i_m_source_file_index>
50

> <i_lp_mmshare_version>
43012

> <i_f3d_flags>
0

> <s_epik_input>
W0NIM11bQ0hdKFtDSDNdKVtDQEhdKFtOSDJdKUMoPU8pT1tDSDJdW0NIMl1PW0NIMl1uKFtjSF1uMSljKGMxMiluYyhbTkgyXSlbbkhdYzI9Tw==

> <s_epik_cmdline>
J2VwaWtfcHl0aG9uJywgJy1waCcsICc3LjAnLCAnLXRuJywgJzgnLCAnLW1hJywgJzIwMCcsICctbWV0YWxfYmluZGluZycsICctaW1hZScsICc8aW5maWxlLm1hZT4nLCAnLW9tYWUnLCAnPG91dGZpbGUubWFlPic=

> <r_lp_tautomer_probability>
0.99994

> <r_epik_Ionization_Penalty>
0.704142

> <r_epik_Ionization_Penalty_Charging>
0.00148332

> <r_epik_Ionization_Penalty_Neutral>
0.702658

> <r_epik_State_Penalty>
0.725442

> <r_epik_Charging_Adjusted_Penalty>
0.726926

> <i_epik_Tot_Q>
0

> <i_epik_Tot_abs_Q>
0

> <r_epik_Metal_State_Penalty>
1.04557

> <b_epik_Metal_Only>
0

> <s_epik_Chemistry_Notes>
This compound has an ester and may undergo hydrolysis at high or low pH. This compound contains an acetal/aminal-like group ( X-CH(R)-Y where X, Y are N, S, or O) that may be acid/base labile, releasing an aldehyde.

> <s_lp_Force_Field>
OPLS_2005

> <r_lp_Energy>
11.3413

> <b_lp_Chiralities_Consistent>
1

> <s_lp_Variant>
AV-unprocessed.smi:50-3

> <Gold.Version>
5.8.1

> <Gold.Id.Protein>
6NUR|6NUR_protein|mol2

> <Gold.PLP.Fitness>
46.2403

> <Gold.PLP.PLP>
-33.4664

> <Gold.PLP.part.hbond>
-3.9752

> <Gold.PLP.part.metal>
0.0000

> <Gold.PLP.part.buried>
-4.2022

> <Gold.PLP.part.nonpolar>
-26.3547

> <Gold.PLP.part.repulsive>
2.0232

> <Gold.PLP.ligand.clash>
0.0000

> <Gold.PLP.ligand.torsion>
0.7813

> <Gold.PLP.Chemscore.Hbond>
3.7040

> <Gold.PLP.Chemscore.CHOScore>
0.9513

> <Gold.PLP.Chemscore.Metal>
0.0000

> <Gold.Chemscore.Hbonds>
donor molecule, donor type, donor heavy atom, donor atom, acceptor molecule, acceptor atom, score
      L1  H    19    25       P1  8028  0.86
      L1  H    21    42       P1  8028  0.54
      P1  H 10752 10765       L1    11  1.00
      L1  C    14    41       P1  7948  1.00
      L1  C    14    41       P1  7949  0.03

> <Gold.PLP.Chemscore.Internal.Correction>
0.3707

> <Gold.Rescore>
     Score         DG    S(hbond)    S(metal)    S(lipo)     H(rot)  DE(clash)    DE(int)     intcor
      5.92      -9.10       3.56        0.00      33.24       4.75       1.13       2.05       ----

> <Gold.Chemscore.Fitness>
5.9208

> <Gold.Chemscore.DG>
-9.1000

> <Gold.Chemscore.ZeroCoef>
-5.4800

> <Gold.Chemscore.Hbond>
3.5602

> <Gold.Chemscore.Metal>
0.0000

> <Gold.Chemscore.Lipo>
33.2420

> <Gold.Chemscore.Internal_Hbond>
0.0000

> <Gold.Chemscore.DEClash>
1.1263

> <Gold.Chemscore.DEInternal>
2.0529

> <Gold.Chemscore.Rot>
4.7501

> <Gold.Chemscore.Internal.Correction>
   9.000000E+99

> <Gold.Chemscore.Hbonds>
donor molecule, donor type, donor heavy atom, donor atom, acceptor molecule, acceptor atom, score
      L1  H     5    34       P1  7948  0.01
      L1  H    19    25       P1  8028  0.86
      L1  H    21    42       P1  8028  0.52
      P1  H 10752 10765       L1    11  0.23

> <Gold.Chemscore.Hbond.Weighted>
-11.8910

> <Gold.Chemscore.Metal.Weighted>
-0.0000

> <Gold.Chemscore.Lipo.Weighted>
-3.8893

> <Gold.Chemscore.Internal_Hbond.Weighted>
0.0000

> <Gold.Chemscore.DEClash.Weighted>
1.1263

> <Gold.Chemscore.DEInternal.Weighted>
2.0529

> <Gold.Chemscore.Rot.Weighted>
12.1603

> <Gold.Chemscore.Internal.Correction.Weighted>
   9.000000E+99

> <Gold.Protein.RotatedTorsions>
[ 6907 6896 6895 6894 ] final -154.17 input  -60.11 | X-H torsion
[ 7974 7965 7964 7962 ] final   79.97 input  175.53 | X-H torsion
[ 8008 7997 7996 7995 ] final  -61.21 input   59.86 | X-H torsion
[ 10167 10162 10161 10158 ] final -139.05 input  -65.29 | X-H torsion
[ 10718 10713 10712 10709 ] final -123.14 input   66.30 | X-H torsion
[ 10763 10752 10751 10750 ] final  170.88 input  -60.55 | X-H torsion
[ 11005 11000 10999 10996 ] final -119.33 input  -57.11 | X-H torsion

> <Gold.Protein.ActiveResidues>
 VAL166  LYS551  ARG553  GLY616  TRP617  ASP618  TYR619  PRO620  LYS621  CYS622 
 ASP623  PHE694  ASN695  SER759  ASP760  ASP761  ALA762  ILE779  LEU786  VAL792 
 PHE793  MET794  SER795  GLU796  ALA797  LYS798  CYS799  TRP800  GLU811  SER814 

> <Gold.Protein.RotatedAtoms>
  151.2534  133.4338  159.2612 H   0  0  0  0  0  0  0  0  0  0  0  0  # atno 6907 bound_to 6896
  151.0596  134.9728  159.8264 H   0  0  0  0  0  0  0  0  0  0  0  0  # atno 6908 bound_to 6896
  152.5396  134.2485  159.8942 H   0  0  0  0  0  0  0  0  0  0  0  0  # atno 6909 bound_to 6896
  145.6573  139.2462  143.1942 H   0  0  0  0  0  0  0  0  0  0  0  0  # atno 7974 bound_to 7965
  154.4437  140.1022  156.6395 H   0  0  0  0  0  0  0  0  0  0  0  0  # atno 8008 bound_to 7997
  155.5516  140.3486  155.4451 H   0  0  0  0  0  0  0  0  0  0  0  0  # atno 8009 bound_to 7997
  156.0524  140.1307  157.0024 H   0  0  0  0  0  0  0  0  0  0  0  0  # atno 8010 bound_to 7997
  139.8417  143.7313  152.2663 H   0  0  0  0  0  0  0  0  0  0  0  0  # atno 10167 bound_to 10162
  156.1477  130.6512  150.9867 H   0  0  0  0  0  0  0  0  0  0  0  0  # atno 10718 bound_to 10713
  154.4040  135.2755  155.2079 H   0  0  0  0  0  0  0  0  0  0  0  0  # atno 10763 bound_to 10752
  154.4093  135.6026  153.5946 H   0  0  0  0  0  0  0  0  0  0  0  0  # atno 10764 bound_to 10752
  152.9831  135.5945  154.4312 H   0  0  0  0  0  0  0  0  0  0  0  0  # atno 10765 bound_to 10752
  141.0223  134.0105  157.3264 H   0  0  0  0  0  0  0  0  0  0  0  0  # atno 11005 bound_to 11000
  146.1154  140.7376  142.9483 LP  0  0  0  0  0  0  0  0  0  0  0  0  # atno 17320 bound_to 7965
  144.7101  140.4006  143.7087 LP  0  0  0  0  0  0  0  0  0  0  0  0  # atno 17321 bound_to 7965
  139.7552  144.7523  151.0446 LP  0  0  0  0  0  0  0  0  0  0  0  0  # atno 17342 bound_to 10162
  140.7797  143.4814  151.0013 LP  0  0  0  0  0  0  0  0  0  0  0  0  # atno 17343 bound_to 10162
  157.6631  131.0877  150.7792 LP  0  0  0  0  0  0  0  0  0  0  0  0  # atno 17370 bound_to 10713
  156.7863  130.4875  149.5392 LP  0  0  0  0  0  0  0  0  0  0  0  0  # atno 17371 bound_to 10713
  139.9154  135.0196  156.7859 LP  0  0  0  0  0  0  0  0  0  0  0  0  # atno 17394 bound_to 11000
  140.6551  133.9696  155.7775 LP  0  0  0  0  0  0  0  0  0  0  0  0  # atno 17395 bound_to 11000

$$$$
