AV-unprocessed.smi:527|AV-procd|sdf|2824|dock2
  -GOLD-   2262023303D 1   1.00000     0.00000
 Structure written by MMmdl.
 43 44  0  0  0  0  0  0  0  0  2 V2000
  150.2992  140.9857  156.1507 C   0  0  0  0  0  0  0  0  0  0  0  0
  148.9661  140.5970  155.4897 C   0  0  1  0  0  0  0  0  0  0  0  0
  148.5014  141.6594  154.4728 C   0  0  0  0  0  0  0  0  0  0  0  0
  147.1213  141.3156  153.8905 C   0  0  0  0  0  0  0  0  0  0  0  0
  147.0994  139.9053  153.2823 C   0  0  0  0  0  0  0  0  0  0  0  0
  147.5612  138.8498  154.3054 C   0  0  1  0  0  0  0  0  0  0  0  0
  147.4967  137.5181  153.7073 N   0  0  0  0  0  0  0  0  0  0  0  0
  146.6996  136.5206  154.1170 C   0  0  0  0  0  0  0  0  0  0  0  0
  145.9177  136.6222  155.0646 O   0  0  0  0  0  0  0  0  0  0  0  0
  146.8767  135.4213  153.3593 N   0  0  0  0  0  0  0  0  0  0  0  0
  146.1026  134.3176  153.3205 C   0  0  0  0  0  0  0  0  0  0  0  0
  145.0850  134.1365  153.9916 O   0  0  0  0  0  0  0  0  0  0  0  0
  146.5476  133.2310  152.3411 C   0  0  0  0  0  0  0  0  0  0  0  0
  145.5502  133.0329  151.2854 N   0  0  0  0  0  0  0  0  0  0  0  0
  145.6670  132.2486  150.1660 C   0  0  0  0  0  0  0  0  0  0  0  0
  144.4927  132.3824  149.4707 C   0  0  0  0  0  0  0  0  0  0  0  0
  143.7096  133.2422  150.1936 N   0  3  0  0  0  0  0  0  0  0  0  0
  144.3542  133.6369  151.2964 C   0  0  0  0  0  0  0  0  0  0  0  0
  148.9719  139.1745  154.8691 C   0  0  1  0  0  0  0  0  0  0  0  0
  150.1054  138.9544  153.8399 C   0  0  0  0  0  0  0  0  0  0  0  0
  151.0904  141.1308  155.4152 H   0  0  0  0  0  0  0  0  0  0  0  0
  150.6283  140.2201  156.8538 H   0  0  0  0  0  0  0  0  0  0  0  0
  150.1986  141.9188  156.7057 H   0  0  0  0  0  0  0  0  0  0  0  0
  148.2270  140.5835  156.2925 H   0  0  0  0  0  0  0  0  0  0  0  0
  148.4545  142.6370  154.9539 H   0  0  0  0  0  0  0  0  0  0  0  0
  149.2288  141.7529  153.6659 H   0  0  0  0  0  0  0  0  0  0  0  0
  146.3695  141.3815  154.6780 H   0  0  0  0  0  0  0  0  0  0  0  0
  146.8418  142.0512  153.1360 H   0  0  0  0  0  0  0  0  0  0  0  0
  146.0890  139.6755  152.9418 H   0  0  0  0  0  0  0  0  0  0  0  0
  147.7335  139.8777  152.3955 H   0  0  0  0  0  0  0  0  0  0  0  0
  146.8507  138.8791  155.1344 H   0  0  0  0  0  0  0  0  0  0  0  0
  148.1134  137.3453  152.9270 H   0  0  0  0  0  0  0  0  0  0  0  0
  147.6804  135.4260  152.7489 H   0  0  0  0  0  0  0  0  0  0  0  0
  147.4982  133.4932  151.8741 H   0  0  0  0  0  0  0  0  0  0  0  0
  146.6913  132.2851  152.8657 H   0  0  0  0  0  0  0  0  0  0  0  0
  146.5536  131.6693  149.9518 H   0  0  0  0  0  0  0  0  0  0  0  0
  144.1648  131.9426  148.5401 H   0  0  0  0  0  0  0  0  0  0  0  0
  143.9837  134.3140  152.0459 H   0  0  0  0  0  0  0  0  0  0  0  0
  149.1607  138.4739  155.6840 H   0  0  0  0  0  0  0  0  0  0  0  0
  150.0227  139.6272  152.9868 H   0  0  0  0  0  0  0  0  0  0  0  0
  150.1050  137.9351  153.4544 H   0  0  0  0  0  0  0  0  0  0  0  0
  151.0864  139.1094  154.2873 H   0  0  0  0  0  0  0  0  0  0  0  0
  142.7777  133.5396  149.9328 H   0  0  0  0  0  0  0  0  0  0  0  0
  1  2  1  0  0  0  0
  1 21  1  0  0  0  0
  1 22  1  0  0  0  0
  1 23  1  0  0  0  0
  2 19  1  0  0  0  0
  2  3  1  0  0  0  0
  2 24  1  0  0  0  0
  3  4  1  0  0  0  0
  3 25  1  0  0  0  0
  3 26  1  0  0  0  0
  4  5  1  0  0  0  0
  4 27  1  0  0  0  0
  4 28  1  0  0  0  0
  5  6  1  0  0  0  0
  5 29  1  0  0  0  0
  5 30  1  0  0  0  0
  6  7  1  0  0  0  0
  6 19  1  0  0  0  0
  6 31  1  0  0  0  0
  7  8  1  0  0  0  0
  7 32  1  0  0  0  0
  8  9  2  0  0  0  0
  8 10  1  0  0  0  0
 10 11  1  0  0  0  0
 10 33  1  0  0  0  0
 11 12  2  0  0  0  0
 11 13  1  0  0  0  0
 13 14  1  0  0  0  0
 13 34  1  0  0  0  0
 13 35  1  0  0  0  0
 14 18  1  0  0  0  0
 14 15  1  0  0  0  0
 15 16  2  0  0  0  0
 15 36  1  0  0  0  0
 16 17  1  0  0  0  0
 16 37  1  0  0  0  0
 17 18  2  0  0  0  0
 17 43  1  0  0  0  0
 18 38  1  0  0  0  0
 19 20  1  0  0  0  0
 19 39  1  0  0  0  0
 20 40  1  0  0  0  0
 20 41  1  0  0  0  0
 20 42  1  0  0  0  0
M  CHG  1  17   1
M  END
> <s_m_source_file>
AV-unprocessed.smi

> <i_m_source_file_index>
527

> <i_lp_mmshare_version>
43012

> <i_f3d_flags>
0

> <s_epik_input>
W0NIM11bQ0BASF0xW0NIMl1bQ0gyXVtDSDJdW0NASF0oW0NASF0xW0NIM10pW05IXUMoPU8pW05IXUMoPU8pW0NIMl1uMltjSF1bY0hdbltjSF0y

> <s_epik_cmdline>
J2VwaWtfcHl0aG9uJywgJy1waCcsICc3LjAnLCAnLXRuJywgJzgnLCAnLW1hJywgJzIwMCcsICctbWV0YWxfYmluZGluZycsICctaW1hZScsICc8aW5maWxlLm1hZT4nLCAnLW9tYWUnLCAnPG91dGZpbGUubWFlPic=

> <r_lp_tautomer_probability>
1

> <r_epik_Ionization_Penalty>
0.816441

> <r_epik_Ionization_Penalty_Charging>
0

> <r_epik_Ionization_Penalty_Neutral>
0.816441

> <r_epik_State_Penalty>
0.849034

> <r_epik_Charging_Adjusted_Penalty>
0.849034

> <i_epik_Tot_Q>
1

> <i_epik_Tot_abs_Q>
1

> <r_epik_Metal_State_Penalty>
0.984327

> <b_epik_Metal_Only>
0

> <s_lp_Force_Field>
OPLS_2005

> <r_lp_Energy>
18.6006

> <b_lp_Chiralities_Consistent>
1

> <s_lp_Variant>
AV-unprocessed.smi:527-10

> <Gold.Version>
5.8.1

> <Gold.Id.Protein>
6NUR|6NUR_protein|mol2

> <Gold.PLP.Fitness>
47.6264

> <Gold.PLP.PLP>
-32.8092

> <Gold.PLP.part.hbond>
-3.0000

> <Gold.PLP.part.metal>
0.0000

> <Gold.PLP.part.buried>
-2.0501

> <Gold.PLP.part.nonpolar>
-27.2866

> <Gold.PLP.part.repulsive>
0.1640

> <Gold.PLP.ligand.clash>
0.0000

> <Gold.PLP.ligand.torsion>
0.1074

> <Gold.PLP.Chemscore.Hbond>
4.0000

> <Gold.PLP.Chemscore.CHOScore>
1.0000

> <Gold.PLP.Chemscore.Metal>
0.0000

> <Gold.Chemscore.Hbonds>
donor molecule, donor type, donor heavy atom, donor atom, acceptor molecule, acceptor atom, score
      L1  H     7    32       P1  7948  1.00
      L1  H    10    33       P1  7948  1.00
      L1  H    17    43       P1 10186  2.00
      L1  C    15    36       P1 10747  0.92

> <Gold.PLP.Chemscore.Internal.Correction>
0.0321

> <Gold.Rescore>
     Score         DG    S(hbond)    S(metal)    S(lipo)     H(rot)  DE(clash)    DE(int)     intcor
     17.34     -20.11       2.92        0.00      78.91       1.71       0.11       2.67       ----

> <Gold.Chemscore.Fitness>
17.3369

> <Gold.Chemscore.DG>
-20.1137

> <Gold.Chemscore.ZeroCoef>
-5.4800

> <Gold.Chemscore.Hbond>
2.9242

> <Gold.Chemscore.Metal>
0.0000

> <Gold.Chemscore.Lipo>
78.9070

> <Gold.Chemscore.Internal_Hbond>
0.0000

> <Gold.Chemscore.DEClash>
0.1112

> <Gold.Chemscore.DEInternal>
2.6656

> <Gold.Chemscore.Rot>
1.7052

> <Gold.Chemscore.Internal.Correction>
   9.000000E+99

> <Gold.Chemscore.Hbonds>
donor molecule, donor type, donor heavy atom, donor atom, acceptor molecule, acceptor atom, score
      L1  H     7    32       P1  7948  0.95
      L1  H    10    33       P1  7948  0.98
      L1  H    17    43       P1 10186  0.94

> <Gold.Chemscore.Hbond.Weighted>
-9.7668

> <Gold.Chemscore.Metal.Weighted>
-0.0000

> <Gold.Chemscore.Lipo.Weighted>
-9.2321

> <Gold.Chemscore.Internal_Hbond.Weighted>
0.0000

> <Gold.Chemscore.DEClash.Weighted>
0.1112

> <Gold.Chemscore.DEInternal.Weighted>
2.6656

> <Gold.Chemscore.Rot.Weighted>
4.3653

> <Gold.Chemscore.Internal.Correction.Weighted>
   9.000000E+99

> <Gold.Protein.RotatedTorsions>
[ 6907 6896 6895 6894 ] final  141.89 input  -60.11 | X-H torsion
[ 7974 7965 7964 7962 ] final  158.39 input  175.53 | X-H torsion
[ 8008 7997 7996 7995 ] final  123.24 input   59.86 | X-H torsion
[ 10167 10162 10161 10158 ] final   22.23 input  -65.29 | X-H torsion
[ 10718 10713 10712 10709 ] final  169.16 input   66.30 | X-H torsion
[ 10763 10752 10751 10750 ] final  -91.63 input  -60.55 | X-H torsion
[ 11005 11000 10999 10996 ] final  -72.06 input  -57.11 | X-H torsion

> <Gold.Protein.ActiveResidues>
 VAL166  LYS551  ARG553  GLY616  TRP617  ASP618  TYR619  PRO620  LYS621  CYS622 
 ASP623  PHE694  ASN695  SER759  ASP760  ASP761  ALA762  ILE779  LEU786  VAL792 
 PHE793  MET794  SER795  GLU796  ALA797  LYS798  CYS799  TRP800  GLU811  SER814 

> <Gold.Protein.RotatedAtoms>
  152.2254  133.5016  159.5185 H   0  0  0  0  0  0  0  0  0  0  0  0  # atno 6907 bound_to 6896
  150.7023  134.1287  159.4071 H   0  0  0  0  0  0  0  0  0  0  0  0  # atno 6908 bound_to 6896
  151.9208  135.0299  160.0572 H   0  0  0  0  0  0  0  0  0  0  0  0  # atno 6909 bound_to 6896
  144.7849  139.7471  143.6245 H   0  0  0  0  0  0  0  0  0  0  0  0  # atno 7974 bound_to 7965
  156.2758  140.2767  156.1595 H   0  0  0  0  0  0  0  0  0  0  0  0  # atno 8008 bound_to 7997
  155.0768  140.0387  157.2644 H   0  0  0  0  0  0  0  0  0  0  0  0  # atno 8009 bound_to 7997
  154.6996  140.2646  155.6738 H   0  0  0  0  0  0  0  0  0  0  0  0  # atno 8010 bound_to 7997
  140.5365  143.9751  150.6494 H   0  0  0  0  0  0  0  0  0  0  0  0  # atno 10167 bound_to 10162
  157.0266  131.0247  151.2758 H   0  0  0  0  0  0  0  0  0  0  0  0  # atno 10718 bound_to 10713
  154.6780  135.5261  153.8225 H   0  0  0  0  0  0  0  0  0  0  0  0  # atno 10763 bound_to 10752
  153.0545  135.6545  154.0621 H   0  0  0  0  0  0  0  0  0  0  0  0  # atno 10764 bound_to 10752
  154.0512  135.2969  155.3320 H   0  0  0  0  0  0  0  0  0  0  0  0  # atno 10765 bound_to 10752
  141.1602  133.6835  156.7001 H   0  0  0  0  0  0  0  0  0  0  0  0  # atno 11005 bound_to 11000
  146.2075  139.5409  142.9703 LP  0  0  0  0  0  0  0  0  0  0  0  0  # atno 17320 bound_to 7965
  145.5950  141.0364  143.2049 LP  0  0  0  0  0  0  0  0  0  0  0  0  # atno 17321 bound_to 7965
  140.3140  143.3179  152.0850 LP  0  0  0  0  0  0  0  0  0  0  0  0  # atno 17342 bound_to 10162
  139.4973  144.6617  151.6449 LP  0  0  0  0  0  0  0  0  0  0  0  0  # atno 17343 bound_to 10162
  157.5209  130.7997  149.7808 LP  0  0  0  0  0  0  0  0  0  0  0  0  # atno 17370 bound_to 10713
  156.0084  130.3845  150.2351 LP  0  0  0  0  0  0  0  0  0  0  0  0  # atno 17371 bound_to 10713
  140.2965  134.8198  157.4061 LP  0  0  0  0  0  0  0  0  0  0  0  0  # atno 17394 bound_to 11000
  140.1300  134.5108  155.8113 LP  0  0  0  0  0  0  0  0  0  0  0  0  # atno 17395 bound_to 11000

$$$$
