AV-unprocessed.smi:1827|AV-procd|sdf|7423|dock2
  -GOLD-   22720 9103D 1   1.00000     0.00000
 Structure written by MMmdl.
 43 44  0  0  0  0  0  0  0  0  3 V2000
  149.2945  132.2254  154.1692 C   0  0  0  0  0  0  0  0  0  0  0  0
  148.1100  131.7808  153.3566 C   0  0  0  0  0  0  0  0  0  0  0  0
  147.8259  130.4862  153.3004 N   0  0  0  0  0  0  0  0  0  0  0  0
  146.7739  130.4018  152.4582 N   0  0  0  0  0  0  0  0  0  0  0  0
  146.3670  131.6203  151.9631 C   0  0  0  0  0  0  0  0  0  0  0  0
  145.2334  131.7565  151.0022 C   0  0  0  0  0  0  0  0  0  0  0  0
  147.1953  132.5310  152.5529 C   0  0  0  0  0  0  0  0  0  0  0  0
  147.1533  133.9271  152.3109 N   0  0  0  0  0  0  0  0  0  0  0  0
  146.0555  134.6801  152.1432 C   0  0  0  0  0  0  0  0  0  0  0  0
  144.9010  134.2545  152.1529 O   0  0  0  0  0  0  0  0  0  0  0  0
  146.3700  135.9676  151.9396 N   0  0  0  0  0  0  0  0  0  0  0  0
  145.4063  137.0448  151.7148 C   0  0  2  0  0  0  0  0  0  0  0  0
  146.1171  138.3077  151.1987 C   0  0  0  0  0  0  0  0  0  0  0  0
  146.9566  138.9898  152.2948 C   0  0  0  0  0  0  0  0  0  0  0  0
  146.1334  139.2988  153.4915 N   0  3  2  0  0  0  0  0  0  0  0  0
  146.8858  140.0780  154.5063 C   0  0  0  0  0  0  0  0  0  0  0  0
  147.2702  141.4512  153.9439 C   0  0  0  0  0  0  0  0  0  0  0  0
  146.1976  142.1686  153.5586 N   0  5  0  0  0  0  0  0  0  0  0  0
  148.4558  141.7707  153.8788 O   0  0  0  0  0  0  0  0  0  0  0  0
  145.4941  138.0763  154.0487 C   0  0  0  0  0  0  0  0  0  0  0  0
  144.6157  137.3802  152.9947 C   0  0  0  0  0  0  0  0  0  0  0  0
  146.3533  129.5128  152.2277 H   0  0  0  0  0  0  0  0  0  0  0  0
  149.7778  133.0935  153.7209 H   0  0  0  0  0  0  0  0  0  0  0  0
  150.0460  131.4386  154.2425 H   0  0  0  0  0  0  0  0  0  0  0  0
  148.9960  132.4913  155.1834 H   0  0  0  0  0  0  0  0  0  0  0  0
  145.1521  132.7777  150.6298 H   0  0  0  0  0  0  0  0  0  0  0  0
  144.2890  131.4971  151.4807 H   0  0  0  0  0  0  0  0  0  0  0  0
  145.3705  131.0971  150.1448 H   0  0  0  0  0  0  0  0  0  0  0  0
  148.0437  134.3762  152.1555 H   0  0  0  0  0  0  0  0  0  0  0  0
  147.3472  136.2210  151.9382 H   0  0  0  0  0  0  0  0  0  0  0  0
  144.7058  136.7149  150.9452 H   0  0  0  0  0  0  0  0  0  0  0  0
  146.7456  138.0652  150.3408 H   0  0  0  0  0  0  0  0  0  0  0  0
  145.3694  139.0140  150.8352 H   0  0  0  0  0  0  0  0  0  0  0  0
  147.7957  138.3552  152.5834 H   0  0  0  0  0  0  0  0  0  0  0  0
  147.3812  139.9110  151.8941 H   0  0  0  0  0  0  0  0  0  0  0  0
  146.3130  140.1445  155.4341 H   0  0  0  0  0  0  0  0  0  0  0  0
  147.8181  139.5681  154.7526 H   0  0  0  0  0  0  0  0  0  0  0  0
  145.3330  141.6748  153.3070 H   0  0  0  0  0  0  0  0  0  0  0  0
  146.2634  137.3931  154.4114 H   0  0  0  0  0  0  0  0  0  0  0  0
  144.8755  138.3340  154.9090 H   0  0  0  0  0  0  0  0  0  0  0  0
  143.7842  138.0379  152.7375 H   0  0  0  0  0  0  0  0  0  0  0  0
  144.1659  136.4811  153.4173 H   0  0  0  0  0  0  0  0  0  0  0  0
  145.3879  139.9045  153.1788 H   0  0  0  0  0  0  0  0  0  0  0  0
  1  2  1  0  0  0  0
  1 23  1  0  0  0  0
  1 24  1  0  0  0  0
  1 25  1  0  0  0  0
  2  7  1  0  0  0  0
  2  3  2  0  0  0  0
  3  4  1  0  0  0  0
  4 22  1  0  0  0  0
  4  5  1  0  0  0  0
  5  6  1  0  0  0  0
  5  7  2  0  0  0  0
  6 26  1  0  0  0  0
  6 27  1  0  0  0  0
  6 28  1  0  0  0  0
  7  8  1  0  0  0  0
  8  9  1  0  0  0  0
  8 29  1  0  0  0  0
  9 10  2  0  0  0  0
  9 11  1  0  0  0  0
 11 12  1  0  0  0  0
 11 30  1  0  0  0  0
 12 21  1  0  0  0  0
 12 13  1  0  0  0  0
 12 31  1  0  0  0  0
 13 14  1  0  0  0  0
 13 32  1  0  0  0  0
 13 33  1  0  0  0  0
 14 15  1  0  0  0  0
 14 34  1  0  0  0  0
 14 35  1  0  0  0  0
 15 16  1  0  0  0  0
 15 20  1  0  0  0  0
 15 43  1  0  0  0  0
 16 17  1  0  0  0  0
 16 36  1  0  0  0  0
 16 37  1  0  0  0  0
 17 18  1  0  0  0  0
 17 19  2  0  0  0  0
 18 38  1  0  0  0  0
 20 21  1  0  0  0  0
 20 39  1  0  0  0  0
 20 40  1  0  0  0  0
 21 41  1  0  0  0  0
 21 42  1  0  0  0  0
M  CHG  1  15   1
M  CHG  1  18  -1
M  END
> <s_m_source_file>
AV-unprocessed.smi

> <i_m_source_file_index>
1827

> <i_lp_mmshare_version>
43012

> <i_f3d_flags>
0

> <s_epik_input>
W0NIM11jMW5bbkhdYyhbQ0gzXSljMVtOSF1DKD1PKVtOSF1bQ0hdMltDSDJdW0NIMl1OKFtDSDJdW0NIMl0yKVtDSDJdQyg9TylbTkgyXQ==

> <s_epik_cmdline>
J2VwaWtfcHl0aG9uJywgJy1waCcsICc3LjAnLCAnLXRuJywgJzgnLCAnLW1hJywgJzIwMCcsICctbWV0YWxfYmluZGluZycsICctaW1hZScsICc8aW5maWxlLm1hZT4nLCAnLW9tYWUnLCAnPG91dGZpbGUubWFlPic=

> <r_lp_tautomer_probability>
0.5

> <r_epik_Ionization_Penalty>
5.72915

> <r_epik_Ionization_Penalty_Charging>
5.7288

> <r_epik_Ionization_Penalty_Neutral>
0.000348152

> <r_epik_State_Penalty>
6.54882

> <r_epik_Charging_Adjusted_Penalty>
12.2776

> <i_epik_Tot_Q>
0

> <i_epik_Tot_abs_Q>
2

> <r_epik_Metal_State_Penalty>
2.51333

> <b_epik_Metal_Only>
1

> <s_lp_Force_Field>
OPLS_2005

> <r_lp_Energy>
10.7358

> <b_lp_Chiralities_Consistent>
1

> <s_lp_Variant>
AV-unprocessed.smi:1827-5

> <Gold.Version>
5.8.1

> <Gold.Id.Protein>
6NUR|6NUR_protein|mol2

> <Gold.PLP.Fitness>
43.2133

> <Gold.PLP.PLP>
-30.0496

> <Gold.PLP.part.hbond>
-5.0558

> <Gold.PLP.part.metal>
0.0000

> <Gold.PLP.part.buried>
3.8774

> <Gold.PLP.part.nonpolar>
-29.2142

> <Gold.PLP.part.repulsive>
0.4358

> <Gold.PLP.ligand.clash>
0.0000

> <Gold.PLP.ligand.torsion>
0.4401

> <Gold.PLP.Chemscore.Hbond>
4.5757

> <Gold.PLP.Chemscore.CHOScore>
0.0000

> <Gold.PLP.Chemscore.Metal>
0.0000

> <Gold.Chemscore.Hbonds>
donor molecule, donor type, donor heavy atom, donor atom, acceptor molecule, acceptor atom, score
      L1  H     8    29       P1  7948  0.75
      L1  H    11    30       P1  7948  1.00
      L1  H    15    43       P1 10175  2.00
      L1  H    18    38       P1 10175  0.32
      P1  H  8011  8017       L1    19  0.39

> <Gold.PLP.Chemscore.Internal.Correction>
0.3169

> <Gold.Rescore>
     Score         DG    S(hbond)    S(metal)    S(lipo)     H(rot)  DE(clash)    DE(int)     intcor
     14.57     -17.91       2.76        0.00      70.13       1.96       2.73       0.61       ----

> <Gold.Chemscore.Fitness>
14.5699

> <Gold.Chemscore.DG>
-17.9059

> <Gold.Chemscore.ZeroCoef>
-5.4800

> <Gold.Chemscore.Hbond>
2.7634

> <Gold.Chemscore.Metal>
0.0000

> <Gold.Chemscore.Lipo>
70.1289

> <Gold.Chemscore.Internal_Hbond>
0.0000

> <Gold.Chemscore.DEClash>
2.7260

> <Gold.Chemscore.DEInternal>
0.6101

> <Gold.Chemscore.Rot>
1.9566

> <Gold.Chemscore.Internal.Correction>
   9.000000E+99

> <Gold.Chemscore.Hbonds>
donor molecule, donor type, donor heavy atom, donor atom, acceptor molecule, acceptor atom, score
      L1  H     8    29       P1  7948  0.12
      L1  H    11    30       P1  7948  0.98
      L1  H    15    43       P1 10175  0.99
      L1  H    18    38       P1 10175  0.01
      P1  H  8011  8017       L1    19  0.39

> <Gold.Chemscore.Hbond.Weighted>
-9.2298

> <Gold.Chemscore.Metal.Weighted>
-0.0000

> <Gold.Chemscore.Lipo.Weighted>
-8.2051

> <Gold.Chemscore.Internal_Hbond.Weighted>
0.0000

> <Gold.Chemscore.DEClash.Weighted>
2.7260

> <Gold.Chemscore.DEInternal.Weighted>
0.6101

> <Gold.Chemscore.Rot.Weighted>
5.0090

> <Gold.Chemscore.Internal.Correction.Weighted>
   9.000000E+99

> <Gold.Protein.RotatedTorsions>
[ 6907 6896 6895 6894 ] final   81.86 input  -60.11 | X-H torsion
[ 7974 7965 7964 7962 ] final  -24.42 input  175.53 | X-H torsion
[ 8008 7997 7996 7995 ] final  171.30 input   59.86 | X-H torsion
[ 10167 10162 10161 10158 ] final -179.95 input  -65.29 | X-H torsion
[ 10718 10713 10712 10709 ] final  171.35 input   66.30 | X-H torsion
[ 10763 10752 10751 10750 ] final  117.99 input  -60.55 | X-H torsion
[ 11005 11000 10999 10996 ] final   29.26 input  -57.11 | X-H torsion

> <Gold.Protein.ActiveResidues>
 VAL166  LYS551  ARG553  GLY616  TRP617  ASP618  TYR619  PRO620  LYS621  CYS622 
 ASP623  PHE694  ASN695  SER759  ASP760  ASP761  ALA762  ILE779  LEU786  VAL792 
 PHE793  MET794  SER795  GLU796  ALA797  LYS798  CYS799  TRP800  GLU811  SER814 

> <Gold.Protein.RotatedAtoms>
  152.5281  134.3139  159.9123 H   0  0  0  0  0  0  0  0  0  0  0  0  # atno 6907 bound_to 6896
  151.3088  133.4083  159.2653 H   0  0  0  0  0  0  0  0  0  0  0  0  # atno 6908 bound_to 6896
  151.0056  134.9373  159.8035 H   0  0  0  0  0  0  0  0  0  0  0  0  # atno 6909 bound_to 6896
  146.1556  140.4749  142.8593 H   0  0  0  0  0  0  0  0  0  0  0  0  # atno 7974 bound_to 7965
  156.1284  140.1515  156.9102 H   0  0  0  0  0  0  0  0  0  0  0  0  # atno 8008 bound_to 7997
  154.4890  140.0857  156.7591 H   0  0  0  0  0  0  0  0  0  0  0  0  # atno 8009 bound_to 7997
  155.4301  140.3427  155.4281 H   0  0  0  0  0  0  0  0  0  0  0  0  # atno 8010 bound_to 7997
  139.5363  144.2487  152.0802 H   0  0  0  0  0  0  0  0  0  0  0  0  # atno 10167 bound_to 10162
  156.9948  131.0158  151.2847 H   0  0  0  0  0  0  0  0  0  0  0  0  # atno 10718 bound_to 10713
  153.5609  135.3521  155.2798 H   0  0  0  0  0  0  0  0  0  0  0  0  # atno 10763 bound_to 10752
  154.8695  135.4136  154.2832 H   0  0  0  0  0  0  0  0  0  0  0  0  # atno 10764 bound_to 10752
  153.3578  135.7058  153.6806 H   0  0  0  0  0  0  0  0  0  0  0  0  # atno 10765 bound_to 10752
  140.3068  134.2695  155.7742 H   0  0  0  0  0  0  0  0  0  0  0  0  # atno 11005 bound_to 11000
  144.7959  140.6121  143.6511 LP  0  0  0  0  0  0  0  0  0  0  0  0  # atno 17320 bound_to 7965
  145.4717  139.1503  143.3810 LP  0  0  0  0  0  0  0  0  0  0  0  0  # atno 17321 bound_to 7965
  140.1958  144.4706  150.6456 LP  0  0  0  0  0  0  0  0  0  0  0  0  # atno 17342 bound_to 10162
  140.6571  143.2241  151.5942 LP  0  0  0  0  0  0  0  0  0  0  0  0  # atno 17343 bound_to 10162
  157.5433  130.8134  149.8055 LP  0  0  0  0  0  0  0  0  0  0  0  0  # atno 17370 bound_to 10713
  156.0193  130.3801  150.2011 LP  0  0  0  0  0  0  0  0  0  0  0  0  # atno 17371 bound_to 10713
  141.2117  133.7682  156.9848 LP  0  0  0  0  0  0  0  0  0  0  0  0  # atno 17394 bound_to 11000
  140.1060  134.9506  157.1995 LP  0  0  0  0  0  0  0  0  0  0  0  0  # atno 17395 bound_to 11000

$$$$
