AV-unprocessed.smi:1940|AV-procd|sdf|7838|dock1
  -GOLD-   22720 9583D 1   1.00000     0.00000
 Structure written by MMmdl.
 49 51  0  0  0  0  0  0  0  0  1 V2000
  144.4354  136.7954  153.2418 C   0  0  0  0  0  0  0  0  0  0  0  0
  145.3827  137.0822  152.0676 C   0  0  1  0  0  0  0  0  0  0  0  0
  146.7109  137.3939  152.5946 N   0  0  0  0  0  0  0  0  0  0  0  0
  146.9915  138.3206  153.5225 C   0  0  0  0  0  0  0  0  0  0  0  0
  146.1409  139.0367  154.0495 O   0  0  0  0  0  0  0  0  0  0  0  0
  148.3070  138.3444  153.7976 N   0  0  0  0  0  0  0  0  0  0  0  0
  149.0044  139.1535  154.7359 C   0  0  0  0  0  0  0  0  0  0  0  0
  148.5045  139.5137  156.0105 C   0  0  0  0  0  0  0  0  0  0  0  0
  149.2923  140.3300  156.8447 C   0  0  0  0  0  0  0  0  0  0  0  0
  150.5482  140.7692  156.3789 C   0  0  0  0  0  0  0  0  0  0  0  0
  151.3366  141.5798  157.2078 N   0  0  0  0  0  0  0  0  0  0  0  0
  150.8150  142.9370  157.3514 C   0  0  0  0  0  0  0  0  0  0  0  0
  151.8244  143.8356  158.0872 C   0  0  0  0  0  0  0  0  0  0  0  0
  152.2322  143.2170  159.4344 C   0  0  0  0  0  0  0  0  0  0  0  0
  152.7405  141.7809  159.2287 C   0  0  0  0  0  0  0  0  0  0  0  0
  151.7050  140.9361  158.4665 C   0  0  0  0  0  0  0  0  0  0  0  0
  151.0266  140.4417  155.1552 N   0  0  0  0  0  0  0  0  0  0  0  0
  150.2668  139.6582  154.3610 C   0  0  0  0  0  0  0  0  0  0  0  0
  145.4609  135.8954  151.0863 C   0  0  2  0  0  0  0  0  0  0  0  0
  144.1134  135.4421  150.5173 C   0  0  0  0  0  0  0  0  0  0  0  0
  144.3910  133.9959  150.1791 C   0  0  0  0  0  0  0  0  0  0  0  0
  145.2724  133.5727  151.3488 C   0  0  0  0  0  0  0  0  0  0  0  0
  145.9879  134.7415  151.7397 O   0  0  0  0  0  0  0  0  0  0  0  0
  143.4235  136.5920  152.8907 H   0  0  0  0  0  0  0  0  0  0  0  0
  144.3813  137.6486  153.9188 H   0  0  0  0  0  0  0  0  0  0  0  0
  144.7668  135.9318  153.8194 H   0  0  0  0  0  0  0  0  0  0  0  0
  144.9834  137.9411  151.5251 H   0  0  0  0  0  0  0  0  0  0  0  0
  147.4781  136.8525  152.2239 H   0  0  0  0  0  0  0  0  0  0  0  0
  148.8690  137.6509  153.3259 H   0  0  0  0  0  0  0  0  0  0  0  0
  147.5359  139.1947  156.3615 H   0  0  0  0  0  0  0  0  0  0  0  0
  148.9347  140.6157  157.8233 H   0  0  0  0  0  0  0  0  0  0  0  0
  150.5960  143.3534  156.3673 H   0  0  0  0  0  0  0  0  0  0  0  0
  149.8746  142.9086  157.9035 H   0  0  0  0  0  0  0  0  0  0  0  0
  152.7104  143.9732  157.4658 H   0  0  0  0  0  0  0  0  0  0  0  0
  151.3980  144.8268  158.2433 H   0  0  0  0  0  0  0  0  0  0  0  0
  153.0004  143.8252  159.9126 H   0  0  0  0  0  0  0  0  0  0  0  0
  151.3748  143.2090  160.1083 H   0  0  0  0  0  0  0  0  0  0  0  0
  153.6769  141.8015  158.6694 H   0  0  0  0  0  0  0  0  0  0  0  0
  152.9636  141.3201  160.1911 H   0  0  0  0  0  0  0  0  0  0  0  0
  150.8136  140.8018  159.0812 H   0  0  0  0  0  0  0  0  0  0  0  0
  152.1093  139.9426  158.2675 H   0  0  0  0  0  0  0  0  0  0  0  0
  150.6859  139.4219  153.3936 H   0  0  0  0  0  0  0  0  0  0  0  0
  146.1292  136.1364  150.2577 H   0  0  0  0  0  0  0  0  0  0  0  0
  143.3335  135.5026  151.2781 H   0  0  0  0  0  0  0  0  0  0  0  0
  143.7960  136.0286  149.6545 H   0  0  0  0  0  0  0  0  0  0  0  0
  143.4867  133.3941  150.0858 H   0  0  0  0  0  0  0  0  0  0  0  0
  144.9471  133.9286  149.2431 H   0  0  0  0  0  0  0  0  0  0  0  0
  144.6583  133.2468  152.1890 H   0  0  0  0  0  0  0  0  0  0  0  0
  145.9490  132.7586  151.0880 H   0  0  0  0  0  0  0  0  0  0  0  0
  1  2  1  0  0  0  0
  1 24  1  0  0  0  0
  1 25  1  0  0  0  0
  1 26  1  0  0  0  0
  2  3  1  0  0  0  0
  2 19  1  0  0  0  0
  2 27  1  0  0  0  0
  3  4  1  0  0  0  0
  3 28  1  0  0  0  0
  4  5  2  0  0  0  0
  4  6  1  0  0  0  0
  6  7  1  0  0  0  0
  6 29  1  0  0  0  0
  7 18  1  0  0  0  0
  7  8  2  0  0  0  0
  8  9  1  0  0  0  0
  8 30  1  0  0  0  0
  9 10  2  0  0  0  0
  9 31  1  0  0  0  0
 10 11  1  0  0  0  0
 10 17  1  0  0  0  0
 11 16  1  0  0  0  0
 11 12  1  0  0  0  0
 12 13  1  0  0  0  0
 12 32  1  0  0  0  0
 12 33  1  0  0  0  0
 13 14  1  0  0  0  0
 13 34  1  0  0  0  0
 13 35  1  0  0  0  0
 14 15  1  0  0  0  0
 14 36  1  0  0  0  0
 14 37  1  0  0  0  0
 15 16  1  0  0  0  0
 15 38  1  0  0  0  0
 15 39  1  0  0  0  0
 16 40  1  0  0  0  0
 16 41  1  0  0  0  0
 17 18  2  0  0  0  0
 18 42  1  0  0  0  0
 19 23  1  0  0  0  0
 19 20  1  0  0  0  0
 19 43  1  0  0  0  0
 20 21  1  0  0  0  0
 20 44  1  0  0  0  0
 20 45  1  0  0  0  0
 21 22  1  0  0  0  0
 21 46  1  0  0  0  0
 21 47  1  0  0  0  0
 22 23  1  0  0  0  0
 22 48  1  0  0  0  0
 22 49  1  0  0  0  0
M  END
> <s_m_source_file>
AV-unprocessed.smi

> <i_m_source_file_index>
1940

> <i_lp_mmshare_version>
43012

> <i_f3d_flags>
0

> <s_epik_input>
TzFbQ0gyXVtDSDJdW0NIMl1bQ0BIXTFbQ0BIXShbQ0gzXSlbTkhdQyg9TylbTkhdYzJbY0hdW2NIXWMobltjSF0yKU4zW0NIMl1bQ0gyXVtDSDJdW0NIMl1bQ0gyXTM=

> <s_epik_cmdline>
J2VwaWtfcHl0aG9uJywgJy1waCcsICc3LjAnLCAnLXRuJywgJzgnLCAnLW1hJywgJzIwMCcsICctbWV0YWxfYmluZGluZycsICctaW1hZScsICc8aW5maWxlLm1hZT4nLCAnLW9tYWUnLCAnPG91dGZpbGUubWFlPic=

> <r_lp_tautomer_probability>
1

> <r_epik_Ionization_Penalty>
0.105688

> <r_epik_Ionization_Penalty_Charging>
0

> <r_epik_Ionization_Penalty_Neutral>
0.105688

> <r_epik_State_Penalty>
0.0895745

> <r_epik_Charging_Adjusted_Penalty>
0.0895745

> <i_epik_Tot_Q>
0

> <i_epik_Tot_abs_Q>
0

> <r_epik_Metal_State_Penalty>
0.0765749

> <b_epik_Metal_Only>
0

> <s_lp_Force_Field>
OPLS_2005

> <r_lp_Energy>
35.482

> <b_lp_Chiralities_Consistent>
1

> <s_lp_Variant>
AV-unprocessed.smi:1940-2

> <Gold.Version>
5.8.1

> <Gold.Id.Protein>
6NUR|6NUR_protein|mol2

> <Gold.PLP.Fitness>
45.8471

> <Gold.PLP.PLP>
-37.8256

> <Gold.PLP.part.hbond>
-3.0000

> <Gold.PLP.part.metal>
0.0000

> <Gold.PLP.part.buried>
-2.4005

> <Gold.PLP.part.nonpolar>
-33.0523

> <Gold.PLP.part.repulsive>
0.4053

> <Gold.PLP.ligand.clash>
0.0000

> <Gold.PLP.ligand.torsion>
0.4540

> <Gold.PLP.Chemscore.Hbond>
1.9600

> <Gold.PLP.Chemscore.CHOScore>
0.9498

> <Gold.PLP.Chemscore.Metal>
0.0000

> <Gold.Chemscore.Hbonds>
donor molecule, donor type, donor heavy atom, donor atom, acceptor molecule, acceptor atom, score
      L1  H     3    28       P1  7948  1.00
      L1  H     6    29       P1  7948  0.94
      L1  C    18    42       P1  7957  0.89

> <Gold.PLP.Chemscore.Internal.Correction>
0.2000

> <Gold.Rescore>
     Score         DG    S(hbond)    S(metal)    S(lipo)     H(rot)  DE(clash)    DE(int)     intcor
     18.64     -20.26       1.91        0.00     100.98       1.34       0.26       1.36       ----

> <Gold.Chemscore.Fitness>
18.6394

> <Gold.Chemscore.DG>
-20.2615

> <Gold.Chemscore.ZeroCoef>
-5.4800

> <Gold.Chemscore.Hbond>
1.9123

> <Gold.Chemscore.Metal>
0.0000

> <Gold.Chemscore.Lipo>
100.9769

> <Gold.Chemscore.Internal_Hbond>
0.0000

> <Gold.Chemscore.DEClash>
0.2592

> <Gold.Chemscore.DEInternal>
1.3629

> <Gold.Chemscore.Rot>
1.3359

> <Gold.Chemscore.Internal.Correction>
   9.000000E+99

> <Gold.Chemscore.Hbonds>
donor molecule, donor type, donor heavy atom, donor atom, acceptor molecule, acceptor atom, score
      L1  H     3    28       P1  7948  0.99
      L1  H     6    29       P1  7948  0.87

> <Gold.Chemscore.Hbond.Weighted>
-6.3871

> <Gold.Chemscore.Metal.Weighted>
-0.0000

> <Gold.Chemscore.Lipo.Weighted>
-11.8143

> <Gold.Chemscore.Internal_Hbond.Weighted>
0.0000

> <Gold.Chemscore.DEClash.Weighted>
0.2592

> <Gold.Chemscore.DEInternal.Weighted>
1.3629

> <Gold.Chemscore.Rot.Weighted>
3.4199

> <Gold.Chemscore.Internal.Correction.Weighted>
   9.000000E+99

> <Gold.Protein.RotatedTorsions>
[ 6907 6896 6895 6894 ] final  -75.31 input  -60.11 | X-H torsion
[ 7974 7965 7964 7962 ] final  107.11 input  175.53 | X-H torsion
[ 8008 7997 7996 7995 ] final    1.71 input   59.86 | X-H torsion
[ 10167 10162 10161 10158 ] final -168.37 input  -65.29 | X-H torsion
[ 10718 10713 10712 10709 ] final   22.50 input   66.30 | X-H torsion
[ 10763 10752 10751 10750 ] final  173.72 input  -60.55 | X-H torsion
[ 11005 11000 10999 10996 ] final  106.87 input  -57.11 | X-H torsion

> <Gold.Protein.ActiveResidues>
 VAL166  LYS551  ARG553  GLY616  TRP617  ASP618  TYR619  PRO620  LYS621  CYS622 
 ASP623  PHE694  ASN695  SER759  ASP760  ASP761  ALA762  ILE779  LEU786  VAL792 
 PHE793  MET794  SER795  GLU796  ALA797  LYS798  CYS799  TRP800  GLU811  SER814 

> <Gold.Protein.RotatedAtoms>
  150.7063  134.4740  159.5438 H   0  0  0  0  0  0  0  0  0  0  0  0  # atno 6907 bound_to 6896
  152.2390  134.8244  160.0472 H   0  0  0  0  0  0  0  0  0  0  0  0  # atno 6908 bound_to 6896
  151.9033  133.3508  159.3875 H   0  0  0  0  0  0  0  0  0  0  0  0  # atno 6909 bound_to 6896
  145.2978  139.2579  143.3830 H   0  0  0  0  0  0  0  0  0  0  0  0  # atno 7974 bound_to 7965
  154.6829  140.2636  155.6890 H   0  0  0  0  0  0  0  0  0  0  0  0  # atno 8008 bound_to 7997
  156.2703  140.2806  156.1303 H   0  0  0  0  0  0  0  0  0  0  0  0  # atno 8009 bound_to 7997
  155.1005  140.0374  157.2685 H   0  0  0  0  0  0  0  0  0  0  0  0  # atno 8010 bound_to 7997
  139.5989  144.1052  152.1721 H   0  0  0  0  0  0  0  0  0  0  0  0  # atno 10167 bound_to 10162
  157.1532  130.6684  149.6019 H   0  0  0  0  0  0  0  0  0  0  0  0  # atno 10718 bound_to 10713
  154.4440  135.2763  155.1828 H   0  0  0  0  0  0  0  0  0  0  0  0  # atno 10763 bound_to 10752
  154.3683  135.6114  153.5730 H   0  0  0  0  0  0  0  0  0  0  0  0  # atno 10764 bound_to 10752
  152.9842  135.5851  154.4772 H   0  0  0  0  0  0  0  0  0  0  0  0  # atno 10765 bound_to 10752
  139.8820  134.9383  156.5733 H   0  0  0  0  0  0  0  0  0  0  0  0  # atno 11005 bound_to 11000
  146.3162  140.3485  142.8654 LP  0  0  0  0  0  0  0  0  0  0  0  0  # atno 17320 bound_to 7965
  144.9118  140.7766  143.5802 LP  0  0  0  0  0  0  0  0  0  0  0  0  # atno 17321 bound_to 7965
  140.0644  144.5830  150.7238 LP  0  0  0  0  0  0  0  0  0  0  0  0  # atno 17342 bound_to 10162
  140.7234  143.2611  151.4202 LP  0  0  0  0  0  0  0  0  0  0  0  0  # atno 17343 bound_to 10162
  155.9767  130.4737  150.6544 LP  0  0  0  0  0  0  0  0  0  0  0  0  # atno 17370 bound_to 10713
  157.4201  131.0835  151.1139 LP  0  0  0  0  0  0  0  0  0  0  0  0  # atno 17371 bound_to 10713
  140.8082  133.8450  155.8786 LP  0  0  0  0  0  0  0  0  0  0  0  0  # atno 17394 bound_to 11000
  140.9530  134.1754  157.4713 LP  0  0  0  0  0  0  0  0  0  0  0  0  # atno 17395 bound_to 11000

$$$$
