AV-unprocessed.smi:2121|AV-procd|sdf|8643|dock2
  -GOLD-   2272011393D 1   1.00000     0.00000
 Structure written by MMmdl.
 49 50  0  0  0  0  0  0  0  0  1 V2000
  153.9597  141.8523  161.3294 C   0  0  0  0  0  0  0  0  0  0  0  0
  152.7752  142.0614  160.3805 C   0  0  2  0  0  0  0  0  0  0  0  0
  152.9495  141.2866  159.0611 C   0  0  0  0  0  0  0  0  0  0  0  0
  151.8732  141.6098  158.1249 N   0  0  0  0  0  0  0  0  0  0  0  0
  151.7226  140.7506  157.0116 C   0  0  0  0  0  0  0  0  0  0  0  0
  150.4815  140.5872  156.3450 C   0  0  0  0  0  0  0  0  0  0  0  0
  150.4009  139.7106  155.2462 C   0  0  0  0  0  0  0  0  0  0  0  0
  151.5542  139.0167  154.8332 C   0  0  0  0  0  0  0  0  0  0  0  0
  151.4876  138.0605  153.6493 C   0  0  0  0  0  0  0  0  0  0  0  0
  150.7729  136.8168  153.9164 N   0  0  0  0  0  0  0  0  0  0  0  0
  150.9173  136.0709  155.0219 C   0  0  0  0  0  0  0  0  0  0  0  0
  151.7088  136.3478  155.9247 O   0  0  0  0  0  0  0  0  0  0  0  0
  150.0280  134.8215  155.1183 C   0  0  1  0  0  0  0  0  0  0  0  0
  148.7473  135.1925  155.8844 C   0  0  0  0  0  0  0  0  0  0  0  0
  149.6469  134.3651  153.7825 N   0  0  0  0  0  0  0  0  0  0  0  0
  149.7619  133.1042  153.3392 C   0  0  0  0  0  0  0  0  0  0  0  0
  149.3705  132.9742  152.0714 N   0  0  0  0  0  0  0  0  0  0  0  0
  150.1816  132.1642  154.0116 O   0  0  0  0  0  0  0  0  0  0  0  0
  152.7438  139.2336  155.5608 C   0  0  0  0  0  0  0  0  0  0  0  0
  152.8267  140.0730  156.6137 N   0  0  0  0  0  0  0  0  0  0  0  0
  151.6637  143.0428  157.9383 C   0  0  0  0  0  0  0  0  0  0  0  0
  151.5317  143.7560  159.2968 C   0  0  2  0  0  0  0  0  0  0  0  0
  151.4430  145.2779  159.1421 C   0  0  0  0  0  0  0  0  0  0  0  0
  152.6693  143.4534  160.0983 O   0  0  0  0  0  0  0  0  0  0  0  0
  154.0745  140.7991  161.5866 H   0  0  0  0  0  0  0  0  0  0  0  0
  153.8185  142.4080  162.2566 H   0  0  0  0  0  0  0  0  0  0  0  0
  154.8925  142.1903  160.8769 H   0  0  0  0  0  0  0  0  0  0  0  0
  151.8662  141.7278  160.8842 H   0  0  0  0  0  0  0  0  0  0  0  0
  153.9030  141.5412  158.5968 H   0  0  0  0  0  0  0  0  0  0  0  0
  152.9805  140.2204  159.2861 H   0  0  0  0  0  0  0  0  0  0  0  0
  149.5921  141.1207  156.6426 H   0  0  0  0  0  0  0  0  0  0  0  0
  149.4635  139.5783  154.7263 H   0  0  0  0  0  0  0  0  0  0  0  0
  150.9846  138.5703  152.8274 H   0  0  0  0  0  0  0  0  0  0  0  0
  152.4969  137.8342  153.3008 H   0  0  0  0  0  0  0  0  0  0  0  0
  150.1027  136.5156  153.2238 H   0  0  0  0  0  0  0  0  0  0  0  0
  150.5507  134.0219  155.6470 H   0  0  0  0  0  0  0  0  0  0  0  0
  148.9772  135.5484  156.8897 H   0  0  0  0  0  0  0  0  0  0  0  0
  148.0931  134.3267  155.9899 H   0  0  0  0  0  0  0  0  0  0  0  0
  148.1802  135.9740  155.3764 H   0  0  0  0  0  0  0  0  0  0  0  0
  149.2943  135.0655  153.1469 H   0  0  0  0  0  0  0  0  0  0  0  0
  149.4000  132.0719  151.6200 H   0  0  0  0  0  0  0  0  0  0  0  0
  149.0369  133.7840  151.5688 H   0  0  0  0  0  0  0  0  0  0  0  0
  153.6584  138.7223  155.2995 H   0  0  0  0  0  0  0  0  0  0  0  0
  152.5000  143.4555  157.3725 H   0  0  0  0  0  0  0  0  0  0  0  0
  150.7545  143.2201  157.3630 H   0  0  0  0  0  0  0  0  0  0  0  0
  150.6315  143.4084  159.8071 H   0  0  0  0  0  0  0  0  0  0  0  0
  150.5813  145.5617  158.5373 H   0  0  0  0  0  0  0  0  0  0  0  0
  152.3362  145.6782  158.6618 H   0  0  0  0  0  0  0  0  0  0  0  0
  151.3413  145.7623  160.1135 H   0  0  0  0  0  0  0  0  0  0  0  0
  1  2  1  0  0  0  0
  1 25  1  0  0  0  0
  1 26  1  0  0  0  0
  1 27  1  0  0  0  0
  2 24  1  0  0  0  0
  2  3  1  0  0  0  0
  2 28  1  0  0  0  0
  3  4  1  0  0  0  0
  3 29  1  0  0  0  0
  3 30  1  0  0  0  0
  4  5  1  0  0  0  0
  4 21  1  0  0  0  0
  5 20  1  0  0  0  0
  5  6  2  0  0  0  0
  6  7  1  0  0  0  0
  6 31  1  0  0  0  0
  7  8  2  0  0  0  0
  7 32  1  0  0  0  0
  8  9  1  0  0  0  0
  8 19  1  0  0  0  0
  9 10  1  0  0  0  0
  9 33  1  0  0  0  0
  9 34  1  0  0  0  0
 10 11  1  0  0  0  0
 10 35  1  0  0  0  0
 11 12  2  0  0  0  0
 11 13  1  0  0  0  0
 13 14  1  0  0  0  0
 13 15  1  0  0  0  0
 13 36  1  0  0  0  0
 14 37  1  0  0  0  0
 14 38  1  0  0  0  0
 14 39  1  0  0  0  0
 15 16  1  0  0  0  0
 15 40  1  0  0  0  0
 16 17  1  0  0  0  0
 16 18  2  0  0  0  0
 17 41  1  0  0  0  0
 17 42  1  0  0  0  0
 19 20  2  0  0  0  0
 19 43  1  0  0  0  0
 21 22  1  0  0  0  0
 21 44  1  0  0  0  0
 21 45  1  0  0  0  0
 22 23  1  0  0  0  0
 22 24  1  0  0  0  0
 22 46  1  0  0  0  0
 23 47  1  0  0  0  0
 23 48  1  0  0  0  0
 23 49  1  0  0  0  0
M  END
> <s_m_source_file>
AV-unprocessed.smi

> <i_m_source_file_index>
2121

> <i_lp_mmshare_version>
43012

> <i_f3d_flags>
0

> <s_epik_input>
W0NIM11bQ0BASF0xW0NIMl1OKFtDSDJdW0NASF0oTzEpW0NIM10pYzJbY0hdW2NIXWMoW2NIXW4yKVtDSDJdW05IXUMoPU8pW0NASF0oW0NIM10pW05IXUMoPU8pW05IMl0=

> <s_epik_cmdline>
J2VwaWtfcHl0aG9uJywgJy1waCcsICc3LjAnLCAnLXRuJywgJzgnLCAnLW1hJywgJzIwMCcsICctbWV0YWxfYmluZGluZycsICctaW1hZScsICc8aW5maWxlLm1hZT4nLCAnLW9tYWUnLCAnPG91dGZpbGUubWFlPic=

> <r_lp_tautomer_probability>
1

> <r_epik_Ionization_Penalty>
0.0063713

> <r_epik_Ionization_Penalty_Charging>
0

> <r_epik_Ionization_Penalty_Neutral>
0.0063713

> <r_epik_State_Penalty>
0.00467069

> <r_epik_Charging_Adjusted_Penalty>
0.00467069

> <i_epik_Tot_Q>
0

> <i_epik_Tot_abs_Q>
0

> <r_epik_Metal_State_Penalty>
-0

> <b_epik_Metal_Only>
0

> <s_lp_Force_Field>
OPLS_2005

> <r_lp_Energy>
8.02945

> <b_lp_Chiralities_Consistent>
1

> <s_lp_Variant>
AV-unprocessed.smi:2121-4

> <Gold.Version>
5.8.1

> <Gold.Id.Protein>
6NUR|6NUR_protein|mol2

> <Gold.PLP.Fitness>
53.7287

> <Gold.PLP.PLP>
-44.7527

> <Gold.PLP.part.hbond>
-5.4789

> <Gold.PLP.part.metal>
0.0000

> <Gold.PLP.part.buried>
-1.7692

> <Gold.PLP.part.nonpolar>
-36.3636

> <Gold.PLP.part.repulsive>
0.1455

> <Gold.PLP.ligand.clash>
0.0000

> <Gold.PLP.ligand.torsion>
1.4023

> <Gold.PLP.Chemscore.Hbond>
3.7590

> <Gold.PLP.Chemscore.CHOScore>
0.0000

> <Gold.PLP.Chemscore.Metal>
0.0000

> <Gold.Chemscore.Hbonds>
donor molecule, donor type, donor heavy atom, donor atom, acceptor molecule, acceptor atom, score
      L1  H    10    35       P1  7948  0.50
      L1  H    15    40       P1  7948  0.55
      L1  H    17    41       P1 10747  1.00
      P1  H  7997  8009       L1    20  0.74
      P1  H 10752 10765       L1    12  0.82

> <Gold.PLP.Chemscore.Internal.Correction>
0.5037

> <Gold.Rescore>
     Score         DG    S(hbond)    S(metal)    S(lipo)     H(rot)  DE(clash)    DE(int)     intcor
     16.18     -19.17       2.59        0.00      99.69       2.58       0.21       2.78       ----

> <Gold.Chemscore.Fitness>
16.1798

> <Gold.Chemscore.DG>
-19.1682

> <Gold.Chemscore.ZeroCoef>
-5.4800

> <Gold.Chemscore.Hbond>
2.5867

> <Gold.Chemscore.Metal>
0.0000

> <Gold.Chemscore.Lipo>
99.6850

> <Gold.Chemscore.Internal_Hbond>
0.0000

> <Gold.Chemscore.DEClash>
0.2098

> <Gold.Chemscore.DEInternal>
2.7786

> <Gold.Chemscore.Rot>
2.5838

> <Gold.Chemscore.Internal.Correction>
   9.000000E+99

> <Gold.Chemscore.Hbonds>
donor molecule, donor type, donor heavy atom, donor atom, acceptor molecule, acceptor atom, score
      L1  H    10    35       P1  7948  0.02
      L1  H    15    40       P1  7948  0.03
      L1  H    17    41       P1 10747  0.34
      P1  H  7997  8009       L1    20  0.17
      P1  H 10752 10765       L1    12  0.20

> <Gold.Chemscore.Hbond.Weighted>
-8.6395

> <Gold.Chemscore.Metal.Weighted>
-0.0000

> <Gold.Chemscore.Lipo.Weighted>
-11.6631

> <Gold.Chemscore.Internal_Hbond.Weighted>
0.0000

> <Gold.Chemscore.DEClash.Weighted>
0.2098

> <Gold.Chemscore.DEInternal.Weighted>
2.7786

> <Gold.Chemscore.Rot.Weighted>
6.6145

> <Gold.Chemscore.Internal.Correction.Weighted>
   9.000000E+99

> <Gold.Protein.RotatedTorsions>
[ 6907 6896 6895 6894 ] final -163.39 input  -60.11 | X-H torsion
[ 7974 7965 7964 7962 ] final  -80.40 input  175.53 | X-H torsion
[ 8008 7997 7996 7995 ] final  167.41 input   59.86 | X-H torsion
[ 10167 10162 10161 10158 ] final   75.28 input  -65.29 | X-H torsion
[ 10718 10713 10712 10709 ] final    3.88 input   66.30 | X-H torsion
[ 10763 10752 10751 10750 ] final -131.33 input  -60.55 | X-H torsion
[ 11005 11000 10999 10996 ] final   36.03 input  -57.11 | X-H torsion

> <Gold.Protein.ActiveResidues>
 VAL166  LYS551  ARG553  GLY616  TRP617  ASP618  TYR619  PRO620  LYS621  CYS622 
 ASP623  PHE694  ASN695  SER759  ASP760  ASP761  ALA762  ILE779  LEU786  VAL792 
 PHE793  MET794  SER795  GLU796  ALA797  LYS798  CYS799  TRP800  GLU811  SER814 

> <Gold.Protein.RotatedAtoms>
  151.3953  133.3775  159.2725 H   0  0  0  0  0  0  0  0  0  0  0  0  # atno 6907 bound_to 6896
  150.9474  134.8879  159.7661 H   0  0  0  0  0  0  0  0  0  0  0  0  # atno 6908 bound_to 6896
  152.5097  134.3906  159.9435 H   0  0  0  0  0  0  0  0  0  0  0  0  # atno 6909 bound_to 6896
  145.5605  140.9483  143.1450 H   0  0  0  0  0  0  0  0  0  0  0  0  # atno 7974 bound_to 7965
  156.1636  140.1618  156.8569 H   0  0  0  0  0  0  0  0  0  0  0  0  # atno 8008 bound_to 7997
  154.5185  140.0784  156.8163 H   0  0  0  0  0  0  0  0  0  0  0  0  # atno 8009 bound_to 7997
  155.3656  140.3397  155.4244 H   0  0  0  0  0  0  0  0  0  0  0  0  # atno 8010 bound_to 7997
  140.0046  144.5660  150.7709 H   0  0  0  0  0  0  0  0  0  0  0  0  # atno 10167 bound_to 10162
  156.8843  130.5665  149.5652 H   0  0  0  0  0  0  0  0  0  0  0  0  # atno 10718 bound_to 10713
  154.8751  135.3833  154.4229 H   0  0  0  0  0  0  0  0  0  0  0  0  # atno 10763 bound_to 10752
  153.4931  135.7030  153.5878 H   0  0  0  0  0  0  0  0  0  0  0  0  # atno 10764 bound_to 10752
  153.4243  135.3894  155.2098 H   0  0  0  0  0  0  0  0  0  0  0  0  # atno 10765 bound_to 10752
  140.2367  134.3463  155.7942 H   0  0  0  0  0  0  0  0  0  0  0  0  # atno 11005 bound_to 11000
  144.7485  139.7255  143.7282 LP  0  0  0  0  0  0  0  0  0  0  0  0  # atno 17320 bound_to 7965
  146.1855  139.5068  142.9839 LP  0  0  0  0  0  0  0  0  0  0  0  0  # atno 17321 bound_to 7965
  140.7405  143.2806  151.3611 LP  0  0  0  0  0  0  0  0  0  0  0  0  # atno 17342 bound_to 10162
  139.6247  144.0837  152.2424 LP  0  0  0  0  0  0  0  0  0  0  0  0  # atno 17343 bound_to 10162
  156.0661  130.5704  150.9291 LP  0  0  0  0  0  0  0  0  0  0  0  0  # atno 17370 bound_to 10713
  157.6121  131.0935  150.8775 LP  0  0  0  0  0  0  0  0  0  0  0  0  # atno 17371 bound_to 10713
  141.2214  133.7276  156.8819 LP  0  0  0  0  0  0  0  0  0  0  0  0  # atno 17394 bound_to 11000
  140.1695  134.9110  157.2815 LP  0  0  0  0  0  0  0  0  0  0  0  0  # atno 17395 bound_to 11000

$$$$
