AV-unprocessed.smi:1513|AV-procd|sdf|6111|dock3
  -GOLD-   22720 6243D 1   1.00000     0.00000
 Structure written by MMmdl.
 33 34  0  0  0  0  0  0  0  0  2 V2000
  146.8330  142.9101  160.3773 N   0  5  0  0  0  0  0  0  0  0  0  0
  146.8322  142.8327  158.7669 S   0  0  0  0  0  0  0  0  0  0  0  0
  146.9997  141.4718  158.2343 O   0  0  0  0  0  0  0  0  0  0  0  0
  145.8288  143.7072  158.1403 O   0  0  0  0  0  0  0  0  0  0  0  0
  148.3492  143.6131  158.5460 N   0  0  0  0  0  0  0  0  0  0  0  0
  149.4437  142.9200  157.8687 C   0  0  0  0  0  0  0  0  0  0  0  0
  150.7711  143.0646  158.5976 C   0  0  0  0  0  0  0  0  0  0  0  0
  151.1590  144.3222  159.1053 C   0  0  0  0  0  0  0  0  0  0  0  0
  152.3850  144.4378  159.7860 C   0  0  0  0  0  0  0  0  0  0  0  0
  153.1782  143.2847  159.9330 C   0  0  0  0  0  0  0  0  0  0  0  0
  152.8219  142.0753  159.4524 N   0  0  0  0  0  0  0  0  0  0  0  0
  151.6421  141.9621  158.7950 C   0  0  0  0  0  0  0  0  0  0  0  0
  151.3021  140.6967  158.2915 N   0  0  0  0  0  0  0  0  0  0  0  0
  151.1795  140.6573  156.8401 C   0  0  0  0  0  0  0  0  0  0  0  0
  150.6334  139.2888  156.3970 C   0  0  0  0  0  0  0  0  0  0  0  0
  151.4677  138.2521  156.9087 O   0  0  0  0  0  0  0  0  0  0  0  0
  151.5154  138.2578  158.3332 C   0  0  0  0  0  0  0  0  0  0  0  0
  152.0938  139.5964  158.8233 C   0  0  0  0  0  0  0  0  0  0  0  0
  146.7580  143.8973  160.6504 H   0  0  0  0  0  0  0  0  0  0  0  0
  148.2767  144.6109  158.3508 H   0  0  0  0  0  0  0  0  0  0  0  0
  149.1777  141.8684  157.7579 H   0  0  0  0  0  0  0  0  0  0  0  0
  149.5583  143.3174  156.8600 H   0  0  0  0  0  0  0  0  0  0  0  0
  150.5271  145.1888  158.9772 H   0  0  0  0  0  0  0  0  0  0  0  0
  152.7085  145.3873  160.1859 H   0  0  0  0  0  0  0  0  0  0  0  0
  154.1250  143.3343  160.4501 H   0  0  0  0  0  0  0  0  0  0  0  0
  150.5152  141.4529  156.5008 H   0  0  0  0  0  0  0  0  0  0  0  0
  152.1549  140.8330  156.3846 H   0  0  0  0  0  0  0  0  0  0  0  0
  149.6080  139.1488  156.7413 H   0  0  0  0  0  0  0  0  0  0  0  0
  150.6140  139.2266  155.3091 H   0  0  0  0  0  0  0  0  0  0  0  0
  150.5169  138.0928  158.7418 H   0  0  0  0  0  0  0  0  0  0  0  0
  152.1400  137.4314  158.6722 H   0  0  0  0  0  0  0  0  0  0  0  0
  153.1304  139.6950  158.4978 H   0  0  0  0  0  0  0  0  0  0  0  0
  152.0899  139.6314  159.9133 H   0  0  0  0  0  0  0  0  0  0  0  0
  1  2  1  0  0  0  0
  1 19  1  0  0  0  0
  2  3  2  0  0  0  0
  2  4  2  0  0  0  0
  2  5  1  0  0  0  0
  5  6  1  0  0  0  0
  5 20  1  0  0  0  0
  6  7  1  0  0  0  0
  6 21  1  0  0  0  0
  6 22  1  0  0  0  0
  7 12  1  0  0  0  0
  7  8  2  0  0  0  0
  8  9  1  0  0  0  0
  8 23  1  0  0  0  0
  9 10  2  0  0  0  0
  9 24  1  0  0  0  0
 10 11  1  0  0  0  0
 10 25  1  0  0  0  0
 11 12  2  0  0  0  0
 12 13  1  0  0  0  0
 13 18  1  0  0  0  0
 13 14  1  0  0  0  0
 14 15  1  0  0  0  0
 14 26  1  0  0  0  0
 14 27  1  0  0  0  0
 15 16  1  0  0  0  0
 15 28  1  0  0  0  0
 15 29  1  0  0  0  0
 16 17  1  0  0  0  0
 17 18  1  0  0  0  0
 17 30  1  0  0  0  0
 17 31  1  0  0  0  0
 18 32  1  0  0  0  0
 18 33  1  0  0  0  0
M  CHG  1   1  -1
M  END
> <s_m_source_file>
AV-unprocessed.smi

> <i_m_source_file_index>
1513

> <i_lp_mmshare_version>
43012

> <i_f3d_flags>
0

> <s_epik_input>
W05IMl1TKD1PKSg9TylbTkhdW0NIMl1jMVtjSF1bY0hdW2NIXW5jMU4yW0NIMl1bQ0gyXU9bQ0gyXVtDSDJdMg==

> <s_epik_cmdline>
J2VwaWtfcHl0aG9uJywgJy1waCcsICc3LjAnLCAnLXRuJywgJzgnLCAnLW1hJywgJzIwMCcsICctbWV0YWxfYmluZGluZycsICctaW1hZScsICc8aW5maWxlLm1hZT4nLCAnLW9tYWUnLCAnPG91dGZpbGUubWFlPic=

> <r_lp_tautomer_probability>
1

> <r_epik_Ionization_Penalty>
2.76303

> <r_epik_Ionization_Penalty_Charging>
2.75358

> <r_epik_Ionization_Penalty_Neutral>
0.00945191

> <r_epik_State_Penalty>
2.93489

> <r_epik_Charging_Adjusted_Penalty>
5.68847

> <i_epik_Tot_Q>
-1

> <i_epik_Tot_abs_Q>
1

> <r_epik_Metal_State_Penalty>
0.838637

> <b_epik_Metal_Only>
1

> <s_lp_Force_Field>
OPLS_2005

> <r_lp_Energy>
17.6636

> <b_lp_Chiralities_Consistent>
1

> <s_lp_Variant>
AV-unprocessed.smi:1513-4

> <Gold.Version>
5.8.1

> <Gold.Id.Protein>
6NUR|6NUR_protein|mol2

> <Gold.PLP.Fitness>
37.8330

> <Gold.PLP.PLP>
-25.6000

> <Gold.PLP.part.hbond>
-4.3848

> <Gold.PLP.part.metal>
0.0000

> <Gold.PLP.part.buried>
-2.4459

> <Gold.PLP.part.nonpolar>
-19.2830

> <Gold.PLP.part.repulsive>
0.1845

> <Gold.PLP.ligand.clash>
0.0000

> <Gold.PLP.ligand.torsion>
0.7216

> <Gold.PLP.Chemscore.Hbond>
4.4944

> <Gold.PLP.Chemscore.CHOScore>
0.0000

> <Gold.PLP.Chemscore.Metal>
0.0000

> <Gold.Chemscore.Hbonds>
donor molecule, donor type, donor heavy atom, donor atom, acceptor molecule, acceptor atom, score
      L1  H     5    20       P1  8029  1.00
      P1  H  6933  6944       L1     1  1.78
      P1  H  6934  6946       L1     1  1.41

> <Gold.PLP.Chemscore.Internal.Correction>
0.1929

> <Gold.Rescore>
     Score         DG    S(hbond)    S(metal)    S(lipo)     H(rot)  DE(clash)    DE(int)     intcor
     11.54     -12.68       1.60        0.00      69.32       2.45       0.17       0.97       ----

> <Gold.Chemscore.Fitness>
11.5421

> <Gold.Chemscore.DG>
-12.6756

> <Gold.Chemscore.ZeroCoef>
-5.4800

> <Gold.Chemscore.Hbond>
1.6018

> <Gold.Chemscore.Metal>
0.0000

> <Gold.Chemscore.Lipo>
69.3158

> <Gold.Chemscore.Internal_Hbond>
0.0000

> <Gold.Chemscore.DEClash>
0.1669

> <Gold.Chemscore.DEInternal>
0.9666

> <Gold.Chemscore.Rot>
2.4470

> <Gold.Chemscore.Internal.Correction>
   9.000000E+99

> <Gold.Chemscore.Hbonds>
donor molecule, donor type, donor heavy atom, donor atom, acceptor molecule, acceptor atom, score
      L1  H     5    20       P1  8029  0.75
      P1  H  6933  6944       L1     1  0.24
      P1  H  6934  6946       L1     1  0.11

> <Gold.Chemscore.Hbond.Weighted>
-5.3499

> <Gold.Chemscore.Metal.Weighted>
-0.0000

> <Gold.Chemscore.Lipo.Weighted>
-8.1100

> <Gold.Chemscore.Internal_Hbond.Weighted>
0.0000

> <Gold.Chemscore.DEClash.Weighted>
0.1669

> <Gold.Chemscore.DEInternal.Weighted>
0.9666

> <Gold.Chemscore.Rot.Weighted>
6.2642

> <Gold.Chemscore.Internal.Correction.Weighted>
   9.000000E+99

> <Gold.Protein.RotatedTorsions>
[ 6907 6896 6895 6894 ] final  -80.70 input  -60.11 | X-H torsion
[ 7974 7965 7964 7962 ] final -172.74 input  175.53 | X-H torsion
[ 8008 7997 7996 7995 ] final   64.58 input   59.86 | X-H torsion
[ 10167 10162 10161 10158 ] final   91.52 input  -65.29 | X-H torsion
[ 10718 10713 10712 10709 ] final  -36.40 input   66.30 | X-H torsion
[ 10763 10752 10751 10750 ] final  -25.68 input  -60.55 | X-H torsion
[ 11005 11000 10999 10996 ] final -146.10 input  -57.11 | X-H torsion

> <Gold.Protein.ActiveResidues>
 VAL166  LYS551  ARG553  GLY616  TRP617  ASP618  TYR619  PRO620  LYS621  CYS622 
 ASP623  PHE694  ASN695  SER759  ASP760  ASP761  ALA762  ILE779  LEU786  VAL792 
 PHE793  MET794  SER795  GLU796  ALA797  LYS798  CYS799  TRP800  GLU811  SER814 

> <Gold.Protein.RotatedAtoms>
  150.6924  134.3929  159.5084 H   0  0  0  0  0  0  0  0  0  0  0  0  # atno 6907 bound_to 6896
  152.1715  134.8827  160.0543 H   0  0  0  0  0  0  0  0  0  0  0  0  # atno 6908 bound_to 6896
  151.9852  133.3737  159.4160 H   0  0  0  0  0  0  0  0  0  0  0  0  # atno 6909 bound_to 6896
  144.7143  140.1726  143.6366 H   0  0  0  0  0  0  0  0  0  0  0  0  # atno 7974 bound_to 7965
  155.6482  140.3497  155.4739 H   0  0  0  0  0  0  0  0  0  0  0  0  # atno 8008 bound_to 7997
  155.9870  140.1186  157.0697 H   0  0  0  0  0  0  0  0  0  0  0  0  # atno 8009 bound_to 7997
  154.4208  140.1127  156.5499 H   0  0  0  0  0  0  0  0  0  0  0  0  # atno 8010 bound_to 7997
  139.8367  144.6661  150.9333 H   0  0  0  0  0  0  0  0  0  0  0  0  # atno 10167 bound_to 10162
  156.3273  130.4274  149.7904 H   0  0  0  0  0  0  0  0  0  0  0  0  # atno 10718 bound_to 10713
  153.7038  135.6955  153.5056 H   0  0  0  0  0  0  0  0  0  0  0  0  # atno 10763 bound_to 10752
  153.2323  135.4333  155.0608 H   0  0  0  0  0  0  0  0  0  0  0  0  # atno 10764 bound_to 10752
  154.8336  135.3487  154.6576 H   0  0  0  0  0  0  0  0  0  0  0  0  # atno 10765 bound_to 10752
  140.7854  134.3030  157.5031 H   0  0  0  0  0  0  0  0  0  0  0  0  # atno 11005 bound_to 11000
  145.8929  139.2386  143.1538 LP  0  0  0  0  0  0  0  0  0  0  0  0  # atno 17320 bound_to 7965
  145.9885  140.8622  143.0078 LP  0  0  0  0  0  0  0  0  0  0  0  0  # atno 17321 bound_to 7965
  140.7802  143.3951  151.1244 LP  0  0  0  0  0  0  0  0  0  0  0  0  # atno 17342 bound_to 10162
  139.7600  143.8649  152.3098 LP  0  0  0  0  0  0  0  0  0  0  0  0  # atno 17343 bound_to 10162
  156.5190  130.8206  151.3196 LP  0  0  0  0  0  0  0  0  0  0  0  0  # atno 17370 bound_to 10713
  157.7424  130.9889  150.2512 LP  0  0  0  0  0  0  0  0  0  0  0  0  # atno 17371 bound_to 10713
  139.8737  134.9343  156.3604 LP  0  0  0  0  0  0  0  0  0  0  0  0  # atno 17394 bound_to 11000
  140.9441  133.7494  156.0185 LP  0  0  0  0  0  0  0  0  0  0  0  0  # atno 17395 bound_to 11000

$$$$
