AV-unprocessed.smi:3334|AV-procd|sdf|12835|dock3
  -GOLD-   2272019213D 1   1.00000     0.00000
 Structure written by MMmdl.
 41 42  0  0  0  0  0  0  0  0  1 V2000
  153.9698  141.1630  160.4074 C   0  0  0  0  0  0  0  0  0  0  0  0
  153.5845  142.6332  160.6235 C   0  0  0  0  0  0  0  0  0  0  0  0
  153.0860  142.9237  162.0465 C   0  0  0  0  0  0  0  0  0  0  0  0
  152.6290  143.1202  159.5802 C   0  0  0  0  0  0  0  0  0  0  0  0
  152.0574  142.3256  158.6708 N   0  0  0  0  0  0  0  0  0  0  0  0
  151.2239  143.0210  157.7886 C   0  0  0  0  0  0  0  0  0  0  0  0
  150.5081  142.2893  156.6886 C   0  0  0  0  0  0  0  0  0  0  0  0
  150.8863  140.8007  156.5941 C   0  0  0  0  0  0  0  0  0  0  0  0
  149.7885  140.0018  156.0635 N   0  0  0  0  0  0  0  0  0  0  0  0
  149.7540  139.4569  154.8402 C   0  0  0  0  0  0  0  0  0  0  0  0
  150.6482  139.6063  154.0076 O   0  0  0  0  0  0  0  0  0  0  0  0
  148.5191  138.6128  154.5098 C   0  0  0  0  0  0  0  0  0  0  0  0
  147.2161  139.4366  154.4657 C   0  0  2  0  0  0  0  0  0  0  0  0
  147.3773  140.7160  153.6863 C   0  0  0  0  0  0  0  0  0  0  0  0
  146.9513  141.7847  154.3561 C   0  0  0  0  0  0  0  0  0  0  0  0
  146.4191  141.4347  155.7178 C   0  0  0  0  0  0  0  0  0  0  0  0
  146.7161  139.9246  155.8520 C   0  0  0  0  0  0  0  0  0  0  0  0
  151.1655  144.3668  158.0517 C   0  0  0  0  0  0  0  0  0  0  0  0
  152.1594  144.8082  159.4126 S   0  0  0  0  0  0  0  0  0  0  0  0
  154.4116  141.0194  159.4210 H   0  0  0  0  0  0  0  0  0  0  0  0
  153.1017  140.5074  160.4832 H   0  0  0  0  0  0  0  0  0  0  0  0
  154.7005  140.8343  161.1468 H   0  0  0  0  0  0  0  0  0  0  0  0
  154.4994  143.2130  160.4958 H   0  0  0  0  0  0  0  0  0  0  0  0
  152.8980  143.9885  162.1868 H   0  0  0  0  0  0  0  0  0  0  0  0
  153.8217  142.6171  162.7903 H   0  0  0  0  0  0  0  0  0  0  0  0
  152.1586  142.3904  162.2580 H   0  0  0  0  0  0  0  0  0  0  0  0
  149.4297  142.3771  156.8269 H   0  0  0  0  0  0  0  0  0  0  0  0
  150.7187  142.7667  155.7311 H   0  0  0  0  0  0  0  0  0  0  0  0
  151.7569  140.6777  155.9488 H   0  0  0  0  0  0  0  0  0  0  0  0
  151.1674  140.4334  157.5826 H   0  0  0  0  0  0  0  0  0  0  0  0
  149.0137  139.8219  156.6862 H   0  0  0  0  0  0  0  0  0  0  0  0
  148.6652  138.1021  153.5561 H   0  0  0  0  0  0  0  0  0  0  0  0
  148.4360  137.8323  155.2668 H   0  0  0  0  0  0  0  0  0  0  0  0
  146.4306  138.8625  153.9720 H   0  0  0  0  0  0  0  0  0  0  0  0
  147.7828  140.7320  152.6853 H   0  0  0  0  0  0  0  0  0  0  0  0
  146.9585  142.7982  153.9826 H   0  0  0  0  0  0  0  0  0  0  0  0
  146.9162  142.0201  156.4916 H   0  0  0  0  0  0  0  0  0  0  0  0
  145.3490  141.6396  155.7579 H   0  0  0  0  0  0  0  0  0  0  0  0
  145.8354  139.3694  156.1767 H   0  0  0  0  0  0  0  0  0  0  0  0
  147.4835  139.7752  156.6125 H   0  0  0  0  0  0  0  0  0  0  0  0
  150.6022  145.1239  157.5267 H   0  0  0  0  0  0  0  0  0  0  0  0
  1  2  1  0  0  0  0
  1 20  1  0  0  0  0
  1 21  1  0  0  0  0
  1 22  1  0  0  0  0
  2  3  1  0  0  0  0
  2  4  1  0  0  0  0
  2 23  1  0  0  0  0
  3 24  1  0  0  0  0
  3 25  1  0  0  0  0
  3 26  1  0  0  0  0
  4 19  1  0  0  0  0
  4  5  2  0  0  0  0
  5  6  1  0  0  0  0
  6  7  1  0  0  0  0
  6 18  2  0  0  0  0
  7  8  1  0  0  0  0
  7 27  1  0  0  0  0
  7 28  1  0  0  0  0
  8  9  1  0  0  0  0
  8 29  1  0  0  0  0
  8 30  1  0  0  0  0
  9 10  1  0  0  0  0
  9 31  1  0  0  0  0
 10 11  2  0  0  0  0
 10 12  1  0  0  0  0
 12 13  1  0  0  0  0
 12 32  1  0  0  0  0
 12 33  1  0  0  0  0
 13 17  1  0  0  0  0
 13 14  1  0  0  0  0
 13 34  1  0  0  0  0
 14 15  2  0  0  0  0
 14 35  1  0  0  0  0
 15 16  1  0  0  0  0
 15 36  1  0  0  0  0
 16 17  1  0  0  0  0
 16 37  1  0  0  0  0
 16 38  1  0  0  0  0
 17 39  1  0  0  0  0
 17 40  1  0  0  0  0
 18 19  1  0  0  0  0
 18 41  1  0  0  0  0
M  END
> <s_m_source_file>
AV-unprocessed.smi

> <i_m_source_file_index>
3334

> <i_lp_mmshare_version>
43012

> <i_f3d_flags>
0

> <s_epik_input>
W0NIM11bQ0hdKFtDSDNdKWMxbmMoW2NIXXMxKVtDSDJdW0NIMl1bTkhdQyg9TylbQ0gyXVtDQEBIXTJbQ0hdPVtDSF1bQ0gyXVtDSDJdMg==

> <s_epik_cmdline>
J2VwaWtfcHl0aG9uJywgJy1waCcsICc3LjAnLCAnLXRuJywgJzgnLCAnLW1hJywgJzIwMCcsICctbWV0YWxfYmluZGluZycsICctaW1hZScsICc8aW5maWxlLm1hZT4nLCAnLW9tYWUnLCAnPG91dGZpbGUubWFlPic=

> <r_epik_Ionization_Penalty>
0.000771592

> <r_epik_Ionization_Penalty_Charging>
0

> <r_epik_Ionization_Penalty_Neutral>
0.000771592

> <r_epik_State_Penalty>
0.000494253

> <r_epik_Charging_Adjusted_Penalty>
0.000494253

> <i_epik_Tot_Q>
0

> <i_epik_Tot_abs_Q>
0

> <r_epik_Metal_State_Penalty>
-0

> <b_epik_Metal_Only>
0

> <s_lp_Force_Field>
OPLS_2005

> <r_lp_Energy>
4.8696

> <b_lp_Chiralities_Consistent>
1

> <s_lp_Variant>
AV-unprocessed.smi:3334-1

> <Gold.Version>
5.8.1

> <Gold.Id.Protein>
6NUR|6NUR_protein|mol2

> <Gold.PLP.Fitness>
48.5547

> <Gold.PLP.PLP>
-43.8509

> <Gold.PLP.part.hbond>
-1.0000

> <Gold.PLP.part.metal>
0.0000

> <Gold.PLP.part.buried>
-3.6620

> <Gold.PLP.part.nonpolar>
-39.5176

> <Gold.PLP.part.repulsive>
0.2218

> <Gold.PLP.ligand.clash>
0.0000

> <Gold.PLP.ligand.torsion>
0.4415

> <Gold.PLP.Chemscore.Hbond>
1.0000

> <Gold.PLP.Chemscore.CHOScore>
0.7914

> <Gold.PLP.Chemscore.Metal>
0.0000

> <Gold.Chemscore.Hbonds>
donor molecule, donor type, donor heavy atom, donor atom, acceptor molecule, acceptor atom, score
      P1  H  7989  7998       L1    11  1.00
      L1  C    18    41       P1  8028  0.79
      L1  C    18    41       P1  8029  0.05

> <Gold.PLP.Chemscore.Internal.Correction>
0.2126

> <Gold.Rescore>
     Score         DG    S(hbond)    S(metal)    S(lipo)     H(rot)  DE(clash)    DE(int)     intcor
     18.54     -19.03       1.00        0.00     120.47       1.52       0.09       0.40       ----

> <Gold.Chemscore.Fitness>
18.5439

> <Gold.Chemscore.DG>
-19.0260

> <Gold.Chemscore.ZeroCoef>
-5.4800

> <Gold.Chemscore.Hbond>
0.9977

> <Gold.Chemscore.Metal>
0.0000

> <Gold.Chemscore.Lipo>
120.4709

> <Gold.Chemscore.Internal_Hbond>
0.0000

> <Gold.Chemscore.DEClash>
0.0859

> <Gold.Chemscore.DEInternal>
0.3963

> <Gold.Chemscore.Rot>
1.5162

> <Gold.Chemscore.Internal.Correction>
   9.000000E+99

> <Gold.Chemscore.Hbonds>
donor molecule, donor type, donor heavy atom, donor atom, acceptor molecule, acceptor atom, score
      P1  H  7989  7998       L1    11  0.99

> <Gold.Chemscore.Hbond.Weighted>
-3.3325

> <Gold.Chemscore.Metal.Weighted>
-0.0000

> <Gold.Chemscore.Lipo.Weighted>
-14.0951

> <Gold.Chemscore.Internal_Hbond.Weighted>
0.0000

> <Gold.Chemscore.DEClash.Weighted>
0.0859

> <Gold.Chemscore.DEInternal.Weighted>
0.3963

> <Gold.Chemscore.Rot.Weighted>
3.8815

> <Gold.Chemscore.Internal.Correction.Weighted>
   9.000000E+99

> <Gold.Protein.RotatedTorsions>
[ 6907 6896 6895 6894 ] final -131.14 input  -60.11 | X-H torsion
[ 7974 7965 7964 7962 ] final    9.01 input  175.53 | X-H torsion
[ 8008 7997 7996 7995 ] final   81.17 input   59.86 | X-H torsion
[ 10167 10162 10161 10158 ] final  -55.59 input  -65.29 | X-H torsion
[ 10718 10713 10712 10709 ] final   -2.09 input   66.30 | X-H torsion
[ 10763 10752 10751 10750 ] final  -79.99 input  -60.55 | X-H torsion
[ 11005 11000 10999 10996 ] final  141.99 input  -57.11 | X-H torsion

> <Gold.Protein.ActiveResidues>
 VAL166  LYS551  ARG553  GLY616  TRP617  ASP618  TYR619  PRO620  LYS621  CYS622 
 ASP623  PHE694  ASN695  SER759  ASP760  ASP761  ALA762  ILE779  LEU786  VAL792 
 PHE793  MET794  SER795  GLU796  ALA797  LYS798  CYS799  TRP800  GLU811  SER814 

> <Gold.Protein.RotatedAtoms>
  150.9476  133.6585  159.2777 H   0  0  0  0  0  0  0  0  0  0  0  0  # atno 6907 bound_to 6896
  151.3952  135.0961  159.9548 H   0  0  0  0  0  0  0  0  0  0  0  0  # atno 6908 bound_to 6896
  152.5096  133.8982  159.7482 H   0  0  0  0  0  0  0  0  0  0  0  0  # atno 6909 bound_to 6896
  146.2409  139.9847  142.8432 H   0  0  0  0  0  0  0  0  0  0  0  0  # atno 7974 bound_to 7965
  155.8935  140.3437  155.5974 H   0  0  0  0  0  0  0  0  0  0  0  0  # atno 8008 bound_to 7997
  155.7583  140.0829  157.2187 H   0  0  0  0  0  0  0  0  0  0  0  0  # atno 8009 bound_to 7997
  154.4036  140.1540  156.2790 H   0  0  0  0  0  0  0  0  0  0  0  0  # atno 8010 bound_to 7997
  140.6366  143.2485  151.5102 H   0  0  0  0  0  0  0  0  0  0  0  0  # atno 10167 bound_to 10162
  156.7959  130.5377  149.5728 H   0  0  0  0  0  0  0  0  0  0  0  0  # atno 10718 bound_to 10713
  154.5456  135.5676  153.6877 H   0  0  0  0  0  0  0  0  0  0  0  0  # atno 10763 bound_to 10752
  152.9975  135.6238  154.2443 H   0  0  0  0  0  0  0  0  0  0  0  0  # atno 10764 bound_to 10752
  154.2376  135.2863  155.2846 H   0  0  0  0  0  0  0  0  0  0  0  0  # atno 10765 bound_to 10752
  140.0442  134.9289  157.0900 H   0  0  0  0  0  0  0  0  0  0  0  0  # atno 11005 bound_to 11000
  145.1559  140.9647  143.4406 LP  0  0  0  0  0  0  0  0  0  0  0  0  # atno 17320 bound_to 7965
  145.0162  139.3465  143.6095 LP  0  0  0  0  0  0  0  0  0  0  0  0  # atno 17321 bound_to 7965
  139.5576  144.2236  152.1638 LP  0  0  0  0  0  0  0  0  0  0  0  0  # atno 17342 bound_to 10162
  140.1494  144.5128  150.6696 LP  0  0  0  0  0  0  0  0  0  0  0  0  # atno 17343 bound_to 10162
  156.1131  130.6055  151.0078 LP  0  0  0  0  0  0  0  0  0  0  0  0  # atno 17370 bound_to 10713
  157.6578  131.0886  150.7908 LP  0  0  0  0  0  0  0  0  0  0  0  0  # atno 17371 bound_to 10713
  140.4019  134.2073  155.7163 LP  0  0  0  0  0  0  0  0  0  0  0  0  # atno 17394 bound_to 11000
  141.1899  133.8229  157.0940 LP  0  0  0  0  0  0  0  0  0  0  0  0  # atno 17395 bound_to 11000

$$$$
