AV-unprocessed.smi:2855|AV-procd|sdf|10977|dock10
  -GOLD-   2272015433D 1   1.00000     0.00000
 Structure written by MMmdl.
 47 48  0  0  0  0  0  0  0  0  1 V2000
  147.3930  139.9910  153.1941 C   0  0  0  0  0  0  0  0  0  0  0  0
  148.2005  139.8219  154.4890 C   0  0  2  0  0  0  0  0  0  0  0  0
  148.0275  141.0302  155.4225 C   0  0  0  0  0  0  0  0  0  0  0  0
  148.8341  140.8682  156.7206 C   0  0  0  0  0  0  0  0  0  0  0  0
  150.3443  140.6409  156.4574 C   0  0  1  0  0  0  0  0  0  0  0  0
  151.1652  140.5074  157.7787 C   0  0  0  0  0  0  0  0  0  0  0  0
  151.4500  141.8705  158.4383 C   0  0  0  0  0  0  0  0  0  0  0  0
  152.5019  139.7661  157.5802 C   0  0  0  0  0  0  0  0  0  0  0  0
  150.5354  139.4464  155.4795 C   0  0  1  0  0  0  0  0  0  0  0  0
  150.2403  138.1763  156.1425 N   0  0  0  0  0  0  0  0  0  0  0  0
  150.7642  136.9834  155.8250 C   0  0  0  0  0  0  0  0  0  0  0  0
  151.5188  136.8051  154.8684 O   0  0  0  0  0  0  0  0  0  0  0  0
  150.3664  135.8081  156.7263 C   0  0  0  0  0  0  0  0  0  0  0  0
  150.0521  134.6003  155.9505 N   0  0  0  0  0  0  0  0  0  0  0  0
  149.7502  134.6908  154.5991 C   0  0  0  0  0  0  0  0  0  0  0  0
  149.4631  133.6166  153.8261 C   0  0  0  0  0  0  0  0  0  0  0  0
  149.4594  132.2744  154.3981 C   0  0  0  0  0  0  0  0  0  0  0  0
  149.2117  131.2413  153.7805 O   0  0  0  0  0  0  0  0  0  0  0  0
  149.7700  132.2244  155.7597 N   0  0  0  0  0  0  0  0  0  0  0  0
  150.0675  133.3269  156.5621 C   0  0  0  0  0  0  0  0  0  0  0  0
  150.3319  133.1712  157.7541 O   0  0  0  0  0  0  0  0  0  0  0  0
  149.6945  139.5978  154.1957 C   0  0  0  0  0  0  0  0  0  0  0  0
  149.7822  131.3154  156.1988 H   0  0  0  0  0  0  0  0  0  0  0  0
  147.7249  140.8632  152.6302 H   0  0  0  0  0  0  0  0  0  0  0  0
  146.3312  140.1167  153.4074 H   0  0  0  0  0  0  0  0  0  0  0  0
  147.4982  139.1182  152.5491 H   0  0  0  0  0  0  0  0  0  0  0  0
  147.8142  138.9395  155.0009 H   0  0  0  0  0  0  0  0  0  0  0  0
  148.3436  141.9407  154.9113 H   0  0  0  0  0  0  0  0  0  0  0  0
  146.9726  141.1641  155.6648 H   0  0  0  0  0  0  0  0  0  0  0  0
  148.6775  141.7644  157.3186 H   0  0  0  0  0  0  0  0  0  0  0  0
  148.4289  140.0385  157.3014 H   0  0  0  0  0  0  0  0  0  0  0  0
  150.7132  141.5288  155.9415 H   0  0  0  0  0  0  0  0  0  0  0  0
  150.5800  139.9264  158.4928 H   0  0  0  0  0  0  0  0  0  0  0  0
  151.9485  142.5498  157.7462 H   0  0  0  0  0  0  0  0  0  0  0  0
  152.0945  141.7577  159.3106 H   0  0  0  0  0  0  0  0  0  0  0  0
  150.5396  142.3537  158.7907 H   0  0  0  0  0  0  0  0  0  0  0  0
  153.1149  140.2508  156.8199 H   0  0  0  0  0  0  0  0  0  0  0  0
  152.3554  138.7279  157.2846 H   0  0  0  0  0  0  0  0  0  0  0  0
  153.0790  139.7427  158.5049 H   0  0  0  0  0  0  0  0  0  0  0  0
  151.5782  139.4430  155.1596 H   0  0  0  0  0  0  0  0  0  0  0  0
  149.6209  138.2190  156.9389 H   0  0  0  0  0  0  0  0  0  0  0  0
  151.1576  135.5908  157.4473 H   0  0  0  0  0  0  0  0  0  0  0  0
  149.5078  136.1168  157.3241 H   0  0  0  0  0  0  0  0  0  0  0  0
  149.7455  135.6649  154.1307 H   0  0  0  0  0  0  0  0  0  0  0  0
  149.2366  133.7510  152.7782 H   0  0  0  0  0  0  0  0  0  0  0  0
  149.8239  138.7200  153.5609 H   0  0  0  0  0  0  0  0  0  0  0  0
  150.0772  140.4425  153.6214 H   0  0  0  0  0  0  0  0  0  0  0  0
  1  2  1  0  0  0  0
  1 24  1  0  0  0  0
  1 25  1  0  0  0  0
  1 26  1  0  0  0  0
  2 22  1  0  0  0  0
  2  3  1  0  0  0  0
  2 27  1  0  0  0  0
  3  4  1  0  0  0  0
  3 28  1  0  0  0  0
  3 29  1  0  0  0  0
  4  5  1  0  0  0  0
  4 30  1  0  0  0  0
  4 31  1  0  0  0  0
  5  6  1  0  0  0  0
  5  9  1  0  0  0  0
  5 32  1  0  0  0  0
  6  7  1  0  0  0  0
  6  8  1  0  0  0  0
  6 33  1  0  0  0  0
  7 34  1  0  0  0  0
  7 35  1  0  0  0  0
  7 36  1  0  0  0  0
  8 37  1  0  0  0  0
  8 38  1  0  0  0  0
  8 39  1  0  0  0  0
  9 10  1  0  0  0  0
  9 22  1  0  0  0  0
  9 40  1  0  0  0  0
 10 11  1  0  0  0  0
 10 41  1  0  0  0  0
 11 12  2  0  0  0  0
 11 13  1  0  0  0  0
 13 14  1  0  0  0  0
 13 42  1  0  0  0  0
 13 43  1  0  0  0  0
 14 20  1  0  0  0  0
 14 15  1  0  0  0  0
 15 16  2  0  0  0  0
 15 44  1  0  0  0  0
 16 17  1  0  0  0  0
 16 45  1  0  0  0  0
 17 18  2  0  0  0  0
 17 19  1  0  0  0  0
 19 23  1  0  0  0  0
 19 20  1  0  0  0  0
 20 21  2  0  0  0  0
 22 46  1  0  0  0  0
 22 47  1  0  0  0  0
M  END
> <s_m_source_file>
AV-unprocessed.smi

> <i_m_source_file_index>
2855

> <i_lp_mmshare_version>
43012

> <i_f3d_flags>
0

> <s_epik_input>
W0NIM11bQ0BASF0xW0NIMl1bQ0gyXVtDQEBIXShbQ0hdKFtDSDNdKVtDSDNdKVtDQEhdKFtDSDJdMSlbTkhdQyg9TylbQ0gyXW4yW2NIXVtjSF1jKD1PKVtuSF1jMj1P

> <s_epik_cmdline>
J2VwaWtfcHl0aG9uJywgJy1waCcsICc3LjAnLCAnLXRuJywgJzgnLCAnLW1hJywgJzIwMCcsICctbWV0YWxfYmluZGluZycsICctaW1hZScsICc8aW5maWxlLm1hZT4nLCAnLW9tYWUnLCAnPG91dGZpbGUubWFlPic=

> <r_lp_tautomer_probability>
0.999537

> <r_epik_Ionization_Penalty>
0.00306256

> <r_epik_Ionization_Penalty_Charging>
0.00306254

> <r_epik_Ionization_Penalty_Neutral>
2.0223e-08

> <r_epik_State_Penalty>
0.0021533

> <r_epik_Charging_Adjusted_Penalty>
0.00521583

> <i_epik_Tot_Q>
0

> <i_epik_Tot_abs_Q>
0

> <r_epik_Metal_State_Penalty>
0.362116

> <b_epik_Metal_Only>
0

> <s_lp_Force_Field>
OPLS_2005

> <r_lp_Energy>
12.8991

> <b_lp_Chiralities_Consistent>
1

> <s_lp_Variant>
AV-unprocessed.smi:2855-1

> <Gold.Version>
5.8.1

> <Gold.Id.Protein>
6NUR|6NUR_protein|mol2

> <Gold.PLP.Fitness>
35.4870

> <Gold.PLP.PLP>
-29.2485

> <Gold.PLP.part.hbond>
-2.0000

> <Gold.PLP.part.metal>
0.0000

> <Gold.PLP.part.buried>
-1.2147

> <Gold.PLP.part.nonpolar>
-26.2686

> <Gold.PLP.part.repulsive>
0.2132

> <Gold.PLP.ligand.clash>
0.0000

> <Gold.PLP.ligand.torsion>
1.3275

> <Gold.PLP.Chemscore.Hbond>
2.0000

> <Gold.PLP.Chemscore.CHOScore>
0.9489

> <Gold.PLP.Chemscore.Metal>
0.0000

> <Gold.Chemscore.Hbonds>
donor molecule, donor type, donor heavy atom, donor atom, acceptor molecule, acceptor atom, score
      P1  H  6896  6909       L1    21  1.00
      P1  H 10752 10765       L1    12  1.00
      L1  C    15    44       P1  7948  0.93

> <Gold.PLP.Chemscore.Internal.Correction>
0.0468

> <Gold.Rescore>
     Score         DG    S(hbond)    S(metal)    S(lipo)     H(rot)  DE(clash)    DE(int)     intcor
     12.73     -15.30       1.98        0.00      67.92       1.85       0.09       2.47       ----

> <Gold.Chemscore.Fitness>
12.7348

> <Gold.Chemscore.DG>
-15.2996

> <Gold.Chemscore.ZeroCoef>
-5.4800

> <Gold.Chemscore.Hbond>
1.9816

> <Gold.Chemscore.Metal>
0.0000

> <Gold.Chemscore.Lipo>
67.9226

> <Gold.Chemscore.Internal_Hbond>
0.0000

> <Gold.Chemscore.DEClash>
0.0920

> <Gold.Chemscore.DEInternal>
2.4728

> <Gold.Chemscore.Rot>
1.8539

> <Gold.Chemscore.Internal.Correction>
   9.000000E+99

> <Gold.Chemscore.Hbonds>
donor molecule, donor type, donor heavy atom, donor atom, acceptor molecule, acceptor atom, score
      P1  H  6896  6909       L1    21  0.98
      P1  H 10752 10765       L1    12  0.99

> <Gold.Chemscore.Hbond.Weighted>
-6.6187

> <Gold.Chemscore.Metal.Weighted>
-0.0000

> <Gold.Chemscore.Lipo.Weighted>
-7.9469

> <Gold.Chemscore.Internal_Hbond.Weighted>
0.0000

> <Gold.Chemscore.DEClash.Weighted>
0.0920

> <Gold.Chemscore.DEInternal.Weighted>
2.4728

> <Gold.Chemscore.Rot.Weighted>
4.7460

> <Gold.Chemscore.Internal.Correction.Weighted>
   9.000000E+99

> <Gold.Protein.RotatedTorsions>
[ 6907 6896 6895 6894 ] final  -25.44 input  -60.11 | X-H torsion
[ 7974 7965 7964 7962 ] final  -24.32 input  175.53 | X-H torsion
[ 8008 7997 7996 7995 ] final  162.49 input   59.86 | X-H torsion
[ 10167 10162 10161 10158 ] final -176.93 input  -65.29 | X-H torsion
[ 10718 10713 10712 10709 ] final  -40.30 input   66.30 | X-H torsion
[ 10763 10752 10751 10750 ] final  164.76 input  -60.55 | X-H torsion
[ 11005 11000 10999 10996 ] final   51.84 input  -57.11 | X-H torsion

> <Gold.Protein.ActiveResidues>
 VAL166  LYS551  ARG553  GLY616  TRP617  ASP618  TYR619  PRO620  LYS621  CYS622 
 ASP623  PHE694  ASN695  SER759  ASP760  ASP761  ALA762  ILE779  LEU786  VAL792 
 PHE793  MET794  SER795  GLU796  ALA797  LYS798  CYS799  TRP800  GLU811  SER814 

> <Gold.Protein.RotatedAtoms>
  151.1752  135.0336  159.8768 H   0  0  0  0  0  0  0  0  0  0  0  0  # atno 6907 bound_to 6896
  152.5447  134.1125  159.8375 H   0  0  0  0  0  0  0  0  0  0  0  0  # atno 6908 bound_to 6896
  151.1236  133.5040  159.2633 H   0  0  0  0  0  0  0  0  0  0  0  0  # atno 6909 bound_to 6896
  146.1562  140.4735  142.8590 H   0  0  0  0  0  0  0  0  0  0  0  0  # atno 7974 bound_to 7965
  156.2027  140.1749  156.7864 H   0  0  0  0  0  0  0  0  0  0  0  0  # atno 8008 bound_to 7997
  154.5614  140.0699  156.8855 H   0  0  0  0  0  0  0  0  0  0  0  0  # atno 8009 bound_to 7997
  155.2842  140.3351  155.4259 H   0  0  0  0  0  0  0  0  0  0  0  0  # atno 8010 bound_to 7997
  139.5505  144.2121  152.1068 H   0  0  0  0  0  0  0  0  0  0  0  0  # atno 10167 bound_to 10162
  156.2828  130.4219  149.8319 H   0  0  0  0  0  0  0  0  0  0  0  0  # atno 10718 bound_to 10713
  154.3138  135.2757  155.2553 H   0  0  0  0  0  0  0  0  0  0  0  0  # atno 10763 bound_to 10752
  154.4937  135.5827  153.6482 H   0  0  0  0  0  0  0  0  0  0  0  0  # atno 10764 bound_to 10752
  152.9885  135.6141  154.3317 H   0  0  0  0  0  0  0  0  0  0  0  0  # atno 10765 bound_to 10752
  140.0899  134.5223  155.8862 H   0  0  0  0  0  0  0  0  0  0  0  0  # atno 11005 bound_to 11000
  144.7967  140.6135  143.6505 LP  0  0  0  0  0  0  0  0  0  0  0  0  # atno 17320 bound_to 7965
  145.4702  139.1504  143.3818 LP  0  0  0  0  0  0  0  0  0  0  0  0  # atno 17321 bound_to 7965
  140.1616  144.5021  150.6629 LP  0  0  0  0  0  0  0  0  0  0  0  0  # atno 17342 bound_to 10162
  140.6766  143.2308  151.5490 LP  0  0  0  0  0  0  0  0  0  0  0  0  # atno 17343 bound_to 10162
  156.5760  130.8445  151.3370 LP  0  0  0  0  0  0  0  0  0  0  0  0  # atno 17370 bound_to 10713
  157.7319  130.9708  150.1905 LP  0  0  0  0  0  0  0  0  0  0  0  0  # atno 17371 bound_to 10713
  141.2074  133.6664  156.6307 LP  0  0  0  0  0  0  0  0  0  0  0  0  # atno 17394 bound_to 11000
  140.3367  134.7884  157.4367 LP  0  0  0  0  0  0  0  0  0  0  0  0  # atno 17395 bound_to 11000

$$$$
