AV-unprocessed.smi:249|AV-procd|sdf|1917|dock1
  -GOLD-   2262021 13D 1   1.00000     0.00000
 Structure written by MMmdl.
 64 67  0  0  0  0  0  0  0  0  2 V2000
  151.5181  145.5976  160.6217 C   0  0  0  0  0  0  0  0  0  0  0  0
  151.8910  145.2258  159.1769 C   0  0  0  0  0  0  0  0  0  0  0  0
  151.4513  143.8556  158.7829 N   0  3  1  0  0  0  0  0  0  0  0  0
  151.0695  143.7901  157.3420 C   0  0  0  0  0  0  0  0  0  0  0  0
  150.4911  142.4218  156.9570 C   0  0  0  0  0  0  0  0  0  0  0  0
  151.4965  141.3063  157.2750 C   0  0  2  0  0  0  0  0  0  0  0  0
  151.0055  139.9751  156.8934 N   0  0  0  0  0  0  0  0  0  0  0  0
  150.6999  139.6761  155.4959 C   0  0  0  0  0  0  0  0  0  0  0  0
  151.2240  138.9087  157.7136 C   0  0  0  0  0  0  0  0  0  0  0  0
  152.4994  138.5762  158.0512 N   0  0  0  0  0  0  0  0  0  0  0  0
  152.7454  137.5296  158.8438 C   0  0  0  0  0  0  0  0  0  0  0  0
  151.8774  136.6909  159.4095 N   0  0  0  0  0  0  0  0  0  0  0  0
  150.5942  137.0202  159.0898 C   0  0  0  0  0  0  0  0  0  0  0  0
  150.1810  138.0986  158.2551 C   0  0  0  0  0  0  0  0  0  0  0  0
  148.7925  138.1157  158.1707 N   0  0  0  0  0  0  0  0  0  0  0  0
  148.4102  137.1041  158.9005 C   0  0  0  0  0  0  0  0  0  0  0  0
  149.4273  136.4036  159.5068 N   0  0  0  0  0  0  0  0  0  0  0  0
  149.2882  135.2406  160.3657 C   0  0  0  0  0  0  0  0  0  0  0  0
  147.9496  135.1628  161.1530 C   0  0  2  0  0  0  0  0  0  0  0  0
  147.8574  136.3715  162.1161 C   0  0  0  0  0  0  0  0  0  0  0  0
  149.0727  136.5746  162.8077 O   0  0  0  0  0  0  0  0  0  0  0  0
  147.7632  133.8141  161.9118 C   0  0  2  0  0  0  0  0  0  0  0  0
  147.7829  132.5535  161.0442 C   0  0  0  0  0  0  0  0  0  0  0  0
  146.7804  131.5979  161.6969 C   0  0  0  0  0  0  0  0  0  0  0  0
  146.3419  132.2576  162.8731 O   0  0  0  0  0  0  0  0  0  0  0  0
  146.4191  133.6494  162.6286 C   0  0  0  0  0  0  0  0  0  0  0  0
  151.8736  141.3849  158.7620 C   0  0  0  0  0  0  0  0  0  0  0  0
  152.4291  142.7752  159.1415 C   0  0  2  0  0  0  0  0  0  0  0  0
  152.8052  142.7620  160.6380 C   0  0  0  0  0  0  0  0  0  0  0  0
  151.9996  146.5330  160.9079 H   0  0  0  0  0  0  0  0  0  0  0  0
  151.8460  144.8315  161.3251 H   0  0  0  0  0  0  0  0  0  0  0  0
  150.4465  145.7455  160.7510 H   0  0  0  0  0  0  0  0  0  0  0  0
  151.4896  145.9617  158.4787 H   0  0  0  0  0  0  0  0  0  0  0  0
  152.9742  145.3070  159.1247 H   0  0  0  0  0  0  0  0  0  0  0  0
  150.3178  144.5412  157.1062 H   0  0  0  0  0  0  0  0  0  0  0  0
  151.9412  144.0137  156.7248 H   0  0  0  0  0  0  0  0  0  0  0  0
  149.5544  142.2612  157.4915 H   0  0  0  0  0  0  0  0  0  0  0  0
  150.2446  142.4172  155.8949 H   0  0  0  0  0  0  0  0  0  0  0  0
  152.4155  141.5072  156.7226 H   0  0  0  0  0  0  0  0  0  0  0  0
  149.6231  139.5730  155.3609 H   0  0  0  0  0  0  0  0  0  0  0  0
  151.1787  138.7505  155.1737 H   0  0  0  0  0  0  0  0  0  0  0  0
  151.0437  140.4648  154.8280 H   0  0  0  0  0  0  0  0  0  0  0  0
  153.7868  137.3364  159.0556 H   0  0  0  0  0  0  0  0  0  0  0  0
  147.3681  136.8495  159.0290 H   0  0  0  0  0  0  0  0  0  0  0  0
  149.4109  134.3443  159.7564 H   0  0  0  0  0  0  0  0  0  0  0  0
  150.1357  135.2572  161.0517 H   0  0  0  0  0  0  0  0  0  0  0  0
  147.1240  135.2593  160.4467 H   0  0  0  0  0  0  0  0  0  0  0  0
  147.6544  137.2972  161.5792 H   0  0  0  0  0  0  0  0  0  0  0  0
  147.0497  136.2339  162.8358 H   0  0  0  0  0  0  0  0  0  0  0  0
  149.3068  135.7711  163.2470 H   0  0  0  0  0  0  0  0  0  0  0  0
  148.5461  133.7214  162.6665 H   0  0  0  0  0  0  0  0  0  0  0  0
  147.4699  132.7629  160.0209 H   0  0  0  0  0  0  0  0  0  0  0  0
  148.7775  132.1104  161.0065 H   0  0  0  0  0  0  0  0  0  0  0  0
  145.9279  131.4267  161.0380 H   0  0  0  0  0  0  0  0  0  0  0  0
  147.2225  130.6314  161.9404 H   0  0  0  0  0  0  0  0  0  0  0  0
  146.3657  134.2059  163.5646 H   0  0  0  0  0  0  0  0  0  0  0  0
  145.5868  133.9564  161.9926 H   0  0  0  0  0  0  0  0  0  0  0  0
  151.0086  141.1639  159.3885 H   0  0  0  0  0  0  0  0  0  0  0  0
  152.6166  140.6173  158.9831 H   0  0  0  0  0  0  0  0  0  0  0  0
  153.3415  142.9455  158.5672 H   0  0  0  0  0  0  0  0  0  0  0  0
  153.3798  141.8691  160.8868 H   0  0  0  0  0  0  0  0  0  0  0  0
  151.9185  142.7674  161.2729 H   0  0  0  0  0  0  0  0  0  0  0  0
  153.4331  143.6074  160.9164 H   0  0  0  0  0  0  0  0  0  0  0  0
  150.6137  143.6633  159.3137 H   0  0  0  0  0  0  0  0  0  0  0  0
  1  2  1  0  0  0  0
  1 30  1  0  0  0  0
  1 31  1  0  0  0  0
  1 32  1  0  0  0  0
  2  3  1  0  0  0  0
  2 33  1  0  0  0  0
  2 34  1  0  0  0  0
  3 28  1  0  0  0  0
  3  4  1  0  0  0  0
  3 64  1  0  0  0  0
  4  5  1  0  0  0  0
  4 35  1  0  0  0  0
  4 36  1  0  0  0  0
  5  6  1  0  0  0  0
  5 37  1  0  0  0  0
  5 38  1  0  0  0  0
  6  7  1  0  0  0  0
  6 27  1  0  0  0  0
  6 39  1  0  0  0  0
  7  8  1  0  0  0  0
  7  9  1  0  0  0  0
  8 40  1  0  0  0  0
  8 41  1  0  0  0  0
  8 42  1  0  0  0  0
  9 14  1  0  0  0  0
  9 10  2  0  0  0  0
 10 11  1  0  0  0  0
 11 12  2  0  0  0  0
 11 43  1  0  0  0  0
 12 13  1  0  0  0  0
 13 17  1  0  0  0  0
 13 14  2  0  0  0  0
 14 15  1  0  0  0  0
 15 16  2  0  0  0  0
 16 17  1  0  0  0  0
 16 44  1  0  0  0  0
 17 18  1  0  0  0  0
 18 19  1  0  0  0  0
 18 45  1  0  0  0  0
 18 46  1  0  0  0  0
 19 20  1  0  0  0  0
 19 22  1  0  0  0  0
 19 47  1  0  0  0  0
 20 21  1  0  0  0  0
 20 48  1  0  0  0  0
 20 49  1  0  0  0  0
 21 50  1  0  0  0  0
 22 26  1  0  0  0  0
 22 23  1  0  0  0  0
 22 51  1  0  0  0  0
 23 24  1  0  0  0  0
 23 52  1  0  0  0  0
 23 53  1  0  0  0  0
 24 25  1  0  0  0  0
 24 54  1  0  0  0  0
 24 55  1  0  0  0  0
 25 26  1  0  0  0  0
 26 56  1  0  0  0  0
 26 57  1  0  0  0  0
 27 28  1  0  0  0  0
 27 58  1  0  0  0  0
 27 59  1  0  0  0  0
 28 29  1  0  0  0  0
 28 60  1  0  0  0  0
 29 61  1  0  0  0  0
 29 62  1  0  0  0  0
 29 63  1  0  0  0  0
M  CHG  1   3   1
M  END
> <s_m_source_file>
AV-unprocessed.smi

> <i_m_source_file_index>
249

> <i_lp_mmshare_version>
43012

> <i_f3d_flags>
0

> <s_epik_input>
W0NIM11bQ0gyXU4xW0NIMl1bQ0gyXVtDQEhdKFtDSDJdW0NASF0xW0NIM10pTihbQ0gzXSljKG5bY0hdbjIpYyhjMjMpbltjSF1uM1tDSDJdW0NASF0oW0NIMl1bT0hdKVtDQEBIXTRbQ0gyXVtDSDJdT1tDSDJdNA==

> <s_epik_cmdline>
J2VwaWtfcHl0aG9uJywgJy1waCcsICc3LjAnLCAnLXRuJywgJzgnLCAnLW1hJywgJzIwMCcsICctbWV0YWxfYmluZGluZycsICctaW1hZScsICc8aW5maWxlLm1hZT4nLCAnLW9tYWUnLCAnPG91dGZpbGUubWFlPic=

> <r_lp_tautomer_probability>
1

> <r_epik_Ionization_Penalty>
0.00294688

> <r_epik_Ionization_Penalty_Charging>
0.00169971

> <r_epik_Ionization_Penalty_Neutral>
0.00124717

> <r_epik_State_Penalty>
-0

> <r_epik_Charging_Adjusted_Penalty>
0.00169971

> <i_epik_Tot_Q>
1

> <i_epik_Tot_abs_Q>
1

> <r_epik_Metal_State_Penalty>
-0

> <b_epik_Metal_Only>
0

> <s_lp_Force_Field>
OPLS_2005

> <r_lp_Energy>
53.9477

> <b_lp_Chiralities_Consistent>
1

> <s_lp_Variant>
AV-unprocessed.smi:249-20

> <Gold.Version>
5.8.1

> <Gold.Id.Protein>
6NUR|6NUR_protein|mol2

> <Gold.PLP.Fitness>
54.2317

> <Gold.PLP.PLP>
-52.8324

> <Gold.PLP.part.hbond>
-1.9039

> <Gold.PLP.part.metal>
0.0000

> <Gold.PLP.part.buried>
-2.7076

> <Gold.PLP.part.nonpolar>
-47.8828

> <Gold.PLP.part.repulsive>
0.1235

> <Gold.PLP.ligand.clash>
0.0000

> <Gold.PLP.ligand.torsion>
2.4164

> <Gold.PLP.Chemscore.Hbond>
1.8160

> <Gold.PLP.Chemscore.CHOScore>
0.0000

> <Gold.PLP.Chemscore.Metal>
0.0000

> <Gold.Chemscore.Hbonds>
donor molecule, donor type, donor heavy atom, donor atom, acceptor molecule, acceptor atom, score
      P1  H  6896  6907       L1    12  0.22
      P1  H  6931  6943       L1    21  0.20

> <Gold.PLP.Chemscore.Internal.Correction>
0.7840

> <Gold.Rescore>
     Score         DG    S(hbond)    S(metal)    S(lipo)     H(rot)  DE(clash)    DE(int)     intcor
     15.63     -19.46       1.68        0.00     129.42       2.65       0.23       3.60       ----

> <Gold.Chemscore.Fitness>
15.6308

> <Gold.Chemscore.DG>
-19.4554

> <Gold.Chemscore.ZeroCoef>
-5.4800

> <Gold.Chemscore.Hbond>
1.6832

> <Gold.Chemscore.Metal>
0.0000

> <Gold.Chemscore.Lipo>
129.4154

> <Gold.Chemscore.Internal_Hbond>
0.0000

> <Gold.Chemscore.DEClash>
0.2261

> <Gold.Chemscore.DEInternal>
3.5985

> <Gold.Chemscore.Rot>
2.6515

> <Gold.Chemscore.Internal.Correction>
   9.000000E+99

> <Gold.Chemscore.Hbond.Weighted>
-5.6218

> <Gold.Chemscore.Metal.Weighted>
-0.0000

> <Gold.Chemscore.Lipo.Weighted>
-15.1416

> <Gold.Chemscore.Internal_Hbond.Weighted>
0.0000

> <Gold.Chemscore.DEClash.Weighted>
0.2261

> <Gold.Chemscore.DEInternal.Weighted>
3.5985

> <Gold.Chemscore.Rot.Weighted>
6.7880

> <Gold.Chemscore.Internal.Correction.Weighted>
   9.000000E+99

> <Gold.Protein.RotatedTorsions>
[ 6907 6896 6895 6894 ] final  -24.26 input  -60.11 | X-H torsion
[ 7974 7965 7964 7962 ] final  146.10 input  175.53 | X-H torsion
[ 8008 7997 7996 7995 ] final  -77.93 input   59.86 | X-H torsion
[ 10167 10162 10161 10158 ] final  -23.95 input  -65.29 | X-H torsion
[ 10718 10713 10712 10709 ] final  156.43 input   66.30 | X-H torsion
[ 10763 10752 10751 10750 ] final  162.60 input  -60.55 | X-H torsion
[ 11005 11000 10999 10996 ] final  133.39 input  -57.11 | X-H torsion

> <Gold.Protein.ActiveResidues>
 VAL166  LYS551  ARG553  GLY616  TRP617  ASP618  TYR619  PRO620  LYS621  CYS622 
 ASP623  PHE694  ASN695  SER759  ASP760  ASP761  ALA762  ILE779  LEU786  VAL792 
 PHE793  MET794  SER795  GLU796  ALA797  LYS798  CYS799  TRP800  GLU811  SER814 

> <Gold.Protein.RotatedAtoms>
  151.1921  135.0407  159.8836 H   0  0  0  0  0  0  0  0  0  0  0  0  # atno 6907 bound_to 6896
  152.5438  134.0945  159.8301 H   0  0  0  0  0  0  0  0  0  0  0  0  # atno 6908 bound_to 6896
  151.1074  133.5151  159.2639 H   0  0  0  0  0  0  0  0  0  0  0  0  # atno 6909 bound_to 6896
  144.8698  139.5864  143.5892 H   0  0  0  0  0  0  0  0  0  0  0  0  # atno 7974 bound_to 7965
  154.5642  140.0702  156.8865 H   0  0  0  0  0  0  0  0  0  0  0  0  # atno 8008 bound_to 7997
  155.2755  140.3368  155.4244 H   0  0  0  0  0  0  0  0  0  0  0  0  # atno 8009 bound_to 7997
  156.2067  140.1743  156.7770 H   0  0  0  0  0  0  0  0  0  0  0  0  # atno 8010 bound_to 7997
  140.7288  143.4397  151.0676 H   0  0  0  0  0  0  0  0  0  0  0  0  # atno 10167 bound_to 10162
  157.2050  131.0685  151.2003 H   0  0  0  0  0  0  0  0  0  0  0  0  # atno 10718 bound_to 10713
  154.2808  135.2763  155.2698 H   0  0  0  0  0  0  0  0  0  0  0  0  # atno 10763 bound_to 10752
  154.5220  135.5754  153.6692 H   0  0  0  0  0  0  0  0  0  0  0  0  # atno 10764 bound_to 10752
  152.9929  135.6206  154.2967 H   0  0  0  0  0  0  0  0  0  0  0  0  # atno 10765 bound_to 10752
  139.9849  134.9535  156.9718 H   0  0  0  0  0  0  0  0  0  0  0  0  # atno 11005 bound_to 11000
  146.2922  139.7172  142.9153 LP  0  0  0  0  0  0  0  0  0  0  0  0  # atno 17320 bound_to 7965
  145.4152  141.0401  143.2995 LP  0  0  0  0  0  0  0  0  0  0  0  0  # atno 17321 bound_to 7965
  139.8062  143.8014  152.3167 LP  0  0  0  0  0  0  0  0  0  0  0  0  # atno 17342 bound_to 10162
  139.8048  144.7360  150.9776 LP  0  0  0  0  0  0  0  0  0  0  0  0  # atno 17343 bound_to 10162
  157.3729  130.7190  149.6577 LP  0  0  0  0  0  0  0  0  0  0  0  0  # atno 17370 bound_to 10713
  155.9696  130.4194  150.4372 LP  0  0  0  0  0  0  0  0  0  0  0  0  # atno 17371 bound_to 10713
  140.5022  134.1085  155.7253 LP  0  0  0  0  0  0  0  0  0  0  0  0  # atno 17394 bound_to 11000
  141.1515  133.8959  157.2085 LP  0  0  0  0  0  0  0  0  0  0  0  0  # atno 17395 bound_to 11000

$$$$
