AV-unprocessed.smi:1381|AV-procd|sdf|5617|dock5
  -GOLD-   22720 5233D 1   1.00000     0.00000
 Structure written by MMmdl.
 42 43  0  0  0  0  0  0  0  0  3 V2000
  153.2217  141.0246  160.2822 C   0  0  0  0  0  0  0  0  0  0  0  0
  152.6068  140.5601  159.0069 C   0  0  0  0  0  0  0  0  0  0  0  0
  151.3922  140.7869  158.4241 C   0  0  0  0  0  0  0  0  0  0  0  0
  151.4696  140.0394  157.2187 C   0  0  0  0  0  0  0  0  0  0  0  0
  150.3786  140.0195  156.3102 N   0  0  0  0  0  0  0  0  0  0  0  0
  150.3901  139.8080  154.9815 C   0  0  0  0  0  0  0  0  0  0  0  0
  151.4549  139.5837  154.3936 O   0  0  0  0  0  0  0  0  0  0  0  0
  149.1426  139.8763  154.4410 N   0  5  0  0  0  0  0  0  0  0  0  0
  148.1573  140.9076  154.7561 C   0  0  0  0  0  0  0  0  0  0  0  0
  146.9901  140.8295  153.7534 C   0  0  0  0  0  0  0  0  0  0  0  0
  145.8434  141.6835  154.1624 N   0  3  1  0  0  0  0  0  0  0  0  0
  145.6674  141.7457  155.6335 C   0  0  0  0  0  0  0  0  0  0  0  0
  144.4206  142.5698  156.0113 C   0  0  2  0  0  0  0  0  0  0  0  0
  143.0944  141.8383  155.7382 C   0  0  0  0  0  0  0  0  0  0  0  0
  144.4675  143.8537  155.3884 O   0  0  0  0  0  0  0  0  0  0  0  0
  144.6038  143.8258  153.9698 C   0  0  1  0  0  0  0  0  0  0  0  0
  144.6386  145.2743  153.4709 C   0  0  0  0  0  0  0  0  0  0  0  0
  145.8819  143.0558  153.5950 C   0  0  0  0  0  0  0  0  0  0  0  0
  152.6285  139.4123  157.0797 N   0  0  0  0  0  0  0  0  0  0  0  0
  153.3631  139.7430  158.2246 O   0  0  0  0  0  0  0  0  0  0  0  0
  152.5473  141.6918  160.8192 H   0  0  0  0  0  0  0  0  0  0  0  0
  154.1491  141.5644  160.0897 H   0  0  0  0  0  0  0  0  0  0  0  0
  153.4491  140.1791  160.9316 H   0  0  0  0  0  0  0  0  0  0  0  0
  150.5801  141.3910  158.8001 H   0  0  0  0  0  0  0  0  0  0  0  0
  149.4713  140.1901  156.7173 H   0  0  0  0  0  0  0  0  0  0  0  0
  147.7616  140.7976  155.7665 H   0  0  0  0  0  0  0  0  0  0  0  0
  148.5938  141.9063  154.7135 H   0  0  0  0  0  0  0  0  0  0  0  0
  147.3611  141.1583  152.7811 H   0  0  0  0  0  0  0  0  0  0  0  0
  146.6588  139.7988  153.6155 H   0  0  0  0  0  0  0  0  0  0  0  0
  145.5841  140.7392  156.0456 H   0  0  0  0  0  0  0  0  0  0  0  0
  146.5565  142.1968  156.0772 H   0  0  0  0  0  0  0  0  0  0  0  0
  144.4601  142.7553  157.0852 H   0  0  0  0  0  0  0  0  0  0  0  0
  143.0292  140.9251  156.3301 H   0  0  0  0  0  0  0  0  0  0  0  0
  142.9857  141.5531  154.6921 H   0  0  0  0  0  0  0  0  0  0  0  0
  142.2430  142.4647  156.0052 H   0  0  0  0  0  0  0  0  0  0  0  0
  143.7369  143.3376  153.5246 H   0  0  0  0  0  0  0  0  0  0  0  0
  144.7240  145.3130  152.3847 H   0  0  0  0  0  0  0  0  0  0  0  0
  145.4843  145.8181  153.8925 H   0  0  0  0  0  0  0  0  0  0  0  0
  143.7282  145.8046  153.7515 H   0  0  0  0  0  0  0  0  0  0  0  0
  146.7627  143.5799  153.9699 H   0  0  0  0  0  0  0  0  0  0  0  0
  145.9761  143.0136  152.5094 H   0  0  0  0  0  0  0  0  0  0  0  0
  145.0173  141.2309  153.7976 H   0  0  0  0  0  0  0  0  0  0  0  0
  1  2  1  0  0  0  0
  1 21  1  0  0  0  0
  1 22  1  0  0  0  0
  1 23  1  0  0  0  0
  2 20  1  0  0  0  0
  2  3  2  0  0  0  0
  3  4  1  0  0  0  0
  3 24  1  0  0  0  0
  4  5  1  0  0  0  0
  4 19  2  0  0  0  0
  5  6  1  0  0  0  0
  5 25  1  0  0  0  0
  6  7  2  0  0  0  0
  6  8  1  0  0  0  0
  8  9  1  0  0  0  0
  9 10  1  0  0  0  0
  9 26  1  0  0  0  0
  9 27  1  0  0  0  0
 10 11  1  0  0  0  0
 10 28  1  0  0  0  0
 10 29  1  0  0  0  0
 11 18  1  0  0  0  0
 11 12  1  0  0  0  0
 11 42  1  0  0  0  0
 12 13  1  0  0  0  0
 12 30  1  0  0  0  0
 12 31  1  0  0  0  0
 13 14  1  0  0  0  0
 13 15  1  0  0  0  0
 13 32  1  0  0  0  0
 14 33  1  0  0  0  0
 14 34  1  0  0  0  0
 14 35  1  0  0  0  0
 15 16  1  0  0  0  0
 16 17  1  0  0  0  0
 16 18  1  0  0  0  0
 16 36  1  0  0  0  0
 17 37  1  0  0  0  0
 17 38  1  0  0  0  0
 17 39  1  0  0  0  0
 18 40  1  0  0  0  0
 18 41  1  0  0  0  0
 19 20  1  0  0  0  0
M  CHG  1   8  -1
M  CHG  1  11   1
M  END
> <s_m_source_file>
AV-unprocessed.smi

> <i_m_source_file_index>
1381

> <i_lp_mmshare_version>
43012

> <i_f3d_flags>
0

> <s_epik_input>
W0NIM11jMVtjSF1jKG5vMSlbTkhdQyg9TylbTkhdW0NIMl1bQ0gyXU4yW0NIMl1bQ0BASF0oW0NIM10pT1tDQEBIXShbQ0gzXSlbQ0gyXTI=

> <s_epik_cmdline>
J2VwaWtfcHl0aG9uJywgJy1waCcsICc3LjAnLCAnLXRuJywgJzgnLCAnLW1hJywgJzIwMCcsICctbWV0YWxfYmluZGluZycsICctaW1hZScsICc8aW5maWxlLm1hZT4nLCAnLW9tYWUnLCAnPG91dGZpbGUubWFlPic=

> <r_epik_Ionization_Penalty>
6.8073

> <r_epik_Ionization_Penalty_Charging>
6.80729

> <r_epik_Ionization_Penalty_Neutral>
5.65391e-06

> <r_epik_State_Penalty>
7.47323

> <r_epik_Charging_Adjusted_Penalty>
14.2805

> <i_epik_Tot_Q>
0

> <i_epik_Tot_abs_Q>
2

> <r_epik_Metal_State_Penalty>
3.40035

> <b_epik_Metal_Only>
1

> <s_lp_Force_Field>
OPLS_2005

> <r_lp_Energy>
15.0618

> <b_lp_Chiralities_Consistent>
1

> <s_lp_Variant>
AV-unprocessed.smi:1381-16

> <Gold.Version>
5.8.1

> <Gold.Id.Protein>
6NUR|6NUR_protein|mol2

> <Gold.PLP.Fitness>
39.5153

> <Gold.PLP.PLP>
-30.6115

> <Gold.PLP.part.hbond>
-4.0000

> <Gold.PLP.part.metal>
0.0000

> <Gold.PLP.part.buried>
-2.7509

> <Gold.PLP.part.nonpolar>
-24.2261

> <Gold.PLP.part.repulsive>
0.4435

> <Gold.PLP.ligand.clash>
0.0000

> <Gold.PLP.ligand.torsion>
0.9496

> <Gold.PLP.Chemscore.Hbond>
3.5824

> <Gold.PLP.Chemscore.CHOScore>
0.0000

> <Gold.PLP.Chemscore.Metal>
0.0000

> <Gold.Chemscore.Hbonds>
donor molecule, donor type, donor heavy atom, donor atom, acceptor molecule, acceptor atom, score
      L1  H    11    42       P1 10175  2.00
      P1  H  7989  7998       L1     7  1.00
      P1  H  7997  8008       L1    20  0.56

> <Gold.PLP.Chemscore.Internal.Correction>
0.0557

> <Gold.Rescore>
     Score         DG    S(hbond)    S(metal)    S(lipo)     H(rot)  DE(clash)    DE(int)     intcor
     11.25     -13.51       1.73        0.00      53.65       1.58       0.13       2.12       ----

> <Gold.Chemscore.Fitness>
11.2533

> <Gold.Chemscore.DG>
-13.5075

> <Gold.Chemscore.ZeroCoef>
-5.4800

> <Gold.Chemscore.Hbond>
1.7346

> <Gold.Chemscore.Metal>
0.0000

> <Gold.Chemscore.Lipo>
53.6476

> <Gold.Chemscore.Internal_Hbond>
0.0000

> <Gold.Chemscore.DEClash>
0.1334

> <Gold.Chemscore.DEInternal>
2.1208

> <Gold.Chemscore.Rot>
1.5792

> <Gold.Chemscore.Internal.Correction>
   9.000000E+99

> <Gold.Chemscore.Hbonds>
donor molecule, donor type, donor heavy atom, donor atom, acceptor molecule, acceptor atom, score
      L1  H    11    42       P1 10175  0.47
      P1  H  7989  7998       L1     7  0.43
      P1  H  7997  8008       L1    20  0.04

> <Gold.Chemscore.Hbond.Weighted>
-5.7936

> <Gold.Chemscore.Metal.Weighted>
-0.0000

> <Gold.Chemscore.Lipo.Weighted>
-6.2768

> <Gold.Chemscore.Internal_Hbond.Weighted>
0.0000

> <Gold.Chemscore.DEClash.Weighted>
0.1334

> <Gold.Chemscore.DEInternal.Weighted>
2.1208

> <Gold.Chemscore.Rot.Weighted>
4.0428

> <Gold.Chemscore.Internal.Correction.Weighted>
   9.000000E+99

> <Gold.Protein.RotatedTorsions>
[ 6907 6896 6895 6894 ] final   94.15 input  -60.11 | X-H torsion
[ 7974 7965 7964 7962 ] final    6.51 input  175.53 | X-H torsion
[ 8008 7997 7996 7995 ] final -106.95 input   59.86 | X-H torsion
[ 10167 10162 10161 10158 ] final   26.74 input  -65.29 | X-H torsion
[ 10718 10713 10712 10709 ] final   19.23 input   66.30 | X-H torsion
[ 10763 10752 10751 10750 ] final  123.13 input  -60.55 | X-H torsion
[ 11005 11000 10999 10996 ] final  -75.86 input  -57.11 | X-H torsion

> <Gold.Protein.ActiveResidues>
 VAL166  LYS551  ARG553  GLY616  TRP617  ASP618  TYR619  PRO620  LYS621  CYS622 
 ASP623  PHE694  ASN695  SER759  ASP760  ASP761  ALA762  ILE779  LEU786  VAL792 
 PHE793  MET794  SER795  GLU796  ALA797  LYS798  CYS799  TRP800  GLU811  SER814 

> <Gold.Protein.RotatedAtoms>
  152.5450  134.1237  159.8409 H   0  0  0  0  0  0  0  0  0  0  0  0  # atno 6907 bound_to 6896
  151.1290  133.5043  159.2607 H   0  0  0  0  0  0  0  0  0  0  0  0  # atno 6908 bound_to 6896
  151.1695  135.0321  159.8800 H   0  0  0  0  0  0  0  0  0  0  0  0  # atno 6909 bound_to 6896
  146.2434  140.0222  142.8397 H   0  0  0  0  0  0  0  0  0  0  0  0  # atno 7974 bound_to 7965
  154.9221  140.0407  157.2003 H   0  0  0  0  0  0  0  0  0  0  0  0  # atno 8008 bound_to 7997
  154.8244  140.2889  155.5743 H   0  0  0  0  0  0  0  0  0  0  0  0  # atno 8009 bound_to 7997
  156.2982  140.2513  156.3157 H   0  0  0  0  0  0  0  0  0  0  0  0  # atno 8010 bound_to 7997
  140.4998  144.0334  150.6328 H   0  0  0  0  0  0  0  0  0  0  0  0  # atno 10167 bound_to 10162
  157.1075  130.6494  149.5888 H   0  0  0  0  0  0  0  0  0  0  0  0  # atno 10718 bound_to 10713
  153.6406  135.3380  155.3070 H   0  0  0  0  0  0  0  0  0  0  0  0  # atno 10763 bound_to 10752
  154.8560  135.4317  154.2008 H   0  0  0  0  0  0  0  0  0  0  0  0  # atno 10764 bound_to 10752
  153.2926  135.7018  153.7352 H   0  0  0  0  0  0  0  0  0  0  0  0  # atno 10765 bound_to 10752
  141.1649  133.6962  156.7580 H   0  0  0  0  0  0  0  0  0  0  0  0  # atno 11005 bound_to 11000
  145.1230  140.9474  143.4589 LP  0  0  0  0  0  0  0  0  0  0  0  0  # atno 17320 bound_to 7965
  145.0462  139.3219  143.5952 LP  0  0  0  0  0  0  0  0  0  0  0  0  # atno 17321 bound_to 7965
  140.3626  143.2899  152.0366 LP  0  0  0  0  0  0  0  0  0  0  0  0  # atno 17342 bound_to 10162
  139.4869  144.6291  151.7106 LP  0  0  0  0  0  0  0  0  0  0  0  0  # atno 17343 bound_to 10162
  155.9858  130.4890  150.7051 LP  0  0  0  0  0  0  0  0  0  0  0  0  # atno 17370 bound_to 10713
  157.4588  131.0881  151.0768 LP  0  0  0  0  0  0  0  0  0  0  0  0  # atno 17371 bound_to 10713
  140.2554  134.8508  157.3708 LP  0  0  0  0  0  0  0  0  0  0  0  0  # atno 17394 bound_to 11000
  140.1662  134.4666  155.7862 LP  0  0  0  0  0  0  0  0  0  0  0  0  # atno 17395 bound_to 11000

$$$$
