AV-unprocessed.smi:1380|AV-procd|sdf|5601|dock4
  -GOLD-   22720 5203D 1   1.00000     0.00000
 Structure written by MMmdl.
 34 35  0  0  0  0  0  0  0  0  2 V2000
  148.2533  144.3424  161.0220 O   0  0  0  0  0  0  0  0  0  0  0  0
  148.0731  144.6382  159.8409 C   0  0  0  0  0  0  0  0  0  0  0  0
  146.9760  145.2574  159.3832 N   0  0  0  0  0  0  0  0  0  0  0  0
  145.8431  145.6696  160.2073 C   0  0  0  0  0  0  0  0  0  0  0  0
  144.6481  146.1899  159.3822 C   0  0  0  0  0  0  0  0  0  0  0  0
  144.9490  147.4634  158.6108 C   0  0  0  0  0  0  0  0  0  0  0  0
  144.9352  147.4666  157.1988 C   0  0  0  0  0  0  0  0  0  0  0  0
  145.2144  148.6638  156.5071 C   0  0  0  0  0  0  0  0  0  0  0  0
  145.5016  149.8311  157.2440 C   0  0  0  0  0  0  0  0  0  0  0  0
  145.5059  149.7900  158.5947 N   0  3  0  0  0  0  0  0  0  0  0  0
  145.2445  148.6638  159.2937 C   0  0  0  0  0  0  0  0  0  0  0  0
  148.9396  144.3643  158.8565 N   0  0  0  0  0  0  0  0  0  0  0  0
  150.2014  143.6580  159.0360 C   0  0  0  0  0  0  0  0  0  0  0  0
  151.4159  144.3688  158.4695 C   0  0  0  0  0  0  0  0  0  0  0  0
  152.7523  144.3175  159.1735 C   0  0  0  0  0  0  0  0  0  0  0  0
  151.9628  145.6033  159.1474 C   0  0  0  0  0  0  0  0  0  0  0  0
  146.9209  145.4618  158.3960 H   0  0  0  0  0  0  0  0  0  0  0  0
  145.5298  144.8450  160.8495 H   0  0  0  0  0  0  0  0  0  0  0  0
  146.1960  146.4588  160.8715 H   0  0  0  0  0  0  0  0  0  0  0  0
  144.3200  145.4220  158.6804 H   0  0  0  0  0  0  0  0  0  0  0  0
  143.7990  146.3695  160.0425 H   0  0  0  0  0  0  0  0  0  0  0  0
  144.7118  146.5625  156.6510 H   0  0  0  0  0  0  0  0  0  0  0  0
  145.2085  148.6857  155.4271 H   0  0  0  0  0  0  0  0  0  0  0  0
  145.7261  150.7889  156.7976 H   0  0  0  0  0  0  0  0  0  0  0  0
  145.2739  148.7578  160.3699 H   0  0  0  0  0  0  0  0  0  0  0  0
  148.7068  144.6520  157.9173 H   0  0  0  0  0  0  0  0  0  0  0  0
  150.3555  143.5254  160.1070 H   0  0  0  0  0  0  0  0  0  0  0  0
  150.1311  142.6549  158.6117 H   0  0  0  0  0  0  0  0  0  0  0  0
  151.4453  144.3843  157.3815 H   0  0  0  0  0  0  0  0  0  0  0  0
  152.8083  143.7831  160.1197 H   0  0  0  0  0  0  0  0  0  0  0  0
  153.6439  144.2599  158.5528 H   0  0  0  0  0  0  0  0  0  0  0  0
  152.3304  146.4057  158.5112 H   0  0  0  0  0  0  0  0  0  0  0  0
  151.4953  145.9221  160.0770 H   0  0  0  0  0  0  0  0  0  0  0  0
  145.7162  150.6458  159.1089 H   0  0  0  0  0  0  0  0  0  0  0  0
  1  2  2  0  0  0  0
  2  3  1  0  0  0  0
  2 12  1  0  0  0  0
  3  4  1  0  0  0  0
  3 17  1  0  0  0  0
  4  5  1  0  0  0  0
  4 18  1  0  0  0  0
  4 19  1  0  0  0  0
  5  6  1  0  0  0  0
  5 20  1  0  0  0  0
  5 21  1  0  0  0  0
  6 11  1  0  0  0  0
  6  7  2  0  0  0  0
  7  8  1  0  0  0  0
  7 22  1  0  0  0  0
  8  9  2  0  0  0  0
  8 23  1  0  0  0  0
  9 10  1  0  0  0  0
  9 24  1  0  0  0  0
 10 11  2  0  0  0  0
 10 34  1  0  0  0  0
 11 25  1  0  0  0  0
 12 13  1  0  0  0  0
 12 26  1  0  0  0  0
 13 14  1  0  0  0  0
 13 27  1  0  0  0  0
 13 28  1  0  0  0  0
 14 16  1  0  0  0  0
 14 15  1  0  0  0  0
 14 29  1  0  0  0  0
 15 16  1  0  0  0  0
 15 30  1  0  0  0  0
 15 31  1  0  0  0  0
 16 32  1  0  0  0  0
 16 33  1  0  0  0  0
M  CHG  1  10   1
M  END
> <s_m_source_file>
AV-unprocessed.smi

> <i_m_source_file_index>
1380

> <i_lp_mmshare_version>
43012

> <i_f3d_flags>
0

> <s_epik_input>
W0NIMl0xW0NIMl1bQ0hdMVtDSDJdW05IXUMoPU8pW05IXVtDSDJdW0NIMl1jMltjSF1bY0hdW2NIXW5bY0hdMg==

> <s_epik_cmdline>
J2VwaWtfcHl0aG9uJywgJy1waCcsICc3LjAnLCAnLXRuJywgJzgnLCAnLW1hJywgJzIwMCcsICctbWV0YWxfYmluZGluZycsICctaW1hZScsICc8aW5maWxlLm1hZT4nLCAnLW9tYWUnLCAnPG91dGZpbGUubWFlPic=

> <r_epik_Ionization_Penalty>
2.21218

> <r_epik_Ionization_Penalty_Charging>
2.21212

> <r_epik_Ionization_Penalty_Neutral>
5.76468e-05

> <r_epik_State_Penalty>
2.35642

> <r_epik_Charging_Adjusted_Penalty>
4.56854

> <i_epik_Tot_Q>
1

> <i_epik_Tot_abs_Q>
1

> <r_epik_Metal_State_Penalty>
2.37048

> <b_epik_Metal_Only>
0

> <s_lp_Force_Field>
OPLS_2005

> <r_lp_Energy>
16.6962

> <b_lp_Chiralities_Consistent>
1

> <s_lp_Variant>
AV-unprocessed.smi:1380-2

> <Gold.Version>
5.8.1

> <Gold.Id.Protein>
6NUR|6NUR_protein|mol2

> <Gold.PLP.Fitness>
46.3456

> <Gold.PLP.PLP>
-38.1555

> <Gold.PLP.part.hbond>
-3.1585

> <Gold.PLP.part.metal>
0.0000

> <Gold.PLP.part.buried>
-5.4597

> <Gold.PLP.part.nonpolar>
-30.6926

> <Gold.PLP.part.repulsive>
0.5735

> <Gold.PLP.ligand.clash>
0.0000

> <Gold.PLP.ligand.torsion>
0.3738

> <Gold.PLP.Chemscore.Hbond>
2.7920

> <Gold.PLP.Chemscore.CHOScore>
0.0000

> <Gold.PLP.Chemscore.Metal>
0.0000

> <Gold.Chemscore.Hbonds>
donor molecule, donor type, donor heavy atom, donor atom, acceptor molecule, acceptor atom, score
      L1  H     3    17       P1  8029  0.77
      L1  H    12    26       P1  8029  0.56
      P1  H  6933  6944       L1     1  1.00

> <Gold.PLP.Chemscore.Internal.Correction>
0.5617

> <Gold.Rescore>
     Score         DG    S(hbond)    S(metal)    S(lipo)     H(rot)  DE(clash)    DE(int)     intcor
     20.09     -20.74       2.49        0.00      98.68       1.80       0.19       0.45       ----

> <Gold.Chemscore.Fitness>
20.0927

> <Gold.Chemscore.DG>
-20.7367

> <Gold.Chemscore.ZeroCoef>
-5.4800

> <Gold.Chemscore.Hbond>
2.4943

> <Gold.Chemscore.Metal>
0.0000

> <Gold.Chemscore.Lipo>
98.6815

> <Gold.Chemscore.Internal_Hbond>
0.0000

> <Gold.Chemscore.DEClash>
0.1928

> <Gold.Chemscore.DEInternal>
0.4513

> <Gold.Chemscore.Rot>
1.8047

> <Gold.Chemscore.Internal.Correction>
   9.000000E+99

> <Gold.Chemscore.Hbonds>
donor molecule, donor type, donor heavy atom, donor atom, acceptor molecule, acceptor atom, score
      L1  H     3    17       P1  8029  0.73
      L1  H    12    26       P1  8029  0.08
      P1  H  6933  6944       L1     1  0.85

> <Gold.Chemscore.Hbond.Weighted>
-8.3309

> <Gold.Chemscore.Metal.Weighted>
-0.0000

> <Gold.Chemscore.Lipo.Weighted>
-11.5457

> <Gold.Chemscore.Internal_Hbond.Weighted>
0.0000

> <Gold.Chemscore.DEClash.Weighted>
0.1928

> <Gold.Chemscore.DEInternal.Weighted>
0.4513

> <Gold.Chemscore.Rot.Weighted>
4.6199

> <Gold.Chemscore.Internal.Correction.Weighted>
   9.000000E+99

> <Gold.Protein.RotatedTorsions>
[ 6907 6896 6895 6894 ] final  144.09 input  -60.11 | X-H torsion
[ 7974 7965 7964 7962 ] final   54.17 input  175.53 | X-H torsion
[ 8008 7997 7996 7995 ] final   53.03 input   59.86 | X-H torsion
[ 10167 10162 10161 10158 ] final   -7.68 input  -65.29 | X-H torsion
[ 10718 10713 10712 10709 ] final  154.78 input   66.30 | X-H torsion
[ 10763 10752 10751 10750 ] final  -55.75 input  -60.55 | X-H torsion
[ 11005 11000 10999 10996 ] final  -12.51 input  -57.11 | X-H torsion

> <Gold.Protein.ActiveResidues>
 VAL166  LYS551  ARG553  GLY616  TRP617  ASP618  TYR619  PRO620  LYS621  CYS622 
 ASP623  PHE694  ASN695  SER759  ASP760  ASP761  ALA762  ILE779  LEU786  VAL792 
 PHE793  MET794  SER795  GLU796  ALA797  LYS798  CYS799  TRP800  GLU811  SER814 

> <Gold.Protein.RotatedAtoms>
  152.1981  133.4821  159.5043 H   0  0  0  0  0  0  0  0  0  0  0  0  # atno 6907 bound_to 6896
  150.6964  134.1626  159.4191 H   0  0  0  0  0  0  0  0  0  0  0  0  # atno 6908 bound_to 6896
  151.9543  135.0154  160.0594 H   0  0  0  0  0  0  0  0  0  0  0  0  # atno 6909 bound_to 6896
  145.9636  139.4082  143.0233 H   0  0  0  0  0  0  0  0  0  0  0  0  # atno 7974 bound_to 7965
  155.4616  140.3462  155.4313 H   0  0  0  0  0  0  0  0  0  0  0  0  # atno 8008 bound_to 7997
  156.1157  140.1473  156.9305 H   0  0  0  0  0  0  0  0  0  0  0  0  # atno 8009 bound_to 7997
  154.4787  140.0876  156.7305 H   0  0  0  0  0  0  0  0  0  0  0  0  # atno 8010 bound_to 7997
  140.7036  143.6053  150.8757 H   0  0  0  0  0  0  0  0  0  0  0  0  # atno 10167 bound_to 10162
  157.2271  131.0731  151.1876 H   0  0  0  0  0  0  0  0  0  0  0  0  # atno 10718 bound_to 10713
  154.1957  135.6419  153.5072 H   0  0  0  0  0  0  0  0  0  0  0  0  # atno 10763 bound_to 10752
  153.0024  135.5439  154.6368 H   0  0  0  0  0  0  0  0  0  0  0  0  # atno 10764 bound_to 10752
  154.5768  135.2921  155.0745 H   0  0  0  0  0  0  0  0  0  0  0  0  # atno 10765 bound_to 10752
  140.7665  133.8473  155.9169 H   0  0  0  0  0  0  0  0  0  0  0  0  # atno 11005 bound_to 11000
  145.8005  140.9773  143.1001 LP  0  0  0  0  0  0  0  0  0  0  0  0  # atno 17320 bound_to 7965
  144.6820  139.9795  143.7483 LP  0  0  0  0  0  0  0  0  0  0  0  0  # atno 17321 bound_to 7965
  139.9777  143.5986  152.2953 LP  0  0  0  0  0  0  0  0  0  0  0  0  # atno 17342 bound_to 10162
  139.6595  144.7662  151.1989 LP  0  0  0  0  0  0  0  0  0  0  0  0  # atno 17343 bound_to 10162
  157.3516  130.7085  149.6444 LP  0  0  0  0  0  0  0  0  0  0  0  0  # atno 17370 bound_to 10713
  155.9678  130.4251  150.4637 LP  0  0  0  0  0  0  0  0  0  0  0  0  # atno 17371 bound_to 10713
  140.9614  134.1650  157.4651 LP  0  0  0  0  0  0  0  0  0  0  0  0  # atno 17394 bound_to 11000
  139.8762  134.9946  156.5702 LP  0  0  0  0  0  0  0  0  0  0  0  0  # atno 17395 bound_to 11000

$$$$
