AV-unprocessed.smi:3133|AV-procd|sdf|11937|dock8
  -GOLD-   2272017323D 1   1.00000     0.00000
 Structure written by MMmdl.
 32 33  0  0  0  0  0  0  0  0  1 V2000
  150.6544  139.4237  154.7448 C   0  0  0  0  0  0  0  0  0  0  0  0
  150.0057  140.7780  155.0978 C   0  0  2  0  0  0  0  0  0  0  0  0
  149.9233  141.0296  156.6134 C   0  0  0  0  0  0  0  0  0  0  0  0
  150.1683  140.1281  157.4158 O   0  0  0  0  0  0  0  0  0  0  0  0
  149.5845  142.2732  156.9908 N   0  0  0  0  0  0  0  0  0  0  0  0
  149.4415  142.7338  158.3681 C   0  0  0  0  0  0  0  0  0  0  0  0
  150.2737  143.9989  158.6358 C   0  0  2  0  0  0  0  0  0  0  0  0
  151.5289  144.1450  157.7729 C   0  0  0  0  0  0  0  0  0  0  0  0
  152.4032  145.0105  158.6504 C   0  0  0  0  0  0  0  0  0  0  0  0
  152.0966  144.4480  160.0343 C   0  0  0  0  0  0  0  0  0  0  0  0
  150.7442  144.0009  159.9818 O   0  0  0  0  0  0  0  0  0  0  0  0
  148.6930  140.9293  154.4806 N   0  0  0  0  0  0  0  0  0  0  0  0
  147.8576  141.9703  154.4853 C   0  0  0  0  0  0  0  0  0  0  0  0
  146.7146  141.7472  153.8518 N   0  0  0  0  0  0  0  0  0  0  0  0
  146.9203  140.4550  153.4592 C   0  0  0  0  0  0  0  0  0  0  0  0
  148.0850  139.9145  153.8166 N   0  0  0  0  0  0  0  0  0  0  0  0
  151.6597  139.3477  155.1607 H   0  0  0  0  0  0  0  0  0  0  0  0
  150.7395  139.3044  153.6644 H   0  0  0  0  0  0  0  0  0  0  0  0
  150.0750  138.5811  155.1246 H   0  0  0  0  0  0  0  0  0  0  0  0
  150.6458  141.5585  154.6834 H   0  0  0  0  0  0  0  0  0  0  0  0
  149.4035  142.9531  156.2669 H   0  0  0  0  0  0  0  0  0  0  0  0
  148.3867  142.9531  158.5343 H   0  0  0  0  0  0  0  0  0  0  0  0
  149.7022  141.9468  159.0778 H   0  0  0  0  0  0  0  0  0  0  0  0
  149.6502  144.8857  158.5116 H   0  0  0  0  0  0  0  0  0  0  0  0
  152.0051  143.1760  157.6165 H   0  0  0  0  0  0  0  0  0  0  0  0
  151.3274  144.5884  156.7975 H   0  0  0  0  0  0  0  0  0  0  0  0
  153.4611  144.9568  158.3917 H   0  0  0  0  0  0  0  0  0  0  0  0
  152.0851  146.0520  158.5869 H   0  0  0  0  0  0  0  0  0  0  0  0
  152.7359  143.5897  160.2448 H   0  0  0  0  0  0  0  0  0  0  0  0
  152.2446  145.1832  160.8256 H   0  0  0  0  0  0  0  0  0  0  0  0
  148.0881  142.9095  154.9663 H   0  0  0  0  0  0  0  0  0  0  0  0
  146.1872  139.8947  152.8979 H   0  0  0  0  0  0  0  0  0  0  0  0
  1  2  1  0  0  0  0
  1 17  1  0  0  0  0
  1 18  1  0  0  0  0
  1 19  1  0  0  0  0
  2  3  1  0  0  0  0
  2 12  1  0  0  0  0
  2 20  1  0  0  0  0
  3  4  2  0  0  0  0
  3  5  1  0  0  0  0
  5  6  1  0  0  0  0
  5 21  1  0  0  0  0
  6  7  1  0  0  0  0
  6 22  1  0  0  0  0
  6 23  1  0  0  0  0
  7 11  1  0  0  0  0
  7  8  1  0  0  0  0
  7 24  1  0  0  0  0
  8  9  1  0  0  0  0
  8 25  1  0  0  0  0
  8 26  1  0  0  0  0
  9 10  1  0  0  0  0
  9 27  1  0  0  0  0
  9 28  1  0  0  0  0
 10 11  1  0  0  0  0
 10 29  1  0  0  0  0
 10 30  1  0  0  0  0
 12 16  1  0  0  0  0
 12 13  1  0  0  0  0
 13 14  2  0  0  0  0
 13 31  1  0  0  0  0
 14 15  1  0  0  0  0
 15 16  2  0  0  0  0
 15 32  1  0  0  0  0
M  END
> <s_m_source_file>
AV-unprocessed.smi

> <i_m_source_file_index>
3133

> <i_lp_mmshare_version>
43012

> <i_f3d_flags>
0

> <s_epik_input>
bjFbY0hdbltjSF1uMVtDQEhdKFtDSDNdKUMoPU8pW05IXVtDSDJdW0NAQEhdMltDSDJdW0NIMl1bQ0gyXU8y

> <s_epik_cmdline>
J2VwaWtfcHl0aG9uJywgJy1waCcsICc3LjAnLCAnLXRuJywgJzgnLCAnLW1hJywgJzIwMCcsICctbWV0YWxfYmluZGluZycsICctaW1hZScsICc8aW5maWxlLm1hZT4nLCAnLW9tYWUnLCAnPG91dGZpbGUubWFlPic=

> <r_lp_tautomer_probability>
1

> <r_epik_Ionization_Penalty>
1.2027e-05

> <r_epik_Ionization_Penalty_Charging>
0

> <r_epik_Ionization_Penalty_Neutral>
1.2027e-05

> <r_epik_State_Penalty>
-0

> <r_epik_Charging_Adjusted_Penalty>
0

> <i_epik_Tot_Q>
0

> <i_epik_Tot_abs_Q>
0

> <r_epik_Metal_State_Penalty>
-0

> <b_epik_Metal_Only>
0

> <s_lp_Force_Field>
OPLS_2005

> <r_lp_Energy>
23.5717

> <b_lp_Chiralities_Consistent>
1

> <s_lp_Variant>
AV-unprocessed.smi:3133-1

> <Gold.Version>
5.8.1

> <Gold.Id.Protein>
6NUR|6NUR_protein|mol2

> <Gold.PLP.Fitness>
40.5522

> <Gold.PLP.PLP>
-32.6486

> <Gold.PLP.part.hbond>
-1.0000

> <Gold.PLP.part.metal>
0.0000

> <Gold.PLP.part.buried>
-2.9602

> <Gold.PLP.part.nonpolar>
-29.7325

> <Gold.PLP.part.repulsive>
0.7958

> <Gold.PLP.ligand.clash>
0.0000

> <Gold.PLP.ligand.torsion>
0.6069

> <Gold.PLP.Chemscore.Hbond>
1.0000

> <Gold.PLP.Chemscore.CHOScore>
2.0000

> <Gold.PLP.Chemscore.Metal>
0.0000

> <Gold.Chemscore.Hbonds>
donor molecule, donor type, donor heavy atom, donor atom, acceptor molecule, acceptor atom, score
      L1  H     5    21       P1  8028  1.00
      L1  C    13    31       P1  8028  1.00
      L1  C    15    32       P1 10175  0.79

> <Gold.PLP.Chemscore.Internal.Correction>
0.1174

> <Gold.Rescore>
     Score         DG    S(hbond)    S(metal)    S(lipo)     H(rot)  DE(clash)    DE(int)     intcor
     10.45     -11.14       0.97        0.00      69.89       2.26       0.13       0.55       ----

> <Gold.Chemscore.Fitness>
10.4533

> <Gold.Chemscore.DG>
-11.1377

> <Gold.Chemscore.ZeroCoef>
-5.4800

> <Gold.Chemscore.Hbond>
0.9747

> <Gold.Chemscore.Metal>
0.0000

> <Gold.Chemscore.Lipo>
69.8877

> <Gold.Chemscore.Internal_Hbond>
0.0000

> <Gold.Chemscore.DEClash>
0.1318

> <Gold.Chemscore.DEInternal>
0.5526

> <Gold.Chemscore.Rot>
2.2558

> <Gold.Chemscore.Internal.Correction>
   9.000000E+99

> <Gold.Chemscore.Hbonds>
donor molecule, donor type, donor heavy atom, donor atom, acceptor molecule, acceptor atom, score
      L1  H     5    21       P1  8028  0.95

> <Gold.Chemscore.Hbond.Weighted>
-3.2556

> <Gold.Chemscore.Metal.Weighted>
-0.0000

> <Gold.Chemscore.Lipo.Weighted>
-8.1769

> <Gold.Chemscore.Internal_Hbond.Weighted>
0.0000

> <Gold.Chemscore.DEClash.Weighted>
0.1318

> <Gold.Chemscore.DEInternal.Weighted>
0.5526

> <Gold.Chemscore.Rot.Weighted>
5.7747

> <Gold.Chemscore.Internal.Correction.Weighted>
   9.000000E+99

> <Gold.Protein.RotatedTorsions>
[ 6907 6896 6895 6894 ] final -145.67 input  -60.11 | X-H torsion
[ 7974 7965 7964 7962 ] final -138.36 input  175.53 | X-H torsion
[ 8008 7997 7996 7995 ] final  -98.55 input   59.86 | X-H torsion
[ 10167 10162 10161 10158 ] final  -45.23 input  -65.29 | X-H torsion
[ 10718 10713 10712 10709 ] final -166.85 input   66.30 | X-H torsion
[ 10763 10752 10751 10750 ] final  160.43 input  -60.55 | X-H torsion
[ 11005 11000 10999 10996 ] final   16.31 input  -57.11 | X-H torsion

> <Gold.Protein.ActiveResidues>
 VAL166  LYS551  ARG553  GLY616  TRP617  ASP618  TYR619  PRO620  LYS621  CYS622 
 ASP623  PHE694  ASN695  SER759  ASP760  ASP761  ALA762  ILE779  LEU786  VAL792 
 PHE793  MET794  SER795  GLU796  ALA797  LYS798  CYS799  TRP800  GLU811  SER814 

> <Gold.Protein.RotatedAtoms>
  151.1309  133.5037  159.2598 H   0  0  0  0  0  0  0  0  0  0  0  0  # atno 6907 bound_to 6896
  151.1758  135.0338  159.8781 H   0  0  0  0  0  0  0  0  0  0  0  0  # atno 6908 bound_to 6896
  152.5459  134.1167  159.8435 H   0  0  0  0  0  0  0  0  0  0  0  0  # atno 6909 bound_to 6896
  144.8765  140.6444  143.5233 H   0  0  0  0  0  0  0  0  0  0  0  0  # atno 7974 bound_to 7965
  154.8028  140.0454  157.1285 H   0  0  0  0  0  0  0  0  0  0  0  0  # atno 8008 bound_to 7997
  154.9459  140.3059  155.5078 H   0  0  0  0  0  0  0  0  0  0  0  0  # atno 8009 bound_to 7997
  156.2963  140.2297  156.4533 H   0  0  0  0  0  0  0  0  0  0  0  0  # atno 8010 bound_to 7997
  140.6866  143.2890  151.3610 H   0  0  0  0  0  0  0  0  0  0  0  0  # atno 10167 bound_to 10162
  156.6739  130.9095  151.3047 H   0  0  0  0  0  0  0  0  0  0  0  0  # atno 10718 bound_to 10713
  154.2473  135.2772  155.2830 H   0  0  0  0  0  0  0  0  0  0  0  0  # atno 10763 bound_to 10752
  154.5494  135.5679  153.6912 H   0  0  0  0  0  0  0  0  0  0  0  0  # atno 10764 bound_to 10752
  152.9987  135.6271  154.2619 H   0  0  0  0  0  0  0  0  0  0  0  0  # atno 10765 bound_to 10752
  140.4486  134.1248  155.7699 H   0  0  0  0  0  0  0  0  0  0  0  0  # atno 11005 bound_to 11000
  145.4033  139.1593  143.4165 LP  0  0  0  0  0  0  0  0  0  0  0  0  # atno 17320 bound_to 7965
  146.2966  140.4132  142.8719 LP  0  0  0  0  0  0  0  0  0  0  0  0  # atno 17321 bound_to 7965
  139.6230  144.0870  152.2408 LP  0  0  0  0  0  0  0  0  0  0  0  0  # atno 17342 bound_to 10162
  140.0320  144.6073  150.7480 LP  0  0  0  0  0  0  0  0  0  0  0  0  # atno 17343 bound_to 10162
  157.7067  130.9394  150.0956 LP  0  0  0  0  0  0  0  0  0  0  0  0  # atno 17370 bound_to 10713
  156.1918  130.3655  149.8900 LP  0  0  0  0  0  0  0  0  0  0  0  0  # atno 17371 bound_to 10713
  141.1674  133.8676  157.1673 LP  0  0  0  0  0  0  0  0  0  0  0  0  # atno 17394 bound_to 11000
  140.0022  135.0023  157.0214 LP  0  0  0  0  0  0  0  0  0  0  0  0  # atno 17395 bound_to 11000

$$$$
