AV-unprocessed.smi:1597|AV-procd|sdf|6420|dock3
  -GOLD-   22720 7 53D 1   1.00000     0.00000
 Structure written by MMmdl.
 53 54  0  0  0  0  0  0  0  0  2 V2000
  145.9346  137.1130  152.3854 C   0  0  0  0  0  0  0  0  0  0  0  0
  146.2247  135.7100  152.7861 N   0  3  0  0  0  0  0  0  0  0  0  0
  146.5402  135.6552  154.2412 C   0  0  0  0  0  0  0  0  0  0  0  0
  145.2576  134.6640  152.2730 C   0  0  0  0  0  0  0  0  0  0  0  0
  143.9690  134.7186  153.1606 C   0  0  0  0  0  0  0  0  0  0  0  0
  143.2200  135.9643  153.0098 N   0  0  0  0  0  0  0  0  0  0  0  0
  141.9736  136.2208  153.4389 C   0  0  0  0  0  0  0  0  0  0  0  0
  141.2951  135.3981  154.0505 O   0  0  0  0  0  0  0  0  0  0  0  0
  141.3747  137.6011  153.1172 C   0  0  0  0  0  0  0  0  0  0  0  0
  140.1252  137.9035  153.8338 N   0  0  0  0  0  0  0  0  0  0  0  0
  138.9907  138.2313  153.1133 C   0  0  0  0  0  0  0  0  0  0  0  0
  137.8102  138.5509  153.6865 C   0  0  0  0  0  0  0  0  0  0  0  0
  137.6655  138.5694  155.1364 C   0  0  0  0  0  0  0  0  0  0  0  0
  136.6117  138.8498  155.7089 O   0  0  0  0  0  0  0  0  0  0  0  0
  138.8391  138.2353  155.8499 N   0  0  0  0  0  0  0  0  0  0  0  0
  138.7372  138.2383  157.2944 C   0  0  0  0  0  0  0  0  0  0  0  0
  140.0712  137.8933  155.2453 C   0  0  0  0  0  0  0  0  0  0  0  0
  141.0737  137.6049  155.9022 O   0  0  0  0  0  0  0  0  0  0  0  0
  144.8716  134.9992  150.7920 C   0  0  0  0  0  0  0  0  0  0  0  0
  144.6704  133.8559  149.7786 C   0  0  0  0  0  0  0  0  0  0  0  0
  143.7494  132.7080  150.2097 C   0  0  0  0  0  0  0  0  0  0  0  0
  144.5075  131.6021  150.9531 C   0  0  0  0  0  0  0  0  0  0  0  0
  145.0016  131.9939  152.3498 C   0  0  0  0  0  0  0  0  0  0  0  0
  145.9146  133.2423  152.4101 C   0  0  0  0  0  0  0  0  0  0  0  0
  144.9402  137.4256  152.7044 H   0  0  0  0  0  0  0  0  0  0  0  0
  146.0157  137.2623  151.3096 H   0  0  0  0  0  0  0  0  0  0  0  0
  146.6550  137.7971  152.8351 H   0  0  0  0  0  0  0  0  0  0  0  0
  145.7122  136.0108  154.8537 H   0  0  0  0  0  0  0  0  0  0  0  0
  147.3951  136.2974  154.4550 H   0  0  0  0  0  0  0  0  0  0  0  0
  146.8140  134.6637  154.5922 H   0  0  0  0  0  0  0  0  0  0  0  0
  143.3109  133.8663  153.0003 H   0  0  0  0  0  0  0  0  0  0  0  0
  144.2268  134.6350  154.2139 H   0  0  0  0  0  0  0  0  0  0  0  0
  143.6970  136.7101  152.5232 H   0  0  0  0  0  0  0  0  0  0  0  0
  142.1214  138.3589  153.3589 H   0  0  0  0  0  0  0  0  0  0  0  0
  141.2270  137.6772  152.0389 H   0  0  0  0  0  0  0  0  0  0  0  0
  139.0499  138.2366  152.0345 H   0  0  0  0  0  0  0  0  0  0  0  0
  136.9620  138.7973  153.0647 H   0  0  0  0  0  0  0  0  0  0  0  0
  139.7108  138.0952  157.7616 H   0  0  0  0  0  0  0  0  0  0  0  0
  138.0615  137.4264  157.5680 H   0  0  0  0  0  0  0  0  0  0  0  0
  138.3362  139.2083  157.5946 H   0  0  0  0  0  0  0  0  0  0  0  0
  143.9790  135.6262  150.7874 H   0  0  0  0  0  0  0  0  0  0  0  0
  145.6407  135.6229  150.3386 H   0  0  0  0  0  0  0  0  0  0  0  0
  144.2563  134.2991  148.8722 H   0  0  0  0  0  0  0  0  0  0  0  0
  145.6392  133.4568  149.4755 H   0  0  0  0  0  0  0  0  0  0  0  0
  142.8967  133.0708  150.7822 H   0  0  0  0  0  0  0  0  0  0  0  0
  143.3262  132.2620  149.3089 H   0  0  0  0  0  0  0  0  0  0  0  0
  143.8550  130.7336  151.0501 H   0  0  0  0  0  0  0  0  0  0  0  0
  145.3517  131.2684  150.3486 H   0  0  0  0  0  0  0  0  0  0  0  0
  144.1585  132.0707  153.0337 H   0  0  0  0  0  0  0  0  0  0  0  0
  145.5764  131.1492  152.7313 H   0  0  0  0  0  0  0  0  0  0  0  0
  146.7103  133.1185  151.6745 H   0  0  0  0  0  0  0  0  0  0  0  0
  146.4111  133.1922  153.3806 H   0  0  0  0  0  0  0  0  0  0  0  0
  147.0973  135.4885  152.3277 H   0  0  0  0  0  0  0  0  0  0  0  0
  1  2  1  0  0  0  0
  1 25  1  0  0  0  0
  1 26  1  0  0  0  0
  1 27  1  0  0  0  0
  2  3  1  0  0  0  0
  2  4  1  0  0  0  0
  2 53  1  0  0  0  0
  3 28  1  0  0  0  0
  3 29  1  0  0  0  0
  3 30  1  0  0  0  0
  4 24  1  0  0  0  0
  4  5  1  0  0  0  0
  4 19  1  0  0  0  0
  5  6  1  0  0  0  0
  5 31  1  0  0  0  0
  5 32  1  0  0  0  0
  6  7  1  0  0  0  0
  6 33  1  0  0  0  0
  7  8  2  0  0  0  0
  7  9  1  0  0  0  0
  9 10  1  0  0  0  0
  9 34  1  0  0  0  0
  9 35  1  0  0  0  0
 10 17  1  0  0  0  0
 10 11  1  0  0  0  0
 11 12  2  0  0  0  0
 11 36  1  0  0  0  0
 12 13  1  0  0  0  0
 12 37  1  0  0  0  0
 13 14  2  0  0  0  0
 13 15  1  0  0  0  0
 15 16  1  0  0  0  0
 15 17  1  0  0  0  0
 16 38  1  0  0  0  0
 16 39  1  0  0  0  0
 16 40  1  0  0  0  0
 17 18  2  0  0  0  0
 19 20  1  0  0  0  0
 19 41  1  0  0  0  0
 19 42  1  0  0  0  0
 20 21  1  0  0  0  0
 20 43  1  0  0  0  0
 20 44  1  0  0  0  0
 21 22  1  0  0  0  0
 21 45  1  0  0  0  0
 21 46  1  0  0  0  0
 22 23  1  0  0  0  0
 22 47  1  0  0  0  0
 22 48  1  0  0  0  0
 23 24  1  0  0  0  0
 23 49  1  0  0  0  0
 23 50  1  0  0  0  0
 24 51  1  0  0  0  0
 24 52  1  0  0  0  0
M  CHG  1   2   1
M  END
> <s_m_source_file>
AV-unprocessed.smi

> <i_m_source_file_index>
1597

> <i_lp_mmshare_version>
43012

> <i_f3d_flags>
0

> <s_epik_input>
W0NIMl0xW0NIMl1bQ0gyXVtDSDJdW0NIMl1bQ0gyXUMxKE4oW0NIM10pW0NIM10pW0NIMl1bTkhdQyg9TylbQ0gyXW4yW2NIXVtjSF1jKD1PKW4oW0NIM10pYzI9Tw==

> <s_epik_cmdline>
J2VwaWtfcHl0aG9uJywgJy1waCcsICc3LjAnLCAnLXRuJywgJzgnLCAnLW1hJywgJzIwMCcsICctbWV0YWxfYmluZGluZycsICctaW1hZScsICc8aW5maWxlLm1hZT4nLCAnLW9tYWUnLCAnPG91dGZpbGUubWFlPic=

> <r_lp_tautomer_probability>
1

> <r_epik_Ionization_Penalty>
0.00225783

> <r_epik_Ionization_Penalty_Charging>
0.00225776

> <r_epik_Ionization_Penalty_Neutral>
7.38919e-08

> <r_epik_State_Penalty>
0.00155497

> <r_epik_Charging_Adjusted_Penalty>
0.00381272

> <i_epik_Tot_Q>
1

> <i_epik_Tot_abs_Q>
1

> <r_epik_Metal_State_Penalty>
-0

> <b_epik_Metal_Only>
0

> <s_lp_Force_Field>
OPLS_2005

> <r_lp_Energy>
50.4542

> <b_lp_Chiralities_Consistent>
1

> <s_lp_Variant>
AV-unprocessed.smi:1597-1

> <Gold.Version>
5.8.1

> <Gold.Id.Protein>
6NUR|6NUR_protein|mol2

> <Gold.PLP.Fitness>
49.2725

> <Gold.PLP.PLP>
-38.4282

> <Gold.PLP.part.hbond>
-2.8028

> <Gold.PLP.part.metal>
0.0000

> <Gold.PLP.part.buried>
-5.4023

> <Gold.PLP.part.nonpolar>
-30.3852

> <Gold.PLP.part.repulsive>
0.1920

> <Gold.PLP.ligand.clash>
0.0000

> <Gold.PLP.ligand.torsion>
0.5138

> <Gold.PLP.Chemscore.Hbond>
2.9120

> <Gold.PLP.Chemscore.CHOScore>
1.0000

> <Gold.PLP.Chemscore.Metal>
0.0000

> <Gold.Chemscore.Hbonds>
donor molecule, donor type, donor heavy atom, donor atom, acceptor molecule, acceptor atom, score
      L1  H     2    53       P1  7948  1.79
      P1  H 11000 11005       L1     8  0.32
      L1  C    11    36       P1 10160  0.05

> <Gold.PLP.Chemscore.Internal.Correction>
0.1360

> <Gold.Rescore>
     Score         DG    S(hbond)    S(metal)    S(lipo)     H(rot)  DE(clash)    DE(int)     intcor
     13.87     -16.59       1.95        0.00      83.54       2.02       1.74       0.98       ----

> <Gold.Chemscore.Fitness>
13.8709

> <Gold.Chemscore.DG>
-16.5923

> <Gold.Chemscore.ZeroCoef>
-5.4800

> <Gold.Chemscore.Hbond>
1.9516

> <Gold.Chemscore.Metal>
0.0000

> <Gold.Chemscore.Lipo>
83.5413

> <Gold.Chemscore.Internal_Hbond>
0.0000

> <Gold.Chemscore.DEClash>
1.7397

> <Gold.Chemscore.DEInternal>
0.9817

> <Gold.Chemscore.Rot>
2.0236

> <Gold.Chemscore.Internal.Correction>
   9.000000E+99

> <Gold.Chemscore.Hbonds>
donor molecule, donor type, donor heavy atom, donor atom, acceptor molecule, acceptor atom, score
      L1  H     2    53       P1  7948  0.82
      P1  H 11000 11005       L1     8  0.32

> <Gold.Chemscore.Hbond.Weighted>
-6.5183

> <Gold.Chemscore.Metal.Weighted>
-0.0000

> <Gold.Chemscore.Lipo.Weighted>
-9.7743

> <Gold.Chemscore.Internal_Hbond.Weighted>
0.0000

> <Gold.Chemscore.DEClash.Weighted>
1.7397

> <Gold.Chemscore.DEInternal.Weighted>
0.9817

> <Gold.Chemscore.Rot.Weighted>
5.1803

> <Gold.Chemscore.Internal.Correction.Weighted>
   9.000000E+99

> <Gold.Protein.RotatedTorsions>
[ 6907 6896 6895 6894 ] final    6.16 input  -60.11 | X-H torsion
[ 7974 7965 7964 7962 ] final -171.65 input  175.53 | X-H torsion
[ 8008 7997 7996 7995 ] final -103.25 input   59.86 | X-H torsion
[ 10167 10162 10161 10158 ] final   13.65 input  -65.29 | X-H torsion
[ 10718 10713 10712 10709 ] final -110.69 input   66.30 | X-H torsion
[ 10763 10752 10751 10750 ] final  -61.13 input  -60.55 | X-H torsion
[ 11005 11000 10999 10996 ] final    7.66 input  -57.11 | X-H torsion

> <Gold.Protein.ActiveResidues>
 VAL166  LYS551  ARG553  GLY616  TRP617  ASP618  TYR619  PRO620  LYS621  CYS622 
 ASP623  PHE694  ASN695  SER759  ASP760  ASP761  ALA762  ILE779  LEU786  VAL792 
 PHE793  MET794  SER795  GLU796  ALA797  LYS798  CYS799  TRP800  GLU811  SER814 

> <Gold.Protein.RotatedAtoms>
  151.6692  135.0978  160.0194 H   0  0  0  0  0  0  0  0  0  0  0  0  # atno 6907 bound_to 6896
  152.3901  133.6663  159.6239 H   0  0  0  0  0  0  0  0  0  0  0  0  # atno 6908 bound_to 6896
  150.7818  133.8885  159.3347 H   0  0  0  0  0  0  0  0  0  0  0  0  # atno 6909 bound_to 6896
  144.7155  140.1891  143.6350 H   0  0  0  0  0  0  0  0  0  0  0  0  # atno 7974 bound_to 7965
  154.8682  140.0424  157.1708 H   0  0  0  0  0  0  0  0  0  0  0  0  # atno 8008 bound_to 7997
  154.8767  140.2966  155.5428 H   0  0  0  0  0  0  0  0  0  0  0  0  # atno 8009 bound_to 7997
  156.2999  140.2419  156.3763 H   0  0  0  0  0  0  0  0  0  0  0  0  # atno 8010 bound_to 7997
  140.5988  143.8646  150.6945 H   0  0  0  0  0  0  0  0  0  0  0  0  # atno 10167 bound_to 10162
  156.0605  130.5829  150.8272 H   0  0  0  0  0  0  0  0  0  0  0  0  # atno 10718 bound_to 10713
  154.2799  135.6274  153.5343 H   0  0  0  0  0  0  0  0  0  0  0  0  # atno 10763 bound_to 10752
  152.9867  135.5630  154.5507 H   0  0  0  0  0  0  0  0  0  0  0  0  # atno 10764 bound_to 10752
  154.5095  135.2876  155.1330 H   0  0  0  0  0  0  0  0  0  0  0  0  # atno 10765 bound_to 10752
  140.5457  134.0331  155.7919 H   0  0  0  0  0  0  0  0  0  0  0  0  # atno 11005 bound_to 11000
  145.8785  139.2310  143.1619 LP  0  0  0  0  0  0  0  0  0  0  0  0  # atno 17320 bound_to 7965
  146.0017  140.8514  143.0015 LP  0  0  0  0  0  0  0  0  0  0  0  0  # atno 17321 bound_to 7965
  140.2187  143.3826  152.1660 LP  0  0  0  0  0  0  0  0  0  0  0  0  # atno 17342 bound_to 10162
  139.5277  144.7122  151.5170 LP  0  0  0  0  0  0  0  0  0  0  0  0  # atno 17343 bound_to 10162
  157.5610  131.0946  150.9559 LP  0  0  0  0  0  0  0  0  0  0  0  0  # atno 17370 bound_to 10713
  156.9797  130.5522  149.5295 LP  0  0  0  0  0  0  0  0  0  0  0  0  # atno 17371 bound_to 10713
  141.1201  133.9475  157.2746 LP  0  0  0  0  0  0  0  0  0  0  0  0  # atno 17394 bound_to 11000
  139.9481  135.0180  156.8912 LP  0  0  0  0  0  0  0  0  0  0  0  0  # atno 17395 bound_to 11000

$$$$
