AV-unprocessed.smi:35|AV-procd|sdf|273|dock6
  -GOLD-   2262016 43D 1   1.00000     0.00000
 Structure written by MMmdl.
 28 29  0  0  0  0  0  0  0  0  2 V2000
  152.4661  140.3903  158.9632 O   0  0  0  0  0  0  0  0  0  0  0  0
  151.5494  140.5647  158.1623 C   0  0  0  0  0  0  0  0  0  0  0  0
  150.8447  139.5361  157.6074 N   0  5  0  0  0  0  0  0  0  0  0  0
  149.8298  139.7344  156.7152 C   0  0  0  0  0  0  0  0  0  0  0  0
  149.1681  138.8155  156.2324 O   0  0  0  0  0  0  0  0  0  0  0  0
  149.5046  141.0636  156.3307 N   0  0  0  0  0  0  0  0  0  0  0  0
  148.3835  141.3028  155.3428 C   0  0  2  0  0  0  0  0  0  0  0  0
  147.2761  140.5541  155.7325 O   0  0  0  0  0  0  0  0  0  0  0  0
  146.5186  140.2398  154.5753 C   0  0  2  0  0  0  0  0  0  0  0  0
  145.5865  139.0529  154.8641 C   0  0  0  0  0  0  0  0  0  0  0  0
  145.0966  138.5129  153.6551 O   0  0  0  0  0  0  0  0  0  0  0  0
  147.6040  139.9261  153.5394 C   0  0  1  0  0  0  0  0  0  0  0  0
  147.1203  140.1823  152.2354 O   0  0  0  0  0  0  0  0  0  0  0  0
  148.7352  140.8880  153.8960 C   0  0  2  0  0  0  0  0  0  0  0  0
  149.9915  140.2481  153.7592 O   0  0  0  0  0  0  0  0  0  0  0  0
  150.1874  142.1291  156.8919 C   0  0  0  0  0  0  0  0  0  0  0  0
  151.1819  141.9258  157.7793 C   0  0  0  0  0  0  0  0  0  0  0  0
  152.0706  143.5408  158.5063 Br  0  0  0  0  0  0  0  0  0  0  0  0
  148.1108  142.3563  155.4259 H   0  0  0  0  0  0  0  0  0  0  0  0
  145.9541  141.1236  154.2691 H   0  0  0  0  0  0  0  0  0  0  0  0
  146.1354  138.2615  155.3754 H   0  0  0  0  0  0  0  0  0  0  0  0
  144.7610  139.3461  155.5139 H   0  0  0  0  0  0  0  0  0  0  0  0
  144.5147  139.1431  153.2587 H   0  0  0  0  0  0  0  0  0  0  0  0
  147.9277  138.8878  153.6337 H   0  0  0  0  0  0  0  0  0  0  0  0
  147.8542  140.1852  151.6400 H   0  0  0  0  0  0  0  0  0  0  0  0
  148.7178  141.7885  153.2799 H   0  0  0  0  0  0  0  0  0  0  0  0
  150.0086  139.8038  152.9248 H   0  0  0  0  0  0  0  0  0  0  0  0
  149.9190  143.1408  156.6264 H   0  0  0  0  0  0  0  0  0  0  0  0
  1  2  2  0  0  0  0
  2 17  1  0  0  0  0
  2  3  1  0  0  0  0
  3  4  1  0  0  0  0
  4  5  2  0  0  0  0
  4  6  1  0  0  0  0
  6  7  1  0  0  0  0
  6 16  1  0  0  0  0
  7 14  1  0  0  0  0
  7  8  1  0  0  0  0
  7 19  1  0  0  0  0
  8  9  1  0  0  0  0
  9 10  1  0  0  0  0
  9 12  1  0  0  0  0
  9 20  1  0  0  0  0
 10 11  1  0  0  0  0
 10 21  1  0  0  0  0
 10 22  1  0  0  0  0
 11 23  1  0  0  0  0
 12 13  1  0  0  0  0
 12 14  1  0  0  0  0
 12 24  1  0  0  0  0
 13 25  1  0  0  0  0
 14 15  1  0  0  0  0
 14 26  1  0  0  0  0
 15 27  1  0  0  0  0
 16 17  2  0  0  0  0
 16 28  1  0  0  0  0
 17 18  1  0  0  0  0
M  CHG  1   3  -1
M  END
> <s_m_source_file>
AV-unprocessed.smi

> <i_m_source_file_index>
35

> <i_lp_mmshare_version>
43012

> <i_f3d_flags>
0

> <s_epik_input>
Tz1jMVtuSF1jKD1PKW4oW2NIXWMxQnIpW0NAQEhdMk9bQ0BASF0oW0NIMl1bT0hdKVtDQEBIXShbT0hdKVtDQEhdMltPSF0=

> <s_epik_cmdline>
J2VwaWtfcHl0aG9uJywgJy1waCcsICc3LjAnLCAnLXRuJywgJzgnLCAnLW1hJywgJzIwMCcsICctbWV0YWxfYmluZGluZycsICctaW1hZScsICc8aW5maWxlLm1hZT4nLCAnLW9tYWUnLCAnPG91dGZpbGUubWFlPic=

> <r_epik_Ionization_Penalty>
1.06112

> <r_epik_Ionization_Penalty_Charging>
2.1796e-09

> <r_epik_Ionization_Penalty_Neutral>
1.06112

> <r_epik_State_Penalty>
1.11484

> <r_epik_Charging_Adjusted_Penalty>
1.11484

> <i_epik_Tot_Q>
-1

> <i_epik_Tot_abs_Q>
1

> <r_epik_Metal_State_Penalty>
0.0032876

> <b_epik_Metal_Only>
0

> <s_epik_Chemistry_Notes>
This compound contains an acetal/aminal-like group ( X-CH(R)-Y where X, Y are N, S, or O) that may be acid/base labile, releasing an aldehyde.

> <s_lp_Force_Field>
OPLS_2005

> <r_lp_Energy>
42.5644

> <b_lp_Chiralities_Consistent>
1

> <s_lp_Variant>
AV-unprocessed.smi:35-27

> <Gold.Version>
5.8.1

> <Gold.Id.Protein>
6NUR|6NUR_protein|mol2

> <Gold.PLP.Fitness>
37.3923

> <Gold.PLP.PLP>
-24.6081

> <Gold.PLP.part.hbond>
-4.2767

> <Gold.PLP.part.metal>
0.0000

> <Gold.PLP.part.buried>
-2.5835

> <Gold.PLP.part.nonpolar>
-18.0810

> <Gold.PLP.part.repulsive>
0.0316

> <Gold.PLP.ligand.clash>
0.0000

> <Gold.PLP.ligand.torsion>
0.3072

> <Gold.PLP.Chemscore.Hbond>
3.3968

> <Gold.PLP.Chemscore.CHOScore>
1.0000

> <Gold.PLP.Chemscore.Metal>
0.0000

> <Gold.Chemscore.Hbonds>
donor molecule, donor type, donor heavy atom, donor atom, acceptor molecule, acceptor atom, score
      L1  H    11    23       P1 10175  1.00
      L1  H    13    25       P1  7957  1.00
      L1  H    15    27       P1  7957  0.85
      P1  H  7989  7998       L1    15  0.36
      L1  C    16    28       P1  8028  1.00

> <Gold.PLP.Chemscore.Internal.Correction>
0.2081

> <Gold.Rescore>
     Score         DG    S(hbond)    S(metal)    S(lipo)     H(rot)  DE(clash)    DE(int)     intcor
      9.17     -11.59       2.96        0.00      47.01       3.63       0.07       2.35       ----

> <Gold.Chemscore.Fitness>
9.1726

> <Gold.Chemscore.DG>
-11.5938

> <Gold.Chemscore.ZeroCoef>
-5.4800

> <Gold.Chemscore.Hbond>
2.9629

> <Gold.Chemscore.Metal>
0.0000

> <Gold.Chemscore.Lipo>
47.0132

> <Gold.Chemscore.Internal_Hbond>
0.0000

> <Gold.Chemscore.DEClash>
0.0694

> <Gold.Chemscore.DEInternal>
2.3518

> <Gold.Chemscore.Rot>
3.6261

> <Gold.Chemscore.Internal.Correction>
   9.000000E+99

> <Gold.Chemscore.Hbonds>
donor molecule, donor type, donor heavy atom, donor atom, acceptor molecule, acceptor atom, score
      L1  H    11    23       P1 10175  1.00
      L1  H    13    25       P1  7957  0.99
      L1  H    15    27       P1  7957  0.85
      P1  H  7989  7998       L1    15  0.02

> <Gold.Chemscore.Hbond.Weighted>
-9.8960

> <Gold.Chemscore.Metal.Weighted>
-0.0000

> <Gold.Chemscore.Lipo.Weighted>
-5.5005

> <Gold.Chemscore.Internal_Hbond.Weighted>
0.0000

> <Gold.Chemscore.DEClash.Weighted>
0.0694

> <Gold.Chemscore.DEInternal.Weighted>
2.3518

> <Gold.Chemscore.Rot.Weighted>
9.2828

> <Gold.Chemscore.Internal.Correction.Weighted>
   9.000000E+99

> <Gold.Protein.RotatedTorsions>
[ 6907 6896 6895 6894 ] final   83.35 input  -60.11 | X-H torsion
[ 7974 7965 7964 7962 ] final  138.60 input  175.53 | X-H torsion
[ 8008 7997 7996 7995 ] final   95.81 input   59.86 | X-H torsion
[ 10167 10162 10161 10158 ] final   46.17 input  -65.29 | X-H torsion
[ 10718 10713 10712 10709 ] final   37.81 input   66.30 | X-H torsion
[ 10763 10752 10751 10750 ] final  167.22 input  -60.55 | X-H torsion
[ 11005 11000 10999 10996 ] final -119.83 input  -57.11 | X-H torsion

> <Gold.Protein.ActiveResidues>
 VAL166  LYS551  ARG553  GLY616  TRP617  ASP618  TYR619  PRO620  LYS621  CYS622 
 ASP623  PHE694  ASN695  SER759  ASP760  ASP761  ALA762  ILE779  LEU786  VAL792 
 PHE793  MET794  SER795  GLU796  ALA797  LYS798  CYS799  TRP800  GLU811  SER814 

> <Gold.Protein.RotatedAtoms>
  152.5324  134.2910  159.9042 H   0  0  0  0  0  0  0  0  0  0  0  0  # atno 6907 bound_to 6896
  151.2862  133.4180  159.2637 H   0  0  0  0  0  0  0  0  0  0  0  0  # atno 6908 bound_to 6896
  151.0241  134.9506  159.8132 H   0  0  0  0  0  0  0  0  0  0  0  0  # atno 6909 bound_to 6896
  144.9357  139.4992  143.5596 H   0  0  0  0  0  0  0  0  0  0  0  0  # atno 7974 bound_to 7965
  156.0729  140.3281  155.7598 H   0  0  0  0  0  0  0  0  0  0  0  0  # atno 8008 bound_to 7997
  155.5276  140.0590  157.2912 H   0  0  0  0  0  0  0  0  0  0  0  0  # atno 8009 bound_to 7997
  154.4540  140.1933  156.0452 H   0  0  0  0  0  0  0  0  0  0  0  0  # atno 8010 bound_to 7997
  140.3167  144.2755  150.6190 H   0  0  0  0  0  0  0  0  0  0  0  0  # atno 10167 bound_to 10162
  157.3513  130.7600  149.6981 H   0  0  0  0  0  0  0  0  0  0  0  0  # atno 10718 bound_to 10713
  154.3507  135.2753  155.2373 H   0  0  0  0  0  0  0  0  0  0  0  0  # atno 10763 bound_to 10752
  154.4604  135.5908  153.6255 H   0  0  0  0  0  0  0  0  0  0  0  0  # atno 10764 bound_to 10752
  152.9850  135.6063  154.3717 H   0  0  0  0  0  0  0  0  0  0  0  0  # atno 10765 bound_to 10752
  141.0187  134.0156  157.3313 H   0  0  0  0  0  0  0  0  0  0  0  0  # atno 11005 bound_to 11000
  146.3265  139.8339  142.8903 LP  0  0  0  0  0  0  0  0  0  0  0  0  # atno 17320 bound_to 7965
  145.3071  141.0210  143.3576 LP  0  0  0  0  0  0  0  0  0  0  0  0  # atno 17321 bound_to 7965
  140.5520  143.2205  151.7911 LP  0  0  0  0  0  0  0  0  0  0  0  0  # atno 17342 bound_to 10162
  139.4882  144.4463  151.9706 LP  0  0  0  0  0  0  0  0  0  0  0  0  # atno 17343 bound_to 10162
  155.9722  130.4139  150.4108 LP  0  0  0  0  0  0  0  0  0  0  0  0  # atno 17370 bound_to 10713
  157.2171  131.0474  151.2567 LP  0  0  0  0  0  0  0  0  0  0  0  0  # atno 17371 bound_to 10713
  139.9133  135.0193  156.7779 LP  0  0  0  0  0  0  0  0  0  0  0  0  # atno 17394 bound_to 11000
  140.6610  133.9645  155.7805 LP  0  0  0  0  0  0  0  0  0  0  0  0  # atno 17395 bound_to 11000

$$$$
