AV-unprocessed.smi:193|AV-procd|sdf|1503|dock7
  -GOLD-   2262019333D 1   1.00000     0.00000
 Structure written by MMmdl.
 62 66  0  0  0  0  0  0  0  0  2 V2000
  149.0558  142.1928  158.0033 C   0  0  0  0  0  0  0  0  0  0  0  0
  149.1470  140.8946  157.1888 C   0  0  1  0  0  0  0  0  0  0  0  0
  148.6717  141.1481  155.7406 C   0  0  0  0  0  0  0  0  0  0  0  0
  148.7512  139.9642  154.8845 N   0  0  0  0  0  0  0  0  0  0  0  0
  147.8011  138.9799  154.9286 C   0  0  0  0  0  0  0  0  0  0  0  0
  147.5079  138.4381  156.1423 N   0  0  0  0  0  0  0  0  0  0  0  0
  146.5799  137.4881  156.2719 C   0  0  0  0  0  0  0  0  0  0  0  0
  145.8238  136.9327  155.3276 N   0  0  0  0  0  0  0  0  0  0  0  0
  146.1061  137.4550  154.1016 C   0  0  0  0  0  0  0  0  0  0  0  0
  147.0682  138.4681  153.8099 C   0  0  0  0  0  0  0  0  0  0  0  0
  147.0490  138.7282  152.4424 N   0  0  0  0  0  0  0  0  0  0  0  0
  146.1427  137.9242  151.9612 C   0  0  0  0  0  0  0  0  0  0  0  0
  145.5293  137.1182  152.8897 N   0  0  0  0  0  0  0  0  0  0  0  0
  144.4909  136.1308  152.6359 C   0  0  0  0  0  0  0  0  0  0  0  0
  144.8987  135.0421  151.6122 C   0  0  0  0  0  0  0  0  0  0  0  0
  145.0089  135.6658  150.3441 O   0  0  0  0  0  0  0  0  0  0  0  0
  146.2536  134.3823  151.9517 C   0  0  0  0  0  0  0  0  0  0  0  0
  146.5487  133.1685  151.0526 C   0  0  0  0  0  0  0  0  0  0  0  0
  145.4794  132.2333  151.1247 O   0  0  0  0  0  0  0  0  0  0  0  0
  144.2497  132.7653  150.6469 C   0  0  0  0  0  0  0  0  0  0  0  0
  143.8123  133.9513  151.5246 C   0  0  0  0  0  0  0  0  0  0  0  0
  150.0907  139.6451  154.3779 C   0  0  0  0  0  0  0  0  0  0  0  0
  150.9343  138.7687  155.3315 C   0  0  0  0  0  0  0  0  0  0  0  0
  150.5706  138.8996  156.7661 N   0  3  1  0  0  0  0  0  0  0  0  0
  151.3492  137.9741  157.6199 C   0  0  1  0  0  0  0  0  0  0  0  0
  151.4848  138.4288  159.0563 C   0  0  0  0  0  0  0  0  0  0  0  0
  150.5440  137.2948  158.7143 C   0  0  1  0  0  0  0  0  0  0  0  0
  149.0465  137.4763  158.8902 C   0  0  0  0  0  0  0  0  0  0  0  0
  150.5692  140.3000  157.2598 C   0  0  0  0  0  0  0  0  0  0  0  0
  149.7228  142.9587  157.6059 H   0  0  0  0  0  0  0  0  0  0  0  0
  149.3254  142.0247  159.0463 H   0  0  0  0  0  0  0  0  0  0  0  0
  148.0417  142.5936  157.9888 H   0  0  0  0  0  0  0  0  0  0  0  0
  148.4691  140.1813  157.6588 H   0  0  0  0  0  0  0  0  0  0  0  0
  147.6674  141.5674  155.7202 H   0  0  0  0  0  0  0  0  0  0  0  0
  149.2943  141.9273  155.2993 H   0  0  0  0  0  0  0  0  0  0  0  0
  146.4175  137.1242  157.2758 H   0  0  0  0  0  0  0  0  0  0  0  0
  145.8981  137.8925  150.9091 H   0  0  0  0  0  0  0  0  0  0  0  0
  144.2249  135.6675  153.5870 H   0  0  0  0  0  0  0  0  0  0  0  0
  143.5967  136.6559  152.2965 H   0  0  0  0  0  0  0  0  0  0  0  0
  145.3244  135.0278  149.7224 H   0  0  0  0  0  0  0  0  0  0  0  0
  147.0688  135.1024  151.8720 H   0  0  0  0  0  0  0  0  0  0  0  0
  146.2409  134.0479  152.9898 H   0  0  0  0  0  0  0  0  0  0  0  0
  146.7091  133.4751  150.0179 H   0  0  0  0  0  0  0  0  0  0  0  0
  147.4654  132.6777  151.3803 H   0  0  0  0  0  0  0  0  0  0  0  0
  144.3495  133.0632  149.6021 H   0  0  0  0  0  0  0  0  0  0  0  0
  143.4935  131.9806  150.6787 H   0  0  0  0  0  0  0  0  0  0  0  0
  143.5967  133.5763  152.5261 H   0  0  0  0  0  0  0  0  0  0  0  0
  142.8777  134.3700  151.1488 H   0  0  0  0  0  0  0  0  0  0  0  0
  150.0376  139.1921  153.3872 H   0  0  0  0  0  0  0  0  0  0  0  0
  150.6206  140.5852  154.2211 H   0  0  0  0  0  0  0  0  0  0  0  0
  150.7993  137.7242  155.0500 H   0  0  0  0  0  0  0  0  0  0  0  0
  151.9942  138.9847  155.1908 H   0  0  0  0  0  0  0  0  0  0  0  0
  152.1790  137.4620  157.1360 H   0  0  0  0  0  0  0  0  0  0  0  0
  152.4026  138.1709  159.5806 H   0  0  0  0  0  0  0  0  0  0  0  0
  151.0451  139.3843  159.3373 H   0  0  0  0  0  0  0  0  0  0  0  0
  150.8855  136.2975  158.9847 H   0  0  0  0  0  0  0  0  0  0  0  0
  148.7482  138.5124  158.7280 H   0  0  0  0  0  0  0  0  0  0  0  0
  148.7556  137.1956  159.9025 H   0  0  0  0  0  0  0  0  0  0  0  0
  148.5044  136.8421  158.1889 H   0  0  0  0  0  0  0  0  0  0  0  0
  151.2894  140.9116  156.7142 H   0  0  0  0  0  0  0  0  0  0  0  0
  150.8958  140.3148  158.3006 H   0  0  0  0  0  0  0  0  0  0  0  0
  149.6132  138.5874  156.8431 H   0  0  0  0  0  0  0  0  0  0  0  0
  1  2  1  0  0  0  0
  1 30  1  0  0  0  0
  1 31  1  0  0  0  0
  1 32  1  0  0  0  0
  2 29  1  0  0  0  0
  2  3  1  0  0  0  0
  2 33  1  0  0  0  0
  3  4  1  0  0  0  0
  3 34  1  0  0  0  0
  3 35  1  0  0  0  0
  4  5  1  0  0  0  0
  4 22  1  0  0  0  0
  5 10  1  0  0  0  0
  5  6  2  0  0  0  0
  6  7  1  0  0  0  0
  7  8  2  0  0  0  0
  7 36  1  0  0  0  0
  8  9  1  0  0  0  0
  9 13  1  0  0  0  0
  9 10  2  0  0  0  0
 10 11  1  0  0  0  0
 11 12  2  0  0  0  0
 12 13  1  0  0  0  0
 12 37  1  0  0  0  0
 13 14  1  0  0  0  0
 14 15  1  0  0  0  0
 14 38  1  0  0  0  0
 14 39  1  0  0  0  0
 15 21  1  0  0  0  0
 15 16  1  0  0  0  0
 15 17  1  0  0  0  0
 16 40  1  0  0  0  0
 17 18  1  0  0  0  0
 17 41  1  0  0  0  0
 17 42  1  0  0  0  0
 18 19  1  0  0  0  0
 18 43  1  0  0  0  0
 18 44  1  0  0  0  0
 19 20  1  0  0  0  0
 20 21  1  0  0  0  0
 20 45  1  0  0  0  0
 20 46  1  0  0  0  0
 21 47  1  0  0  0  0
 21 48  1  0  0  0  0
 22 23  1  0  0  0  0
 22 49  1  0  0  0  0
 22 50  1  0  0  0  0
 23 24  1  0  0  0  0
 23 51  1  0  0  0  0
 23 52  1  0  0  0  0
 24 25  1  0  0  0  0
 24 29  1  0  0  0  0
 24 62  1  0  0  0  0
 25 27  1  0  0  0  0
 25 26  1  0  0  0  0
 25 53  1  0  0  0  0
 26 27  1  0  0  0  0
 26 54  1  0  0  0  0
 26 55  1  0  0  0  0
 27 28  1  0  0  0  0
 27 56  1  0  0  0  0
 28 57  1  0  0  0  0
 28 58  1  0  0  0  0
 28 59  1  0  0  0  0
 29 60  1  0  0  0  0
 29 61  1  0  0  0  0
M  CHG  1  24   1
M  END
> <s_m_source_file>
AV-unprocessed.smi

> <i_m_source_file_index>
193

> <i_lp_mmshare_version>
43012

> <i_f3d_flags>
0

> <s_epik_input>
W0NIM11bQ0BASF0xW0NIMl1bQ0BIXTFOKFtDSDJdMilbQ0gyXVtDSDJdTihbQ0gyXVtDQEhdMltDSDNdKWMobltjSF1uMyljKGMzNCluW2NIXW40W0NIMl1DNShbT0hdKVtDSDJdW0NIMl1PW0NIMl1bQ0gyXTU=

> <s_epik_cmdline>
J2VwaWtfcHl0aG9uJywgJy1waCcsICc3LjAnLCAnLXRuJywgJzgnLCAnLW1hJywgJzIwMCcsICctbWV0YWxfYmluZGluZycsICctaW1hZScsICc8aW5maWxlLm1hZT4nLCAnLW9tYWUnLCAnPG91dGZpbGUubWFlPic=

> <r_lp_tautomer_probability>
1

> <r_epik_Ionization_Penalty>
0.0540825

> <r_epik_Ionization_Penalty_Charging>
0.0538476

> <r_epik_Ionization_Penalty_Neutral>
0.000234891

> <r_epik_State_Penalty>
0.0200719

> <r_epik_Charging_Adjusted_Penalty>
0.0739194

> <i_epik_Tot_Q>
1

> <i_epik_Tot_abs_Q>
1

> <r_epik_Metal_State_Penalty>
0.0199414

> <b_epik_Metal_Only>
0

> <s_lp_Force_Field>
OPLS_2005

> <r_lp_Energy>
52.5482

> <b_lp_Chiralities_Consistent>
1

> <s_lp_Variant>
AV-unprocessed.smi:193-8

> <Gold.Version>
5.8.1

> <Gold.Id.Protein>
6NUR|6NUR_protein|mol2

> <Gold.PLP.Fitness>
40.5873

> <Gold.PLP.PLP>
-37.7105

> <Gold.PLP.part.hbond>
-2.0000

> <Gold.PLP.part.metal>
0.0000

> <Gold.PLP.part.buried>
-5.7035

> <Gold.PLP.part.nonpolar>
-31.8611

> <Gold.PLP.part.repulsive>
1.4436

> <Gold.PLP.ligand.clash>
0.0000

> <Gold.PLP.ligand.torsion>
2.1113

> <Gold.PLP.Chemscore.Hbond>
1.0000

> <Gold.PLP.Chemscore.CHOScore>
0.9012

> <Gold.PLP.Chemscore.Metal>
0.0000

> <Gold.Chemscore.Hbonds>
donor molecule, donor type, donor heavy atom, donor atom, acceptor molecule, acceptor atom, score
      L1  H    16    40       P1  7921  0.39
      L1  C    12    37       P1 10171  0.99

> <Gold.PLP.Chemscore.Internal.Correction>
1.3958

> <Gold.Rescore>
     Score         DG    S(hbond)    S(metal)    S(lipo)     H(rot)  DE(clash)    DE(int)     intcor
      7.59      -9.80       0.00        0.00      79.14       1.93       0.01       2.21       ----

> <Gold.Chemscore.Fitness>
7.5862

> <Gold.Chemscore.DG>
-9.8042

> <Gold.Chemscore.ZeroCoef>
-5.4800

> <Gold.Chemscore.Hbond>
0.0008

> <Gold.Chemscore.Metal>
0.0000

> <Gold.Chemscore.Lipo>
79.1425

> <Gold.Chemscore.Internal_Hbond>
0.0000

> <Gold.Chemscore.DEClash>
0.0106

> <Gold.Chemscore.DEInternal>
2.2074

> <Gold.Chemscore.Rot>
1.9290

> <Gold.Chemscore.Internal.Correction>
   9.000000E+99

> <Gold.Chemscore.Hbonds>
donor molecule, donor type, donor heavy atom, donor atom, acceptor molecule, acceptor atom, score
      L1  H    16    40       P1  7921  0.38

> <Gold.Chemscore.Hbond.Weighted>
-0.0028

> <Gold.Chemscore.Metal.Weighted>
-0.0000

> <Gold.Chemscore.Lipo.Weighted>
-9.2597

> <Gold.Chemscore.Internal_Hbond.Weighted>
0.0000

> <Gold.Chemscore.DEClash.Weighted>
0.0106

> <Gold.Chemscore.DEInternal.Weighted>
2.2074

> <Gold.Chemscore.Rot.Weighted>
4.9383

> <Gold.Chemscore.Internal.Correction.Weighted>
   9.000000E+99

> <Gold.Protein.RotatedTorsions>
[ 6907 6896 6895 6894 ] final   79.14 input  -60.11 | X-H torsion
[ 7974 7965 7964 7962 ] final   37.87 input  175.53 | X-H torsion
[ 8008 7997 7996 7995 ] final -155.86 input   59.86 | X-H torsion
[ 10167 10162 10161 10158 ] final  120.56 input  -65.29 | X-H torsion
[ 10718 10713 10712 10709 ] final   -7.39 input   66.30 | X-H torsion
[ 10763 10752 10751 10750 ] final  108.93 input  -60.55 | X-H torsion
[ 11005 11000 10999 10996 ] final  -34.67 input  -57.11 | X-H torsion

> <Gold.Protein.ActiveResidues>
 VAL166  LYS551  ARG553  GLY616  TRP617  ASP618  TYR619  PRO620  LYS621  CYS622 
 ASP623  PHE694  ASN695  SER759  ASP760  ASP761  ALA762  ILE779  LEU786  VAL792 
 PHE793  MET794  SER795  GLU796  ALA797  LYS798  CYS799  TRP800  GLU811  SER814 

> <Gold.Protein.RotatedAtoms>
  152.5187  134.3557  159.9266 H   0  0  0  0  0  0  0  0  0  0  0  0  # atno 6907 bound_to 6896
  151.3509  133.3919  159.2688 H   0  0  0  0  0  0  0  0  0  0  0  0  # atno 6908 bound_to 6896
  150.9728  134.9116  159.7856 H   0  0  0  0  0  0  0  0  0  0  0  0  # atno 6909 bound_to 6896
  146.1105  139.5841  142.9355 H   0  0  0  0  0  0  0  0  0  0  0  0  # atno 7974 bound_to 7965
  155.7083  140.0775  157.2382 H   0  0  0  0  0  0  0  0  0  0  0  0  # atno 8008 bound_to 7997
  154.4062  140.1635  156.2321 H   0  0  0  0  0  0  0  0  0  0  0  0  # atno 8009 bound_to 7997
  155.9306  140.3391  155.6249 H   0  0  0  0  0  0  0  0  0  0  0  0  # atno 8010 bound_to 7997
  139.5974  144.7046  151.3142 H   0  0  0  0  0  0  0  0  0  0  0  0  # atno 10167 bound_to 10162
  156.7179  130.5142  149.5875 H   0  0  0  0  0  0  0  0  0  0  0  0  # atno 10718 bound_to 10713
  153.4276  135.3796  155.2150 H   0  0  0  0  0  0  0  0  0  0  0  0  # atno 10763 bound_to 10752
  154.8748  135.3832  154.4307 H   0  0  0  0  0  0  0  0  0  0  0  0  # atno 10764 bound_to 10752
  153.4836  135.7088  153.5987 H   0  0  0  0  0  0  0  0  0  0  0  0  # atno 10765 bound_to 10752
  140.9735  133.7096  156.1563 H   0  0  0  0  0  0  0  0  0  0  0  0  # atno 11005 bound_to 11000
  145.5674  141.0398  143.2193 LP  0  0  0  0  0  0  0  0  0  0  0  0  # atno 17320 bound_to 7965
  144.7507  139.7201  143.7274 LP  0  0  0  0  0  0  0  0  0  0  0  0  # atno 17321 bound_to 7965
  140.7223  143.7101  150.7776 LP  0  0  0  0  0  0  0  0  0  0  0  0  # atno 17342 bound_to 10162
  140.0670  143.5098  152.2599 LP  0  0  0  0  0  0  0  0  0  0  0  0  # atno 17343 bound_to 10162
  156.1615  130.6377  151.0725 LP  0  0  0  0  0  0  0  0  0  0  0  0  # atno 17370 bound_to 10713
  157.6910  131.0810  150.7107 LP  0  0  0  0  0  0  0  0  0  0  0  0  # atno 17371 bound_to 10713
  140.7294  134.4271  157.5567 LP  0  0  0  0  0  0  0  0  0  0  0  0  # atno 17394 bound_to 11000
  139.8921  134.8763  156.2286 LP  0  0  0  0  0  0  0  0  0  0  0  0  # atno 17395 bound_to 11000

$$$$
