AV-unprocessed.smi:373|AV-procd|sdf|2449|dock9
  -GOLD-   2262022383D 1   1.00000     0.00000
 Structure written by MMmdl.
 40 41  0  0  0  0  0  0  0  0  1 V2000
  152.7214  145.0003  158.0560 C   0  0  0  0  0  0  0  0  0  0  0  0
  152.3900  144.6506  159.5108 C   0  0  0  0  0  0  0  0  0  0  0  0
  151.4529  143.4436  159.6277 C   0  0  0  0  0  0  0  0  0  0  0  0
  151.1803  142.9513  158.3243 O   0  0  0  0  0  0  0  0  0  0  0  0
  150.7168  141.6082  158.2890 C   0  0  2  0  0  0  0  0  0  0  0  0
  151.8661  140.6204  158.5770 C   0  0  0  0  0  0  0  0  0  0  0  0
  151.3891  139.1731  158.3755 C   0  0  0  0  0  0  0  0  0  0  0  0
  150.7794  138.9818  156.9771 C   0  0  0  0  0  0  0  0  0  0  0  0
  149.7235  139.9617  156.7336 N   0  0  0  0  0  0  0  0  0  0  0  0
  148.9412  139.6615  155.6031 C   0  0  0  0  0  0  0  0  0  0  0  0
  149.5577  139.0796  154.5460 N   0  0  0  0  0  0  0  0  0  0  0  0
  148.8246  138.7629  153.4581 C   0  0  0  0  0  0  0  0  0  0  0  0
  147.4360  138.9946  153.3601 C   0  0  0  0  0  0  0  0  0  0  0  0
  146.6876  138.6352  152.1092 C   0  0  0  0  0  0  0  0  0  0  0  0
  145.3868  138.3652  152.2564 N   0  0  0  0  0  0  0  0  0  0  0  0
  147.2610  138.5446  151.0256 O   0  0  0  0  0  0  0  0  0  0  0  0
  146.7972  139.6151  154.4564 C   0  0  0  0  0  0  0  0  0  0  0  0
  147.5539  139.9510  155.5960 C   0  0  0  0  0  0  0  0  0  0  0  0
  146.7750  140.7282  156.9310 Cl  0  0  0  0  0  0  0  0  0  0  0  0
  150.1395  141.3558  156.8851 C   0  0  0  0  0  0  0  0  0  0  0  0
  153.3819  145.8662  158.0057 H   0  0  0  0  0  0  0  0  0  0  0  0
  151.8188  145.2369  157.4921 H   0  0  0  0  0  0  0  0  0  0  0  0
  153.2218  144.1704  157.5565 H   0  0  0  0  0  0  0  0  0  0  0  0
  153.3145  144.4475  160.0526 H   0  0  0  0  0  0  0  0  0  0  0  0
  151.9319  145.5136  159.9947 H   0  0  0  0  0  0  0  0  0  0  0  0
  151.9176  142.6732  160.2434 H   0  0  0  0  0  0  0  0  0  0  0  0
  150.5227  143.7398  160.1150 H   0  0  0  0  0  0  0  0  0  0  0  0
  149.9158  141.4681  159.0178 H   0  0  0  0  0  0  0  0  0  0  0  0
  152.7025  140.8254  157.9077 H   0  0  0  0  0  0  0  0  0  0  0  0
  152.2414  140.7424  159.5927 H   0  0  0  0  0  0  0  0  0  0  0  0
  152.2195  138.4811  158.5175 H   0  0  0  0  0  0  0  0  0  0  0  0
  150.6451  138.9255  159.1337 H   0  0  0  0  0  0  0  0  0  0  0  0
  151.5515  139.0986  156.2153 H   0  0  0  0  0  0  0  0  0  0  0  0
  150.3936  137.9666  156.8798 H   0  0  0  0  0  0  0  0  0  0  0  0
  149.3697  138.3041  152.6458 H   0  0  0  0  0  0  0  0  0  0  0  0
  144.8255  138.1226  151.4533 H   0  0  0  0  0  0  0  0  0  0  0  0
  144.9681  138.4112  153.1743 H   0  0  0  0  0  0  0  0  0  0  0  0
  145.7410  139.8413  154.4311 H   0  0  0  0  0  0  0  0  0  0  0  0
  149.2873  142.0147  156.7123 H   0  0  0  0  0  0  0  0  0  0  0  0
  150.8896  141.5949  156.1295 H   0  0  0  0  0  0  0  0  0  0  0  0
  1  2  1  0  0  0  0
  1 21  1  0  0  0  0
  1 22  1  0  0  0  0
  1 23  1  0  0  0  0
  2  3  1  0  0  0  0
  2 24  1  0  0  0  0
  2 25  1  0  0  0  0
  3  4  1  0  0  0  0
  3 26  1  0  0  0  0
  3 27  1  0  0  0  0
  4  5  1  0  0  0  0
  5 20  1  0  0  0  0
  5  6  1  0  0  0  0
  5 28  1  0  0  0  0
  6  7  1  0  0  0  0
  6 29  1  0  0  0  0
  6 30  1  0  0  0  0
  7  8  1  0  0  0  0
  7 31  1  0  0  0  0
  7 32  1  0  0  0  0
  8  9  1  0  0  0  0
  8 33  1  0  0  0  0
  8 34  1  0  0  0  0
  9 10  1  0  0  0  0
  9 20  1  0  0  0  0
 10 18  1  0  0  0  0
 10 11  2  0  0  0  0
 11 12  1  0  0  0  0
 12 13  2  0  0  0  0
 12 35  1  0  0  0  0
 13 14  1  0  0  0  0
 13 17  1  0  0  0  0
 14 15  1  0  0  0  0
 14 16  2  0  0  0  0
 15 36  1  0  0  0  0
 15 37  1  0  0  0  0
 17 18  2  0  0  0  0
 17 38  1  0  0  0  0
 18 19  1  0  0  0  0
 20 39  1  0  0  0  0
 20 40  1  0  0  0  0
M  END
> <s_m_source_file>
AV-unprocessed.smi

> <i_m_source_file_index>
373

> <i_lp_mmshare_version>
43012

> <i_f3d_flags>
0

> <s_epik_input>
W0NIM11bQ0gyXVtDSDJdT1tDQEBIXTFbQ0gyXVtDSDJdW0NIMl1OKFtDSDJdMSljMm5bY0hdYyhDKD1PKVtOSDJdKVtjSF1jMkNs

> <s_epik_cmdline>
J2VwaWtfcHl0aG9uJywgJy1waCcsICc3LjAnLCAnLXRuJywgJzgnLCAnLW1hJywgJzIwMCcsICctbWV0YWxfYmluZGluZycsICctaW1hZScsICc8aW5maWxlLm1hZT4nLCAnLW9tYWUnLCAnPG91dGZpbGUubWFlPic=

> <r_lp_tautomer_probability>
1

> <r_epik_Ionization_Penalty>
3.23666e-05

> <r_epik_Ionization_Penalty_Charging>
0

> <r_epik_Ionization_Penalty_Neutral>
3.23666e-05

> <r_epik_State_Penalty>
-0

> <r_epik_Charging_Adjusted_Penalty>
0

> <i_epik_Tot_Q>
0

> <i_epik_Tot_abs_Q>
0

> <r_epik_Metal_State_Penalty>
-0

> <b_epik_Metal_Only>
0

> <s_lp_Force_Field>
OPLS_2005

> <r_lp_Energy>
19.8682

> <b_lp_Chiralities_Consistent>
1

> <s_lp_Variant>
AV-unprocessed.smi:373-1

> <Gold.Version>
5.8.1

> <Gold.Id.Protein>
6NUR|6NUR_protein|mol2

> <Gold.PLP.Fitness>
34.3134

> <Gold.PLP.PLP>
-26.3878

> <Gold.PLP.part.hbond>
-2.9312

> <Gold.PLP.part.metal>
0.0000

> <Gold.PLP.part.buried>
-1.6837

> <Gold.PLP.part.nonpolar>
-22.8544

> <Gold.PLP.part.repulsive>
2.1574

> <Gold.PLP.ligand.clash>
0.0000

> <Gold.PLP.ligand.torsion>
1.4719

> <Gold.PLP.Chemscore.Hbond>
2.0000

> <Gold.PLP.Chemscore.CHOScore>
1.5314

> <Gold.PLP.Chemscore.Metal>
0.0000

> <Gold.Chemscore.Hbonds>
donor molecule, donor type, donor heavy atom, donor atom, acceptor molecule, acceptor atom, score
      L1  H    15    36       P1 10171  1.00
      P1  H  7954  7966       L1    16  1.00
      L1  C    12    35       P1  7948  0.91
      L1  C    12    35       P1  7957  0.48

> <Gold.PLP.Chemscore.Internal.Correction>
0.2750

> <Gold.Rescore>
     Score         DG    S(hbond)    S(metal)    S(lipo)     H(rot)  DE(clash)    DE(int)     intcor
     14.79     -17.11       1.96        0.00      77.74       1.57       1.06       1.26       ----

> <Gold.Chemscore.Fitness>
14.7881

> <Gold.Chemscore.DG>
-17.1137

> <Gold.Chemscore.ZeroCoef>
-5.4800

> <Gold.Chemscore.Hbond>
1.9623

> <Gold.Chemscore.Metal>
0.0000

> <Gold.Chemscore.Lipo>
77.7367

> <Gold.Chemscore.Internal_Hbond>
0.0000

> <Gold.Chemscore.DEClash>
1.0614

> <Gold.Chemscore.DEInternal>
1.2642

> <Gold.Chemscore.Rot>
1.5687

> <Gold.Chemscore.Internal.Correction>
   9.000000E+99

> <Gold.Chemscore.Hbonds>
donor molecule, donor type, donor heavy atom, donor atom, acceptor molecule, acceptor atom, score
      L1  H    15    36       P1 10171  0.94
      P1  H  7954  7966       L1    16  0.94

> <Gold.Chemscore.Hbond.Weighted>
-6.5542

> <Gold.Chemscore.Metal.Weighted>
-0.0000

> <Gold.Chemscore.Lipo.Weighted>
-9.0952

> <Gold.Chemscore.Internal_Hbond.Weighted>
0.0000

> <Gold.Chemscore.DEClash.Weighted>
1.0614

> <Gold.Chemscore.DEInternal.Weighted>
1.2642

> <Gold.Chemscore.Rot.Weighted>
4.0158

> <Gold.Chemscore.Internal.Correction.Weighted>
   9.000000E+99

> <Gold.Protein.RotatedTorsions>
[ 6907 6896 6895 6894 ] final  -90.20 input  -60.11 | X-H torsion
[ 7974 7965 7964 7962 ] final    7.72 input  175.53 | X-H torsion
[ 8008 7997 7996 7995 ] final   70.02 input   59.86 | X-H torsion
[ 10167 10162 10161 10158 ] final   17.88 input  -65.29 | X-H torsion
[ 10718 10713 10712 10709 ] final   34.31 input   66.30 | X-H torsion
[ 10763 10752 10751 10750 ] final  160.43 input  -60.55 | X-H torsion
[ 11005 11000 10999 10996 ] final  105.51 input  -57.11 | X-H torsion

> <Gold.Protein.ActiveResidues>
 VAL166  LYS551  ARG553  GLY616  TRP617  ASP618  TYR619  PRO620  LYS621  CYS622 
 ASP623  PHE694  ASN695  SER759  ASP760  ASP761  ALA762  ILE779  LEU786  VAL792 
 PHE793  MET794  SER795  GLU796  ALA797  LYS798  CYS799  TRP800  GLU811  SER814 

> <Gold.Protein.RotatedAtoms>
  150.6880  134.2469  159.4494 H   0  0  0  0  0  0  0  0  0  0  0  0  # atno 6907 bound_to 6896
  152.0409  134.9709  160.0583 H   0  0  0  0  0  0  0  0  0  0  0  0  # atno 6908 bound_to 6896
  152.1211  133.4319  159.4713 H   0  0  0  0  0  0  0  0  0  0  0  0  # atno 6909 bound_to 6896
  146.2424  140.0041  142.8413 H   0  0  0  0  0  0  0  0  0  0  0  0  # atno 7974 bound_to 7965
  155.7325  140.3491  155.5066 H   0  0  0  0  0  0  0  0  0  0  0  0  # atno 8008 bound_to 7997
  155.9169  140.1060  157.1258 H   0  0  0  0  0  0  0  0  0  0  0  0  # atno 8009 bound_to 7997
  154.4064  140.1257  156.4616 H   0  0  0  0  0  0  0  0  0  0  0  0  # atno 8010 bound_to 7997
  140.5694  143.9189  150.6701 H   0  0  0  0  0  0  0  0  0  0  0  0  # atno 10167 bound_to 10162
  157.3088  130.7388  149.6712 H   0  0  0  0  0  0  0  0  0  0  0  0  # atno 10718 bound_to 10713
  154.2473  135.2772  155.2830 H   0  0  0  0  0  0  0  0  0  0  0  0  # atno 10763 bound_to 10752
  154.5494  135.5679  153.6912 H   0  0  0  0  0  0  0  0  0  0  0  0  # atno 10764 bound_to 10752
  152.9987  135.6271  154.2619 H   0  0  0  0  0  0  0  0  0  0  0  0  # atno 10765 bound_to 10752
  139.8803  134.9338  156.5525 H   0  0  0  0  0  0  0  0  0  0  0  0  # atno 11005 bound_to 11000
  145.1388  140.9560  143.4501 LP  0  0  0  0  0  0  0  0  0  0  0  0  # atno 17320 bound_to 7965
  145.0316  139.3336  143.6022 LP  0  0  0  0  0  0  0  0  0  0  0  0  # atno 17321 bound_to 7965
  140.2661  143.3489  152.1280 LP  0  0  0  0  0  0  0  0  0  0  0  0  # atno 17342 bound_to 10162
  139.5110  144.6893  151.5804 LP  0  0  0  0  0  0  0  0  0  0  0  0  # atno 17343 bound_to 10162
  155.9676  130.4258  150.4668 LP  0  0  0  0  0  0  0  0  0  0  0  0  # atno 17370 bound_to 10713
  157.2663  131.0577  151.2288 LP  0  0  0  0  0  0  0  0  0  0  0  0  # atno 17371 bound_to 10713
  140.8229  133.8339  155.8912 LP  0  0  0  0  0  0  0  0  0  0  0  0  # atno 17394 bound_to 11000
  140.9401  134.1912  157.4804 LP  0  0  0  0  0  0  0  0  0  0  0  0  # atno 17395 bound_to 11000

$$$$
