AV-unprocessed.smi:1560|AV-procd|sdf|6281|dock5
  -GOLD-   22720 6483D 1   1.00000     0.00000
 Structure written by MMmdl.
 47 48  0  0  0  0  0  0  0  0  3 V2000
  148.5352  132.4508  153.2676 C   0  0  0  0  0  0  0  0  0  0  0  0
  148.0789  133.8882  153.5761 C   0  0  0  0  0  0  0  0  0  0  0  0
  146.5750  134.0521  153.9570 C   0  0  1  0  0  0  0  0  0  0  0  0
  146.2397  132.9474  154.9937 C   0  0  0  0  0  0  0  0  0  0  0  0
  146.3433  135.4467  154.6179 C   0  0  0  0  0  0  0  0  0  0  0  0
  147.0901  136.5310  153.9809 N   0  0  0  0  0  0  0  0  0  0  0  0
  147.1717  137.7930  154.4303 C   0  0  0  0  0  0  0  0  0  0  0  0
  146.5798  138.1928  155.4338 O   0  0  0  0  0  0  0  0  0  0  0  0
  148.0235  138.7562  153.5937 C   0  0  0  0  0  0  0  0  0  0  0  0
  149.3452  139.0048  154.1908 N   0  0  0  0  0  0  0  0  0  0  0  0
  150.1754  137.8957  154.4327 C   0  0  0  0  0  0  0  0  0  0  0  0
  151.4032  138.0314  154.9693 C   0  0  0  0  0  0  0  0  0  0  0  0
  151.8665  139.3726  155.3032 C   0  0  0  0  0  0  0  0  0  0  0  0
  152.9830  139.5148  155.7977 O   0  0  0  0  0  0  0  0  0  0  0  0
  151.0255  140.4170  155.0459 N   0  5  0  0  0  0  0  0  0  0  0  0
  149.7807  140.2644  154.4964 C   0  0  0  0  0  0  0  0  0  0  0  0
  149.0388  141.2209  154.2679 O   0  0  0  0  0  0  0  0  0  0  0  0
  145.7150  133.8967  152.7267 N   0  3  0  0  0  0  0  0  0  0  0  0
  145.9216  134.9041  151.6478 C   0  0  0  0  0  0  0  0  0  0  0  0
  144.8525  134.7474  150.5522 C   0  0  0  0  0  0  0  0  0  0  0  0
  144.8849  133.4268  150.0294 O   0  0  0  0  0  0  0  0  0  0  0  0
  144.6032  132.4580  151.0295 C   0  0  0  0  0  0  0  0  0  0  0  0
  145.6747  132.5315  152.1288 C   0  0  0  0  0  0  0  0  0  0  0  0
  149.5965  132.4356  153.0186 H   0  0  0  0  0  0  0  0  0  0  0  0
  147.9990  132.0253  152.4195 H   0  0  0  0  0  0  0  0  0  0  0  0
  148.3958  131.7888  154.1218 H   0  0  0  0  0  0  0  0  0  0  0  0
  148.7046  134.2578  154.3887 H   0  0  0  0  0  0  0  0  0  0  0  0
  148.3296  134.5283  152.7306 H   0  0  0  0  0  0  0  0  0  0  0  0
  146.9892  132.8953  155.7843 H   0  0  0  0  0  0  0  0  0  0  0  0
  146.1897  131.9602  154.5337 H   0  0  0  0  0  0  0  0  0  0  0  0
  145.2862  133.1278  155.4906 H   0  0  0  0  0  0  0  0  0  0  0  0
  145.2838  135.7023  154.6361 H   0  0  0  0  0  0  0  0  0  0  0  0
  146.6590  135.4287  155.6605 H   0  0  0  0  0  0  0  0  0  0  0  0
  147.6087  136.2977  153.1464 H   0  0  0  0  0  0  0  0  0  0  0  0
  148.1368  138.3724  152.5778 H   0  0  0  0  0  0  0  0  0  0  0  0
  147.4710  139.6905  153.4864 H   0  0  0  0  0  0  0  0  0  0  0  0
  149.7600  136.9393  154.1510 H   0  0  0  0  0  0  0  0  0  0  0  0
  152.0305  137.1699  155.1456 H   0  0  0  0  0  0  0  0  0  0  0  0
  145.8531  135.9219  152.0273 H   0  0  0  0  0  0  0  0  0  0  0  0
  146.9132  134.7892  151.2096 H   0  0  0  0  0  0  0  0  0  0  0  0
  143.8588  134.9722  150.9433 H   0  0  0  0  0  0  0  0  0  0  0  0
  145.0409  135.4512  149.7413 H   0  0  0  0  0  0  0  0  0  0  0  0
  143.6060  132.6168  151.4434 H   0  0  0  0  0  0  0  0  0  0  0  0
  144.6037  131.4690  150.5707 H   0  0  0  0  0  0  0  0  0  0  0  0
  146.6422  132.2771  151.6957 H   0  0  0  0  0  0  0  0  0  0  0  0
  145.4469  131.7723  152.8745 H   0  0  0  0  0  0  0  0  0  0  0  0
  144.7762  134.0647  153.0593 H   0  0  0  0  0  0  0  0  0  0  0  0
  1  2  1  0  0  0  0
  1 24  1  0  0  0  0
  1 25  1  0  0  0  0
  1 26  1  0  0  0  0
  2  3  1  0  0  0  0
  2 27  1  0  0  0  0
  2 28  1  0  0  0  0
  3  4  1  0  0  0  0
  3  5  1  0  0  0  0
  3 18  1  0  0  0  0
  4 29  1  0  0  0  0
  4 30  1  0  0  0  0
  4 31  1  0  0  0  0
  5  6  1  0  0  0  0
  5 32  1  0  0  0  0
  5 33  1  0  0  0  0
  6  7  1  0  0  0  0
  6 34  1  0  0  0  0
  7  8  2  0  0  0  0
  7  9  1  0  0  0  0
  9 10  1  0  0  0  0
  9 35  1  0  0  0  0
  9 36  1  0  0  0  0
 10 16  1  0  0  0  0
 10 11  1  0  0  0  0
 11 12  2  0  0  0  0
 11 37  1  0  0  0  0
 12 13  1  0  0  0  0
 12 38  1  0  0  0  0
 13 14  2  0  0  0  0
 13 15  1  0  0  0  0
 15 16  1  0  0  0  0
 16 17  2  0  0  0  0
 18 23  1  0  0  0  0
 18 19  1  0  0  0  0
 18 47  1  0  0  0  0
 19 20  1  0  0  0  0
 19 39  1  0  0  0  0
 19 40  1  0  0  0  0
 20 21  1  0  0  0  0
 20 41  1  0  0  0  0
 20 42  1  0  0  0  0
 21 22  1  0  0  0  0
 22 23  1  0  0  0  0
 22 43  1  0  0  0  0
 22 44  1  0  0  0  0
 23 45  1  0  0  0  0
 23 46  1  0  0  0  0
M  CHG  1  15  -1
M  CHG  1  18   1
M  END
> <s_m_source_file>
AV-unprocessed.smi

> <i_m_source_file_index>
1560

> <i_lp_mmshare_version>
43012

> <i_f3d_flags>
0

> <s_epik_input>
W0NIMl0xW0NIMl1PW0NIMl1bQ0gyXU4xW0NAQF0oW0NIM10pKFtDSDJdW0NIM10pW0NIMl1bTkhdQyg9TylbQ0gyXW4yW2NIXVtjSF1jKD1PKVtuSF1jMj1P

> <s_epik_cmdline>
J2VwaWtfcHl0aG9uJywgJy1waCcsICc3LjAnLCAnLXRuJywgJzgnLCAnLW1hJywgJzIwMCcsICctbWV0YWxfYmluZGluZycsICctaW1hZScsICc8aW5maWxlLm1hZT4nLCAnLW9tYWUnLCAnPG91dGZpbGUubWFlPic=

> <r_lp_tautomer_probability>
0.999537

> <r_epik_Ionization_Penalty>
3.51944

> <r_epik_Ionization_Penalty_Charging>
0.588852

> <r_epik_Ionization_Penalty_Neutral>
2.93059

> <r_epik_State_Penalty>
3.4987

> <r_epik_Charging_Adjusted_Penalty>
4.08755

> <i_epik_Tot_Q>
0

> <i_epik_Tot_abs_Q>
2

> <r_epik_Metal_State_Penalty>
1.01204

> <b_epik_Metal_Only>
1

> <s_lp_Force_Field>
OPLS_2005

> <r_lp_Energy>
37.4968

> <b_lp_Chiralities_Consistent>
1

> <s_lp_Variant>
AV-unprocessed.smi:1560-7

> <Gold.Version>
5.8.1

> <Gold.Id.Protein>
6NUR|6NUR_protein|mol2

> <Gold.PLP.Fitness>
42.3491

> <Gold.PLP.PLP>
-32.5501

> <Gold.PLP.part.hbond>
-3.8981

> <Gold.PLP.part.metal>
0.0000

> <Gold.PLP.part.buried>
2.2643

> <Gold.PLP.part.nonpolar>
-29.3173

> <Gold.PLP.part.repulsive>
0.4032

> <Gold.PLP.ligand.clash>
0.0000

> <Gold.PLP.ligand.torsion>
0.8176

> <Gold.PLP.Chemscore.Hbond>
2.8077

> <Gold.PLP.Chemscore.CHOScore>
0.9393

> <Gold.PLP.Chemscore.Metal>
0.0000

> <Gold.Chemscore.Hbonds>
donor molecule, donor type, donor heavy atom, donor atom, acceptor molecule, acceptor atom, score
      L1  H     6    34       P1  7948  1.00
      P1  H  7989  7998       L1    15  0.48
      P1  H  7997  8008       L1    14  1.00
      P1  H  8011  8017       L1    17  0.06
      L1  C    11    37       P1  7948  0.94

> <Gold.PLP.Chemscore.Internal.Correction>
0.1930

> <Gold.Rescore>
     Score         DG    S(hbond)    S(metal)    S(lipo)     H(rot)  DE(clash)    DE(int)     intcor
     10.79     -12.50       1.97        0.00      58.28       2.50       0.72       0.98       ----

> <Gold.Chemscore.Fitness>
10.7946

> <Gold.Chemscore.DG>
-12.4988

> <Gold.Chemscore.ZeroCoef>
-5.4800

> <Gold.Chemscore.Hbond>
1.9739

> <Gold.Chemscore.Metal>
0.0000

> <Gold.Chemscore.Lipo>
58.2830

> <Gold.Chemscore.Internal_Hbond>
0.0000

> <Gold.Chemscore.DEClash>
0.7248

> <Gold.Chemscore.DEInternal>
0.9793

> <Gold.Chemscore.Rot>
2.4973

> <Gold.Chemscore.Internal.Correction>
   9.000000E+99

> <Gold.Chemscore.Hbonds>
donor molecule, donor type, donor heavy atom, donor atom, acceptor molecule, acceptor atom, score
      L1  H     6    34       P1  7948  1.00
      P1  H  7997  8008       L1    14  0.98
      P1  H  8011  8017       L1    17  0.07

> <Gold.Chemscore.Hbond.Weighted>
-6.5927

> <Gold.Chemscore.Metal.Weighted>
-0.0000

> <Gold.Chemscore.Lipo.Weighted>
-6.8191

> <Gold.Chemscore.Internal_Hbond.Weighted>
0.0000

> <Gold.Chemscore.DEClash.Weighted>
0.7248

> <Gold.Chemscore.DEInternal.Weighted>
0.9793

> <Gold.Chemscore.Rot.Weighted>
6.3930

> <Gold.Chemscore.Internal.Correction.Weighted>
   9.000000E+99

> <Gold.Protein.RotatedTorsions>
[ 6907 6896 6895 6894 ] final   51.18 input  -60.11 | X-H torsion
[ 7974 7965 7964 7962 ] final  -35.55 input  175.53 | X-H torsion
[ 8008 7997 7996 7995 ] final  -20.74 input   59.86 | X-H torsion
[ 10167 10162 10161 10158 ] final  -46.03 input  -65.29 | X-H torsion
[ 10718 10713 10712 10709 ] final   71.60 input   66.30 | X-H torsion
[ 10763 10752 10751 10750 ] final  -58.26 input  -60.55 | X-H torsion
[ 11005 11000 10999 10996 ] final -119.60 input  -57.11 | X-H torsion

> <Gold.Protein.ActiveResidues>
 VAL166  LYS551  ARG553  GLY616  TRP617  ASP618  TYR619  PRO620  LYS621  CYS622 
 ASP623  PHE694  ASN695  SER759  ASP760  ASP761  ALA762  ILE779  LEU786  VAL792 
 PHE793  MET794  SER795  GLU796  ALA797  LYS798  CYS799  TRP800  GLU811  SER814 

> <Gold.Protein.RotatedAtoms>
  152.3099  134.7510  160.0338 H   0  0  0  0  0  0  0  0  0  0  0  0  # atno 6907 bound_to 6896
  151.7994  133.3363  159.3530 H   0  0  0  0  0  0  0  0  0  0  0  0  # atno 6908 bound_to 6896
  150.7315  134.5698  159.5929 H   0  0  0  0  0  0  0  0  0  0  0  0  # atno 6909 bound_to 6896
  146.0737  140.6173  142.8941 H   0  0  0  0  0  0  0  0  0  0  0  0  # atno 7974 bound_to 7965
  154.4750  140.2053  155.9900 H   0  0  0  0  0  0  0  0  0  0  0  0  # atno 8008 bound_to 7997
  156.1074  140.3234  155.7995 H   0  0  0  0  0  0  0  0  0  0  0  0  # atno 8009 bound_to 7997
  155.4693  140.0530  157.2972 H   0  0  0  0  0  0  0  0  0  0  0  0  # atno 8010 bound_to 7997
  140.6834  143.2850  151.3725 H   0  0  0  0  0  0  0  0  0  0  0  0  # atno 10167 bound_to 10162
  157.6459  130.9536  150.0811 H   0  0  0  0  0  0  0  0  0  0  0  0  # atno 10718 bound_to 10713
  154.2353  135.6353  153.5189 H   0  0  0  0  0  0  0  0  0  0  0  0  # atno 10763 bound_to 10752
  152.9941  135.5529  154.5969 H   0  0  0  0  0  0  0  0  0  0  0  0  # atno 10764 bound_to 10752
  154.5462  135.2898  155.1025 H   0  0  0  0  0  0  0  0  0  0  0  0  # atno 10765 bound_to 10752
  141.0203  134.0133  157.3291 H   0  0  0  0  0  0  0  0  0  0  0  0  # atno 11005 bound_to 11000
  144.7248  140.4488  143.6981 LP  0  0  0  0  0  0  0  0  0  0  0  0  # atno 17320 bound_to 7965
  145.6345  139.1541  143.2950 LP  0  0  0  0  0  0  0  0  0  0  0  0  # atno 17321 bound_to 7965
  139.6173  144.0977  152.2358 LP  0  0  0  0  0  0  0  0  0  0  0  0  # atno 17342 bound_to 10162
  140.0410  144.6007  150.7411 LP  0  0  0  0  0  0  0  0  0  0  0  0  # atno 17343 bound_to 10162
  156.1787  130.3649  149.9065 LP  0  0  0  0  0  0  0  0  0  0  0  0  # atno 17370 bound_to 10713
  156.7022  130.8937  151.3600 LP  0  0  0  0  0  0  0  0  0  0  0  0  # atno 17371 bound_to 10713
  139.9142  135.0194  156.7815 LP  0  0  0  0  0  0  0  0  0  0  0  0  # atno 17394 bound_to 11000
  140.6583  133.9668  155.7791 LP  0  0  0  0  0  0  0  0  0  0  0  0  # atno 17395 bound_to 11000

$$$$
