AV-unprocessed.smi:893|AV-procd|sdf|4067|dock8
  -GOLD-   22720 1553D 1   1.00000     0.00000
 Structure written by MMmdl.
 27 28  0  0  0  0  0  0  0  0  1 V2000
  155.4882  139.2873  162.7885 C   0  0  0  0  0  0  0  0  0  0  0  0
  154.8037  140.4181  162.0045 C   0  0  0  0  0  0  0  0  0  0  0  0
  154.1249  139.9546  160.6936 C   0  0  2  0  0  0  0  0  0  0  0  0
  153.3409  141.0632  160.0155 C   0  0  0  0  0  0  0  0  0  0  0  0
  152.5386  140.9915  158.8378 C   0  0  0  0  0  0  0  0  0  0  0  0
  151.9858  142.1484  158.5138 N   0  0  0  0  0  0  0  0  0  0  0  0
  152.4109  143.0010  159.4669 N   0  0  0  0  0  0  0  0  0  0  0  0
  151.9928  144.3858  159.4236 C   0  0  0  0  0  0  0  0  0  0  0  0
  153.2255  142.3760  160.3852 C   0  0  0  0  0  0  0  0  0  0  0  0
  153.3244  138.7570  160.9099 N   0  0  0  0  0  0  0  0  0  0  0  0
  153.7393  137.7120  160.1811 C   0  0  0  0  0  0  0  0  0  0  0  0
  153.2295  136.5944  160.1650 O   0  0  0  0  0  0  0  0  0  0  0  0
  154.8094  138.0997  159.4810 N   0  0  0  0  0  0  0  0  0  0  0  0
  155.1353  139.3703  159.7123 C   0  0  0  0  0  0  0  0  0  0  0  0
  156.0848  139.9850  159.2281 O   0  0  0  0  0  0  0  0  0  0  0  0
  155.9496  139.6736  163.6973 H   0  0  0  0  0  0  0  0  0  0  0  0
  156.2717  138.8114  162.1986 H   0  0  0  0  0  0  0  0  0  0  0  0
  154.7756  138.5170  163.0839 H   0  0  0  0  0  0  0  0  0  0  0  0
  154.0666  140.8960  162.6514 H   0  0  0  0  0  0  0  0  0  0  0  0
  155.5471  141.1862  161.7845 H   0  0  0  0  0  0  0  0  0  0  0  0
  152.3420  140.1346  158.2105 H   0  0  0  0  0  0  0  0  0  0  0  0
  152.4613  144.9442  160.2346 H   0  0  0  0  0  0  0  0  0  0  0  0
  150.9094  144.4477  159.5296 H   0  0  0  0  0  0  0  0  0  0  0  0
  152.2862  144.8306  158.4721 H   0  0  0  0  0  0  0  0  0  0  0  0
  153.6563  142.9101  161.2195 H   0  0  0  0  0  0  0  0  0  0  0  0
  152.5318  138.7354  161.5350 H   0  0  0  0  0  0  0  0  0  0  0  0
  155.3210  137.4933  158.8567 H   0  0  0  0  0  0  0  0  0  0  0  0
  1  2  1  0  0  0  0
  1 16  1  0  0  0  0
  1 17  1  0  0  0  0
  1 18  1  0  0  0  0
  2  3  1  0  0  0  0
  2 19  1  0  0  0  0
  2 20  1  0  0  0  0
  3 14  1  0  0  0  0
  3  4  1  0  0  0  0
  3 10  1  0  0  0  0
  4  9  2  0  0  0  0
  4  5  1  0  0  0  0
  5  6  2  0  0  0  0
  5 21  1  0  0  0  0
  6  7  1  0  0  0  0
  7  8  1  0  0  0  0
  7  9  1  0  0  0  0
  8 22  1  0  0  0  0
  8 23  1  0  0  0  0
  8 24  1  0  0  0  0
  9 25  1  0  0  0  0
 10 11  1  0  0  0  0
 10 26  1  0  0  0  0
 11 12  2  0  0  0  0
 11 13  1  0  0  0  0
 13 14  1  0  0  0  0
 13 27  1  0  0  0  0
 14 15  2  0  0  0  0
M  END
> <s_m_source_file>
AV-unprocessed.smi

> <i_m_source_file_index>
893

> <i_lp_mmshare_version>
43012

> <i_f3d_flags>
0

> <s_epik_input>
Tz1DMVtOSF1DKD1PKVtOSF1bQ0BAXTEoW0NIMl1bQ0gzXSljMltjSF1ubihbQ0gzXSlbY0hdMg==

> <s_epik_cmdline>
J2VwaWtfcHl0aG9uJywgJy1waCcsICc3LjAnLCAnLXRuJywgJzgnLCAnLW1hJywgJzIwMCcsICctbWV0YWxfYmluZGluZycsICctaW1hZScsICc8aW5maWxlLm1hZT4nLCAnLW9tYWUnLCAnPG91dGZpbGUubWFlPic=

> <r_lp_tautomer_probability>
1

> <r_epik_Ionization_Penalty>
0.0236181

> <r_epik_Ionization_Penalty_Charging>
0

> <r_epik_Ionization_Penalty_Neutral>
0.0236181

> <r_epik_State_Penalty>
0.0189572

> <r_epik_Charging_Adjusted_Penalty>
0.0189572

> <i_epik_Tot_Q>
0

> <i_epik_Tot_abs_Q>
0

> <r_epik_Metal_State_Penalty>
0.411796

> <b_epik_Metal_Only>
0

> <s_lp_Force_Field>
OPLS_2005

> <r_lp_Energy>
15.567

> <b_lp_Chiralities_Consistent>
1

> <s_lp_Variant>
AV-unprocessed.smi:893-2

> <Gold.Version>
5.8.1

> <Gold.Id.Protein>
6NUR|6NUR_protein|mol2

> <Gold.PLP.Fitness>
32.7260

> <Gold.PLP.PLP>
-26.8740

> <Gold.PLP.part.hbond>
-2.0000

> <Gold.PLP.part.metal>
0.0000

> <Gold.PLP.part.buried>
-2.2826

> <Gold.PLP.part.nonpolar>
-23.2379

> <Gold.PLP.part.repulsive>
0.1309

> <Gold.PLP.ligand.clash>
0.0000

> <Gold.PLP.ligand.torsion>
0.1599

> <Gold.PLP.Chemscore.Hbond>
2.0000

> <Gold.PLP.Chemscore.CHOScore>
0.0000

> <Gold.PLP.Chemscore.Metal>
0.0000

> <Gold.Chemscore.Hbonds>
donor molecule, donor type, donor heavy atom, donor atom, acceptor molecule, acceptor atom, score
      P1  H  6896  6907       L1    12  1.00
      P1  H  7997  8009       L1    15  1.00

> <Gold.PLP.Chemscore.Internal.Correction>
0.1718

> <Gold.Rescore>
     Score         DG    S(hbond)    S(metal)    S(lipo)     H(rot)  DE(clash)    DE(int)     intcor
     15.44     -15.54       1.98        0.00      57.77       1.30       0.00       0.09       ----

> <Gold.Chemscore.Fitness>
15.4435

> <Gold.Chemscore.DG>
-15.5351

> <Gold.Chemscore.ZeroCoef>
-5.4800

> <Gold.Chemscore.Hbond>
1.9796

> <Gold.Chemscore.Metal>
0.0000

> <Gold.Chemscore.Lipo>
57.7747

> <Gold.Chemscore.Internal_Hbond>
0.0000

> <Gold.Chemscore.DEClash>
0.0000

> <Gold.Chemscore.DEInternal>
0.0916

> <Gold.Chemscore.Rot>
1.2955

> <Gold.Chemscore.Internal.Correction>
   9.000000E+99

> <Gold.Chemscore.Hbonds>
donor molecule, donor type, donor heavy atom, donor atom, acceptor molecule, acceptor atom, score
      P1  H  6896  6907       L1    12  0.96
      P1  H  7997  8009       L1    15  0.39

> <Gold.Chemscore.Hbond.Weighted>
-6.6118

> <Gold.Chemscore.Metal.Weighted>
-0.0000

> <Gold.Chemscore.Lipo.Weighted>
-6.7596

> <Gold.Chemscore.Internal_Hbond.Weighted>
0.0000

> <Gold.Chemscore.DEClash.Weighted>
0.0000

> <Gold.Chemscore.DEInternal.Weighted>
0.0916

> <Gold.Chemscore.Rot.Weighted>
3.3164

> <Gold.Chemscore.Internal.Correction.Weighted>
   9.000000E+99

> <Gold.Protein.RotatedTorsions>
[ 6907 6896 6895 6894 ] final   50.27 input  -60.11 | X-H torsion
[ 7974 7965 7964 7962 ] final  -88.76 input  175.53 | X-H torsion
[ 8008 7997 7996 7995 ] final   91.17 input   59.86 | X-H torsion
[ 10167 10162 10161 10158 ] final   73.29 input  -65.29 | X-H torsion
[ 10718 10713 10712 10709 ] final  -94.22 input   66.30 | X-H torsion
[ 10763 10752 10751 10750 ] final   52.14 input  -60.55 | X-H torsion
[ 11005 11000 10999 10996 ] final  113.47 input  -57.11 | X-H torsion

> <Gold.Protein.ActiveResidues>
 VAL166  LYS551  ARG553  GLY616  TRP617  ASP618  TYR619  PRO620  LYS621  CYS622 
 ASP623  PHE694  ASN695  SER759  ASP760  ASP761  ALA762  ILE779  LEU786  VAL792 
 PHE793  MET794  SER795  GLU796  ALA797  LYS798  CYS799  TRP800  GLU811  SER814 

> <Gold.Protein.RotatedAtoms>
  152.2999  134.7623  160.0359 H   0  0  0  0  0  0  0  0  0  0  0  0  # atno 6907 bound_to 6896
  151.8140  133.3380  159.3572 H   0  0  0  0  0  0  0  0  0  0  0  0  # atno 6908 bound_to 6896
  150.7269  134.5567  159.5866 H   0  0  0  0  0  0  0  0  0  0  0  0  # atno 6909 bound_to 6896
  145.4488  140.9560  143.2034 H   0  0  0  0  0  0  0  0  0  0  0  0  # atno 7974 bound_to 7965
  156.0207  140.3341  155.7035 H   0  0  0  0  0  0  0  0  0  0  0  0  # atno 8008 bound_to 7997
  155.6027  140.0657  157.2746 H   0  0  0  0  0  0  0  0  0  0  0  0  # atno 8009 bound_to 7997
  154.4315  140.1807  156.1178 H   0  0  0  0  0  0  0  0  0  0  0  0  # atno 8010 bound_to 7997
  140.0260  144.5503  150.7544 H   0  0  0  0  0  0  0  0  0  0  0  0  # atno 10167 bound_to 10162
  156.0024  130.5058  150.5893 H   0  0  0  0  0  0  0  0  0  0  0  0  # atno 10718 bound_to 10713
  152.9787  135.5822  154.4531 H   0  0  0  0  0  0  0  0  0  0  0  0  # atno 10763 bound_to 10752
  154.4117  135.2770  155.2034 H   0  0  0  0  0  0  0  0  0  0  0  0  # atno 10764 bound_to 10752
  154.3822  135.6144  153.5851 H   0  0  0  0  0  0  0  0  0  0  0  0  # atno 10765 bound_to 10752
  139.8954  134.9550  156.6744 H   0  0  0  0  0  0  0  0  0  0  0  0  # atno 11005 bound_to 11000
  144.8075  139.6024  143.7044 LP  0  0  0  0  0  0  0  0  0  0  0  0  # atno 17320 bound_to 7965
  146.2516  139.6212  142.9423 LP  0  0  0  0  0  0  0  0  0  0  0  0  # atno 17321 bound_to 7965
  140.7322  143.2703  151.3910 LP  0  0  0  0  0  0  0  0  0  0  0  0  # atno 17342 bound_to 10162
  139.6107  144.1103  152.2296 LP  0  0  0  0  0  0  0  0  0  0  0  0  # atno 17343 bound_to 10162
  157.3761  131.0773  151.1517 LP  0  0  0  0  0  0  0  0  0  0  0  0  # atno 17370 bound_to 10713
  157.2255  130.6501  149.5828 LP  0  0  0  0  0  0  0  0  0  0  0  0  # atno 17371 bound_to 10713
  140.7348  133.9028  155.8236 LP  0  0  0  0  0  0  0  0  0  0  0  0  # atno 17394 bound_to 11000
  141.0125  134.1001  157.4207 LP  0  0  0  0  0  0  0  0  0  0  0  0  # atno 17395 bound_to 11000

$$$$
