AV-unprocessed.smi:2923|AV-procd|sdf|11214|dock10
  -GOLD-   2272016103D 1   1.00000     0.00000
 Structure written by MMmdl.
 46 48  0  0  0  0  0  0  0  0  1 V2000
  147.8250  128.1670  151.8025 C   0  0  0  0  0  0  0  0  0  0  0  0
  147.1355  128.9459  152.8191 N   0  0  0  0  0  0  0  0  0  0  0  0
  145.6865  129.0117  152.7062 C   0  0  0  0  0  0  0  0  0  0  0  0
  147.7279  130.1964  153.0384 C   0  0  0  0  0  0  0  0  0  0  0  0
  149.0738  130.3093  153.4548 C   0  0  0  0  0  0  0  0  0  0  0  0
  149.6144  131.5926  153.6624 C   0  0  0  0  0  0  0  0  0  0  0  0
  148.7895  132.7236  153.4543 C   0  0  0  0  0  0  0  0  0  0  0  0
  149.2183  134.0691  153.6124 N   0  0  0  0  0  0  0  0  0  0  0  0
  150.2632  134.5394  154.3146 C   0  0  0  0  0  0  0  0  0  0  0  0
  151.0517  133.8544  154.9655 O   0  0  0  0  0  0  0  0  0  0  0  0
  150.3337  135.8740  154.2326 N   0  0  0  0  0  0  0  0  0  0  0  0
  151.3460  136.7107  154.8804 C   0  0  2  0  0  0  0  0  0  0  0  0
  151.3472  136.5703  156.4194 C   0  0  2  0  0  0  0  0  0  0  0  0
  150.5850  135.4886  157.1456 C   0  0  0  0  0  0  0  0  0  0  0  0
  149.2915  136.2007  157.5520 C   0  0  0  0  0  0  0  0  0  0  0  0
  149.1928  137.3127  156.6643 O   0  0  0  0  0  0  0  0  0  0  0  0
  150.5058  137.8352  156.4734 C   0  0  2  0  0  0  0  0  0  0  0  0
  150.9018  138.1901  155.0246 C   0  0  0  0  0  0  0  0  0  0  0  0
  152.0477  139.2009  154.9196 C   0  0  0  0  0  0  0  0  0  0  0  0
  149.7795  138.7165  154.1195 C   0  0  0  0  0  0  0  0  0  0  0  0
  147.4647  132.4993  153.0259 C   0  0  0  0  0  0  0  0  0  0  0  0
  146.9394  131.2720  152.8270 N   0  0  0  0  0  0  0  0  0  0  0  0
  148.9021  128.1703  151.9741 H   0  0  0  0  0  0  0  0  0  0  0  0
  147.6324  128.5676  150.8067 H   0  0  0  0  0  0  0  0  0  0  0  0
  147.4841  127.1318  151.8264 H   0  0  0  0  0  0  0  0  0  0  0  0
  145.2613  129.6024  153.5187 H   0  0  0  0  0  0  0  0  0  0  0  0
  145.2598  128.0098  152.7600 H   0  0  0  0  0  0  0  0  0  0  0  0
  145.3860  129.4600  151.7584 H   0  0  0  0  0  0  0  0  0  0  0  0
  149.6846  129.4321  153.6104 H   0  0  0  0  0  0  0  0  0  0  0  0
  150.6470  131.6803  153.9619 H   0  0  0  0  0  0  0  0  0  0  0  0
  148.6216  134.7644  153.1882 H   0  0  0  0  0  0  0  0  0  0  0  0
  149.6404  136.3546  153.6779 H   0  0  0  0  0  0  0  0  0  0  0  0
  152.3480  136.6110  154.4588 H   0  0  0  0  0  0  0  0  0  0  0  0
  152.3453  136.7483  156.8229 H   0  0  0  0  0  0  0  0  0  0  0  0
  150.3816  134.6289  156.5073 H   0  0  0  0  0  0  0  0  0  0  0  0
  151.1227  135.1225  158.0207 H   0  0  0  0  0  0  0  0  0  0  0  0
  148.4160  135.5549  157.4836 H   0  0  0  0  0  0  0  0  0  0  0  0
  149.3638  136.5707  158.5757 H   0  0  0  0  0  0  0  0  0  0  0  0
  150.8121  138.5423  157.2457 H   0  0  0  0  0  0  0  0  0  0  0  0
  151.7434  140.1892  155.2656 H   0  0  0  0  0  0  0  0  0  0  0  0
  152.3968  139.3040  153.8916 H   0  0  0  0  0  0  0  0  0  0  0  0
  152.9060  138.9013  155.5218 H   0  0  0  0  0  0  0  0  0  0  0  0
  149.5001  139.7373  154.3820 H   0  0  0  0  0  0  0  0  0  0  0  0
  148.8724  138.1166  154.1940 H   0  0  0  0  0  0  0  0  0  0  0  0
  150.0806  138.7171  153.0714 H   0  0  0  0  0  0  0  0  0  0  0  0
  146.8003  133.3308  152.8409 H   0  0  0  0  0  0  0  0  0  0  0  0
  1  2  1  0  0  0  0
  1 23  1  0  0  0  0
  1 24  1  0  0  0  0
  1 25  1  0  0  0  0
  2  3  1  0  0  0  0
  2  4  1  0  0  0  0
  3 26  1  0  0  0  0
  3 27  1  0  0  0  0
  3 28  1  0  0  0  0
  4 22  1  0  0  0  0
  4  5  2  0  0  0  0
  5  6  1  0  0  0  0
  5 29  1  0  0  0  0
  6  7  2  0  0  0  0
  6 30  1  0  0  0  0
  7  8  1  0  0  0  0
  7 21  1  0  0  0  0
  8  9  1  0  0  0  0
  8 31  1  0  0  0  0
  9 10  2  0  0  0  0
  9 11  1  0  0  0  0
 11 12  1  0  0  0  0
 11 32  1  0  0  0  0
 12 18  1  0  0  0  0
 12 13  1  0  0  0  0
 12 33  1  0  0  0  0
 13 17  1  0  0  0  0
 13 14  1  0  0  0  0
 13 34  1  0  0  0  0
 14 15  1  0  0  0  0
 14 35  1  0  0  0  0
 14 36  1  0  0  0  0
 15 16  1  0  0  0  0
 15 37  1  0  0  0  0
 15 38  1  0  0  0  0
 16 17  1  0  0  0  0
 17 18  1  0  0  0  0
 17 39  1  0  0  0  0
 18 19  1  0  0  0  0
 18 20  1  0  0  0  0
 19 40  1  0  0  0  0
 19 41  1  0  0  0  0
 19 42  1  0  0  0  0
 20 43  1  0  0  0  0
 20 44  1  0  0  0  0
 20 45  1  0  0  0  0
 21 22  2  0  0  0  0
 21 46  1  0  0  0  0
M  END
> <s_m_source_file>
AV-unprocessed.smi

> <i_m_source_file_index>
2923

> <i_lp_mmshare_version>
43012

> <i_f3d_flags>
0

> <s_epik_input>
W0NIM11OKFtDSDNdKWMxW2NIXVtjSF1jKFtjSF1uMSlbTkhdQyg9TylbTkhdW0NASF0yQyhbQ0gzXSkoW0NIM10pW0NAQEhdKFtDQEhdMjMpT1tDSDJdW0NIMl0z

> <s_epik_cmdline>
J2VwaWtfcHl0aG9uJywgJy1waCcsICc3LjAnLCAnLXRuJywgJzgnLCAnLW1hJywgJzIwMCcsICctbWV0YWxfYmluZGluZycsICctaW1hZScsICc8aW5maWxlLm1hZT4nLCAnLW9tYWUnLCAnPG91dGZpbGUubWFlPic=

> <r_lp_tautomer_probability>
1

> <r_epik_Ionization_Penalty>
0.628785

> <r_epik_Ionization_Penalty_Charging>
0

> <r_epik_Ionization_Penalty_Neutral>
0.628785

> <r_epik_State_Penalty>
0.644286

> <r_epik_Charging_Adjusted_Penalty>
0.644286

> <i_epik_Tot_Q>
0

> <i_epik_Tot_abs_Q>
0

> <r_epik_Metal_State_Penalty>
0.308404

> <b_epik_Metal_Only>
0

> <s_lp_Force_Field>
OPLS_2005

> <r_lp_Energy>
44.9088

> <b_lp_Chiralities_Consistent>
1

> <s_lp_Variant>
AV-unprocessed.smi:2923-13

> <Gold.Version>
5.8.1

> <Gold.Id.Protein>
6NUR|6NUR_protein|mol2

> <Gold.PLP.Fitness>
37.5710

> <Gold.PLP.PLP>
-32.2432

> <Gold.PLP.part.hbond>
-2.4087

> <Gold.PLP.part.metal>
0.0000

> <Gold.PLP.part.buried>
-3.4122

> <Gold.PLP.part.nonpolar>
-27.1122

> <Gold.PLP.part.repulsive>
0.9271

> <Gold.PLP.ligand.clash>
0.0000

> <Gold.PLP.ligand.torsion>
0.3904

> <Gold.PLP.Chemscore.Hbond>
1.9040

> <Gold.PLP.Chemscore.CHOScore>
0.0000

> <Gold.PLP.Chemscore.Metal>
0.0000

> <Gold.Chemscore.Hbonds>
donor molecule, donor type, donor heavy atom, donor atom, acceptor molecule, acceptor atom, score
      L1  H     8    31       P1  7948  0.64
      L1  H    11    32       P1  7948  0.70

> <Gold.PLP.Chemscore.Internal.Correction>
0.3967

> <Gold.Rescore>
     Score         DG    S(hbond)    S(metal)    S(lipo)     H(rot)  DE(clash)    DE(int)     intcor
     12.42     -14.66       0.96        0.00      77.24       1.19       0.58       1.66       ----

> <Gold.Chemscore.Fitness>
12.4197

> <Gold.Chemscore.DG>
-14.6593

> <Gold.Chemscore.ZeroCoef>
-5.4800

> <Gold.Chemscore.Hbond>
0.9573

> <Gold.Chemscore.Metal>
0.0000

> <Gold.Chemscore.Lipo>
77.2450

> <Gold.Chemscore.Internal_Hbond>
0.0000

> <Gold.Chemscore.DEClash>
0.5792

> <Gold.Chemscore.DEInternal>
1.6604

> <Gold.Chemscore.Rot>
1.1937

> <Gold.Chemscore.Internal.Correction>
   9.000000E+99

> <Gold.Chemscore.Hbonds>
donor molecule, donor type, donor heavy atom, donor atom, acceptor molecule, acceptor atom, score
      L1  H     8    31       P1  7948  0.28
      L1  H    11    32       P1  7948  0.35

> <Gold.Chemscore.Hbond.Weighted>
-3.1975

> <Gold.Chemscore.Metal.Weighted>
-0.0000

> <Gold.Chemscore.Lipo.Weighted>
-9.0377

> <Gold.Chemscore.Internal_Hbond.Weighted>
0.0000

> <Gold.Chemscore.DEClash.Weighted>
0.5792

> <Gold.Chemscore.DEInternal.Weighted>
1.6604

> <Gold.Chemscore.Rot.Weighted>
3.0559

> <Gold.Chemscore.Internal.Correction.Weighted>
   9.000000E+99

> <Gold.Protein.RotatedTorsions>
[ 6907 6896 6895 6894 ] final -147.87 input  -60.11 | X-H torsion
[ 7974 7965 7964 7962 ] final -124.63 input  175.53 | X-H torsion
[ 8008 7997 7996 7995 ] final  -42.09 input   59.86 | X-H torsion
[ 10167 10162 10161 10158 ] final  118.77 input  -65.29 | X-H torsion
[ 10718 10713 10712 10709 ] final  109.80 input   66.30 | X-H torsion
[ 10763 10752 10751 10750 ] final   66.87 input  -60.55 | X-H torsion
[ 11005 11000 10999 10996 ] final  173.81 input  -57.11 | X-H torsion

> <Gold.Protein.ActiveResidues>
 VAL166  LYS551  ARG553  GLY616  TRP617  ASP618  TYR619  PRO620  LYS621  CYS622 
 ASP623  PHE694  ASN695  SER759  ASP760  ASP761  ALA762  ILE779  LEU786  VAL792 
 PHE793  MET794  SER795  GLU796  ALA797  LYS798  CYS799  TRP800  GLU811  SER814 

> <Gold.Protein.RotatedAtoms>
  151.1618  133.4840  159.2594 H   0  0  0  0  0  0  0  0  0  0  0  0  # atno 6907 bound_to 6896
  151.1446  135.0197  159.8651 H   0  0  0  0  0  0  0  0  0  0  0  0  # atno 6908 bound_to 6896
  152.5463  134.1508  159.8571 H   0  0  0  0  0  0  0  0  0  0  0  0  # atno 6909 bound_to 6896
  145.0061  140.7864  143.4467 H   0  0  0  0  0  0  0  0  0  0  0  0  # atno 7974 bound_to 7965
  154.4000  140.1482  156.3298 H   0  0  0  0  0  0  0  0  0  0  0  0  # atno 8008 bound_to 7997
  155.8453  140.3460  155.5637 H   0  0  0  0  0  0  0  0  0  0  0  0  # atno 8009 bound_to 7997
  155.8042  140.0874  157.1930 H   0  0  0  0  0  0  0  0  0  0  0  0  # atno 8010 bound_to 7997
  139.6089  144.7077  151.2888 H   0  0  0  0  0  0  0  0  0  0  0  0  # atno 10167 bound_to 10162
  157.6524  131.0921  150.6508 H   0  0  0  0  0  0  0  0  0  0  0  0  # atno 10718 bound_to 10713
  153.0160  135.5304  154.6891 H   0  0  0  0  0  0  0  0  0  0  0  0  # atno 10763 bound_to 10752
  154.6031  135.2870  155.0516 H   0  0  0  0  0  0  0  0  0  0  0  0  # atno 10764 bound_to 10752
  154.1566  135.6554  153.5028 H   0  0  0  0  0  0  0  0  0  0  0  0  # atno 10765 bound_to 10752
  140.3445  134.7248  157.4225 H   0  0  0  0  0  0  0  0  0  0  0  0  # atno 11005 bound_to 11000
  145.2087  139.2216  143.5154 LP  0  0  0  0  0  0  0  0  0  0  0  0  # atno 17320 bound_to 7965
  146.3461  140.1920  142.8589 LP  0  0  0  0  0  0  0  0  0  0  0  0  # atno 17321 bound_to 7965
  140.7305  143.6878  150.7947 LP  0  0  0  0  0  0  0  0  0  0  0  0  # atno 17342 bound_to 10162
  140.0469  143.5289  152.2692 LP  0  0  0  0  0  0  0  0  0  0  0  0  # atno 17343 bound_to 10162
  156.6818  130.4569  149.5625 LP  0  0  0  0  0  0  0  0  0  0  0  0  # atno 17370 bound_to 10713
  156.1924  130.6568  151.1076 LP  0  0  0  0  0  0  0  0  0  0  0  0  # atno 17371 bound_to 10713
  140.0754  134.5805  155.8597 LP  0  0  0  0  0  0  0  0  0  0  0  0  # atno 17394 bound_to 11000
  141.2029  133.6628  156.6034 LP  0  0  0  0  0  0  0  0  0  0  0  0  # atno 17395 bound_to 11000

$$$$
