AV-unprocessed.smi:246|AV-procd|sdf|1885|dock3
  -GOLD-   2262020533D 1   1.00000     0.00000
 Structure written by MMmdl.
 57 60  0  0  0  0  0  0  0  0  1 V2000
  152.3742  143.8475  161.4662 C   0  0  0  0  0  0  0  0  0  0  0  0
  151.9243  144.6442  160.2341 C   0  0  0  0  0  0  0  0  0  0  0  0
  152.6334  144.2537  159.0665 O   0  0  0  0  0  0  0  0  0  0  0  0
  151.8614  144.2931  157.8751 C   0  0  0  0  0  0  0  0  0  0  0  0
  151.0129  143.0214  157.7905 C   0  0  0  0  0  0  0  0  0  0  0  0
  151.1935  142.4296  156.5127 O   0  0  0  0  0  0  0  0  0  0  0  0
  150.5815  141.1547  156.3852 C   0  0  2  0  0  0  0  0  0  0  0  0
  151.5826  140.1172  155.8786 C   0  0  0  0  0  0  0  0  0  0  0  0
  150.6799  139.0554  155.2536 C   0  0  0  0  0  0  0  0  0  0  0  0
  149.5525  139.8009  154.7104 N   0  0  0  0  0  0  0  0  0  0  0  0
  148.4524  139.1782  154.2135 C   0  0  0  0  0  0  0  0  0  0  0  0
  147.5823  139.8966  153.4548 N   0  0  0  0  0  0  0  0  0  0  0  0
  146.4925  139.3199  152.9406 C   0  0  0  0  0  0  0  0  0  0  0  0
  146.0815  138.0570  153.0617 N   0  0  0  0  0  0  0  0  0  0  0  0
  146.9387  137.3317  153.8345 C   0  0  0  0  0  0  0  0  0  0  0  0
  148.1347  137.8070  154.4462 C   0  0  0  0  0  0  0  0  0  0  0  0
  148.7323  136.7749  155.1627 N   0  0  0  0  0  0  0  0  0  0  0  0
  147.9457  135.7513  154.9754 C   0  0  0  0  0  0  0  0  0  0  0  0
  146.8468  135.9964  154.1857 N   0  0  0  0  0  0  0  0  0  0  0  0
  145.8211  135.0386  153.8117 C   0  0  0  0  0  0  0  0  0  0  0  0
  146.4190  133.7342  153.2498 C   0  0  2  0  0  0  0  0  0  0  0  0
  147.4321  134.0514  152.3143 O   0  0  0  0  0  0  0  0  0  0  0  0
  145.3595  132.8560  152.5596 C   0  0  1  0  0  0  0  0  0  0  0  0
  144.6554  133.5221  151.3760 C   0  0  0  0  0  0  0  0  0  0  0  0
  144.2087  132.3503  150.5159 C   0  0  0  0  0  0  0  0  0  0  0  0
  145.0158  131.1651  151.0518 C   0  0  0  0  0  0  0  0  0  0  0  0
  145.9691  131.7352  151.9372 O   0  0  0  0  0  0  0  0  0  0  0  0
  149.4687  141.1179  155.3278 C   0  0  0  0  0  0  0  0  0  0  0  0
  150.1902  140.8161  157.3465 H   0  0  0  0  0  0  0  0  0  0  0  0
  151.8856  144.2220  162.3656 H   0  0  0  0  0  0  0  0  0  0  0  0
  153.4509  143.9326  161.6135 H   0  0  0  0  0  0  0  0  0  0  0  0
  152.1292  142.7895  161.3790 H   0  0  0  0  0  0  0  0  0  0  0  0
  150.8467  144.5619  160.0845 H   0  0  0  0  0  0  0  0  0  0  0  0
  152.1324  145.7004  160.4052 H   0  0  0  0  0  0  0  0  0  0  0  0
  151.2215  145.1746  157.8343 H   0  0  0  0  0  0  0  0  0  0  0  0
  152.5331  144.3360  157.0167 H   0  0  0  0  0  0  0  0  0  0  0  0
  151.3373  142.3185  158.5591 H   0  0  0  0  0  0  0  0  0  0  0  0
  149.9640  143.2528  157.9800 H   0  0  0  0  0  0  0  0  0  0  0  0
  152.2188  140.5574  155.1092 H   0  0  0  0  0  0  0  0  0  0  0  0
  152.2259  139.7222  156.6652 H   0  0  0  0  0  0  0  0  0  0  0  0
  151.1993  138.4889  154.4799 H   0  0  0  0  0  0  0  0  0  0  0  0
  150.3284  138.3589  156.0162 H   0  0  0  0  0  0  0  0  0  0  0  0
  145.8606  139.9622  152.3449 H   0  0  0  0  0  0  0  0  0  0  0  0
  148.1479  134.7819  155.4076 H   0  0  0  0  0  0  0  0  0  0  0  0
  145.2195  134.8280  154.6966 H   0  0  0  0  0  0  0  0  0  0  0  0
  145.1521  135.5009  153.0846 H   0  0  0  0  0  0  0  0  0  0  0  0
  146.8779  133.1701  154.0632 H   0  0  0  0  0  0  0  0  0  0  0  0
  147.6934  134.9497  152.4482 H   0  0  0  0  0  0  0  0  0  0  0  0
  144.6215  132.5025  153.2829 H   0  0  0  0  0  0  0  0  0  0  0  0
  143.8270  134.1600  151.6853 H   0  0  0  0  0  0  0  0  0  0  0  0
  145.3606  134.1370  150.8149 H   0  0  0  0  0  0  0  0  0  0  0  0
  143.1390  132.1641  150.6179 H   0  0  0  0  0  0  0  0  0  0  0  0
  144.4181  132.5393  149.4626 H   0  0  0  0  0  0  0  0  0  0  0  0
  144.3722  130.4824  151.6083 H   0  0  0  0  0  0  0  0  0  0  0  0
  145.5064  130.6004  150.2589 H   0  0  0  0  0  0  0  0  0  0  0  0
  148.4957  141.3053  155.7830 H   0  0  0  0  0  0  0  0  0  0  0  0
  149.6401  141.8711  154.5581 H   0  0  0  0  0  0  0  0  0  0  0  0
  1  2  1  0  0  0  0
  1 30  1  0  0  0  0
  1 31  1  0  0  0  0
  1 32  1  0  0  0  0
  2  3  1  0  0  0  0
  2 33  1  0  0  0  0
  2 34  1  0  0  0  0
  3  4  1  0  0  0  0
  4  5  1  0  0  0  0
  4 35  1  0  0  0  0
  4 36  1  0  0  0  0
  5  6  1  0  0  0  0
  5 37  1  0  0  0  0
  5 38  1  0  0  0  0
  6  7  1  0  0  0  0
  7 29  1  0  0  0  0
  7 28  1  0  0  0  0
  7  8  1  0  0  0  0
  8  9  1  0  0  0  0
  8 39  1  0  0  0  0
  8 40  1  0  0  0  0
  9 10  1  0  0  0  0
  9 41  1  0  0  0  0
  9 42  1  0  0  0  0
 10 11  1  0  0  0  0
 10 28  1  0  0  0  0
 11 16  1  0  0  0  0
 11 12  2  0  0  0  0
 12 13  1  0  0  0  0
 13 14  2  0  0  0  0
 13 43  1  0  0  0  0
 14 15  1  0  0  0  0
 15 19  1  0  0  0  0
 15 16  2  0  0  0  0
 16 17  1  0  0  0  0
 17 18  2  0  0  0  0
 18 19  1  0  0  0  0
 18 44  1  0  0  0  0
 19 20  1  0  0  0  0
 20 21  1  0  0  0  0
 20 45  1  0  0  0  0
 20 46  1  0  0  0  0
 21 22  1  0  0  0  0
 21 23  1  0  0  0  0
 21 47  1  0  0  0  0
 22 48  1  0  0  0  0
 23 27  1  0  0  0  0
 23 24  1  0  0  0  0
 23 49  1  0  0  0  0
 24 25  1  0  0  0  0
 24 50  1  0  0  0  0
 24 51  1  0  0  0  0
 25 26  1  0  0  0  0
 25 52  1  0  0  0  0
 25 53  1  0  0  0  0
 26 27  1  0  0  0  0
 26 54  1  0  0  0  0
 26 55  1  0  0  0  0
 28 56  1  0  0  0  0
 28 57  1  0  0  0  0
M  END
> <s_m_source_file>
AV-unprocessed.smi

> <i_m_source_file_index>
246

> <i_lp_mmshare_version>
43012

> <i_f3d_flags>
0

> <s_epik_input>
W0NIM11bQ0gyXU9bQ0gyXVtDSDJdT1tDQEhdMVtDSDJdW0NIMl1OKFtDSDJdMSljKG5bY0hdbjIpYyhjMjMpbltjSF1uM1tDSDJdW0NASF0oW09IXSlbQ0BASF00W0NIMl1bQ0gyXVtDSDJdTzQ=

> <s_epik_cmdline>
J2VwaWtfcHl0aG9uJywgJy1waCcsICc3LjAnLCAnLXRuJywgJzgnLCAnLW1hJywgJzIwMCcsICctbWV0YWxfYmluZGluZycsICctaW1hZScsICc8aW5maWxlLm1hZT4nLCAnLW9tYWUnLCAnPG91dGZpbGUubWFlPic=

> <r_lp_tautomer_probability>
1

> <r_epik_Ionization_Penalty>
0.0024631

> <r_epik_Ionization_Penalty_Charging>
0

> <r_epik_Ionization_Penalty_Neutral>
0.0024631

> <r_epik_State_Penalty>
0.00162428

> <r_epik_Charging_Adjusted_Penalty>
0.00162428

> <i_epik_Tot_Q>
0

> <i_epik_Tot_abs_Q>
0

> <r_epik_Metal_State_Penalty>
-0

> <b_epik_Metal_Only>
0

> <s_lp_Force_Field>
OPLS_2005

> <r_lp_Energy>
48.9745

> <b_lp_Chiralities_Consistent>
1

> <s_lp_Variant>
AV-unprocessed.smi:246-6

> <Gold.Version>
5.8.1

> <Gold.Id.Protein>
6NUR|6NUR_protein|mol2

> <Gold.PLP.Fitness>
44.3784

> <Gold.PLP.PLP>
-42.8270

> <Gold.PLP.part.hbond>
-1.0000

> <Gold.PLP.part.metal>
0.0000

> <Gold.PLP.part.buried>
-2.9926

> <Gold.PLP.part.nonpolar>
-40.1775

> <Gold.PLP.part.repulsive>
1.8255

> <Gold.PLP.ligand.clash>
0.0000

> <Gold.PLP.ligand.torsion>
2.0661

> <Gold.PLP.Chemscore.Hbond>
0.7840

> <Gold.PLP.Chemscore.CHOScore>
0.9349

> <Gold.PLP.Chemscore.Metal>
0.0000

> <Gold.Chemscore.Hbonds>
donor molecule, donor type, donor heavy atom, donor atom, acceptor molecule, acceptor atom, score
      L1  H    22    48       P1  7948  0.80
      L1  C    13    43       P1 10175  1.00

> <Gold.PLP.Chemscore.Internal.Correction>
0.5269

> <Gold.Rescore>
     Score         DG    S(hbond)    S(metal)    S(lipo)     H(rot)  DE(clash)    DE(int)     intcor
      8.99     -12.63       0.73        0.00     108.01       3.10       0.47       3.17       ----

> <Gold.Chemscore.Fitness>
8.9932

> <Gold.Chemscore.DG>
-12.6278

> <Gold.Chemscore.ZeroCoef>
-5.4800

> <Gold.Chemscore.Hbond>
0.7345

> <Gold.Chemscore.Metal>
0.0000

> <Gold.Chemscore.Lipo>
108.0113

> <Gold.Chemscore.Internal_Hbond>
0.0000

> <Gold.Chemscore.DEClash>
0.4678

> <Gold.Chemscore.DEInternal>
3.1668

> <Gold.Chemscore.Rot>
3.1026

> <Gold.Chemscore.Internal.Correction>
   9.000000E+99

> <Gold.Chemscore.Hbonds>
donor molecule, donor type, donor heavy atom, donor atom, acceptor molecule, acceptor atom, score
      L1  H    22    48       P1  7948  0.75

> <Gold.Chemscore.Hbond.Weighted>
-2.4531

> <Gold.Chemscore.Metal.Weighted>
-0.0000

> <Gold.Chemscore.Lipo.Weighted>
-12.6373

> <Gold.Chemscore.Internal_Hbond.Weighted>
0.0000

> <Gold.Chemscore.DEClash.Weighted>
0.4678

> <Gold.Chemscore.DEInternal.Weighted>
3.1668

> <Gold.Chemscore.Rot.Weighted>
7.9426

> <Gold.Chemscore.Internal.Correction.Weighted>
   9.000000E+99

> <Gold.Protein.RotatedTorsions>
[ 6907 6896 6895 6894 ] final   85.10 input  -60.11 | X-H torsion
[ 7974 7965 7964 7962 ] final   29.20 input  175.53 | X-H torsion
[ 8008 7997 7996 7995 ] final  114.26 input   59.86 | X-H torsion
[ 10167 10162 10161 10158 ] final   56.99 input  -65.29 | X-H torsion
[ 10718 10713 10712 10709 ] final   94.92 input   66.30 | X-H torsion
[ 10763 10752 10751 10750 ] final  -77.07 input  -60.55 | X-H torsion
[ 11005 11000 10999 10996 ] final  -30.74 input  -57.11 | X-H torsion

> <Gold.Protein.ActiveResidues>
 VAL166  LYS551  ARG553  GLY616  TRP617  ASP618  TYR619  PRO620  LYS621  CYS622 
 ASP623  PHE694  ASN695  SER759  ASP760  ASP761  ALA762  ILE779  LEU786  VAL792 
 PHE793  MET794  SER795  GLU796  ALA797  LYS798  CYS799  TRP800  GLU811  SER814 

> <Gold.Protein.RotatedAtoms>
  152.5367  134.2639  159.8945 H   0  0  0  0  0  0  0  0  0  0  0  0  # atno 6907 bound_to 6896
  151.2598  133.4301  159.2623 H   0  0  0  0  0  0  0  0  0  0  0  0  # atno 6908 bound_to 6896
  151.0463  134.9657  159.8244 H   0  0  0  0  0  0  0  0  0  0  0  0  # atno 6909 bound_to 6896
  146.1685  139.6953  142.8984 H   0  0  0  0  0  0  0  0  0  0  0  0  # atno 7974 bound_to 7965
  156.2310  140.2963  156.0188 H   0  0  0  0  0  0  0  0  0  0  0  0  # atno 8008 bound_to 7997
  155.2225  140.0416  157.2967 H   0  0  0  0  0  0  0  0  0  0  0  0  # atno 8009 bound_to 7997
  154.5996  140.2423  155.7818 H   0  0  0  0  0  0  0  0  0  0  0  0  # atno 8010 bound_to 7997
  140.2028  144.3970  150.6522 H   0  0  0  0  0  0  0  0  0  0  0  0  # atno 10167 bound_to 10162
  157.6943  131.0528  150.4260 H   0  0  0  0  0  0  0  0  0  0  0  0  # atno 10718 bound_to 10713
  154.5081  135.5776  153.6583 H   0  0  0  0  0  0  0  0  0  0  0  0  # atno 10763 bound_to 10752
  152.9891  135.6152  154.2915 H   0  0  0  0  0  0  0  0  0  0  0  0  # atno 10764 bound_to 10752
  154.2828  135.2850  155.2669 H   0  0  0  0  0  0  0  0  0  0  0  0  # atno 10765 bound_to 10752
  140.9408  133.7280  156.1074 H   0  0  0  0  0  0  0  0  0  0  0  0  # atno 11005 bound_to 11000
  145.4404  141.0422  143.2861 LP  0  0  0  0  0  0  0  0  0  0  0  0  # atno 17320 bound_to 7965
  144.8128  139.5932  143.7022 LP  0  0  0  0  0  0  0  0  0  0  0  0  # atno 17321 bound_to 7965
  140.6378  143.2198  151.6356 LP  0  0  0  0  0  0  0  0  0  0  0  0  # atno 17342 bound_to 10162
  139.5210  144.3205  152.0915 LP  0  0  0  0  0  0  0  0  0  0  0  0  # atno 17343 bound_to 10162
  156.4631  130.4036  149.6564 LP  0  0  0  0  0  0  0  0  0  0  0  0  # atno 17370 bound_to 10713
  156.3671  130.7511  151.2491 LP  0  0  0  0  0  0  0  0  0  0  0  0  # atno 17371 bound_to 10713
  140.7736  134.3805  157.5502 LP  0  0  0  0  0  0  0  0  0  0  0  0  # atno 17394 bound_to 11000
  139.8820  134.9037  156.2862 LP  0  0  0  0  0  0  0  0  0  0  0  0  # atno 17395 bound_to 11000

$$$$
