AV-unprocessed.smi:2083|AV-procd|sdf|8505|dock2
  -GOLD-   2272011213D 1   1.00000     0.00000
 Structure written by MMmdl.
 44 45  0  0  0  0  0  0  0  0  3 V2000
  146.3939  135.7812  162.7480 C   0  0  0  0  0  0  0  0  0  0  0  0
  147.1590  135.8587  161.4711 C   0  0  0  0  0  0  0  0  0  0  0  0
  147.7863  134.9159  160.7071 C   0  0  0  0  0  0  0  0  0  0  0  0
  148.3205  135.6737  159.6295 C   0  0  0  0  0  0  0  0  0  0  0  0
  149.0227  135.1867  158.5949 N   0  5  0  0  0  0  0  0  0  0  0  0
  148.3961  134.8496  157.4453 C   0  0  0  0  0  0  0  0  0  0  0  0
  147.2272  134.4732  157.3306 O   0  0  0  0  0  0  0  0  0  0  0  0
  149.1704  134.9631  156.3567 N   0  0  0  0  0  0  0  0  0  0  0  0
  148.7554  134.6937  154.9832 C   0  0  0  0  0  0  0  0  0  0  0  0
  147.4546  135.4480  154.5880 C   0  0  1  0  0  0  0  0  0  0  0  0
  147.6409  136.9710  154.7689 C   0  0  0  0  0  0  0  0  0  0  0  0
  146.9671  135.1618  153.1987 N   0  3  2  0  0  0  0  0  0  0  0  0
  145.8086  136.0243  152.8301 C   0  0  0  0  0  0  0  0  0  0  0  0
  145.4473  135.8834  151.3446 C   0  0  0  0  0  0  0  0  0  0  0  0
  145.1331  134.4247  151.0013 C   0  0  0  0  0  0  0  0  0  0  0  0
  146.3153  133.5281  151.3975 C   0  0  2  0  0  0  0  0  0  0  0  0
  146.0252  132.0525  151.0880 C   0  0  0  0  0  0  0  0  0  0  0  0
  146.6811  133.7310  152.8831 C   0  0  0  0  0  0  0  0  0  0  0  0
  148.0287  136.9603  159.7222 N   0  0  0  0  0  0  0  0  0  0  0  0
  147.2887  137.0882  160.9038 O   0  0  0  0  0  0  0  0  0  0  0  0
  145.4649  135.2286  162.6076 H   0  0  0  0  0  0  0  0  0  0  0  0
  146.1435  136.7758  163.1178 H   0  0  0  0  0  0  0  0  0  0  0  0
  146.9770  135.2734  163.5162 H   0  0  0  0  0  0  0  0  0  0  0  0
  147.8552  133.8543  160.8902 H   0  0  0  0  0  0  0  0  0  0  0  0
  150.1226  135.2687  156.4966 H   0  0  0  0  0  0  0  0  0  0  0  0
  149.5757  134.9865  154.3270 H   0  0  0  0  0  0  0  0  0  0  0  0
  148.6391  133.6136  154.8831 H   0  0  0  0  0  0  0  0  0  0  0  0
  146.6753  135.1171  155.2762 H   0  0  0  0  0  0  0  0  0  0  0  0
  147.9144  137.2257  155.7927 H   0  0  0  0  0  0  0  0  0  0  0  0
  146.7343  137.5323  154.5488 H   0  0  0  0  0  0  0  0  0  0  0  0
  148.4276  137.3491  154.1153 H   0  0  0  0  0  0  0  0  0  0  0  0
  144.9487  135.7583  153.4474 H   0  0  0  0  0  0  0  0  0  0  0  0
  146.0229  137.0719  153.0355 H   0  0  0  0  0  0  0  0  0  0  0  0
  144.5888  136.5130  151.1092 H   0  0  0  0  0  0  0  0  0  0  0  0
  146.2733  136.2409  150.7280 H   0  0  0  0  0  0  0  0  0  0  0  0
  144.2306  134.1087  151.5266 H   0  0  0  0  0  0  0  0  0  0  0  0
  144.9245  134.3301  149.9349 H   0  0  0  0  0  0  0  0  0  0  0  0
  147.1772  133.8246  150.7975 H   0  0  0  0  0  0  0  0  0  0  0  0
  145.1717  131.6875  151.6603 H   0  0  0  0  0  0  0  0  0  0  0  0
  146.8822  131.4238  151.3315 H   0  0  0  0  0  0  0  0  0  0  0  0
  145.8029  131.9092  150.0302 H   0  0  0  0  0  0  0  0  0  0  0  0
  147.5592  133.1164  153.0779 H   0  0  0  0  0  0  0  0  0  0  0  0
  145.8790  133.3683  153.5281 H   0  0  0  0  0  0  0  0  0  0  0  0
  147.7279  135.4209  152.5875 H   0  0  0  0  0  0  0  0  0  0  0  0
  1  2  1  0  0  0  0
  1 21  1  0  0  0  0
  1 22  1  0  0  0  0
  1 23  1  0  0  0  0
  2 20  1  0  0  0  0
  2  3  2  0  0  0  0
  3  4  1  0  0  0  0
  3 24  1  0  0  0  0
  4  5  1  0  0  0  0
  4 19  2  0  0  0  0
  5  6  1  0  0  0  0
  6  7  2  0  0  0  0
  6  8  1  0  0  0  0
  8  9  1  0  0  0  0
  8 25  1  0  0  0  0
  9 10  1  0  0  0  0
  9 26  1  0  0  0  0
  9 27  1  0  0  0  0
 10 11  1  0  0  0  0
 10 12  1  0  0  0  0
 10 28  1  0  0  0  0
 11 29  1  0  0  0  0
 11 30  1  0  0  0  0
 11 31  1  0  0  0  0
 12 18  1  0  0  0  0
 12 13  1  0  0  0  0
 12 44  1  0  0  0  0
 13 14  1  0  0  0  0
 13 32  1  0  0  0  0
 13 33  1  0  0  0  0
 14 15  1  0  0  0  0
 14 34  1  0  0  0  0
 14 35  1  0  0  0  0
 15 16  1  0  0  0  0
 15 36  1  0  0  0  0
 15 37  1  0  0  0  0
 16 17  1  0  0  0  0
 16 18  1  0  0  0  0
 16 38  1  0  0  0  0
 17 39  1  0  0  0  0
 17 40  1  0  0  0  0
 17 41  1  0  0  0  0
 18 42  1  0  0  0  0
 18 43  1  0  0  0  0
 19 20  1  0  0  0  0
M  CHG  1   5  -1
M  CHG  1  12   1
M  END
> <s_m_source_file>
AV-unprocessed.smi

> <i_m_source_file_index>
2083

> <i_lp_mmshare_version>
43012

> <i_f3d_flags>
0

> <s_epik_input>
W0NIM11jMVtjSF1jKG5vMSlbTkhdQyg9TylbTkhdW0NIMl1bQ0BIXShbQ0gzXSlOMltDSDJdW0NIMl1bQ0gyXVtDQEBIXShbQ0gzXSlbQ0gyXTI=

> <s_epik_cmdline>
J2VwaWtfcHl0aG9uJywgJy1waCcsICc3LjAnLCAnLXRuJywgJzgnLCAnLW1hJywgJzIwMCcsICctbWV0YWxfYmluZGluZycsICctaW1hZScsICc8aW5maWxlLm1hZT4nLCAnLW9tYWUnLCAnPG91dGZpbGUubWFlPic=

> <r_epik_Ionization_Penalty>
6.22434

> <r_epik_Ionization_Penalty_Charging>
6.22425

> <r_epik_Ionization_Penalty_Neutral>
9.62407e-05

> <r_epik_State_Penalty>
6.22423

> <r_epik_Charging_Adjusted_Penalty>
12.4485

> <i_epik_Tot_Q>
0

> <i_epik_Tot_abs_Q>
2

> <r_epik_Metal_State_Penalty>
2.16764

> <b_epik_Metal_Only>
1

> <s_lp_Force_Field>
OPLS_2005

> <r_lp_Energy>
9.644

> <b_lp_Chiralities_Consistent>
1

> <s_lp_Variant>
AV-unprocessed.smi:2083-16

> <Gold.Version>
5.8.1

> <Gold.Id.Protein>
6NUR|6NUR_protein|mol2

> <Gold.PLP.Fitness>
42.4703

> <Gold.PLP.PLP>
-27.7005

> <Gold.PLP.part.hbond>
-5.2431

> <Gold.PLP.part.metal>
0.0000

> <Gold.PLP.part.buried>
-2.0893

> <Gold.PLP.part.nonpolar>
-20.3583

> <Gold.PLP.part.repulsive>
0.0382

> <Gold.PLP.ligand.clash>
0.0000

> <Gold.PLP.ligand.torsion>
0.9894

> <Gold.PLP.Chemscore.Hbond>
5.5280

> <Gold.PLP.Chemscore.CHOScore>
0.0000

> <Gold.PLP.Chemscore.Metal>
0.0000

> <Gold.Chemscore.Hbonds>
donor molecule, donor type, donor heavy atom, donor atom, acceptor molecule, acceptor atom, score
      L1  H    12    44       P1  7948  2.00
      P1  H  6896  6909       L1     5  1.76
      P1  H  6931  6943       L1    20  0.13
      P1  H  6934  6947       L1    20  0.90

> <Gold.PLP.Chemscore.Internal.Correction>
0.1646

> <Gold.Rescore>
     Score         DG    S(hbond)    S(metal)    S(lipo)     H(rot)  DE(clash)    DE(int)     intcor
     14.45     -16.72       2.35        0.00      62.06       1.52       0.02       2.24       ----

> <Gold.Chemscore.Fitness>
14.4521

> <Gold.Chemscore.DG>
-16.7161

> <Gold.Chemscore.ZeroCoef>
-5.4800

> <Gold.Chemscore.Hbond>
2.3542

> <Gold.Chemscore.Metal>
0.0000

> <Gold.Chemscore.Lipo>
62.0650

> <Gold.Chemscore.Internal_Hbond>
0.0000

> <Gold.Chemscore.DEClash>
0.0237

> <Gold.Chemscore.DEInternal>
2.2402

> <Gold.Chemscore.Rot>
1.5190

> <Gold.Chemscore.Internal.Correction>
   9.000000E+99

> <Gold.Chemscore.Hbonds>
donor molecule, donor type, donor heavy atom, donor atom, acceptor molecule, acceptor atom, score
      L1  H    12    44       P1  7948  0.99
      P1  H  6896  6909       L1     5  0.16
      P1  H  6931  6943       L1    20  0.01
      P1  H  6934  6947       L1    20  0.18

> <Gold.Chemscore.Hbond.Weighted>
-7.8631

> <Gold.Chemscore.Metal.Weighted>
-0.0000

> <Gold.Chemscore.Lipo.Weighted>
-7.2616

> <Gold.Chemscore.Internal_Hbond.Weighted>
0.0000

> <Gold.Chemscore.DEClash.Weighted>
0.0237

> <Gold.Chemscore.DEInternal.Weighted>
2.2402

> <Gold.Chemscore.Rot.Weighted>
3.8886

> <Gold.Chemscore.Internal.Correction.Weighted>
   9.000000E+99

> <Gold.Protein.RotatedTorsions>
[ 6907 6896 6895 6894 ] final   58.75 input  -60.11 | X-H torsion
[ 7974 7965 7964 7962 ] final  160.38 input  175.53 | X-H torsion
[ 8008 7997 7996 7995 ] final  -92.38 input   59.86 | X-H torsion
[ 10167 10162 10161 10158 ] final  -81.85 input  -65.29 | X-H torsion
[ 10718 10713 10712 10709 ] final   90.27 input   66.30 | X-H torsion
[ 10763 10752 10751 10750 ] final   12.27 input  -60.55 | X-H torsion
[ 11005 11000 10999 10996 ] final   40.77 input  -57.11 | X-H torsion

> <Gold.Protein.ActiveResidues>
 VAL166  LYS551  ARG553  GLY616  TRP617  ASP618  TYR619  PRO620  LYS621  CYS622 
 ASP623  PHE694  ASN695  SER759  ASP760  ASP761  ALA762  ILE779  LEU786  VAL792 
 PHE793  MET794  SER795  GLU796  ALA797  LYS798  CYS799  TRP800  GLU811  SER814 

> <Gold.Protein.RotatedAtoms>
  152.3853  134.6527  160.0127 H   0  0  0  0  0  0  0  0  0  0  0  0  # atno 6907 bound_to 6896
  151.6778  133.3307  159.3220 H   0  0  0  0  0  0  0  0  0  0  0  0  # atno 6908 bound_to 6896
  150.7780  134.6743  159.6454 H   0  0  0  0  0  0  0  0  0  0  0  0  # atno 6909 bound_to 6896
  144.7740  139.7749  143.6286 H   0  0  0  0  0  0  0  0  0  0  0  0  # atno 7974 bound_to 7965
  154.7224  140.0509  157.0652 H   0  0  0  0  0  0  0  0  0  0  0  0  # atno 8008 bound_to 7997
  155.0409  140.3168  155.4706 H   0  0  0  0  0  0  0  0  0  0  0  0  # atno 8009 bound_to 7997
  156.2820  140.2133  156.5533 H   0  0  0  0  0  0  0  0  0  0  0  0  # atno 8010 bound_to 7997
  140.4374  143.2526  151.8674 H   0  0  0  0  0  0  0  0  0  0  0  0  # atno 10167 bound_to 10162
  157.6958  131.0364  150.3552 H   0  0  0  0  0  0  0  0  0  0  0  0  # atno 10718 bound_to 10713
  153.1840  135.6832  153.8440 H   0  0  0  0  0  0  0  0  0  0  0  0  # atno 10763 bound_to 10752
  153.7762  135.3189  155.3360 H   0  0  0  0  0  0  0  0  0  0  0  0  # atno 10764 bound_to 10752
  154.8077  135.4738  154.0531 H   0  0  0  0  0  0  0  0  0  0  0  0  # atno 10765 bound_to 10752
  140.1899  134.4000  155.8152 H   0  0  0  0  0  0  0  0  0  0  0  0  # atno 11005 bound_to 11000
  146.1907  139.5146  142.9807 LP  0  0  0  0  0  0  0  0  0  0  0  0  # atno 17320 bound_to 7965
  145.6240  141.0317  143.1899 LP  0  0  0  0  0  0  0  0  0  0  0  0  # atno 17321 bound_to 7965
  139.4787  144.5267  151.8725 LP  0  0  0  0  0  0  0  0  0  0  0  0  # atno 17342 bound_to 10162
  140.4357  144.2054  150.5889 LP  0  0  0  0  0  0  0  0  0  0  0  0  # atno 17343 bound_to 10162
  156.3996  130.3913  149.6970 LP  0  0  0  0  0  0  0  0  0  0  0  0  # atno 17370 bound_to 10713
  156.4292  130.7806  151.2826 LP  0  0  0  0  0  0  0  0  0  0  0  0  # atno 17371 bound_to 10713
  141.2226  133.7041  156.8077 LP  0  0  0  0  0  0  0  0  0  0  0  0  # atno 17394 bound_to 11000
  140.2172  134.8784  157.3338 LP  0  0  0  0  0  0  0  0  0  0  0  0  # atno 17395 bound_to 11000

$$$$
