AV-unprocessed.smi:3267|AV-procd|sdf|12504|dock10
  -GOLD-   2272018413D 1   1.00000     0.00000
 Structure written by MMmdl.
 38 39  0  0  0  0  0  0  0  0  1 V2000
  144.8322  135.0130  153.4790 C   0  0  0  0  0  0  0  0  0  0  0  0
  145.0698  136.2066  152.5432 C   0  0  2  0  0  0  0  0  0  0  0  0
  144.8234  135.8368  151.0602 C   0  0  0  0  0  0  0  0  0  0  0  0
  144.9133  134.4070  150.8320 N   0  0  0  0  0  0  0  0  0  0  0  0
  143.9357  133.5475  150.3776 C   0  0  0  0  0  0  0  0  0  0  0  0
  144.4845  132.2981  150.3295 C   0  0  0  0  0  0  0  0  0  0  0  0
  145.8190  132.4977  150.7812 C   0  0  0  0  0  0  0  0  0  0  0  0
  146.0723  133.7611  151.0830 N   0  0  0  0  0  0  0  0  0  0  0  0
  146.4309  136.7009  152.7363 N   0  0  0  0  0  0  0  0  0  0  0  0
  146.7764  137.7352  153.5159 C   0  0  0  0  0  0  0  0  0  0  0  0
  145.9790  138.3968  154.1808 O   0  0  0  0  0  0  0  0  0  0  0  0
  148.0960  137.9645  153.4800 N   0  0  0  0  0  0  0  0  0  0  0  0
  148.7827  139.0099  154.2299 C   0  0  0  0  0  0  0  0  0  0  0  0
  150.3091  138.8884  154.0948 C   0  0  2  0  0  0  0  0  0  0  0  0
  150.8759  137.6008  154.6893 C   0  0  0  0  0  0  0  0  0  0  0  0
  152.3017  138.0037  154.9872 C   0  0  0  0  0  0  0  0  0  0  0  0
  152.1251  139.4415  155.4662 C   0  0  0  0  0  0  0  0  0  0  0  0
  150.9623  139.9372  154.8069 O   0  0  0  0  0  0  0  0  0  0  0  0
  143.8097  134.6447  153.3876 H   0  0  0  0  0  0  0  0  0  0  0  0
  144.9880  135.2930  154.5215 H   0  0  0  0  0  0  0  0  0  0  0  0
  145.5058  134.1863  153.2504 H   0  0  0  0  0  0  0  0  0  0  0  0
  144.3747  136.9918  152.8485 H   0  0  0  0  0  0  0  0  0  0  0  0
  143.8417  136.1730  150.7224 H   0  0  0  0  0  0  0  0  0  0  0  0
  145.5440  136.3328  150.4079 H   0  0  0  0  0  0  0  0  0  0  0  0
  142.9422  133.8930  150.1322 H   0  0  0  0  0  0  0  0  0  0  0  0
  144.0054  131.3812  150.0199 H   0  0  0  0  0  0  0  0  0  0  0  0
  146.6057  131.7674  150.8984 H   0  0  0  0  0  0  0  0  0  0  0  0
  147.1633  136.2197  152.2351 H   0  0  0  0  0  0  0  0  0  0  0  0
  148.6703  137.3652  152.9054 H   0  0  0  0  0  0  0  0  0  0  0  0
  148.4488  139.9790  153.8579 H   0  0  0  0  0  0  0  0  0  0  0  0
  148.4922  138.9661  155.2810 H   0  0  0  0  0  0  0  0  0  0  0  0
  150.6086  138.9542  153.0475 H   0  0  0  0  0  0  0  0  0  0  0  0
  150.3606  137.3432  155.6158 H   0  0  0  0  0  0  0  0  0  0  0  0
  150.8041  136.7516  154.0095 H   0  0  0  0  0  0  0  0  0  0  0  0
  152.7849  137.3636  155.7259 H   0  0  0  0  0  0  0  0  0  0  0  0
  152.8956  137.9819  154.0724 H   0  0  0  0  0  0  0  0  0  0  0  0
  151.9484  139.4659  156.5419 H   0  0  0  0  0  0  0  0  0  0  0  0
  152.9978  140.0590  155.2530 H   0  0  0  0  0  0  0  0  0  0  0  0
  1  2  1  0  0  0  0
  1 19  1  0  0  0  0
  1 20  1  0  0  0  0
  1 21  1  0  0  0  0
  2  3  1  0  0  0  0
  2  9  1  0  0  0  0
  2 22  1  0  0  0  0
  3  4  1  0  0  0  0
  3 23  1  0  0  0  0
  3 24  1  0  0  0  0
  4  8  1  0  0  0  0
  4  5  1  0  0  0  0
  5  6  2  0  0  0  0
  5 25  1  0  0  0  0
  6  7  1  0  0  0  0
  6 26  1  0  0  0  0
  7  8  2  0  0  0  0
  7 27  1  0  0  0  0
  9 10  1  0  0  0  0
  9 28  1  0  0  0  0
 10 11  2  0  0  0  0
 10 12  1  0  0  0  0
 12 13  1  0  0  0  0
 12 29  1  0  0  0  0
 13 14  1  0  0  0  0
 13 30  1  0  0  0  0
 13 31  1  0  0  0  0
 14 18  1  0  0  0  0
 14 15  1  0  0  0  0
 14 32  1  0  0  0  0
 15 16  1  0  0  0  0
 15 33  1  0  0  0  0
 15 34  1  0  0  0  0
 16 17  1  0  0  0  0
 16 35  1  0  0  0  0
 16 36  1  0  0  0  0
 17 18  1  0  0  0  0
 17 37  1  0  0  0  0
 17 38  1  0  0  0  0
M  END
> <s_m_source_file>
AV-unprocessed.smi

> <i_m_source_file_index>
3267

> <i_lp_mmshare_version>
43012

> <i_f3d_flags>
0

> <s_epik_input>
bjFbY0hdW2NIXVtjSF1uMVtDSDJdW0NAQEhdKFtDSDNdKVtOSF1DKD1PKVtOSF1bQ0gyXVtDQEBIXTJbQ0gyXVtDSDJdW0NIMl1PMg==

> <s_epik_cmdline>
J2VwaWtfcHl0aG9uJywgJy1waCcsICc3LjAnLCAnLXRuJywgJzgnLCAnLW1hJywgJzIwMCcsICctbWV0YWxfYmluZGluZycsICctaW1hZScsICc8aW5maWxlLm1hZT4nLCAnLW9tYWUnLCAnPG91dGZpbGUubWFlPic=

> <r_lp_tautomer_probability>
1

> <r_epik_Ionization_Penalty>
6.24796e-05

> <r_epik_Ionization_Penalty_Charging>
0

> <r_epik_Ionization_Penalty_Neutral>
6.24796e-05

> <r_epik_State_Penalty>
-0

> <r_epik_Charging_Adjusted_Penalty>
0

> <i_epik_Tot_Q>
0

> <i_epik_Tot_abs_Q>
0

> <r_epik_Metal_State_Penalty>
-0

> <b_epik_Metal_Only>
0

> <s_lp_Force_Field>
OPLS_2005

> <r_lp_Energy>
17.87

> <b_lp_Chiralities_Consistent>
1

> <s_lp_Variant>
AV-unprocessed.smi:3267-1

> <Gold.Version>
5.8.1

> <Gold.Id.Protein>
6NUR|6NUR_protein|mol2

> <Gold.PLP.Fitness>
45.7395

> <Gold.PLP.PLP>
-32.7067

> <Gold.PLP.part.hbond>
-2.9003

> <Gold.PLP.part.metal>
0.0000

> <Gold.PLP.part.buried>
-4.4897

> <Gold.PLP.part.nonpolar>
-26.4012

> <Gold.PLP.part.repulsive>
0.4254

> <Gold.PLP.ligand.clash>
0.0000

> <Gold.PLP.ligand.torsion>
0.8858

> <Gold.PLP.Chemscore.Hbond>
2.9280

> <Gold.PLP.Chemscore.CHOScore>
2.0000

> <Gold.PLP.Chemscore.Metal>
0.0000

> <Gold.Chemscore.Hbonds>
donor molecule, donor type, donor heavy atom, donor atom, acceptor molecule, acceptor atom, score
      L1  H     9    28       P1  7948  0.90
      L1  H    12    29       P1  7948  1.00
      P1  H  7989  7998       L1    18  1.00
      L1  C     5    25       P1 10186  1.00
      L1  C     7    27       P1 10747  0.79

> <Gold.PLP.Chemscore.Internal.Correction>
0.0203

> <Gold.Rescore>
     Score         DG    S(hbond)    S(metal)    S(lipo)     H(rot)  DE(clash)    DE(int)     intcor
     14.31     -16.35       1.92        0.00      79.20       1.87       0.12       1.92       ----

> <Gold.Chemscore.Fitness>
14.3090

> <Gold.Chemscore.DG>
-16.3506

> <Gold.Chemscore.ZeroCoef>
-5.4800

> <Gold.Chemscore.Hbond>
1.9153

> <Gold.Chemscore.Metal>
0.0000

> <Gold.Chemscore.Lipo>
79.2037

> <Gold.Chemscore.Internal_Hbond>
0.0000

> <Gold.Chemscore.DEClash>
0.1228

> <Gold.Chemscore.DEInternal>
1.9189

> <Gold.Chemscore.Rot>
1.8724

> <Gold.Chemscore.Internal.Correction>
   9.000000E+99

> <Gold.Chemscore.Hbonds>
donor molecule, donor type, donor heavy atom, donor atom, acceptor molecule, acceptor atom, score
      L1  H     9    28       P1  7948  0.88
      L1  H    12    29       P1  7948  0.94
      P1  H  7989  7998       L1    18  0.12

> <Gold.Chemscore.Hbond.Weighted>
-6.3971

> <Gold.Chemscore.Metal.Weighted>
-0.0000

> <Gold.Chemscore.Lipo.Weighted>
-9.2668

> <Gold.Chemscore.Internal_Hbond.Weighted>
0.0000

> <Gold.Chemscore.DEClash.Weighted>
0.1228

> <Gold.Chemscore.DEInternal.Weighted>
1.9189

> <Gold.Chemscore.Rot.Weighted>
4.7933

> <Gold.Chemscore.Internal.Correction.Weighted>
   9.000000E+99

> <Gold.Protein.RotatedTorsions>
[ 6907 6896 6895 6894 ] final  -68.62 input  -60.11 | X-H torsion
[ 7974 7965 7964 7962 ] final  -42.54 input  175.53 | X-H torsion
[ 8008 7997 7996 7995 ] final -164.99 input   59.86 | X-H torsion
[ 10167 10162 10161 10158 ] final  149.91 input  -65.29 | X-H torsion
[ 10718 10713 10712 10709 ] final  125.07 input   66.30 | X-H torsion
[ 10763 10752 10751 10750 ] final -162.61 input  -60.55 | X-H torsion
[ 11005 11000 10999 10996 ] final  -90.09 input  -57.11 | X-H torsion

> <Gold.Protein.ActiveResidues>
 VAL166  LYS551  ARG553  GLY616  TRP617  ASP618  TYR619  PRO620  LYS621  CYS622 
 ASP623  PHE694  ASN695  SER759  ASP760  ASP761  ALA762  ILE779  LEU786  VAL792 
 PHE793  MET794  SER795  GLU796  ALA797  LYS798  CYS799  TRP800  GLU811  SER814 

> <Gold.Protein.RotatedAtoms>
  150.7347  134.5713  159.5891 H   0  0  0  0  0  0  0  0  0  0  0  0  # atno 6907 bound_to 6896
  152.3151  134.7447  160.0336 H   0  0  0  0  0  0  0  0  0  0  0  0  # atno 6908 bound_to 6896
  151.7981  133.3331  159.3555 H   0  0  0  0  0  0  0  0  0  0  0  0  # atno 6909 bound_to 6896
  146.0106  140.6969  142.9226 H   0  0  0  0  0  0  0  0  0  0  0  0  # atno 7974 bound_to 7965
  155.8434  140.0952  157.1720 H   0  0  0  0  0  0  0  0  0  0  0  0  # atno 8008 bound_to 7997
  154.3982  140.1396  156.3818 H   0  0  0  0  0  0  0  0  0  0  0  0  # atno 8009 bound_to 7997
  155.8039  140.3452  155.5421 H   0  0  0  0  0  0  0  0  0  0  0  0  # atno 8010 bound_to 7997
  139.4856  144.5564  151.7309 H   0  0  0  0  0  0  0  0  0  0  0  0  # atno 10167 bound_to 10162
  157.5533  131.1093  150.8665 H   0  0  0  0  0  0  0  0  0  0  0  0  # atno 10718 bound_to 10713
  154.7198  135.3023  154.9065 H   0  0  0  0  0  0  0  0  0  0  0  0  # atno 10763 bound_to 10752
  153.9940  135.6715  153.4759 H   0  0  0  0  0  0  0  0  0  0  0  0  # atno 10764 bound_to 10752
  153.0824  135.5001  154.8447 H   0  0  0  0  0  0  0  0  0  0  0  0  # atno 10765 bound_to 10752
  141.1572  133.7670  156.9688 H   0  0  0  0  0  0  0  0  0  0  0  0  # atno 11005 bound_to 11000
  144.6951  140.3391  143.7202 LP  0  0  0  0  0  0  0  0  0  0  0  0  # atno 17320 bound_to 7965
  145.7348  139.1747  143.2409 LP  0  0  0  0  0  0  0  0  0  0  0  0  # atno 17321 bound_to 7965
  140.5127  144.1001  150.5999 LP  0  0  0  0  0  0  0  0  0  0  0  0  # atno 17342 bound_to 10162
  140.3932  143.2742  152.0036 LP  0  0  0  0  0  0  0  0  0  0  0  0  # atno 17343 bound_to 10162
  156.9183  130.5306  149.5279 LP  0  0  0  0  0  0  0  0  0  0  0  0  # atno 17370 bound_to 10713
  156.0596  130.5651  150.9164 LP  0  0  0  0  0  0  0  0  0  0  0  0  # atno 17371 bound_to 10713
  140.1143  134.9457  157.2112 LP  0  0  0  0  0  0  0  0  0  0  0  0  # atno 17394 bound_to 11000
  140.3153  134.2978  155.7258 LP  0  0  0  0  0  0  0  0  0  0  0  0  # atno 17395 bound_to 11000

$$$$
