AV-unprocessed.smi:1842|AV-procd|sdf|7498|dock5
  -GOLD-   22720 9203D 1   1.00000     0.00000
 Structure written by MMmdl.
 39 40  0  0  0  0  0  0  0  0  2 V2000
  152.4439  139.5742  156.8869 O   0  0  0  0  0  0  0  0  0  0  0  0
  151.4536  140.2919  157.0246 C   0  0  0  0  0  0  0  0  0  0  0  0
  151.4399  141.3922  158.0899 C   0  0  0  0  0  0  0  0  0  0  0  0
  152.7853  141.5555  158.8267 C   0  0  0  0  0  0  0  0  0  0  0  0
  152.9228  142.8596  159.6401 C   0  0  0  0  0  0  0  0  0  0  0  0
  152.5119  142.7092  161.1074 C   0  0  0  0  0  0  0  0  0  0  0  0
  152.2161  144.1331  161.5950 C   0  0  0  0  0  0  0  0  0  0  0  0
  151.9735  144.9799  160.3362 C   0  0  0  0  0  0  0  0  0  0  0  0
  152.0401  144.0113  159.1518 C   0  0  0  0  0  0  0  0  0  0  0  0
  150.3433  140.1662  156.2819 N   0  0  0  0  0  0  0  0  0  0  0  0
  150.1532  139.1961  155.2077 C   0  0  0  0  0  0  0  0  0  0  0  0
  149.6621  139.8437  153.8985 C   0  0  0  0  0  0  0  0  0  0  0  0
  148.3572  140.4949  154.0466 N   0  0  0  0  0  0  0  0  0  0  0  0
  148.0853  141.6753  154.6890 C   0  0  0  0  0  0  0  0  0  0  0  0
  146.7348  141.8821  154.5704 C   0  0  0  0  0  0  0  0  0  0  0  0
  146.2405  140.8206  153.8606 N   0  3  0  0  0  0  0  0  0  0  0  0
  147.2290  139.9790  153.5410 C   0  0  0  0  0  0  0  0  0  0  0  0
  151.1439  142.3422  157.6425 H   0  0  0  0  0  0  0  0  0  0  0  0
  150.6624  141.1445  158.8130 H   0  0  0  0  0  0  0  0  0  0  0  0
  152.9223  140.7009  159.4903 H   0  0  0  0  0  0  0  0  0  0  0  0
  153.6014  141.4978  158.1050 H   0  0  0  0  0  0  0  0  0  0  0  0
  153.9615  143.1933  159.6225 H   0  0  0  0  0  0  0  0  0  0  0  0
  151.6038  142.1089  161.1800 H   0  0  0  0  0  0  0  0  0  0  0  0
  153.2788  142.2161  161.7057 H   0  0  0  0  0  0  0  0  0  0  0  0
  151.3543  144.1472  162.2633 H   0  0  0  0  0  0  0  0  0  0  0  0
  153.0662  144.5301  162.1513 H   0  0  0  0  0  0  0  0  0  0  0  0
  151.0199  145.5078  160.3720 H   0  0  0  0  0  0  0  0  0  0  0  0
  152.7591  145.7312  160.2448 H   0  0  0  0  0  0  0  0  0  0  0  0
  152.4304  144.4873  158.2517 H   0  0  0  0  0  0  0  0  0  0  0  0
  151.0386  143.6427  158.9250 H   0  0  0  0  0  0  0  0  0  0  0  0
  149.5814  140.8047  156.4601 H   0  0  0  0  0  0  0  0  0  0  0  0
  151.1009  138.6843  155.0376 H   0  0  0  0  0  0  0  0  0  0  0  0
  149.4465  138.4305  155.5319 H   0  0  0  0  0  0  0  0  0  0  0  0
  150.3711  140.6049  153.5713 H   0  0  0  0  0  0  0  0  0  0  0  0
  149.5974  139.1110  153.0928 H   0  0  0  0  0  0  0  0  0  0  0  0
  148.8525  142.2644  155.1704 H   0  0  0  0  0  0  0  0  0  0  0  0
  146.1054  142.6841  154.9282 H   0  0  0  0  0  0  0  0  0  0  0  0
  147.1341  139.0615  152.9874 H   0  0  0  0  0  0  0  0  0  0  0  0
  145.2682  140.6896  153.6107 H   0  0  0  0  0  0  0  0  0  0  0  0
  1  2  2  0  0  0  0
  2  3  1  0  0  0  0
  2 10  1  0  0  0  0
  3  4  1  0  0  0  0
  3 18  1  0  0  0  0
  3 19  1  0  0  0  0
  4  5  1  0  0  0  0
  4 20  1  0  0  0  0
  4 21  1  0  0  0  0
  5  9  1  0  0  0  0
  5  6  1  0  0  0  0
  5 22  1  0  0  0  0
  6  7  1  0  0  0  0
  6 23  1  0  0  0  0
  6 24  1  0  0  0  0
  7  8  1  0  0  0  0
  7 25  1  0  0  0  0
  7 26  1  0  0  0  0
  8  9  1  0  0  0  0
  8 27  1  0  0  0  0
  8 28  1  0  0  0  0
  9 29  1  0  0  0  0
  9 30  1  0  0  0  0
 10 11  1  0  0  0  0
 10 31  1  0  0  0  0
 11 12  1  0  0  0  0
 11 32  1  0  0  0  0
 11 33  1  0  0  0  0
 12 13  1  0  0  0  0
 12 34  1  0  0  0  0
 12 35  1  0  0  0  0
 13 17  1  0  0  0  0
 13 14  1  0  0  0  0
 14 15  2  0  0  0  0
 14 36  1  0  0  0  0
 15 16  1  0  0  0  0
 15 37  1  0  0  0  0
 16 17  2  0  0  0  0
 16 39  1  0  0  0  0
 17 38  1  0  0  0  0
M  CHG  1  16   1
M  END
> <s_m_source_file>
AV-unprocessed.smi

> <i_m_source_file_index>
1842

> <i_lp_mmshare_version>
43012

> <i_f3d_flags>
0

> <s_epik_input>
W0NIMl0xW0NIMl1bQ0gyXVtDSDJdW0NIXTFbQ0gyXVtDSDJdQyg9TylbTkhdW0NIMl1bQ0gyXW4yW2NIXVtjSF1uW2NIXTI=

> <s_epik_cmdline>
J2VwaWtfcHl0aG9uJywgJy1waCcsICc3LjAnLCAnLXRuJywgJzgnLCAnLW1hJywgJzIwMCcsICctbWV0YWxfYmluZGluZycsICctaW1hZScsICc8aW5maWxlLm1hZT4nLCAnLW9tYWUnLCAnPG91dGZpbGUubWFlPic=

> <r_lp_tautomer_probability>
1

> <r_epik_Ionization_Penalty>
0.269886

> <r_epik_Ionization_Penalty_Charging>
0

> <r_epik_Ionization_Penalty_Neutral>
0.269886

> <r_epik_State_Penalty>
0.261983

> <r_epik_Charging_Adjusted_Penalty>
0.261983

> <i_epik_Tot_Q>
1

> <i_epik_Tot_abs_Q>
1

> <r_epik_Metal_State_Penalty>
0.546964

> <b_epik_Metal_Only>
0

> <s_lp_Force_Field>
OPLS_2005

> <r_lp_Energy>
23.3455

> <b_lp_Chiralities_Consistent>
1

> <s_lp_Variant>
AV-unprocessed.smi:1842-1

> <Gold.Version>
5.8.1

> <Gold.Id.Protein>
6NUR|6NUR_protein|mol2

> <Gold.PLP.Fitness>
50.3848

> <Gold.PLP.PLP>
-39.9225

> <Gold.PLP.part.hbond>
-2.0000

> <Gold.PLP.part.metal>
0.0000

> <Gold.PLP.part.buried>
0.2921

> <Gold.PLP.part.nonpolar>
-37.6613

> <Gold.PLP.part.repulsive>
0.0563

> <Gold.PLP.ligand.clash>
0.0000

> <Gold.PLP.ligand.torsion>
0.7306

> <Gold.PLP.Chemscore.Hbond>
3.0000

> <Gold.PLP.Chemscore.CHOScore>
0.9603

> <Gold.PLP.Chemscore.Metal>
0.0000

> <Gold.Chemscore.Hbonds>
donor molecule, donor type, donor heavy atom, donor atom, acceptor molecule, acceptor atom, score
      L1  H    16    39       P1 10175  2.00
      P1  H  7997  8009       L1     1  1.00
      L1  C    14    36       P1  8028  0.97

> <Gold.PLP.Chemscore.Internal.Correction>
0.0426

> <Gold.Rescore>
     Score         DG    S(hbond)    S(metal)    S(lipo)     H(rot)  DE(clash)    DE(int)     intcor
     17.09     -18.14       1.91        0.00     102.76       2.25       0.38       0.67       ----

> <Gold.Chemscore.Fitness>
17.0873

> <Gold.Chemscore.DG>
-18.1397

> <Gold.Chemscore.ZeroCoef>
-5.4800

> <Gold.Chemscore.Hbond>
1.9141

> <Gold.Chemscore.Metal>
0.0000

> <Gold.Chemscore.Lipo>
102.7601

> <Gold.Chemscore.Internal_Hbond>
0.0000

> <Gold.Chemscore.DEClash>
0.3827

> <Gold.Chemscore.DEInternal>
0.6697

> <Gold.Chemscore.Rot>
2.2485

> <Gold.Chemscore.Internal.Correction>
   9.000000E+99

> <Gold.Chemscore.Hbonds>
donor molecule, donor type, donor heavy atom, donor atom, acceptor molecule, acceptor atom, score
      L1  H    16    39       P1 10175  0.92
      P1  H  7997  8009       L1     1  0.96

> <Gold.Chemscore.Hbond.Weighted>
-6.3930

> <Gold.Chemscore.Metal.Weighted>
-0.0000

> <Gold.Chemscore.Lipo.Weighted>
-12.0229

> <Gold.Chemscore.Internal_Hbond.Weighted>
0.0000

> <Gold.Chemscore.DEClash.Weighted>
0.3827

> <Gold.Chemscore.DEInternal.Weighted>
0.6697

> <Gold.Chemscore.Rot.Weighted>
5.7562

> <Gold.Chemscore.Internal.Correction.Weighted>
   9.000000E+99

> <Gold.Protein.RotatedTorsions>
[ 6907 6896 6895 6894 ] final  177.16 input  -60.11 | X-H torsion
[ 7974 7965 7964 7962 ] final   97.38 input  175.53 | X-H torsion
[ 8008 7997 7996 7995 ] final -173.40 input   59.86 | X-H torsion
[ 10167 10162 10161 10158 ] final   36.00 input  -65.29 | X-H torsion
[ 10718 10713 10712 10709 ] final   10.02 input   66.30 | X-H torsion
[ 10763 10752 10751 10750 ] final  -75.29 input  -60.55 | X-H torsion
[ 11005 11000 10999 10996 ] final    5.76 input  -57.11 | X-H torsion

> <Gold.Protein.ActiveResidues>
 VAL166  LYS551  ARG553  GLY616  TRP617  ASP618  TYR619  PRO620  LYS621  CYS622 
 ASP623  PHE694  ASN695  SER759  ASP760  ASP761  ALA762  ILE779  LEU786  VAL792 
 PHE793  MET794  SER795  GLU796  ALA797  LYS798  CYS799  TRP800  GLU811  SER814 

> <Gold.Protein.RotatedAtoms>
  151.7085  133.3312  159.3284 H   0  0  0  0  0  0  0  0  0  0  0  0  # atno 6907 bound_to 6896
  150.7704  134.6553  159.6319 H   0  0  0  0  0  0  0  0  0  0  0  0  # atno 6908 bound_to 6896
  152.3726  134.6714  160.0223 H   0  0  0  0  0  0  0  0  0  0  0  0  # atno 6909 bound_to 6896
  145.4262  139.2315  143.3169 H   0  0  0  0  0  0  0  0  0  0  0  0  # atno 7974 bound_to 7965
  155.9569  140.1137  157.0929 H   0  0  0  0  0  0  0  0  0  0  0  0  # atno 8008 bound_to 7997
  154.4122  140.1189  156.5194 H   0  0  0  0  0  0  0  0  0  0  0  0  # atno 8009 bound_to 7997
  155.6770  140.3473  155.4842 H   0  0  0  0  0  0  0  0  0  0  0  0  # atno 8010 bound_to 7997
  140.4168  144.1515  150.6144 H   0  0  0  0  0  0  0  0  0  0  0  0  # atno 10167 bound_to 10162
  156.9748  130.5983  149.5672 H   0  0  0  0  0  0  0  0  0  0  0  0  # atno 10718 bound_to 10713
  154.4846  135.5836  153.6414 H   0  0  0  0  0  0  0  0  0  0  0  0  # atno 10763 bound_to 10752
  152.9852  135.6098  154.3203 H   0  0  0  0  0  0  0  0  0  0  0  0  # atno 10764 bound_to 10752
  154.3097  135.2845  155.2551 H   0  0  0  0  0  0  0  0  0  0  0  0  # atno 10765 bound_to 10752
  140.5671  134.0138  155.7994 H   0  0  0  0  0  0  0  0  0  0  0  0  # atno 11005 bound_to 11000
  146.2631  140.4993  142.8845 LP  0  0  0  0  0  0  0  0  0  0  0  0  # atno 17320 bound_to 7965
  144.8212  140.6554  143.6351 LP  0  0  0  0  0  0  0  0  0  0  0  0  # atno 17321 bound_to 7965
  140.4577  143.2461  151.9262 LP  0  0  0  0  0  0  0  0  0  0  0  0  # atno 17342 bound_to 10162
  139.4782  144.5499  151.8402 LP  0  0  0  0  0  0  0  0  0  0  0  0  # atno 17343 bound_to 10162
  156.0268  130.5361  150.8428 LP  0  0  0  0  0  0  0  0  0  0  0  0  # atno 17370 bound_to 10713
  157.5567  131.0945  150.9618 LP  0  0  0  0  0  0  0  0  0  0  0  0  # atno 17371 bound_to 10713
  141.1079  133.9664  157.2963 LP  0  0  0  0  0  0  0  0  0  0  0  0  # atno 17394 bound_to 11000
  139.9380  135.0194  156.8617 LP  0  0  0  0  0  0  0  0  0  0  0  0  # atno 17395 bound_to 11000

$$$$
