AV-unprocessed.smi:1350|AV-procd|sdf|5520|dock10
  -GOLD-   22720 5113D 1   1.00000     0.00000
 Structure written by MMmdl.
 43 45  0  0  0  0  0  0  0  0  1 V2000
  146.6702  137.7548  163.1293 C   0  0  0  0  0  0  0  0  0  0  0  0
  147.1676  137.3405  161.8652 O   0  0  0  0  0  0  0  0  0  0  0  0
  147.2103  135.9898  161.5836 C   0  0  0  0  0  0  0  0  0  0  0  0
  146.7131  134.9963  162.4667 C   0  0  0  0  0  0  0  0  0  0  0  0
  146.7825  133.6319  162.1274 C   0  0  0  0  0  0  0  0  0  0  0  0
  147.3481  133.2382  160.9025 C   0  0  0  0  0  0  0  0  0  0  0  0
  147.8442  134.2120  160.0181 C   0  0  0  0  0  0  0  0  0  0  0  0
  147.7814  135.5815  160.3515 C   0  0  0  0  0  0  0  0  0  0  0  0
  148.3228  136.5911  159.3522 C   0  0  0  0  0  0  0  0  0  0  0  0
  149.7397  136.5641  159.3080 O   0  0  0  0  0  0  0  0  0  0  0  0
  150.2895  137.6409  158.5669 C   0  0  0  0  0  0  0  0  0  0  0  0
  151.8212  137.5555  158.6224 C   0  0  2  0  0  0  0  0  0  0  0  0
  152.2286  137.6262  159.9749 O   0  0  0  0  0  0  0  0  0  0  0  0
  152.5048  138.6738  157.8123 C   0  0  0  0  0  0  0  0  0  0  0  0
  151.8793  139.9666  158.0226 N   0  0  0  0  0  0  0  0  0  0  0  0
  150.8052  140.4689  157.3834 C   0  0  0  0  0  0  0  0  0  0  0  0
  150.3962  141.6833  157.7403 N   0  0  0  0  0  0  0  0  0  0  0  0
  151.3122  142.0074  158.7266 C   0  0  0  0  0  0  0  0  0  0  0  0
  151.4350  143.1718  159.5183 C   0  0  0  0  0  0  0  0  0  0  0  0
  152.4653  143.2792  160.4757 C   0  0  0  0  0  0  0  0  0  0  0  0
  153.3867  142.2271  160.6563 C   0  0  0  0  0  0  0  0  0  0  0  0
  153.2840  141.0568  159.8799 C   0  0  0  0  0  0  0  0  0  0  0  0
  152.2546  140.9541  158.9261 C   0  0  0  0  0  0  0  0  0  0  0  0
  146.7131  138.8420  163.1926 H   0  0  0  0  0  0  0  0  0  0  0  0
  147.2719  137.3542  163.9462 H   0  0  0  0  0  0  0  0  0  0  0  0
  145.6294  137.4580  163.2652 H   0  0  0  0  0  0  0  0  0  0  0  0
  146.2700  135.2543  163.4163 H   0  0  0  0  0  0  0  0  0  0  0  0
  146.3999  132.8864  162.8088 H   0  0  0  0  0  0  0  0  0  0  0  0
  147.4005  132.1916  160.6411 H   0  0  0  0  0  0  0  0  0  0  0  0
  148.2765  133.9050  159.0769 H   0  0  0  0  0  0  0  0  0  0  0  0
  147.9203  136.3417  158.3693 H   0  0  0  0  0  0  0  0  0  0  0  0
  147.9858  137.6014  159.5835 H   0  0  0  0  0  0  0  0  0  0  0  0
  149.9406  137.6121  157.5332 H   0  0  0  0  0  0  0  0  0  0  0  0
  149.9532  138.5839  159.0015 H   0  0  0  0  0  0  0  0  0  0  0  0
  152.1331  136.5832  158.2383 H   0  0  0  0  0  0  0  0  0  0  0  0
  153.0278  137.1320  160.0740 H   0  0  0  0  0  0  0  0  0  0  0  0
  153.5548  138.7582  158.0950 H   0  0  0  0  0  0  0  0  0  0  0  0
  152.4872  138.4432  156.7460 H   0  0  0  0  0  0  0  0  0  0  0  0
  150.2924  139.9096  156.6144 H   0  0  0  0  0  0  0  0  0  0  0  0
  150.7347  143.9836  159.3890 H   0  0  0  0  0  0  0  0  0  0  0  0
  152.5490  144.1737  161.0752 H   0  0  0  0  0  0  0  0  0  0  0  0
  154.1725  142.3183  161.3918 H   0  0  0  0  0  0  0  0  0  0  0  0
  153.9863  140.2477  160.0152 H   0  0  0  0  0  0  0  0  0  0  0  0
  1  2  1  0  0  0  0
  1 24  1  0  0  0  0
  1 25  1  0  0  0  0
  1 26  1  0  0  0  0
  2  3  1  0  0  0  0
  3  8  1  0  0  0  0
  3  4  2  0  0  0  0
  4  5  1  0  0  0  0
  4 27  1  0  0  0  0
  5  6  2  0  0  0  0
  5 28  1  0  0  0  0
  6  7  1  0  0  0  0
  6 29  1  0  0  0  0
  7  8  2  0  0  0  0
  7 30  1  0  0  0  0
  8  9  1  0  0  0  0
  9 10  1  0  0  0  0
  9 31  1  0  0  0  0
  9 32  1  0  0  0  0
 10 11  1  0  0  0  0
 11 12  1  0  0  0  0
 11 33  1  0  0  0  0
 11 34  1  0  0  0  0
 12 13  1  0  0  0  0
 12 14  1  0  0  0  0
 12 35  1  0  0  0  0
 13 36  1  0  0  0  0
 14 15  1  0  0  0  0
 14 37  1  0  0  0  0
 14 38  1  0  0  0  0
 15 23  1  0  0  0  0
 15 16  1  0  0  0  0
 16 17  2  0  0  0  0
 16 39  1  0  0  0  0
 17 18  1  0  0  0  0
 18 23  2  0  0  0  0
 18 19  1  0  0  0  0
 19 20  2  0  0  0  0
 19 40  1  0  0  0  0
 20 21  1  0  0  0  0
 20 41  1  0  0  0  0
 21 22  2  0  0  0  0
 21 42  1  0  0  0  0
 22 23  1  0  0  0  0
 22 43  1  0  0  0  0
M  END
> <s_m_source_file>
AV-unprocessed.smi

> <i_m_source_file_index>
1350

> <i_lp_mmshare_version>
43012

> <i_f3d_flags>
0

> <s_epik_input>
W0NIM11PYzFbY0hdW2NIXVtjSF1bY0hdYzFbQ0gyXU9bQ0gyXVtDQEhdKFtPSF0pW0NIMl1uKFtjSF1uMiljKGMyMylbY0hdW2NIXVtjSF1bY0hdMw==

> <s_epik_cmdline>
J2VwaWtfcHl0aG9uJywgJy1waCcsICc3LjAnLCAnLXRuJywgJzgnLCAnLW1hJywgJzIwMCcsICctbWV0YWxfYmluZGluZycsICctaW1hZScsICc8aW5maWxlLm1hZT4nLCAnLW9tYWUnLCAnPG91dGZpbGUubWFlPic=

> <r_lp_tautomer_probability>
1

> <r_epik_Ionization_Penalty>
0.0713119

> <r_epik_Ionization_Penalty_Charging>
0

> <r_epik_Ionization_Penalty_Neutral>
0.0713119

> <r_epik_State_Penalty>
0.06259

> <r_epik_Charging_Adjusted_Penalty>
0.06259

> <i_epik_Tot_Q>
0

> <i_epik_Tot_abs_Q>
0

> <r_epik_Metal_State_Penalty>
6.60119e-05

> <b_epik_Metal_Only>
0

> <s_lp_Force_Field>
OPLS_2005

> <r_lp_Energy>
18.6906

> <b_lp_Chiralities_Consistent>
1

> <s_lp_Variant>
AV-unprocessed.smi:1350-1

> <Gold.Version>
5.8.1

> <Gold.Id.Protein>
6NUR|6NUR_protein|mol2

> <Gold.PLP.Fitness>
55.2217

> <Gold.PLP.PLP>
-49.0007

> <Gold.PLP.part.hbond>
-3.0000

> <Gold.PLP.part.metal>
0.0000

> <Gold.PLP.part.buried>
-5.0147

> <Gold.PLP.part.nonpolar>
-40.0232

> <Gold.PLP.part.repulsive>
0.0419

> <Gold.PLP.ligand.clash>
0.0000

> <Gold.PLP.ligand.torsion>
0.6706

> <Gold.PLP.Chemscore.Hbond>
2.4823

> <Gold.PLP.Chemscore.CHOScore>
0.0000

> <Gold.PLP.Chemscore.Metal>
0.0000

> <Gold.Chemscore.Hbonds>
donor molecule, donor type, donor heavy atom, donor atom, acceptor molecule, acceptor atom, score
      P1  H  6896  6908       L1    10  0.96
      P1  H  6931  6943       L1     2  0.68
      P1  H  6934  6947       L1     2  0.76

> <Gold.PLP.Chemscore.Internal.Correction>
0.1155

> <Gold.Rescore>
     Score         DG    S(hbond)    S(metal)    S(lipo)     H(rot)  DE(clash)    DE(int)     intcor
     18.76     -20.02       1.73        0.00     132.33       2.63       0.56       0.70       ----

> <Gold.Chemscore.Fitness>
18.7631

> <Gold.Chemscore.DG>
-20.0203

> <Gold.Chemscore.ZeroCoef>
-5.4800

> <Gold.Chemscore.Hbond>
1.7344

> <Gold.Chemscore.Metal>
0.0000

> <Gold.Chemscore.Lipo>
132.3260

> <Gold.Chemscore.Internal_Hbond>
0.0000

> <Gold.Chemscore.DEClash>
0.5611

> <Gold.Chemscore.DEInternal>
0.6961

> <Gold.Chemscore.Rot>
2.6308

> <Gold.Chemscore.Internal.Correction>
   9.000000E+99

> <Gold.Chemscore.Hbonds>
donor molecule, donor type, donor heavy atom, donor atom, acceptor molecule, acceptor atom, score
      P1  H  6896  6908       L1    10  0.89
      P1  H  6931  6943       L1     2  0.13
      P1  H  6934  6947       L1     2  0.17

> <Gold.Chemscore.Hbond.Weighted>
-5.7929

> <Gold.Chemscore.Metal.Weighted>
-0.0000

> <Gold.Chemscore.Lipo.Weighted>
-15.4821

> <Gold.Chemscore.Internal_Hbond.Weighted>
0.0000

> <Gold.Chemscore.DEClash.Weighted>
0.5611

> <Gold.Chemscore.DEInternal.Weighted>
0.6961

> <Gold.Chemscore.Rot.Weighted>
6.7347

> <Gold.Chemscore.Internal.Correction.Weighted>
   9.000000E+99

> <Gold.Protein.RotatedTorsions>
[ 6907 6896 6895 6894 ] final -165.40 input  -60.11 | X-H torsion
[ 7974 7965 7964 7962 ] final  -12.26 input  175.53 | X-H torsion
[ 8008 7997 7996 7995 ] final   64.64 input   59.86 | X-H torsion
[ 10167 10162 10161 10158 ] final  -18.02 input  -65.29 | X-H torsion
[ 10718 10713 10712 10709 ] final  -33.13 input   66.30 | X-H torsion
[ 10763 10752 10751 10750 ] final -160.53 input  -60.55 | X-H torsion
[ 11005 11000 10999 10996 ] final -120.14 input  -57.11 | X-H torsion

> <Gold.Protein.ActiveResidues>
 VAL166  LYS551  ARG553  GLY616  TRP617  ASP618  TYR619  PRO620  LYS621  CYS622 
 ASP623  PHE694  ASN695  SER759  ASP760  ASP761  ALA762  ILE779  LEU786  VAL792 
 PHE793  MET794  SER795  GLU796  ALA797  LYS798  CYS799  TRP800  GLU811  SER814 

> <Gold.Protein.RotatedAtoms>
  151.4271  133.3681  159.2763 H   0  0  0  0  0  0  0  0  0  0  0  0  # atno 6907 bound_to 6896
  150.9251  134.8670  159.7525 H   0  0  0  0  0  0  0  0  0  0  0  0  # atno 6908 bound_to 6896
  152.5001  134.4212  159.9533 H   0  0  0  0  0  0  0  0  0  0  0  0  # atno 6909 bound_to 6896
  146.2158  140.3031  142.8377 H   0  0  0  0  0  0  0  0  0  0  0  0  # atno 7974 bound_to 7965
  155.6493  140.3497  155.4742 H   0  0  0  0  0  0  0  0  0  0  0  0  # atno 8008 bound_to 7997
  155.9861  140.1184  157.0705 H   0  0  0  0  0  0  0  0  0  0  0  0  # atno 8009 bound_to 7997
  154.4205  140.1128  156.5488 H   0  0  0  0  0  0  0  0  0  0  0  0  # atno 8010 bound_to 7997
  140.7254  143.4958  150.9933 H   0  0  0  0  0  0  0  0  0  0  0  0  # atno 10167 bound_to 10162
  156.3664  130.4332  149.7581 H   0  0  0  0  0  0  0  0  0  0  0  0  # atno 10718 bound_to 10713
  154.7382  135.3062  154.8774 H   0  0  0  0  0  0  0  0  0  0  0  0  # atno 10763 bound_to 10752
  153.9597  135.6754  153.4749 H   0  0  0  0  0  0  0  0  0  0  0  0  # atno 10764 bound_to 10752
  153.0983  135.4924  154.8743 H   0  0  0  0  0  0  0  0  0  0  0  0  # atno 10765 bound_to 10752
  141.0165  134.0188  157.3342 H   0  0  0  0  0  0  0  0  0  0  0  0  # atno 11005 bound_to 11000
  144.9042  140.7680  143.5848 LP  0  0  0  0  0  0  0  0  0  0  0  0  # atno 17320 bound_to 7965
  145.2959  139.1867  143.4715 LP  0  0  0  0  0  0  0  0  0  0  0  0  # atno 17321 bound_to 7965
  139.8665  143.7247  152.3170 LP  0  0  0  0  0  0  0  0  0  0  0  0  # atno 17342 bound_to 10162
  139.7481  144.7541  151.0548 LP  0  0  0  0  0  0  0  0  0  0  0  0  # atno 17343 bound_to 10162
  156.4726  130.8003  151.3021 LP  0  0  0  0  0  0  0  0  0  0  0  0  # atno 17370 bound_to 10713
  157.7479  131.0031  150.3026 LP  0  0  0  0  0  0  0  0  0  0  0  0  # atno 17371 bound_to 10713
  139.9120  135.0191  156.7730 LP  0  0  0  0  0  0  0  0  0  0  0  0  # atno 17394 bound_to 11000
  140.6646  133.9614  155.7823 LP  0  0  0  0  0  0  0  0  0  0  0  0  # atno 17395 bound_to 11000

$$$$
