AV-unprocessed.smi:1692|AV-procd|sdf|6781|dock1
  -GOLD-   22720 7543D 1   1.00000     0.00000
 Structure written by MMmdl.
 46 47  0  0  0  0  0  0  0  0  2 V2000
  144.7326  135.3641  151.0251 C   0  0  0  0  0  0  0  0  0  0  0  0
  145.7112  135.9090  152.0710 C   0  0  1  0  0  0  0  0  0  0  0  0
  145.9086  137.4297  151.9404 C   0  0  0  0  0  0  0  0  0  0  0  0
  146.7928  137.9327  153.0175 N   0  3  1  0  0  0  0  0  0  0  0  0
  147.0966  139.3781  152.8704 C   0  0  0  0  0  0  0  0  0  0  0  0
  148.0117  139.9085  153.9918 C   0  0  0  0  0  0  0  0  0  0  0  0
  148.7401  141.2188  153.6395 C   0  0  0  0  0  0  0  0  0  0  0  0
  149.1040  141.9964  154.8211 N   0  0  0  0  0  0  0  0  0  0  0  0
  150.1241  141.7218  155.6475 C   0  0  0  0  0  0  0  0  0  0  0  0
  150.8604  140.7440  155.5123 O   0  0  0  0  0  0  0  0  0  0  0  0
  150.2222  142.6408  156.6242 N   0  0  0  0  0  0  0  0  0  0  0  0
  151.1501  142.6826  157.6991 C   0  0  0  0  0  0  0  0  0  0  0  0
  151.5799  143.9773  158.0689 C   0  0  0  0  0  0  0  0  0  0  0  0
  152.5013  144.1265  159.1235 C   0  0  0  0  0  0  0  0  0  0  0  0
  152.9677  142.9760  159.7838 C   0  0  0  0  0  0  0  0  0  0  0  0
  152.4876  141.7248  159.3551 C   0  0  0  0  0  0  0  0  0  0  0  0
  151.6046  141.5794  158.3444 N   0  0  0  0  0  0  0  0  0  0  0  0
  146.2359  137.5750  154.3455 C   0  0  0  0  0  0  0  0  0  0  0  0
  145.9867  136.0575  154.4544 C   0  0  2  0  0  0  0  0  0  0  0  0
  147.2761  135.2317  154.6107 C   0  0  0  0  0  0  0  0  0  0  0  0
  145.1862  135.6083  153.3612 O   0  0  0  0  0  0  0  0  0  0  0  0
  145.0911  135.5563  150.0135 H   0  0  0  0  0  0  0  0  0  0  0  0
  143.7494  135.8249  151.1255 H   0  0  0  0  0  0  0  0  0  0  0  0
  144.6074  134.2865  151.1336 H   0  0  0  0  0  0  0  0  0  0  0  0
  146.6666  135.4022  151.9341 H   0  0  0  0  0  0  0  0  0  0  0  0
  146.3454  137.6567  150.9668 H   0  0  0  0  0  0  0  0  0  0  0  0
  144.9476  137.9450  151.9881 H   0  0  0  0  0  0  0  0  0  0  0  0
  147.6028  139.5256  151.9165 H   0  0  0  0  0  0  0  0  0  0  0  0
  146.1701  139.9520  152.8201 H   0  0  0  0  0  0  0  0  0  0  0  0
  147.4241  140.0902  154.8909 H   0  0  0  0  0  0  0  0  0  0  0  0
  148.7443  139.1458  154.2594 H   0  0  0  0  0  0  0  0  0  0  0  0
  149.6146  141.0143  153.0194 H   0  0  0  0  0  0  0  0  0  0  0  0
  148.0823  141.8413  153.0326 H   0  0  0  0  0  0  0  0  0  0  0  0
  148.5497  142.8190  155.0098 H   0  0  0  0  0  0  0  0  0  0  0  0
  149.5565  143.3987  156.5971 H   0  0  0  0  0  0  0  0  0  0  0  0
  151.2113  144.8509  157.5510 H   0  0  0  0  0  0  0  0  0  0  0  0
  152.8435  145.1070  159.4196 H   0  0  0  0  0  0  0  0  0  0  0  0
  153.6744  143.0500  160.5972 H   0  0  0  0  0  0  0  0  0  0  0  0
  152.8205  140.8167  159.8357 H   0  0  0  0  0  0  0  0  0  0  0  0
  146.9015  137.8927  155.1473 H   0  0  0  0  0  0  0  0  0  0  0  0
  145.2954  138.1090  154.4903 H   0  0  0  0  0  0  0  0  0  0  0  0
  145.3930  135.8838  155.3523 H   0  0  0  0  0  0  0  0  0  0  0  0
  147.7994  135.5040  155.5276 H   0  0  0  0  0  0  0  0  0  0  0  0
  147.9704  135.3854  153.7853 H   0  0  0  0  0  0  0  0  0  0  0  0
  147.0507  134.1663  154.6648 H   0  0  0  0  0  0  0  0  0  0  0  0
  147.6693  137.4409  152.9175 H   0  0  0  0  0  0  0  0  0  0  0  0
  1  2  1  0  0  0  0
  1 22  1  0  0  0  0
  1 23  1  0  0  0  0
  1 24  1  0  0  0  0
  2 21  1  0  0  0  0
  2  3  1  0  0  0  0
  2 25  1  0  0  0  0
  3  4  1  0  0  0  0
  3 26  1  0  0  0  0
  3 27  1  0  0  0  0
  4  5  1  0  0  0  0
  4 18  1  0  0  0  0
  4 46  1  0  0  0  0
  5  6  1  0  0  0  0
  5 28  1  0  0  0  0
  5 29  1  0  0  0  0
  6  7  1  0  0  0  0
  6 30  1  0  0  0  0
  6 31  1  0  0  0  0
  7  8  1  0  0  0  0
  7 32  1  0  0  0  0
  7 33  1  0  0  0  0
  8  9  1  0  0  0  0
  8 34  1  0  0  0  0
  9 10  2  0  0  0  0
  9 11  1  0  0  0  0
 11 12  1  0  0  0  0
 11 35  1  0  0  0  0
 12 17  1  0  0  0  0
 12 13  2  0  0  0  0
 13 14  1  0  0  0  0
 13 36  1  0  0  0  0
 14 15  2  0  0  0  0
 14 37  1  0  0  0  0
 15 16  1  0  0  0  0
 15 38  1  0  0  0  0
 16 17  2  0  0  0  0
 16 39  1  0  0  0  0
 18 19  1  0  0  0  0
 18 40  1  0  0  0  0
 18 41  1  0  0  0  0
 19 20  1  0  0  0  0
 19 21  1  0  0  0  0
 19 42  1  0  0  0  0
 20 43  1  0  0  0  0
 20 44  1  0  0  0  0
 20 45  1  0  0  0  0
M  CHG  1   4   1
M  END
> <s_m_source_file>
AV-unprocessed.smi

> <i_m_source_file_index>
1692

> <i_lp_mmshare_version>
43012

> <i_f3d_flags>
0

> <s_epik_input>
W0NIM11bQ0BASF0xW0NIMl1OKFtDSDJdW0NASF0oTzEpW0NIM10pW0NIMl1bQ0gyXVtDSDJdW05IXUMoPU8pW05IXWMyW2NIXVtjSF1bY0hdW2NIXW4y

> <s_epik_cmdline>
J2VwaWtfcHl0aG9uJywgJy1waCcsICc3LjAnLCAnLXRuJywgJzgnLCAnLW1hJywgJzIwMCcsICctbWV0YWxfYmluZGluZycsICctaW1hZScsICc8aW5maWxlLm1hZT4nLCAnLW9tYWUnLCAnPG91dGZpbGUubWFlPic=

> <r_epik_Ionization_Penalty>
0.270538

> <r_epik_Ionization_Penalty_Charging>
0.270496

> <r_epik_Ionization_Penalty_Neutral>
4.22978e-05

> <r_epik_State_Penalty>
0.262618

> <r_epik_Charging_Adjusted_Penalty>
0.533114

> <i_epik_Tot_Q>
1

> <i_epik_Tot_abs_Q>
1

> <r_epik_Metal_State_Penalty>
0.262618

> <b_epik_Metal_Only>
0

> <s_lp_Force_Field>
OPLS_2005

> <r_lp_Energy>
21.4343

> <b_lp_Chiralities_Consistent>
1

> <s_lp_Variant>
AV-unprocessed.smi:1692-4

> <Gold.Version>
5.8.1

> <Gold.Id.Protein>
6NUR|6NUR_protein|mol2

> <Gold.PLP.Fitness>
49.6829

> <Gold.PLP.PLP>
-37.0614

> <Gold.PLP.part.hbond>
-4.0000

> <Gold.PLP.part.metal>
0.0000

> <Gold.PLP.part.buried>
1.9759

> <Gold.PLP.part.nonpolar>
-33.7973

> <Gold.PLP.part.repulsive>
0.4193

> <Gold.PLP.ligand.clash>
0.0000

> <Gold.PLP.ligand.torsion>
0.6115

> <Gold.PLP.Chemscore.Hbond>
4.5712

> <Gold.PLP.Chemscore.CHOScore>
0.0000

> <Gold.PLP.Chemscore.Metal>
0.0000

> <Gold.Chemscore.Hbonds>
donor molecule, donor type, donor heavy atom, donor atom, acceptor molecule, acceptor atom, score
      L1  H     4    46       P1  7948  1.92
      L1  H     8    34       P1  8028  0.75
      L1  H    11    35       P1  8028  0.94
      P1  H  7989  7998       L1    10  0.58

> <Gold.PLP.Chemscore.Internal.Correction>
0.1309

> <Gold.Rescore>
     Score         DG    S(hbond)    S(metal)    S(lipo)     H(rot)  DE(clash)    DE(int)     intcor
     19.67     -21.61       2.99        0.00      91.57       1.78       0.56       1.38       ----

> <Gold.Chemscore.Fitness>
19.6718

> <Gold.Chemscore.DG>
-21.6081

> <Gold.Chemscore.ZeroCoef>
-5.4800

> <Gold.Chemscore.Hbond>
2.9865

> <Gold.Chemscore.Metal>
0.0000

> <Gold.Chemscore.Lipo>
91.5690

> <Gold.Chemscore.Internal_Hbond>
0.0000

> <Gold.Chemscore.DEClash>
0.5613

> <Gold.Chemscore.DEInternal>
1.3751

> <Gold.Chemscore.Rot>
1.7814

> <Gold.Chemscore.Internal.Correction>
   9.000000E+99

> <Gold.Chemscore.Hbonds>
donor molecule, donor type, donor heavy atom, donor atom, acceptor molecule, acceptor atom, score
      L1  H     4    46       P1  7948  0.86
      L1  H     8    34       P1  8028  0.72
      L1  H    11    35       P1  8028  0.91
      P1  H  7989  7998       L1    10  0.29

> <Gold.Chemscore.Hbond.Weighted>
-9.9749

> <Gold.Chemscore.Metal.Weighted>
-0.0000

> <Gold.Chemscore.Lipo.Weighted>
-10.7136

> <Gold.Chemscore.Internal_Hbond.Weighted>
0.0000

> <Gold.Chemscore.DEClash.Weighted>
0.5613

> <Gold.Chemscore.DEInternal.Weighted>
1.3751

> <Gold.Chemscore.Rot.Weighted>
4.5603

> <Gold.Chemscore.Internal.Correction.Weighted>
   9.000000E+99

> <Gold.Protein.RotatedTorsions>
[ 6907 6896 6895 6894 ] final  179.36 input  -60.11 | X-H torsion
[ 7974 7965 7964 7962 ] final  116.60 input  175.53 | X-H torsion
[ 8008 7997 7996 7995 ] final  -83.91 input   59.86 | X-H torsion
[ 10167 10162 10161 10158 ] final -146.13 input  -65.29 | X-H torsion
[ 10718 10713 10712 10709 ] final  157.13 input   66.30 | X-H torsion
[ 10763 10752 10751 10750 ] final  -49.75 input  -60.55 | X-H torsion
[ 11005 11000 10999 10996 ] final  152.71 input  -57.11 | X-H torsion

> <Gold.Protein.ActiveResidues>
 VAL166  LYS551  ARG553  GLY616  TRP617  ASP618  TYR619  PRO620  LYS621  CYS622 
 ASP623  PHE694  ASN695  SER759  ASP760  ASP761  ALA762  ILE779  LEU786  VAL792 
 PHE793  MET794  SER795  GLU796  ALA797  LYS798  CYS799  TRP800  GLU811  SER814 

> <Gold.Protein.RotatedAtoms>
  151.6730  133.3313  159.3200 H   0  0  0  0  0  0  0  0  0  0  0  0  # atno 6907 bound_to 6896
  150.7859  134.6846  159.6472 H   0  0  0  0  0  0  0  0  0  0  0  0  # atno 6908 bound_to 6896
  152.3928  134.6417  160.0153 H   0  0  0  0  0  0  0  0  0  0  0  0  # atno 6909 bound_to 6896
  145.1777  139.3067  143.4434 H   0  0  0  0  0  0  0  0  0  0  0  0  # atno 7974 bound_to 7965
  154.6241  140.0612  156.9651 H   0  0  0  0  0  0  0  0  0  0  0  0  # atno 8008 bound_to 7997
  155.1770  140.3296  155.4363 H   0  0  0  0  0  0  0  0  0  0  0  0  # atno 8009 bound_to 7997
  156.2447  140.1904  156.6869 H   0  0  0  0  0  0  0  0  0  0  0  0  # atno 8010 bound_to 7997
  139.7742  143.8194  152.2629 H   0  0  0  0  0  0  0  0  0  0  0  0  # atno 10167 bound_to 10162
  157.1957  131.0665  151.2054 H   0  0  0  0  0  0  0  0  0  0  0  0  # atno 10718 bound_to 10713
  154.0991  135.6566  153.4865 H   0  0  0  0  0  0  0  0  0  0  0  0  # atno 10763 bound_to 10752
  153.0295  135.5221  154.7304 H   0  0  0  0  0  0  0  0  0  0  0  0  # atno 10764 bound_to 10752
  154.6451  135.2993  155.0025 H   0  0  0  0  0  0  0  0  0  0  0  0  # atno 10765 bound_to 10752
  140.1332  134.8788  157.2232 H   0  0  0  0  0  0  0  0  0  0  0  0  # atno 11005 bound_to 11000
  146.3458  140.1945  142.8589 LP  0  0  0  0  0  0  0  0  0  0  0  0  # atno 17320 bound_to 7965
  145.0168  140.8760  143.5191 LP  0  0  0  0  0  0  0  0  0  0  0  0  # atno 17321 bound_to 7965
  139.8237  144.7284  150.9539 LP  0  0  0  0  0  0  0  0  0  0  0  0  # atno 17342 bound_to 10162
  140.7815  143.4134  151.0955 LP  0  0  0  0  0  0  0  0  0  0  0  0  # atno 17343 bound_to 10162
  157.3817  130.7235  149.6635 LP  0  0  0  0  0  0  0  0  0  0  0  0  # atno 17370 bound_to 10713
  155.9706  130.4171  150.4261 LP  0  0  0  0  0  0  0  0  0  0  0  0  # atno 17371 bound_to 10713
  140.2816  134.3344  155.7341 LP  0  0  0  0  0  0  0  0  0  0  0  0  # atno 17394 bound_to 11000
  141.2174  133.7481  156.9371 LP  0  0  0  0  0  0  0  0  0  0  0  0  # atno 17395 bound_to 11000

$$$$
