AV-unprocessed.smi:2990|AV-procd|sdf|11394|dock8
  -GOLD-   2272016313D 1   1.00000     0.00000
 Structure written by MMmdl.
 39 41  0  0  0  0  0  0  0  0  1 V2000
  147.0070  139.5071  156.3856 C   0  0  0  0  0  0  0  0  0  0  0  0
  146.3959  140.7614  155.8467 C   0  0  0  0  0  0  0  0  0  0  0  0
  145.3702  141.3661  156.4472 N   0  0  0  0  0  0  0  0  0  0  0  0
  145.1366  142.4526  155.6265 C   0  0  0  0  0  0  0  0  0  0  0  0
  144.1760  143.4851  155.7199 C   0  0  0  0  0  0  0  0  0  0  0  0
  144.1273  144.5050  154.7470 C   0  0  0  0  0  0  0  0  0  0  0  0
  145.0357  144.5072  153.6687 C   0  0  0  0  0  0  0  0  0  0  0  0
  146.0009  143.4879  153.5568 C   0  0  0  0  0  0  0  0  0  0  0  0
  146.0456  142.4727  154.5309 C   0  0  0  0  0  0  0  0  0  0  0  0
  146.8501  141.3529  154.7142 N   0  0  0  0  0  0  0  0  0  0  0  0
  147.9424  140.9294  153.8492 C   0  0  0  0  0  0  0  0  0  0  0  0
  149.2110  140.5551  154.6426 C   0  0  1  0  0  0  0  0  0  0  0  0
  150.2231  140.0444  153.7977 O   0  0  0  0  0  0  0  0  0  0  0  0
  149.7801  141.7145  155.4770 C   0  0  0  0  0  0  0  0  0  0  0  0
  150.6508  141.2081  156.4813 O   0  0  0  0  0  0  0  0  0  0  0  0
  151.3313  142.1075  157.2732 C   0  0  0  0  0  0  0  0  0  0  0  0
  152.0881  141.5758  158.3380 C   0  0  0  0  0  0  0  0  0  0  0  0
  152.8180  142.4202  159.1963 C   0  0  0  0  0  0  0  0  0  0  0  0
  152.7966  143.8129  158.9977 C   0  0  0  0  0  0  0  0  0  0  0  0
  152.0442  144.3576  157.9404 C   0  0  0  0  0  0  0  0  0  0  0  0
  151.3150  143.5125  157.0809 C   0  0  0  0  0  0  0  0  0  0  0  0
  146.5624  139.2469  157.3467 H   0  0  0  0  0  0  0  0  0  0  0  0
  148.0799  139.6368  156.5295 H   0  0  0  0  0  0  0  0  0  0  0  0
  146.8398  138.6807  155.6946 H   0  0  0  0  0  0  0  0  0  0  0  0
  143.4754  143.4920  156.5416 H   0  0  0  0  0  0  0  0  0  0  0  0
  143.3894  145.2895  154.8286 H   0  0  0  0  0  0  0  0  0  0  0  0
  144.9911  145.2920  152.9280 H   0  0  0  0  0  0  0  0  0  0  0  0
  146.6991  143.4862  152.7329 H   0  0  0  0  0  0  0  0  0  0  0  0
  147.6119  140.0957  153.2299 H   0  0  0  0  0  0  0  0  0  0  0  0
  148.1643  141.7466  153.1618 H   0  0  0  0  0  0  0  0  0  0  0  0
  148.9620  139.7474  155.3317 H   0  0  0  0  0  0  0  0  0  0  0  0
  149.8144  139.6619  153.0363 H   0  0  0  0  0  0  0  0  0  0  0  0
  150.3450  142.3739  154.8159 H   0  0  0  0  0  0  0  0  0  0  0  0
  148.9707  142.3000  155.9170 H   0  0  0  0  0  0  0  0  0  0  0  0
  152.1097  140.5076  158.4982 H   0  0  0  0  0  0  0  0  0  0  0  0
  153.3942  141.9986  160.0070 H   0  0  0  0  0  0  0  0  0  0  0  0
  153.3557  144.4621  159.6554 H   0  0  0  0  0  0  0  0  0  0  0  0
  152.0266  145.4266  157.7874 H   0  0  0  0  0  0  0  0  0  0  0  0
  150.7503  143.9675  156.2814 H   0  0  0  0  0  0  0  0  0  0  0  0
  1  2  1  0  0  0  0
  1 22  1  0  0  0  0
  1 23  1  0  0  0  0
  1 24  1  0  0  0  0
  2 10  1  0  0  0  0
  2  3  2  0  0  0  0
  3  4  1  0  0  0  0
  4  9  2  0  0  0  0
  4  5  1  0  0  0  0
  5  6  2  0  0  0  0
  5 25  1  0  0  0  0
  6  7  1  0  0  0  0
  6 26  1  0  0  0  0
  7  8  2  0  0  0  0
  7 27  1  0  0  0  0
  8  9  1  0  0  0  0
  8 28  1  0  0  0  0
  9 10  1  0  0  0  0
 10 11  1  0  0  0  0
 11 12  1  0  0  0  0
 11 29  1  0  0  0  0
 11 30  1  0  0  0  0
 12 13  1  0  0  0  0
 12 14  1  0  0  0  0
 12 31  1  0  0  0  0
 13 32  1  0  0  0  0
 14 15  1  0  0  0  0
 14 33  1  0  0  0  0
 14 34  1  0  0  0  0
 15 16  1  0  0  0  0
 16 21  1  0  0  0  0
 16 17  2  0  0  0  0
 17 18  1  0  0  0  0
 17 35  1  0  0  0  0
 18 19  2  0  0  0  0
 18 36  1  0  0  0  0
 19 20  1  0  0  0  0
 19 37  1  0  0  0  0
 20 21  2  0  0  0  0
 20 38  1  0  0  0  0
 21 39  1  0  0  0  0
M  END
> <s_m_source_file>
AV-unprocessed.smi

> <i_m_source_file_index>
2990

> <i_lp_mmshare_version>
43012

> <i_f3d_flags>
0

> <s_epik_input>
W2NIXTFbY0hdW2NIXVtjSF1jKGMxMiluKGMobjIpW0NIM10pW0NIMl1bQ0BIXShbT0hdKVtDSDJdT2MzW2NIXVtjSF1bY0hdW2NIXVtjSF0z

> <s_epik_cmdline>
J2VwaWtfcHl0aG9uJywgJy1waCcsICc3LjAnLCAnLXRuJywgJzgnLCAnLW1hJywgJzIwMCcsICctbWV0YWxfYmluZGluZycsICctaW1hZScsICc8aW5maWxlLm1hZT4nLCAnLW9tYWUnLCAnPG91dGZpbGUubWFlPic=

> <r_lp_tautomer_probability>
1

> <r_epik_Ionization_Penalty>
0.119634

> <r_epik_Ionization_Penalty_Charging>
0

> <r_epik_Ionization_Penalty_Neutral>
0.119634

> <r_epik_State_Penalty>
0.10919

> <r_epik_Charging_Adjusted_Penalty>
0.10919

> <i_epik_Tot_Q>
0

> <i_epik_Tot_abs_Q>
0

> <r_epik_Metal_State_Penalty>
0.000119887

> <b_epik_Metal_Only>
0

> <s_lp_Force_Field>
OPLS_2005

> <r_lp_Energy>
16.8637

> <b_lp_Chiralities_Consistent>
1

> <s_lp_Variant>
AV-unprocessed.smi:2990-2

> <Gold.Version>
5.8.1

> <Gold.Id.Protein>
6NUR|6NUR_protein|mol2

> <Gold.PLP.Fitness>
49.2114

> <Gold.PLP.PLP>
-44.8475

> <Gold.PLP.part.hbond>
-1.9813

> <Gold.PLP.part.metal>
0.0000

> <Gold.PLP.part.buried>
-3.2561

> <Gold.PLP.part.nonpolar>
-38.6530

> <Gold.PLP.part.repulsive>
0.0830

> <Gold.PLP.ligand.clash>
0.0343

> <Gold.PLP.ligand.torsion>
0.3269

> <Gold.PLP.Chemscore.Hbond>
1.6640

> <Gold.PLP.Chemscore.CHOScore>
0.0000

> <Gold.PLP.Chemscore.Metal>
0.0000

> <Gold.Chemscore.Hbonds>
donor molecule, donor type, donor heavy atom, donor atom, acceptor molecule, acceptor atom, score
      L1  H    13    32       P1  7957  0.77
      P1  H  7989  7998       L1    13  0.86

> <Gold.PLP.Chemscore.Internal.Correction>
0.0600

> <Gold.Rescore>
     Score         DG    S(hbond)    S(metal)    S(lipo)     H(rot)  DE(clash)    DE(int)     intcor
     17.26     -17.62       0.97        0.00     120.69       2.04       0.17       0.18       ----

> <Gold.Chemscore.Fitness>
17.2623

> <Gold.Chemscore.DG>
-17.6151

> <Gold.Chemscore.ZeroCoef>
-5.4800

> <Gold.Chemscore.Hbond>
0.9663

> <Gold.Chemscore.Metal>
0.0000

> <Gold.Chemscore.Lipo>
120.6856

> <Gold.Chemscore.Internal_Hbond>
0.0000

> <Gold.Chemscore.DEClash>
0.1728

> <Gold.Chemscore.DEInternal>
0.1800

> <Gold.Chemscore.Rot>
2.0361

> <Gold.Chemscore.Internal.Correction>
   9.000000E+99

> <Gold.Chemscore.Hbonds>
donor molecule, donor type, donor heavy atom, donor atom, acceptor molecule, acceptor atom, score
      L1  H    13    32       P1  7957  0.77
      P1  H  7989  7998       L1    13  0.74

> <Gold.Chemscore.Hbond.Weighted>
-3.2273

> <Gold.Chemscore.Metal.Weighted>
-0.0000

> <Gold.Chemscore.Lipo.Weighted>
-14.1202

> <Gold.Chemscore.Internal_Hbond.Weighted>
0.0000

> <Gold.Chemscore.DEClash.Weighted>
0.1728

> <Gold.Chemscore.DEInternal.Weighted>
0.1800

> <Gold.Chemscore.Rot.Weighted>
5.2124

> <Gold.Chemscore.Internal.Correction.Weighted>
   9.000000E+99

> <Gold.Protein.RotatedTorsions>
[ 6907 6896 6895 6894 ] final   -9.49 input  -60.11 | X-H torsion
[ 7974 7965 7964 7962 ] final  165.82 input  175.53 | X-H torsion
[ 8008 7997 7996 7995 ] final   82.82 input   59.86 | X-H torsion
[ 10167 10162 10161 10158 ] final   42.89 input  -65.29 | X-H torsion
[ 10718 10713 10712 10709 ] final -146.39 input   66.30 | X-H torsion
[ 10763 10752 10751 10750 ] final  166.30 input  -60.55 | X-H torsion
[ 11005 11000 10999 10996 ] final -175.71 input  -57.11 | X-H torsion

> <Gold.Protein.ActiveResidues>
 VAL166  LYS551  ARG553  GLY616  TRP617  ASP618  TYR619  PRO620  LYS621  CYS622 
 ASP623  PHE694  ASN695  SER759  ASP760  ASP761  ALA762  ILE779  LEU786  VAL792 
 PHE793  MET794  SER795  GLU796  ALA797  LYS798  CYS799  TRP800  GLU811  SER814 

> <Gold.Protein.RotatedAtoms>
  151.4169  135.0993  159.9601 H   0  0  0  0  0  0  0  0  0  0  0  0  # atno 6907 bound_to 6896
  152.5001  133.8744  159.7325 H   0  0  0  0  0  0  0  0  0  0  0  0  # atno 6908 bound_to 6896
  150.9251  133.6776  159.2851 H   0  0  0  0  0  0  0  0  0  0  0  0  # atno 6909 bound_to 6896
  144.7487  139.8525  143.6373 H   0  0  0  0  0  0  0  0  0  0  0  0  # atno 7974 bound_to 7965
  155.9157  140.3424  155.6133 H   0  0  0  0  0  0  0  0  0  0  0  0  # atno 8008 bound_to 7997
  155.7334  140.0798  157.2297 H   0  0  0  0  0  0  0  0  0  0  0  0  # atno 8009 bound_to 7997
  154.4062  140.1584  156.2522 H   0  0  0  0  0  0  0  0  0  0  0  0  # atno 8010 bound_to 7997
  140.3499  144.2364  150.6147 H   0  0  0  0  0  0  0  0  0  0  0  0  # atno 10167 bound_to 10162
  156.3944  130.7902  151.2107 H   0  0  0  0  0  0  0  0  0  0  0  0  # atno 10718 bound_to 10713
  154.3369  135.2754  155.2443 H   0  0  0  0  0  0  0  0  0  0  0  0  # atno 10763 bound_to 10752
  154.4730  135.5878  153.6338 H   0  0  0  0  0  0  0  0  0  0  0  0  # atno 10764 bound_to 10752
  152.9861  135.6093  154.3567 H   0  0  0  0  0  0  0  0  0  0  0  0  # atno 10765 bound_to 10752
  140.4602  134.6261  157.4839 H   0  0  0  0  0  0  0  0  0  0  0  0  # atno 11005 bound_to 11000
  146.1406  139.4461  143.0111 LP  0  0  0  0  0  0  0  0  0  0  0  0  # atno 17320 bound_to 7965
  145.7024  141.0132  143.1497 LP  0  0  0  0  0  0  0  0  0  0  0  0  # atno 17321 bound_to 7965
  140.5229  143.2261  151.8360 LP  0  0  0  0  0  0  0  0  0  0  0  0  # atno 17342 bound_to 10162
  139.4828  144.4814  151.9301 LP  0  0  0  0  0  0  0  0  0  0  0  0  # atno 17343 bound_to 10162
  157.7501  131.0306  150.4144 LP  0  0  0  0  0  0  0  0  0  0  0  0  # atno 17370 bound_to 10713
  156.4411  130.3992  149.6697 LP  0  0  0  0  0  0  0  0  0  0  0  0  # atno 17371 bound_to 10713
  139.9950  134.6925  155.9625 LP  0  0  0  0  0  0  0  0  0  0  0  0  # atno 17394 bound_to 11000
  141.1624  133.6538  156.4365 LP  0  0  0  0  0  0  0  0  0  0  0  0  # atno 17395 bound_to 11000

$$$$
