AV-unprocessed.smi:200|AV-procd|sdf|1576|dock5
  -GOLD-   2262019453D 1   1.00000     0.00000
 Structure written by MMmdl.
 56 59  0  0  0  0  0  0  0  0  1 V2000
  150.9541  138.2999  154.0473 C   0  0  0  0  0  0  0  0  0  0  0  0
  150.8947  139.5478  154.7156 O   0  0  0  0  0  0  0  0  0  0  0  0
  151.8436  139.6488  155.7635 C   0  0  0  0  0  0  0  0  0  0  0  0
  151.5815  140.9513  156.5367 C   0  0  0  0  0  0  0  0  0  0  0  0
  151.9696  140.8759  157.9486 N   0  0  0  0  0  0  0  0  0  0  0  0
  151.8610  139.6648  158.5445 C   0  0  0  0  0  0  0  0  0  0  0  0
  150.7664  138.9244  158.2387 N   0  0  0  0  0  0  0  0  0  0  0  0
  150.6027  137.7150  158.7819 C   0  0  0  0  0  0  0  0  0  0  0  0
  151.4026  137.0659  159.6300 N   0  0  0  0  0  0  0  0  0  0  0  0
  152.5119  137.8006  159.9292 C   0  0  0  0  0  0  0  0  0  0  0  0
  152.8164  139.1024  159.4391 C   0  0  0  0  0  0  0  0  0  0  0  0
  154.0314  139.5298  159.9610 N   0  0  0  0  0  0  0  0  0  0  0  0
  154.4186  138.5425  160.7205 C   0  0  0  0  0  0  0  0  0  0  0  0
  153.5739  137.4557  160.7474 N   0  0  0  0  0  0  0  0  0  0  0  0
  153.7738  136.2226  161.4935 C   0  0  0  0  0  0  0  0  0  0  0  0
  154.1193  136.4334  162.9831 C   0  0  0  0  0  0  0  0  0  0  0  0
  152.8854  136.9045  163.7736 C   0  0  0  0  0  0  0  0  0  0  0  0
  153.1287  136.8946  165.1659 O   0  0  0  0  0  0  0  0  0  0  0  0
  154.9145  135.3023  163.6497 C   0  0  0  0  0  0  0  0  0  0  0  0
  155.9019  136.2219  164.1616 O   0  0  0  0  0  0  0  0  0  0  0  0
  155.3962  137.2372  163.2698 C   0  0  0  0  0  0  0  0  0  0  0  0
  151.6272  141.9741  158.8580 C   0  0  2  0  0  0  0  0  0  0  0  0
  151.7275  143.3750  158.2412 C   0  0  0  0  0  0  0  0  0  0  0  0
  151.8140  144.2850  159.4627 C   0  0  0  0  0  0  0  0  0  0  0  0
  152.7136  143.5162  160.4395 C   0  0  1  0  0  0  0  0  0  0  0  0
  152.5084  143.9137  161.9074 C   0  0  0  0  0  0  0  0  0  0  0  0
  152.4572  142.0242  160.1542 C   0  0  0  0  0  0  0  0  0  0  0  0
  150.2042  138.2720  153.2569 H   0  0  0  0  0  0  0  0  0  0  0  0
  150.7524  137.4751  154.7320 H   0  0  0  0  0  0  0  0  0  0  0  0
  151.9316  138.1442  153.5892 H   0  0  0  0  0  0  0  0  0  0  0  0
  151.7582  138.7810  156.4191 H   0  0  0  0  0  0  0  0  0  0  0  0
  152.8539  139.6555  155.3516 H   0  0  0  0  0  0  0  0  0  0  0  0
  152.1335  141.7563  156.0543 H   0  0  0  0  0  0  0  0  0  0  0  0
  150.5308  141.2243  156.4491 H   0  0  0  0  0  0  0  0  0  0  0  0
  149.7038  137.1908  158.4927 H   0  0  0  0  0  0  0  0  0  0  0  0
  155.3455  138.5736  161.2746 H   0  0  0  0  0  0  0  0  0  0  0  0
  152.8723  135.6165  161.3949 H   0  0  0  0  0  0  0  0  0  0  0  0
  154.5600  135.6548  160.9943 H   0  0  0  0  0  0  0  0  0  0  0  0
  152.6167  137.9231  163.4909 H   0  0  0  0  0  0  0  0  0  0  0  0
  152.0089  136.2936  163.5569 H   0  0  0  0  0  0  0  0  0  0  0  0
  154.0516  137.0386  165.3105 H   0  0  0  0  0  0  0  0  0  0  0  0
  154.3736  134.7827  164.4417 H   0  0  0  0  0  0  0  0  0  0  0  0
  155.3499  134.5918  162.9451 H   0  0  0  0  0  0  0  0  0  0  0  0
  156.0490  137.3666  162.4057 H   0  0  0  0  0  0  0  0  0  0  0  0
  155.2205  138.1901  163.7705 H   0  0  0  0  0  0  0  0  0  0  0  0
  150.5892  141.8479  159.1731 H   0  0  0  0  0  0  0  0  0  0  0  0
  152.6366  143.4837  157.6493 H   0  0  0  0  0  0  0  0  0  0  0  0
  150.8793  143.6128  157.5985 H   0  0  0  0  0  0  0  0  0  0  0  0
  152.2072  145.2729  159.2209 H   0  0  0  0  0  0  0  0  0  0  0  0
  150.8186  144.4181  159.8887 H   0  0  0  0  0  0  0  0  0  0  0  0
  153.7488  143.7292  160.1680 H   0  0  0  0  0  0  0  0  0  0  0  0
  151.4830  143.7283  162.2286 H   0  0  0  0  0  0  0  0  0  0  0  0
  152.7190  144.9726  162.0580 H   0  0  0  0  0  0  0  0  0  0  0  0
  153.1705  143.3467  162.5625 H   0  0  0  0  0  0  0  0  0  0  0  0
  151.9013  141.5479  160.9629 H   0  0  0  0  0  0  0  0  0  0  0  0
  153.4051  141.4928  160.0762 H   0  0  0  0  0  0  0  0  0  0  0  0
  1  2  1  0  0  0  0
  1 28  1  0  0  0  0
  1 29  1  0  0  0  0
  1 30  1  0  0  0  0
  2  3  1  0  0  0  0
  3  4  1  0  0  0  0
  3 31  1  0  0  0  0
  3 32  1  0  0  0  0
  4  5  1  0  0  0  0
  4 33  1  0  0  0  0
  4 34  1  0  0  0  0
  5  6  1  0  0  0  0
  5 22  1  0  0  0  0
  6 11  1  0  0  0  0
  6  7  2  0  0  0  0
  7  8  1  0  0  0  0
  8  9  2  0  0  0  0
  8 35  1  0  0  0  0
  9 10  1  0  0  0  0
 10 14  1  0  0  0  0
 10 11  2  0  0  0  0
 11 12  1  0  0  0  0
 12 13  2  0  0  0  0
 13 14  1  0  0  0  0
 13 36  1  0  0  0  0
 14 15  1  0  0  0  0
 15 16  1  0  0  0  0
 15 37  1  0  0  0  0
 15 38  1  0  0  0  0
 16 21  1  0  0  0  0
 16 17  1  0  0  0  0
 16 19  1  0  0  0  0
 17 18  1  0  0  0  0
 17 39  1  0  0  0  0
 17 40  1  0  0  0  0
 18 41  1  0  0  0  0
 19 20  1  0  0  0  0
 19 42  1  0  0  0  0
 19 43  1  0  0  0  0
 20 21  1  0  0  0  0
 21 44  1  0  0  0  0
 21 45  1  0  0  0  0
 22 27  1  0  0  0  0
 22 23  1  0  0  0  0
 22 46  1  0  0  0  0
 23 24  1  0  0  0  0
 23 47  1  0  0  0  0
 23 48  1  0  0  0  0
 24 25  1  0  0  0  0
 24 49  1  0  0  0  0
 24 50  1  0  0  0  0
 25 26  1  0  0  0  0
 25 27  1  0  0  0  0
 25 51  1  0  0  0  0
 26 52  1  0  0  0  0
 26 53  1  0  0  0  0
 26 54  1  0  0  0  0
 27 55  1  0  0  0  0
 27 56  1  0  0  0  0
M  END
> <s_m_source_file>
AV-unprocessed.smi

> <i_m_source_file_index>
200

> <i_lp_mmshare_version>
43012

> <i_f3d_flags>
0

> <s_epik_input>
W0NIM11bQ0BASF0oW0NIMl0xKVtDSDJdW0NIMl1bQ0BIXTFOKFtDSDJdW0NIMl1PW0NIM10pYyhuW2NIXW4yKWMoYzIzKW5bY0hdbjNbQ0gyXUM0KFtDSDJdW09IXSlbQ0gyXU9bQ0gyXTQ=

> <s_epik_cmdline>
J2VwaWtfcHl0aG9uJywgJy1waCcsICc3LjAnLCAnLXRuJywgJzgnLCAnLW1hJywgJzIwMCcsICctbWV0YWxfYmluZGluZycsICctaW1hZScsICc8aW5maWxlLm1hZT4nLCAnLW9tYWUnLCAnPG91dGZpbGUubWFlPic=

> <r_lp_tautomer_probability>
1

> <r_epik_Ionization_Penalty>
0.00363087

> <r_epik_Ionization_Penalty_Charging>
0

> <r_epik_Ionization_Penalty_Neutral>
0.00363087

> <r_epik_State_Penalty>
0.0024341

> <r_epik_Charging_Adjusted_Penalty>
0.0024341

> <i_epik_Tot_Q>
0

> <i_epik_Tot_abs_Q>
0

> <r_epik_Metal_State_Penalty>
-0

> <b_epik_Metal_Only>
0

> <s_lp_Force_Field>
OPLS_2005

> <r_lp_Energy>
49.2687

> <b_lp_Chiralities_Consistent>
1

> <s_lp_Variant>
AV-unprocessed.smi:200-1

> <Gold.Version>
5.8.1

> <Gold.Id.Protein>
6NUR|6NUR_protein|mol2

> <Gold.PLP.Fitness>
56.4287

> <Gold.PLP.PLP>
-52.0496

> <Gold.PLP.part.hbond>
-3.9532

> <Gold.PLP.part.metal>
0.0000

> <Gold.PLP.part.buried>
-8.3582

> <Gold.PLP.part.nonpolar>
-38.7528

> <Gold.PLP.part.repulsive>
0.1107

> <Gold.PLP.ligand.clash>
0.0000

> <Gold.PLP.ligand.torsion>
1.5042

> <Gold.PLP.Chemscore.Hbond>
2.0000

> <Gold.PLP.Chemscore.CHOScore>
0.0000

> <Gold.PLP.Chemscore.Metal>
0.0000

> <Gold.Chemscore.Hbonds>
donor molecule, donor type, donor heavy atom, donor atom, acceptor molecule, acceptor atom, score
      P1  H  6896  6907       L1     9  1.00
      P1  H  6924  6935       L1    18  0.27
      P1  H  7989  7998       L1     2  0.95

> <Gold.PLP.Chemscore.Internal.Correction>
1.3875

> <Gold.Rescore>
     Score         DG    S(hbond)    S(metal)    S(lipo)     H(rot)  DE(clash)    DE(int)     intcor
     12.04     -17.62       1.80        0.00     124.13       3.28       1.96       3.62       ----

> <Gold.Chemscore.Fitness>
12.0436

> <Gold.Chemscore.DG>
-17.6198

> <Gold.Chemscore.ZeroCoef>
-5.4800

> <Gold.Chemscore.Hbond>
1.7973

> <Gold.Chemscore.Metal>
0.0000

> <Gold.Chemscore.Lipo>
124.1342

> <Gold.Chemscore.Internal_Hbond>
0.0000

> <Gold.Chemscore.DEClash>
1.9558

> <Gold.Chemscore.DEInternal>
3.6205

> <Gold.Chemscore.Rot>
3.2761

> <Gold.Chemscore.Internal.Correction>
   9.000000E+99

> <Gold.Chemscore.Hbonds>
donor molecule, donor type, donor heavy atom, donor atom, acceptor molecule, acceptor atom, score
      P1  H  6896  6907       L1     9  0.92
      P1  H  6924  6935       L1    18  0.24
      P1  H  7989  7998       L1     2  0.12

> <Gold.Chemscore.Hbond.Weighted>
-6.0030

> <Gold.Chemscore.Metal.Weighted>
-0.0000

> <Gold.Chemscore.Lipo.Weighted>
-14.5237

> <Gold.Chemscore.Internal_Hbond.Weighted>
0.0000

> <Gold.Chemscore.DEClash.Weighted>
1.9558

> <Gold.Chemscore.DEInternal.Weighted>
3.6205

> <Gold.Chemscore.Rot.Weighted>
8.3868

> <Gold.Chemscore.Internal.Correction.Weighted>
   9.000000E+99

> <Gold.Protein.RotatedTorsions>
[ 6907 6896 6895 6894 ] final   -2.17 input  -60.11 | X-H torsion
[ 7974 7965 7964 7962 ] final  101.53 input  175.53 | X-H torsion
[ 8008 7997 7996 7995 ] final   -4.90 input   59.86 | X-H torsion
[ 10167 10162 10161 10158 ] final -101.20 input  -65.29 | X-H torsion
[ 10718 10713 10712 10709 ] final  -18.34 input   66.30 | X-H torsion
[ 10763 10752 10751 10750 ] final   46.99 input  -60.55 | X-H torsion
[ 11005 11000 10999 10996 ] final   17.87 input  -57.11 | X-H torsion

> <Gold.Protein.ActiveResidues>
 VAL166  LYS551  ARG553  GLY616  TRP617  ASP618  TYR619  PRO620  LYS621  CYS622 
 ASP623  PHE694  ASN695  SER759  ASP760  ASP761  ALA762  ILE779  LEU786  VAL792 
 PHE793  MET794  SER795  GLU796  ALA797  LYS798  CYS799  TRP800  GLU811  SER814 

> <Gold.Protein.RotatedAtoms>
  151.5342  135.1068  159.9909 H   0  0  0  0  0  0  0  0  0  0  0  0  # atno 6907 bound_to 6896
  152.4565  133.7729  159.6819 H   0  0  0  0  0  0  0  0  0  0  0  0  # atno 6908 bound_to 6896
  150.8510  133.7721  159.3050 H   0  0  0  0  0  0  0  0  0  0  0  0  # atno 6909 bound_to 6896
  145.3711  139.2398  143.3455 H   0  0  0  0  0  0  0  0  0  0  0  0  # atno 7974 bound_to 7965
  154.6095  140.2472  155.7688 H   0  0  0  0  0  0  0  0  0  0  0  0  # atno 8008 bound_to 7997
  156.2361  140.2949  156.0268 H   0  0  0  0  0  0  0  0  0  0  0  0  # atno 8009 bound_to 7997
  155.2076  140.0396  157.2918 H   0  0  0  0  0  0  0  0  0  0  0  0  # atno 8010 bound_to 7997
  140.2438  143.3520  152.0777 H   0  0  0  0  0  0  0  0  0  0  0  0  # atno 10167 bound_to 10162
  156.5609  130.4725  149.6407 H   0  0  0  0  0  0  0  0  0  0  0  0  # atno 10718 bound_to 10713
  152.9804  135.5990  154.3690 H   0  0  0  0  0  0  0  0  0  0  0  0  # atno 10763 bound_to 10752
  154.3365  135.2768  155.2447 H   0  0  0  0  0  0  0  0  0  0  0  0  # atno 10764 bound_to 10752
  154.4547  135.5981  153.6271 H   0  0  0  0  0  0  0  0  0  0  0  0  # atno 10765 bound_to 10752
  140.4311  134.1419  155.7681 H   0  0  0  0  0  0  0  0  0  0  0  0  # atno 11005 bound_to 11000
  146.2885  140.4362  142.8748 LP  0  0  0  0  0  0  0  0  0  0  0  0  # atno 17320 bound_to 7965
  144.8576  140.7093  143.6128 LP  0  0  0  0  0  0  0  0  0  0  0  0  # atno 17321 bound_to 7965
  139.5068  144.6821  151.5981 LP  0  0  0  0  0  0  0  0  0  0  0  0  # atno 17342 bound_to 10162
  140.6093  143.9465  150.6441 LP  0  0  0  0  0  0  0  0  0  0  0  0  # atno 17343 bound_to 10162
  156.2800  130.7065  151.1887 LP  0  0  0  0  0  0  0  0  0  0  0  0  # atno 17370 bound_to 10713
  157.7369  131.0558  150.5389 LP  0  0  0  0  0  0  0  0  0  0  0  0  # atno 17371 bound_to 10713
  141.1745  133.8542  157.1465 LP  0  0  0  0  0  0  0  0  0  0  0  0  # atno 17394 bound_to 11000
  140.0134  134.9978  157.0442 LP  0  0  0  0  0  0  0  0  0  0  0  0  # atno 17395 bound_to 11000

$$$$
