AV-unprocessed.smi:2112|AV-procd|sdf|8613|dock3
  -GOLD-   2272011353D 1   1.00000     0.00000
 Structure written by MMmdl.
 41 42  0  0  0  0  0  0  0  0  1 V2000
  145.0078  135.5359  150.8138 C   0  0  0  0  0  0  0  0  0  0  0  0
  145.0386  136.4834  152.0257 C   0  0  0  0  0  0  0  0  0  0  0  0
  143.6163  136.7297  152.5508 C   0  0  0  0  0  0  0  0  0  0  0  0
  145.7429  137.8220  151.7204 C   0  0  0  0  0  0  0  0  0  0  0  0
  147.0702  137.9038  152.3246 N   0  0  0  0  0  0  0  0  0  0  0  0
  147.4955  138.8753  153.1455 C   0  0  0  0  0  0  0  0  0  0  0  0
  146.8045  139.8393  153.4735 O   0  0  0  0  0  0  0  0  0  0  0  0
  148.7654  138.6609  153.5303 N   0  0  0  0  0  0  0  0  0  0  0  0
  149.5659  139.4235  154.4237 C   0  0  0  0  0  0  0  0  0  0  0  0
  150.9081  139.1229  154.7530 C   0  0  0  0  0  0  0  0  0  0  0  0
  151.6019  139.9746  155.6338 C   0  0  0  0  0  0  0  0  0  0  0  0
  150.9434  141.1122  156.1571 C   0  0  0  0  0  0  0  0  0  0  0  0
  151.6048  141.9888  157.0400 N   0  0  0  0  0  0  0  0  0  0  0  0
  151.3166  143.4170  157.0516 C   0  0  0  0  0  0  0  0  0  0  0  0
  151.6207  143.8900  158.4778 C   0  0  0  0  0  0  0  0  0  0  0  0
  152.5626  142.8213  159.0315 C   0  0  0  0  0  0  0  0  0  0  0  0
  152.0781  141.5466  158.3431 C   0  0  0  0  0  0  0  0  0  0  0  0
  149.6586  141.3986  155.8393 N   0  0  0  0  0  0  0  0  0  0  0  0
  148.9983  140.5798  154.9942 C   0  0  0  0  0  0  0  0  0  0  0  0
  144.5019  135.9968  149.9650 H   0  0  0  0  0  0  0  0  0  0  0  0
  144.4816  134.6114  151.0524 H   0  0  0  0  0  0  0  0  0  0  0  0
  146.0122  135.2594  150.4933 H   0  0  0  0  0  0  0  0  0  0  0  0
  145.5955  135.9843  152.8199 H   0  0  0  0  0  0  0  0  0  0  0  0
  143.0005  137.2346  151.8058 H   0  0  0  0  0  0  0  0  0  0  0  0
  143.6297  137.3502  153.4473 H   0  0  0  0  0  0  0  0  0  0  0  0
  143.1235  135.7920  152.8093 H   0  0  0  0  0  0  0  0  0  0  0  0
  145.7889  137.9892  150.6427 H   0  0  0  0  0  0  0  0  0  0  0  0
  145.1537  138.6449  152.1262 H   0  0  0  0  0  0  0  0  0  0  0  0
  147.7124  137.1568  152.1042 H   0  0  0  0  0  0  0  0  0  0  0  0
  149.2282  137.8699  153.1070 H   0  0  0  0  0  0  0  0  0  0  0  0
  151.4250  138.2701  154.3421 H   0  0  0  0  0  0  0  0  0  0  0  0
  152.6239  139.7435  155.8942 H   0  0  0  0  0  0  0  0  0  0  0  0
  151.9687  143.9134  156.3321 H   0  0  0  0  0  0  0  0  0  0  0  0
  150.2816  143.6327  156.7837 H   0  0  0  0  0  0  0  0  0  0  0  0
  152.0479  144.8925  158.5095 H   0  0  0  0  0  0  0  0  0  0  0  0
  150.6999  143.9001  159.0627 H   0  0  0  0  0  0  0  0  0  0  0  0
  153.5872  143.0401  158.7276 H   0  0  0  0  0  0  0  0  0  0  0  0
  152.5395  142.7517  160.1194 H   0  0  0  0  0  0  0  0  0  0  0  0
  151.2526  141.1004  158.8995 H   0  0  0  0  0  0  0  0  0  0  0  0
  152.8751  140.8077  158.2534 H   0  0  0  0  0  0  0  0  0  0  0  0
  147.9799  140.8593  154.7678 H   0  0  0  0  0  0  0  0  0  0  0  0
  1  2  1  0  0  0  0
  1 20  1  0  0  0  0
  1 21  1  0  0  0  0
  1 22  1  0  0  0  0
  2  3  1  0  0  0  0
  2  4  1  0  0  0  0
  2 23  1  0  0  0  0
  3 24  1  0  0  0  0
  3 25  1  0  0  0  0
  3 26  1  0  0  0  0
  4  5  1  0  0  0  0
  4 27  1  0  0  0  0
  4 28  1  0  0  0  0
  5  6  1  0  0  0  0
  5 29  1  0  0  0  0
  6  7  2  0  0  0  0
  6  8  1  0  0  0  0
  8  9  1  0  0  0  0
  8 30  1  0  0  0  0
  9 19  1  0  0  0  0
  9 10  2  0  0  0  0
 10 11  1  0  0  0  0
 10 31  1  0  0  0  0
 11 12  2  0  0  0  0
 11 32  1  0  0  0  0
 12 13  1  0  0  0  0
 12 18  1  0  0  0  0
 13 17  1  0  0  0  0
 13 14  1  0  0  0  0
 14 15  1  0  0  0  0
 14 33  1  0  0  0  0
 14 34  1  0  0  0  0
 15 16  1  0  0  0  0
 15 35  1  0  0  0  0
 15 36  1  0  0  0  0
 16 17  1  0  0  0  0
 16 37  1  0  0  0  0
 16 38  1  0  0  0  0
 17 39  1  0  0  0  0
 17 40  1  0  0  0  0
 18 19  2  0  0  0  0
 19 41  1  0  0  0  0
M  END
> <s_m_source_file>
AV-unprocessed.smi

> <i_m_source_file_index>
2112

> <i_lp_mmshare_version>
43012

> <i_f3d_flags>
0

> <s_epik_input>
W0NIM11bQ0hdKFtDSDNdKVtDSDJdW05IXUMoPU8pW05IXWMxW2NIXVtjSF1jKG5bY0hdMSlOMltDSDJdW0NIMl1bQ0gyXVtDSDJdMg==

> <s_epik_cmdline>
J2VwaWtfcHl0aG9uJywgJy1waCcsICc3LjAnLCAnLXRuJywgJzgnLCAnLW1hJywgJzIwMCcsICctbWV0YWxfYmluZGluZycsICctaW1hZScsICc8aW5maWxlLm1hZT4nLCAnLW9tYWUnLCAnPG91dGZpbGUubWFlPic=

> <r_lp_tautomer_probability>
1

> <r_epik_Ionization_Penalty>
0.101487

> <r_epik_Ionization_Penalty_Charging>
0

> <r_epik_Ionization_Penalty_Neutral>
0.101487

> <r_epik_State_Penalty>
0.0909146

> <r_epik_Charging_Adjusted_Penalty>
0.0909146

> <i_epik_Tot_Q>
0

> <i_epik_Tot_abs_Q>
0

> <r_epik_Metal_State_Penalty>
0.0775519

> <b_epik_Metal_Only>
0

> <s_lp_Force_Field>
OPLS_2005

> <r_lp_Energy>
29.5251

> <b_lp_Chiralities_Consistent>
1

> <s_lp_Variant>
AV-unprocessed.smi:2112-1

> <Gold.Version>
5.8.1

> <Gold.Id.Protein>
6NUR|6NUR_protein|mol2

> <Gold.PLP.Fitness>
40.4463

> <Gold.PLP.PLP>
-37.6284

> <Gold.PLP.part.hbond>
-2.9857

> <Gold.PLP.part.metal>
0.0000

> <Gold.PLP.part.buried>
0.5085

> <Gold.PLP.part.nonpolar>
-35.6768

> <Gold.PLP.part.repulsive>
0.4044

> <Gold.PLP.ligand.clash>
0.0000

> <Gold.PLP.ligand.torsion>
1.5050

> <Gold.PLP.Chemscore.Hbond>
1.8736

> <Gold.PLP.Chemscore.CHOScore>
0.0000

> <Gold.PLP.Chemscore.Metal>
0.0000

> <Gold.Chemscore.Hbonds>
donor molecule, donor type, donor heavy atom, donor atom, acceptor molecule, acceptor atom, score
      L1  H     5    29       P1  7948  1.00
      L1  H     8    30       P1  7948  0.86

> <Gold.PLP.Chemscore.Internal.Correction>
0.2071

> <Gold.Rescore>
     Score         DG    S(hbond)    S(metal)    S(lipo)     H(rot)  DE(clash)    DE(int)     intcor
     15.03     -19.43       1.94        0.00      89.01       1.15       1.41       2.99       ----

> <Gold.Chemscore.Fitness>
15.0342

> <Gold.Chemscore.DG>
-19.4341

> <Gold.Chemscore.ZeroCoef>
-5.4800

> <Gold.Chemscore.Hbond>
1.9436

> <Gold.Chemscore.Metal>
0.0000

> <Gold.Chemscore.Lipo>
89.0084

> <Gold.Chemscore.Internal_Hbond>
0.0000

> <Gold.Chemscore.DEClash>
1.4085

> <Gold.Chemscore.DEInternal>
2.9913

> <Gold.Chemscore.Rot>
1.1529

> <Gold.Chemscore.Internal.Correction>
   9.000000E+99

> <Gold.Chemscore.Hbonds>
donor molecule, donor type, donor heavy atom, donor atom, acceptor molecule, acceptor atom, score
      L1  H     5    29       P1  7948  0.95
      L1  H     8    30       P1  7948  0.79

> <Gold.Chemscore.Hbond.Weighted>
-6.4916

> <Gold.Chemscore.Metal.Weighted>
-0.0000

> <Gold.Chemscore.Lipo.Weighted>
-10.4140

> <Gold.Chemscore.Internal_Hbond.Weighted>
0.0000

> <Gold.Chemscore.DEClash.Weighted>
1.4085

> <Gold.Chemscore.DEInternal.Weighted>
2.9913

> <Gold.Chemscore.Rot.Weighted>
2.9515

> <Gold.Chemscore.Internal.Correction.Weighted>
   9.000000E+99

> <Gold.Protein.RotatedTorsions>
[ 6907 6896 6895 6894 ] final  -25.21 input  -60.11 | X-H torsion
[ 7974 7965 7964 7962 ] final  -94.73 input  175.53 | X-H torsion
[ 8008 7997 7996 7995 ] final  133.95 input   59.86 | X-H torsion
[ 10167 10162 10161 10158 ] final -141.36 input  -65.29 | X-H torsion
[ 10718 10713 10712 10709 ] final  133.29 input   66.30 | X-H torsion
[ 10763 10752 10751 10750 ] final  128.72 input  -60.55 | X-H torsion
[ 11005 11000 10999 10996 ] final  -60.94 input  -57.11 | X-H torsion

> <Gold.Protein.ActiveResidues>
 VAL166  LYS551  ARG553  GLY616  TRP617  ASP618  TYR619  PRO620  LYS621  CYS622 
 ASP623  PHE694  ASN695  SER759  ASP760  ASP761  ALA762  ILE779  LEU786  VAL792 
 PHE793  MET794  SER795  GLU796  ALA797  LYS798  CYS799  TRP800  GLU811  SER814 

> <Gold.Protein.RotatedAtoms>
  151.1784  135.0350  159.8781 H   0  0  0  0  0  0  0  0  0  0  0  0  # atno 6907 bound_to 6896
  152.5446  134.1091  159.8361 H   0  0  0  0  0  0  0  0  0  0  0  0  # atno 6908 bound_to 6896
  151.1205  133.5061  159.2634 H   0  0  0  0  0  0  0  0  0  0  0  0  # atno 6909 bound_to 6896
  145.3694  140.9503  143.2456 H   0  0  0  0  0  0  0  0  0  0  0  0  # atno 7974 bound_to 7965
  156.2996  140.2508  156.3336 H   0  0  0  0  0  0  0  0  0  0  0  0  # atno 8008 bound_to 7997
  154.9121  140.0403  157.1971 H   0  0  0  0  0  0  0  0  0  0  0  0  # atno 8009 bound_to 7997
  154.8395  140.2888  155.5673 H   0  0  0  0  0  0  0  0  0  0  0  0  # atno 8010 bound_to 7997
  139.8193  143.7596  152.2666 H   0  0  0  0  0  0  0  0  0  0  0  0  # atno 10167 bound_to 10162
  157.4787  131.1084  150.9710 H   0  0  0  0  0  0  0  0  0  0  0  0  # atno 10718 bound_to 10713
  153.7301  135.3240  155.3284 H   0  0  0  0  0  0  0  0  0  0  0  0  # atno 10763 bound_to 10752
  154.8329  135.4520  154.1131 H   0  0  0  0  0  0  0  0  0  0  0  0  # atno 10764 bound_to 10752
  153.2275  135.6956  153.8008 H   0  0  0  0  0  0  0  0  0  0  0  0  # atno 10765 bound_to 10752
  141.1306  133.6626  156.5299 H   0  0  0  0  0  0  0  0  0  0  0  0  # atno 11005 bound_to 11000
  144.8587  139.5209  143.6822 LP  0  0  0  0  0  0  0  0  0  0  0  0  # atno 17320 bound_to 7965
  146.2892  139.7090  142.9173 LP  0  0  0  0  0  0  0  0  0  0  0  0  # atno 17321 bound_to 7965
  139.7769  144.7458  151.0143 LP  0  0  0  0  0  0  0  0  0  0  0  0  # atno 17342 bound_to 10162
  140.7814  143.4584  151.0313 LP  0  0  0  0  0  0  0  0  0  0  0  0  # atno 17343 bound_to 10162
  157.0450  130.5764  149.5361 LP  0  0  0  0  0  0  0  0  0  0  0  0  # atno 17370 bound_to 10713
  156.0110  130.5202  150.7988 LP  0  0  0  0  0  0  0  0  0  0  0  0  # atno 17371 bound_to 10713
  140.4224  134.7175  157.4897 LP  0  0  0  0  0  0  0  0  0  0  0  0  # atno 17394 bound_to 11000
  140.0350  134.6350  155.9055 LP  0  0  0  0  0  0  0  0  0  0  0  0  # atno 17395 bound_to 11000

$$$$
