AV-unprocessed.smi:189|AV-procd|sdf|1481|dock1
  -GOLD-   2262019303D 1   1.00000     0.00000
 Structure written by MMmdl.
 53 57  0  0  0  0  0  0  0  0  1 V2000
  150.6627  137.9174  154.6055 C   0  0  0  0  0  0  0  0  0  0  0  0
  150.3387  139.3580  155.0469 C   0  0  2  0  0  0  0  0  0  0  0  0
  151.5568  140.2169  155.4082 C   0  0  0  0  0  0  0  0  0  0  0  0
  150.9376  141.3850  156.1897 C   0  0  2  0  0  0  0  0  0  0  0  0
  151.7291  141.8322  157.4314 C   0  0  0  0  0  0  0  0  0  0  0  0
  150.9872  142.9271  158.2284 C   0  0  0  0  0  0  0  0  0  0  0  0
  149.4504  142.7551  158.2521 C   0  0  0  0  0  0  0  0  0  0  0  0
  149.0175  141.3133  157.9483 C   0  0  0  0  0  0  0  0  0  0  0  0
  149.5097  140.9049  156.5363 C   0  0  2  0  0  0  0  0  0  0  0  0
  149.4169  139.4856  156.1770 N   0  0  0  0  0  0  0  0  0  0  0  0
  149.5335  138.5691  157.1716 C   0  0  0  0  0  0  0  0  0  0  0  0
  150.7513  138.2175  157.6646 N   0  0  0  0  0  0  0  0  0  0  0  0
  150.8421  137.3132  158.6438 C   0  0  0  0  0  0  0  0  0  0  0  0
  149.8619  136.6471  159.2576 N   0  0  0  0  0  0  0  0  0  0  0  0
  148.6402  136.9910  158.7578 C   0  0  0  0  0  0  0  0  0  0  0  0
  148.3898  137.9387  157.7267 C   0  0  0  0  0  0  0  0  0  0  0  0
  147.0254  138.0357  157.4869 N   0  0  0  0  0  0  0  0  0  0  0  0
  146.4971  137.1906  158.3298 C   0  0  0  0  0  0  0  0  0  0  0  0
  147.3945  136.5114  159.1238 N   0  0  0  0  0  0  0  0  0  0  0  0
  147.0811  135.5193  160.1403 C   0  0  0  0  0  0  0  0  0  0  0  0
  146.9581  136.1018  161.5716 C   0  0  1  0  0  0  0  0  0  0  0  0
  148.1099  136.8630  161.8812 O   0  0  0  0  0  0  0  0  0  0  0  0
  145.7200  136.9692  161.7321 C   0  0  0  0  0  0  0  0  0  0  0  0
  144.6306  135.9558  162.0799 C   0  0  0  0  0  0  0  0  0  0  0  0
  145.2972  134.8391  162.6627 O   0  0  0  0  0  0  0  0  0  0  0  0
  146.7041  135.0532  162.6608 C   0  0  0  0  0  0  0  0  0  0  0  0
  151.2724  137.9224  153.7019 H   0  0  0  0  0  0  0  0  0  0  0  0
  149.7513  137.3610  154.3845 H   0  0  0  0  0  0  0  0  0  0  0  0
  151.2170  137.3671  155.3661 H   0  0  0  0  0  0  0  0  0  0  0  0
  149.8354  139.8354  154.2044 H   0  0  0  0  0  0  0  0  0  0  0  0
  152.2499  139.6551  156.0352 H   0  0  0  0  0  0  0  0  0  0  0  0
  152.1064  140.5476  154.5267 H   0  0  0  0  0  0  0  0  0  0  0  0
  150.8488  142.2417  155.5200 H   0  0  0  0  0  0  0  0  0  0  0  0
  151.8907  140.9725  158.0822 H   0  0  0  0  0  0  0  0  0  0  0  0
  152.7210  142.1837  157.1466 H   0  0  0  0  0  0  0  0  0  0  0  0
  151.3721  142.9352  159.2487 H   0  0  0  0  0  0  0  0  0  0  0  0
  151.2232  143.9075  157.8135 H   0  0  0  0  0  0  0  0  0  0  0  0
  149.0551  143.0761  159.2163 H   0  0  0  0  0  0  0  0  0  0  0  0
  149.0041  143.4165  157.5082 H   0  0  0  0  0  0  0  0  0  0  0  0
  149.4275  140.6737  158.7293 H   0  0  0  0  0  0  0  0  0  0  0  0
  147.9330  141.2169  158.0083 H   0  0  0  0  0  0  0  0  0  0  0  0
  148.8407  141.4064  155.8350 H   0  0  0  0  0  0  0  0  0  0  0  0
  151.8428  137.0913  158.9834 H   0  0  0  0  0  0  0  0  0  0  0  0
  145.4299  137.0329  158.3916 H   0  0  0  0  0  0  0  0  0  0  0  0
  146.1518  135.0240  159.8555 H   0  0  0  0  0  0  0  0  0  0  0  0
  147.8549  134.7513  160.1078 H   0  0  0  0  0  0  0  0  0  0  0  0
  148.8467  136.2766  161.9584 H   0  0  0  0  0  0  0  0  0  0  0  0
  145.8434  137.6572  162.5706 H   0  0  0  0  0  0  0  0  0  0  0  0
  145.4847  137.5638  160.8487 H   0  0  0  0  0  0  0  0  0  0  0  0
  143.8886  136.3717  162.7619 H   0  0  0  0  0  0  0  0  0  0  0  0
  144.1122  135.6218  161.1806 H   0  0  0  0  0  0  0  0  0  0  0  0
  147.2568  134.1242  162.5267 H   0  0  0  0  0  0  0  0  0  0  0  0
  146.9735  135.4504  163.6410 H   0  0  0  0  0  0  0  0  0  0  0  0
  1  2  1  0  0  0  0
  1 27  1  0  0  0  0
  1 28  1  0  0  0  0
  1 29  1  0  0  0  0
  2 10  1  0  0  0  0
  2  3  1  0  0  0  0
  2 30  1  0  0  0  0
  3  4  1  0  0  0  0
  3 31  1  0  0  0  0
  3 32  1  0  0  0  0
  4  9  1  0  0  0  0
  4  5  1  0  0  0  0
  4 33  1  0  0  0  0
  5  6  1  0  0  0  0
  5 34  1  0  0  0  0
  5 35  1  0  0  0  0
  6  7  1  0  0  0  0
  6 36  1  0  0  0  0
  6 37  1  0  0  0  0
  7  8  1  0  0  0  0
  7 38  1  0  0  0  0
  7 39  1  0  0  0  0
  8  9  1  0  0  0  0
  8 40  1  0  0  0  0
  8 41  1  0  0  0  0
  9 10  1  0  0  0  0
  9 42  1  0  0  0  0
 10 11  1  0  0  0  0
 11 16  1  0  0  0  0
 11 12  2  0  0  0  0
 12 13  1  0  0  0  0
 13 14  2  0  0  0  0
 13 43  1  0  0  0  0
 14 15  1  0  0  0  0
 15 19  1  0  0  0  0
 15 16  2  0  0  0  0
 16 17  1  0  0  0  0
 17 18  2  0  0  0  0
 18 19  1  0  0  0  0
 18 44  1  0  0  0  0
 19 20  1  0  0  0  0
 20 21  1  0  0  0  0
 20 45  1  0  0  0  0
 20 46  1  0  0  0  0
 21 26  1  0  0  0  0
 21 22  1  0  0  0  0
 21 23  1  0  0  0  0
 22 47  1  0  0  0  0
 23 24  1  0  0  0  0
 23 48  1  0  0  0  0
 23 49  1  0  0  0  0
 24 25  1  0  0  0  0
 24 50  1  0  0  0  0
 24 51  1  0  0  0  0
 25 26  1  0  0  0  0
 26 52  1  0  0  0  0
 26 53  1  0  0  0  0
M  END
> <s_m_source_file>
AV-unprocessed.smi

> <i_m_source_file_index>
189

> <i_lp_mmshare_version>
43012

> <i_f3d_flags>
0

> <s_epik_input>
W0NIMl0xW0NIMl1bQ0gyXVtDSDJdW0NASF0oW0NASF0xMilOKFtDQEhdKFtDSDNdKVtDSDJdMiljKG5bY0hdbjMpYyhjMzQpbltjSF1uNFtDSDJdW0NAQF01KFtPSF0pW0NIMl1bQ0gyXU9bQ0gyXTU=

> <s_epik_cmdline>
J2VwaWtfcHl0aG9uJywgJy1waCcsICc3LjAnLCAnLXRuJywgJzgnLCAnLW1hJywgJzIwMCcsICctbWV0YWxfYmluZGluZycsICctaW1hZScsICc8aW5maWxlLm1hZT4nLCAnLW9tYWUnLCAnPG91dGZpbGUubWFlPic=

> <r_lp_tautomer_probability>
1

> <r_epik_Ionization_Penalty>
0.00594261

> <r_epik_Ionization_Penalty_Charging>
0

> <r_epik_Ionization_Penalty_Neutral>
0.00594261

> <r_epik_State_Penalty>
0.00429776

> <r_epik_Charging_Adjusted_Penalty>
0.00429776

> <i_epik_Tot_Q>
0

> <i_epik_Tot_abs_Q>
0

> <r_epik_Metal_State_Penalty>
-0

> <b_epik_Metal_Only>
0

> <s_lp_Force_Field>
OPLS_2005

> <r_lp_Energy>
68.3564

> <b_lp_Chiralities_Consistent>
1

> <s_lp_Variant>
AV-unprocessed.smi:189-7

> <Gold.Version>
5.8.1

> <Gold.Id.Protein>
6NUR|6NUR_protein|mol2

> <Gold.PLP.Fitness>
43.4936

> <Gold.PLP.PLP>
-39.1674

> <Gold.PLP.part.hbond>
-2.3567

> <Gold.PLP.part.metal>
0.0000

> <Gold.PLP.part.buried>
-5.3081

> <Gold.PLP.part.nonpolar>
-30.7958

> <Gold.PLP.part.repulsive>
0.0117

> <Gold.PLP.ligand.clash>
0.0000

> <Gold.PLP.ligand.torsion>
0.8476

> <Gold.PLP.Chemscore.Hbond>
1.9913

> <Gold.PLP.Chemscore.CHOScore>
0.0000

> <Gold.PLP.Chemscore.Metal>
0.0000

> <Gold.Chemscore.Hbonds>
donor molecule, donor type, donor heavy atom, donor atom, acceptor molecule, acceptor atom, score
      P1  H  6896  6909       L1    14  0.79
      P1  H  6931  6943       L1    22  0.70

> <Gold.PLP.Chemscore.Internal.Correction>
0.0476

> <Gold.Rescore>
     Score         DG    S(hbond)    S(metal)    S(lipo)     H(rot)  DE(clash)    DE(int)     intcor
     15.38     -16.93       1.65        0.00      95.29       2.03       0.97       0.58       ----

> <Gold.Chemscore.Fitness>
15.3786

> <Gold.Chemscore.DG>
-16.9325

> <Gold.Chemscore.ZeroCoef>
-5.4800

> <Gold.Chemscore.Hbond>
1.6465

> <Gold.Chemscore.Metal>
0.0000

> <Gold.Chemscore.Lipo>
95.2921

> <Gold.Chemscore.Internal_Hbond>
0.0000

> <Gold.Chemscore.DEClash>
0.9740

> <Gold.Chemscore.DEInternal>
0.5799

> <Gold.Chemscore.Rot>
2.0297

> <Gold.Chemscore.Internal.Correction>
   9.000000E+99

> <Gold.Chemscore.Hbonds>
donor molecule, donor type, donor heavy atom, donor atom, acceptor molecule, acceptor atom, score
      P1  H  6896  6909       L1    14  0.13
      P1  H  6931  6943       L1    22  0.07

> <Gold.Chemscore.Hbond.Weighted>
-5.4993

> <Gold.Chemscore.Metal.Weighted>
-0.0000

> <Gold.Chemscore.Lipo.Weighted>
-11.1492

> <Gold.Chemscore.Internal_Hbond.Weighted>
0.0000

> <Gold.Chemscore.DEClash.Weighted>
0.9740

> <Gold.Chemscore.DEInternal.Weighted>
0.5799

> <Gold.Chemscore.Rot.Weighted>
5.1960

> <Gold.Chemscore.Internal.Correction.Weighted>
   9.000000E+99

> <Gold.Protein.RotatedTorsions>
[ 6907 6896 6895 6894 ] final   83.08 input  -60.11 | X-H torsion
[ 7974 7965 7964 7962 ] final   11.81 input  175.53 | X-H torsion
[ 8008 7997 7996 7995 ] final -106.69 input   59.86 | X-H torsion
[ 10167 10162 10161 10158 ] final  102.81 input  -65.29 | X-H torsion
[ 10718 10713 10712 10709 ] final   52.46 input   66.30 | X-H torsion
[ 10763 10752 10751 10750 ] final    0.15 input  -60.55 | X-H torsion
[ 11005 11000 10999 10996 ] final  -16.43 input  -57.11 | X-H torsion

> <Gold.Protein.ActiveResidues>
 VAL166  LYS551  ARG553  GLY616  TRP617  ASP618  TYR619  PRO620  LYS621  CYS622 
 ASP623  PHE694  ASN695  SER759  ASP760  ASP761  ALA762  ILE779  LEU786  VAL792 
 PHE793  MET794  SER795  GLU796  ALA797  LYS798  CYS799  TRP800  GLU811  SER814 

> <Gold.Protein.RotatedAtoms>
  152.5317  134.2951  159.9057 H   0  0  0  0  0  0  0  0  0  0  0  0  # atno 6907 bound_to 6896
  151.2902  133.4162  159.2640 H   0  0  0  0  0  0  0  0  0  0  0  0  # atno 6908 bound_to 6896
  151.0207  134.9483  159.8115 H   0  0  0  0  0  0  0  0  0  0  0  0  # atno 6909 bound_to 6896
  146.2364  139.9429  142.8480 H   0  0  0  0  0  0  0  0  0  0  0  0  # atno 7974 bound_to 7965
  154.9182  140.0408  157.1983 H   0  0  0  0  0  0  0  0  0  0  0  0  # atno 8008 bound_to 7997
  154.8280  140.2894  155.5720 H   0  0  0  0  0  0  0  0  0  0  0  0  # atno 8009 bound_to 7997
  156.2985  140.2506  156.3200 H   0  0  0  0  0  0  0  0  0  0  0  0  # atno 8010 bound_to 7997
  139.7317  144.7034  151.0712 H   0  0  0  0  0  0  0  0  0  0  0  0  # atno 10167 bound_to 10162
  157.5077  130.8480  149.8395 H   0  0  0  0  0  0  0  0  0  0  0  0  # atno 10718 bound_to 10713
  153.3243  135.6971  153.7003 H   0  0  0  0  0  0  0  0  0  0  0  0  # atno 10763 bound_to 10752
  153.5830  135.3494  155.2883 H   0  0  0  0  0  0  0  0  0  0  0  0  # atno 10764 bound_to 10752
  154.8604  135.4299  154.2416 H   0  0  0  0  0  0  0  0  0  0  0  0  # atno 10765 bound_to 10752
  140.8067  133.8172  155.9522 H   0  0  0  0  0  0  0  0  0  0  0  0  # atno 11005 bound_to 11000
  145.1935  140.9822  143.4197 LP  0  0  0  0  0  0  0  0  0  0  0  0  # atno 17320 bound_to 7965
  144.9836  139.3758  143.6249 LP  0  0  0  0  0  0  0  0  0  0  0  0  # atno 17321 bound_to 7965
  140.7772  143.5035  150.9742 LP  0  0  0  0  0  0  0  0  0  0  0  0  # atno 17342 bound_to 10162
  139.8723  143.7177  152.3165 LP  0  0  0  0  0  0  0  0  0  0  0  0  # atno 17343 bound_to 10162
  156.0269  130.3777  150.1798 LP  0  0  0  0  0  0  0  0  0  0  0  0  # atno 17370 bound_to 10713
  156.9988  130.9916  151.3396 LP  0  0  0  0  0  0  0  0  0  0  0  0  # atno 17371 bound_to 10713
  140.9240  134.2106  157.4908 LP  0  0  0  0  0  0  0  0  0  0  0  0  # atno 17394 bound_to 11000
  139.8717  134.9804  156.5076 LP  0  0  0  0  0  0  0  0  0  0  0  0  # atno 17395 bound_to 11000

$$$$
