AV-unprocessed.smi:2341|AV-procd|sdf|9353|dock4
  -GOLD-   2272012573D 1   1.00000     0.00000
 Structure written by MMmdl.
 52 54  0  0  0  0  0  0  0  0  2 V2000
  151.1864  142.8960  157.6386 C   0  0  0  0  0  0  0  0  0  0  0  0
  150.5401  141.7305  156.9195 C   0  0  0  0  0  0  0  0  0  0  0  0
  150.3110  140.5047  157.5728 C   0  0  0  0  0  0  0  0  0  0  0  0
  149.7079  139.4550  156.8533 C   0  0  0  0  0  0  0  0  0  0  0  0
  149.3492  139.6544  155.5011 C   0  0  0  0  0  0  0  0  0  0  0  0
  148.7490  138.5341  154.8665 N   0  0  0  0  0  0  0  0  0  0  0  0
  147.8545  137.6700  155.3781 C   0  0  0  0  0  0  0  0  0  0  0  0
  147.4006  137.7065  156.5223 O   0  0  0  0  0  0  0  0  0  0  0  0
  147.5058  136.7398  154.4768 N   0  0  0  0  0  0  0  0  0  0  0  0
  146.5449  135.6655  154.7102 C   0  0  2  0  0  0  0  0  0  0  0  0
  147.1621  134.2919  154.3795 C   0  0  0  0  0  0  0  0  0  0  0  0
  146.1125  133.1649  154.4678 C   0  0  0  0  0  0  0  0  0  0  0  0
  144.9214  133.4303  153.6091 N   0  3  2  0  0  0  0  0  0  0  0  0
  145.1529  133.2294  152.1375 C   0  0  0  0  0  0  0  0  0  0  0  0
  143.9651  133.7084  151.2589 C   0  0  0  0  0  0  0  0  0  0  0  0
  144.1923  133.4456  149.7618 C   0  0  0  0  0  0  0  0  0  0  0  0
  144.4703  131.9636  149.4904 C   0  0  0  0  0  0  0  0  0  0  0  0
  145.6629  131.4818  150.3231 C   0  0  0  0  0  0  0  0  0  0  0  0
  145.4381  131.7373  151.8218 C   0  0  0  0  0  0  0  0  0  0  0  0
  144.3001  134.7245  154.0130 C   0  0  0  0  0  0  0  0  0  0  0  0
  145.2836  135.8996  153.8619 C   0  0  0  0  0  0  0  0  0  0  0  0
  149.5739  140.8394  154.8807 N   0  0  0  0  0  0  0  0  0  0  0  0
  150.1517  141.8450  155.5708 C   0  0  0  0  0  0  0  0  0  0  0  0
  151.3341  142.6766  158.6964 H   0  0  0  0  0  0  0  0  0  0  0  0
  150.5598  143.7847  157.5590 H   0  0  0  0  0  0  0  0  0  0  0  0
  152.1577  143.1191  157.1964 H   0  0  0  0  0  0  0  0  0  0  0  0
  150.5912  140.3661  158.6067 H   0  0  0  0  0  0  0  0  0  0  0  0
  149.5246  138.5077  157.3398 H   0  0  0  0  0  0  0  0  0  0  0  0
  149.0318  138.3753  153.9110 H   0  0  0  0  0  0  0  0  0  0  0  0
  147.9280  136.7845  153.5608 H   0  0  0  0  0  0  0  0  0  0  0  0
  146.2499  135.6745  155.7615 H   0  0  0  0  0  0  0  0  0  0  0  0
  147.6093  134.3113  153.3855 H   0  0  0  0  0  0  0  0  0  0  0  0
  147.9787  134.0770  155.0699 H   0  0  0  0  0  0  0  0  0  0  0  0
  146.5723  132.2043  154.2475 H   0  0  0  0  0  0  0  0  0  0  0  0
  145.7710  133.0832  155.5007 H   0  0  0  0  0  0  0  0  0  0  0  0
  146.0231  133.8148  151.8412 H   0  0  0  0  0  0  0  0  0  0  0  0
  143.0452  133.2158  151.5776 H   0  0  0  0  0  0  0  0  0  0  0  0
  143.8050  134.7805  151.3696 H   0  0  0  0  0  0  0  0  0  0  0  0
  143.3206  133.7692  149.1920 H   0  0  0  0  0  0  0  0  0  0  0  0
  145.0317  134.0462  149.4085 H   0  0  0  0  0  0  0  0  0  0  0  0
  143.5868  131.3712  149.7322 H   0  0  0  0  0  0  0  0  0  0  0  0
  144.6681  131.8083  148.4293 H   0  0  0  0  0  0  0  0  0  0  0  0
  145.8295  130.4183  150.1487 H   0  0  0  0  0  0  0  0  0  0  0  0
  146.5692  131.9935  149.9961 H   0  0  0  0  0  0  0  0  0  0  0  0
  146.3226  131.3802  152.3458 H   0  0  0  0  0  0  0  0  0  0  0  0
  144.6066  131.1233  152.1711 H   0  0  0  0  0  0  0  0  0  0  0  0
  143.3664  134.9163  153.4873 H   0  0  0  0  0  0  0  0  0  0  0  0
  144.0077  134.6447  155.0611 H   0  0  0  0  0  0  0  0  0  0  0  0
  144.7973  136.8258  154.1707 H   0  0  0  0  0  0  0  0  0  0  0  0
  145.5523  136.0294  152.8127 H   0  0  0  0  0  0  0  0  0  0  0  0
  150.3084  142.7665  155.0295 H   0  0  0  0  0  0  0  0  0  0  0  0
  144.2403  132.7262  153.8560 H   0  0  0  0  0  0  0  0  0  0  0  0
  1  2  1  0  0  0  0
  1 24  1  0  0  0  0
  1 25  1  0  0  0  0
  1 26  1  0  0  0  0
  2 23  1  0  0  0  0
  2  3  2  0  0  0  0
  3  4  1  0  0  0  0
  3 27  1  0  0  0  0
  4  5  2  0  0  0  0
  4 28  1  0  0  0  0
  5  6  1  0  0  0  0
  5 22  1  0  0  0  0
  6  7  1  0  0  0  0
  6 29  1  0  0  0  0
  7  8  2  0  0  0  0
  7  9  1  0  0  0  0
  9 10  1  0  0  0  0
  9 30  1  0  0  0  0
 10 21  1  0  0  0  0
 10 11  1  0  0  0  0
 10 31  1  0  0  0  0
 11 12  1  0  0  0  0
 11 32  1  0  0  0  0
 11 33  1  0  0  0  0
 12 13  1  0  0  0  0
 12 34  1  0  0  0  0
 12 35  1  0  0  0  0
 13 14  1  0  0  0  0
 13 20  1  0  0  0  0
 13 52  1  0  0  0  0
 14 19  1  0  0  0  0
 14 15  1  0  0  0  0
 14 36  1  0  0  0  0
 15 16  1  0  0  0  0
 15 37  1  0  0  0  0
 15 38  1  0  0  0  0
 16 17  1  0  0  0  0
 16 39  1  0  0  0  0
 16 40  1  0  0  0  0
 17 18  1  0  0  0  0
 17 41  1  0  0  0  0
 17 42  1  0  0  0  0
 18 19  1  0  0  0  0
 18 43  1  0  0  0  0
 18 44  1  0  0  0  0
 19 45  1  0  0  0  0
 19 46  1  0  0  0  0
 20 21  1  0  0  0  0
 20 47  1  0  0  0  0
 20 48  1  0  0  0  0
 21 49  1  0  0  0  0
 21 50  1  0  0  0  0
 22 23  2  0  0  0  0
 23 51  1  0  0  0  0
M  CHG  1  13   1
M  END
> <s_m_source_file>
AV-unprocessed.smi

> <i_m_source_file_index>
2341

> <i_lp_mmshare_version>
43012

> <i_f3d_flags>
0

> <s_epik_input>
W0NIM11jMVtjSF1bY0hdYyhuW2NIXTEpW05IXUMoPU8pW05IXVtDSF0yW0NIMl1bQ0gyXU4oW0NIMl1bQ0gyXTIpW0NIXTNbQ0gyXVtDSDJdW0NIMl1bQ0gyXVtDSDJdMw==

> <s_epik_cmdline>
J2VwaWtfcHl0aG9uJywgJy1waCcsICc3LjAnLCAnLXRuJywgJzgnLCAnLW1hJywgJzIwMCcsICctbWV0YWxfYmluZGluZycsICctaW1hZScsICc8aW5maWxlLm1hZT4nLCAnLW9tYWUnLCAnPG91dGZpbGUubWFlPic=

> <r_epik_Ionization_Penalty>
0.00176486

> <r_epik_Ionization_Penalty_Charging>
0.00171891

> <r_epik_Ionization_Penalty_Neutral>
4.59494e-05

> <r_epik_State_Penalty>
0.00116222

> <r_epik_Charging_Adjusted_Penalty>
0.00288114

> <i_epik_Tot_Q>
1

> <i_epik_Tot_abs_Q>
1

> <r_epik_Metal_State_Penalty>
-0

> <b_epik_Metal_Only>
0

> <s_lp_Force_Field>
OPLS_2005

> <r_lp_Energy>
32.471

> <b_lp_Chiralities_Consistent>
1

> <s_lp_Variant>
AV-unprocessed.smi:2341-2

> <Gold.Version>
5.8.1

> <Gold.Id.Protein>
6NUR|6NUR_protein|mol2

> <Gold.PLP.Fitness>
36.9098

> <Gold.PLP.PLP>
-27.0981

> <Gold.PLP.part.hbond>
-2.2799

> <Gold.PLP.part.metal>
0.0000

> <Gold.PLP.part.buried>
-3.2572

> <Gold.PLP.part.nonpolar>
-23.2011

> <Gold.PLP.part.repulsive>
0.1143

> <Gold.PLP.ligand.clash>
0.0000

> <Gold.PLP.ligand.torsion>
0.5174

> <Gold.PLP.Chemscore.Hbond>
2.8438

> <Gold.PLP.Chemscore.CHOScore>
0.7528

> <Gold.PLP.Chemscore.Metal>
0.0000

> <Gold.Chemscore.Hbonds>
donor molecule, donor type, donor heavy atom, donor atom, acceptor molecule, acceptor atom, score
      L1  H     9    30       P1  7948  0.93
      L1  H    13    52       P1 10957  1.89
      L1  C    23    51       P1  8028  0.76

> <Gold.PLP.Chemscore.Internal.Correction>
0.0570

> <Gold.Rescore>
     Score         DG    S(hbond)    S(metal)    S(lipo)     H(rot)  DE(clash)    DE(int)     intcor
     16.80     -18.68       1.64        0.00      92.02       1.19       0.24       1.64       ----

> <Gold.Chemscore.Fitness>
16.7963

> <Gold.Chemscore.DG>
-18.6783

> <Gold.Chemscore.ZeroCoef>
-5.4800

> <Gold.Chemscore.Hbond>
1.6418

> <Gold.Chemscore.Metal>
0.0000

> <Gold.Chemscore.Lipo>
92.0158

> <Gold.Chemscore.Internal_Hbond>
0.0000

> <Gold.Chemscore.DEClash>
0.2390

> <Gold.Chemscore.DEInternal>
1.6430

> <Gold.Chemscore.Rot>
1.1918

> <Gold.Chemscore.Internal.Correction>
   9.000000E+99

> <Gold.Chemscore.Hbonds>
donor molecule, donor type, donor heavy atom, donor atom, acceptor molecule, acceptor atom, score
      L1  H     9    30       P1  7948  0.88
      L1  H    13    52       P1 10957  0.67

> <Gold.Chemscore.Hbond.Weighted>
-5.4836

> <Gold.Chemscore.Metal.Weighted>
-0.0000

> <Gold.Chemscore.Lipo.Weighted>
-10.7659

> <Gold.Chemscore.Internal_Hbond.Weighted>
0.0000

> <Gold.Chemscore.DEClash.Weighted>
0.2390

> <Gold.Chemscore.DEInternal.Weighted>
1.6430

> <Gold.Chemscore.Rot.Weighted>
3.0511

> <Gold.Chemscore.Internal.Correction.Weighted>
   9.000000E+99

> <Gold.Protein.RotatedTorsions>
[ 6907 6896 6895 6894 ] final  125.13 input  -60.11 | X-H torsion
[ 7974 7965 7964 7962 ] final   63.13 input  175.53 | X-H torsion
[ 8008 7997 7996 7995 ] final   38.24 input   59.86 | X-H torsion
[ 10167 10162 10161 10158 ] final -137.16 input  -65.29 | X-H torsion
[ 10718 10713 10712 10709 ] final   -0.16 input   66.30 | X-H torsion
[ 10763 10752 10751 10750 ] final   77.37 input  -60.55 | X-H torsion
[ 11005 11000 10999 10996 ] final  134.23 input  -57.11 | X-H torsion

> <Gold.Protein.ActiveResidues>
 VAL166  LYS551  ARG553  GLY616  TRP617  ASP618  TYR619  PRO620  LYS621  CYS622 
 ASP623  PHE694  ASN695  SER759  ASP760  ASP761  ALA762  ILE779  LEU786  VAL792 
 PHE793  MET794  SER795  GLU796  ALA797  LYS798  CYS799  TRP800  GLU811  SER814 

> <Gold.Protein.RotatedAtoms>
  152.4018  133.6830  159.6322 H   0  0  0  0  0  0  0  0  0  0  0  0  # atno 6907 bound_to 6896
  150.7908  133.8777  159.3285 H   0  0  0  0  0  0  0  0  0  0  0  0  # atno 6908 bound_to 6896
  151.6541  135.0999  160.0218 H   0  0  0  0  0  0  0  0  0  0  0  0  # atno 6909 bound_to 6896
  145.8654  139.3342  143.0794 H   0  0  0  0  0  0  0  0  0  0  0  0  # atno 7974 bound_to 7965
  155.2169  140.3328  155.4321 H   0  0  0  0  0  0  0  0  0  0  0  0  # atno 8008 bound_to 7997
  156.2348  140.1867  156.7195 H   0  0  0  0  0  0  0  0  0  0  0  0  # atno 8009 bound_to 7997
  154.6041  140.0619  156.9393 H   0  0  0  0  0  0  0  0  0  0  0  0  # atno 8010 bound_to 7997
  139.8605  143.7083  152.2650 H   0  0  0  0  0  0  0  0  0  0  0  0  # atno 10167 bound_to 10162
  156.8245  130.5467  149.5693 H   0  0  0  0  0  0  0  0  0  0  0  0  # atno 10718 bound_to 10713
  153.0793  135.4917  154.8470 H   0  0  0  0  0  0  0  0  0  0  0  0  # atno 10763 bound_to 10752
  154.7130  135.3024  154.9170 H   0  0  0  0  0  0  0  0  0  0  0  0  # atno 10764 bound_to 10752
  153.9858  135.6784  153.4805 H   0  0  0  0  0  0  0  0  0  0  0  0  # atno 10765 bound_to 10752
  139.9902  134.9518  156.9837 H   0  0  0  0  0  0  0  0  0  0  0  0  # atno 11005 bound_to 11000
  145.9199  140.9122  143.0410 LP  0  0  0  0  0  0  0  0  0  0  0  0  # atno 17320 bound_to 7965
  144.6726  140.1274  143.7446 LP  0  0  0  0  0  0  0  0  0  0  0  0  # atno 17321 bound_to 7965
  139.7378  144.7567  151.0700 LP  0  0  0  0  0  0  0  0  0  0  0  0  # atno 17342 bound_to 10162
  140.7775  143.5009  150.9772 LP  0  0  0  0  0  0  0  0  0  0  0  0  # atno 17343 bound_to 10162
  156.0970  130.5939  150.9830 LP  0  0  0  0  0  0  0  0  0  0  0  0  # atno 17370 bound_to 10713
  157.6439  131.0906  150.8193 LP  0  0  0  0  0  0  0  0  0  0  0  0  # atno 17371 bound_to 10713
  140.4924  134.1180  155.7235 LP  0  0  0  0  0  0  0  0  0  0  0  0  # atno 17394 bound_to 11000
  141.1559  133.8883  157.1978 LP  0  0  0  0  0  0  0  0  0  0  0  0  # atno 17395 bound_to 11000

$$$$
