AV-unprocessed.smi:674|AV-procd|sdf|3299|dock3
  -GOLD-   22720 0263D 1   1.00000     0.00000
 Structure written by MMmdl.
 47 48  0  0  0  0  0  0  0  0  1 V2000
  143.6874  132.2681  150.4467 C   0  0  0  0  0  0  0  0  0  0  0  0
  144.8330  133.2754  150.2941 C   0  0  0  0  0  0  0  0  0  0  0  0
  144.5557  134.5569  151.0285 C   0  0  0  0  0  0  0  0  0  0  0  0
  145.3902  135.7081  151.1253 C   0  0  0  0  0  0  0  0  0  0  0  0
  144.6554  136.5489  151.9161 C   0  0  0  0  0  0  0  0  0  0  0  0
  144.9710  137.7957  152.3577 N   0  0  0  0  0  0  0  0  0  0  0  0
  146.1014  138.2162  152.9517 C   0  0  0  0  0  0  0  0  0  0  0  0
  147.0995  137.5261  153.1599 O   0  0  0  0  0  0  0  0  0  0  0  0
  146.0165  139.5092  153.2924 N   0  0  0  0  0  0  0  0  0  0  0  0
  147.0816  140.2550  153.9543 C   0  0  2  0  0  0  0  0  0  0  0  0
  147.6121  139.5505  155.2016 C   0  0  0  0  0  0  0  0  0  0  0  0
  147.7376  140.9467  155.8422 C   0  0  1  0  0  0  0  0  0  0  0  0
  147.5320  141.1036  157.3540 C   0  0  0  0  0  0  0  0  0  0  0  0
  148.9631  141.5706  155.4344 O   0  0  0  0  0  0  0  0  0  0  0  0
  150.1353  141.2541  156.1754 C   0  0  0  0  0  0  0  0  0  0  0  0
  146.6010  141.4082  154.8717 C   0  0  0  0  0  0  0  0  0  0  0  0
  146.7247  142.8219  154.2932 C   0  0  0  0  0  0  0  0  0  0  0  0
  145.1638  141.3048  155.4171 C   0  0  0  0  0  0  0  0  0  0  0  0
  143.4730  135.9241  152.2507 N   0  0  0  0  0  0  0  0  0  0  0  0
  142.3701  136.3867  153.0706 C   0  0  0  0  0  0  0  0  0  0  0  0
  143.4165  134.6934  151.6987 N   0  0  0  0  0  0  0  0  0  0  0  0
  143.9078  131.3447  149.9111 H   0  0  0  0  0  0  0  0  0  0  0  0
  142.7542  132.6683  150.0494 H   0  0  0  0  0  0  0  0  0  0  0  0
  143.5242  132.0150  151.4947 H   0  0  0  0  0  0  0  0  0  0  0  0
  145.7565  132.8292  150.6642 H   0  0  0  0  0  0  0  0  0  0  0  0
  144.9991  133.4786  149.2356 H   0  0  0  0  0  0  0  0  0  0  0  0
  146.3643  135.8648  150.6873 H   0  0  0  0  0  0  0  0  0  0  0  0
  144.2503  138.4909  152.2324 H   0  0  0  0  0  0  0  0  0  0  0  0
  145.1645  140.0092  153.0850 H   0  0  0  0  0  0  0  0  0  0  0  0
  147.8936  140.5531  153.2865 H   0  0  0  0  0  0  0  0  0  0  0  0
  146.8714  138.9212  155.6984 H   0  0  0  0  0  0  0  0  0  0  0  0
  148.5432  139.0069  155.0448 H   0  0  0  0  0  0  0  0  0  0  0  0
  146.5586  140.7318  157.6719 H   0  0  0  0  0  0  0  0  0  0  0  0
  147.5970  142.1493  157.6553 H   0  0  0  0  0  0  0  0  0  0  0  0
  148.2706  140.5433  157.9266 H   0  0  0  0  0  0  0  0  0  0  0  0
  151.0026  141.6651  155.6591 H   0  0  0  0  0  0  0  0  0  0  0  0
  150.2893  140.1801  156.2744 H   0  0  0  0  0  0  0  0  0  0  0  0
  150.1134  141.6982  157.1704 H   0  0  0  0  0  0  0  0  0  0  0  0
  146.6707  143.5784  155.0766 H   0  0  0  0  0  0  0  0  0  0  0  0
  145.9319  143.0325  153.5746 H   0  0  0  0  0  0  0  0  0  0  0  0
  147.6683  142.9667  153.7666 H   0  0  0  0  0  0  0  0  0  0  0  0
  144.9764  142.0490  156.1917 H   0  0  0  0  0  0  0  0  0  0  0  0
  144.9571  140.3279  155.8541 H   0  0  0  0  0  0  0  0  0  0  0  0
  144.4232  141.4647  154.6326 H   0  0  0  0  0  0  0  0  0  0  0  0
  142.4289  137.4648  153.2200 H   0  0  0  0  0  0  0  0  0  0  0  0
  142.4038  135.8907  154.0412 H   0  0  0  0  0  0  0  0  0  0  0  0
  141.4223  136.1534  152.5838 H   0  0  0  0  0  0  0  0  0  0  0  0
  1  2  1  0  0  0  0
  1 22  1  0  0  0  0
  1 23  1  0  0  0  0
  1 24  1  0  0  0  0
  2  3  1  0  0  0  0
  2 25  1  0  0  0  0
  2 26  1  0  0  0  0
  3 21  2  0  0  0  0
  3  4  1  0  0  0  0
  4  5  2  0  0  0  0
  4 27  1  0  0  0  0
  5  6  1  0  0  0  0
  5 19  1  0  0  0  0
  6  7  1  0  0  0  0
  6 28  1  0  0  0  0
  7  8  2  0  0  0  0
  7  9  1  0  0  0  0
  9 10  1  0  0  0  0
  9 29  1  0  0  0  0
 10 16  1  0  0  0  0
 10 11  1  0  0  0  0
 10 30  1  0  0  0  0
 11 12  1  0  0  0  0
 11 31  1  0  0  0  0
 11 32  1  0  0  0  0
 12 13  1  0  0  0  0
 12 14  1  0  0  0  0
 12 16  1  0  0  0  0
 13 33  1  0  0  0  0
 13 34  1  0  0  0  0
 13 35  1  0  0  0  0
 14 15  1  0  0  0  0
 15 36  1  0  0  0  0
 15 37  1  0  0  0  0
 15 38  1  0  0  0  0
 16 17  1  0  0  0  0
 16 18  1  0  0  0  0
 17 39  1  0  0  0  0
 17 40  1  0  0  0  0
 17 41  1  0  0  0  0
 18 42  1  0  0  0  0
 18 43  1  0  0  0  0
 18 44  1  0  0  0  0
 19 20  1  0  0  0  0
 19 21  1  0  0  0  0
 20 45  1  0  0  0  0
 20 46  1  0  0  0  0
 20 47  1  0  0  0  0
M  END
> <s_m_source_file>
AV-unprocessed.smi

> <i_m_source_file_index>
674

> <i_lp_mmshare_version>
43012

> <i_f3d_flags>
0

> <s_epik_input>
W0NIM11bQ0gyXWMxW2NIXWMobihuMSlbQ0gzXSlbTkhdQyg9TylbTkhdW0NAQEhdKEMyKFtDSDNdKVtDSDNdKVtDSDJdW0NAQF0yKFtDSDNdKU9bQ0gzXQ==

> <s_epik_cmdline>
J2VwaWtfcHl0aG9uJywgJy1waCcsICc3LjAnLCAnLXRuJywgJzgnLCAnLW1hJywgJzIwMCcsICctbWV0YWxfYmluZGluZycsICctaW1hZScsICc8aW5maWxlLm1hZT4nLCAnLW9tYWUnLCAnPG91dGZpbGUubWFlPic=

> <r_lp_tautomer_probability>
1

> <r_epik_Ionization_Penalty>
0.000101626

> <r_epik_Ionization_Penalty_Charging>
0

> <r_epik_Ionization_Penalty_Neutral>
0.000101626

> <r_epik_State_Penalty>
-0

> <r_epik_Charging_Adjusted_Penalty>
0

> <i_epik_Tot_Q>
0

> <i_epik_Tot_abs_Q>
0

> <r_epik_Metal_State_Penalty>
-0

> <b_epik_Metal_Only>
0

> <s_lp_Force_Field>
OPLS_2005

> <r_lp_Energy>
22.7412

> <b_lp_Chiralities_Consistent>
1

> <s_lp_Variant>
AV-unprocessed.smi:674-1

> <Gold.Version>
5.8.1

> <Gold.Id.Protein>
6NUR|6NUR_protein|mol2

> <Gold.PLP.Fitness>
36.3392

> <Gold.PLP.PLP>
-31.7501

> <Gold.PLP.part.hbond>
-3.0000

> <Gold.PLP.part.metal>
0.0000

> <Gold.PLP.part.buried>
-5.3163

> <Gold.PLP.part.nonpolar>
-27.8357

> <Gold.PLP.part.repulsive>
5.0044

> <Gold.PLP.ligand.clash>
0.0000

> <Gold.PLP.ligand.torsion>
0.8274

> <Gold.PLP.Chemscore.Hbond>
1.9516

> <Gold.PLP.Chemscore.CHOScore>
0.0000

> <Gold.PLP.Chemscore.Metal>
0.0000

> <Gold.Chemscore.Hbonds>
donor molecule, donor type, donor heavy atom, donor atom, acceptor molecule, acceptor atom, score
      L1  H     6    28       P1 10175  0.94
      L1  H     9    29       P1 10175  1.00

> <Gold.PLP.Chemscore.Internal.Correction>
0.3890

> <Gold.Rescore>
     Score         DG    S(hbond)    S(metal)    S(lipo)     H(rot)  DE(clash)    DE(int)     intcor
     12.50     -16.22       1.80        0.00      70.41       1.37       1.61       2.12       ----

> <Gold.Chemscore.Fitness>
12.4963

> <Gold.Chemscore.DG>
-16.2234

> <Gold.Chemscore.ZeroCoef>
-5.4800

> <Gold.Chemscore.Hbond>
1.7970

> <Gold.Chemscore.Metal>
0.0000

> <Gold.Chemscore.Lipo>
70.4066

> <Gold.Chemscore.Internal_Hbond>
0.0000

> <Gold.Chemscore.DEClash>
1.6085

> <Gold.Chemscore.DEInternal>
2.1185

> <Gold.Chemscore.Rot>
1.3658

> <Gold.Chemscore.Internal.Correction>
   9.000000E+99

> <Gold.Chemscore.Hbonds>
donor molecule, donor type, donor heavy atom, donor atom, acceptor molecule, acceptor atom, score
      L1  H     6    28       P1 10175  0.85
      L1  H     9    29       P1 10175  1.00

> <Gold.Chemscore.Hbond.Weighted>
-6.0021

> <Gold.Chemscore.Metal.Weighted>
-0.0000

> <Gold.Chemscore.Lipo.Weighted>
-8.2376

> <Gold.Chemscore.Internal_Hbond.Weighted>
0.0000

> <Gold.Chemscore.DEClash.Weighted>
1.6085

> <Gold.Chemscore.DEInternal.Weighted>
2.1185

> <Gold.Chemscore.Rot.Weighted>
3.4963

> <Gold.Chemscore.Internal.Correction.Weighted>
   9.000000E+99

> <Gold.Protein.RotatedTorsions>
[ 6907 6896 6895 6894 ] final   53.09 input  -60.11 | X-H torsion
[ 7974 7965 7964 7962 ] final  162.92 input  175.53 | X-H torsion
[ 8008 7997 7996 7995 ] final   61.01 input   59.86 | X-H torsion
[ 10167 10162 10161 10158 ] final   51.47 input  -65.29 | X-H torsion
[ 10718 10713 10712 10709 ] final  107.87 input   66.30 | X-H torsion
[ 10763 10752 10751 10750 ] final -100.31 input  -60.55 | X-H torsion
[ 11005 11000 10999 10996 ] final  106.34 input  -57.11 | X-H torsion

> <Gold.Protein.ActiveResidues>
 VAL166  LYS551  ARG553  GLY616  TRP617  ASP618  TYR619  PRO620  LYS621  CYS622 
 ASP623  PHE694  ASN695  SER759  ASP760  ASP761  ALA762  ILE779  LEU786  VAL792 
 PHE793  MET794  SER795  GLU796  ALA797  LYS798  CYS799  TRP800  GLU811  SER814 

> <Gold.Protein.RotatedAtoms>
  152.3301  134.7270  160.0291 H   0  0  0  0  0  0  0  0  0  0  0  0  # atno 6907 bound_to 6896
  151.7689  133.3334  159.3447 H   0  0  0  0  0  0  0  0  0  0  0  0  # atno 6908 bound_to 6896
  150.7418  134.5968  159.6060 H   0  0  0  0  0  0  0  0  0  0  0  0  # atno 6909 bound_to 6896
  144.7614  139.8109  143.6331 H   0  0  0  0  0  0  0  0  0  0  0  0  # atno 7974 bound_to 7965
  155.5915  140.3493  155.4568 H   0  0  0  0  0  0  0  0  0  0  0  0  # atno 8008 bound_to 7997
  156.0298  140.1272  157.0295 H   0  0  0  0  0  0  0  0  0  0  0  0  # atno 8009 bound_to 7997
  154.4347  140.1045  156.6069 H   0  0  0  0  0  0  0  0  0  0  0  0  # atno 8010 bound_to 7997
  140.2616  144.3367  150.6316 H   0  0  0  0  0  0  0  0  0  0  0  0  # atno 10167 bound_to 10162
  157.6610  131.0882  150.6221 H   0  0  0  0  0  0  0  0  0  0  0  0  # atno 10718 bound_to 10713
  154.7568  135.4940  153.9390 H   0  0  0  0  0  0  0  0  0  0  0  0  # atno 10763 bound_to 10752
  153.1205  135.6731  153.9351 H   0  0  0  0  0  0  0  0  0  0  0  0  # atno 10764 bound_to 10752
  153.9084  135.3102  155.3427 H   0  0  0  0  0  0  0  0  0  0  0  0  # atno 10765 bound_to 10752
  139.8813  134.9366  156.5652 H   0  0  0  0  0  0  0  0  0  0  0  0  # atno 11005 bound_to 11000
  146.1680  139.4819  142.9946 LP  0  0  0  0  0  0  0  0  0  0  0  0  # atno 17320 bound_to 7965
  145.6609  141.0241  143.1709 LP  0  0  0  0  0  0  0  0  0  0  0  0  # atno 17321 bound_to 7965
  140.5961  143.2167  151.7160 LP  0  0  0  0  0  0  0  0  0  0  0  0  # atno 17342 bound_to 10162
  139.5015  144.3864  152.0324 LP  0  0  0  0  0  0  0  0  0  0  0  0  # atno 17343 bound_to 10162
  156.6524  130.4489  149.5715 LP  0  0  0  0  0  0  0  0  0  0  0  0  # atno 17370 bound_to 10713
  156.2128  130.6689  151.1287 LP  0  0  0  0  0  0  0  0  0  0  0  0  # atno 17371 bound_to 10713
  140.8140  133.8406  155.8835 LP  0  0  0  0  0  0  0  0  0  0  0  0  # atno 17394 bound_to 11000
  140.9480  134.1815  157.4749 LP  0  0  0  0  0  0  0  0  0  0  0  0  # atno 17395 bound_to 11000

$$$$
