AV-unprocessed.smi:224|AV-procd|sdf|1712|dock9
  -GOLD-   2262020183D 1   1.00000     0.00000
 Structure written by MMmdl.
 56 59  0  0  0  0  0  0  0  0  2 V2000
  145.8141  134.5795  150.7670 C   0  0  0  0  0  0  0  0  0  0  0  0
  144.5466  133.7640  150.4815 C   0  0  1  0  0  0  0  0  0  0  0  0
  144.7587  133.0189  149.2995 O   0  0  0  0  0  0  0  0  0  0  0  0
  144.2056  132.7956  151.6280 C   0  0  0  0  0  0  0  0  0  0  0  0
  144.2374  133.4866  152.9477 N   0  3  2  0  0  0  0  0  0  0  0  0
  143.5567  134.8101  152.8692 C   0  0  0  0  0  0  0  0  0  0  0  0
  143.5536  135.5533  154.2158 C   0  0  0  0  0  0  0  0  0  0  0  0
  144.8993  135.6339  154.7740 N   0  0  0  0  0  0  0  0  0  0  0  0
  145.7161  136.6621  154.4165 C   0  0  0  0  0  0  0  0  0  0  0  0
  145.2323  137.6738  153.6469 N   0  0  0  0  0  0  0  0  0  0  0  0
  146.0276  138.6760  153.2627 C   0  0  0  0  0  0  0  0  0  0  0  0
  147.3203  138.8628  153.5305 N   0  0  0  0  0  0  0  0  0  0  0  0
  147.8116  137.8630  154.3164 C   0  0  0  0  0  0  0  0  0  0  0  0
  147.0847  136.7409  154.8069 C   0  0  0  0  0  0  0  0  0  0  0  0
  147.9157  135.9524  155.5951 N   0  0  0  0  0  0  0  0  0  0  0  0
  149.0692  136.5610  155.5557 C   0  0  0  0  0  0  0  0  0  0  0  0
  149.0999  137.7089  154.7973 N   0  0  0  0  0  0  0  0  0  0  0  0
  150.2480  138.5705  154.5627 C   0  0  0  0  0  0  0  0  0  0  0  0
  151.5947  137.9043  154.9302 C   0  0  2  0  0  0  0  0  0  0  0  0
  151.7361  136.7040  154.1899 O   0  0  0  0  0  0  0  0  0  0  0  0
  151.7431  137.5765  156.4139 C   0  0  0  0  0  0  0  0  0  0  0  0
  153.2368  137.7462  156.6521 C   0  0  0  0  0  0  0  0  0  0  0  0
  153.5426  138.8864  155.8684 O   0  0  0  0  0  0  0  0  0  0  0  0
  152.8171  138.7998  154.6461 C   0  0  0  0  0  0  0  0  0  0  0  0
  145.5294  134.3283  154.9253 C   0  0  0  0  0  0  0  0  0  0  0  0
  145.5895  133.5559  153.5875 C   0  0  1  0  0  0  0  0  0  0  0  0
  146.1830  132.1604  153.8739 C   0  0  0  0  0  0  0  0  0  0  0  0
  145.6915  135.1932  151.6599 H   0  0  0  0  0  0  0  0  0  0  0  0
  146.0457  135.2491  149.9379 H   0  0  0  0  0  0  0  0  0  0  0  0
  146.6782  133.9330  150.9248 H   0  0  0  0  0  0  0  0  0  0  0  0
  143.7190  134.4520  150.3085 H   0  0  0  0  0  0  0  0  0  0  0  0
  145.0702  133.6026  148.6242 H   0  0  0  0  0  0  0  0  0  0  0  0
  143.2435  132.3343  151.4192 H   0  0  0  0  0  0  0  0  0  0  0  0
  144.9111  131.9632  151.6360 H   0  0  0  0  0  0  0  0  0  0  0  0
  144.0533  135.4218  152.1151 H   0  0  0  0  0  0  0  0  0  0  0  0
  142.5292  134.6780  152.5305 H   0  0  0  0  0  0  0  0  0  0  0  0
  143.1136  136.5459  154.1102 H   0  0  0  0  0  0  0  0  0  0  0  0
  142.9227  135.0185  154.9269 H   0  0  0  0  0  0  0  0  0  0  0  0
  145.5633  139.4336  152.6487 H   0  0  0  0  0  0  0  0  0  0  0  0
  149.9366  136.1820  156.0764 H   0  0  0  0  0  0  0  0  0  0  0  0
  150.2481  138.8699  153.5137 H   0  0  0  0  0  0  0  0  0  0  0  0
  150.1101  139.4849  155.1412 H   0  0  0  0  0  0  0  0  0  0  0  0
  151.3241  136.8213  153.3477 H   0  0  0  0  0  0  0  0  0  0  0  0
  151.2093  138.3112  157.0176 H   0  0  0  0  0  0  0  0  0  0  0  0
  151.3715  136.5882  156.6880 H   0  0  0  0  0  0  0  0  0  0  0  0
  153.4834  137.8999  157.7028 H   0  0  0  0  0  0  0  0  0  0  0  0
  153.7953  136.8834  156.2861 H   0  0  0  0  0  0  0  0  0  0  0  0
  153.4610  138.3812  153.8708 H   0  0  0  0  0  0  0  0  0  0  0  0
  152.5333  139.8030  154.3269 H   0  0  0  0  0  0  0  0  0  0  0  0
  146.5306  134.4091  155.3449 H   0  0  0  0  0  0  0  0  0  0  0  0
  144.9476  133.7605  155.6527 H   0  0  0  0  0  0  0  0  0  0  0  0
  146.2571  134.0905  152.9095 H   0  0  0  0  0  0  0  0  0  0  0  0
  147.0988  132.2442  154.4597 H   0  0  0  0  0  0  0  0  0  0  0  0
  146.4529  131.6142  152.9720 H   0  0  0  0  0  0  0  0  0  0  0  0
  145.4870  131.5440  154.4443 H   0  0  0  0  0  0  0  0  0  0  0  0
  143.6820  132.9180  153.5715 H   0  0  0  0  0  0  0  0  0  0  0  0
  1  2  1  0  0  0  0
  1 28  1  0  0  0  0
  1 29  1  0  0  0  0
  1 30  1  0  0  0  0
  2  3  1  0  0  0  0
  2  4  1  0  0  0  0
  2 31  1  0  0  0  0
  3 32  1  0  0  0  0
  4  5  1  0  0  0  0
  4 33  1  0  0  0  0
  4 34  1  0  0  0  0
  5 26  1  0  0  0  0
  5  6  1  0  0  0  0
  5 56  1  0  0  0  0
  6  7  1  0  0  0  0
  6 35  1  0  0  0  0
  6 36  1  0  0  0  0
  7  8  1  0  0  0  0
  7 37  1  0  0  0  0
  7 38  1  0  0  0  0
  8  9  1  0  0  0  0
  8 25  1  0  0  0  0
  9 14  1  0  0  0  0
  9 10  2  0  0  0  0
 10 11  1  0  0  0  0
 11 12  2  0  0  0  0
 11 39  1  0  0  0  0
 12 13  1  0  0  0  0
 13 17  1  0  0  0  0
 13 14  2  0  0  0  0
 14 15  1  0  0  0  0
 15 16  2  0  0  0  0
 16 17  1  0  0  0  0
 16 40  1  0  0  0  0
 17 18  1  0  0  0  0
 18 19  1  0  0  0  0
 18 41  1  0  0  0  0
 18 42  1  0  0  0  0
 19 24  1  0  0  0  0
 19 20  1  0  0  0  0
 19 21  1  0  0  0  0
 20 43  1  0  0  0  0
 21 22  1  0  0  0  0
 21 44  1  0  0  0  0
 21 45  1  0  0  0  0
 22 23  1  0  0  0  0
 22 46  1  0  0  0  0
 22 47  1  0  0  0  0
 23 24  1  0  0  0  0
 24 48  1  0  0  0  0
 24 49  1  0  0  0  0
 25 26  1  0  0  0  0
 25 50  1  0  0  0  0
 25 51  1  0  0  0  0
 26 27  1  0  0  0  0
 26 52  1  0  0  0  0
 27 53  1  0  0  0  0
 27 54  1  0  0  0  0
 27 55  1  0  0  0  0
M  CHG  1   5   1
M  END
> <s_m_source_file>
AV-unprocessed.smi

> <i_m_source_file_index>
224

> <i_lp_mmshare_version>
43012

> <i_f3d_flags>
0

> <s_epik_input>
W0NIM11bQ0BIXShbT0hdKVtDSDJdTjFbQ0gyXVtDSDJdTihbQ0gyXVtDQEhdMVtDSDNdKWMobltjSF1uMiljKGMyMyluW2NIXW4zW0NIMl1bQ0BAXTQoW09IXSlbQ0gyXVtDSDJdT1tDSDJdNA==

> <s_epik_cmdline>
J2VwaWtfcHl0aG9uJywgJy1waCcsICc3LjAnLCAnLXRuJywgJzgnLCAnLW1hJywgJzIwMCcsICctbWV0YWxfYmluZGluZycsICctaW1hZScsICc8aW5maWxlLm1hZT4nLCAnLW9tYWUnLCAnPG91dGZpbGUubWFlPic=

> <r_lp_tautomer_probability>
1

> <r_epik_Ionization_Penalty>
0.00516958

> <r_epik_Ionization_Penalty_Charging>
0.00509693

> <r_epik_Ionization_Penalty_Neutral>
7.26542e-05

> <r_epik_State_Penalty>
-0

> <r_epik_Charging_Adjusted_Penalty>
0.00509693

> <i_epik_Tot_Q>
1

> <i_epik_Tot_abs_Q>
1

> <r_epik_Metal_State_Penalty>
-0

> <b_epik_Metal_Only>
0

> <s_lp_Force_Field>
OPLS_2005

> <r_lp_Energy>
47.1484

> <b_lp_Chiralities_Consistent>
1

> <s_lp_Variant>
AV-unprocessed.smi:224-6

> <Gold.Version>
5.8.1

> <Gold.Id.Protein>
6NUR|6NUR_protein|mol2

> <Gold.PLP.Fitness>
47.9210

> <Gold.PLP.PLP>
-29.4844

> <Gold.PLP.part.hbond>
-4.6412

> <Gold.PLP.part.metal>
0.0000

> <Gold.PLP.part.buried>
-4.8466

> <Gold.PLP.part.nonpolar>
-20.7723

> <Gold.PLP.part.repulsive>
0.4391

> <Gold.PLP.ligand.clash>
0.4714

> <Gold.PLP.ligand.torsion>
0.8883

> <Gold.PLP.Chemscore.Hbond>
5.7200

> <Gold.PLP.Chemscore.CHOScore>
1.0000

> <Gold.PLP.Chemscore.Metal>
0.0000

> <Gold.Chemscore.Hbonds>
donor molecule, donor type, donor heavy atom, donor atom, acceptor molecule, acceptor atom, score
      L1  H     3    32       P1  7921  1.00
      L1  H     5    56       P1 10957  2.00
      L1  H    20    43       P1  7949  0.83
      P1  H  7997  8009       L1    23  0.87
      P1  H 10752 10765       L1    20  1.00
      L1  C    11    39       P1 10175  1.00

> <Gold.PLP.Chemscore.Internal.Correction>
0.5245

> <Gold.Rescore>
     Score         DG    S(hbond)    S(metal)    S(lipo)     H(rot)  DE(clash)    DE(int)     intcor
     14.66     -18.91       4.25        0.00      67.15       3.36       0.04       4.21       ----

> <Gold.Chemscore.Fitness>
14.6605

> <Gold.Chemscore.DG>
-18.9119

> <Gold.Chemscore.ZeroCoef>
-5.4800

> <Gold.Chemscore.Hbond>
4.2456

> <Gold.Chemscore.Metal>
0.0000

> <Gold.Chemscore.Lipo>
67.1464

> <Gold.Chemscore.Internal_Hbond>
0.0000

> <Gold.Chemscore.DEClash>
0.0396

> <Gold.Chemscore.DEInternal>
4.2118

> <Gold.Chemscore.Rot>
3.3611

> <Gold.Chemscore.Internal.Correction>
   9.000000E+99

> <Gold.Chemscore.Hbonds>
donor molecule, donor type, donor heavy atom, donor atom, acceptor molecule, acceptor atom, score
      L1  H     3    32       P1  7921  0.78
      L1  H     5    56       P1 10957  0.84
      L1  H    20    43       P1  7949  0.53
      P1  H  7997  8009       L1    23  0.79
      P1  H 10752 10765       L1    20  0.97

> <Gold.Chemscore.Hbond.Weighted>
-14.1803

> <Gold.Chemscore.Metal.Weighted>
-0.0000

> <Gold.Chemscore.Lipo.Weighted>
-7.8561

> <Gold.Chemscore.Internal_Hbond.Weighted>
0.0000

> <Gold.Chemscore.DEClash.Weighted>
0.0396

> <Gold.Chemscore.DEInternal.Weighted>
4.2118

> <Gold.Chemscore.Rot.Weighted>
8.6045

> <Gold.Chemscore.Internal.Correction.Weighted>
   9.000000E+99

> <Gold.Protein.RotatedTorsions>
[ 6907 6896 6895 6894 ] final  145.62 input  -60.11 | X-H torsion
[ 7974 7965 7964 7962 ] final -170.31 input  175.53 | X-H torsion
[ 8008 7997 7996 7995 ] final -151.23 input   59.86 | X-H torsion
[ 10167 10162 10161 10158 ] final    0.55 input  -65.29 | X-H torsion
[ 10718 10713 10712 10709 ] final  -94.66 input   66.30 | X-H torsion
[ 10763 10752 10751 10750 ] final  172.68 input  -60.55 | X-H torsion
[ 11005 11000 10999 10996 ] final  170.65 input  -57.11 | X-H torsion

> <Gold.Protein.ActiveResidues>
 VAL166  LYS551  ARG553  GLY616  TRP617  ASP618  TYR619  PRO620  LYS621  CYS622 
 ASP623  PHE694  ASN695  SER759  ASP760  ASP761  ALA762  ILE779  LEU786  VAL792 
 PHE793  MET794  SER795  GLU796  ALA797  LYS798  CYS799  TRP800  GLU811  SER814 

> <Gold.Protein.RotatedAtoms>
  152.1786  133.4691  159.4945 H   0  0  0  0  0  0  0  0  0  0  0  0  # atno 6907 bound_to 6896
  150.6931  134.1863  159.4277 H   0  0  0  0  0  0  0  0  0  0  0  0  # atno 6908 bound_to 6896
  151.9773  135.0046  160.0606 H   0  0  0  0  0  0  0  0  0  0  0  0  # atno 6909 bound_to 6896
  144.7172  140.2091  143.6329 H   0  0  0  0  0  0  0  0  0  0  0  0  # atno 7974 bound_to 7965
  155.6361  140.0696  157.2633 H   0  0  0  0  0  0  0  0  0  0  0  0  # atno 8008 bound_to 7997
  154.4194  140.1759  156.1573 H   0  0  0  0  0  0  0  0  0  0  0  0  # atno 8009 bound_to 7997
  155.9893  140.3346  155.6741 H   0  0  0  0  0  0  0  0  0  0  0  0  # atno 8010 bound_to 7997
  140.6723  143.7013  150.7950 H   0  0  0  0  0  0  0  0  0  0  0  0  # atno 10167 bound_to 10162
  156.0030  130.5077  150.5960 H   0  0  0  0  0  0  0  0  0  0  0  0  # atno 10718 bound_to 10713
  154.4295  135.2759  155.1922 H   0  0  0  0  0  0  0  0  0  0  0  0  # atno 10763 bound_to 10752
  154.3834  135.6082  153.5806 H   0  0  0  0  0  0  0  0  0  0  0  0  # atno 10764 bound_to 10752
  152.9835  135.5886  154.4604 H   0  0  0  0  0  0  0  0  0  0  0  0  # atno 10765 bound_to 10752
  140.3106  134.7519  157.3988 H   0  0  0  0  0  0  0  0  0  0  0  0  # atno 11005 bound_to 11000
  145.8607  139.2221  143.1718 LP  0  0  0  0  0  0  0  0  0  0  0  0  # atno 17320 bound_to 7965
  146.0176  140.8378  142.9940 LP  0  0  0  0  0  0  0  0  0  0  0  0  # atno 17321 bound_to 7965
  140.0700  143.5070  152.2584 LP  0  0  0  0  0  0  0  0  0  0  0  0  # atno 17342 bound_to 10162
  139.5998  144.7579  151.3199 LP  0  0  0  0  0  0  0  0  0  0  0  0  # atno 17343 bound_to 10162
  157.3817  131.0782  151.1471 LP  0  0  0  0  0  0  0  0  0  0  0  0  # atno 17370 bound_to 10713
  157.2192  130.6473  149.5804 LP  0  0  0  0  0  0  0  0  0  0  0  0  # atno 17371 bound_to 10713
  140.1028  134.5450  155.8337 LP  0  0  0  0  0  0  0  0  0  0  0  0  # atno 17394 bound_to 11000
  141.2109  133.6700  156.6541 LP  0  0  0  0  0  0  0  0  0  0  0  0  # atno 17395 bound_to 11000

$$$$
