AV-unprocessed.smi:220|AV-procd|sdf|1685|dock1
  -GOLD-   2262020123D 1   1.00000     0.00000
 Structure written by MMmdl.
 51 55  0  0  0  0  0  0  0  0  1 V2000
  154.3128  140.2637  160.8970 N   0  0  0  0  0  0  0  0  0  0  0  0
  153.6593  140.3291  159.7348 C   0  0  0  0  0  0  0  0  0  0  0  0
  153.9182  139.5786  158.7952 O   0  0  0  0  0  0  0  0  0  0  0  0
  152.5690  141.4074  159.6124 C   0  0  1  0  0  0  0  0  0  0  0  0
  153.1473  142.8238  159.8328 C   0  0  2  0  0  0  0  0  0  0  0  0
  152.8853  143.4036  161.2321 C   0  0  0  0  0  0  0  0  0  0  0  0
  151.6233  144.2537  161.0801 C   0  0  0  0  0  0  0  0  0  0  0  0
  151.7336  144.8377  159.6716 C   0  0  0  0  0  0  0  0  0  0  0  0
  152.4107  143.7377  158.8414 C   0  0  2  0  0  0  0  0  0  0  0  0
  151.4414  142.8138  158.0985 C   0  0  0  0  0  0  0  0  0  0  0  0
  151.9690  141.4711  158.2780 N   0  0  0  0  0  0  0  0  0  0  0  0
  151.1576  140.4753  157.8318 C   0  0  0  0  0  0  0  0  0  0  0  0
  150.8341  139.4354  158.6469 N   0  0  0  0  0  0  0  0  0  0  0  0
  150.0249  138.4639  158.2160 C   0  0  0  0  0  0  0  0  0  0  0  0
  149.4334  138.3380  157.0274 N   0  0  0  0  0  0  0  0  0  0  0  0
  149.7546  139.3750  156.2025 C   0  0  0  0  0  0  0  0  0  0  0  0
  150.6036  140.4727  156.5206 C   0  0  0  0  0  0  0  0  0  0  0  0
  150.7069  141.3214  155.4249 N   0  0  0  0  0  0  0  0  0  0  0  0
  149.9544  140.7642  154.5164 C   0  0  0  0  0  0  0  0  0  0  0  0
  149.3321  139.5985  154.9029 N   0  0  0  0  0  0  0  0  0  0  0  0
  148.4371  138.7795  154.0996 C   0  0  0  0  0  0  0  0  0  0  0  0
  147.0796  139.4503  153.8072 C   0  0  0  0  0  0  0  0  0  0  0  0
  146.2967  138.6452  152.7549 C   0  0  0  0  0  0  0  0  0  0  0  0
  146.9222  138.7073  151.4893 O   0  0  0  0  0  0  0  0  0  0  0  0
  146.2535  139.8556  155.0364 C   0  0  0  0  0  0  0  0  0  0  0  0
  146.0823  141.2029  154.5489 O   0  0  0  0  0  0  0  0  0  0  0  0
  147.1150  140.9662  153.5686 C   0  0  0  0  0  0  0  0  0  0  0  0
  155.0340  139.5694  161.0272 H   0  0  0  0  0  0  0  0  0  0  0  0
  154.0810  140.9043  161.6422 H   0  0  0  0  0  0  0  0  0  0  0  0
  151.7803  141.2201  160.3446 H   0  0  0  0  0  0  0  0  0  0  0  0
  154.2176  142.8453  159.6176 H   0  0  0  0  0  0  0  0  0  0  0  0
  152.7869  142.6389  162.0032 H   0  0  0  0  0  0  0  0  0  0  0  0
  153.7187  144.0468  161.5179 H   0  0  0  0  0  0  0  0  0  0  0  0
  150.7404  143.6166  161.1462 H   0  0  0  0  0  0  0  0  0  0  0  0
  151.5385  145.0224  161.8487 H   0  0  0  0  0  0  0  0  0  0  0  0
  150.7700  145.1500  159.2676 H   0  0  0  0  0  0  0  0  0  0  0  0
  152.3772  145.7180  159.6977 H   0  0  0  0  0  0  0  0  0  0  0  0
  153.1173  144.1694  158.1310 H   0  0  0  0  0  0  0  0  0  0  0  0
  150.4373  142.8665  158.5241 H   0  0  0  0  0  0  0  0  0  0  0  0
  151.3744  143.0947  157.0478 H   0  0  0  0  0  0  0  0  0  0  0  0
  149.8203  137.6765  158.9264 H   0  0  0  0  0  0  0  0  0  0  0  0
  149.8317  141.1951  153.5339 H   0  0  0  0  0  0  0  0  0  0  0  0
  148.9543  138.5444  153.1685 H   0  0  0  0  0  0  0  0  0  0  0  0
  148.2964  137.8218  154.6016 H   0  0  0  0  0  0  0  0  0  0  0  0
  146.1833  137.6012  153.0466 H   0  0  0  0  0  0  0  0  0  0  0  0
  145.2855  139.0380  152.6448 H   0  0  0  0  0  0  0  0  0  0  0  0
  147.6429  138.0961  151.4789 H   0  0  0  0  0  0  0  0  0  0  0  0
  145.3090  139.3193  155.1346 H   0  0  0  0  0  0  0  0  0  0  0  0
  146.8089  139.8396  155.9749 H   0  0  0  0  0  0  0  0  0  0  0  0
  148.0575  141.4381  153.8514 H   0  0  0  0  0  0  0  0  0  0  0  0
  146.8162  141.2677  152.5639 H   0  0  0  0  0  0  0  0  0  0  0  0
  1  2  1  0  0  0  0
  1 28  1  0  0  0  0
  1 29  1  0  0  0  0
  2  3  2  0  0  0  0
  2  4  1  0  0  0  0
  4 11  1  0  0  0  0
  4  5  1  0  0  0  0
  4 30  1  0  0  0  0
  5  9  1  0  0  0  0
  5  6  1  0  0  0  0
  5 31  1  0  0  0  0
  6  7  1  0  0  0  0
  6 32  1  0  0  0  0
  6 33  1  0  0  0  0
  7  8  1  0  0  0  0
  7 34  1  0  0  0  0
  7 35  1  0  0  0  0
  8  9  1  0  0  0  0
  8 36  1  0  0  0  0
  8 37  1  0  0  0  0
  9 10  1  0  0  0  0
  9 38  1  0  0  0  0
 10 11  1  0  0  0  0
 10 39  1  0  0  0  0
 10 40  1  0  0  0  0
 11 12  1  0  0  0  0
 12 17  1  0  0  0  0
 12 13  2  0  0  0  0
 13 14  1  0  0  0  0
 14 15  2  0  0  0  0
 14 41  1  0  0  0  0
 15 16  1  0  0  0  0
 16 20  1  0  0  0  0
 16 17  2  0  0  0  0
 17 18  1  0  0  0  0
 18 19  2  0  0  0  0
 19 20  1  0  0  0  0
 19 42  1  0  0  0  0
 20 21  1  0  0  0  0
 21 22  1  0  0  0  0
 21 43  1  0  0  0  0
 21 44  1  0  0  0  0
 22 27  1  0  0  0  0
 22 23  1  0  0  0  0
 22 25  1  0  0  0  0
 23 24  1  0  0  0  0
 23 45  1  0  0  0  0
 23 46  1  0  0  0  0
 24 47  1  0  0  0  0
 25 26  1  0  0  0  0
 25 48  1  0  0  0  0
 25 49  1  0  0  0  0
 26 27  1  0  0  0  0
 27 50  1  0  0  0  0
 27 51  1  0  0  0  0
M  END
> <s_m_source_file>
AV-unprocessed.smi

> <i_m_source_file_index>
220

> <i_lp_mmshare_version>
43012

> <i_f3d_flags>
0

> <s_epik_input>
W0NIMl0xW0NIMl1bQ0gyXVtDQEhdKFtDQEhdMTIpW0NIMl1OKFtDQEBIXTJDKD1PKVtOSDJdKWMobltjSF1uMyljKGMzNCluW2NIXW40W0NIMl1DNShbQ0gyXVtPSF0pW0NIMl1PW0NIMl01

> <s_epik_cmdline>
J2VwaWtfcHl0aG9uJywgJy1waCcsICc3LjAnLCAnLXRuJywgJzgnLCAnLW1hJywgJzIwMCcsICctbWV0YWxfYmluZGluZycsICctaW1hZScsICc8aW5maWxlLm1hZT4nLCAnLW9tYWUnLCAnPG91dGZpbGUubWFlPic=

> <r_lp_tautomer_probability>
1

> <r_epik_Ionization_Penalty>
0.00118987

> <r_epik_Ionization_Penalty_Charging>
0

> <r_epik_Ionization_Penalty_Neutral>
0.00118987

> <r_epik_State_Penalty>
0.000654261

> <r_epik_Charging_Adjusted_Penalty>
0.000654261

> <i_epik_Tot_Q>
0

> <i_epik_Tot_abs_Q>
0

> <r_epik_Metal_State_Penalty>
-0

> <b_epik_Metal_Only>
0

> <s_lp_Force_Field>
OPLS_2005

> <r_lp_Energy>
59.1601

> <b_lp_Chiralities_Consistent>
1

> <s_lp_Variant>
AV-unprocessed.smi:220-4

> <Gold.Version>
5.8.1

> <Gold.Id.Protein>
6NUR|6NUR_protein|mol2

> <Gold.PLP.Fitness>
55.8413

> <Gold.PLP.PLP>
-47.2278

> <Gold.PLP.part.hbond>
-5.0000

> <Gold.PLP.part.metal>
0.0000

> <Gold.PLP.part.buried>
-3.1204

> <Gold.PLP.part.nonpolar>
-39.6525

> <Gold.PLP.part.repulsive>
0.2502

> <Gold.PLP.ligand.clash>
0.0000

> <Gold.PLP.ligand.torsion>
0.4353

> <Gold.PLP.Chemscore.Hbond>
2.0000

> <Gold.PLP.Chemscore.CHOScore>
0.9926

> <Gold.PLP.Chemscore.Metal>
0.0000

> <Gold.Chemscore.Hbonds>
donor molecule, donor type, donor heavy atom, donor atom, acceptor molecule, acceptor atom, score
      L1  H    24    47       P1  7948  0.41
      P1  H  7997  8010       L1     3  1.00
      L1  C    19    42       P1  7957  0.73

> <Gold.PLP.Chemscore.Internal.Correction>
0.5064

> <Gold.Rescore>
     Score         DG    S(hbond)    S(metal)    S(lipo)     H(rot)  DE(clash)    DE(int)     intcor
     13.34     -16.53       1.99        0.00     109.13       3.27       1.06       2.13       ----

> <Gold.Chemscore.Fitness>
13.3418

> <Gold.Chemscore.DG>
-16.5315

> <Gold.Chemscore.ZeroCoef>
-5.4800

> <Gold.Chemscore.Hbond>
1.9925

> <Gold.Chemscore.Metal>
0.0000

> <Gold.Chemscore.Lipo>
109.1342

> <Gold.Chemscore.Internal_Hbond>
0.0000

> <Gold.Chemscore.DEClash>
1.0631

> <Gold.Chemscore.DEInternal>
2.1266

> <Gold.Chemscore.Rot>
3.2703

> <Gold.Chemscore.Internal.Correction>
   9.000000E+99

> <Gold.Chemscore.Hbonds>
donor molecule, donor type, donor heavy atom, donor atom, acceptor molecule, acceptor atom, score
      L1  H    24    47       P1  7948  0.39
      P1  H  7997  8010       L1     3  1.00

> <Gold.Chemscore.Hbond.Weighted>
-6.6549

> <Gold.Chemscore.Metal.Weighted>
-0.0000

> <Gold.Chemscore.Lipo.Weighted>
-12.7687

> <Gold.Chemscore.Internal_Hbond.Weighted>
0.0000

> <Gold.Chemscore.DEClash.Weighted>
1.0631

> <Gold.Chemscore.DEInternal.Weighted>
2.1266

> <Gold.Chemscore.Rot.Weighted>
8.3721

> <Gold.Chemscore.Internal.Correction.Weighted>
   9.000000E+99

> <Gold.Protein.RotatedTorsions>
[ 6907 6896 6895 6894 ] final -178.54 input  -60.11 | X-H torsion
[ 7974 7965 7964 7962 ] final  149.73 input  175.53 | X-H torsion
[ 8008 7997 7996 7995 ] final   15.25 input   59.86 | X-H torsion
[ 10167 10162 10161 10158 ] final  179.80 input  -65.29 | X-H torsion
[ 10718 10713 10712 10709 ] final -112.45 input   66.30 | X-H torsion
[ 10763 10752 10751 10750 ] final  104.80 input  -60.55 | X-H torsion
[ 11005 11000 10999 10996 ] final  -34.11 input  -57.11 | X-H torsion

> <Gold.Protein.ActiveResidues>
 VAL166  LYS551  ARG553  GLY616  TRP617  ASP618  TYR619  PRO620  LYS621  CYS622 
 ASP623  PHE694  ASN695  SER759  ASP760  ASP761  ALA762  ILE779  LEU786  VAL792 
 PHE793  MET794  SER795  GLU796  ALA797  LYS798  CYS799  TRP800  GLU811  SER814 

> <Gold.Protein.RotatedAtoms>
  151.6389  133.3327  159.3125 H   0  0  0  0  0  0  0  0  0  0  0  0  # atno 6907 bound_to 6896
  150.8018  134.7120  159.6619 H   0  0  0  0  0  0  0  0  0  0  0  0  # atno 6908 bound_to 6896
  152.4111  134.6127  160.0081 H   0  0  0  0  0  0  0  0  0  0  0  0  # atno 6909 bound_to 6896
  144.8416  139.6318  143.6014 H   0  0  0  0  0  0  0  0  0  0  0  0  # atno 7974 bound_to 7965
  154.8600  140.2943  155.5545 H   0  0  0  0  0  0  0  0  0  0  0  0  # atno 8008 bound_to 7997
  156.3019  140.2480  156.3505 H   0  0  0  0  0  0  0  0  0  0  0  0  # atno 8009 bound_to 7997
  154.8928  140.0394  157.1838 H   0  0  0  0  0  0  0  0  0  0  0  0  # atno 8010 bound_to 7997
  139.5352  144.2517  152.0779 H   0  0  0  0  0  0  0  0  0  0  0  0  # atno 10167 bound_to 10162
  156.0707  130.5921  150.8510 H   0  0  0  0  0  0  0  0  0  0  0  0  # atno 10718 bound_to 10713
  153.3707  135.3931  155.1787 H   0  0  0  0  0  0  0  0  0  0  0  0  # atno 10763 bound_to 10752
  154.8694  135.3702  154.4981 H   0  0  0  0  0  0  0  0  0  0  0  0  # atno 10764 bound_to 10752
  153.5448  135.7084  153.5680 H   0  0  0  0  0  0  0  0  0  0  0  0  # atno 10765 bound_to 10752
  140.9690  133.7120  156.1492 H   0  0  0  0  0  0  0  0  0  0  0  0  # atno 11005 bound_to 11000
  146.2708  139.6630  142.9297 LP  0  0  0  0  0  0  0  0  0  0  0  0  # atno 17320 bound_to 7965
  145.4682  141.0435  143.2713 LP  0  0  0  0  0  0  0  0  0  0  0  0  # atno 17321 bound_to 7965
  140.1987  144.4680  150.6442 LP  0  0  0  0  0  0  0  0  0  0  0  0  # atno 17342 bound_to 10162
  140.6555  143.2236  151.5979 LP  0  0  0  0  0  0  0  0  0  0  0  0  # atno 17343 bound_to 10162
  157.5775  131.0946  150.9322 LP  0  0  0  0  0  0  0  0  0  0  0  0  # atno 17370 bound_to 10713
  156.9525  130.5425  149.5283 LP  0  0  0  0  0  0  0  0  0  0  0  0  # atno 17371 bound_to 10713
  140.7357  134.4205  157.5561 LP  0  0  0  0  0  0  0  0  0  0  0  0  # atno 17394 bound_to 11000
  139.8905  134.8803  156.2366 LP  0  0  0  0  0  0  0  0  0  0  0  0  # atno 17395 bound_to 11000

$$$$
