AV-unprocessed.smi:2812|AV-procd|sdf|10835|dock5
  -GOLD-   2272015273D 1   1.00000     0.00000
 Structure written by MMmdl.
 55 56  0  0  0  0  0  0  0  0  2 V2000
  146.7443  132.5716  160.2289 C   0  0  0  0  0  0  0  0  0  0  0  0
  146.9973  133.8595  160.9967 C   0  0  0  0  0  0  0  0  0  0  0  0
  146.8634  133.8595  162.4387 C   0  0  0  0  0  0  0  0  0  0  0  0
  147.0693  134.9947  163.1197 C   0  0  0  0  0  0  0  0  0  0  0  0
  147.4270  136.1868  162.4736 N   0  0  0  0  0  0  0  0  0  0  0  0
  147.6475  137.3702  163.3093 C   0  0  0  0  0  0  0  0  0  0  0  0
  147.6027  136.2599  161.1228 C   0  0  0  0  0  0  0  0  0  0  0  0
  147.9875  137.3039  160.5908 O   0  0  0  0  0  0  0  0  0  0  0  0
  147.3225  135.0171  160.3636 C   0  0  0  0  0  0  0  0  0  0  0  0
  147.4650  135.0097  158.9676 N   0  0  0  0  0  0  0  0  0  0  0  0
  148.4850  135.5454  158.2746 C   0  0  0  0  0  0  0  0  0  0  0  0
  149.4720  136.0854  158.7761 O   0  0  0  0  0  0  0  0  0  0  0  0
  148.2792  135.4575  156.9528 N   0  0  0  0  0  0  0  0  0  0  0  0
  149.1738  135.9907  155.9286 C   0  0  0  0  0  0  0  0  0  0  0  0
  148.8033  137.4338  155.4758 C   0  0  2  0  0  0  0  0  0  0  0  0
  147.2607  137.5884  155.4103 C   0  0  0  0  0  0  0  0  0  0  0  0
  146.8323  138.9938  154.9856 C   0  0  0  0  0  0  0  0  0  0  0  0
  147.4851  139.3374  153.6500 C   0  0  0  0  0  0  0  0  0  0  0  0
  149.0088  139.2000  153.7506 C   0  0  0  0  0  0  0  0  0  0  0  0
  149.4255  137.8272  154.1639 N   0  3  1  0  0  0  0  0  0  0  0  0
  150.9105  137.6637  154.1039 C   0  0  0  0  0  0  0  0  0  0  0  0
  151.7109  138.8764  154.6379 C   0  0  0  0  0  0  0  0  0  0  0  0
  153.2284  138.6270  154.6045 C   0  0  0  0  0  0  0  0  0  0  0  0
  151.2604  139.2280  156.0639 C   0  0  0  0  0  0  0  0  0  0  0  0
  146.4842  131.7549  160.9027 H   0  0  0  0  0  0  0  0  0  0  0  0
  147.6332  132.2763  159.6709 H   0  0  0  0  0  0  0  0  0  0  0  0
  145.9210  132.7019  159.5259 H   0  0  0  0  0  0  0  0  0  0  0  0
  146.5934  132.9563  162.9661 H   0  0  0  0  0  0  0  0  0  0  0  0
  146.9825  135.0564  164.1948 H   0  0  0  0  0  0  0  0  0  0  0  0
  147.0672  138.2184  162.9427 H   0  0  0  0  0  0  0  0  0  0  0  0
  148.7020  137.6494  163.3008 H   0  0  0  0  0  0  0  0  0  0  0  0
  147.3578  137.2105  164.3485 H   0  0  0  0  0  0  0  0  0  0  0  0
  146.6587  134.6998  158.4453 H   0  0  0  0  0  0  0  0  0  0  0  0
  147.4383  135.0000  156.6316 H   0  0  0  0  0  0  0  0  0  0  0  0
  150.1765  135.9364  156.3497 H   0  0  0  0  0  0  0  0  0  0  0  0
  149.1528  135.3129  155.0747 H   0  0  0  0  0  0  0  0  0  0  0  0
  149.1806  138.1315  156.2254 H   0  0  0  0  0  0  0  0  0  0  0  0
  146.8488  136.8570  154.7135 H   0  0  0  0  0  0  0  0  0  0  0  0
  146.8053  137.3779  156.3779 H   0  0  0  0  0  0  0  0  0  0  0  0
  145.7466  139.0498  154.9017 H   0  0  0  0  0  0  0  0  0  0  0  0
  147.1283  139.7194  155.7446 H   0  0  0  0  0  0  0  0  0  0  0  0
  147.1038  138.6795  152.8676 H   0  0  0  0  0  0  0  0  0  0  0  0
  147.2206  140.3541  153.3578 H   0  0  0  0  0  0  0  0  0  0  0  0
  149.4171  139.4580  152.7762 H   0  0  0  0  0  0  0  0  0  0  0  0
  149.4047  139.9289  154.4598 H   0  0  0  0  0  0  0  0  0  0  0  0
  151.1903  136.7562  154.6413 H   0  0  0  0  0  0  0  0  0  0  0  0
  151.2467  137.5269  153.0807 H   0  0  0  0  0  0  0  0  0  0  0  0
  151.4986  139.7570  154.0342 H   0  0  0  0  0  0  0  0  0  0  0  0
  153.5004  137.7539  155.1988 H   0  0  0  0  0  0  0  0  0  0  0  0
  153.7748  139.4823  155.0031 H   0  0  0  0  0  0  0  0  0  0  0  0
  153.5852  138.4626  153.5876 H   0  0  0  0  0  0  0  0  0  0  0  0
  151.4539  138.4080  156.7566 H   0  0  0  0  0  0  0  0  0  0  0  0
  150.1925  139.4463  156.0970 H   0  0  0  0  0  0  0  0  0  0  0  0
  151.7856  140.1077  156.4376 H   0  0  0  0  0  0  0  0  0  0  0  0
  149.0471  137.1915  153.4764 H   0  0  0  0  0  0  0  0  0  0  0  0
  1  2  1  0  0  0  0
  1 25  1  0  0  0  0
  1 26  1  0  0  0  0
  1 27  1  0  0  0  0
  2  9  2  0  0  0  0
  2  3  1  0  0  0  0
  3  4  2  0  0  0  0
  3 28  1  0  0  0  0
  4  5  1  0  0  0  0
  4 29  1  0  0  0  0
  5  6  1  0  0  0  0
  5  7  1  0  0  0  0
  6 30  1  0  0  0  0
  6 31  1  0  0  0  0
  6 32  1  0  0  0  0
  7  8  2  0  0  0  0
  7  9  1  0  0  0  0
  9 10  1  0  0  0  0
 10 11  1  0  0  0  0
 10 33  1  0  0  0  0
 11 12  2  0  0  0  0
 11 13  1  0  0  0  0
 13 14  1  0  0  0  0
 13 34  1  0  0  0  0
 14 15  1  0  0  0  0
 14 35  1  0  0  0  0
 14 36  1  0  0  0  0
 15 20  1  0  0  0  0
 15 16  1  0  0  0  0
 15 37  1  0  0  0  0
 16 17  1  0  0  0  0
 16 38  1  0  0  0  0
 16 39  1  0  0  0  0
 17 18  1  0  0  0  0
 17 40  1  0  0  0  0
 17 41  1  0  0  0  0
 18 19  1  0  0  0  0
 18 42  1  0  0  0  0
 18 43  1  0  0  0  0
 19 20  1  0  0  0  0
 19 44  1  0  0  0  0
 19 45  1  0  0  0  0
 20 21  1  0  0  0  0
 20 55  1  0  0  0  0
 21 22  1  0  0  0  0
 21 46  1  0  0  0  0
 21 47  1  0  0  0  0
 22 23  1  0  0  0  0
 22 24  1  0  0  0  0
 22 48  1  0  0  0  0
 23 49  1  0  0  0  0
 23 50  1  0  0  0  0
 23 51  1  0  0  0  0
 24 52  1  0  0  0  0
 24 53  1  0  0  0  0
 24 54  1  0  0  0  0
M  CHG  1  20   1
M  END
> <s_m_source_file>
AV-unprocessed.smi

> <i_m_source_file_index>
2812

> <i_lp_mmshare_version>
43012

> <i_f3d_flags>
0

> <s_epik_input>
W0NIM11jMVtjSF1bY0hdbihbQ0gzXSljKD1PKWMxW05IXUMoPU8pW05IXVtDSDJdW0NAQEhdMltDSDJdW0NIMl1bQ0gyXVtDSDJdTjJbQ0gyXVtDSF0oW0NIM10pW0NIM10=

> <s_epik_cmdline>
J2VwaWtfcHl0aG9uJywgJy1waCcsICc3LjAnLCAnLXRuJywgJzgnLCAnLW1hJywgJzIwMCcsICctbWV0YWxfYmluZGluZycsICctaW1hZScsICc8aW5maWxlLm1hZT4nLCAnLW9tYWUnLCAnPG91dGZpbGUubWFlPic=

> <r_lp_tautomer_probability>
1

> <r_epik_Ionization_Penalty>
0.0010902

> <r_epik_Ionization_Penalty_Charging>
0.00107091

> <r_epik_Ionization_Penalty_Neutral>
1.92854e-05

> <r_epik_State_Penalty>
0.000697184

> <r_epik_Charging_Adjusted_Penalty>
0.0017681

> <i_epik_Tot_Q>
1

> <i_epik_Tot_abs_Q>
1

> <r_epik_Metal_State_Penalty>
-0

> <b_epik_Metal_Only>
0

> <s_lp_Force_Field>
OPLS_2005

> <r_lp_Energy>
39.8559

> <b_lp_Chiralities_Consistent>
1

> <s_lp_Variant>
AV-unprocessed.smi:2812-3

> <Gold.Version>
5.8.1

> <Gold.Id.Protein>
6NUR|6NUR_protein|mol2

> <Gold.PLP.Fitness>
52.9713

> <Gold.PLP.PLP>
-40.5805

> <Gold.PLP.part.hbond>
-4.0000

> <Gold.PLP.part.metal>
0.0000

> <Gold.PLP.part.buried>
2.5558

> <Gold.PLP.part.nonpolar>
-39.4636

> <Gold.PLP.part.repulsive>
0.0914

> <Gold.PLP.ligand.clash>
0.0000

> <Gold.PLP.ligand.torsion>
0.9952

> <Gold.PLP.Chemscore.Hbond>
4.5296

> <Gold.PLP.Chemscore.CHOScore>
0.0000

> <Gold.PLP.Chemscore.Metal>
0.0000

> <Gold.Chemscore.Hbonds>
donor molecule, donor type, donor heavy atom, donor atom, acceptor molecule, acceptor atom, score
      L1  H    20    55       P1  7948  2.00
      P1  H  6896  6909       L1    12  0.99
      P1  H  6931  6943       L1     8  0.74
      P1  H  6934  6947       L1     8  0.74

> <Gold.PLP.Chemscore.Internal.Correction>
0.7925

> <Gold.Rescore>
     Score         DG    S(hbond)    S(metal)    S(lipo)     H(rot)  DE(clash)    DE(int)     intcor
     19.94     -24.24       3.44        0.00      95.30       1.52       1.02       3.28       ----

> <Gold.Chemscore.Fitness>
19.9416

> <Gold.Chemscore.DG>
-24.2442

> <Gold.Chemscore.ZeroCoef>
-5.4800

> <Gold.Chemscore.Hbond>
3.4414

> <Gold.Chemscore.Metal>
0.0000

> <Gold.Chemscore.Lipo>
95.3014

> <Gold.Chemscore.Internal_Hbond>
0.0000

> <Gold.Chemscore.DEClash>
1.0232

> <Gold.Chemscore.DEInternal>
3.2794

> <Gold.Chemscore.Rot>
1.5157

> <Gold.Chemscore.Internal.Correction>
   9.000000E+99

> <Gold.Chemscore.Hbonds>
donor molecule, donor type, donor heavy atom, donor atom, acceptor molecule, acceptor atom, score
      L1  H    20    55       P1  7948  0.98
      P1  H  6896  6909       L1    12  0.81
      P1  H  6931  6943       L1     8  0.48
      P1  H  6934  6947       L1     8  0.73

> <Gold.Chemscore.Hbond.Weighted>
-11.4942

> <Gold.Chemscore.Metal.Weighted>
-0.0000

> <Gold.Chemscore.Lipo.Weighted>
-11.1503

> <Gold.Chemscore.Internal_Hbond.Weighted>
0.0000

> <Gold.Chemscore.DEClash.Weighted>
1.0232

> <Gold.Chemscore.DEInternal.Weighted>
3.2794

> <Gold.Chemscore.Rot.Weighted>
3.8803

> <Gold.Chemscore.Internal.Correction.Weighted>
   9.000000E+99

> <Gold.Protein.RotatedTorsions>
[ 6907 6896 6895 6894 ] final   63.55 input  -60.11 | X-H torsion
[ 7974 7965 7964 7962 ] final   95.89 input  175.53 | X-H torsion
[ 8008 7997 7996 7995 ] final  111.03 input   59.86 | X-H torsion
[ 10167 10162 10161 10158 ] final   11.43 input  -65.29 | X-H torsion
[ 10718 10713 10712 10709 ] final   92.99 input   66.30 | X-H torsion
[ 10763 10752 10751 10750 ] final -139.94 input  -60.55 | X-H torsion
[ 11005 11000 10999 10996 ] final  167.83 input  -57.11 | X-H torsion

> <Gold.Protein.ActiveResidues>
 VAL166  LYS551  ARG553  GLY616  TRP617  ASP618  TYR619  PRO620  LYS621  CYS622 
 ASP623  PHE694  ASN695  SER759  ASP760  ASP761  ALA762  ILE779  LEU786  VAL792 
 PHE793  MET794  SER795  GLU796  ALA797  LYS798  CYS799  TRP800  GLU811  SER814 

> <Gold.Protein.RotatedAtoms>
  152.4262  134.5864  159.9961 H   0  0  0  0  0  0  0  0  0  0  0  0  # atno 6907 bound_to 6896
  151.5999  133.3352  159.3053 H   0  0  0  0  0  0  0  0  0  0  0  0  # atno 6908 bound_to 6896
  150.8152  134.7366  159.6789 H   0  0  0  0  0  0  0  0  0  0  0  0  # atno 6909 bound_to 6896
  145.4462  139.2297  143.3065 H   0  0  0  0  0  0  0  0  0  0  0  0  # atno 7974 bound_to 7965
  156.2095  140.3027  155.9701 H   0  0  0  0  0  0  0  0  0  0  0  0  # atno 8008 bound_to 7997
  155.2758  140.0435  157.3028 H   0  0  0  0  0  0  0  0  0  0  0  0  # atno 8009 bound_to 7997
  154.5680  140.2340  155.8243 H   0  0  0  0  0  0  0  0  0  0  0  0  # atno 8010 bound_to 7997
  140.6132  143.8364  150.7089 H   0  0  0  0  0  0  0  0  0  0  0  0  # atno 10167 bound_to 10162
  157.6956  131.0463  150.3966 H   0  0  0  0  0  0  0  0  0  0  0  0  # atno 10718 bound_to 10713
  154.8594  135.3567  154.5628 H   0  0  0  0  0  0  0  0  0  0  0  0  # atno 10763 bound_to 10752
  153.6242  135.7005  153.5304 H   0  0  0  0  0  0  0  0  0  0  0  0  # atno 10764 bound_to 10752
  153.3103  135.4180  155.1290 H   0  0  0  0  0  0  0  0  0  0  0  0  # atno 10765 bound_to 10752
  140.2808  134.7751  157.3757 H   0  0  0  0  0  0  0  0  0  0  0  0  # atno 11005 bound_to 11000
  146.2529  140.5216  142.8885 LP  0  0  0  0  0  0  0  0  0  0  0  0  # atno 17320 bound_to 7965
  144.8090  140.6352  143.6428 LP  0  0  0  0  0  0  0  0  0  0  0  0  # atno 17321 bound_to 7965
  140.1937  143.4015  152.1844 LP  0  0  0  0  0  0  0  0  0  0  0  0  # atno 17342 bound_to 10162
  139.5377  144.7226  151.4836 LP  0  0  0  0  0  0  0  0  0  0  0  0  # atno 17343 bound_to 10162
  156.4364  130.3982  149.6726 LP  0  0  0  0  0  0  0  0  0  0  0  0  # atno 17370 bound_to 10713
  156.3925  130.7634  151.2636 LP  0  0  0  0  0  0  0  0  0  0  0  0  # atno 17371 bound_to 10713
  140.1285  134.5126  155.8125 LP  0  0  0  0  0  0  0  0  0  0  0  0  # atno 17394 bound_to 11000
  141.2163  133.6781  156.6995 LP  0  0  0  0  0  0  0  0  0  0  0  0  # atno 17395 bound_to 11000

$$$$
