AV-unprocessed.smi:1056|AV-procd|sdf|4646|dock9
  -GOLD-   22720 3153D 1   1.00000     0.00000
 Structure written by MMmdl.
 45 47  0  0  0  0  0  0  0  0  4 V2000
  153.2991  142.6781  161.4136 C   0  0  0  0  0  0  0  0  0  0  0  0
  152.5642  142.3079  160.1364 C   0  0  0  0  0  0  0  0  0  0  0  0
  152.6030  140.9641  159.7016 C   0  0  0  0  0  0  0  0  0  0  0  0
  151.9189  140.6558  158.5318 C   0  0  0  0  0  0  0  0  0  0  0  0
  151.7669  139.4433  157.8569 N   0  3  0  0  0  0  0  0  0  0  0  0
  151.0031  139.6345  156.7467 C   0  0  0  0  0  0  0  0  0  0  0  0
  150.6685  140.9532  156.6981 N   0  0  0  0  0  0  0  0  0  0  0  0
  149.8516  141.6741  155.7072 C   0  0  0  0  0  0  0  0  0  0  0  0
  149.1647  140.7557  154.6726 C   0  0  2  0  0  0  0  0  0  0  0  0
  150.1389  140.2931  153.7564 O   0  0  0  0  0  0  0  0  0  0  0  0
  148.0308  141.4547  153.8901 C   0  0  0  0  0  0  0  0  0  0  0  0
  147.1421  142.2736  154.7546 N   0  3  2  0  0  0  0  0  0  0  0  0
  146.7360  141.5589  155.9927 C   0  0  0  0  0  0  0  0  0  0  0  0
  146.0906  142.5386  156.9914 C   0  0  0  0  0  0  0  0  0  0  0  0
  145.0917  143.3731  156.3139 N   0  5  0  0  0  0  0  0  0  0  0  0
  145.0374  143.6508  154.9740 C   0  0  0  0  0  0  0  0  0  0  0  0
  144.2856  144.4661  154.4444 O   0  0  0  0  0  0  0  0  0  0  0  0
  145.9638  142.8354  154.0324 C   0  0  0  0  0  0  0  0  0  0  0  0
  151.2137  141.6297  157.7971 C   0  0  0  0  0  0  0  0  0  0  0  0
  151.1665  142.9589  158.2127 C   0  0  0  0  0  0  0  0  0  0  0  0
  151.8551  143.2926  159.4009 C   0  0  0  0  0  0  0  0  0  0  0  0
  151.8180  144.7342  159.8790 C   0  0  0  0  0  0  0  0  0  0  0  0
  153.7510  141.8031  161.8818 H   0  0  0  0  0  0  0  0  0  0  0  0
  152.6146  143.1240  162.1353 H   0  0  0  0  0  0  0  0  0  0  0  0
  154.0952  143.3926  161.2031 H   0  0  0  0  0  0  0  0  0  0  0  0
  153.1396  140.2087  160.2573 H   0  0  0  0  0  0  0  0  0  0  0  0
  150.7164  138.8775  156.0305 H   0  0  0  0  0  0  0  0  0  0  0  0
  149.0965  142.2327  156.2621 H   0  0  0  0  0  0  0  0  0  0  0  0
  150.4663  142.4231  155.2087 H   0  0  0  0  0  0  0  0  0  0  0  0
  148.7804  139.8920  155.2131 H   0  0  0  0  0  0  0  0  0  0  0  0
  149.7475  140.2309  152.8982 H   0  0  0  0  0  0  0  0  0  0  0  0
  148.4456  142.0928  153.1087 H   0  0  0  0  0  0  0  0  0  0  0  0
  147.4391  140.6935  153.3797 H   0  0  0  0  0  0  0  0  0  0  0  0
  146.0414  140.7560  155.7391 H   0  0  0  0  0  0  0  0  0  0  0  0
  147.5998  141.0922  156.4675 H   0  0  0  0  0  0  0  0  0  0  0  0
  145.6599  141.9776  157.8203 H   0  0  0  0  0  0  0  0  0  0  0  0
  146.8764  143.1563  157.4267 H   0  0  0  0  0  0  0  0  0  0  0  0
  146.2873  143.4872  153.2218 H   0  0  0  0  0  0  0  0  0  0  0  0
  145.3803  142.0287  153.5866 H   0  0  0  0  0  0  0  0  0  0  0  0
  150.6277  143.7122  157.6578 H   0  0  0  0  0  0  0  0  0  0  0  0
  151.2636  145.3699  159.1880 H   0  0  0  0  0  0  0  0  0  0  0  0
  152.8275  145.1374  159.9645 H   0  0  0  0  0  0  0  0  0  0  0  0
  151.3342  144.8006  160.8538 H   0  0  0  0  0  0  0  0  0  0  0  0
  147.6873  143.0616  155.0730 H   0  0  0  0  0  0  0  0  0  0  0  0
  152.1514  138.5486  158.1332 H   0  0  0  0  0  0  0  0  0  0  0  0
  1  2  1  0  0  0  0
  1 23  1  0  0  0  0
  1 24  1  0  0  0  0
  1 25  1  0  0  0  0
  2 21  1  0  0  0  0
  2  3  2  0  0  0  0
  3  4  1  0  0  0  0
  3 26  1  0  0  0  0
  4 19  2  0  0  0  0
  4  5  1  0  0  0  0
  5  6  2  0  0  0  0
  5 45  1  0  0  0  0
  6  7  1  0  0  0  0
  6 27  1  0  0  0  0
  7  8  1  0  0  0  0
  7 19  1  0  0  0  0
  8  9  1  0  0  0  0
  8 28  1  0  0  0  0
  8 29  1  0  0  0  0
  9 10  1  0  0  0  0
  9 11  1  0  0  0  0
  9 30  1  0  0  0  0
 10 31  1  0  0  0  0
 11 12  1  0  0  0  0
 11 32  1  0  0  0  0
 11 33  1  0  0  0  0
 12 18  1  0  0  0  0
 12 13  1  0  0  0  0
 12 44  1  0  0  0  0
 13 14  1  0  0  0  0
 13 34  1  0  0  0  0
 13 35  1  0  0  0  0
 14 15  1  0  0  0  0
 14 36  1  0  0  0  0
 14 37  1  0  0  0  0
 15 16  1  0  0  0  0
 16 17  2  0  0  0  0
 16 18  1  0  0  0  0
 18 38  1  0  0  0  0
 18 39  1  0  0  0  0
 19 20  1  0  0  0  0
 20 21  2  0  0  0  0
 20 40  1  0  0  0  0
 21 22  1  0  0  0  0
 22 41  1  0  0  0  0
 22 42  1  0  0  0  0
 22 43  1  0  0  0  0
M  CHG  1   5   1
M  CHG  1  12   1
M  CHG  1  15  -1
M  END
> <s_m_source_file>
AV-unprocessed.smi

> <i_m_source_file_index>
1056

> <i_lp_mmshare_version>
43012

> <i_f3d_flags>
0

> <s_epik_input>
W0NIM11jKFtjSF0xKWMoW0NIM10pW2NIXWMoYzEyKW4oW2NIXW4yKVtDSDJdW0NASF0oW09IXSlbQ0gyXU4zW0NIMl1bQ0gyXVtOSF1DKD1PKVtDSDJdMw==

> <s_epik_cmdline>
J2VwaWtfcHl0aG9uJywgJy1waCcsICc3LjAnLCAnLXRuJywgJzgnLCAnLW1hJywgJzIwMCcsICctbWV0YWxfYmluZGluZycsICctaW1hZScsICc8aW5maWxlLm1hZT4nLCAnLW9tYWUnLCAnPG91dGZpbGUubWFlPic=

> <r_epik_Ionization_Penalty>
6.22415

> <r_epik_Ionization_Penalty_Charging>
6.22415

> <r_epik_Ionization_Penalty_Neutral>
4.02797e-07

> <r_epik_State_Penalty>
6.37716

> <r_epik_Charging_Adjusted_Penalty>
12.6013

> <i_epik_Tot_Q>
1

> <i_epik_Tot_abs_Q>
3

> <r_epik_Metal_State_Penalty>
2.53509

> <b_epik_Metal_Only>
1

> <s_lp_Force_Field>
OPLS_2005

> <r_lp_Energy>
27.0798

> <b_lp_Chiralities_Consistent>
1

> <s_lp_Variant>
AV-unprocessed.smi:1056-17

> <Gold.Version>
5.8.1

> <Gold.Id.Protein>
6NUR|6NUR_protein|mol2

> <Gold.PLP.Fitness>
57.0938

> <Gold.PLP.PLP>
-46.4445

> <Gold.PLP.part.hbond>
-2.8713

> <Gold.PLP.part.metal>
0.0000

> <Gold.PLP.part.buried>
-6.9784

> <Gold.PLP.part.nonpolar>
-37.2874

> <Gold.PLP.part.repulsive>
0.4453

> <Gold.PLP.ligand.clash>
0.0000

> <Gold.PLP.ligand.torsion>
0.3374

> <Gold.PLP.Chemscore.Hbond>
3.7680

> <Gold.PLP.Chemscore.CHOScore>
0.0000

> <Gold.PLP.Chemscore.Metal>
0.0000

> <Gold.Chemscore.Hbonds>
donor molecule, donor type, donor heavy atom, donor atom, acceptor molecule, acceptor atom, score
      L1  H    10    31       P1  7957  1.00
      L1  H    12    44       P1  8028  1.69
      P1  H  7989  7998       L1    10  0.74

> <Gold.PLP.Chemscore.Internal.Correction>
0.0202

> <Gold.Rescore>
     Score         DG    S(hbond)    S(metal)    S(lipo)     H(rot)  DE(clash)    DE(int)     intcor
     18.98     -19.37       2.11        0.00     110.47       2.37       0.04       0.36       ----

> <Gold.Chemscore.Fitness>
18.9779

> <Gold.Chemscore.DG>
-19.3719

> <Gold.Chemscore.ZeroCoef>
-5.4800

> <Gold.Chemscore.Hbond>
2.1079

> <Gold.Chemscore.Metal>
0.0000

> <Gold.Chemscore.Lipo>
110.4694

> <Gold.Chemscore.Internal_Hbond>
0.0000

> <Gold.Chemscore.DEClash>
0.0373

> <Gold.Chemscore.DEInternal>
0.3568

> <Gold.Chemscore.Rot>
2.3724

> <Gold.Chemscore.Internal.Correction>
   9.000000E+99

> <Gold.Chemscore.Hbonds>
donor molecule, donor type, donor heavy atom, donor atom, acceptor molecule, acceptor atom, score
      L1  H    10    31       P1  7957  0.99
      L1  H    12    44       P1  8028  0.50
      P1  H  7989  7998       L1    10  0.33

> <Gold.Chemscore.Hbond.Weighted>
-7.0404

> <Gold.Chemscore.Metal.Weighted>
-0.0000

> <Gold.Chemscore.Lipo.Weighted>
-12.9249

> <Gold.Chemscore.Internal_Hbond.Weighted>
0.0000

> <Gold.Chemscore.DEClash.Weighted>
0.0373

> <Gold.Chemscore.DEInternal.Weighted>
0.3568

> <Gold.Chemscore.Rot.Weighted>
6.0734

> <Gold.Chemscore.Internal.Correction.Weighted>
   9.000000E+99

> <Gold.Protein.RotatedTorsions>
[ 6907 6896 6895 6894 ] final  167.94 input  -60.11 | X-H torsion
[ 7974 7965 7964 7962 ] final  -67.55 input  175.53 | X-H torsion
[ 8008 7997 7996 7995 ] final  -67.14 input   59.86 | X-H torsion
[ 10167 10162 10161 10158 ] final   14.71 input  -65.29 | X-H torsion
[ 10718 10713 10712 10709 ] final    4.57 input   66.30 | X-H torsion
[ 10763 10752 10751 10750 ] final  169.87 input  -60.55 | X-H torsion
[ 11005 11000 10999 10996 ] final  -98.93 input  -57.11 | X-H torsion

> <Gold.Protein.ActiveResidues>
 VAL166  LYS551  ARG553  GLY616  TRP617  ASP618  TYR619  PRO620  LYS621  CYS622 
 ASP623  PHE694  ASN695  SER759  ASP760  ASP761  ALA762  ILE779  LEU786  VAL792 
 PHE793  MET794  SER795  GLU796  ALA797  LYS798  CYS799  TRP800  GLU811  SER814 

> <Gold.Protein.RotatedAtoms>
  151.8554  133.3447  159.3686 H   0  0  0  0  0  0  0  0  0  0  0  0  # atno 6907 bound_to 6896
  150.7194  134.5258  159.5685 H   0  0  0  0  0  0  0  0  0  0  0  0  # atno 6908 bound_to 6896
  152.2761  134.7881  160.0456 H   0  0  0  0  0  0  0  0  0  0  0  0  # atno 6909 bound_to 6896
  145.7277  140.9010  143.0596 H   0  0  0  0  0  0  0  0  0  0  0  0  # atno 7974 bound_to 7965
  154.4780  140.0898  156.7309 H   0  0  0  0  0  0  0  0  0  0  0  0  # atno 8008 bound_to 7997
  155.4545  140.3458  155.4286 H   0  0  0  0  0  0  0  0  0  0  0  0  # atno 8009 bound_to 7997
  156.1147  140.1457  156.9278 H   0  0  0  0  0  0  0  0  0  0  0  0  # atno 8010 bound_to 7997
  140.5917  143.8782  150.6880 H   0  0  0  0  0  0  0  0  0  0  0  0  # atno 10167 bound_to 10162
  156.8945  130.5699  149.5649 H   0  0  0  0  0  0  0  0  0  0  0  0  # atno 10718 bound_to 10713
  154.3894  135.2754  155.2164 H   0  0  0  0  0  0  0  0  0  0  0  0  # atno 10763 bound_to 10752
  154.4236  135.5994  153.6029 H   0  0  0  0  0  0  0  0  0  0  0  0  # atno 10764 bound_to 10752
  152.9832  135.5978  154.4147 H   0  0  0  0  0  0  0  0  0  0  0  0  # atno 10765 bound_to 10752
  141.1327  133.8283  157.0905 H   0  0  0  0  0  0  0  0  0  0  0  0  # atno 11005 bound_to 11000
  144.6900  139.9289  143.7471 LP  0  0  0  0  0  0  0  0  0  0  0  0  # atno 17320 bound_to 7965
  146.0566  139.3563  143.0607 LP  0  0  0  0  0  0  0  0  0  0  0  0  # atno 17321 bound_to 7965
  140.2307  143.3738  152.1568 LP  0  0  0  0  0  0  0  0  0  0  0  0  # atno 17342 bound_to 10162
  139.5232  144.7068  151.5330 LP  0  0  0  0  0  0  0  0  0  0  0  0  # atno 17343 bound_to 10162
  156.0612  130.5664  150.9197 LP  0  0  0  0  0  0  0  0  0  0  0  0  # atno 17370 bound_to 10713
  157.6064  131.0939  150.8872 LP  0  0  0  0  0  0  0  0  0  0  0  0  # atno 17371 bound_to 10713
  140.0395  134.9861  157.0935 LP  0  0  0  0  0  0  0  0  0  0  0  0  # atno 17394 bound_to 11000
  140.4157  134.1933  155.7163 LP  0  0  0  0  0  0  0  0  0  0  0  0  # atno 17395 bound_to 11000

$$$$
