AV-unprocessed.smi:148|AV-procd|sdf|1224|dock2
  -GOLD-   2262018413D 1   1.00000     0.00000
 Structure written by MMmdl.
 63 67  0  0  0  0  0  0  0  0  1 V2000
  146.6772  137.0994  152.7316 O   0  0  0  0  0  0  0  0  0  0  0  0
  146.3868  138.4789  152.8106 C   0  0  0  0  0  0  0  0  0  0  0  0
  147.4668  139.2535  153.6102 C   0  0  2  0  0  0  0  0  0  0  0  0
  147.3821  138.9389  155.1267 C   0  0  0  0  0  0  0  0  0  0  0  0
  148.2916  139.7282  155.9395 N   0  0  0  0  0  0  0  0  0  0  0  0
  147.9523  140.7348  156.8163 C   0  0  0  0  0  0  0  0  0  0  0  0
  148.9553  141.2987  157.4324 N   0  0  0  0  0  0  0  0  0  0  0  0
  150.0685  140.6349  156.9345 C   0  0  0  0  0  0  0  0  0  0  0  0
  151.4647  140.7460  157.1611 C   0  0  0  0  0  0  0  0  0  0  0  0
  151.9757  141.6442  158.0308 N   0  0  0  0  0  0  0  0  0  0  0  0
  151.2459  142.9104  157.9348 C   0  0  0  0  0  0  0  0  0  0  0  0
  151.9833  144.0362  158.6658 C   0  0  0  0  0  0  0  0  0  0  0  0
  152.2240  143.6350  160.1217 C   0  0  0  0  0  0  0  0  0  0  0  0
  152.9836  142.3033  160.1776 C   0  0  0  0  0  0  0  0  0  0  0  0
  152.2660  141.1668  159.3987 C   0  0  2  0  0  0  0  0  0  0  0  0
  153.1178  139.8490  159.4441 C   0  0  1  0  0  0  0  0  0  0  0  0
  153.6188  139.4387  160.8424 C   0  0  0  0  0  0  0  0  0  0  0  0
  154.0197  137.9622  160.7457 C   0  0  0  0  0  0  0  0  0  0  0  0
  153.3552  137.4219  159.4748 C   0  0  0  0  0  0  0  0  0  0  0  0
  152.4453  138.5427  158.9611 C   0  0  1  0  0  0  0  0  0  0  0  0
  151.1598  138.3841  159.5320 O   0  0  0  0  0  0  0  0  0  0  0  0
  152.2919  139.9098  156.4796 N   0  0  0  0  0  0  0  0  0  0  0  0
  151.7797  139.0265  155.6166 C   0  0  0  0  0  0  0  0  0  0  0  0
  150.5002  138.8151  155.2972 N   0  0  0  0  0  0  0  0  0  0  0  0
  149.6718  139.6487  155.9899 C   0  0  0  0  0  0  0  0  0  0  0  0
  147.3850  140.7876  153.3739 C   0  0  1  0  0  0  0  0  0  0  0  0
  146.2508  141.4884  154.1043 C   0  0  0  0  0  0  0  0  0  0  0  0
  146.6823  142.9500  154.0608 C   0  0  0  0  0  0  0  0  0  0  0  0
  148.1043  142.9331  154.0784 O   0  0  0  0  0  0  0  0  0  0  0  0
  148.5758  141.6029  153.8919 C   0  0  0  0  0  0  0  0  0  0  0  0
  147.6112  136.9933  152.6332 H   0  0  0  0  0  0  0  0  0  0  0  0
  146.2803  138.8883  151.8057 H   0  0  0  0  0  0  0  0  0  0  0  0
  145.4082  138.5497  153.2827 H   0  0  0  0  0  0  0  0  0  0  0  0
  148.4436  138.9090  153.2674 H   0  0  0  0  0  0  0  0  0  0  0  0
  146.3765  139.1230  155.5045 H   0  0  0  0  0  0  0  0  0  0  0  0
  147.5904  137.8826  155.3019 H   0  0  0  0  0  0  0  0  0  0  0  0
  146.9295  141.0351  156.9913 H   0  0  0  0  0  0  0  0  0  0  0  0
  151.1111  143.1866  156.8876 H   0  0  0  0  0  0  0  0  0  0  0  0
  150.2495  142.7900  158.3629 H   0  0  0  0  0  0  0  0  0  0  0  0
  152.9351  144.2374  158.1724 H   0  0  0  0  0  0  0  0  0  0  0  0
  151.4034  144.9581  158.6189 H   0  0  0  0  0  0  0  0  0  0  0  0
  152.7876  144.4126  160.6381 H   0  0  0  0  0  0  0  0  0  0  0  0
  151.2704  143.5390  160.6424 H   0  0  0  0  0  0  0  0  0  0  0  0
  153.9867  142.4462  159.7728 H   0  0  0  0  0  0  0  0  0  0  0  0
  153.1084  142.0375  161.2267 H   0  0  0  0  0  0  0  0  0  0  0  0
  151.3117  140.9891  159.8953 H   0  0  0  0  0  0  0  0  0  0  0  0
  154.0080  140.0082  158.8325 H   0  0  0  0  0  0  0  0  0  0  0  0
  154.4496  140.0555  161.1866 H   0  0  0  0  0  0  0  0  0  0  0  0
  152.8114  139.5395  161.5691 H   0  0  0  0  0  0  0  0  0  0  0  0
  155.1031  137.8578  160.6769 H   0  0  0  0  0  0  0  0  0  0  0  0
  153.6946  137.4149  161.6309 H   0  0  0  0  0  0  0  0  0  0  0  0
  154.1268  137.2174  158.7313 H   0  0  0  0  0  0  0  0  0  0  0  0
  152.8210  136.4859  159.6456 H   0  0  0  0  0  0  0  0  0  0  0  0
  152.3563  138.4766  157.8789 H   0  0  0  0  0  0  0  0  0  0  0  0
  151.0185  139.0834  160.1515 H   0  0  0  0  0  0  0  0  0  0  0  0
  152.4986  138.4006  155.1089 H   0  0  0  0  0  0  0  0  0  0  0  0
  147.2731  140.9814  152.3057 H   0  0  0  0  0  0  0  0  0  0  0  0
  145.2760  141.3348  153.6407 H   0  0  0  0  0  0  0  0  0  0  0  0
  146.1952  141.1454  155.1386 H   0  0  0  0  0  0  0  0  0  0  0  0
  146.3530  143.4166  153.1316 H   0  0  0  0  0  0  0  0  0  0  0  0
  146.2791  143.5282  154.8925 H   0  0  0  0  0  0  0  0  0  0  0  0
  148.9135  141.2234  154.8575 H   0  0  0  0  0  0  0  0  0  0  0  0
  149.4233  141.5882  153.2064 H   0  0  0  0  0  0  0  0  0  0  0  0
  1  2  1  0  0  0  0
  1 31  1  0  0  0  0
  2  3  1  0  0  0  0
  2 32  1  0  0  0  0
  2 33  1  0  0  0  0
  3  4  1  0  0  0  0
  3 26  1  0  0  0  0
  3 34  1  0  0  0  0
  4  5  1  0  0  0  0
  4 35  1  0  0  0  0
  4 36  1  0  0  0  0
  5 25  1  0  0  0  0
  5  6  1  0  0  0  0
  6  7  2  0  0  0  0
  6 37  1  0  0  0  0
  7  8  1  0  0  0  0
  8 25  2  0  0  0  0
  8  9  1  0  0  0  0
  9 10  1  0  0  0  0
  9 22  2  0  0  0  0
 10 15  1  0  0  0  0
 10 11  1  0  0  0  0
 11 12  1  0  0  0  0
 11 38  1  0  0  0  0
 11 39  1  0  0  0  0
 12 13  1  0  0  0  0
 12 40  1  0  0  0  0
 12 41  1  0  0  0  0
 13 14  1  0  0  0  0
 13 42  1  0  0  0  0
 13 43  1  0  0  0  0
 14 15  1  0  0  0  0
 14 44  1  0  0  0  0
 14 45  1  0  0  0  0
 15 16  1  0  0  0  0
 15 46  1  0  0  0  0
 16 20  1  0  0  0  0
 16 17  1  0  0  0  0
 16 47  1  0  0  0  0
 17 18  1  0  0  0  0
 17 48  1  0  0  0  0
 17 49  1  0  0  0  0
 18 19  1  0  0  0  0
 18 50  1  0  0  0  0
 18 51  1  0  0  0  0
 19 20  1  0  0  0  0
 19 52  1  0  0  0  0
 19 53  1  0  0  0  0
 20 21  1  0  0  0  0
 20 54  1  0  0  0  0
 21 55  1  0  0  0  0
 22 23  1  0  0  0  0
 23 24  2  0  0  0  0
 23 56  1  0  0  0  0
 24 25  1  0  0  0  0
 26 30  1  0  0  0  0
 26 27  1  0  0  0  0
 26 57  1  0  0  0  0
 27 28  1  0  0  0  0
 27 58  1  0  0  0  0
 27 59  1  0  0  0  0
 28 29  1  0  0  0  0
 28 60  1  0  0  0  0
 28 61  1  0  0  0  0
 29 30  1  0  0  0  0
 30 62  1  0  0  0  0
 30 63  1  0  0  0  0
M  END
> <s_m_source_file>
AV-unprocessed.smi

> <i_m_source_file_index>
148

> <i_lp_mmshare_version>
43012

> <i_f3d_flags>
0

> <s_epik_input>
W0NIMl0xT1tDSDJdW0NIMl1bQ0BIXTFbQ0BIXShbQ0gyXVtPSF0pW0NIMl1uKFtjSF1uMiljKGMyMyluW2NIXW5jM040W0NIMl1bQ0gyXVtDSDJdW0NIMl1bQ0BIXTRbQ0BASF01W0NIMl1bQ0gyXVtDSDJdW0NASF01W09IXQ==

> <s_epik_cmdline>
J2VwaWtfcHl0aG9uJywgJy1waCcsICc3LjAnLCAnLXRuJywgJzgnLCAnLW1hJywgJzIwMCcsICctbWV0YWxfYmluZGluZycsICctaW1hZScsICc8aW5maWxlLm1hZT4nLCAnLW9tYWUnLCAnPG91dGZpbGUubWFlPic=

> <r_lp_tautomer_probability>
1

> <r_epik_Ionization_Penalty>
0.00556303

> <r_epik_Ionization_Penalty_Charging>
0

> <r_epik_Ionization_Penalty_Neutral>
0.00556303

> <r_epik_State_Penalty>
0.00401767

> <r_epik_Charging_Adjusted_Penalty>
0.00401767

> <i_epik_Tot_Q>
0

> <i_epik_Tot_abs_Q>
0

> <r_epik_Metal_State_Penalty>
-0

> <b_epik_Metal_Only>
0

> <s_lp_Force_Field>
OPLS_2005

> <r_lp_Energy>
70.7604

> <b_lp_Chiralities_Consistent>
1

> <s_lp_Variant>
AV-unprocessed.smi:148-23

> <Gold.Version>
5.8.1

> <Gold.Id.Protein>
6NUR|6NUR_protein|mol2

> <Gold.PLP.Fitness>
50.8341

> <Gold.PLP.PLP>
-43.7356

> <Gold.PLP.part.hbond>
-4.5098

> <Gold.PLP.part.metal>
0.0000

> <Gold.PLP.part.buried>
-2.9924

> <Gold.PLP.part.nonpolar>
-41.6188

> <Gold.PLP.part.repulsive>
4.1571

> <Gold.PLP.ligand.clash>
0.0000

> <Gold.PLP.ligand.torsion>
1.1023

> <Gold.PLP.Chemscore.Hbond>
2.8545

> <Gold.PLP.Chemscore.CHOScore>
0.0000

> <Gold.PLP.Chemscore.Metal>
0.0000

> <Gold.Chemscore.Hbonds>
donor molecule, donor type, donor heavy atom, donor atom, acceptor molecule, acceptor atom, score
      L1  H     1    31       P1  7948  0.99
      P1  H  7997  8010       L1    22  0.93
      P1  H  8022  8030       L1    29  0.94

> <Gold.PLP.Chemscore.Internal.Correction>
0.7397

> <Gold.Rescore>
     Score         DG    S(hbond)    S(metal)    S(lipo)     H(rot)  DE(clash)    DE(int)     intcor
     11.73     -19.52       2.35        0.00     125.56       3.32       1.63       6.16       ----

> <Gold.Chemscore.Fitness>
11.7335

> <Gold.Chemscore.DG>
-19.5201

> <Gold.Chemscore.ZeroCoef>
-5.4800

> <Gold.Chemscore.Hbond>
2.3502

> <Gold.Chemscore.Metal>
0.0000

> <Gold.Chemscore.Lipo>
125.5589

> <Gold.Chemscore.Internal_Hbond>
0.0000

> <Gold.Chemscore.DEClash>
1.6315

> <Gold.Chemscore.DEInternal>
6.1550

> <Gold.Chemscore.Rot>
3.3203

> <Gold.Chemscore.Internal.Correction>
   9.000000E+99

> <Gold.Chemscore.Hbonds>
donor molecule, donor type, donor heavy atom, donor atom, acceptor molecule, acceptor atom, score
      L1  H     1    31       P1  7948  0.93
      P1  H  7997  8010       L1    22  0.78
      P1  H  8022  8030       L1    29  0.36

> <Gold.Chemscore.Hbond.Weighted>
-7.8497

> <Gold.Chemscore.Metal.Weighted>
-0.0000

> <Gold.Chemscore.Lipo.Weighted>
-14.6904

> <Gold.Chemscore.Internal_Hbond.Weighted>
0.0000

> <Gold.Chemscore.DEClash.Weighted>
1.6315

> <Gold.Chemscore.DEInternal.Weighted>
6.1550

> <Gold.Chemscore.Rot.Weighted>
8.5000

> <Gold.Chemscore.Internal.Correction.Weighted>
   9.000000E+99

> <Gold.Protein.RotatedTorsions>
[ 6907 6896 6895 6894 ] final  140.53 input  -60.11 | X-H torsion
[ 7974 7965 7964 7962 ] final -169.49 input  175.53 | X-H torsion
[ 8008 7997 7996 7995 ] final   78.06 input   59.86 | X-H torsion
[ 10167 10162 10161 10158 ] final   65.79 input  -65.29 | X-H torsion
[ 10718 10713 10712 10709 ] final -160.11 input   66.30 | X-H torsion
[ 10763 10752 10751 10750 ] final   50.19 input  -60.55 | X-H torsion
[ 11005 11000 10999 10996 ] final   -1.15 input  -57.11 | X-H torsion

> <Gold.Protein.ActiveResidues>
 VAL166  LYS551  ARG553  GLY616  TRP617  ASP618  TYR619  PRO620  LYS621  CYS622 
 ASP623  PHE694  ASN695  SER759  ASP760  ASP761  ALA762  ILE779  LEU786  VAL792 
 PHE793  MET794  SER795  GLU796  ALA797  LYS798  CYS799  TRP800  GLU811  SER814 

> <Gold.Protein.RotatedAtoms>
  152.2419  133.5143  159.5274 H   0  0  0  0  0  0  0  0  0  0  0  0  # atno 6907 bound_to 6896
  150.7067  134.1077  159.3998 H   0  0  0  0  0  0  0  0  0  0  0  0  # atno 6908 bound_to 6896
  151.8998  135.0383  160.0556 H   0  0  0  0  0  0  0  0  0  0  0  0  # atno 6909 bound_to 6896
  144.7184  140.2213  143.6315 H   0  0  0  0  0  0  0  0  0  0  0  0  # atno 7974 bound_to 7965
  155.8504  140.3458  155.5690 H   0  0  0  0  0  0  0  0  0  0  0  0  # atno 8008 bound_to 7997
  155.8043  140.0889  157.1959 H   0  0  0  0  0  0  0  0  0  0  0  0  # atno 8009 bound_to 7997
  154.4007  140.1459  156.3299 H   0  0  0  0  0  0  0  0  0  0  0  0  # atno 8010 bound_to 7997
  140.1075  144.4848  150.6998 H   0  0  0  0  0  0  0  0  0  0  0  0  # atno 10167 bound_to 10162
  156.5775  130.8715  151.2855 H   0  0  0  0  0  0  0  0  0  0  0  0  # atno 10718 bound_to 10713
  152.9785  135.5887  154.4211 H   0  0  0  0  0  0  0  0  0  0  0  0  # atno 10763 bound_to 10752
  154.3836  135.2767  155.2199 H   0  0  0  0  0  0  0  0  0  0  0  0  # atno 10764 bound_to 10752
  154.4102  135.6083  153.6002 H   0  0  0  0  0  0  0  0  0  0  0  0  # atno 10765 bound_to 10752
  140.6441  133.9463  155.8343 H   0  0  0  0  0  0  0  0  0  0  0  0  # atno 11005 bound_to 11000
  145.8499  139.2170  143.1778 LP  0  0  0  0  0  0  0  0  0  0  0  0  # atno 17320 bound_to 7965
  146.0270  140.8294  142.9895 LP  0  0  0  0  0  0  0  0  0  0  0  0  # atno 17321 bound_to 7965
  140.6944  143.2395  151.5042 LP  0  0  0  0  0  0  0  0  0  0  0  0  # atno 17342 bound_to 10162
  139.5637  144.2094  152.1732 LP  0  0  0  0  0  0  0  0  0  0  0  0  # atno 17343 bound_to 10162
  157.7334  130.9730  150.1976 LP  0  0  0  0  0  0  0  0  0  0  0  0  # atno 17370 bound_to 10713
  156.2660  130.3716  149.8081 LP  0  0  0  0  0  0  0  0  0  0  0  0  # atno 17371 bound_to 10713
  141.0585  134.0381  157.3690 LP  0  0  0  0  0  0  0  0  0  0  0  0  # atno 17394 bound_to 11000
  139.9069  135.0181  156.7525 LP  0  0  0  0  0  0  0  0  0  0  0  0  # atno 17395 bound_to 11000

$$$$
