AV-unprocessed.smi:713|AV-procd|sdf|3479|dock7
  -GOLD-   22720 0473D 1   1.00000     0.00000
 Structure written by MMmdl.
 41 42  0  0  0  0  0  0  0  0  1 V2000
  151.8627  145.2794  160.1735 C   0  0  0  0  0  0  0  0  0  0  0  0
  151.4105  143.8254  159.9264 C   0  0  1  0  0  0  0  0  0  0  0  0
  151.5853  143.4005  158.4608 C   0  0  0  0  0  0  0  0  0  0  0  0
  152.2950  144.0573  157.6979 O   0  0  0  0  0  0  0  0  0  0  0  0
  150.9350  142.2885  158.0828 N   0  0  0  0  0  0  0  0  0  0  0  0
  150.9779  141.6999  156.7483 C   0  0  2  0  0  0  0  0  0  0  0  0
  149.5546  141.6363  156.1659 C   0  0  0  0  0  0  0  0  0  0  0  0
  149.5478  140.9700  154.7819 C   0  0  0  0  0  0  0  0  0  0  0  0
  150.1817  139.5717  154.8352 C   0  0  0  0  0  0  0  0  0  0  0  0
  151.6086  139.6203  155.4119 C   0  0  2  0  0  0  0  0  0  0  0  0
  152.3040  137.9076  155.4973 S   0  0  0  0  0  0  0  0  0  0  0  0
  151.2388  137.0949  156.7600 C   0  0  0  0  0  0  0  0  0  0  0  0
  152.0684  137.2400  154.2079 O   0  0  0  0  0  0  0  0  0  0  0  0
  153.6725  137.9926  156.0297 O   0  0  0  0  0  0  0  0  0  0  0  0
  151.6154  140.2966  156.7974 C   0  0  0  0  0  0  0  0  0  0  0  0
  152.0785  142.8729  160.8067 N   0  0  0  0  0  0  0  0  0  0  0  0
  152.1031  142.8692  162.1869 C   0  0  0  0  0  0  0  0  0  0  0  0
  152.8078  141.7691  162.5838 C   0  0  0  0  0  0  0  0  0  0  0  0
  153.1682  141.1401  161.3603 C   0  0  0  0  0  0  0  0  0  0  0  0
  152.7222  141.7946  160.3010 N   0  0  0  0  0  0  0  0  0  0  0  0
  151.3062  145.9747  159.5440 H   0  0  0  0  0  0  0  0  0  0  0  0
  152.9232  145.4237  159.9634 H   0  0  0  0  0  0  0  0  0  0  0  0
  151.6896  145.5687  161.2104 H   0  0  0  0  0  0  0  0  0  0  0  0
  150.3451  143.7796  160.1591 H   0  0  0  0  0  0  0  0  0  0  0  0
  150.3760  141.8089  158.7734 H   0  0  0  0  0  0  0  0  0  0  0  0
  151.5793  142.3377  156.0974 H   0  0  0  0  0  0  0  0  0  0  0  0
  148.9028  141.0774  156.8392 H   0  0  0  0  0  0  0  0  0  0  0  0
  149.1354  142.6406  156.0916 H   0  0  0  0  0  0  0  0  0  0  0  0
  148.5258  140.9003  154.4082 H   0  0  0  0  0  0  0  0  0  0  0  0
  150.0946  141.5926  154.0726 H   0  0  0  0  0  0  0  0  0  0  0  0
  149.5612  138.9145  155.4461 H   0  0  0  0  0  0  0  0  0  0  0  0
  150.1971  139.1387  153.8346 H   0  0  0  0  0  0  0  0  0  0  0  0
  152.2447  140.1882  154.7319 H   0  0  0  0  0  0  0  0  0  0  0  0
  151.6264  136.0977  156.9677 H   0  0  0  0  0  0  0  0  0  0  0  0
  150.2188  137.0065  156.3881 H   0  0  0  0  0  0  0  0  0  0  0  0
  151.2458  137.6814  157.6783 H   0  0  0  0  0  0  0  0  0  0  0  0
  152.6367  140.3756  157.1686 H   0  0  0  0  0  0  0  0  0  0  0  0
  151.0741  139.6748  157.5118 H   0  0  0  0  0  0  0  0  0  0  0  0
  151.6213  143.6427  162.7667 H   0  0  0  0  0  0  0  0  0  0  0  0
  153.0272  141.4578  163.5943 H   0  0  0  0  0  0  0  0  0  0  0  0
  153.7315  140.2306  161.2112 H   0  0  0  0  0  0  0  0  0  0  0  0
  1  2  1  0  0  0  0
  1 21  1  0  0  0  0
  1 22  1  0  0  0  0
  1 23  1  0  0  0  0
  2  3  1  0  0  0  0
  2 16  1  0  0  0  0
  2 24  1  0  0  0  0
  3  4  2  0  0  0  0
  3  5  1  0  0  0  0
  5  6  1  0  0  0  0
  5 25  1  0  0  0  0
  6 15  1  0  0  0  0
  6  7  1  0  0  0  0
  6 26  1  0  0  0  0
  7  8  1  0  0  0  0
  7 27  1  0  0  0  0
  7 28  1  0  0  0  0
  8  9  1  0  0  0  0
  8 29  1  0  0  0  0
  8 30  1  0  0  0  0
  9 10  1  0  0  0  0
  9 31  1  0  0  0  0
  9 32  1  0  0  0  0
 10 11  1  0  0  0  0
 10 15  1  0  0  0  0
 10 33  1  0  0  0  0
 11 12  1  0  0  0  0
 11 13  2  0  0  0  0
 11 14  2  0  0  0  0
 12 34  1  0  0  0  0
 12 35  1  0  0  0  0
 12 36  1  0  0  0  0
 15 37  1  0  0  0  0
 15 38  1  0  0  0  0
 16 20  1  0  0  0  0
 16 17  1  0  0  0  0
 17 18  2  0  0  0  0
 17 39  1  0  0  0  0
 18 19  1  0  0  0  0
 18 40  1  0  0  0  0
 19 20  2  0  0  0  0
 19 41  1  0  0  0  0
M  END
> <s_m_source_file>
AV-unprocessed.smi

> <i_m_source_file_index>
713

> <i_lp_mmshare_version>
43012

> <i_f3d_flags>
0

> <s_epik_input>
bjFbY0hdW2NIXVtjSF1uMVtDQEhdKFtDSDNdKUMoPU8pW05IXVtDQEBIXTJbQ0gyXVtDSDJdW0NIMl1bQ0BIXShbQ0gyXTIpUyg9TykoPU8pW0NIM10=

> <s_epik_cmdline>
J2VwaWtfcHl0aG9uJywgJy1waCcsICc3LjAnLCAnLXRuJywgJzgnLCAnLW1hJywgJzIwMCcsICctbWV0YWxfYmluZGluZycsICctaW1hZScsICc8aW5maWxlLm1hZT4nLCAnLW9tYWUnLCAnPG91dGZpbGUubWFlPic=

> <r_lp_tautomer_probability>
1

> <r_epik_Ionization_Penalty>
4.07816e-05

> <r_epik_Ionization_Penalty_Charging>
0

> <r_epik_Ionization_Penalty_Neutral>
4.07816e-05

> <r_epik_State_Penalty>
-0

> <r_epik_Charging_Adjusted_Penalty>
0

> <i_epik_Tot_Q>
0

> <i_epik_Tot_abs_Q>
0

> <r_epik_Metal_State_Penalty>
-0

> <b_epik_Metal_Only>
0

> <s_lp_Force_Field>
OPLS_2005

> <r_lp_Energy>
7.30822

> <b_lp_Chiralities_Consistent>
1

> <s_lp_Variant>
AV-unprocessed.smi:713-6

> <Gold.Version>
5.8.1

> <Gold.Id.Protein>
6NUR|6NUR_protein|mol2

> <Gold.PLP.Fitness>
50.9936

> <Gold.PLP.PLP>
-48.3582

> <Gold.PLP.part.hbond>
-1.8486

> <Gold.PLP.part.metal>
0.0000

> <Gold.PLP.part.buried>
-6.0165

> <Gold.PLP.part.nonpolar>
-41.1601

> <Gold.PLP.part.repulsive>
0.3080

> <Gold.PLP.ligand.clash>
0.0000

> <Gold.PLP.ligand.torsion>
0.4573

> <Gold.PLP.Chemscore.Hbond>
1.1040

> <Gold.PLP.Chemscore.CHOScore>
0.0000

> <Gold.PLP.Chemscore.Metal>
0.0000

> <Gold.Chemscore.Hbonds>
donor molecule, donor type, donor heavy atom, donor atom, acceptor molecule, acceptor atom, score
      P1  H  7997  8010       L1    14  0.24
      P1  H 10752 10764       L1    13  0.62

> <Gold.PLP.Chemscore.Internal.Correction>
0.2379

> <Gold.Rescore>
     Score         DG    S(hbond)    S(metal)    S(lipo)     H(rot)  DE(clash)    DE(int)     intcor
     12.98     -14.97       0.98        0.00      90.79       1.72       0.14       1.85       ----

> <Gold.Chemscore.Fitness>
12.9766

> <Gold.Chemscore.DG>
-14.9659

> <Gold.Chemscore.ZeroCoef>
-5.4800

> <Gold.Chemscore.Hbond>
0.9818

> <Gold.Chemscore.Metal>
0.0000

> <Gold.Chemscore.Lipo>
90.7890

> <Gold.Chemscore.Internal_Hbond>
0.0000

> <Gold.Chemscore.DEClash>
0.1432

> <Gold.Chemscore.DEInternal>
1.8462

> <Gold.Chemscore.Rot>
1.7249

> <Gold.Chemscore.Internal.Correction>
   9.000000E+99

> <Gold.Chemscore.Hbonds>
donor molecule, donor type, donor heavy atom, donor atom, acceptor molecule, acceptor atom, score
      P1  H  7997  8010       L1    14  0.20
      P1  H 10752 10764       L1    13  0.12

> <Gold.Chemscore.Hbond.Weighted>
-3.2793

> <Gold.Chemscore.Metal.Weighted>
-0.0000

> <Gold.Chemscore.Lipo.Weighted>
-10.6223

> <Gold.Chemscore.Internal_Hbond.Weighted>
0.0000

> <Gold.Chemscore.DEClash.Weighted>
0.1432

> <Gold.Chemscore.DEInternal.Weighted>
1.8462

> <Gold.Chemscore.Rot.Weighted>
4.4157

> <Gold.Chemscore.Internal.Correction.Weighted>
   9.000000E+99

> <Gold.Protein.RotatedTorsions>
[ 6907 6896 6895 6894 ] final   27.43 input  -60.11 | X-H torsion
[ 7974 7965 7964 7962 ] final  -51.56 input  175.53 | X-H torsion
[ 8008 7997 7996 7995 ] final   94.19 input   59.86 | X-H torsion
[ 10167 10162 10161 10158 ] final  -52.58 input  -65.29 | X-H torsion
[ 10718 10713 10712 10709 ] final  -58.72 input   66.30 | X-H torsion
[ 10763 10752 10751 10750 ] final  -57.78 input  -60.55 | X-H torsion
[ 11005 11000 10999 10996 ] final -161.16 input  -57.11 | X-H torsion

> <Gold.Protein.ActiveResidues>
 VAL166  LYS551  ARG553  GLY616  TRP617  ASP618  TYR619  PRO620  LYS621  CYS622 
 ASP623  PHE694  ASN695  SER759  ASP760  ASP761  ALA762  ILE779  LEU786  VAL792 
 PHE793  MET794  SER795  GLU796  ALA797  LYS798  CYS799  TRP800  GLU811  SER814 

> <Gold.Protein.RotatedAtoms>
  152.0021  134.9922  160.0565 H   0  0  0  0  0  0  0  0  0  0  0  0  # atno 6907 bound_to 6896
  152.1509  133.4516  159.4821 H   0  0  0  0  0  0  0  0  0  0  0  0  # atno 6908 bound_to 6896
  150.6875  134.2108  159.4401 H   0  0  0  0  0  0  0  0  0  0  0  0  # atno 6909 bound_to 6896
  145.9176  140.7861  142.9663 H   0  0  0  0  0  0  0  0  0  0  0  0  # atno 7974 bound_to 7965
  156.0551  140.3303  155.7396 H   0  0  0  0  0  0  0  0  0  0  0  0  # atno 8008 bound_to 7997
  155.5541  140.0613  157.2861 H   0  0  0  0  0  0  0  0  0  0  0  0  # atno 8009 bound_to 7997
  154.4454  140.1889  156.0705 H   0  0  0  0  0  0  0  0  0  0  0  0  # atno 8010 bound_to 7997
  140.6530  143.2579  151.4668 H   0  0  0  0  0  0  0  0  0  0  0  0  # atno 10167 bound_to 10162
  156.1114  130.4175  150.0617 H   0  0  0  0  0  0  0  0  0  0  0  0  # atno 10718 bound_to 10713
  154.2277  135.6366  153.5165 H   0  0  0  0  0  0  0  0  0  0  0  0  # atno 10763 bound_to 10752
  152.9955  135.5512  154.6046 H   0  0  0  0  0  0  0  0  0  0  0  0  # atno 10764 bound_to 10752
  154.5521  135.2902  155.0973 H   0  0  0  0  0  0  0  0  0  0  0  0  # atno 10765 bound_to 10752
  140.6235  134.4725  157.5225 H   0  0  0  0  0  0  0  0  0  0  0  0  # atno 11005 bound_to 11000
  144.6749  140.1925  143.7395 LP  0  0  0  0  0  0  0  0  0  0  0  0  # atno 17320 bound_to 7965
  145.8591  139.2214  143.1727 LP  0  0  0  0  0  0  0  0  0  0  0  0  # atno 17321 bound_to 7965
  139.5748  144.1845  152.1887 LP  0  0  0  0  0  0  0  0  0  0  0  0  # atno 17342 bound_to 10162
  140.1152  144.5422  150.6899 LP  0  0  0  0  0  0  0  0  0  0  0  0  # atno 17343 bound_to 10162
  156.8579  130.9481  151.3620 LP  0  0  0  0  0  0  0  0  0  0  0  0  # atno 17370 bound_to 10713
  157.6295  130.8718  149.9249 LP  0  0  0  0  0  0  0  0  0  0  0  0  # atno 17371 bound_to 10713
  139.9144  134.8277  156.1417 LP  0  0  0  0  0  0  0  0  0  0  0  0  # atno 17394 bound_to 11000
  141.0726  133.6790  156.2170 LP  0  0  0  0  0  0  0  0  0  0  0  0  # atno 17395 bound_to 11000

$$$$
