AV-unprocessed.smi:1444|AV-procd|sdf|5884|dock1
  -GOLD-   22720 5563D 1   1.00000     0.00000
 Structure written by MMmdl.
 44 45  0  0  0  0  0  0  0  0  2 V2000
  151.7976  138.3631  154.4545 C   0  0  0  0  0  0  0  0  0  0  0  0
  150.4439  138.3296  154.0158 O   0  0  0  0  0  0  0  0  0  0  0  0
  149.6442  139.4317  154.2533 C   0  0  0  0  0  0  0  0  0  0  0  0
  150.1964  140.5068  154.8690 N   0  0  0  0  0  0  0  0  0  0  0  0
  149.4192  141.5835  155.1022 C   0  0  0  0  0  0  0  0  0  0  0  0
  148.0617  141.6450  154.7389 C   0  0  0  0  0  0  0  0  0  0  0  0
  147.4859  140.5313  154.0998 C   0  0  0  0  0  0  0  0  0  0  0  0
  148.2894  139.3916  153.8460 C   0  0  0  0  0  0  0  0  0  0  0  0
  147.8313  138.2033  153.2081 N   0  0  0  0  0  0  0  0  0  0  0  0
  146.6549  137.5631  153.3162 C   0  0  0  0  0  0  0  0  0  0  0  0
  145.7189  137.8936  154.0425 O   0  0  0  0  0  0  0  0  0  0  0  0
  146.6257  136.4806  152.5248 N   0  0  0  0  0  0  0  0  0  0  0  0
  145.4959  135.5669  152.3510 C   0  0  1  0  0  0  0  0  0  0  0  0
  145.0411  135.6127  150.8859 C   0  0  0  0  0  0  0  0  0  0  0  0
  145.8619  134.1265  152.7771 C   0  0  0  0  0  0  0  0  0  0  0  0
  147.2989  133.9643  153.1141 N   0  3  0  0  0  0  0  0  0  0  0  0
  147.6395  134.4158  154.4854 C   0  0  0  0  0  0  0  0  0  0  0  0
  149.1520  134.2840  154.7284 C   0  0  0  0  0  0  0  0  0  0  0  0
  149.5533  132.9361  154.5141 O   0  0  0  0  0  0  0  0  0  0  0  0
  149.3043  132.5115  153.1795 C   0  0  0  0  0  0  0  0  0  0  0  0
  147.7966  132.5880  152.8844 C   0  0  0  0  0  0  0  0  0  0  0  0
  152.2849  137.4247  154.1912 H   0  0  0  0  0  0  0  0  0  0  0  0
  151.8639  138.4772  155.5375 H   0  0  0  0  0  0  0  0  0  0  0  0
  152.3530  139.1700  153.9743 H   0  0  0  0  0  0  0  0  0  0  0  0
  149.8934  142.4206  155.5931 H   0  0  0  0  0  0  0  0  0  0  0  0
  147.4755  142.5283  154.9453 H   0  0  0  0  0  0  0  0  0  0  0  0
  146.4456  140.5855  153.8244 H   0  0  0  0  0  0  0  0  0  0  0  0
  148.4934  137.7923  152.5657 H   0  0  0  0  0  0  0  0  0  0  0  0
  147.4454  136.2887  151.9670 H   0  0  0  0  0  0  0  0  0  0  0  0
  144.6561  135.9196  152.9511 H   0  0  0  0  0  0  0  0  0  0  0  0
  144.1746  134.9711  150.7239 H   0  0  0  0  0  0  0  0  0  0  0  0
  145.8312  135.2798  150.2118 H   0  0  0  0  0  0  0  0  0  0  0  0
  144.7581  136.6245  150.5932 H   0  0  0  0  0  0  0  0  0  0  0  0
  145.2517  133.8068  153.6233 H   0  0  0  0  0  0  0  0  0  0  0  0
  145.6102  133.4563  151.9536 H   0  0  0  0  0  0  0  0  0  0  0  0
  147.3399  135.4533  154.6306 H   0  0  0  0  0  0  0  0  0  0  0  0
  147.0911  133.8195  155.2162 H   0  0  0  0  0  0  0  0  0  0  0  0
  149.7116  134.9534  154.0727 H   0  0  0  0  0  0  0  0  0  0  0  0
  149.3940  134.5660  155.7533 H   0  0  0  0  0  0  0  0  0  0  0  0
  149.8700  133.1270  152.4782 H   0  0  0  0  0  0  0  0  0  0  0  0
  149.6589  131.4872  153.0624 H   0  0  0  0  0  0  0  0  0  0  0  0
  147.2521  131.8893  153.5216 H   0  0  0  0  0  0  0  0  0  0  0  0
  147.6115  132.2935  151.8508 H   0  0  0  0  0  0  0  0  0  0  0  0
  147.8089  134.5586  152.4756 H   0  0  0  0  0  0  0  0  0  0  0  0
  1  2  1  0  0  0  0
  1 22  1  0  0  0  0
  1 23  1  0  0  0  0
  1 24  1  0  0  0  0
  2  3  1  0  0  0  0
  3  8  1  0  0  0  0
  3  4  2  0  0  0  0
  4  5  1  0  0  0  0
  5  6  2  0  0  0  0
  5 25  1  0  0  0  0
  6  7  1  0  0  0  0
  6 26  1  0  0  0  0
  7  8  2  0  0  0  0
  7 27  1  0  0  0  0
  8  9  1  0  0  0  0
  9 10  1  0  0  0  0
  9 28  1  0  0  0  0
 10 11  2  0  0  0  0
 10 12  1  0  0  0  0
 12 13  1  0  0  0  0
 12 29  1  0  0  0  0
 13 14  1  0  0  0  0
 13 15  1  0  0  0  0
 13 30  1  0  0  0  0
 14 31  1  0  0  0  0
 14 32  1  0  0  0  0
 14 33  1  0  0  0  0
 15 16  1  0  0  0  0
 15 34  1  0  0  0  0
 15 35  1  0  0  0  0
 16 21  1  0  0  0  0
 16 17  1  0  0  0  0
 16 44  1  0  0  0  0
 17 18  1  0  0  0  0
 17 36  1  0  0  0  0
 17 37  1  0  0  0  0
 18 19  1  0  0  0  0
 18 38  1  0  0  0  0
 18 39  1  0  0  0  0
 19 20  1  0  0  0  0
 20 21  1  0  0  0  0
 20 40  1  0  0  0  0
 20 41  1  0  0  0  0
 21 42  1  0  0  0  0
 21 43  1  0  0  0  0
M  CHG  1  16   1
M  END
> <s_m_source_file>
AV-unprocessed.smi

> <i_m_source_file_index>
1444

> <i_lp_mmshare_version>
43012

> <i_f3d_flags>
0

> <s_epik_input>
W0NIM11PYzFuW2NIXVtjSF1bY0hdYzFbTkhdQyg9TylbTkhdW0NASF0oW0NIM10pW0NIMl1OMltDSDJdW0NIMl1PW0NIMl1bQ0gyXTI=

> <s_epik_cmdline>
J2VwaWtfcHl0aG9uJywgJy1waCcsICc3LjAnLCAnLXRuJywgJzgnLCAnLW1hJywgJzIwMCcsICctbWV0YWxfYmluZGluZycsICctaW1hZScsICc8aW5maWxlLm1hZT4nLCAnLW9tYWUnLCAnPG91dGZpbGUubWFlPic=

> <r_lp_tautomer_probability>
1

> <r_epik_Ionization_Penalty>
0.602604

> <r_epik_Ionization_Penalty_Charging>
0.602531

> <r_epik_Ionization_Penalty_Neutral>
7.37688e-05

> <r_epik_State_Penalty>
0.617039

> <r_epik_Charging_Adjusted_Penalty>
1.21957

> <i_epik_Tot_Q>
1

> <i_epik_Tot_abs_Q>
1

> <r_epik_Metal_State_Penalty>
0.617045

> <b_epik_Metal_Only>
0

> <s_lp_Force_Field>
OPLS_2005

> <r_lp_Energy>
24.8141

> <b_lp_Chiralities_Consistent>
1

> <s_lp_Variant>
AV-unprocessed.smi:1444-4

> <Gold.Version>
5.8.1

> <Gold.Id.Protein>
6NUR|6NUR_protein|mol2

> <Gold.PLP.Fitness>
46.0069

> <Gold.PLP.PLP>
-32.3277

> <Gold.PLP.part.hbond>
-4.3921

> <Gold.PLP.part.metal>
0.0000

> <Gold.PLP.part.buried>
0.3300

> <Gold.PLP.part.nonpolar>
-29.4936

> <Gold.PLP.part.repulsive>
0.6617

> <Gold.PLP.ligand.clash>
0.0000

> <Gold.PLP.ligand.torsion>
1.2941

> <Gold.PLP.Chemscore.Hbond>
4.3825

> <Gold.PLP.Chemscore.CHOScore>
0.9687

> <Gold.PLP.Chemscore.Metal>
0.0000

> <Gold.Chemscore.Hbonds>
donor molecule, donor type, donor heavy atom, donor atom, acceptor molecule, acceptor atom, score
      L1  H     9    28       P1  7948  0.86
      L1  H    12    29       P1  7948  0.89
      L1  H    16    44       P1  7948  1.79
      P1  H  7989  7998       L1     4  0.82
      L1  C     5    25       P1  8028  0.86

> <Gold.PLP.Chemscore.Internal.Correction>
0.2140

> <Gold.Rescore>
     Score         DG    S(hbond)    S(metal)    S(lipo)     H(rot)  DE(clash)    DE(int)     intcor
     16.23     -17.71       2.65        0.00      67.83       1.78       0.09       1.39       ----

> <Gold.Chemscore.Fitness>
16.2296

> <Gold.Chemscore.DG>
-17.7112

> <Gold.Chemscore.ZeroCoef>
-5.4800

> <Gold.Chemscore.Hbond>
2.6502

> <Gold.Chemscore.Metal>
0.0000

> <Gold.Chemscore.Lipo>
67.8336

> <Gold.Chemscore.Internal_Hbond>
0.0000

> <Gold.Chemscore.DEClash>
0.0884

> <Gold.Chemscore.DEInternal>
1.3932

> <Gold.Chemscore.Rot>
1.7801

> <Gold.Chemscore.Internal.Correction>
   9.000000E+99

> <Gold.Chemscore.Hbonds>
donor molecule, donor type, donor heavy atom, donor atom, acceptor molecule, acceptor atom, score
      L1  H     9    28       P1  7948  0.85
      L1  H    12    29       P1  7948  0.83
      L1  H    16    44       P1  7948  0.55
      P1  H  7989  7998       L1     4  0.11

> <Gold.Chemscore.Hbond.Weighted>
-8.8517

> <Gold.Chemscore.Metal.Weighted>
-0.0000

> <Gold.Chemscore.Lipo.Weighted>
-7.9365

> <Gold.Chemscore.Internal_Hbond.Weighted>
0.0000

> <Gold.Chemscore.DEClash.Weighted>
0.0884

> <Gold.Chemscore.DEInternal.Weighted>
1.3932

> <Gold.Chemscore.Rot.Weighted>
4.5570

> <Gold.Chemscore.Internal.Correction.Weighted>
   9.000000E+99

> <Gold.Protein.RotatedTorsions>
[ 6907 6896 6895 6894 ] final  129.18 input  -60.11 | X-H torsion
[ 7974 7965 7964 7962 ] final -101.32 input  175.53 | X-H torsion
[ 8008 7997 7996 7995 ] final   64.55 input   59.86 | X-H torsion
[ 10167 10162 10161 10158 ] final  -16.77 input  -65.29 | X-H torsion
[ 10718 10713 10712 10709 ] final  -47.52 input   66.30 | X-H torsion
[ 10763 10752 10751 10750 ] final -162.40 input  -60.55 | X-H torsion
[ 11005 11000 10999 10996 ] final  -34.19 input  -57.11 | X-H torsion

> <Gold.Protein.ActiveResidues>
 VAL166  LYS551  ARG553  GLY616  TRP617  ASP618  TYR619  PRO620  LYS621  CYS622 
 ASP623  PHE694  ASN695  SER759  ASP760  ASP761  ALA762  ILE779  LEU786  VAL792 
 PHE793  MET794  SER795  GLU796  ALA797  LYS798  CYS799  TRP800  GLU811  SER814 

> <Gold.Protein.RotatedAtoms>
  152.3648  133.6343  159.6042 H   0  0  0  0  0  0  0  0  0  0  0  0  # atno 6907 bound_to 6896
  150.7626  133.9365  159.3452 H   0  0  0  0  0  0  0  0  0  0  0  0  # atno 6908 bound_to 6896
  151.7197  135.0897  160.0333 H   0  0  0  0  0  0  0  0  0  0  0  0  # atno 6909 bound_to 6896
  145.2831  140.9332  143.2920 H   0  0  0  0  0  0  0  0  0  0  0  0  # atno 7974 bound_to 7965
  155.6479  140.3497  155.4737 H   0  0  0  0  0  0  0  0  0  0  0  0  # atno 8008 bound_to 7997
  155.9872  140.1186  157.0695 H   0  0  0  0  0  0  0  0  0  0  0  0  # atno 8009 bound_to 7997
  154.4208  140.1126  156.5502 H   0  0  0  0  0  0  0  0  0  0  0  0  # atno 8010 bound_to 7997
  140.7238  143.5082  150.9782 H   0  0  0  0  0  0  0  0  0  0  0  0  # atno 10167 bound_to 10162
  156.2076  130.4159  149.9157 H   0  0  0  0  0  0  0  0  0  0  0  0  # atno 10718 bound_to 10713
  154.7218  135.3027  154.9035 H   0  0  0  0  0  0  0  0  0  0  0  0  # atno 10763 bound_to 10752
  153.9905  135.6719  153.4758 H   0  0  0  0  0  0  0  0  0  0  0  0  # atno 10764 bound_to 10752
  153.0840  135.4994  154.8478 H   0  0  0  0  0  0  0  0  0  0  0  0  # atno 10765 bound_to 10752
  140.9696  133.7117  156.1502 H   0  0  0  0  0  0  0  0  0  0  0  0  # atno 11005 bound_to 11000
  144.9236  139.4382  143.6529 LP  0  0  0  0  0  0  0  0  0  0  0  0  # atno 17320 bound_to 7965
  146.3210  139.8109  142.8946 LP  0  0  0  0  0  0  0  0  0  0  0  0  # atno 17321 bound_to 7965
  139.8795  143.7090  152.3158 LP  0  0  0  0  0  0  0  0  0  0  0  0  # atno 17342 bound_to 10162
  139.7367  144.7569  151.0716 LP  0  0  0  0  0  0  0  0  0  0  0  0  # atno 17343 bound_to 10162
  156.6845  130.8871  151.3580 LP  0  0  0  0  0  0  0  0  0  0  0  0  # atno 17370 bound_to 10713
  157.7021  130.9344  150.0817 LP  0  0  0  0  0  0  0  0  0  0  0  0  # atno 17371 bound_to 10713
  140.7348  134.4214  157.5562 LP  0  0  0  0  0  0  0  0  0  0  0  0  # atno 17394 bound_to 11000
  139.8907  134.8798  156.2356 LP  0  0  0  0  0  0  0  0  0  0  0  0  # atno 17395 bound_to 11000

$$$$
