AV-unprocessed.smi:256|AV-procd|sdf|1958|dock2
  -GOLD-   2262021103D 1   1.00000     0.00000
 Structure written by MMmdl.
 62 65  0  0  0  0  0  0  0  0  2 V2000
  151.2691  139.6140  155.3349 C   0  0  0  0  0  0  0  0  0  0  0  0
  149.7809  139.9274  155.1213 C   0  0  0  0  0  0  0  0  0  0  0  0
  149.4579  141.4402  154.9824 C   0  0  1  0  0  0  0  0  0  0  0  0
  148.0647  141.7296  154.3709 C   0  0  0  0  0  0  0  0  0  0  0  0
  146.9845  141.4782  155.3233 N   0  0  0  0  0  0  0  0  0  0  0  0
  146.4466  140.2285  155.3303 C   0  0  0  0  0  0  0  0  0  0  0  0
  145.8898  139.7418  156.4720 N   0  0  0  0  0  0  0  0  0  0  0  0
  145.3958  138.5017  156.5116 C   0  0  0  0  0  0  0  0  0  0  0  0
  145.3546  137.5905  155.5392 N   0  0  0  0  0  0  0  0  0  0  0  0
  145.8918  138.0751  154.3839 C   0  0  0  0  0  0  0  0  0  0  0  0
  146.4455  139.3727  154.1909 C   0  0  0  0  0  0  0  0  0  0  0  0
  146.8733  139.5086  152.8752 N   0  0  0  0  0  0  0  0  0  0  0  0
  146.6059  138.3542  152.3292 C   0  0  0  0  0  0  0  0  0  0  0  0
  146.0297  137.4281  153.1683 N   0  0  0  0  0  0  0  0  0  0  0  0
  145.6411  136.0672  152.8292 C   0  0  0  0  0  0  0  0  0  0  0  0
  144.4855  135.9805  151.7944 C   0  0  0  0  0  0  0  0  0  0  0  0
  144.9695  136.5023  150.5705 O   0  0  0  0  0  0  0  0  0  0  0  0
  143.9890  134.5437  151.5212 C   0  0  0  0  0  0  0  0  0  0  0  0
  143.1595  134.0043  152.6992 C   0  0  0  0  0  0  0  0  0  0  0  0
  142.0650  134.8763  152.9593 O   0  0  0  0  0  0  0  0  0  0  0  0
  142.4743  136.1832  153.3480 C   0  0  0  0  0  0  0  0  0  0  0  0
  143.2782  136.8431  152.2127 C   0  0  0  0  0  0  0  0  0  0  0  0
  147.1273  142.2065  156.5819 C   0  0  0  0  0  0  0  0  0  0  0  0
  148.5001  141.9444  157.2272 C   0  0  0  0  0  0  0  0  0  0  0  0
  149.6063  142.1983  156.2663 N   0  3  1  0  0  0  0  0  0  0  0  0
  150.9417  142.1404  156.9213 C   0  0  0  0  0  0  0  0  0  0  0  0
  151.1134  143.1631  158.0618 C   0  0  0  0  0  0  0  0  0  0  0  0
  152.3544  143.0080  158.7380 O   0  0  0  0  0  0  0  0  0  0  0  0
  152.5597  143.9237  159.8025 C   0  0  0  0  0  0  0  0  0  0  0  0
  151.4124  138.5505  155.5271 H   0  0  0  0  0  0  0  0  0  0  0  0
  151.6703  140.1609  156.1884 H   0  0  0  0  0  0  0  0  0  0  0  0
  151.8688  139.8633  154.4605 H   0  0  0  0  0  0  0  0  0  0  0  0
  149.4225  139.3720  154.2560 H   0  0  0  0  0  0  0  0  0  0  0  0
  149.2482  139.5162  155.9775 H   0  0  0  0  0  0  0  0  0  0  0  0
  150.1771  141.8533  154.2760 H   0  0  0  0  0  0  0  0  0  0  0  0
  148.0122  142.7843  154.0975 H   0  0  0  0  0  0  0  0  0  0  0  0
  147.9339  141.1897  153.4361 H   0  0  0  0  0  0  0  0  0  0  0  0
  144.9786  138.1934  157.4592 H   0  0  0  0  0  0  0  0  0  0  0  0
  146.8304  138.1416  151.2939 H   0  0  0  0  0  0  0  0  0  0  0  0
  146.5262  135.5473  152.4637 H   0  0  0  0  0  0  0  0  0  0  0  0
  145.3587  135.5581  153.7518 H   0  0  0  0  0  0  0  0  0  0  0  0
  144.7154  137.4106  150.5101 H   0  0  0  0  0  0  0  0  0  0  0  0
  143.3549  134.5407  150.6332 H   0  0  0  0  0  0  0  0  0  0  0  0
  144.8155  133.8694  151.2970 H   0  0  0  0  0  0  0  0  0  0  0  0
  142.7696  133.0154  152.4576 H   0  0  0  0  0  0  0  0  0  0  0  0
  143.7672  133.8917  153.5973 H   0  0  0  0  0  0  0  0  0  0  0  0
  141.5858  136.7757  153.5660 H   0  0  0  0  0  0  0  0  0  0  0  0
  143.0517  136.1364  154.2719 H   0  0  0  0  0  0  0  0  0  0  0  0
  143.6019  137.8415  152.5092 H   0  0  0  0  0  0  0  0  0  0  0  0
  142.6109  136.9791  151.3599 H   0  0  0  0  0  0  0  0  0  0  0  0
  147.0255  143.2707  156.3657 H   0  0  0  0  0  0  0  0  0  0  0  0
  146.3202  141.9640  157.2743 H   0  0  0  0  0  0  0  0  0  0  0  0
  148.6112  142.5926  158.0971 H   0  0  0  0  0  0  0  0  0  0  0  0
  148.5613  140.9199  157.5955 H   0  0  0  0  0  0  0  0  0  0  0  0
  151.0875  141.1380  157.3240 H   0  0  0  0  0  0  0  0  0  0  0  0
  151.7317  142.2672  156.1814 H   0  0  0  0  0  0  0  0  0  0  0  0
  151.0172  144.1798  157.6777 H   0  0  0  0  0  0  0  0  0  0  0  0
  150.3115  143.0502  158.7909 H   0  0  0  0  0  0  0  0  0  0  0  0
  153.5011  143.6925  160.3007 H   0  0  0  0  0  0  0  0  0  0  0  0
  151.7637  143.8537  160.5448 H   0  0  0  0  0  0  0  0  0  0  0  0
  152.6199  144.9523  159.4474 H   0  0  0  0  0  0  0  0  0  0  0  0
  149.4941  143.1665  156.0010 H   0  0  0  0  0  0  0  0  0  0  0  0
  1  2  1  0  0  0  0
  1 30  1  0  0  0  0
  1 31  1  0  0  0  0
  1 32  1  0  0  0  0
  2  3  1  0  0  0  0
  2 33  1  0  0  0  0
  2 34  1  0  0  0  0
  3 25  1  0  0  0  0
  3  4  1  0  0  0  0
  3 35  1  0  0  0  0
  4  5  1  0  0  0  0
  4 36  1  0  0  0  0
  4 37  1  0  0  0  0
  5  6  1  0  0  0  0
  5 23  1  0  0  0  0
  6 11  1  0  0  0  0
  6  7  2  0  0  0  0
  7  8  1  0  0  0  0
  8  9  2  0  0  0  0
  8 38  1  0  0  0  0
  9 10  1  0  0  0  0
 10 14  1  0  0  0  0
 10 11  2  0  0  0  0
 11 12  1  0  0  0  0
 12 13  2  0  0  0  0
 13 14  1  0  0  0  0
 13 39  1  0  0  0  0
 14 15  1  0  0  0  0
 15 16  1  0  0  0  0
 15 40  1  0  0  0  0
 15 41  1  0  0  0  0
 16 22  1  0  0  0  0
 16 17  1  0  0  0  0
 16 18  1  0  0  0  0
 17 42  1  0  0  0  0
 18 19  1  0  0  0  0
 18 43  1  0  0  0  0
 18 44  1  0  0  0  0
 19 20  1  0  0  0  0
 19 45  1  0  0  0  0
 19 46  1  0  0  0  0
 20 21  1  0  0  0  0
 21 22  1  0  0  0  0
 21 47  1  0  0  0  0
 21 48  1  0  0  0  0
 22 49  1  0  0  0  0
 22 50  1  0  0  0  0
 23 24  1  0  0  0  0
 23 51  1  0  0  0  0
 23 52  1  0  0  0  0
 24 25  1  0  0  0  0
 24 53  1  0  0  0  0
 24 54  1  0  0  0  0
 25 26  1  0  0  0  0
 25 62  1  0  0  0  0
 26 27  1  0  0  0  0
 26 55  1  0  0  0  0
 26 56  1  0  0  0  0
 27 28  1  0  0  0  0
 27 57  1  0  0  0  0
 27 58  1  0  0  0  0
 28 29  1  0  0  0  0
 29 59  1  0  0  0  0
 29 60  1  0  0  0  0
 29 61  1  0  0  0  0
M  CHG  1  25   1
M  END
> <s_m_source_file>
AV-unprocessed.smi

> <i_m_source_file_index>
256

> <i_lp_mmshare_version>
43012

> <i_f3d_flags>
0

> <s_epik_input>
W0NIM11PW0NIMl1bQ0gyXU4xW0NIMl1bQ0gyXU4oW0NIMl1bQ0BIXTFbQ0gyXVtDSDNdKWMobltjSF1uMiljKGMyMyluW2NIXW4zW0NIMl1DNChbT0hdKVtDSDJdW0NIMl1PW0NIMl1bQ0gyXTQ=

> <s_epik_cmdline>
J2VwaWtfcHl0aG9uJywgJy1waCcsICc3LjAnLCAnLXRuJywgJzgnLCAnLW1hJywgJzIwMCcsICctbWV0YWxfYmluZGluZycsICctaW1hZScsICc8aW5maWxlLm1hZT4nLCAnLW9tYWUnLCAnPG91dGZpbGUubWFlPic=

> <r_lp_tautomer_probability>
1

> <r_epik_Ionization_Penalty>
0.233023

> <r_epik_Ionization_Penalty_Charging>
0.23295

> <r_epik_Ionization_Penalty_Neutral>
7.2493e-05

> <r_epik_State_Penalty>
0.223667

> <r_epik_Charging_Adjusted_Penalty>
0.456618

> <i_epik_Tot_Q>
1

> <i_epik_Tot_abs_Q>
1

> <r_epik_Metal_State_Penalty>
0.226879

> <b_epik_Metal_Only>
0

> <s_lp_Force_Field>
OPLS_2005

> <r_lp_Energy>
45.4801

> <b_lp_Chiralities_Consistent>
1

> <s_lp_Variant>
AV-unprocessed.smi:256-2

> <Gold.Version>
5.8.1

> <Gold.Id.Protein>
6NUR|6NUR_protein|mol2

> <Gold.PLP.Fitness>
48.9445

> <Gold.PLP.PLP>
-40.1244

> <Gold.PLP.part.hbond>
-1.5546

> <Gold.PLP.part.metal>
0.0000

> <Gold.PLP.part.buried>
-3.4419

> <Gold.PLP.part.nonpolar>
-36.1192

> <Gold.PLP.part.repulsive>
0.6189

> <Gold.PLP.ligand.clash>
0.0000

> <Gold.PLP.ligand.torsion>
0.3847

> <Gold.PLP.Chemscore.Hbond>
3.0000

> <Gold.PLP.Chemscore.CHOScore>
0.0000

> <Gold.PLP.Chemscore.Metal>
0.0000

> <Gold.Chemscore.Hbonds>
donor molecule, donor type, donor heavy atom, donor atom, acceptor molecule, acceptor atom, score
      L1  H    17    42       P1 10171  0.99
      L1  H    25    62       P1  8028  2.00
      L1  C    13    39       P1  7948  0.05

> <Gold.PLP.Chemscore.Internal.Correction>
0.5896

> <Gold.Rescore>
     Score         DG    S(hbond)    S(metal)    S(lipo)     H(rot)  DE(clash)    DE(int)     intcor
     13.55     -15.73       1.89        0.00      91.40       2.65       0.31       1.86       ----

> <Gold.Chemscore.Fitness>
13.5546

> <Gold.Chemscore.DG>
-15.7257

> <Gold.Chemscore.ZeroCoef>
-5.4800

> <Gold.Chemscore.Hbond>
1.8939

> <Gold.Chemscore.Metal>
0.0000

> <Gold.Chemscore.Lipo>
91.4048

> <Gold.Chemscore.Internal_Hbond>
0.0000

> <Gold.Chemscore.DEClash>
0.3149

> <Gold.Chemscore.DEInternal>
1.8562

> <Gold.Chemscore.Rot>
2.6462

> <Gold.Chemscore.Internal.Correction>
   9.000000E+99

> <Gold.Chemscore.Hbonds>
donor molecule, donor type, donor heavy atom, donor atom, acceptor molecule, acceptor atom, score
      L1  H    17    42       P1 10171  0.93
      L1  H    25    62       P1  8028  1.00

> <Gold.Chemscore.Hbond.Weighted>
-6.3255

> <Gold.Chemscore.Metal.Weighted>
-0.0000

> <Gold.Chemscore.Lipo.Weighted>
-10.6944

> <Gold.Chemscore.Internal_Hbond.Weighted>
0.0000

> <Gold.Chemscore.DEClash.Weighted>
0.3149

> <Gold.Chemscore.DEInternal.Weighted>
1.8562

> <Gold.Chemscore.Rot.Weighted>
6.7742

> <Gold.Chemscore.Internal.Correction.Weighted>
   9.000000E+99

> <Gold.Protein.RotatedTorsions>
[ 6907 6896 6895 6894 ] final  158.99 input  -60.11 | X-H torsion
[ 7974 7965 7964 7962 ] final  -51.51 input  175.53 | X-H torsion
[ 8008 7997 7996 7995 ] final -139.55 input   59.86 | X-H torsion
[ 10167 10162 10161 10158 ] final  -32.59 input  -65.29 | X-H torsion
[ 10718 10713 10712 10709 ] final  -14.53 input   66.30 | X-H torsion
[ 10763 10752 10751 10750 ] final   49.21 input  -60.55 | X-H torsion
[ 11005 11000 10999 10996 ] final   24.99 input  -57.11 | X-H torsion

> <Gold.Protein.ActiveResidues>
 VAL166  LYS551  ARG553  GLY616  TRP617  ASP618  TYR619  PRO620  LYS621  CYS622 
 ASP623  PHE694  ASN695  SER759  ASP760  ASP761  ALA762  ILE779  LEU786  VAL792 
 PHE793  MET794  SER795  GLU796  ALA797  LYS798  CYS799  TRP800  GLU811  SER814 

> <Gold.Protein.RotatedAtoms>
  151.9922  133.3795  159.4148 H   0  0  0  0  0  0  0  0  0  0  0  0  # atno 6907 bound_to 6896
  150.6920  134.3924  159.5091 H   0  0  0  0  0  0  0  0  0  0  0  0  # atno 6908 bound_to 6896
  152.1659  134.8874  160.0589 H   0  0  0  0  0  0  0  0  0  0  0  0  # atno 6909 bound_to 6896
  145.9181  140.7857  142.9661 H   0  0  0  0  0  0  0  0  0  0  0  0  # atno 7974 bound_to 7965
  155.4467  140.0536  157.3005 H   0  0  0  0  0  0  0  0  0  0  0  0  # atno 8008 bound_to 7997
  154.4794  140.2075  155.9755 H   0  0  0  0  0  0  0  0  0  0  0  0  # atno 8009 bound_to 7997
  156.1183  140.3192  155.8176 H   0  0  0  0  0  0  0  0  0  0  0  0  # atno 8010 bound_to 7997
  140.7219  143.3683  151.1827 H   0  0  0  0  0  0  0  0  0  0  0  0  # atno 10167 bound_to 10162
  156.6146  130.4859  149.6188 H   0  0  0  0  0  0  0  0  0  0  0  0  # atno 10718 bound_to 10713
  152.9788  135.5919  154.4053 H   0  0  0  0  0  0  0  0  0  0  0  0  # atno 10763 bound_to 10752
  154.3694  135.2767  155.2277 H   0  0  0  0  0  0  0  0  0  0  0  0  # atno 10764 bound_to 10752
  154.4239  135.6052  153.6081 H   0  0  0  0  0  0  0  0  0  0  0  0  # atno 10765 bound_to 10752
  140.3527  134.2211  155.7678 H   0  0  0  0  0  0  0  0  0  0  0  0  # atno 11005 bound_to 11000
  144.6750  140.1933  143.7394 LP  0  0  0  0  0  0  0  0  0  0  0  0  # atno 17320 bound_to 7965
  145.8585  139.2211  143.1730 LP  0  0  0  0  0  0  0  0  0  0  0  0  # atno 17321 bound_to 7965
  139.7249  143.9164  152.2999 LP  0  0  0  0  0  0  0  0  0  0  0  0  # atno 17342 bound_to 10162
  139.8933  144.6953  150.8746 LP  0  0  0  0  0  0  0  0  0  0  0  0  # atno 17343 bound_to 10162
  156.2362  130.6824  151.1511 LP  0  0  0  0  0  0  0  0  0  0  0  0  # atno 17370 bound_to 10713
  157.7245  131.0659  150.5994 LP  0  0  0  0  0  0  0  0  0  0  0  0  # atno 17371 bound_to 10713
  141.2007  133.7980  157.0474 LP  0  0  0  0  0  0  0  0  0  0  0  0  # atno 17394 bound_to 11000
  140.0690  134.9713  157.1435 LP  0  0  0  0  0  0  0  0  0  0  0  0  # atno 17395 bound_to 11000

$$$$
