AV-unprocessed.smi:1191|AV-procd|sdf|4986|dock8
  -GOLD-   22720 3583D 1   1.00000     0.00000
 Structure written by MMmdl.
 47 48  0  0  0  0  0  0  0  0  2 V2000
  145.1054  145.1728  152.9161 C   0  0  0  0  0  0  0  0  0  0  0  0
  145.3720  143.9179  153.6940 C   0  0  0  0  0  0  0  0  0  0  0  0
  144.7575  143.4807  154.9006 C   0  0  0  0  0  0  0  0  0  0  0  0
  145.3619  142.2861  155.1743 C   0  0  0  0  0  0  0  0  0  0  0  0
  145.1482  141.3349  156.3058 C   0  0  0  0  0  0  0  0  0  0  0  0
  146.2813  142.0613  154.1648 N   0  0  0  0  0  0  0  0  0  0  0  0
  147.1801  140.9331  153.9757 C   0  0  0  0  0  0  0  0  0  0  0  0
  148.5430  141.1991  154.6165 C   0  0  0  0  0  0  0  0  0  0  0  0
  149.5411  141.3364  153.9096 O   0  0  0  0  0  0  0  0  0  0  0  0
  148.5707  141.2746  155.9561 N   0  0  0  0  0  0  0  0  0  0  0  0
  149.7590  141.5455  156.7547 C   0  0  0  0  0  0  0  0  0  0  0  0
  149.3984  142.2466  158.0782 C   0  0  0  0  0  0  0  0  0  0  0  0
  150.5975  142.7664  158.7813 N   0  3  1  0  0  0  0  0  0  0  0  0
  151.5238  141.6819  159.1967 C   0  0  0  0  0  0  0  0  0  0  0  0
  152.6680  142.2337  160.0617 C   0  0  0  0  0  0  0  0  0  0  0  0
  153.4218  143.3544  159.3316 C   0  0  0  0  0  0  0  0  0  0  0  0
  152.4573  144.4500  158.8399 C   0  0  2  0  0  0  0  0  0  0  0  0
  151.9398  145.3458  159.9790 C   0  0  0  0  0  0  0  0  0  0  0  0
  151.3074  143.8300  158.0197 C   0  0  0  0  0  0  0  0  0  0  0  0
  146.2819  143.0628  153.2575 N   0  0  0  0  0  0  0  0  0  0  0  0
  144.3900  145.8128  153.4328 H   0  0  0  0  0  0  0  0  0  0  0  0
  144.6952  144.9442  151.9322 H   0  0  0  0  0  0  0  0  0  0  0  0
  146.0202  145.7482  152.7716 H   0  0  0  0  0  0  0  0  0  0  0  0
  143.9881  143.9708  155.4788 H   0  0  0  0  0  0  0  0  0  0  0  0
  144.3762  141.7022  156.9824 H   0  0  0  0  0  0  0  0  0  0  0  0
  146.0639  141.2044  156.8828 H   0  0  0  0  0  0  0  0  0  0  0  0
  144.8343  140.3575  155.9392 H   0  0  0  0  0  0  0  0  0  0  0  0
  146.7350  140.0359  154.4091 H   0  0  0  0  0  0  0  0  0  0  0  0
  147.2965  140.7436  152.9082 H   0  0  0  0  0  0  0  0  0  0  0  0
  147.7005  141.1495  156.4538 H   0  0  0  0  0  0  0  0  0  0  0  0
  150.2486  140.5903  156.9398 H   0  0  0  0  0  0  0  0  0  0  0  0
  150.4637  142.1499  156.1807 H   0  0  0  0  0  0  0  0  0  0  0  0
  148.7297  143.0786  157.8531 H   0  0  0  0  0  0  0  0  0  0  0  0
  148.8419  141.5770  158.7359 H   0  0  0  0  0  0  0  0  0  0  0  0
  150.9807  140.9284  159.7687 H   0  0  0  0  0  0  0  0  0  0  0  0
  151.9235  141.1832  158.3123 H   0  0  0  0  0  0  0  0  0  0  0  0
  152.2689  142.6058  161.0058 H   0  0  0  0  0  0  0  0  0  0  0  0
  153.3587  141.4301  160.3187 H   0  0  0  0  0  0  0  0  0  0  0  0
  154.1888  143.7803  159.9792 H   0  0  0  0  0  0  0  0  0  0  0  0
  153.9472  142.9290  158.4754 H   0  0  0  0  0  0  0  0  0  0  0  0
  153.0215  145.1010  158.1706 H   0  0  0  0  0  0  0  0  0  0  0  0
  151.3361  144.7883  160.6950 H   0  0  0  0  0  0  0  0  0  0  0  0
  151.3219  146.1552  159.5890 H   0  0  0  0  0  0  0  0  0  0  0  0
  152.7664  145.8011  160.5254 H   0  0  0  0  0  0  0  0  0  0  0  0
  151.7034  143.4012  157.0975 H   0  0  0  0  0  0  0  0  0  0  0  0
  150.6154  144.6163  157.7200 H   0  0  0  0  0  0  0  0  0  0  0  0
  150.2630  143.1889  159.6358 H   0  0  0  0  0  0  0  0  0  0  0  0
  1  2  1  0  0  0  0
  1 21  1  0  0  0  0
  1 22  1  0  0  0  0
  1 23  1  0  0  0  0
  2 20  2  0  0  0  0
  2  3  1  0  0  0  0
  3  4  2  0  0  0  0
  3 24  1  0  0  0  0
  4  5  1  0  0  0  0
  4  6  1  0  0  0  0
  5 25  1  0  0  0  0
  5 26  1  0  0  0  0
  5 27  1  0  0  0  0
  6  7  1  0  0  0  0
  6 20  1  0  0  0  0
  7  8  1  0  0  0  0
  7 28  1  0  0  0  0
  7 29  1  0  0  0  0
  8  9  2  0  0  0  0
  8 10  1  0  0  0  0
 10 11  1  0  0  0  0
 10 30  1  0  0  0  0
 11 12  1  0  0  0  0
 11 31  1  0  0  0  0
 11 32  1  0  0  0  0
 12 13  1  0  0  0  0
 12 33  1  0  0  0  0
 12 34  1  0  0  0  0
 13 19  1  0  0  0  0
 13 14  1  0  0  0  0
 13 47  1  0  0  0  0
 14 15  1  0  0  0  0
 14 35  1  0  0  0  0
 14 36  1  0  0  0  0
 15 16  1  0  0  0  0
 15 37  1  0  0  0  0
 15 38  1  0  0  0  0
 16 17  1  0  0  0  0
 16 39  1  0  0  0  0
 16 40  1  0  0  0  0
 17 18  1  0  0  0  0
 17 19  1  0  0  0  0
 17 41  1  0  0  0  0
 18 42  1  0  0  0  0
 18 43  1  0  0  0  0
 18 44  1  0  0  0  0
 19 45  1  0  0  0  0
 19 46  1  0  0  0  0
M  CHG  1  13   1
M  END
> <s_m_source_file>
AV-unprocessed.smi

> <i_m_source_file_index>
1191

> <i_lp_mmshare_version>
43012

> <i_f3d_flags>
0

> <s_epik_input>
W0NIM11jMVtjSF1jKFtDSDNdKW4objEpW0NIMl1DKD1PKVtOSF1bQ0gyXVtDSDJdTjJbQ0gyXVtDSDJdW0NIMl1bQ0BASF0oW0NIM10pW0NIMl0y

> <s_epik_cmdline>
J2VwaWtfcHl0aG9uJywgJy1waCcsICc3LjAnLCAnLXRuJywgJzgnLCAnLW1hJywgJzIwMCcsICctbWV0YWxfYmluZGluZycsICctaW1hZScsICc8aW5maWxlLm1hZT4nLCAnLW9tYWUnLCAnPG91dGZpbGUubWFlPic=

> <r_lp_tautomer_probability>
1

> <r_epik_Ionization_Penalty>
0.00249932

> <r_epik_Ionization_Penalty_Charging>
0.00230623

> <r_epik_Ionization_Penalty_Neutral>
0.000193092

> <r_epik_State_Penalty>
-0

> <r_epik_Charging_Adjusted_Penalty>
0.00230623

> <i_epik_Tot_Q>
1

> <i_epik_Tot_abs_Q>
1

> <r_epik_Metal_State_Penalty>
-0

> <b_epik_Metal_Only>
0

> <s_lp_Force_Field>
OPLS_2005

> <r_lp_Energy>
16.3649

> <b_lp_Chiralities_Consistent>
1

> <s_lp_Variant>
AV-unprocessed.smi:1191-3

> <Gold.Version>
5.8.1

> <Gold.Id.Protein>
6NUR|6NUR_protein|mol2

> <Gold.PLP.Fitness>
46.0875

> <Gold.PLP.PLP>
-44.4700

> <Gold.PLP.part.hbond>
-2.0000

> <Gold.PLP.part.metal>
0.0000

> <Gold.PLP.part.buried>
-3.8744

> <Gold.PLP.part.nonpolar>
-40.2357

> <Gold.PLP.part.repulsive>
1.2546

> <Gold.PLP.ligand.clash>
0.0000

> <Gold.PLP.ligand.torsion>
0.6498

> <Gold.PLP.Chemscore.Hbond>
0.9629

> <Gold.PLP.Chemscore.CHOScore>
0.0000

> <Gold.PLP.Chemscore.Metal>
0.0000

> <Gold.Chemscore.Hbonds>
donor molecule, donor type, donor heavy atom, donor atom, acceptor molecule, acceptor atom, score
      P1  H  7989  7998       L1     9  0.19
      P1  H  8011  8017       L1     9  0.77

> <Gold.PLP.Chemscore.Internal.Correction>
0.0285

> <Gold.Rescore>
     Score         DG    S(hbond)    S(metal)    S(lipo)     H(rot)  DE(clash)    DE(int)     intcor
     16.33     -18.28       1.23        0.00     110.81       1.67       1.42       0.53       ----

> <Gold.Chemscore.Fitness>
16.3265

> <Gold.Chemscore.DG>
-18.2794

> <Gold.Chemscore.ZeroCoef>
-5.4800

> <Gold.Chemscore.Hbond>
1.2271

> <Gold.Chemscore.Metal>
0.0000

> <Gold.Chemscore.Lipo>
110.8106

> <Gold.Chemscore.Internal_Hbond>
0.0000

> <Gold.Chemscore.DEClash>
1.4241

> <Gold.Chemscore.DEInternal>
0.5288

> <Gold.Chemscore.Rot>
1.6657

> <Gold.Chemscore.Internal.Correction>
   9.000000E+99

> <Gold.Chemscore.Hbonds>
donor molecule, donor type, donor heavy atom, donor atom, acceptor molecule, acceptor atom, score
      P1  H  7989  7998       L1     9  0.19
      P1  H  8011  8017       L1     9  0.77

> <Gold.Chemscore.Hbond.Weighted>
-4.0987

> <Gold.Chemscore.Metal.Weighted>
-0.0000

> <Gold.Chemscore.Lipo.Weighted>
-12.9648

> <Gold.Chemscore.Internal_Hbond.Weighted>
0.0000

> <Gold.Chemscore.DEClash.Weighted>
1.4241

> <Gold.Chemscore.DEInternal.Weighted>
0.5288

> <Gold.Chemscore.Rot.Weighted>
4.2641

> <Gold.Chemscore.Internal.Correction.Weighted>
   9.000000E+99

> <Gold.Protein.RotatedTorsions>
[ 6907 6896 6895 6894 ] final  -54.23 input  -60.11 | X-H torsion
[ 7974 7965 7964 7962 ] final  -25.93 input  175.53 | X-H torsion
[ 8008 7997 7996 7995 ] final -102.78 input   59.86 | X-H torsion
[ 10167 10162 10161 10158 ] final  122.69 input  -65.29 | X-H torsion
[ 10718 10713 10712 10709 ] final   90.08 input   66.30 | X-H torsion
[ 10763 10752 10751 10750 ] final  155.79 input  -60.55 | X-H torsion
[ 11005 11000 10999 10996 ] final  -15.32 input  -57.11 | X-H torsion

> <Gold.Protein.ActiveResidues>
 VAL166  LYS551  ARG553  GLY616  TRP617  ASP618  TYR619  PRO620  LYS621  CYS622 
 ASP623  PHE694  ASN695  SER759  ASP760  ASP761  ALA762  ILE779  LEU786  VAL792 
 PHE793  MET794  SER795  GLU796  ALA797  LYS798  CYS799  TRP800  GLU811  SER814 

> <Gold.Protein.RotatedAtoms>
  150.8356  134.7628  159.6889 H   0  0  0  0  0  0  0  0  0  0  0  0  # atno 6907 bound_to 6896
  152.4453  134.5504  159.9875 H   0  0  0  0  0  0  0  0  0  0  0  0  # atno 6908 bound_to 6896
  151.5655  133.3359  159.3015 H   0  0  0  0  0  0  0  0  0  0  0  0  # atno 6909 bound_to 6896
  146.1459  140.4953  142.8632 H   0  0  0  0  0  0  0  0  0  0  0  0  # atno 7974 bound_to 7965
  154.8615  140.0426  157.1668 H   0  0  0  0  0  0  0  0  0  0  0  0  # atno 8008 bound_to 7997
  154.8835  140.2976  155.5391 H   0  0  0  0  0  0  0  0  0  0  0  0  # atno 8009 bound_to 7997
  156.2998  140.2407  156.3841 H   0  0  0  0  0  0  0  0  0  0  0  0  # atno 8010 bound_to 7997
  139.5843  144.7000  151.3448 H   0  0  0  0  0  0  0  0  0  0  0  0  # atno 10167 bound_to 10162
  157.6958  131.0357  150.3523 H   0  0  0  0  0  0  0  0  0  0  0  0  # atno 10718 bound_to 10713
  154.1740  135.2803  155.3072 H   0  0  0  0  0  0  0  0  0  0  0  0  # atno 10763 bound_to 10752
  154.6053  135.5516  153.7420 H   0  0  0  0  0  0  0  0  0  0  0  0  # atno 10764 bound_to 10752
  153.0156  135.6402  154.1880 H   0  0  0  0  0  0  0  0  0  0  0  0  # atno 10765 bound_to 10752
  140.7954  133.8255  155.9419 H   0  0  0  0  0  0  0  0  0  0  0  0  # atno 11005 bound_to 11000
  144.7845  140.5909  143.6583 LP  0  0  0  0  0  0  0  0  0  0  0  0  # atno 17320 bound_to 7965
  145.4939  139.1487  143.3694 LP  0  0  0  0  0  0  0  0  0  0  0  0  # atno 17321 bound_to 7965
  140.7117  143.7372  150.7580 LP  0  0  0  0  0  0  0  0  0  0  0  0  # atno 17342 bound_to 10162
  140.0913  143.4875  152.2477 LP  0  0  0  0  0  0  0  0  0  0  0  0  # atno 17343 bound_to 10162
  156.3970  130.3908  149.6987 LP  0  0  0  0  0  0  0  0  0  0  0  0  # atno 17370 bound_to 10713
  156.4318  130.7818  151.2838 LP  0  0  0  0  0  0  0  0  0  0  0  0  # atno 17371 bound_to 10713
  140.9348  134.1976  157.4839 LP  0  0  0  0  0  0  0  0  0  0  0  0  # atno 17394 bound_to 11000
  139.8727  134.9847  156.5253 LP  0  0  0  0  0  0  0  0  0  0  0  0  # atno 17395 bound_to 11000

$$$$
