AV-unprocessed.smi:2265|AV-procd|sdf|9144|dock10
  -GOLD-   2272012353D 1   1.00000     0.00000
 Structure written by MMmdl.
 36 37  0  0  0  0  0  0  0  0  1 V2000
  146.8915  139.4060  152.8354 C   0  0  0  0  0  0  0  0  0  0  0  0
  147.1298  140.6263  153.7311 C   0  0  0  0  0  0  0  0  0  0  0  0
  148.5990  140.7717  154.1486 C   0  0  0  0  0  0  0  0  0  0  0  0
  149.1666  139.4836  154.7182 C   0  0  1  0  0  0  0  0  0  0  0  0
  150.5377  138.9997  154.3268 C   0  0  0  0  0  0  0  0  0  0  0  0
  150.2836  139.4744  155.7432 C   0  0  1  0  0  0  0  0  0  0  0  0
  150.8906  140.7119  156.1341 N   0  0  0  0  0  0  0  0  0  0  0  0
  150.8713  141.2882  157.3492 C   0  0  0  0  0  0  0  0  0  0  0  0
  150.3153  140.7365  158.2987 O   0  0  0  0  0  0  0  0  0  0  0  0
  151.5384  142.4620  157.4076 N   0  0  0  0  0  0  0  0  0  0  0  0
  151.7380  143.2953  158.5150 C   0  0  0  0  0  0  0  0  0  0  0  0
  151.5589  144.5864  158.4813 N   0  0  0  0  0  0  0  0  0  0  0  0
  151.7685  145.3855  159.6053 C   0  0  0  0  0  0  0  0  0  0  0  0
  152.1695  144.8460  160.7705 C   0  0  0  0  0  0  0  0  0  0  0  0
  152.3863  143.4655  160.8828 N   0  0  0  0  0  0  0  0  0  0  0  0
  152.8184  142.9307  162.1744 C   0  0  0  0  0  0  0  0  0  0  0  0
  152.1930  142.6373  159.8207 C   0  0  0  0  0  0  0  0  0  0  0  0
  152.3653  141.4177  159.8722 O   0  0  0  0  0  0  0  0  0  0  0  0
  145.8404  139.3273  152.5576 H   0  0  0  0  0  0  0  0  0  0  0  0
  147.1715  138.4832  153.3440 H   0  0  0  0  0  0  0  0  0  0  0  0
  147.4744  139.4727  151.9165 H   0  0  0  0  0  0  0  0  0  0  0  0
  146.8073  141.5257  153.2055 H   0  0  0  0  0  0  0  0  0  0  0  0
  146.5036  140.5474  154.6207 H   0  0  0  0  0  0  0  0  0  0  0  0
  149.1932  141.0859  153.2898 H   0  0  0  0  0  0  0  0  0  0  0  0
  148.6978  141.5534  154.9026 H   0  0  0  0  0  0  0  0  0  0  0  0
  148.4126  138.7108  154.8565 H   0  0  0  0  0  0  0  0  0  0  0  0
  150.6643  137.9305  154.1698 H   0  0  0  0  0  0  0  0  0  0  0  0
  151.1308  139.6374  153.6739 H   0  0  0  0  0  0  0  0  0  0  0  0
  150.2540  138.6812  156.4888 H   0  0  0  0  0  0  0  0  0  0  0  0
  151.4611  141.1613  155.4323 H   0  0  0  0  0  0  0  0  0  0  0  0
  151.9558  142.7645  156.5395 H   0  0  0  0  0  0  0  0  0  0  0  0
  151.5930  146.4447  159.4882 H   0  0  0  0  0  0  0  0  0  0  0  0
  152.3434  145.4231  161.6668 H   0  0  0  0  0  0  0  0  0  0  0  0
  152.0435  142.2904  162.5976 H   0  0  0  0  0  0  0  0  0  0  0  0
  153.0307  143.7160  162.9007 H   0  0  0  0  0  0  0  0  0  0  0  0
  153.7271  142.3373  162.0634 H   0  0  0  0  0  0  0  0  0  0  0  0
  1  2  1  0  0  0  0
  1 19  1  0  0  0  0
  1 20  1  0  0  0  0
  1 21  1  0  0  0  0
  2  3  1  0  0  0  0
  2 22  1  0  0  0  0
  2 23  1  0  0  0  0
  3  4  1  0  0  0  0
  3 24  1  0  0  0  0
  3 25  1  0  0  0  0
  4  6  1  0  0  0  0
  4  5  1  0  0  0  0
  4 26  1  0  0  0  0
  5  6  1  0  0  0  0
  5 27  1  0  0  0  0
  5 28  1  0  0  0  0
  6  7  1  0  0  0  0
  6 29  1  0  0  0  0
  7  8  1  0  0  0  0
  7 30  1  0  0  0  0
  8  9  2  0  0  0  0
  8 10  1  0  0  0  0
 10 11  1  0  0  0  0
 10 31  1  0  0  0  0
 11 17  1  0  0  0  0
 11 12  2  0  0  0  0
 12 13  1  0  0  0  0
 13 14  2  0  0  0  0
 13 32  1  0  0  0  0
 14 15  1  0  0  0  0
 14 33  1  0  0  0  0
 15 16  1  0  0  0  0
 15 17  1  0  0  0  0
 16 34  1  0  0  0  0
 16 35  1  0  0  0  0
 16 36  1  0  0  0  0
 17 18  2  0  0  0  0
M  END
> <s_m_source_file>
AV-unprocessed.smi

> <i_m_source_file_index>
2265

> <i_lp_mmshare_version>
43012

> <i_f3d_flags>
0

> <s_epik_input>
W0NIM11bQ0gyXVtDSDJdW0NAQEhdMVtDSDJdW0NASF0xW05IXUMoPU8pW05IXWMybltjSF1bY0hdbihbQ0gzXSljMj1P

> <s_epik_cmdline>
J2VwaWtfcHl0aG9uJywgJy1waCcsICc3LjAnLCAnLXRuJywgJzgnLCAnLW1hJywgJzIwMCcsICctbWV0YWxfYmluZGluZycsICctaW1hZScsICc8aW5maWxlLm1hZT4nLCAnLW9tYWUnLCAnPG91dGZpbGUubWFlPic=

> <r_lp_tautomer_probability>
1

> <r_epik_Ionization_Penalty>
0.000728552

> <r_epik_Ionization_Penalty_Charging>
1.67739e-07

> <r_epik_Ionization_Penalty_Neutral>
0.000728385

> <r_epik_State_Penalty>
-0

> <r_epik_Charging_Adjusted_Penalty>
1.67739e-07

> <i_epik_Tot_Q>
0

> <i_epik_Tot_abs_Q>
0

> <r_epik_Metal_State_Penalty>
-0

> <b_epik_Metal_Only>
0

> <s_lp_Force_Field>
OPLS_2005

> <r_lp_Energy>
43.9495

> <b_lp_Chiralities_Consistent>
1

> <s_lp_Variant>
AV-unprocessed.smi:2265-2

> <Gold.Version>
5.8.1

> <Gold.Id.Protein>
6NUR|6NUR_protein|mol2

> <Gold.PLP.Fitness>
38.0399

> <Gold.PLP.PLP>
-39.3251

> <Gold.PLP.part.hbond>
0.0000

> <Gold.PLP.part.metal>
0.0000

> <Gold.PLP.part.buried>
-4.1004

> <Gold.PLP.part.nonpolar>
-35.1572

> <Gold.PLP.part.repulsive>
0.2765

> <Gold.PLP.ligand.clash>
0.0000

> <Gold.PLP.ligand.torsion>
0.9215

> <Gold.PLP.Chemscore.Hbond>
0.0000

> <Gold.PLP.Chemscore.CHOScore>
0.0000

> <Gold.PLP.Chemscore.Metal>
0.0000

> <Gold.PLP.Chemscore.Internal.Correction>
0.5578

> <Gold.Rescore>
     Score         DG    S(hbond)    S(metal)    S(lipo)     H(rot)  DE(clash)    DE(int)     intcor
      7.42     -10.90       0.00        0.00      78.32       1.46       0.04       3.44       ----

> <Gold.Chemscore.Fitness>
7.4205

> <Gold.Chemscore.DG>
-10.9043

> <Gold.Chemscore.ZeroCoef>
-5.4800

> <Gold.Chemscore.Hbond>
0.0000

> <Gold.Chemscore.Metal>
0.0000

> <Gold.Chemscore.Lipo>
78.3169

> <Gold.Chemscore.Internal_Hbond>
0.0000

> <Gold.Chemscore.DEClash>
0.0400

> <Gold.Chemscore.DEInternal>
3.4439

> <Gold.Chemscore.Rot>
1.4604

> <Gold.Chemscore.Internal.Correction>
   9.000000E+99

> <Gold.Chemscore.Hbond.Weighted>
-0.0000

> <Gold.Chemscore.Metal.Weighted>
-0.0000

> <Gold.Chemscore.Lipo.Weighted>
-9.1631

> <Gold.Chemscore.Internal_Hbond.Weighted>
0.0000

> <Gold.Chemscore.DEClash.Weighted>
0.0400

> <Gold.Chemscore.DEInternal.Weighted>
3.4439

> <Gold.Chemscore.Rot.Weighted>
3.7387

> <Gold.Chemscore.Internal.Correction.Weighted>
   9.000000E+99

> <Gold.Protein.RotatedTorsions>
[ 6907 6896 6895 6894 ] final -179.84 input  -60.11 | X-H torsion
[ 7974 7965 7964 7962 ] final  105.92 input  175.53 | X-H torsion
[ 8008 7997 7996 7995 ] final  149.60 input   59.86 | X-H torsion
[ 10167 10162 10161 10158 ] final  159.35 input  -65.29 | X-H torsion
[ 10718 10713 10712 10709 ] final  -21.64 input   66.30 | X-H torsion
[ 10763 10752 10751 10750 ] final   56.30 input  -60.55 | X-H torsion
[ 11005 11000 10999 10996 ] final  101.54 input  -57.11 | X-H torsion

> <Gold.Protein.ActiveResidues>
 VAL166  LYS551  ARG553  GLY616  TRP617  ASP618  TYR619  PRO620  LYS621  CYS622 
 ASP623  PHE694  ASN695  SER759  ASP760  ASP761  ALA762  ILE779  LEU786  VAL792 
 PHE793  MET794  SER795  GLU796  ALA797  LYS798  CYS799  TRP800  GLU811  SER814 

> <Gold.Protein.RotatedAtoms>
  151.6600  133.3317  159.3171 H   0  0  0  0  0  0  0  0  0  0  0  0  # atno 6907 bound_to 6896
  150.7918  134.6952  159.6528 H   0  0  0  0  0  0  0  0  0  0  0  0  # atno 6908 bound_to 6896
  152.3999  134.6307  160.0126 H   0  0  0  0  0  0  0  0  0  0  0  0  # atno 6909 bound_to 6896
  145.3133  139.2534  143.3751 H   0  0  0  0  0  0  0  0  0  0  0  0  # atno 7974 bound_to 7965
  156.2749  140.2097  156.5883 H   0  0  0  0  0  0  0  0  0  0  0  0  # atno 8008 bound_to 7997
  154.7003  140.0521  157.0474 H   0  0  0  0  0  0  0  0  0  0  0  0  # atno 8009 bound_to 7997
  155.0744  140.3180  155.4623 H   0  0  0  0  0  0  0  0  0  0  0  0  # atno 8010 bound_to 7997
  139.4832  144.4738  151.8539 H   0  0  0  0  0  0  0  0  0  0  0  0  # atno 10167 bound_to 10162
  156.5154  130.4620  149.6625 H   0  0  0  0  0  0  0  0  0  0  0  0  # atno 10718 bound_to 10713
  152.9830  135.5681  154.5207 H   0  0  0  0  0  0  0  0  0  0  0  0  # atno 10763 bound_to 10752
  154.4695  135.2784  155.1655 H   0  0  0  0  0  0  0  0  0  0  0  0  # atno 10764 bound_to 10752
  154.3209  135.6269  153.5560 H   0  0  0  0  0  0  0  0  0  0  0  0  # atno 10765 bound_to 10752
  139.8774  134.9187  156.4922 H   0  0  0  0  0  0  0  0  0  0  0  0  # atno 11005 bound_to 11000
  146.3110  140.3674  142.8671 LP  0  0  0  0  0  0  0  0  0  0  0  0  # atno 17320 bound_to 7965
  144.8998  140.7628  143.5874 LP  0  0  0  0  0  0  0  0  0  0  0  0  # atno 17321 bound_to 7965
  140.4209  144.2245  150.5887 LP  0  0  0  0  0  0  0  0  0  0  0  0  # atno 17342 bound_to 10162
  140.4875  143.2358  151.8867 LP  0  0  0  0  0  0  0  0  0  0  0  0  # atno 17343 bound_to 10162
  156.3200  130.7275  151.2185 LP  0  0  0  0  0  0  0  0  0  0  0  0  # atno 17370 bound_to 10713
  157.7444  131.0458  150.4862 LP  0  0  0  0  0  0  0  0  0  0  0  0  # atno 17371 bound_to 10713
  140.8650  133.8031  155.9304 LP  0  0  0  0  0  0  0  0  0  0  0  0  # atno 17394 bound_to 11000
  140.9011  134.2377  157.5041 LP  0  0  0  0  0  0  0  0  0  0  0  0  # atno 17395 bound_to 11000

$$$$
