AV-unprocessed.smi:2784|AV-procd|sdf|10733|dock5
  -GOLD-   2272015173D 1   1.00000     0.00000
 Structure written by MMmdl.
 32 33  0  0  0  0  0  0  0  0  2 V2000
  151.3232  140.6865  155.9688 C   0  0  0  0  0  0  0  0  0  0  0  0
  150.6160  140.2538  154.8175 O   0  0  0  0  0  0  0  0  0  0  0  0
  149.4167  140.9768  154.5749 C   0  0  1  0  0  0  0  0  0  0  0  0
  148.6838  140.4866  153.3193 C   0  0  0  0  0  0  0  0  0  0  0  0
  147.2127  140.7602  153.6099 C   0  0  0  0  0  0  0  0  0  0  0  0
  147.0656  140.4348  155.0954 C   0  0  0  0  0  0  0  0  0  0  0  0
  148.4260  140.7691  155.7407 C   0  0  2  0  0  0  0  0  0  0  0  0
  148.3401  141.9722  156.5654 N   0  0  0  0  0  0  0  0  0  0  0  0
  147.6555  142.0686  157.7144 C   0  0  0  0  0  0  0  0  0  0  0  0
  147.0049  141.1436  158.2016 O   0  0  0  0  0  0  0  0  0  0  0  0
  147.7682  143.2905  158.2567 N   0  0  0  0  0  0  0  0  0  0  0  0
  147.1655  143.7162  159.4627 C   0  0  0  0  0  0  0  0  0  0  0  0
  146.8930  144.9877  159.7513 N   0  3  0  0  0  0  0  0  0  0  0  0
  146.3130  145.0428  160.9945 C   0  0  0  0  0  0  0  0  0  0  0  0
  146.2521  143.7429  161.4363 C   0  0  0  0  0  0  0  0  0  0  0  0
  146.7842  142.8969  160.4837 O   0  0  0  0  0  0  0  0  0  0  0  0
  152.2072  140.0642  156.1073 H   0  0  0  0  0  0  0  0  0  0  0  0
  150.7092  140.5994  156.8659 H   0  0  0  0  0  0  0  0  0  0  0  0
  151.6568  141.7200  155.8713 H   0  0  0  0  0  0  0  0  0  0  0  0
  149.6364  142.0410  154.4645 H   0  0  0  0  0  0  0  0  0  0  0  0
  149.0304  140.9775  152.4095 H   0  0  0  0  0  0  0  0  0  0  0  0
  148.8327  139.4128  153.1963 H   0  0  0  0  0  0  0  0  0  0  0  0
  146.9925  141.8147  153.4385 H   0  0  0  0  0  0  0  0  0  0  0  0
  146.5431  140.1712  152.9822 H   0  0  0  0  0  0  0  0  0  0  0  0
  146.2243  140.9622  155.5473 H   0  0  0  0  0  0  0  0  0  0  0  0
  146.8693  139.3678  155.2100 H   0  0  0  0  0  0  0  0  0  0  0  0
  148.7473  139.9255  156.3553 H   0  0  0  0  0  0  0  0  0  0  0  0
  148.8476  142.7810  156.2371 H   0  0  0  0  0  0  0  0  0  0  0  0
  147.0672  145.8045  159.1792 H   0  0  0  0  0  0  0  0  0  0  0  0
  146.0081  145.9825  161.4330 H   0  0  0  0  0  0  0  0  0  0  0  0
  145.8861  143.2782  162.3405 H   0  0  0  0  0  0  0  0  0  0  0  0
  148.3296  143.9712  157.7670 H   0  0  0  0  0  0  0  0  0  0  0  0
  1  2  1  0  0  0  0
  1 17  1  0  0  0  0
  1 18  1  0  0  0  0
  1 19  1  0  0  0  0
  2  3  1  0  0  0  0
  3  7  1  0  0  0  0
  3  4  1  0  0  0  0
  3 20  1  0  0  0  0
  4  5  1  0  0  0  0
  4 21  1  0  0  0  0
  4 22  1  0  0  0  0
  5  6  1  0  0  0  0
  5 23  1  0  0  0  0
  5 24  1  0  0  0  0
  6  7  1  0  0  0  0
  6 25  1  0  0  0  0
  6 26  1  0  0  0  0
  7  8  1  0  0  0  0
  7 27  1  0  0  0  0
  8 28  1  0  0  0  0
  8  9  1  0  0  0  0
  9 11  1  0  0  0  0
  9 10  2  0  0  0  0
 11 12  1  0  0  0  0
 11 32  1  0  0  0  0
 12 16  1  0  0  0  0
 12 13  2  0  0  0  0
 13 29  1  0  0  0  0
 13 14  1  0  0  0  0
 14 30  1  0  0  0  0
 14 15  2  0  0  0  0
 15 31  1  0  0  0  0
 15 16  1  0  0  0  0
M  CHG  1  13   1
M  END
> <s_m_source_file>
AV-unprocessed.smi

> <i_m_source_file_index>
2784

> <i_lp_mmshare_version>
43012

> <i_f3d_flags>
0

> <s_epik_input>
W0NIM11PW0NAQEhdMVtDSDJdW0NIMl1bQ0gyXVtDQEhdMVtOSF1DKD1PKVtOSF1jMm5bY0hdW2NIXW8y

> <s_epik_cmdline>
J2VwaWtfcHl0aG9uJywgJy1waCcsICc3LjAnLCAnLXRuJywgJzgnLCAnLW1hJywgJzIwMCcsICctbWV0YWxfYmluZGluZycsICctaW1hZScsICc8aW5maWxlLm1hZT4nLCAnLW9tYWUnLCAnPG91dGZpbGUubWFlPic=

> <r_epik_Ionization_Penalty>
6.73843

> <r_epik_Ionization_Penalty_Charging>
6.66704

> <r_epik_Ionization_Penalty_Neutral>
0.0713889

> <r_epik_State_Penalty>
1.94951

> <r_epik_Charging_Adjusted_Penalty>
8.61656

> <i_epik_Tot_Q>
1

> <i_epik_Tot_abs_Q>
1

> <r_epik_Metal_State_Penalty>
1.97013

> <b_epik_Metal_Only>
0

> <s_lp_Force_Field>
OPLS_2005

> <r_lp_Energy>
26.913

> <b_lp_Chiralities_Consistent>
1

> <s_lp_Variant>
AV-unprocessed.smi:2784-8

> <Gold.Version>
5.8.1

> <Gold.Id.Protein>
6NUR|6NUR_protein|mol2

> <Gold.PLP.Fitness>
40.7117

> <Gold.PLP.PLP>
-25.3733

> <Gold.PLP.part.hbond>
-7.6301

> <Gold.PLP.part.metal>
0.0000

> <Gold.PLP.part.buried>
2.1867

> <Gold.PLP.part.nonpolar>
-19.9946

> <Gold.PLP.part.repulsive>
0.2689

> <Gold.PLP.ligand.clash>
0.0000

> <Gold.PLP.ligand.torsion>
0.1789

> <Gold.PLP.Chemscore.Hbond>
5.2304

> <Gold.PLP.Chemscore.CHOScore>
0.0000

> <Gold.PLP.Chemscore.Metal>
0.0000

> <Gold.Chemscore.Hbonds>
donor molecule, donor type, donor heavy atom, donor atom, acceptor molecule, acceptor atom, score
      L1  H     8    28       P1  8028  0.99
      L1  H    11    32       P1  8029  0.22
      L1  H    13    29       P1  8029  1.18
      P1  H  6933  6944       L1    16  0.93
      P1  H  6934  6946       L1    16  0.89
      P1  H  7989  7998       L1     2  1.00

> <Gold.PLP.Chemscore.Internal.Correction>
0.0052

> <Gold.Rescore>
     Score         DG    S(hbond)    S(metal)    S(lipo)     H(rot)  DE(clash)    DE(int)     intcor
     14.24     -17.29       2.87        0.00      48.27       1.34       1.58       1.46       ----

> <Gold.Chemscore.Fitness>
14.2433

> <Gold.Chemscore.DG>
-17.2921

> <Gold.Chemscore.ZeroCoef>
-5.4800

> <Gold.Chemscore.Hbond>
2.8691

> <Gold.Chemscore.Metal>
0.0000

> <Gold.Chemscore.Lipo>
48.2653

> <Gold.Chemscore.Internal_Hbond>
0.0000

> <Gold.Chemscore.DEClash>
1.5845

> <Gold.Chemscore.DEInternal>
1.4642

> <Gold.Chemscore.Rot>
1.3351

> <Gold.Chemscore.Internal.Correction>
   9.000000E+99

> <Gold.Chemscore.Hbonds>
donor molecule, donor type, donor heavy atom, donor atom, acceptor molecule, acceptor atom, score
      L1  H     8    28       P1  8028  0.89
      L1  H    11    32       P1  8029  0.01
      L1  H    13    29       P1  8029  0.56
      P1  H  6933  6944       L1    16  0.13
      P1  H  6934  6946       L1    16  0.81
      P1  H  7989  7998       L1     2  0.09

> <Gold.Chemscore.Hbond.Weighted>
-9.5828

> <Gold.Chemscore.Metal.Weighted>
-0.0000

> <Gold.Chemscore.Lipo.Weighted>
-5.6470

> <Gold.Chemscore.Internal_Hbond.Weighted>
0.0000

> <Gold.Chemscore.DEClash.Weighted>
1.5845

> <Gold.Chemscore.DEInternal.Weighted>
1.4642

> <Gold.Chemscore.Rot.Weighted>
3.4177

> <Gold.Chemscore.Internal.Correction.Weighted>
   9.000000E+99

> <Gold.Protein.RotatedTorsions>
[ 6907 6896 6895 6894 ] final  156.46 input  -60.11 | X-H torsion
[ 7974 7965 7964 7962 ] final  154.38 input  175.53 | X-H torsion
[ 8008 7997 7996 7995 ] final  103.59 input   59.86 | X-H torsion
[ 10167 10162 10161 10158 ] final -117.11 input  -65.29 | X-H torsion
[ 10718 10713 10712 10709 ] final  -60.01 input   66.30 | X-H torsion
[ 10763 10752 10751 10750 ] final  -64.21 input  -60.55 | X-H torsion
[ 11005 11000 10999 10996 ] final   95.78 input  -57.11 | X-H torsion

> <Gold.Protein.ActiveResidues>
 VAL166  LYS551  ARG553  GLY616  TRP617  ASP618  TYR619  PRO620  LYS621  CYS622 
 ASP623  PHE694  ASN695  SER759  ASP760  ASP761  ALA762  ILE779  LEU786  VAL792 
 PHE793  MET794  SER795  GLU796  ALA797  LYS798  CYS799  TRP800  GLU811  SER814 

> <Gold.Protein.RotatedAtoms>
  152.0293  133.3930  159.4290 H   0  0  0  0  0  0  0  0  0  0  0  0  # atno 6907 bound_to 6896
  150.6883  134.3539  159.4930 H   0  0  0  0  0  0  0  0  0  0  0  0  # atno 6908 bound_to 6896
  152.1323  134.9125  160.0609 H   0  0  0  0  0  0  0  0  0  0  0  0  # atno 6909 bound_to 6896
  144.8092  139.6927  143.6149 H   0  0  0  0  0  0  0  0  0  0  0  0  # atno 7974 bound_to 7965
  156.1497  140.3162  155.8628 H   0  0  0  0  0  0  0  0  0  0  0  0  # atno 8008 bound_to 7997
  155.3994  140.0498  157.3054 H   0  0  0  0  0  0  0  0  0  0  0  0  # atno 8009 bound_to 7997
  154.5048  140.2143  155.9285 H   0  0  0  0  0  0  0  0  0  0  0  0  # atno 8010 bound_to 7997
  140.0719  143.4869  152.1975 H   0  0  0  0  0  0  0  0  0  0  0  0  # atno 10167 bound_to 10162
  156.1021  130.4185  150.0794 H   0  0  0  0  0  0  0  0  0  0  0  0  # atno 10718 bound_to 10713
  154.3267  135.6185  153.5532 H   0  0  0  0  0  0  0  0  0  0  0  0  # atno 10763 bound_to 10752
  152.9815  135.5737  154.5008 H   0  0  0  0  0  0  0  0  0  0  0  0  # atno 10764 bound_to 10752
  154.4687  135.2858  155.1636 H   0  0  0  0  0  0  0  0  0  0  0  0  # atno 10765 bound_to 10752
  139.8786  134.8916  156.4061 H   0  0  0  0  0  0  0  0  0  0  0  0  # atno 11005 bound_to 11000
  146.2388  139.5960  142.9505 LP  0  0  0  0  0  0  0  0  0  0  0  0  # atno 17320 bound_to 7965
  145.5364  141.0424  143.2354 LP  0  0  0  0  0  0  0  0  0  0  0  0  # atno 17321 bound_to 7965
  139.5831  144.7519  151.3590 LP  0  0  0  0  0  0  0  0  0  0  0  0  # atno 17342 bound_to 10162
  140.7121  143.7363  150.7586 LP  0  0  0  0  0  0  0  0  0  0  0  0  # atno 17343 bound_to 10162
  156.8779  130.9546  151.3602 LP  0  0  0  0  0  0  0  0  0  0  0  0  # atno 17370 bound_to 10713
  157.6193  130.8642  149.9081 LP  0  0  0  0  0  0  0  0  0  0  0  0  # atno 17371 bound_to 10713
  140.9233  133.7630  155.9933 LP  0  0  0  0  0  0  0  0  0  0  0  0  # atno 17394 bound_to 11000
  140.8415  134.3061  157.5311 LP  0  0  0  0  0  0  0  0  0  0  0  0  # atno 17395 bound_to 11000

$$$$
