AV-unprocessed.smi:161|AV-procd|sdf|1375|dock6
  -GOLD-   2262019 93D 1   1.00000     0.00000
 Structure written by MMmdl.
 52 55  0  0  0  0  0  0  0  0  1 V2000
  146.9736  128.3310  152.3066 C   0  0  0  0  0  0  0  0  0  0  0  0
  146.6364  129.6691  152.9680 C   0  0  0  0  0  0  0  0  0  0  0  0
  145.9542  130.4877  152.0322 O   0  0  0  0  0  0  0  0  0  0  0  0
  145.7179  131.7822  152.3069 C   0  0  0  0  0  0  0  0  0  0  0  0
  146.0526  132.3253  153.3606 O   0  0  0  0  0  0  0  0  0  0  0  0
  145.0098  132.4579  151.1560 C   0  0  2  0  0  0  0  0  0  0  0  0
  143.8076  131.7383  150.5348 C   0  0  0  0  0  0  0  0  0  0  0  0
  144.2100  132.7371  149.4343 C   0  0  2  0  0  0  0  0  0  0  0  0
  143.6412  132.6691  148.0261 C   0  0  0  0  0  0  0  0  0  0  0  0
  145.6344  132.2730  149.7650 C   0  0  0  0  0  0  0  0  0  0  0  0
  144.1008  134.0450  150.0209 O   0  0  0  0  0  0  0  0  0  0  0  0
  144.6597  133.9343  151.3319 C   0  0  0  0  0  0  0  0  0  0  0  0
  145.8850  134.8820  151.4801 C   0  0  0  0  0  0  0  0  0  0  0  0
  145.4637  136.3532  151.6386 C   0  0  0  0  0  0  0  0  0  0  0  0
  144.5342  136.4523  152.7694 N   0  0  0  0  0  0  0  0  0  0  0  0
  144.8538  136.8080  154.0393 C   0  0  0  0  0  0  0  0  0  0  0  0
  145.9418  137.3062  154.3297 O   0  0  0  0  0  0  0  0  0  0  0  0
  143.8382  136.6462  155.1052 C   0  0  0  0  0  0  0  0  0  0  0  0
  143.8240  136.0294  156.3257 C   0  0  0  0  0  0  0  0  0  0  0  0
  142.5808  136.2267  156.9193 N   0  0  0  0  0  0  0  0  0  0  0  0
  141.8422  136.9403  156.1312 N   0  0  0  0  0  0  0  0  0  0  0  0
  142.5756  137.2207  155.0259 N   0  0  0  0  0  0  0  0  0  0  0  0
  141.9644  138.0157  153.9684 C   0  0  0  0  0  0  0  0  0  0  0  0
  140.6508  137.4000  153.4687 C   0  0  0  0  0  0  0  0  0  0  0  0
  143.2736  135.7761  152.4535 C   0  0  0  0  0  0  0  0  0  0  0  0
  143.5527  134.2650  152.3780 C   0  0  0  0  0  0  0  0  0  0  0  0
  147.5128  127.6822  152.9968 H   0  0  0  0  0  0  0  0  0  0  0  0
  147.5985  128.4752  151.4252 H   0  0  0  0  0  0  0  0  0  0  0  0
  146.0681  127.8095  151.9957 H   0  0  0  0  0  0  0  0  0  0  0  0
  146.0161  129.4964  153.8486 H   0  0  0  0  0  0  0  0  0  0  0  0
  147.5459  130.1715  153.2983 H   0  0  0  0  0  0  0  0  0  0  0  0
  143.9369  130.6782  150.2968 H   0  0  0  0  0  0  0  0  0  0  0  0
  142.8382  131.9228  150.9946 H   0  0  0  0  0  0  0  0  0  0  0  0
  143.7396  131.6671  147.6079 H   0  0  0  0  0  0  0  0  0  0  0  0
  144.1587  133.3582  147.3586 H   0  0  0  0  0  0  0  0  0  0  0  0
  142.5828  132.9294  148.0158 H   0  0  0  0  0  0  0  0  0  0  0  0
  146.4221  132.9695  149.4831 H   0  0  0  0  0  0  0  0  0  0  0  0
  145.8888  131.2505  149.4699 H   0  0  0  0  0  0  0  0  0  0  0  0
  146.4694  134.5906  152.3530 H   0  0  0  0  0  0  0  0  0  0  0  0
  146.5589  134.8026  150.6291 H   0  0  0  0  0  0  0  0  0  0  0  0
  146.3466  136.9797  151.7355 H   0  0  0  0  0  0  0  0  0  0  0  0
  144.9696  136.6977  150.7291 H   0  0  0  0  0  0  0  0  0  0  0  0
  144.5998  135.4638  156.8204 H   0  0  0  0  0  0  0  0  0  0  0  0
  141.7762  139.0226  154.3438 H   0  0  0  0  0  0  0  0  0  0  0  0
  142.6729  138.1266  153.1479 H   0  0  0  0  0  0  0  0  0  0  0  0
  140.1813  138.0449  152.7260 H   0  0  0  0  0  0  0  0  0  0  0  0
  139.9418  137.2625  154.2854 H   0  0  0  0  0  0  0  0  0  0  0  0
  140.8168  136.4302  153.0006 H   0  0  0  0  0  0  0  0  0  0  0  0
  142.4928  135.9817  153.1873 H   0  0  0  0  0  0  0  0  0  0  0  0
  142.8831  136.1374  151.5012 H   0  0  0  0  0  0  0  0  0  0  0  0
  142.6221  133.7452  152.1579 H   0  0  0  0  0  0  0  0  0  0  0  0
  143.8594  133.9344  153.3695 H   0  0  0  0  0  0  0  0  0  0  0  0
  1  2  1  0  0  0  0
  1 27  1  0  0  0  0
  1 28  1  0  0  0  0
  1 29  1  0  0  0  0
  2  3  1  0  0  0  0
  2 30  1  0  0  0  0
  2 31  1  0  0  0  0
  3  4  1  0  0  0  0
  4  5  2  0  0  0  0
  4  6  1  0  0  0  0
  6 10  1  0  0  0  0
  6 12  1  0  0  0  0
  6  7  1  0  0  0  0
  7  8  1  0  0  0  0
  7 32  1  0  0  0  0
  7 33  1  0  0  0  0
  8  9  1  0  0  0  0
  8 10  1  0  0  0  0
  8 11  1  0  0  0  0
  9 34  1  0  0  0  0
  9 35  1  0  0  0  0
  9 36  1  0  0  0  0
 10 37  1  0  0  0  0
 10 38  1  0  0  0  0
 11 12  1  0  0  0  0
 12 26  1  0  0  0  0
 12 13  1  0  0  0  0
 13 14  1  0  0  0  0
 13 39  1  0  0  0  0
 13 40  1  0  0  0  0
 14 15  1  0  0  0  0
 14 41  1  0  0  0  0
 14 42  1  0  0  0  0
 15 16  1  0  0  0  0
 15 25  1  0  0  0  0
 16 17  2  0  0  0  0
 16 18  1  0  0  0  0
 18 22  1  0  0  0  0
 18 19  2  0  0  0  0
 19 20  1  0  0  0  0
 19 43  1  0  0  0  0
 20 21  2  0  0  0  0
 21 22  1  0  0  0  0
 22 23  1  0  0  0  0
 23 24  1  0  0  0  0
 23 44  1  0  0  0  0
 23 45  1  0  0  0  0
 24 46  1  0  0  0  0
 24 47  1  0  0  0  0
 24 48  1  0  0  0  0
 25 26  1  0  0  0  0
 25 49  1  0  0  0  0
 25 50  1  0  0  0  0
 26 51  1  0  0  0  0
 26 52  1  0  0  0  0
M  END
> <s_m_source_file>
AV-unprocessed.smi

> <i_m_source_file_index>
161

> <i_lp_mmshare_version>
43012

> <i_f3d_flags>
2

> <s_epik_input>
W0NIM11bQ0gyXU9DKD1PKVtDQEBdMShbQ0gyXVtDQF0oTzIpKFtDSDNdKVtDSDJdMSlDMjNbQ0gyXVtDSDJdTihbQ0gyXVtDSDJdMylDKD1PKWM0W2NIXW5ubjRbQ0gyXVtDSDNd

> <s_epik_cmdline>
J2VwaWtfcHl0aG9uJywgJy1waCcsICc3LjAnLCAnLXRuJywgJzgnLCAnLW1hJywgJzIwMCcsICctbWV0YWxfYmluZGluZycsICctaW1hZScsICc8aW5maWxlLm1hZT4nLCAnLW9tYWUnLCAnPG91dGZpbGUubWFlPic=

> <r_lp_tautomer_probability>
1

> <r_epik_Ionization_Penalty>
1.75517e-07

> <r_epik_Ionization_Penalty_Charging>
0

> <r_epik_Ionization_Penalty_Neutral>
1.75517e-07

> <r_epik_State_Penalty>
-0

> <r_epik_Charging_Adjusted_Penalty>
0

> <i_epik_Tot_Q>
0

> <i_epik_Tot_abs_Q>
0

> <r_epik_Metal_State_Penalty>
-0

> <b_epik_Metal_Only>
0

> <s_epik_Chemistry_Notes>
This compound has an ester and may undergo hydrolysis at high or low pH.

> <s_lp_Force_Field>
OPLS_2005

> <r_lp_Energy>
59.4881

> <b_lp_Chiralities_Consistent>
0

> <s_lp_Variant>
AV-unprocessed.smi:161-1

> <Gold.Version>
5.8.1

> <Gold.Id.Protein>
6NUR|6NUR_protein|mol2

> <Gold.PLP.Fitness>
39.8229

> <Gold.PLP.PLP>
-41.6625

> <Gold.PLP.part.hbond>
-1.6033

> <Gold.PLP.part.metal>
0.0000

> <Gold.PLP.part.buried>
-6.5775

> <Gold.PLP.part.nonpolar>
-34.3185

> <Gold.PLP.part.repulsive>
0.6012

> <Gold.PLP.ligand.clash>
0.0000

> <Gold.PLP.ligand.torsion>
1.3309

> <Gold.PLP.Chemscore.Hbond>
0.0000

> <Gold.PLP.Chemscore.CHOScore>
0.0000

> <Gold.PLP.Chemscore.Metal>
0.0000

> <Gold.PLP.Chemscore.Internal.Correction>
0.8222

> <Gold.Rescore>
     Score         DG    S(hbond)    S(metal)    S(lipo)     H(rot)  DE(clash)    DE(int)     intcor
     13.05     -14.86       0.00        0.00     112.18       1.47       0.25       1.56       ----

> <Gold.Chemscore.Fitness>
13.0453

> <Gold.Chemscore.DG>
-14.8575

> <Gold.Chemscore.ZeroCoef>
-5.4800

> <Gold.Chemscore.Hbond>
0.0011

> <Gold.Chemscore.Metal>
0.0000

> <Gold.Chemscore.Lipo>
112.1796

> <Gold.Chemscore.Internal_Hbond>
0.0000

> <Gold.Chemscore.DEClash>
0.2480

> <Gold.Chemscore.DEInternal>
1.5642

> <Gold.Chemscore.Rot>
1.4652

> <Gold.Chemscore.Internal.Correction>
   9.000000E+99

> <Gold.Chemscore.Hbond.Weighted>
-0.0035

> <Gold.Chemscore.Metal.Weighted>
-0.0000

> <Gold.Chemscore.Lipo.Weighted>
-13.1250

> <Gold.Chemscore.Internal_Hbond.Weighted>
0.0000

> <Gold.Chemscore.DEClash.Weighted>
0.2480

> <Gold.Chemscore.DEInternal.Weighted>
1.5642

> <Gold.Chemscore.Rot.Weighted>
3.7510

> <Gold.Chemscore.Internal.Correction.Weighted>
   9.000000E+99

> <Gold.Protein.RotatedTorsions>
[ 6907 6896 6895 6894 ] final -132.10 input  -60.11 | X-H torsion
[ 7974 7965 7964 7962 ] final  -44.94 input  175.53 | X-H torsion
[ 8008 7997 7996 7995 ] final  145.81 input   59.86 | X-H torsion
[ 10167 10162 10161 10158 ] final  -34.54 input  -65.29 | X-H torsion
[ 10718 10713 10712 10709 ] final -115.82 input   66.30 | X-H torsion
[ 10763 10752 10751 10750 ] final -151.26 input  -60.55 | X-H torsion
[ 11005 11000 10999 10996 ] final -135.82 input  -57.11 | X-H torsion

> <Gold.Protein.ActiveResidues>
 VAL166  LYS551  ARG553  GLY616  TRP617  ASP618  TYR619  PRO620  LYS621  CYS622 
 ASP623  PHE694  ASN695  SER759  ASP760  ASP761  ALA762  ILE779  LEU786  VAL792 
 PHE793  MET794  SER795  GLU796  ALA797  LYS798  CYS799  TRP800  GLU811  SER814 

> <Gold.Protein.RotatedAtoms>
  150.9585  133.6471  159.2758 H   0  0  0  0  0  0  0  0  0  0  0  0  # atno 6907 bound_to 6896
  151.3802  135.0937  159.9503 H   0  0  0  0  0  0  0  0  0  0  0  0  # atno 6908 bound_to 6896
  152.5138  133.9121  159.7547 H   0  0  0  0  0  0  0  0  0  0  0  0  # atno 6909 bound_to 6896
  145.9870  140.7222  142.9335 H   0  0  0  0  0  0  0  0  0  0  0  0  # atno 7974 bound_to 7965
  156.2873  140.2199  156.5276 H   0  0  0  0  0  0  0  0  0  0  0  0  # atno 8008 bound_to 7997
  154.7476  140.0483  157.0887 H   0  0  0  0  0  0  0  0  0  0  0  0  # atno 8009 bound_to 7997
  155.0151  140.3117  155.4818 H   0  0  0  0  0  0  0  0  0  0  0  0  # atno 8010 bound_to 7997
  140.7183  143.3540  151.2096 H   0  0  0  0  0  0  0  0  0  0  0  0  # atno 10167 bound_to 10162
  156.0921  130.6101  150.8955 H   0  0  0  0  0  0  0  0  0  0  0  0  # atno 10718 bound_to 10713
  154.8069  135.3264  154.7408 H   0  0  0  0  0  0  0  0  0  0  0  0  # atno 10763 bound_to 10752
  153.8065  135.6899  153.4852 H   0  0  0  0  0  0  0  0  0  0  0  0  # atno 10764 bound_to 10752
  153.1820  135.4583  154.9985 H   0  0  0  0  0  0  0  0  0  0  0  0  # atno 10765 bound_to 10752
  140.8863  134.1868  157.4558 H   0  0  0  0  0  0  0  0  0  0  0  0  # atno 11005 bound_to 11000
  144.6877  140.3005  143.7264 LP  0  0  0  0  0  0  0  0  0  0  0  0  # atno 17320 bound_to 7965
  145.7686  139.1849  143.2225 LP  0  0  0  0  0  0  0  0  0  0  0  0  # atno 17321 bound_to 7965
  139.7078  143.9427  152.2934 LP  0  0  0  0  0  0  0  0  0  0  0  0  # atno 17342 bound_to 10162
  139.9141  144.6839  150.8530 LP  0  0  0  0  0  0  0  0  0  0  0  0  # atno 17343 bound_to 10162
  157.6073  131.0938  150.8856 LP  0  0  0  0  0  0  0  0  0  0  0  0  # atno 17370 bound_to 10713
  156.9002  130.5244  149.5283 LP  0  0  0  0  0  0  0  0  0  0  0  0  # atno 17371 bound_to 10713
  139.8724  134.9839  156.5217 LP  0  0  0  0  0  0  0  0  0  0  0  0  # atno 17394 bound_to 11000
  140.8401  133.8212  155.9067 LP  0  0  0  0  0  0  0  0  0  0  0  0  # atno 17395 bound_to 11000

$$$$
