AV-unprocessed.smi:1570|AV-procd|sdf|6315|dock4
  -GOLD-   22720 6523D 1   1.00000     0.00000
 Structure written by MMmdl.
 51 53  0  0  0  0  0  0  0  0  1 V2000
  155.1927  140.4646  160.7844 C   0  0  0  0  0  0  0  0  0  0  0  0
  153.8835  141.1513  161.1923 C   0  0  0  0  0  0  0  0  0  0  0  0
  153.1329  141.5976  160.0211 N   0  0  0  0  0  0  0  0  0  0  0  0
  152.9270  140.8986  158.8799 C   0  0  0  0  0  0  0  0  0  0  0  0
  153.3301  139.7591  158.6466 O   0  0  0  0  0  0  0  0  0  0  0  0
  152.1974  141.6701  158.0401 N   0  0  0  0  0  0  0  0  0  0  0  0
  151.7329  141.3034  156.7034 C   0  0  0  0  0  0  0  0  0  0  0  0
  150.1904  141.2626  156.6270 C   0  0  1  0  0  0  0  0  0  0  0  0
  149.7735  140.8587  155.3377 O   0  0  0  0  0  0  0  0  0  0  0  0
  149.5012  140.3628  157.6805 C   0  0  0  0  0  0  0  0  0  0  0  0
  149.6940  138.9114  157.5658 N   0  0  0  0  0  0  0  0  0  0  0  0
  148.9594  138.2150  158.6160 C   0  0  0  0  0  0  0  0  0  0  0  0
  149.0900  136.6860  158.5024 C   0  0  2  0  0  0  0  0  0  0  0  0
  148.3824  135.9598  159.6512 C   0  0  0  0  0  0  0  0  0  0  0  0
  150.4697  136.3282  158.5350 O   0  0  0  0  0  0  0  0  0  0  0  0
  151.2873  136.9782  157.5615 C   0  0  1  0  0  0  0  0  0  0  0  0
  151.0641  136.4017  156.1528 C   0  0  0  0  0  0  0  0  0  0  0  0
  151.0971  138.5071  157.6309 C   0  0  0  0  0  0  0  0  0  0  0  0
  151.9246  142.8963  158.6629 C   0  0  0  0  0  0  0  0  0  0  0  0
  151.2062  144.0204  158.2195 C   0  0  0  0  0  0  0  0  0  0  0  0
  151.1166  145.1207  159.1042 C   0  0  0  0  0  0  0  0  0  0  0  0
  151.7310  145.0777  160.3826 C   0  0  0  0  0  0  0  0  0  0  0  0
  152.4459  143.9324  160.8049 C   0  0  0  0  0  0  0  0  0  0  0  0
  152.5175  142.8525  159.9077 C   0  0  0  0  0  0  0  0  0  0  0  0
  155.7470  140.1361  161.6636 H   0  0  0  0  0  0  0  0  0  0  0  0
  155.8349  141.1414  160.2203 H   0  0  0  0  0  0  0  0  0  0  0  0
  155.0020  139.5876  160.1650 H   0  0  0  0  0  0  0  0  0  0  0  0
  153.2752  140.4654  161.7839 H   0  0  0  0  0  0  0  0  0  0  0  0
  154.0935  142.0026  161.8402 H   0  0  0  0  0  0  0  0  0  0  0  0
  152.1544  141.9851  155.9645 H   0  0  0  0  0  0  0  0  0  0  0  0
  152.1418  140.3197  156.4668 H   0  0  0  0  0  0  0  0  0  0  0  0
  149.8074  142.2718  156.7857 H   0  0  0  0  0  0  0  0  0  0  0  0
  148.8286  140.8681  155.3154 H   0  0  0  0  0  0  0  0  0  0  0  0
  149.7704  140.6964  158.6838 H   0  0  0  0  0  0  0  0  0  0  0  0
  148.4326  140.5651  157.5919 H   0  0  0  0  0  0  0  0  0  0  0  0
  149.3173  138.5407  159.5941 H   0  0  0  0  0  0  0  0  0  0  0  0
  147.9033  138.4835  158.5666 H   0  0  0  0  0  0  0  0  0  0  0  0
  148.6493  136.3509  157.5629 H   0  0  0  0  0  0  0  0  0  0  0  0
  147.3171  136.1915  159.6651 H   0  0  0  0  0  0  0  0  0  0  0  0
  148.8005  136.2466  160.6166 H   0  0  0  0  0  0  0  0  0  0  0  0
  148.4861  134.8792  159.5504 H   0  0  0  0  0  0  0  0  0  0  0  0
  152.3197  136.7577  157.8340 H   0  0  0  0  0  0  0  0  0  0  0  0
  151.7711  136.8299  155.4422 H   0  0  0  0  0  0  0  0  0  0  0  0
  150.0620  136.6095  155.7786 H   0  0  0  0  0  0  0  0  0  0  0  0
  151.2055  135.3208  156.1484 H   0  0  0  0  0  0  0  0  0  0  0  0
  151.6640  138.9532  156.8183 H   0  0  0  0  0  0  0  0  0  0  0  0
  151.5378  138.8772  158.5579 H   0  0  0  0  0  0  0  0  0  0  0  0
  150.7392  144.0474  157.2462 H   0  0  0  0  0  0  0  0  0  0  0  0
  150.5737  146.0044  158.8026 H   0  0  0  0  0  0  0  0  0  0  0  0
  151.6512  145.9292  161.0421 H   0  0  0  0  0  0  0  0  0  0  0  0
  152.9149  143.8937  161.7768 H   0  0  0  0  0  0  0  0  0  0  0  0
  1  2  1  0  0  0  0
  1 25  1  0  0  0  0
  1 26  1  0  0  0  0
  1 27  1  0  0  0  0
  2  3  1  0  0  0  0
  2 28  1  0  0  0  0
  2 29  1  0  0  0  0
  3 24  1  0  0  0  0
  3  4  1  0  0  0  0
  4  5  2  0  0  0  0
  4  6  1  0  0  0  0
  6  7  1  0  0  0  0
  6 19  1  0  0  0  0
  7  8  1  0  0  0  0
  7 30  1  0  0  0  0
  7 31  1  0  0  0  0
  8  9  1  0  0  0  0
  8 10  1  0  0  0  0
  8 32  1  0  0  0  0
  9 33  1  0  0  0  0
 10 11  1  0  0  0  0
 10 34  1  0  0  0  0
 10 35  1  0  0  0  0
 11 18  1  0  0  0  0
 11 12  1  0  0  0  0
 12 13  1  0  0  0  0
 12 36  1  0  0  0  0
 12 37  1  0  0  0  0
 13 14  1  0  0  0  0
 13 15  1  0  0  0  0
 13 38  1  0  0  0  0
 14 39  1  0  0  0  0
 14 40  1  0  0  0  0
 14 41  1  0  0  0  0
 15 16  1  0  0  0  0
 16 17  1  0  0  0  0
 16 18  1  0  0  0  0
 16 42  1  0  0  0  0
 17 43  1  0  0  0  0
 17 44  1  0  0  0  0
 17 45  1  0  0  0  0
 18 46  1  0  0  0  0
 18 47  1  0  0  0  0
 19 24  2  0  0  0  0
 19 20  1  0  0  0  0
 20 21  2  0  0  0  0
 20 48  1  0  0  0  0
 21 22  1  0  0  0  0
 21 49  1  0  0  0  0
 22 23  2  0  0  0  0
 22 50  1  0  0  0  0
 23 24  1  0  0  0  0
 23 51  1  0  0  0  0
M  END
> <s_m_source_file>
AV-unprocessed.smi

> <i_m_source_file_index>
1570

> <i_lp_mmshare_version>
43012

> <i_f3d_flags>
0

> <s_epik_input>
W2NIXTFbY0hdW2NIXVtjSF1jKGMxMiluKFtDSDJdW0NIM10pYyg9TyluMltDSDJdW0NASF0oW09IXSlbQ0gyXU4zW0NIMl1bQ0BASF0oW0NIM10pT1tDQEBIXShbQ0gzXSlbQ0gyXTM=

> <s_epik_cmdline>
J2VwaWtfcHl0aG9uJywgJy1waCcsICc3LjAnLCAnLXRuJywgJzgnLCAnLW1hJywgJzIwMCcsICctbWV0YWxfYmluZGluZycsICctaW1hZScsICc8aW5maWxlLm1hZT4nLCAnLW9tYWUnLCAnPG91dGZpbGUubWFlPic=

> <r_epik_Ionization_Penalty>
0.214359

> <r_epik_Ionization_Penalty_Charging>
2.30976e-09

> <r_epik_Ionization_Penalty_Neutral>
0.214359

> <r_epik_State_Penalty>
0.204533

> <r_epik_Charging_Adjusted_Penalty>
0.204533

> <i_epik_Tot_Q>
0

> <i_epik_Tot_abs_Q>
0

> <r_epik_Metal_State_Penalty>
0.204533

> <b_epik_Metal_Only>
0

> <s_lp_Force_Field>
OPLS_2005

> <r_lp_Energy>
68.4361

> <b_lp_Chiralities_Consistent>
1

> <s_lp_Variant>
AV-unprocessed.smi:1570-4

> <Gold.Version>
5.8.1

> <Gold.Id.Protein>
6NUR|6NUR_protein|mol2

> <Gold.PLP.Fitness>
49.7824

> <Gold.PLP.PLP>
-44.4536

> <Gold.PLP.part.hbond>
-2.0000

> <Gold.PLP.part.metal>
0.0000

> <Gold.PLP.part.buried>
-7.4987

> <Gold.PLP.part.nonpolar>
-34.7279

> <Gold.PLP.part.repulsive>
0.0000

> <Gold.PLP.ligand.clash>
0.0000

> <Gold.PLP.ligand.torsion>
0.2436

> <Gold.PLP.Chemscore.Hbond>
1.9193

> <Gold.PLP.Chemscore.CHOScore>
0.0000

> <Gold.PLP.Chemscore.Metal>
0.0000

> <Gold.Chemscore.Hbonds>
donor molecule, donor type, donor heavy atom, donor atom, acceptor molecule, acceptor atom, score
      P1  H  6896  6908       L1    15  0.96
      P1  H  7997  8010       L1     5  0.93

> <Gold.PLP.Chemscore.Internal.Correction>
0.0583

> <Gold.Rescore>
     Score         DG    S(hbond)    S(metal)    S(lipo)     H(rot)  DE(clash)    DE(int)     intcor
     17.85     -19.92       1.71        0.00     119.63       2.06       0.51       1.56       ----

> <Gold.Chemscore.Fitness>
17.8502

> <Gold.Chemscore.DG>
-19.9179

> <Gold.Chemscore.ZeroCoef>
-5.4800

> <Gold.Chemscore.Hbond>
1.7089

> <Gold.Chemscore.Metal>
0.0000

> <Gold.Chemscore.Lipo>
119.6341

> <Gold.Chemscore.Internal_Hbond>
0.0000

> <Gold.Chemscore.DEClash>
0.5066

> <Gold.Chemscore.DEInternal>
1.5611

> <Gold.Chemscore.Rot>
2.0574

> <Gold.Chemscore.Internal.Correction>
   9.000000E+99

> <Gold.Chemscore.Hbonds>
donor molecule, donor type, donor heavy atom, donor atom, acceptor molecule, acceptor atom, score
      P1  H  6896  6908       L1    15  0.85
      P1  H  7997  8010       L1     5  0.35

> <Gold.Chemscore.Hbond.Weighted>
-5.7076

> <Gold.Chemscore.Metal.Weighted>
-0.0000

> <Gold.Chemscore.Lipo.Weighted>
-13.9972

> <Gold.Chemscore.Internal_Hbond.Weighted>
0.0000

> <Gold.Chemscore.DEClash.Weighted>
0.5066

> <Gold.Chemscore.DEInternal.Weighted>
1.5611

> <Gold.Chemscore.Rot.Weighted>
5.2669

> <Gold.Chemscore.Internal.Correction.Weighted>
   9.000000E+99

> <Gold.Protein.RotatedTorsions>
[ 6907 6896 6895 6894 ] final -161.68 input  -60.11 | X-H torsion
[ 7974 7965 7964 7962 ] final   41.69 input  175.53 | X-H torsion
[ 8008 7997 7996 7995 ] final   26.65 input   59.86 | X-H torsion
[ 10167 10162 10161 10158 ] final  127.49 input  -65.29 | X-H torsion
[ 10718 10713 10712 10709 ] final   -5.29 input   66.30 | X-H torsion
[ 10763 10752 10751 10750 ] final -151.07 input  -60.55 | X-H torsion
[ 11005 11000 10999 10996 ] final   29.60 input  -57.11 | X-H torsion

> <Gold.Protein.ActiveResidues>
 VAL166  LYS551  ARG553  GLY616  TRP617  ASP618  TYR619  PRO620  LYS621  CYS622 
 ASP623  PHE694  ASN695  SER759  ASP760  ASP761  ALA762  ILE779  LEU786  VAL792 
 PHE793  MET794  SER795  GLU796  ALA797  LYS798  CYS799  TRP800  GLU811  SER814 

> <Gold.Protein.RotatedAtoms>
  151.3685  133.3863  159.2696 H   0  0  0  0  0  0  0  0  0  0  0  0  # atno 6907 bound_to 6896
  150.9670  134.9050  159.7775 H   0  0  0  0  0  0  0  0  0  0  0  0  # atno 6908 bound_to 6896
  152.5170  134.3646  159.9349 H   0  0  0  0  0  0  0  0  0  0  0  0  # atno 6909 bound_to 6896
  146.0803  139.5387  142.9541 H   0  0  0  0  0  0  0  0  0  0  0  0  # atno 7974 bound_to 7965
  155.0306  140.3158  155.4760 H   0  0  0  0  0  0  0  0  0  0  0  0  # atno 8008 bound_to 7997
  156.2874  140.2181  156.5370 H   0  0  0  0  0  0  0  0  0  0  0  0  # atno 8009 bound_to 7997
  154.7373  140.0476  157.0768 H   0  0  0  0  0  0  0  0  0  0  0  0  # atno 8010 bound_to 7997
  139.5576  144.6859  151.4138 H   0  0  0  0  0  0  0  0  0  0  0  0  # atno 10167 bound_to 10162
  156.7487  130.5232  149.5808 H   0  0  0  0  0  0  0  0  0  0  0  0  # atno 10718 bound_to 10713
  154.8080  135.3269  154.7380 H   0  0  0  0  0  0  0  0  0  0  0  0  # atno 10763 bound_to 10752
  153.8035  135.6901  153.4856 H   0  0  0  0  0  0  0  0  0  0  0  0  # atno 10764 bound_to 10752
  153.1839  135.4576  155.0008 H   0  0  0  0  0  0  0  0  0  0  0  0  # atno 10765 bound_to 10752
  140.3033  134.2732  155.7749 H   0  0  0  0  0  0  0  0  0  0  0  0  # atno 11005 bound_to 11000
  145.6231  141.0319  143.1904 LP  0  0  0  0  0  0  0  0  0  0  0  0  # atno 17320 bound_to 7965
  144.7288  139.7789  143.7355 LP  0  0  0  0  0  0  0  0  0  0  0  0  # atno 17321 bound_to 7965
  140.6851  143.7993  150.7174 LP  0  0  0  0  0  0  0  0  0  0  0  0  # atno 17342 bound_to 10162
  140.1458  143.4401  152.2164 LP  0  0  0  0  0  0  0  0  0  0  0  0  # atno 17343 bound_to 10162
  156.1415  130.6248  151.0474 LP  0  0  0  0  0  0  0  0  0  0  0  0  # atno 17370 bound_to 10713
  157.6786  131.0844  150.7428 LP  0  0  0  0  0  0  0  0  0  0  0  0  # atno 17371 bound_to 10713
  141.2123  133.7660  156.9799 LP  0  0  0  0  0  0  0  0  0  0  0  0  # atno 17394 bound_to 11000
  140.1090  134.9489  157.2037 LP  0  0  0  0  0  0  0  0  0  0  0  0  # atno 17395 bound_to 11000

$$$$
