AV-unprocessed.smi:1626|AV-procd|sdf|6510|dock2
  -GOLD-   22720 7183D 1   1.00000     0.00000
 Structure written by MMmdl.
 49 51  0  0  0  0  0  0  0  0  3 V2000
  151.1048  144.4803  160.2915 C   0  0  0  0  0  0  0  0  0  0  0  0
  151.8282  143.1570  160.1080 C   0  0  0  0  0  0  0  0  0  0  0  0
  152.8879  142.8400  160.9880 C   0  0  0  0  0  0  0  0  0  0  0  0
  153.5275  141.6210  160.7975 C   0  0  0  0  0  0  0  0  0  0  0  0
  154.5845  141.0235  161.4878 N   0  3  0  0  0  0  0  0  0  0  0  0
  154.8633  139.8116  160.9321 C   0  0  0  0  0  0  0  0  0  0  0  0
  154.0074  139.6325  159.8886 N   0  0  0  0  0  0  0  0  0  0  0  0
  153.8705  138.5029  158.9599 C   0  0  0  0  0  0  0  0  0  0  0  0
  152.6228  137.6363  159.2291 C   0  0  2  0  0  0  0  0  0  0  0  0
  152.9688  136.7084  160.2371 O   0  0  0  0  0  0  0  0  0  0  0  0
  152.1286  136.8690  157.9824 C   0  0  0  0  0  0  0  0  0  0  0  0
  151.1029  137.6203  157.2136 N   0  3  2  0  0  0  0  0  0  0  0  0
  150.5720  136.8357  156.0685 C   0  0  0  0  0  0  0  0  0  0  0  0
  149.4132  137.5742  155.3781 C   0  0  0  0  0  0  0  0  0  0  0  0
  149.8501  138.9737  154.9212 C   0  0  1  0  0  0  0  0  0  0  0  0
  148.7422  139.6644  154.3847 O   0  0  0  0  0  0  0  0  0  0  0  0
  150.4233  139.7555  156.1123 C   0  0  0  0  0  0  0  0  0  0  0  0
  151.5617  138.9698  156.7851 C   0  0  0  0  0  0  0  0  0  0  0  0
  153.1487  140.7308  159.7740 C   0  0  0  0  0  0  0  0  0  0  0  0
  152.1059  141.0261  158.8996 C   0  0  0  0  0  0  0  0  0  0  0  0
  151.4435  142.2619  159.0762 C   0  0  0  0  0  0  0  0  0  0  0  0
  150.3034  142.6131  158.1354 C   0  0  0  0  0  0  0  0  0  0  0  0
  151.4887  145.0291  161.1519 H   0  0  0  0  0  0  0  0  0  0  0  0
  150.0389  144.3163  160.4516 H   0  0  0  0  0  0  0  0  0  0  0  0
  151.2303  145.1100  159.4105 H   0  0  0  0  0  0  0  0  0  0  0  0
  153.1846  143.5157  161.7769 H   0  0  0  0  0  0  0  0  0  0  0  0
  155.6258  139.1195  161.2601 H   0  0  0  0  0  0  0  0  0  0  0  0
  153.8327  138.9163  157.9509 H   0  0  0  0  0  0  0  0  0  0  0  0
  154.7820  137.9058  159.0158 H   0  0  0  0  0  0  0  0  0  0  0  0
  151.8338  138.2752  159.6230 H   0  0  0  0  0  0  0  0  0  0  0  0
  153.9005  136.5539  160.2098 H   0  0  0  0  0  0  0  0  0  0  0  0
  152.9562  136.6312  157.3131 H   0  0  0  0  0  0  0  0  0  0  0  0
  151.7220  135.9103  158.3089 H   0  0  0  0  0  0  0  0  0  0  0  0
  151.3743  136.6406  155.3548 H   0  0  0  0  0  0  0  0  0  0  0  0
  150.2161  135.8660  156.4192 H   0  0  0  0  0  0  0  0  0  0  0  0
  149.0595  136.9936  154.5251 H   0  0  0  0  0  0  0  0  0  0  0  0
  148.5724  137.6535  156.0692 H   0  0  0  0  0  0  0  0  0  0  0  0
  150.6077  138.8848  154.1412 H   0  0  0  0  0  0  0  0  0  0  0  0
  148.7444  139.5596  153.4451 H   0  0  0  0  0  0  0  0  0  0  0  0
  150.7890  140.7286  155.7820 H   0  0  0  0  0  0  0  0  0  0  0  0
  149.6371  139.9509  156.8433 H   0  0  0  0  0  0  0  0  0  0  0  0
  151.9253  139.5395  157.6394 H   0  0  0  0  0  0  0  0  0  0  0  0
  152.4020  138.8674  156.0964 H   0  0  0  0  0  0  0  0  0  0  0  0
  151.8085  140.3419  158.1186 H   0  0  0  0  0  0  0  0  0  0  0  0
  150.1601  141.8428  157.3773 H   0  0  0  0  0  0  0  0  0  0  0  0
  150.5056  143.5522  157.6199 H   0  0  0  0  0  0  0  0  0  0  0  0
  149.3693  142.7144  158.6883 H   0  0  0  0  0  0  0  0  0  0  0  0
  150.3223  137.7573  157.8396 H   0  0  0  0  0  0  0  0  0  0  0  0
  155.0742  141.4083  162.2857 H   0  0  0  0  0  0  0  0  0  0  0  0
  1  2  1  0  0  0  0
  1 23  1  0  0  0  0
  1 24  1  0  0  0  0
  1 25  1  0  0  0  0
  2 21  1  0  0  0  0
  2  3  2  0  0  0  0
  3  4  1  0  0  0  0
  3 26  1  0  0  0  0
  4 19  2  0  0  0  0
  4  5  1  0  0  0  0
  5  6  2  0  0  0  0
  5 49  1  0  0  0  0
  6  7  1  0  0  0  0
  6 27  1  0  0  0  0
  7  8  1  0  0  0  0
  7 19  1  0  0  0  0
  8  9  1  0  0  0  0
  8 28  1  0  0  0  0
  8 29  1  0  0  0  0
  9 10  1  0  0  0  0
  9 11  1  0  0  0  0
  9 30  1  0  0  0  0
 10 31  1  0  0  0  0
 11 12  1  0  0  0  0
 11 32  1  0  0  0  0
 11 33  1  0  0  0  0
 12 18  1  0  0  0  0
 12 13  1  0  0  0  0
 12 48  1  0  0  0  0
 13 14  1  0  0  0  0
 13 34  1  0  0  0  0
 13 35  1  0  0  0  0
 14 15  1  0  0  0  0
 14 36  1  0  0  0  0
 14 37  1  0  0  0  0
 15 16  1  0  0  0  0
 15 17  1  0  0  0  0
 15 38  1  0  0  0  0
 16 39  1  0  0  0  0
 17 18  1  0  0  0  0
 17 40  1  0  0  0  0
 17 41  1  0  0  0  0
 18 42  1  0  0  0  0
 18 43  1  0  0  0  0
 19 20  1  0  0  0  0
 20 21  2  0  0  0  0
 20 44  1  0  0  0  0
 21 22  1  0  0  0  0
 22 45  1  0  0  0  0
 22 46  1  0  0  0  0
 22 47  1  0  0  0  0
M  CHG  1   5   1
M  CHG  1  12   1
M  END
> <s_m_source_file>
AV-unprocessed.smi

> <i_m_source_file_index>
1626

> <i_lp_mmshare_version>
43012

> <i_f3d_flags>
0

> <s_epik_input>
W0NIM11jKFtjSF0xKWMoW0NIM10pW2NIXWMoYzEyKW4oW2NIXW4yKVtDSDJdW0NASF0oW09IXSlbQ0gyXU4zW0NIMl1bQ0gyXVtDSF0oW09IXSlbQ0gyXVtDSDJdMw==

> <s_epik_cmdline>
J2VwaWtfcHl0aG9uJywgJy1waCcsICc3LjAnLCAnLXRuJywgJzgnLCAnLW1hJywgJzIwMCcsICctbWV0YWxfYmluZGluZycsICctaW1hZScsICc8aW5maWxlLm1hZT4nLCAnLW9tYWUnLCAnPG91dGZpbGUubWFlPic=

> <r_epik_Ionization_Penalty>
1.19369

> <r_epik_Ionization_Penalty_Charging>
1.19369

> <r_epik_Ionization_Penalty_Neutral>
1.68219e-06

> <r_epik_State_Penalty>
1.27429

> <r_epik_Charging_Adjusted_Penalty>
2.46798

> <i_epik_Tot_Q>
2

> <i_epik_Tot_abs_Q>
2

> <r_epik_Metal_State_Penalty>
5.29157

> <b_epik_Metal_Only>
0

> <s_lp_Force_Field>
OPLS_2005

> <r_lp_Energy>
33.2617

> <b_lp_Chiralities_Consistent>
1

> <s_lp_Variant>
AV-unprocessed.smi:1626-5

> <Gold.Version>
5.8.1

> <Gold.Id.Protein>
6NUR|6NUR_protein|mol2

> <Gold.PLP.Fitness>
49.9278

> <Gold.PLP.PLP>
-45.6105

> <Gold.PLP.part.hbond>
-3.9979

> <Gold.PLP.part.metal>
0.0000

> <Gold.PLP.part.buried>
-5.9320

> <Gold.PLP.part.nonpolar>
-36.6857

> <Gold.PLP.part.repulsive>
0.0764

> <Gold.PLP.ligand.clash>
0.0231

> <Gold.PLP.ligand.torsion>
0.8424

> <Gold.PLP.Chemscore.Hbond>
2.0000

> <Gold.PLP.Chemscore.CHOScore>
0.0000

> <Gold.PLP.Chemscore.Metal>
0.0000

> <Gold.Chemscore.Hbonds>
donor molecule, donor type, donor heavy atom, donor atom, acceptor molecule, acceptor atom, score
      P1  H  6896  6909       L1    10  1.00

> <Gold.PLP.Chemscore.Internal.Correction>
0.0253

> <Gold.Rescore>
     Score         DG    S(hbond)    S(metal)    S(lipo)     H(rot)  DE(clash)    DE(int)     intcor
     18.53     -19.64       1.91        0.00     126.56       2.74       0.34       0.76       ----

> <Gold.Chemscore.Fitness>
18.5328

> <Gold.Chemscore.DG>
-19.6407

> <Gold.Chemscore.ZeroCoef>
-5.4800

> <Gold.Chemscore.Hbond>
1.9052

> <Gold.Chemscore.Metal>
0.0000

> <Gold.Chemscore.Lipo>
126.5622

> <Gold.Chemscore.Internal_Hbond>
0.0000

> <Gold.Chemscore.DEClash>
0.3446

> <Gold.Chemscore.DEInternal>
0.7633

> <Gold.Chemscore.Rot>
2.7384

> <Gold.Chemscore.Internal.Correction>
   9.000000E+99

> <Gold.Chemscore.Hbonds>
donor molecule, donor type, donor heavy atom, donor atom, acceptor molecule, acceptor atom, score
      L1  H    16    39       P1  7957  0.02
      P1  H  6896  6909       L1    10  0.61

> <Gold.Chemscore.Hbond.Weighted>
-6.3633

> <Gold.Chemscore.Metal.Weighted>
-0.0000

> <Gold.Chemscore.Lipo.Weighted>
-14.8078

> <Gold.Chemscore.Internal_Hbond.Weighted>
0.0000

> <Gold.Chemscore.DEClash.Weighted>
0.3446

> <Gold.Chemscore.DEInternal.Weighted>
0.7633

> <Gold.Chemscore.Rot.Weighted>
7.0103

> <Gold.Chemscore.Internal.Correction.Weighted>
   9.000000E+99

> <Gold.Protein.RotatedTorsions>
[ 6907 6896 6895 6894 ] final  146.05 input  -60.11 | X-H torsion
[ 7974 7965 7964 7962 ] final  -26.04 input  175.53 | X-H torsion
[ 8008 7997 7996 7995 ] final   95.10 input   59.86 | X-H torsion
[ 10167 10162 10161 10158 ] final  -49.10 input  -65.29 | X-H torsion
[ 10718 10713 10712 10709 ] final -108.79 input   66.30 | X-H torsion
[ 10763 10752 10751 10750 ] final  -15.83 input  -60.55 | X-H torsion
[ 11005 11000 10999 10996 ] final    0.88 input  -57.11 | X-H torsion

> <Gold.Protein.ActiveResidues>
 VAL166  LYS551  ARG553  GLY616  TRP617  ASP618  TYR619  PRO620  LYS621  CYS622 
 ASP623  PHE694  ASN695  SER759  ASP760  ASP761  ALA762  ILE779  LEU786  VAL792 
 PHE793  MET794  SER795  GLU796  ALA797  LYS798  CYS799  TRP800  GLU811  SER814 

> <Gold.Protein.RotatedAtoms>
  152.1730  133.4656  159.4918 H   0  0  0  0  0  0  0  0  0  0  0  0  # atno 6907 bound_to 6896
  150.6922  134.1930  159.4301 H   0  0  0  0  0  0  0  0  0  0  0  0  # atno 6908 bound_to 6896
  151.9837  135.0015  160.0609 H   0  0  0  0  0  0  0  0  0  0  0  0  # atno 6909 bound_to 6896
  146.1452  140.4966  142.8635 H   0  0  0  0  0  0  0  0  0  0  0  0  # atno 7974 bound_to 7965
  156.0652  140.3291  155.7510 H   0  0  0  0  0  0  0  0  0  0  0  0  # atno 8008 bound_to 7997
  155.5392  140.0600  157.2891 H   0  0  0  0  0  0  0  0  0  0  0  0  # atno 8009 bound_to 7997
  154.4502  140.1914  156.0562 H   0  0  0  0  0  0  0  0  0  0  0  0  # atno 8010 bound_to 7997
  140.6701  143.2712  151.4166 H   0  0  0  0  0  0  0  0  0  0  0  0  # atno 10167 bound_to 10162
  156.0503  130.5730  150.8009 H   0  0  0  0  0  0  0  0  0  0  0  0  # atno 10718 bound_to 10713
  153.5493  135.7012  153.5599 H   0  0  0  0  0  0  0  0  0  0  0  0  # atno 10763 bound_to 10752
  153.3530  135.3990  155.1660 H   0  0  0  0  0  0  0  0  0  0  0  0  # atno 10764 bound_to 10752
  154.8663  135.3770  154.5003 H   0  0  0  0  0  0  0  0  0  0  0  0  # atno 10765 bound_to 10752
  140.6216  133.9656  155.8228 H   0  0  0  0  0  0  0  0  0  0  0  0  # atno 11005 bound_to 11000
  144.7838  140.5894  143.6588 LP  0  0  0  0  0  0  0  0  0  0  0  0  # atno 17320 bound_to 7965
  145.4955  139.1486  143.3686 LP  0  0  0  0  0  0  0  0  0  0  0  0  # atno 17321 bound_to 7965
  139.5965  144.1386  152.2150 LP  0  0  0  0  0  0  0  0  0  0  0  0  # atno 17342 bound_to 10162
  140.0757  144.5743  150.7159 LP  0  0  0  0  0  0  0  0  0  0  0  0  # atno 17343 bound_to 10162
  157.5423  131.0941  150.9811 LP  0  0  0  0  0  0  0  0  0  0  0  0  # atno 17370 bound_to 10713
  157.0091  130.5629  149.5319 LP  0  0  0  0  0  0  0  0  0  0  0  0  # atno 17371 bound_to 10713
  141.0738  134.0165  157.3487 LP  0  0  0  0  0  0  0  0  0  0  0  0  # atno 17394 bound_to 11000
  139.9151  135.0195  156.7848 LP  0  0  0  0  0  0  0  0  0  0  0  0  # atno 17395 bound_to 11000

$$$$
