AV-unprocessed.smi:829|AV-procd|sdf|3867|dock9
  -GOLD-   22720 1323D 1   1.00000     0.00000
 Structure written by MMmdl.
 49 51  0  0  0  0  0  0  0  0  2 V2000
  144.3584  136.5225  152.0661 O   0  0  0  0  0  0  0  0  0  0  0  0
  145.5736  136.3290  152.0469 C   0  0  0  0  0  0  0  0  0  0  0  0
  146.1877  135.2788  151.4745 N   0  0  0  0  0  0  0  0  0  0  0  0
  145.6082  134.1821  150.7799 C   0  0  0  0  0  0  0  0  0  0  0  0
  146.4543  133.1135  150.4187 C   0  0  0  0  0  0  0  0  0  0  0  0
  145.9071  132.0207  149.7169 C   0  0  0  0  0  0  0  0  0  0  0  0
  144.6079  131.9443  149.3598 N   0  0  0  0  0  0  0  0  0  0  0  0
  143.8025  132.9751  149.6928 C   0  0  0  0  0  0  0  0  0  0  0  0
  144.2477  134.1137  150.3940 C   0  0  0  0  0  0  0  0  0  0  0  0
  146.4591  137.1507  152.6299 N   0  0  0  0  0  0  0  0  0  0  0  0
  146.1226  138.3771  153.3529 C   0  0  2  0  0  0  0  0  0  0  0  0
  146.8605  139.5832  152.7449 C   0  0  0  0  0  0  0  0  0  0  0  0
  148.3678  139.5655  153.0627 C   0  0  0  0  0  0  0  0  0  0  0  0
  148.6085  139.4771  154.5264 N   0  3  2  0  0  0  0  0  0  0  0  0
  150.0433  139.6134  154.8879 C   0  0  0  0  0  0  0  0  0  0  0  0
  150.2335  139.9443  156.3815 C   0  0  0  0  0  0  0  0  0  0  0  0
  150.1001  141.4377  156.6889 C   0  0  0  0  0  0  0  0  0  0  0  0
  150.7383  141.6101  158.0694 C   0  0  0  0  0  0  0  0  0  0  0  0
  151.7796  140.4897  158.1960 C   0  0  0  0  0  0  0  0  0  0  0  0
  151.6130  139.6016  156.9568 C   0  0  0  0  0  0  0  0  0  0  0  0
  147.9713  138.2671  155.1078 C   0  0  0  0  0  0  0  0  0  0  0  0
  146.4543  138.2691  154.8550 C   0  0  0  0  0  0  0  0  0  0  0  0
  147.1869  135.2235  151.6062 H   0  0  0  0  0  0  0  0  0  0  0  0
  147.5031  133.1221  150.6771 H   0  0  0  0  0  0  0  0  0  0  0  0
  146.5313  131.1863  149.4331 H   0  0  0  0  0  0  0  0  0  0  0  0
  142.7705  132.8935  149.3857 H   0  0  0  0  0  0  0  0  0  0  0  0
  143.5467  134.9058  150.6067 H   0  0  0  0  0  0  0  0  0  0  0  0
  147.4384  136.9150  152.5623 H   0  0  0  0  0  0  0  0  0  0  0  0
  145.0499  138.5461  153.2408 H   0  0  0  0  0  0  0  0  0  0  0  0
  146.7041  139.6192  151.6660 H   0  0  0  0  0  0  0  0  0  0  0  0
  146.4272  140.5022  153.1425 H   0  0  0  0  0  0  0  0  0  0  0  0
  148.8548  138.7280  152.5607 H   0  0  0  0  0  0  0  0  0  0  0  0
  148.8211  140.4768  152.6705 H   0  0  0  0  0  0  0  0  0  0  0  0
  150.6031  138.7207  154.6039 H   0  0  0  0  0  0  0  0  0  0  0  0
  150.4845  140.4297  154.3137 H   0  0  0  0  0  0  0  0  0  0  0  0
  149.4744  139.4176  156.9628 H   0  0  0  0  0  0  0  0  0  0  0  0
  150.6574  142.0217  155.9546 H   0  0  0  0  0  0  0  0  0  0  0  0
  149.0647  141.7798  156.6663 H   0  0  0  0  0  0  0  0  0  0  0  0
  151.1788  142.5999  158.1927 H   0  0  0  0  0  0  0  0  0  0  0  0
  149.9796  141.4912  158.8441 H   0  0  0  0  0  0  0  0  0  0  0  0
  152.7927  140.8890  158.2533 H   0  0  0  0  0  0  0  0  0  0  0  0
  151.6042  139.9168  159.1073 H   0  0  0  0  0  0  0  0  0  0  0  0
  151.7117  138.5431  157.1990 H   0  0  0  0  0  0  0  0  0  0  0  0
  152.3903  139.8498  156.2326 H   0  0  0  0  0  0  0  0  0  0  0  0
  148.4249  137.3720  154.6792 H   0  0  0  0  0  0  0  0  0  0  0  0
  148.1513  138.2216  156.1806 H   0  0  0  0  0  0  0  0  0  0  0  0
  146.0088  139.1147  155.3808 H   0  0  0  0  0  0  0  0  0  0  0  0
  146.0022  137.3766  155.2888 H   0  0  0  0  0  0  0  0  0  0  0  0
  148.1425  140.2766  154.9309 H   0  0  0  0  0  0  0  0  0  0  0  0
  1  2  2  0  0  0  0
  2  3  1  0  0  0  0
  2 10  1  0  0  0  0
  3  4  1  0  0  0  0
  3 23  1  0  0  0  0
  4  9  1  0  0  0  0
  4  5  2  0  0  0  0
  5  6  1  0  0  0  0
  5 24  1  0  0  0  0
  6  7  2  0  0  0  0
  6 25  1  0  0  0  0
  7  8  1  0  0  0  0
  8  9  2  0  0  0  0
  8 26  1  0  0  0  0
  9 27  1  0  0  0  0
 10 11  1  0  0  0  0
 10 28  1  0  0  0  0
 11 22  1  0  0  0  0
 11 12  1  0  0  0  0
 11 29  1  0  0  0  0
 12 13  1  0  0  0  0
 12 30  1  0  0  0  0
 12 31  1  0  0  0  0
 13 14  1  0  0  0  0
 13 32  1  0  0  0  0
 13 33  1  0  0  0  0
 14 15  1  0  0  0  0
 14 21  1  0  0  0  0
 14 49  1  0  0  0  0
 15 16  1  0  0  0  0
 15 34  1  0  0  0  0
 15 35  1  0  0  0  0
 16 20  1  0  0  0  0
 16 17  1  0  0  0  0
 16 36  1  0  0  0  0
 17 18  1  0  0  0  0
 17 37  1  0  0  0  0
 17 38  1  0  0  0  0
 18 19  1  0  0  0  0
 18 39  1  0  0  0  0
 18 40  1  0  0  0  0
 19 20  1  0  0  0  0
 19 41  1  0  0  0  0
 19 42  1  0  0  0  0
 20 43  1  0  0  0  0
 20 44  1  0  0  0  0
 21 22  1  0  0  0  0
 21 45  1  0  0  0  0
 21 46  1  0  0  0  0
 22 47  1  0  0  0  0
 22 48  1  0  0  0  0
M  CHG  1  14   1
M  END
> <s_m_source_file>
AV-unprocessed.smi

> <i_m_source_file_index>
829

> <i_lp_mmshare_version>
43012

> <i_f3d_flags>
0

> <s_epik_input>
W2NIXTFbY0hdbltjSF1bY0hdYzFbTkhdQyg9TylbTkhdW0NIXTJbQ0gyXVtDSDJdTihbQ0gyXVtDSDJdMilbQ0gyXVtDSF0zW0NIMl1bQ0gyXVtDSDJdW0NIMl0z

> <s_epik_cmdline>
J2VwaWtfcHl0aG9uJywgJy1waCcsICc3LjAnLCAnLXRuJywgJzgnLCAnLW1hJywgJzIwMCcsICctbWV0YWxfYmluZGluZycsICctaW1hZScsICc8aW5maWxlLm1hZT4nLCAnLW9tYWUnLCAnPG91dGZpbGUubWFlPic=

> <r_epik_Ionization_Penalty>
0.101981

> <r_epik_Ionization_Penalty_Charging>
0.00207989

> <r_epik_Ionization_Penalty_Neutral>
0.0999008

> <r_epik_State_Penalty>
0.0935668

> <r_epik_Charging_Adjusted_Penalty>
0.0956467

> <i_epik_Tot_Q>
1

> <i_epik_Tot_abs_Q>
1

> <r_epik_Metal_State_Penalty>
0.0787682

> <b_epik_Metal_Only>
0

> <s_lp_Force_Field>
OPLS_2005

> <r_lp_Energy>
43.3749

> <b_lp_Chiralities_Consistent>
1

> <s_lp_Variant>
AV-unprocessed.smi:829-2

> <Gold.Version>
5.8.1

> <Gold.Id.Protein>
6NUR|6NUR_protein|mol2

> <Gold.PLP.Fitness>
44.8558

> <Gold.PLP.PLP>
-33.6657

> <Gold.PLP.part.hbond>
-3.0055

> <Gold.PLP.part.metal>
0.0000

> <Gold.PLP.part.buried>
2.1516

> <Gold.PLP.part.nonpolar>
-33.3850

> <Gold.PLP.part.repulsive>
0.4788

> <Gold.PLP.ligand.clash>
0.0000

> <Gold.PLP.ligand.torsion>
0.3720

> <Gold.PLP.Chemscore.Hbond>
2.1170

> <Gold.PLP.Chemscore.CHOScore>
1.8520

> <Gold.PLP.Chemscore.Metal>
0.0000

> <Gold.Chemscore.Hbonds>
donor molecule, donor type, donor heavy atom, donor atom, acceptor molecule, acceptor atom, score
      L1  H     3    23       P1  7948  0.96
      L1  H    10    28       P1  7948  1.00
      P1  H 10785 10796       L1     7  0.08
      L1  C     6    25       P1 10747  0.78
      L1  C     8    26       P1 10186  1.00

> <Gold.PLP.Chemscore.Internal.Correction>
0.0272

> <Gold.Rescore>
     Score         DG    S(hbond)    S(metal)    S(lipo)     H(rot)  DE(clash)    DE(int)     intcor
     17.34     -21.12       1.96        0.00     107.21       1.35       2.20       1.58       ----

> <Gold.Chemscore.Fitness>
17.3363

> <Gold.Chemscore.DG>
-21.1165

> <Gold.Chemscore.ZeroCoef>
-5.4800

> <Gold.Chemscore.Hbond>
1.9573

> <Gold.Chemscore.Metal>
0.0000

> <Gold.Chemscore.Lipo>
107.2104

> <Gold.Chemscore.Internal_Hbond>
0.0000

> <Gold.Chemscore.DEClash>
2.1986

> <Gold.Chemscore.DEInternal>
1.5817

> <Gold.Chemscore.Rot>
1.3455

> <Gold.Chemscore.Internal.Correction>
   9.000000E+99

> <Gold.Chemscore.Hbonds>
donor molecule, donor type, donor heavy atom, donor atom, acceptor molecule, acceptor atom, score
      L1  H     3    23       P1  7948  0.84
      L1  H    10    28       P1  7948  0.99
      P1  H 10785 10796       L1     7  0.06

> <Gold.Chemscore.Hbond.Weighted>
-6.5374

> <Gold.Chemscore.Metal.Weighted>
-0.0000

> <Gold.Chemscore.Lipo.Weighted>
-12.5436

> <Gold.Chemscore.Internal_Hbond.Weighted>
0.0000

> <Gold.Chemscore.DEClash.Weighted>
2.1986

> <Gold.Chemscore.DEInternal.Weighted>
1.5817

> <Gold.Chemscore.Rot.Weighted>
3.4445

> <Gold.Chemscore.Internal.Correction.Weighted>
   9.000000E+99

> <Gold.Protein.RotatedTorsions>
[ 6907 6896 6895 6894 ] final   -3.21 input  -60.11 | X-H torsion
[ 7974 7965 7964 7962 ] final   83.99 input  175.53 | X-H torsion
[ 8008 7997 7996 7995 ] final  163.84 input   59.86 | X-H torsion
[ 10167 10162 10161 10158 ] final  -34.50 input  -65.29 | X-H torsion
[ 10718 10713 10712 10709 ] final -171.90 input   66.30 | X-H torsion
[ 10763 10752 10751 10750 ] final   84.11 input  -60.55 | X-H torsion
[ 11005 11000 10999 10996 ] final  -80.78 input  -57.11 | X-H torsion

> <Gold.Protein.ActiveResidues>
 VAL166  LYS551  ARG553  GLY616  TRP617  ASP618  TYR619  PRO620  LYS621  CYS622 
 ASP623  PHE694  ASN695  SER759  ASP760  ASP761  ALA762  ILE779  LEU786  VAL792 
 PHE793  MET794  SER795  GLU796  ALA797  LYS798  CYS799  TRP800  GLU811  SER814 

> <Gold.Protein.RotatedAtoms>
  151.5175  135.1066  159.9869 H   0  0  0  0  0  0  0  0  0  0  0  0  # atno 6907 bound_to 6896
  152.4635  133.7869  159.6891 H   0  0  0  0  0  0  0  0  0  0  0  0  # atno 6908 bound_to 6896
  150.8608  133.7583  159.3018 H   0  0  0  0  0  0  0  0  0  0  0  0  # atno 6909 bound_to 6896
  145.6047  139.2358  143.2226 H   0  0  0  0  0  0  0  0  0  0  0  0  # atno 7974 bound_to 7965
  156.1926  140.1713  156.8061 H   0  0  0  0  0  0  0  0  0  0  0  0  # atno 8008 bound_to 7997
  154.5490  140.0721  156.8669 H   0  0  0  0  0  0  0  0  0  0  0  0  # atno 8009 bound_to 7997
  155.3065  140.3365  155.4248 H   0  0  0  0  0  0  0  0  0  0  0  0  # atno 8010 bound_to 7997
  140.7184  143.3543  151.2091 H   0  0  0  0  0  0  0  0  0  0  0  0  # atno 10167 bound_to 10162
  156.7477  130.9366  151.3113 H   0  0  0  0  0  0  0  0  0  0  0  0  # atno 10718 bound_to 10713
  153.1352  135.4666  154.9411 H   0  0  0  0  0  0  0  0  0  0  0  0  # atno 10763 bound_to 10752
  154.7699  135.3156  154.8212 H   0  0  0  0  0  0  0  0  0  0  0  0  # atno 10764 bound_to 10752
  153.8746  135.6900  153.4825 H   0  0  0  0  0  0  0  0  0  0  0  0  # atno 10765 bound_to 10752
  141.1667  133.7166  156.8324 H   0  0  0  0  0  0  0  0  0  0  0  0  # atno 11005 bound_to 11000
  146.1550  140.6871  142.9304 LP  0  0  0  0  0  0  0  0  0  0  0  0  # atno 17320 bound_to 7965
  144.7295  140.4628  143.6948 LP  0  0  0  0  0  0  0  0  0  0  0  0  # atno 17321 bound_to 7965
  139.7081  143.9422  152.2935 LP  0  0  0  0  0  0  0  0  0  0  0  0  # atno 17342 bound_to 10162
  139.9137  144.6841  150.8534 LP  0  0  0  0  0  0  0  0  0  0  0  0  # atno 17343 bound_to 10162
  157.6791  130.9122  150.0222 LP  0  0  0  0  0  0  0  0  0  0  0  0  # atno 17370 bound_to 10713
  156.1422  130.3642  149.9564 LP  0  0  0  0  0  0  0  0  0  0  0  0  # atno 17371 bound_to 10713
  140.2042  134.8875  157.3203 LP  0  0  0  0  0  0  0  0  0  0  0  0  # atno 17394 bound_to 11000
  140.2155  134.4086  155.7591 LP  0  0  0  0  0  0  0  0  0  0  0  0  # atno 17395 bound_to 11000

$$$$
