AV-unprocessed.smi:2552|AV-procd|sdf|10016|dock4
  -GOLD-   2272014 63D 1   1.00000     0.00000
 Structure written by MMmdl.
 34 36  0  0  0  0  0  0  0  0  1 V2000
  153.5992  137.8543  156.0905 C   0  0  0  0  0  0  0  0  0  0  0  0
  152.3648  138.5120  155.6681 N   0  0  0  0  0  0  0  0  0  0  0  0
  151.7853  137.9825  154.5089 N   0  0  0  0  0  0  0  0  0  0  0  0
  150.6846  138.4666  154.0239 C   0  0  0  0  0  0  0  0  0  0  0  0
  150.0571  139.5862  154.7194 C   0  0  0  0  0  0  0  0  0  0  0  0
  148.8881  140.3714  154.5214 C   0  0  0  0  0  0  0  0  0  0  0  0
  148.7479  141.3041  155.4618 N   0  0  0  0  0  0  0  0  0  0  0  0
  149.8153  141.1574  156.2892 N   0  0  0  0  0  0  0  0  0  0  0  0
  149.9726  142.0370  157.4371 C   0  0  0  0  0  0  0  0  0  0  0  0
  151.3082  142.8078  157.4209 C   0  0  1  0  0  0  0  0  0  0  0  0
  151.2816  143.8012  156.4129 O   0  0  0  0  0  0  0  0  0  0  0  0
  151.6254  143.3832  158.7947 C   0  0  0  0  0  0  0  0  0  0  0  0
  151.5140  144.7722  159.0308 C   0  0  0  0  0  0  0  0  0  0  0  0
  151.7984  145.3039  160.3033 C   0  0  0  0  0  0  0  0  0  0  0  0
  152.1922  144.4504  161.3510 C   0  0  0  0  0  0  0  0  0  0  0  0
  152.2985  143.0649  161.1253 C   0  0  0  0  0  0  0  0  0  0  0  0
  152.0146  142.5306  159.8531 C   0  0  0  0  0  0  0  0  0  0  0  0
  152.1154  141.1938  159.6572 F   0  0  0  0  0  0  0  0  0  0  0  0
  150.6022  140.1165  155.8416 C   0  0  0  0  0  0  0  0  0  0  0  0
  151.8603  139.5578  156.3899 C   0  0  0  0  0  0  0  0  0  0  0  0
  152.3836  140.0124  157.4073 O   0  0  0  0  0  0  0  0  0  0  0  0
  153.4912  137.4434  157.0952 H   0  0  0  0  0  0  0  0  0  0  0  0
  154.4289  138.5625  156.0981 H   0  0  0  0  0  0  0  0  0  0  0  0
  153.8723  137.0322  155.4267 H   0  0  0  0  0  0  0  0  0  0  0  0
  150.2353  138.0530  153.1212 H   0  0  0  0  0  0  0  0  0  0  0  0
  148.1464  140.2980  153.7398 H   0  0  0  0  0  0  0  0  0  0  0  0
  149.1337  142.7345  157.4658 H   0  0  0  0  0  0  0  0  0  0  0  0
  149.8966  141.4317  158.3411 H   0  0  0  0  0  0  0  0  0  0  0  0
  152.1085  142.1221  157.1418 H   0  0  0  0  0  0  0  0  0  0  0  0
  150.4135  143.8270  156.0408 H   0  0  0  0  0  0  0  0  0  0  0  0
  151.2066  145.4367  158.2366 H   0  0  0  0  0  0  0  0  0  0  0  0
  151.7121  146.3667  160.4757 H   0  0  0  0  0  0  0  0  0  0  0  0
  152.4099  144.8573  162.3275 H   0  0  0  0  0  0  0  0  0  0  0  0
  152.5964  142.4093  161.9301 H   0  0  0  0  0  0  0  0  0  0  0  0
  1  2  1  0  0  0  0
  1 22  1  0  0  0  0
  1 23  1  0  0  0  0
  1 24  1  0  0  0  0
  2 20  1  0  0  0  0
  2  3  1  0  0  0  0
  3  4  2  0  0  0  0
  4  5  1  0  0  0  0
  4 25  1  0  0  0  0
  5 19  2  0  0  0  0
  5  6  1  0  0  0  0
  6  7  2  0  0  0  0
  6 26  1  0  0  0  0
  7  8  1  0  0  0  0
  8  9  1  0  0  0  0
  8 19  1  0  0  0  0
  9 10  1  0  0  0  0
  9 27  1  0  0  0  0
  9 28  1  0  0  0  0
 10 11  1  0  0  0  0
 10 12  1  0  0  0  0
 10 29  1  0  0  0  0
 11 30  1  0  0  0  0
 12 17  1  0  0  0  0
 12 13  2  0  0  0  0
 13 14  1  0  0  0  0
 13 31  1  0  0  0  0
 14 15  2  0  0  0  0
 14 32  1  0  0  0  0
 15 16  1  0  0  0  0
 15 33  1  0  0  0  0
 16 17  2  0  0  0  0
 16 34  1  0  0  0  0
 17 18  1  0  0  0  0
 19 20  1  0  0  0  0
 20 21  2  0  0  0  0
M  END
> <s_m_source_file>
AV-unprocessed.smi

> <i_m_source_file_index>
2552

> <i_lp_mmshare_version>
43012

> <i_f3d_flags>
0

> <s_epik_input>
W2NIXTFubihbQ0gzXSljKD1PKWMoYzEyKW4obltjSF0yKVtDSDJdW0NASF0oW09IXSljM1tjSF1bY0hdW2NIXVtjSF1jM0Y=

> <s_epik_cmdline>
J2VwaWtfcHl0aG9uJywgJy1waCcsICc3LjAnLCAnLXRuJywgJzgnLCAnLW1hJywgJzIwMCcsICctbWV0YWxfYmluZGluZycsICctaW1hZScsICc8aW5maWxlLm1hZT4nLCAnLW9tYWUnLCAnPG91dGZpbGUubWFlPic=

> <r_lp_tautomer_probability>
1

> <r_epik_Ionization_Penalty>
6.28011e-06

> <r_epik_Ionization_Penalty_Charging>
1.65421e-10

> <r_epik_Ionization_Penalty_Neutral>
6.27995e-06

> <r_epik_State_Penalty>
-0

> <r_epik_Charging_Adjusted_Penalty>
1.65421e-10

> <i_epik_Tot_Q>
0

> <i_epik_Tot_abs_Q>
0

> <r_epik_Metal_State_Penalty>
-0

> <b_epik_Metal_Only>
0

> <s_lp_Force_Field>
OPLS_2005

> <r_lp_Energy>
28.1215

> <b_lp_Chiralities_Consistent>
1

> <s_lp_Variant>
AV-unprocessed.smi:2552-2

> <Gold.Version>
5.8.1

> <Gold.Id.Protein>
6NUR|6NUR_protein|mol2

> <Gold.PLP.Fitness>
55.6513

> <Gold.PLP.PLP>
-45.3239

> <Gold.PLP.part.hbond>
-2.0000

> <Gold.PLP.part.metal>
0.0000

> <Gold.PLP.part.buried>
-2.2721

> <Gold.PLP.part.nonpolar>
-40.7643

> <Gold.PLP.part.repulsive>
0.2715

> <Gold.PLP.ligand.clash>
0.0000

> <Gold.PLP.ligand.torsion>
0.4425

> <Gold.PLP.Chemscore.Hbond>
2.0000

> <Gold.PLP.Chemscore.CHOScore>
1.7298

> <Gold.PLP.Chemscore.Metal>
0.0000

> <Gold.Chemscore.Hbonds>
donor molecule, donor type, donor heavy atom, donor atom, acceptor molecule, acceptor atom, score
      L1  H    11    30       P1  8028  0.99
      P1  H  7997  8008       L1    21  0.59
      L1  C     4    25       P1  7948  0.94
      L1  C     4    25       P1  7949  0.11
      L1  C     4    25       P1  7957  0.16

> <Gold.PLP.Chemscore.Internal.Correction>
0.0230

> <Gold.Rescore>
     Score         DG    S(hbond)    S(metal)    S(lipo)     H(rot)  DE(clash)    DE(int)     intcor
     16.71     -19.89       1.62        0.00     121.07       2.02       0.63       2.55       ----

> <Gold.Chemscore.Fitness>
16.7062

> <Gold.Chemscore.DG>
-19.8900

> <Gold.Chemscore.ZeroCoef>
-5.4800

> <Gold.Chemscore.Hbond>
1.6201

> <Gold.Chemscore.Metal>
0.0000

> <Gold.Chemscore.Lipo>
121.0689

> <Gold.Chemscore.Internal_Hbond>
0.0000

> <Gold.Chemscore.DEClash>
0.6319

> <Gold.Chemscore.DEInternal>
2.5519

> <Gold.Chemscore.Rot>
2.0181

> <Gold.Chemscore.Internal.Correction>
   9.000000E+99

> <Gold.Chemscore.Hbonds>
donor molecule, donor type, donor heavy atom, donor atom, acceptor molecule, acceptor atom, score
      L1  H    11    30       P1  8028  0.94
      P1  H  7997  8008       L1    21  0.08

> <Gold.Chemscore.Hbond.Weighted>
-5.4113

> <Gold.Chemscore.Metal.Weighted>
-0.0000

> <Gold.Chemscore.Lipo.Weighted>
-14.1651

> <Gold.Chemscore.Internal_Hbond.Weighted>
0.0000

> <Gold.Chemscore.DEClash.Weighted>
0.6319

> <Gold.Chemscore.DEInternal.Weighted>
2.5519

> <Gold.Chemscore.Rot.Weighted>
5.1663

> <Gold.Chemscore.Internal.Correction.Weighted>
   9.000000E+99

> <Gold.Protein.RotatedTorsions>
[ 6907 6896 6895 6894 ] final -174.09 input  -60.11 | X-H torsion
[ 7974 7965 7964 7962 ] final  124.55 input  175.53 | X-H torsion
[ 8008 7997 7996 7995 ] final  -58.00 input   59.86 | X-H torsion
[ 10167 10162 10161 10158 ] final  -80.55 input  -65.29 | X-H torsion
[ 10718 10713 10712 10709 ] final  127.15 input   66.30 | X-H torsion
[ 10763 10752 10751 10750 ] final  -43.38 input  -60.55 | X-H torsion
[ 11005 11000 10999 10996 ] final   -3.97 input  -57.11 | X-H torsion

> <Gold.Protein.ActiveResidues>
 VAL166  LYS551  ARG553  GLY616  TRP617  ASP618  TYR619  PRO620  LYS621  CYS622 
 ASP623  PHE694  ASN695  SER759  ASP760  ASP761  ALA762  ILE779  LEU786  VAL792 
 PHE793  MET794  SER795  GLU796  ALA797  LYS798  CYS799  TRP800  GLU811  SER814 

> <Gold.Protein.RotatedAtoms>
  151.5667  133.3395  159.2981 H   0  0  0  0  0  0  0  0  0  0  0  0  # atno 6907 bound_to 6896
  150.8391  134.7679  159.6929 H   0  0  0  0  0  0  0  0  0  0  0  0  # atno 6908 bound_to 6896
  152.4462  134.5496  159.9914 H   0  0  0  0  0  0  0  0  0  0  0  0  # atno 6909 bound_to 6896
  145.0831  139.3642  143.4899 H   0  0  0  0  0  0  0  0  0  0  0  0  # atno 7974 bound_to 7965
  154.4290  140.1094  156.5887 H   0  0  0  0  0  0  0  0  0  0  0  0  # atno 8008 bound_to 7997
  155.6035  140.3493  155.4582 H   0  0  0  0  0  0  0  0  0  0  0  0  # atno 8009 bound_to 7997
  156.0155  140.1228  157.0401 H   0  0  0  0  0  0  0  0  0  0  0  0  # atno 8010 bound_to 7997
  140.4493  143.2488  151.8512 H   0  0  0  0  0  0  0  0  0  0  0  0  # atno 10167 bound_to 10162
  157.5357  131.1097  150.8939 H   0  0  0  0  0  0  0  0  0  0  0  0  # atno 10718 bound_to 10713
  153.9946  135.6701  153.4756 H   0  0  0  0  0  0  0  0  0  0  0  0  # atno 10763 bound_to 10752
  153.0690  135.4985  154.8259 H   0  0  0  0  0  0  0  0  0  0  0  0  # atno 10764 bound_to 10752
  154.7089  135.3093  154.9190 H   0  0  0  0  0  0  0  0  0  0  0  0  # atno 10765 bound_to 10752
  140.6752  133.9202  155.8519 H   0  0  0  0  0  0  0  0  0  0  0  0  # atno 11005 bound_to 11000
  146.3531  140.0630  142.8628 LP  0  0  0  0  0  0  0  0  0  0  0  0  # atno 17320 bound_to 7965
  145.1155  140.9431  143.4631 LP  0  0  0  0  0  0  0  0  0  0  0  0  # atno 17321 bound_to 7965
  139.4795  144.5139  151.8895 LP  0  0  0  0  0  0  0  0  0  0  0  0  # atno 17342 bound_to 10162
  140.4226  144.2223  150.5887 LP  0  0  0  0  0  0  0  0  0  0  0  0  # atno 17343 bound_to 10162
  156.9506  130.5418  149.5282 LP  0  0  0  0  0  0  0  0  0  0  0  0  # atno 17370 bound_to 10713
  156.0457  130.5534  150.8875 LP  0  0  0  0  0  0  0  0  0  0  0  0  # atno 17371 bound_to 10713
  141.0361  134.0687  157.3957 LP  0  0  0  0  0  0  0  0  0  0  0  0  # atno 17394 bound_to 11000
  139.8969  135.0148  156.7074 LP  0  0  0  0  0  0  0  0  0  0  0  0  # atno 17395 bound_to 11000

$$$$
