AV-unprocessed.smi:2923|AV-procd|sdf|11213|dock7
  -GOLD-   2272016103D 1   1.00000     0.00000
 Structure written by MMmdl.
 46 48  0  0  0  0  0  0  0  0  1 V2000
  149.0492  142.4221  158.0142 C   0  0  0  0  0  0  0  0  0  0  0  0
  149.8552  141.9446  156.9015 N   0  0  0  0  0  0  0  0  0  0  0  0
  151.2946  141.9248  157.1121 C   0  0  0  0  0  0  0  0  0  0  0  0
  149.3635  140.7555  156.3472 C   0  0  0  0  0  0  0  0  0  0  0  0
  148.5454  139.8788  157.0953 C   0  0  0  0  0  0  0  0  0  0  0  0
  148.0781  138.6997  156.4843 C   0  0  0  0  0  0  0  0  0  0  0  0
  148.4378  138.4371  155.1409 C   0  0  0  0  0  0  0  0  0  0  0  0
  148.0469  137.2782  154.4177 N   0  0  0  0  0  0  0  0  0  0  0  0
  147.0983  136.3775  154.7259 C   0  0  0  0  0  0  0  0  0  0  0  0
  146.3804  136.4108  155.7250 O   0  0  0  0  0  0  0  0  0  0  0  0
  147.0155  135.4281  153.7853 N   0  0  0  0  0  0  0  0  0  0  0  0
  146.0857  134.2968  153.8023 C   0  0  1  0  0  0  0  0  0  0  0  0
  144.8912  134.4855  152.8402 C   0  0  1  0  0  0  0  0  0  0  0  0
  144.5745  135.8018  152.1729 C   0  0  0  0  0  0  0  0  0  0  0  0
  145.2224  135.6468  150.7938 C   0  0  0  0  0  0  0  0  0  0  0  0
  146.1987  134.6210  150.9627 O   0  0  0  0  0  0  0  0  0  0  0  0
  145.6480  133.6347  151.8330 C   0  0  1  0  0  0  0  0  0  0  0  0
  146.5766  133.1012  152.9443 C   0  0  0  0  0  0  0  0  0  0  0  0
  148.0688  133.0028  152.5985 C   0  0  0  0  0  0  0  0  0  0  0  0
  146.1715  131.7295  153.4922 C   0  0  0  0  0  0  0  0  0  0  0  0
  149.2699  139.3716  154.4901 C   0  0  0  0  0  0  0  0  0  0  0  0
  149.7195  140.5050  155.0690 N   0  0  0  0  0  0  0  0  0  0  0  0
  147.9884  142.4072  157.7606 H   0  0  0  0  0  0  0  0  0  0  0  0
  149.3210  143.4484  158.2622 H   0  0  0  0  0  0  0  0  0  0  0  0
  149.2015  141.8044  158.8999 H   0  0  0  0  0  0  0  0  0  0  0  0
  151.8113  141.5677  156.2202 H   0  0  0  0  0  0  0  0  0  0  0  0
  151.5607  141.2776  157.9486 H   0  0  0  0  0  0  0  0  0  0  0  0
  151.6560  142.9300  157.3300 H   0  0  0  0  0  0  0  0  0  0  0  0
  148.2808  140.1005  158.1188 H   0  0  0  0  0  0  0  0  0  0  0  0
  147.4693  138.0208  157.0605 H   0  0  0  0  0  0  0  0  0  0  0  0
  148.5040  137.1517  153.5264 H   0  0  0  0  0  0  0  0  0  0  0  0
  147.6430  135.4831  152.9962 H   0  0  0  0  0  0  0  0  0  0  0  0
  145.7641  133.9949  154.8007 H   0  0  0  0  0  0  0  0  0  0  0  0
  144.0097  133.9598  153.2105 H   0  0  0  0  0  0  0  0  0  0  0  0
  143.5010  135.9715  152.0850 H   0  0  0  0  0  0  0  0  0  0  0  0
  144.9930  136.6495  152.7153 H   0  0  0  0  0  0  0  0  0  0  0  0
  144.4857  135.3165  150.0601 H   0  0  0  0  0  0  0  0  0  0  0  0
  145.6718  136.5721  150.4333 H   0  0  0  0  0  0  0  0  0  0  0  0
  145.0312  132.8945  151.3212 H   0  0  0  0  0  0  0  0  0  0  0  0
  148.2676  132.1739  151.9186 H   0  0  0  0  0  0  0  0  0  0  0  0
  148.6750  132.8484  153.4916 H   0  0  0  0  0  0  0  0  0  0  0  0
  148.4399  133.9032  152.1086 H   0  0  0  0  0  0  0  0  0  0  0  0
  146.3156  130.9432  152.7506 H   0  0  0  0  0  0  0  0  0  0  0  0
  145.1210  131.7059  153.7837 H   0  0  0  0  0  0  0  0  0  0  0  0
  146.7555  131.4628  154.3737 H   0  0  0  0  0  0  0  0  0  0  0  0
  149.5825  139.2091  153.4689 H   0  0  0  0  0  0  0  0  0  0  0  0
  1  2  1  0  0  0  0
  1 23  1  0  0  0  0
  1 24  1  0  0  0  0
  1 25  1  0  0  0  0
  2  3  1  0  0  0  0
  2  4  1  0  0  0  0
  3 26  1  0  0  0  0
  3 27  1  0  0  0  0
  3 28  1  0  0  0  0
  4 22  1  0  0  0  0
  4  5  2  0  0  0  0
  5  6  1  0  0  0  0
  5 29  1  0  0  0  0
  6  7  2  0  0  0  0
  6 30  1  0  0  0  0
  7  8  1  0  0  0  0
  7 21  1  0  0  0  0
  8  9  1  0  0  0  0
  8 31  1  0  0  0  0
  9 10  2  0  0  0  0
  9 11  1  0  0  0  0
 11 12  1  0  0  0  0
 11 32  1  0  0  0  0
 12 18  1  0  0  0  0
 12 13  1  0  0  0  0
 12 33  1  0  0  0  0
 13 17  1  0  0  0  0
 13 14  1  0  0  0  0
 13 34  1  0  0  0  0
 14 15  1  0  0  0  0
 14 35  1  0  0  0  0
 14 36  1  0  0  0  0
 15 16  1  0  0  0  0
 15 37  1  0  0  0  0
 15 38  1  0  0  0  0
 16 17  1  0  0  0  0
 17 18  1  0  0  0  0
 17 39  1  0  0  0  0
 18 19  1  0  0  0  0
 18 20  1  0  0  0  0
 19 40  1  0  0  0  0
 19 41  1  0  0  0  0
 19 42  1  0  0  0  0
 20 43  1  0  0  0  0
 20 44  1  0  0  0  0
 20 45  1  0  0  0  0
 21 22  2  0  0  0  0
 21 46  1  0  0  0  0
M  END
> <s_m_source_file>
AV-unprocessed.smi

> <i_m_source_file_index>
2923

> <i_lp_mmshare_version>
43012

> <i_f3d_flags>
0

> <s_epik_input>
W0NIM11OKFtDSDNdKWMxW2NIXVtjSF1jKFtjSF1uMSlbTkhdQyg9TylbTkhdW0NASF0yQyhbQ0gzXSkoW0NIM10pW0NAQEhdKFtDQEhdMjMpT1tDSDJdW0NIMl0z

> <s_epik_cmdline>
J2VwaWtfcHl0aG9uJywgJy1waCcsICc3LjAnLCAnLXRuJywgJzgnLCAnLW1hJywgJzIwMCcsICctbWV0YWxfYmluZGluZycsICctaW1hZScsICc8aW5maWxlLm1hZT4nLCAnLW9tYWUnLCAnPG91dGZpbGUubWFlPic=

> <r_lp_tautomer_probability>
1

> <r_epik_Ionization_Penalty>
0.628785

> <r_epik_Ionization_Penalty_Charging>
0

> <r_epik_Ionization_Penalty_Neutral>
0.628785

> <r_epik_State_Penalty>
0.644286

> <r_epik_Charging_Adjusted_Penalty>
0.644286

> <i_epik_Tot_Q>
0

> <i_epik_Tot_abs_Q>
0

> <r_epik_Metal_State_Penalty>
0.308404

> <b_epik_Metal_Only>
0

> <s_lp_Force_Field>
OPLS_2005

> <r_lp_Energy>
44.9089

> <b_lp_Chiralities_Consistent>
1

> <s_lp_Variant>
AV-unprocessed.smi:2923-12

> <Gold.Version>
5.8.1

> <Gold.Id.Protein>
6NUR|6NUR_protein|mol2

> <Gold.PLP.Fitness>
32.3940

> <Gold.PLP.PLP>
-24.4355

> <Gold.PLP.part.hbond>
-2.0000

> <Gold.PLP.part.metal>
0.0000

> <Gold.PLP.part.buried>
-4.8019

> <Gold.PLP.part.nonpolar>
-17.5973

> <Gold.PLP.part.repulsive>
0.4351

> <Gold.PLP.ligand.clash>
0.0000

> <Gold.PLP.ligand.torsion>
0.7187

> <Gold.PLP.Chemscore.Hbond>
2.0000

> <Gold.PLP.Chemscore.CHOScore>
1.0000

> <Gold.PLP.Chemscore.Metal>
0.0000

> <Gold.Chemscore.Hbonds>
donor molecule, donor type, donor heavy atom, donor atom, acceptor molecule, acceptor atom, score
      L1  H     8    31       P1  7948  1.00
      L1  H    11    32       P1  7948  1.00
      L1  C    21    46       P1  7957  1.00

> <Gold.PLP.Chemscore.Internal.Correction>
0.3960

> <Gold.Rescore>
     Score         DG    S(hbond)    S(metal)    S(lipo)     H(rot)  DE(clash)    DE(int)     intcor
     13.77     -15.69       1.98        0.00      56.83       1.19       0.05       1.88       ----

> <Gold.Chemscore.Fitness>
13.7675

> <Gold.Chemscore.DG>
-15.6944

> <Gold.Chemscore.ZeroCoef>
-5.4800

> <Gold.Chemscore.Hbond>
1.9823

> <Gold.Chemscore.Metal>
0.0000

> <Gold.Chemscore.Lipo>
56.8334

> <Gold.Chemscore.Internal_Hbond>
0.0000

> <Gold.Chemscore.DEClash>
0.0497

> <Gold.Chemscore.DEInternal>
1.8772

> <Gold.Chemscore.Rot>
1.1937

> <Gold.Chemscore.Internal.Correction>
   9.000000E+99

> <Gold.Chemscore.Hbonds>
donor molecule, donor type, donor heavy atom, donor atom, acceptor molecule, acceptor atom, score
      L1  H     8    31       P1  7948  0.98
      L1  H    11    32       P1  7948  0.99

> <Gold.Chemscore.Hbond.Weighted>
-6.6208

> <Gold.Chemscore.Metal.Weighted>
-0.0000

> <Gold.Chemscore.Lipo.Weighted>
-6.6495

> <Gold.Chemscore.Internal_Hbond.Weighted>
0.0000

> <Gold.Chemscore.DEClash.Weighted>
0.0497

> <Gold.Chemscore.DEInternal.Weighted>
1.8772

> <Gold.Chemscore.Rot.Weighted>
3.0559

> <Gold.Chemscore.Internal.Correction.Weighted>
   9.000000E+99

> <Gold.Protein.RotatedTorsions>
[ 6907 6896 6895 6894 ] final  158.25 input  -60.11 | X-H torsion
[ 7974 7965 7964 7962 ] final  -94.55 input  175.53 | X-H torsion
[ 8008 7997 7996 7995 ] final  -39.32 input   59.86 | X-H torsion
[ 10167 10162 10161 10158 ] final   93.31 input  -65.29 | X-H torsion
[ 10718 10713 10712 10709 ] final  145.34 input   66.30 | X-H torsion
[ 10763 10752 10751 10750 ] final -125.46 input  -60.55 | X-H torsion
[ 11005 11000 10999 10996 ] final  -86.76 input  -57.11 | X-H torsion

> <Gold.Protein.ActiveResidues>
 VAL166  LYS551  ARG553  GLY616  TRP617  ASP618  TYR619  PRO620  LYS621  CYS622 
 ASP623  PHE694  ASN695  SER759  ASP760  ASP761  ALA762  ILE779  LEU786  VAL792 
 PHE793  MET794  SER795  GLU796  ALA797  LYS798  CYS799  TRP800  GLU811  SER814 

> <Gold.Protein.RotatedAtoms>
  152.0032  133.3833  159.4189 H   0  0  0  0  0  0  0  0  0  0  0  0  # atno 6907 bound_to 6896
  150.6907  134.3811  159.5043 H   0  0  0  0  0  0  0  0  0  0  0  0  # atno 6908 bound_to 6896
  152.1561  134.8949  160.0595 H   0  0  0  0  0  0  0  0  0  0  0  0  # atno 6909 bound_to 6896
  145.3718  140.9506  143.2443 H   0  0  0  0  0  0  0  0  0  0  0  0  # atno 7974 bound_to 7965
  154.4024  140.1554  156.2845 H   0  0  0  0  0  0  0  0  0  0  0  0  # atno 8008 bound_to 7997
  155.8840  140.3442  155.5886 H   0  0  0  0  0  0  0  0  0  0  0  0  # atno 8009 bound_to 7997
  155.7634  140.0820  157.2134 H   0  0  0  0  0  0  0  0  0  0  0  0  # atno 8010 bound_to 7997
  139.8192  144.6739  150.9540 H   0  0  0  0  0  0  0  0  0  0  0  0  # atno 10167 bound_to 10162
  157.3464  131.0944  151.1038 H   0  0  0  0  0  0  0  0  0  0  0  0  # atno 10718 bound_to 10713
  154.8736  135.4029  154.3271 H   0  0  0  0  0  0  0  0  0  0  0  0  # atno 10763 bound_to 10752
  153.4091  135.7020  153.6377 H   0  0  0  0  0  0  0  0  0  0  0  0  # atno 10764 bound_to 10752
  153.5088  135.3712  155.2547 H   0  0  0  0  0  0  0  0  0  0  0  0  # atno 10765 bound_to 10752
  141.1626  133.7473  156.9209 H   0  0  0  0  0  0  0  0  0  0  0  0  # atno 11005 bound_to 11000
  144.8571  139.5233  143.6829 LP  0  0  0  0  0  0  0  0  0  0  0  0  # atno 17320 bound_to 7965
  146.2882  139.7064  142.9180 LP  0  0  0  0  0  0  0  0  0  0  0  0  # atno 17321 bound_to 7965
  140.7814  143.4108  151.0995 LP  0  0  0  0  0  0  0  0  0  0  0  0  # atno 17342 bound_to 10162
  139.7770  143.8411  152.3131 LP  0  0  0  0  0  0  0  0  0  0  0  0  # atno 17343 bound_to 10162
  157.2230  130.6490  149.5818 LP  0  0  0  0  0  0  0  0  0  0  0  0  # atno 17370 bound_to 10713
  155.9715  130.4623  150.6141 LP  0  0  0  0  0  0  0  0  0  0  0  0  # atno 17371 bound_to 10713
  140.1452  134.9267  157.2520 LP  0  0  0  0  0  0  0  0  0  0  0  0  # atno 17394 bound_to 11000
  140.2788  134.3374  155.7349 LP  0  0  0  0  0  0  0  0  0  0  0  0  # atno 17395 bound_to 11000

$$$$
