AV-unprocessed.smi:212|AV-procd|sdf|1617|dock1
  -GOLD-   2262019543D 1   1.00000     0.00000
 Structure written by MMmdl.
 65 68  0  0  0  0  0  0  0  0  2 V2000
  150.6097  133.1686  155.5820 C   0  0  0  0  0  0  0  0  0  0  0  0
  149.1348  133.5322  155.3230 C   0  0  2  0  0  0  0  0  0  0  0  0
  148.7655  133.4631  153.8270 C   0  0  0  0  0  0  0  0  0  0  0  0
  147.3230  133.7521  153.6238 N   0  3  2  0  0  0  0  0  0  0  0  0
  146.8820  133.5774  152.2143 C   0  0  0  0  0  0  0  0  0  0  0  0
  145.6488  132.6524  152.0886 C   0  0  0  0  0  0  0  0  0  0  0  0
  145.1305  132.6558  150.6408 C   0  0  0  0  0  0  0  0  0  0  0  0
  145.9490  131.2121  152.5434 C   0  0  0  0  0  0  0  0  0  0  0  0
  144.6035  133.1641  152.8914 O   0  0  0  0  0  0  0  0  0  0  0  0
  146.9211  135.0583  154.2072 C   0  0  0  0  0  0  0  0  0  0  0  0
  147.3235  135.1600  155.6927 C   0  0  0  0  0  0  0  0  0  0  0  0
  148.7261  134.8130  155.9091 N   0  0  0  0  0  0  0  0  0  0  0  0
  149.5928  135.8504  155.8301 C   0  0  0  0  0  0  0  0  0  0  0  0
  150.3231  136.0503  154.7025 N   0  0  0  0  0  0  0  0  0  0  0  0
  151.1854  137.0696  154.6376 C   0  0  0  0  0  0  0  0  0  0  0  0
  151.4664  137.9861  155.5668 N   0  0  0  0  0  0  0  0  0  0  0  0
  150.7340  137.7843  156.6999 C   0  0  0  0  0  0  0  0  0  0  0  0
  149.7816  136.7493  156.9119 C   0  0  0  0  0  0  0  0  0  0  0  0
  149.2336  136.8557  158.1833 N   0  0  0  0  0  0  0  0  0  0  0  0
  149.8292  137.8978  158.6967 C   0  0  0  0  0  0  0  0  0  0  0  0
  150.7413  138.5186  157.8729 N   0  0  0  0  0  0  0  0  0  0  0  0
  151.5437  139.6861  158.1960 C   0  0  0  0  0  0  0  0  0  0  0  0
  150.8998  141.0198  157.7406 C   0  0  2  0  0  0  0  0  0  0  0  0
  151.3231  141.3743  156.2915 C   0  0  0  0  0  0  0  0  0  0  0  0
  150.7918  140.4652  155.3508 O   0  0  0  0  0  0  0  0  0  0  0  0
  151.2374  142.1565  158.7453 C   0  0  2  0  0  0  0  0  0  0  0  0
  150.9073  143.5596  158.2614 C   0  0  0  0  0  0  0  0  0  0  0  0
  151.7304  144.4343  159.2001 C   0  0  0  0  0  0  0  0  0  0  0  0
  152.8886  143.6728  159.5178 O   0  0  0  0  0  0  0  0  0  0  0  0
  152.7260  142.3311  159.0695 C   0  0  0  0  0  0  0  0  0  0  0  0
  150.8278  132.1607  155.2287 H   0  0  0  0  0  0  0  0  0  0  0  0
  150.8407  133.1976  156.6473 H   0  0  0  0  0  0  0  0  0  0  0  0
  151.2934  133.8474  155.0709 H   0  0  0  0  0  0  0  0  0  0  0  0
  148.5394  132.7760  155.8367 H   0  0  0  0  0  0  0  0  0  0  0  0
  149.3660  134.1644  153.2458 H   0  0  0  0  0  0  0  0  0  0  0  0
  148.9876  132.4653  153.4462 H   0  0  0  0  0  0  0  0  0  0  0  0
  146.6801  134.5487  151.7595 H   0  0  0  0  0  0  0  0  0  0  0  0
  147.6939  133.1480  151.6249 H   0  0  0  0  0  0  0  0  0  0  0  0
  145.8828  132.2707  149.9519 H   0  0  0  0  0  0  0  0  0  0  0  0
  144.8699  133.6627  150.3124 H   0  0  0  0  0  0  0  0  0  0  0  0
  144.2401  132.0351  150.5331 H   0  0  0  0  0  0  0  0  0  0  0  0
  146.7580  130.7755  151.9564 H   0  0  0  0  0  0  0  0  0  0  0  0
  145.0755  130.5693  152.4265 H   0  0  0  0  0  0  0  0  0  0  0  0
  146.2431  131.1692  153.5923 H   0  0  0  0  0  0  0  0  0  0  0  0
  144.2516  132.4589  153.4141 H   0  0  0  0  0  0  0  0  0  0  0  0
  147.3794  135.8646  153.6339 H   0  0  0  0  0  0  0  0  0  0  0  0
  145.8430  135.1902  154.1154 H   0  0  0  0  0  0  0  0  0  0  0  0
  147.1170  136.1619  156.0720 H   0  0  0  0  0  0  0  0  0  0  0  0
  146.7134  134.4765  156.2844 H   0  0  0  0  0  0  0  0  0  0  0  0
  151.7295  137.1635  153.7094 H   0  0  0  0  0  0  0  0  0  0  0  0
  149.6174  138.2467  159.6972 H   0  0  0  0  0  0  0  0  0  0  0  0
  151.6944  139.6752  159.2750 H   0  0  0  0  0  0  0  0  0  0  0  0
  152.5306  139.5727  157.7457 H   0  0  0  0  0  0  0  0  0  0  0  0
  149.8186  140.8710  157.7475 H   0  0  0  0  0  0  0  0  0  0  0  0
  151.0147  142.3885  156.0353 H   0  0  0  0  0  0  0  0  0  0  0  0
  152.4044  141.3373  156.1680 H   0  0  0  0  0  0  0  0  0  0  0  0
  150.8218  139.5964  155.7217 H   0  0  0  0  0  0  0  0  0  0  0  0
  150.6991  141.9833  159.6786 H   0  0  0  0  0  0  0  0  0  0  0  0
  151.2427  143.6965  157.2321 H   0  0  0  0  0  0  0  0  0  0  0  0
  149.8441  143.7965  158.3098 H   0  0  0  0  0  0  0  0  0  0  0  0
  151.9926  145.3937  158.7539 H   0  0  0  0  0  0  0  0  0  0  0  0
  151.1792  144.6275  160.1212 H   0  0  0  0  0  0  0  0  0  0  0  0
  153.0744  141.6275  159.8258 H   0  0  0  0  0  0  0  0  0  0  0  0
  153.3353  142.1963  158.1746 H   0  0  0  0  0  0  0  0  0  0  0  0
  146.8291  133.0470  154.1520 H   0  0  0  0  0  0  0  0  0  0  0  0
  1  2  1  0  0  0  0
  1 31  1  0  0  0  0
  1 32  1  0  0  0  0
  1 33  1  0  0  0  0
  2 12  1  0  0  0  0
  2  3  1  0  0  0  0
  2 34  1  0  0  0  0
  3  4  1  0  0  0  0
  3 35  1  0  0  0  0
  3 36  1  0  0  0  0
  4  5  1  0  0  0  0
  4 10  1  0  0  0  0
  4 65  1  0  0  0  0
  5  6  1  0  0  0  0
  5 37  1  0  0  0  0
  5 38  1  0  0  0  0
  6  7  1  0  0  0  0
  6  8  1  0  0  0  0
  6  9  1  0  0  0  0
  7 39  1  0  0  0  0
  7 40  1  0  0  0  0
  7 41  1  0  0  0  0
  8 42  1  0  0  0  0
  8 43  1  0  0  0  0
  8 44  1  0  0  0  0
  9 45  1  0  0  0  0
 10 11  1  0  0  0  0
 10 46  1  0  0  0  0
 10 47  1  0  0  0  0
 11 12  1  0  0  0  0
 11 48  1  0  0  0  0
 11 49  1  0  0  0  0
 12 13  1  0  0  0  0
 13 18  1  0  0  0  0
 13 14  2  0  0  0  0
 14 15  1  0  0  0  0
 15 16  2  0  0  0  0
 15 50  1  0  0  0  0
 16 17  1  0  0  0  0
 17 21  1  0  0  0  0
 17 18  2  0  0  0  0
 18 19  1  0  0  0  0
 19 20  2  0  0  0  0
 20 21  1  0  0  0  0
 20 51  1  0  0  0  0
 21 22  1  0  0  0  0
 22 23  1  0  0  0  0
 22 52  1  0  0  0  0
 22 53  1  0  0  0  0
 23 24  1  0  0  0  0
 23 26  1  0  0  0  0
 23 54  1  0  0  0  0
 24 25  1  0  0  0  0
 24 55  1  0  0  0  0
 24 56  1  0  0  0  0
 25 57  1  0  0  0  0
 26 30  1  0  0  0  0
 26 27  1  0  0  0  0
 26 58  1  0  0  0  0
 27 28  1  0  0  0  0
 27 59  1  0  0  0  0
 27 60  1  0  0  0  0
 28 29  1  0  0  0  0
 28 61  1  0  0  0  0
 28 62  1  0  0  0  0
 29 30  1  0  0  0  0
 30 63  1  0  0  0  0
 30 64  1  0  0  0  0
M  CHG  1   4   1
M  END
> <s_m_source_file>
AV-unprocessed.smi

> <i_m_source_file_index>
212

> <i_lp_mmshare_version>
43012

> <i_f3d_flags>
0

> <s_epik_input>
W0NIM11bQ0BASF0xW0NIMl1OKFtDSDJdQyhbQ0gzXSkoW0NIM10pW09IXSlbQ0gyXVtDSDJdTjFjKG5bY0hdbjIpYyhjMjMpbltjSF1uM1tDSDJdW0NASF0oW0NIMl1bT0hdKVtDQEBIXTRbQ0gyXVtDSDJdT1tDSDJdNA==

> <s_epik_cmdline>
J2VwaWtfcHl0aG9uJywgJy1waCcsICc3LjAnLCAnLXRuJywgJzgnLCAnLW1hJywgJzIwMCcsICctbWV0YWxfYmluZGluZycsICctaW1hZScsICc8aW5maWxlLm1hZT4nLCAnLW9tYWUnLCAnPG91dGZpbGUubWFlPic=

> <r_lp_tautomer_probability>
1

> <r_epik_Ionization_Penalty>
0.00182193

> <r_epik_Ionization_Penalty_Charging>
0.00173996

> <r_epik_Ionization_Penalty_Neutral>
8.19718e-05

> <r_epik_State_Penalty>
-0

> <r_epik_Charging_Adjusted_Penalty>
0.00173996

> <i_epik_Tot_Q>
1

> <i_epik_Tot_abs_Q>
1

> <r_epik_Metal_State_Penalty>
-0

> <b_epik_Metal_Only>
0

> <s_lp_Force_Field>
OPLS_2005

> <r_lp_Energy>
60.482

> <b_lp_Chiralities_Consistent>
1

> <s_lp_Variant>
AV-unprocessed.smi:212-1

> <Gold.Version>
5.8.1

> <Gold.Id.Protein>
6NUR|6NUR_protein|mol2

> <Gold.PLP.Fitness>
46.5872

> <Gold.PLP.PLP>
-40.6174

> <Gold.PLP.part.hbond>
-2.0000

> <Gold.PLP.part.metal>
0.0000

> <Gold.PLP.part.buried>
-9.2982

> <Gold.PLP.part.nonpolar>
-31.4522

> <Gold.PLP.part.repulsive>
0.8018

> <Gold.PLP.ligand.clash>
0.0000

> <Gold.PLP.ligand.torsion>
2.2147

> <Gold.PLP.Chemscore.Hbond>
1.9746

> <Gold.PLP.Chemscore.CHOScore>
0.9807

> <Gold.PLP.Chemscore.Metal>
0.0000

> <Gold.Chemscore.Hbonds>
donor molecule, donor type, donor heavy atom, donor atom, acceptor molecule, acceptor atom, score
      L1  H     9    45       P1 10957  0.53
      P1  H  7989  7998       L1    25  0.89
      L1  C    15    50       P1  7949  0.84

> <Gold.PLP.Chemscore.Internal.Correction>
1.5332

> <Gold.Rescore>
     Score         DG    S(hbond)    S(metal)    S(lipo)     H(rot)  DE(clash)    DE(int)     intcor
      8.52     -10.84       0.81        0.00     103.32       3.68       0.03       2.28       ----

> <Gold.Chemscore.Fitness>
8.5237

> <Gold.Chemscore.DG>
-10.8393

> <Gold.Chemscore.ZeroCoef>
-5.4800

> <Gold.Chemscore.Hbond>
0.8069

> <Gold.Chemscore.Metal>
0.0000

> <Gold.Chemscore.Lipo>
103.3188

> <Gold.Chemscore.Internal_Hbond>
0.0000

> <Gold.Chemscore.DEClash>
0.0348

> <Gold.Chemscore.DEInternal>
2.2807

> <Gold.Chemscore.Rot>
3.6812

> <Gold.Chemscore.Internal.Correction>
   9.000000E+99

> <Gold.Chemscore.Hbonds>
donor molecule, donor type, donor heavy atom, donor atom, acceptor molecule, acceptor atom, score
      L1  H     9    45       P1 10957  0.10
      P1  H  7989  7998       L1    25  0.53

> <Gold.Chemscore.Hbond.Weighted>
-2.6949

> <Gold.Chemscore.Metal.Weighted>
-0.0000

> <Gold.Chemscore.Lipo.Weighted>
-12.0883

> <Gold.Chemscore.Internal_Hbond.Weighted>
0.0000

> <Gold.Chemscore.DEClash.Weighted>
0.0348

> <Gold.Chemscore.DEInternal.Weighted>
2.2807

> <Gold.Chemscore.Rot.Weighted>
9.4239

> <Gold.Chemscore.Internal.Correction.Weighted>
   9.000000E+99

> <Gold.Protein.RotatedTorsions>
[ 6907 6896 6895 6894 ] final  -47.25 input  -60.11 | X-H torsion
[ 7974 7965 7964 7962 ] final   86.15 input  175.53 | X-H torsion
[ 8008 7997 7996 7995 ] final -177.78 input   59.86 | X-H torsion
[ 10167 10162 10161 10158 ] final   -1.09 input  -65.29 | X-H torsion
[ 10718 10713 10712 10709 ] final  156.24 input   66.30 | X-H torsion
[ 10763 10752 10751 10750 ] final   61.92 input  -60.55 | X-H torsion
[ 11005 11000 10999 10996 ] final    3.38 input  -57.11 | X-H torsion

> <Gold.Protein.ActiveResidues>
 VAL166  LYS551  ARG553  GLY616  TRP617  ASP618  TYR619  PRO620  LYS621  CYS622 
 ASP623  PHE694  ASN695  SER759  ASP760  ASP761  ALA762  ILE779  LEU786  VAL792 
 PHE793  MET794  SER795  GLU796  ALA797  LYS798  CYS799  TRP800  GLU811  SER814 

> <Gold.Protein.RotatedAtoms>
  150.9028  134.8441  159.7371 H   0  0  0  0  0  0  0  0  0  0  0  0  # atno 6907 bound_to 6896
  152.4901  134.4477  159.9574 H   0  0  0  0  0  0  0  0  0  0  0  0  # atno 6908 bound_to 6896
  151.4527  133.3574  159.2833 H   0  0  0  0  0  0  0  0  0  0  0  0  # atno 6909 bound_to 6896
  145.5760  139.2319  143.2379 H   0  0  0  0  0  0  0  0  0  0  0  0  # atno 7974 bound_to 7965
  156.0110  140.1240  157.0453 H   0  0  0  0  0  0  0  0  0  0  0  0  # atno 8008 bound_to 7997
  154.4276  140.1087  156.5899 H   0  0  0  0  0  0  0  0  0  0  0  0  # atno 8009 bound_to 7997
  155.6079  140.3471  155.4615 H   0  0  0  0  0  0  0  0  0  0  0  0  # atno 8010 bound_to 7997
  140.6795  143.6817  150.8100 H   0  0  0  0  0  0  0  0  0  0  0  0  # atno 10167 bound_to 10162
  157.2076  131.0690  151.1989 H   0  0  0  0  0  0  0  0  0  0  0  0  # atno 10718 bound_to 10713
  152.9966  135.5483  154.6110 H   0  0  0  0  0  0  0  0  0  0  0  0  # atno 10763 bound_to 10752
  154.5431  135.2821  155.1079 H   0  0  0  0  0  0  0  0  0  0  0  0  # atno 10764 bound_to 10752
  154.2349  135.6427  153.5240 H   0  0  0  0  0  0  0  0  0  0  0  0  # atno 10765 bound_to 10752
  140.5937  133.9900  155.8100 H   0  0  0  0  0  0  0  0  0  0  0  0  # atno 11005 bound_to 11000
  146.1750  140.6587  142.9215 LP  0  0  0  0  0  0  0  0  0  0  0  0  # atno 17320 bound_to 7965
  144.7415  140.4956  143.6865 LP  0  0  0  0  0  0  0  0  0  0  0  0  # atno 17321 bound_to 7965
  140.0515  143.5245  152.2671 LP  0  0  0  0  0  0  0  0  0  0  0  0  # atno 17342 bound_to 10162
  139.6108  144.7608  151.2955 LP  0  0  0  0  0  0  0  0  0  0  0  0  # atno 17343 bound_to 10162
  157.3705  130.7178  149.6562 LP  0  0  0  0  0  0  0  0  0  0  0  0  # atno 17370 bound_to 10713
  155.9694  130.4200  150.4402 LP  0  0  0  0  0  0  0  0  0  0  0  0  # atno 17371 bound_to 10713
  141.0918  133.9905  157.3225 LP  0  0  0  0  0  0  0  0  0  0  0  0  # atno 17394 bound_to 11000
  139.9263  135.0201  156.8244 LP  0  0  0  0  0  0  0  0  0  0  0  0  # atno 17395 bound_to 11000

$$$$
