AV-unprocessed.smi:157|AV-procd|sdf|1322|dock3
  -GOLD-   2262019 13D 1   1.00000     0.00000
 Structure written by MMmdl.
 36 38  0  0  0  0  0  0  0  0  2 V2000
  153.4775  136.4113  159.9485 O   0  0  0  0  0  0  0  0  0  0  0  0
  153.2542  137.7765  159.6678 C   0  0  0  0  0  0  0  0  0  0  0  0
  152.8671  137.9600  158.1924 C   0  0  2  0  0  0  0  0  0  0  0  0
  152.8295  139.3573  157.9076 O   0  0  0  0  0  0  0  0  0  0  0  0
  151.8080  139.5811  156.9958 C   0  0  2  0  0  0  0  0  0  0  0  0
  151.3842  141.0112  157.0716 N   0  0  0  0  0  0  0  0  0  0  0  0
  150.4775  141.6286  156.2848 C   0  0  0  0  0  0  0  0  0  0  0  0
  150.2943  142.9077  156.5663 N   0  3  0  0  0  0  0  0  0  0  0  0
  151.1382  143.2023  157.6162 C   0  0  0  0  0  0  0  0  0  0  0  0
  151.8004  142.0102  157.9204 C   0  0  0  0  0  0  0  0  0  0  0  0
  152.7682  141.7422  158.9007 N   0  0  0  0  0  0  0  0  0  0  0  0
  153.0111  142.5402  159.8890 C   0  0  0  0  0  0  0  0  0  0  0  0
  152.4843  143.7939  160.1517 N   0  0  0  0  0  0  0  0  0  0  0  0
  152.3520  144.8310  159.1439 C   0  0  0  0  0  0  0  0  0  0  0  0
  151.1956  144.5940  158.1637 C   0  0  2  0  0  0  0  0  0  0  0  0
  149.9881  144.9840  158.7849 O   0  0  0  0  0  0  0  0  0  0  0  0
  150.6818  138.6579  157.4307 C   0  0  0  0  0  0  0  0  0  0  0  0
  151.4620  137.4198  157.8401 C   0  0  1  0  0  0  0  0  0  0  0  0
  151.5425  136.5183  156.7538 O   0  0  0  0  0  0  0  0  0  0  0  0
  153.6292  137.5126  157.5510 H   0  0  0  0  0  0  0  0  0  0  0  0
  152.1477  139.4173  155.9716 H   0  0  0  0  0  0  0  0  0  0  0  0
  151.3332  145.2740  157.3222 H   0  0  0  0  0  0  0  0  0  0  0  0
  150.9820  136.9139  158.6786 H   0  0  0  0  0  0  0  0  0  0  0  0
  154.3822  136.2098  159.7636 H   0  0  0  0  0  0  0  0  0  0  0  0
  152.4779  138.1662  160.3272 H   0  0  0  0  0  0  0  0  0  0  0  0
  154.1707  138.3247  159.8871 H   0  0  0  0  0  0  0  0  0  0  0  0
  149.9513  141.1212  155.4960 H   0  0  0  0  0  0  0  0  0  0  0  0
  153.7307  142.2329  160.6493 H   0  0  0  0  0  0  0  0  0  0  0  0
  152.6142  144.1884  161.0725 H   0  0  0  0  0  0  0  0  0  0  0  0
  152.2542  145.8026  159.6294 H   0  0  0  0  0  0  0  0  0  0  0  0
  153.2885  144.8649  158.5850 H   0  0  0  0  0  0  0  0  0  0  0  0
  149.3783  145.2622  158.1192 H   0  0  0  0  0  0  0  0  0  0  0  0
  150.1760  139.0899  158.2957 H   0  0  0  0  0  0  0  0  0  0  0  0
  149.9567  138.5012  156.6309 H   0  0  0  0  0  0  0  0  0  0  0  0
  150.7297  136.0384  156.7013 H   0  0  0  0  0  0  0  0  0  0  0  0
  149.6636  143.5429  156.0938 H   0  0  0  0  0  0  0  0  0  0  0  0
  1  2  1  0  0  0  0
  1 24  1  0  0  0  0
  2  3  1  0  0  0  0
  2 25  1  0  0  0  0
  2 26  1  0  0  0  0
  3 20  1  0  0  0  0
  3 18  1  0  0  0  0
  3  4  1  0  0  0  0
  4  5  1  0  0  0  0
  5 21  1  0  0  0  0
  5  6  1  0  0  0  0
  5 17  1  0  0  0  0
  6 10  1  0  0  0  0
  6  7  1  0  0  0  0
  7  8  2  0  0  0  0
  7 27  1  0  0  0  0
  8  9  1  0  0  0  0
  8 36  1  0  0  0  0
  9 15  1  0  0  0  0
  9 10  2  0  0  0  0
 10 11  1  0  0  0  0
 11 12  2  0  0  0  0
 12 13  1  0  0  0  0
 12 28  1  0  0  0  0
 13 14  1  0  0  0  0
 13 29  1  0  0  0  0
 14 15  1  0  0  0  0
 14 30  1  0  0  0  0
 14 31  1  0  0  0  0
 15 22  1  0  0  0  0
 15 16  1  0  0  0  0
 16 32  1  0  0  0  0
 17 18  1  0  0  0  0
 17 33  1  0  0  0  0
 17 34  1  0  0  0  0
 18 23  1  0  0  0  0
 18 19  1  0  0  0  0
 19 35  1  0  0  0  0
M  CHG  1   8   1
M  END
> <s_m_source_file>
AV-unprocessed.smi

> <i_m_source_file_index>
157

> <i_lp_mmshare_version>
43012

> <i_f3d_flags>
0

> <s_epik_input>
W09IXVtDSDJdW0NASF0xT1tDQEhdKFtDSDJdW0NAQEhdMVtPSF0pbihbY0hdbjIpYyhjMjMpTj1bQ0hdW05IXVtDSDJdW0NASF0zW09IXQ==

> <s_epik_cmdline>
J2VwaWtfcHl0aG9uJywgJy1waCcsICc3LjAnLCAnLXRuJywgJzgnLCAnLW1hJywgJzIwMCcsICctbWV0YWxfYmluZGluZycsICctaW1hZScsICc8aW5maWxlLm1hZT4nLCAnLW9tYWUnLCAnPG91dGZpbGUubWFlPic=

> <r_epik_Ionization_Penalty>
1.68594

> <r_epik_Ionization_Penalty_Charging>
0

> <r_epik_Ionization_Penalty_Neutral>
1.68594

> <r_epik_State_Penalty>
1.79006

> <r_epik_Charging_Adjusted_Penalty>
1.79006

> <i_epik_Tot_Q>
1

> <i_epik_Tot_abs_Q>
1

> <r_epik_Metal_State_Penalty>
5.85324

> <b_epik_Metal_Only>
0

> <s_epik_Chemistry_Notes>
This compound has an imine and may undergo hydrolysis. This compound contains an acetal/aminal-like group ( X-CH(R)-Y where X, Y are N, S, or O) that may be acid/base labile, releasing an aldehyde.

> <s_lp_Force_Field>
OPLS_2005

> <r_lp_Energy>
53.7485

> <b_lp_Chiralities_Consistent>
1

> <s_lp_Variant>
AV-unprocessed.smi:157-32

> <Gold.Version>
5.8.1

> <Gold.Id.Protein>
6NUR|6NUR_protein|mol2

> <Gold.PLP.Fitness>
50.4906

> <Gold.PLP.PLP>
-32.7399

> <Gold.PLP.part.hbond>
-5.0906

> <Gold.PLP.part.metal>
0.0000

> <Gold.PLP.part.buried>
-6.7355

> <Gold.PLP.part.nonpolar>
-21.4826

> <Gold.PLP.part.repulsive>
0.1222

> <Gold.PLP.ligand.clash>
0.0000

> <Gold.PLP.ligand.torsion>
0.1371

> <Gold.PLP.Chemscore.Hbond>
6.0000

> <Gold.PLP.Chemscore.CHOScore>
0.0000

> <Gold.PLP.Chemscore.Metal>
0.0000

> <Gold.Chemscore.Hbonds>
donor molecule, donor type, donor heavy atom, donor atom, acceptor molecule, acceptor atom, score
      L1  H     8    36       P1  8028  1.72
      L1  H    16    32       P1  8029  1.00
      P1  H  6896  6907       L1     1  1.00
      P1  H  7997  8008       L1     4  0.88

> <Gold.PLP.Chemscore.Internal.Correction>
0.0250

> <Gold.Rescore>
     Score         DG    S(hbond)    S(metal)    S(lipo)     H(rot)  DE(clash)    DE(int)     intcor
     13.16     -15.02       3.91        0.00      50.22       3.67       0.10       1.77       ----

> <Gold.Chemscore.Fitness>
13.1565

> <Gold.Chemscore.DG>
-15.0201

> <Gold.Chemscore.ZeroCoef>
-5.4800

> <Gold.Chemscore.Hbond>
3.9071

> <Gold.Chemscore.Metal>
0.0000

> <Gold.Chemscore.Lipo>
50.2168

> <Gold.Chemscore.Internal_Hbond>
0.0000

> <Gold.Chemscore.DEClash>
0.0974

> <Gold.Chemscore.DEInternal>
1.7662

> <Gold.Chemscore.Rot>
3.6659

> <Gold.Chemscore.Internal.Correction>
   9.000000E+99

> <Gold.Chemscore.Hbonds>
donor molecule, donor type, donor heavy atom, donor atom, acceptor molecule, acceptor atom, score
      L1  H     8    36       P1  8028  0.84
      L1  H    16    32       P1  8029  0.45
      P1  H  6896  6907       L1     1  0.84
      P1  H  7997  8008       L1     4  0.44

> <Gold.Chemscore.Hbond.Weighted>
-13.0496

> <Gold.Chemscore.Metal.Weighted>
-0.0000

> <Gold.Chemscore.Lipo.Weighted>
-5.8754

> <Gold.Chemscore.Internal_Hbond.Weighted>
0.0000

> <Gold.Chemscore.DEClash.Weighted>
0.0974

> <Gold.Chemscore.DEInternal.Weighted>
1.7662

> <Gold.Chemscore.Rot.Weighted>
9.3848

> <Gold.Chemscore.Internal.Correction.Weighted>
   9.000000E+99

> <Gold.Protein.RotatedTorsions>
[ 6907 6896 6895 6894 ] final   51.07 input  -60.11 | X-H torsion
[ 7974 7965 7964 7962 ] final -103.96 input  175.53 | X-H torsion
[ 8008 7997 7996 7995 ] final  -85.31 input   59.86 | X-H torsion
[ 10167 10162 10161 10158 ] final  -51.86 input  -65.29 | X-H torsion
[ 10718 10713 10712 10709 ] final  142.62 input   66.30 | X-H torsion
[ 10763 10752 10751 10750 ] final  104.77 input  -60.55 | X-H torsion
[ 11005 11000 10999 10996 ] final  -71.12 input  -57.11 | X-H torsion

> <Gold.Protein.ActiveResidues>
 VAL166  LYS551  ARG553  GLY616  TRP617  ASP618  TYR619  PRO620  LYS621  CYS622 
 ASP623  PHE694  ASN695  SER759  ASP760  ASP761  ALA762  ILE779  LEU786  VAL792 
 PHE793  MET794  SER795  GLU796  ALA797  LYS798  CYS799  TRP800  GLU811  SER814 

> <Gold.Protein.RotatedAtoms>
  152.3086  134.7524  160.0341 H   0  0  0  0  0  0  0  0  0  0  0  0  # atno 6907 bound_to 6896
  151.8013  133.3365  159.3536 H   0  0  0  0  0  0  0  0  0  0  0  0  # atno 6908 bound_to 6896
  150.7309  134.5681  159.5921 H   0  0  0  0  0  0  0  0  0  0  0  0  # atno 6909 bound_to 6896
  145.2492  140.9232  143.3105 H   0  0  0  0  0  0  0  0  0  0  0  0  # atno 7974 bound_to 7965
  154.6393  140.0593  156.9827 H   0  0  0  0  0  0  0  0  0  0  0  0  # atno 8008 bound_to 7997
  155.1542  140.3277  155.4406 H   0  0  0  0  0  0  0  0  0  0  0  0  # atno 8009 bound_to 7997
  156.2523  140.1942  156.6652 H   0  0  0  0  0  0  0  0  0  0  0  0  # atno 8010 bound_to 7997
  140.6567  143.2604  151.4565 H   0  0  0  0  0  0  0  0  0  0  0  0  # atno 10167 bound_to 10162
  157.3785  131.0989  151.0761 H   0  0  0  0  0  0  0  0  0  0  0  0  # atno 10718 bound_to 10713
  153.3704  135.3932  155.1784 H   0  0  0  0  0  0  0  0  0  0  0  0  # atno 10763 bound_to 10752
  154.8693  135.3701  154.4985 H   0  0  0  0  0  0  0  0  0  0  0  0  # atno 10764 bound_to 10752
  153.5452  135.7084  153.5678 H   0  0  0  0  0  0  0  0  0  0  0  0  # atno 10765 bound_to 10752
  141.1587  133.6809  156.6858 H   0  0  0  0  0  0  0  0  0  0  0  0  # atno 11005 bound_to 11000
  144.9518  139.4074  143.6398 LP  0  0  0  0  0  0  0  0  0  0  0  0  # atno 17320 bound_to 7965
  146.3307  139.8529  142.8870 LP  0  0  0  0  0  0  0  0  0  0  0  0  # atno 17321 bound_to 7965
  139.5791  144.1751  152.1943 LP  0  0  0  0  0  0  0  0  0  0  0  0  # atno 17342 bound_to 10162
  140.1071  144.5489  150.6950 LP  0  0  0  0  0  0  0  0  0  0  0  0  # atno 17343 bound_to 10162
  157.1839  130.6322  149.5681 LP  0  0  0  0  0  0  0  0  0  0  0  0  # atno 17370 bound_to 10713
  155.9770  130.4744  150.6568 LP  0  0  0  0  0  0  0  0  0  0  0  0  # atno 17371 bound_to 10713
  140.3068  134.8119  157.4143 LP  0  0  0  0  0  0  0  0  0  0  0  0  # atno 17394 bound_to 11000
  140.1213  134.5215  155.8181 LP  0  0  0  0  0  0  0  0  0  0  0  0  # atno 17395 bound_to 11000

$$$$
