AV-unprocessed.smi:512|AV-procd|sdf|2771|dock8
  -GOLD-   2262023243D 1   1.00000     0.00000
 Structure written by MMmdl.
 47 49  0  0  0  0  0  0  0  0  2 V2000
  149.6113  138.9033  154.9803 C   0  0  0  0  0  0  0  0  0  0  0  0
  150.6726  138.8072  156.0786 C   0  0  0  0  0  0  0  0  0  0  0  0
  150.2409  139.5578  157.2006 O   0  0  0  0  0  0  0  0  0  0  0  0
  150.9515  139.2330  158.3835 C   0  0  0  0  0  0  0  0  0  0  0  0
  152.3411  139.8872  158.3173 C   0  0  0  0  0  0  0  0  0  0  0  0
  153.1378  139.6242  159.5130 N   0  0  0  0  0  0  0  0  0  0  0  0
  153.6152  140.5051  160.4404 C   0  0  0  0  0  0  0  0  0  0  0  0
  153.4222  141.8916  160.3697 N   0  0  0  0  0  0  0  0  0  0  0  0
  153.3818  142.7683  161.5398 C   0  0  0  0  0  0  0  0  0  0  0  0
  152.1356  143.6750  161.5122 C   0  0  0  0  0  0  0  0  0  0  0  0
  152.1795  144.5278  160.3254 N   0  0  0  0  0  0  0  0  0  0  0  0
  151.0000  145.3801  160.2896 C   0  0  0  0  0  0  0  0  0  0  0  0
  152.2037  143.6709  159.1413 C   0  0  0  0  0  0  0  0  0  0  0  0
  153.4506  142.7662  159.1964 C   0  0  0  0  0  0  0  0  0  0  0  0
  154.2595  139.9293  161.4588 N   0  0  0  0  0  0  0  0  0  0  0  0
  154.2075  138.5804  161.1517 C   0  0  0  0  0  0  0  0  0  0  0  0
  153.5319  138.3685  159.9918 C   0  0  0  0  0  0  0  0  0  0  0  0
  153.2837  137.0240  159.4224 C   0  0  0  0  0  0  0  0  0  0  0  0
  152.6442  136.8811  158.3825 O   0  0  0  0  0  0  0  0  0  0  0  0
  153.8370  136.0280  160.1844 N   0  5  0  0  0  0  0  0  0  0  0  0
  154.5349  136.2002  161.3601 C   0  0  0  0  0  0  0  0  0  0  0  0
  155.0027  135.2470  161.9845 O   0  0  0  0  0  0  0  0  0  0  0  0
  154.7223  137.4613  161.8612 N   0  0  0  0  0  0  0  0  0  0  0  0
  155.4533  137.6748  163.1135 C   0  0  0  0  0  0  0  0  0  0  0  0
  149.9122  138.3392  154.0973 H   0  0  0  0  0  0  0  0  0  0  0  0
  149.4529  139.9390  154.6790 H   0  0  0  0  0  0  0  0  0  0  0  0
  148.6569  138.5037  155.3238 H   0  0  0  0  0  0  0  0  0  0  0  0
  150.8238  137.7636  156.3583 H   0  0  0  0  0  0  0  0  0  0  0  0
  151.6248  139.1932  155.7114 H   0  0  0  0  0  0  0  0  0  0  0  0
  150.4013  139.5867  159.2555 H   0  0  0  0  0  0  0  0  0  0  0  0
  151.0338  138.1506  158.4822 H   0  0  0  0  0  0  0  0  0  0  0  0
  152.8835  139.5558  157.4350 H   0  0  0  0  0  0  0  0  0  0  0  0
  152.2439  140.9651  158.1903 H   0  0  0  0  0  0  0  0  0  0  0  0
  153.3623  142.1686  162.4501 H   0  0  0  0  0  0  0  0  0  0  0  0
  154.2932  143.3665  161.5842 H   0  0  0  0  0  0  0  0  0  0  0  0
  151.2267  143.0706  161.5176 H   0  0  0  0  0  0  0  0  0  0  0  0
  152.1146  144.2985  162.4067 H   0  0  0  0  0  0  0  0  0  0  0  0
  151.0198  146.0211  159.4077 H   0  0  0  0  0  0  0  0  0  0  0  0
  150.9676  146.0246  161.1688 H   0  0  0  0  0  0  0  0  0  0  0  0
  150.0823  144.7907  160.2636 H   0  0  0  0  0  0  0  0  0  0  0  0
  151.2940  143.0711  159.0830 H   0  0  0  0  0  0  0  0  0  0  0  0
  152.2393  144.2915  158.2453 H   0  0  0  0  0  0  0  0  0  0  0  0
  154.3523  143.3792  159.2326 H   0  0  0  0  0  0  0  0  0  0  0  0
  153.5327  142.1895  158.2809 H   0  0  0  0  0  0  0  0  0  0  0  0
  154.9850  137.1232  163.9296 H   0  0  0  0  0  0  0  0  0  0  0  0
  155.4846  138.7230  163.4095 H   0  0  0  0  0  0  0  0  0  0  0  0
  156.4837  137.3313  163.0153 H   0  0  0  0  0  0  0  0  0  0  0  0
  1  2  1  0  0  0  0
  1 25  1  0  0  0  0
  1 26  1  0  0  0  0
  1 27  1  0  0  0  0
  2  3  1  0  0  0  0
  2 28  1  0  0  0  0
  2 29  1  0  0  0  0
  3  4  1  0  0  0  0
  4  5  1  0  0  0  0
  4 30  1  0  0  0  0
  4 31  1  0  0  0  0
  5  6  1  0  0  0  0
  5 32  1  0  0  0  0
  5 33  1  0  0  0  0
  6 17  1  0  0  0  0
  6  7  1  0  0  0  0
  7  8  1  0  0  0  0
  7 15  2  0  0  0  0
  8 14  1  0  0  0  0
  8  9  1  0  0  0  0
  9 10  1  0  0  0  0
  9 34  1  0  0  0  0
  9 35  1  0  0  0  0
 10 11  1  0  0  0  0
 10 36  1  0  0  0  0
 10 37  1  0  0  0  0
 11 12  1  0  0  0  0
 11 13  1  0  0  0  0
 12 38  1  0  0  0  0
 12 39  1  0  0  0  0
 12 40  1  0  0  0  0
 13 14  1  0  0  0  0
 13 41  1  0  0  0  0
 13 42  1  0  0  0  0
 14 43  1  0  0  0  0
 14 44  1  0  0  0  0
 15 16  1  0  0  0  0
 16 23  1  0  0  0  0
 16 17  2  0  0  0  0
 17 18  1  0  0  0  0
 18 19  2  0  0  0  0
 18 20  1  0  0  0  0
 20 21  1  0  0  0  0
 21 22  2  0  0  0  0
 21 23  1  0  0  0  0
 23 24  1  0  0  0  0
 24 45  1  0  0  0  0
 24 46  1  0  0  0  0
 24 47  1  0  0  0  0
M  CHG  1  20  -1
M  END
> <s_m_source_file>
AV-unprocessed.smi

> <i_m_source_file_index>
512

> <i_lp_mmshare_version>
43012

> <i_f3d_flags>
0

> <s_epik_input>
W0NIM11uMWMoPU8pW25IXWMoPU8pYyhjMTIpbihbQ0gyXVtDSDJdT1tDSDJdW0NIM10pYyhuMilOM1tDSDJdW0NIMl1OKFtDSDNdKVtDSDJdW0NIMl0z

> <s_epik_cmdline>
J2VwaWtfcHl0aG9uJywgJy1waCcsICc3LjAnLCAnLXRuJywgJzgnLCAnLW1hJywgJzIwMCcsICctbWV0YWxfYmluZGluZycsICctaW1hZScsICc8aW5maWxlLm1hZT4nLCAnLW9tYWUnLCAnPG91dGZpbGUubWFlPic=

> <r_epik_Ionization_Penalty>
7.67022

> <r_epik_Ionization_Penalty_Charging>
0.0776929

> <r_epik_Ionization_Penalty_Neutral>
7.59253

> <r_epik_State_Penalty>
7.66971

> <r_epik_Charging_Adjusted_Penalty>
7.7474

> <i_epik_Tot_Q>
-1

> <i_epik_Tot_abs_Q>
1

> <r_epik_Metal_State_Penalty>
3.61867

> <b_epik_Metal_Only>
1

> <s_lp_Force_Field>
OPLS_2005

> <r_lp_Energy>
53.7442

> <b_lp_Chiralities_Consistent>
1

> <s_lp_Variant>
AV-unprocessed.smi:512-4

> <Gold.Version>
5.8.1

> <Gold.Id.Protein>
6NUR|6NUR_protein|mol2

> <Gold.PLP.Fitness>
50.2697

> <Gold.PLP.PLP>
-45.3360

> <Gold.PLP.part.hbond>
-1.0000

> <Gold.PLP.part.metal>
0.0000

> <Gold.PLP.part.buried>
-4.9891

> <Gold.PLP.part.nonpolar>
-38.8821

> <Gold.PLP.part.repulsive>
0.0643

> <Gold.PLP.ligand.clash>
0.0000

> <Gold.PLP.ligand.torsion>
0.5781

> <Gold.PLP.Chemscore.Hbond>
2.0000

> <Gold.PLP.Chemscore.CHOScore>
0.0000

> <Gold.PLP.Chemscore.Metal>
0.0000

> <Gold.Chemscore.Hbonds>
donor molecule, donor type, donor heavy atom, donor atom, acceptor molecule, acceptor atom, score
      P1  H  6896  6907       L1    20  1.60

> <Gold.PLP.Chemscore.Internal.Correction>
0.0900

> <Gold.Rescore>
     Score         DG    S(hbond)    S(metal)    S(lipo)     H(rot)  DE(clash)    DE(int)     intcor
     13.10     -13.66       0.36        0.00      94.78       1.61       0.09       0.48       ----

> <Gold.Chemscore.Fitness>
13.0960

> <Gold.Chemscore.DG>
-13.6607

> <Gold.Chemscore.ZeroCoef>
-5.4800

> <Gold.Chemscore.Hbond>
0.3605

> <Gold.Chemscore.Metal>
0.0000

> <Gold.Chemscore.Lipo>
94.7768

> <Gold.Chemscore.Internal_Hbond>
0.0000

> <Gold.Chemscore.DEClash>
0.0868

> <Gold.Chemscore.DEInternal>
0.4779

> <Gold.Chemscore.Rot>
1.6064

> <Gold.Chemscore.Internal.Correction>
   9.000000E+99

> <Gold.Chemscore.Hbonds>
donor molecule, donor type, donor heavy atom, donor atom, acceptor molecule, acceptor atom, score
      P1  H  6896  6907       L1    20  0.12

> <Gold.Chemscore.Hbond.Weighted>
-1.2042

> <Gold.Chemscore.Metal.Weighted>
-0.0000

> <Gold.Chemscore.Lipo.Weighted>
-11.0889

> <Gold.Chemscore.Internal_Hbond.Weighted>
0.0000

> <Gold.Chemscore.DEClash.Weighted>
0.0868

> <Gold.Chemscore.DEInternal.Weighted>
0.4779

> <Gold.Chemscore.Rot.Weighted>
4.1123

> <Gold.Chemscore.Internal.Correction.Weighted>
   9.000000E+99

> <Gold.Protein.RotatedTorsions>
[ 6907 6896 6895 6894 ] final   50.10 input  -60.11 | X-H torsion
[ 7974 7965 7964 7962 ] final   -1.04 input  175.53 | X-H torsion
[ 8008 7997 7996 7995 ] final   36.82 input   59.86 | X-H torsion
[ 10167 10162 10161 10158 ] final  120.71 input  -65.29 | X-H torsion
[ 10718 10713 10712 10709 ] final -110.05 input   66.30 | X-H torsion
[ 10763 10752 10751 10750 ] final -124.83 input  -60.55 | X-H torsion
[ 11005 11000 10999 10996 ] final  165.86 input  -57.11 | X-H torsion

> <Gold.Protein.ActiveResidues>
 VAL166  LYS551  ARG553  GLY616  TRP617  ASP618  TYR619  PRO620  LYS621  CYS622 
 ASP623  PHE694  ASN695  SER759  ASP760  ASP761  ALA762  ILE779  LEU786  VAL792 
 PHE793  MET794  SER795  GLU796  ALA797  LYS798  CYS799  TRP800  GLU811  SER814 

> <Gold.Protein.RotatedAtoms>
  152.2981  134.7643  160.0363 H   0  0  0  0  0  0  0  0  0  0  0  0  # atno 6907 bound_to 6896
  151.8166  133.3383  159.3579 H   0  0  0  0  0  0  0  0  0  0  0  0  # atno 6908 bound_to 6896
  150.7261  134.5543  159.5854 H   0  0  0  0  0  0  0  0  0  0  0  0  # atno 6909 bound_to 6896
  146.2421  140.1360  142.8336 H   0  0  0  0  0  0  0  0  0  0  0  0  # atno 7974 bound_to 7965
  155.1936  140.3310  155.4354 H   0  0  0  0  0  0  0  0  0  0  0  0  # atno 8008 bound_to 7997
  156.2433  140.1906  156.6977 H   0  0  0  0  0  0  0  0  0  0  0  0  # atno 8009 bound_to 7997
  154.6189  140.0598  156.9575 H   0  0  0  0  0  0  0  0  0  0  0  0  # atno 8010 bound_to 7997
  139.5965  144.7043  151.3164 H   0  0  0  0  0  0  0  0  0  0  0  0  # atno 10167 bound_to 10162
  156.0570  130.5795  150.8184 H   0  0  0  0  0  0  0  0  0  0  0  0  # atno 10718 bound_to 10713
  154.8728  135.4050  154.3170 H   0  0  0  0  0  0  0  0  0  0  0  0  # atno 10763 bound_to 10752
  153.4004  135.7018  153.6435 H   0  0  0  0  0  0  0  0  0  0  0  0  # atno 10764 bound_to 10752
  153.5180  135.3693  155.2589 H   0  0  0  0  0  0  0  0  0  0  0  0  # atno 10765 bound_to 10752
  140.2605  134.7906  157.3585 H   0  0  0  0  0  0  0  0  0  0  0  0  # atno 11005 bound_to 11000
  145.0286  140.8853  143.5123 LP  0  0  0  0  0  0  0  0  0  0  0  0  # atno 17320 bound_to 7965
  145.1420  139.2566  143.5485 LP  0  0  0  0  0  0  0  0  0  0  0  0  # atno 17321 bound_to 7965
  140.7216  143.7120  150.7762 LP  0  0  0  0  0  0  0  0  0  0  0  0  # atno 17342 bound_to 10162
  140.0687  143.5082  152.2591 LP  0  0  0  0  0  0  0  0  0  0  0  0  # atno 17343 bound_to 10162
  157.5547  131.0944  150.9645 LP  0  0  0  0  0  0  0  0  0  0  0  0  # atno 17370 bound_to 10713
  156.9896  130.5558  149.5302 LP  0  0  0  0  0  0  0  0  0  0  0  0  # atno 17371 bound_to 10713
  140.1470  134.4899  155.7989 LP  0  0  0  0  0  0  0  0  0  0  0  0  # atno 17394 bound_to 11000
  141.2191  133.6847  156.7311 LP  0  0  0  0  0  0  0  0  0  0  0  0  # atno 17395 bound_to 11000

$$$$
