AV-unprocessed.smi:2865|AV-procd|sdf|11018|dock10
  -GOLD-   2272015483D 1   1.00000     0.00000
 Structure written by MMmdl.
 38 41  0  0  0  0  0  0  0  0  1 V2000
  141.4927  136.1526  153.3909 O   0  0  0  0  0  0  0  0  0  0  0  0
  142.1033  137.1998  153.1909 C   0  0  0  0  0  0  0  0  0  0  0  0
  143.2955  137.2882  152.5690 N   0  0  0  0  0  0  0  0  0  0  0  0
  144.1259  136.2430  152.0825 C   0  0  0  0  0  0  0  0  0  0  0  0
  143.7274  134.9059  152.2910 C   0  0  0  0  0  0  0  0  0  0  0  0
  144.4571  133.8619  151.8425 N   0  0  0  0  0  0  0  0  0  0  0  0
  145.5860  134.1518  151.1902 C   0  0  0  0  0  0  0  0  0  0  0  0
  146.3723  132.9938  150.6588 C   0  0  0  0  0  0  0  0  0  0  0  0
  145.8037  132.1014  149.5744 C   0  0  0  0  0  0  0  0  0  0  0  0
  145.9630  131.5689  150.9712 C   0  0  0  0  0  0  0  0  0  0  0  0
  146.0532  135.3719  150.9124 N   0  0  0  0  0  0  0  0  0  0  0  0
  145.3307  136.4223  151.3584 C   0  0  0  0  0  0  0  0  0  0  0  0
  141.5913  138.3846  153.5670 N   0  0  0  0  0  0  0  0  0  0  0  0
  140.3266  138.6417  154.2579 C   0  0  1  0  0  0  0  0  0  0  0  0
  139.1055  138.1374  153.4775 C   0  0  0  0  0  0  0  0  0  0  0  0
  138.4762  137.1545  154.4739 C   0  0  2  0  0  0  0  0  0  0  0  0
  137.8626  137.8712  155.6858 C   0  0  0  0  0  0  0  0  0  0  0  0
  139.1077  138.3108  156.4565 C   0  0  0  0  0  0  0  0  0  0  0  0
  140.2319  137.8031  155.5439 C   0  0  1  0  0  0  0  0  0  0  0  0
  139.6440  136.6072  155.0585 O   0  0  0  0  0  0  0  0  0  0  0  0
  143.6381  138.2237  152.4058 H   0  0  0  0  0  0  0  0  0  0  0  0
  142.8158  134.6688  152.8199 H   0  0  0  0  0  0  0  0  0  0  0  0
  147.4362  133.2213  150.6248 H   0  0  0  0  0  0  0  0  0  0  0  0
  144.7915  132.3024  149.2283 H   0  0  0  0  0  0  0  0  0  0  0  0
  146.4914  131.7345  148.8153 H   0  0  0  0  0  0  0  0  0  0  0  0
  146.7573  130.8461  151.1464 H   0  0  0  0  0  0  0  0  0  0  0  0
  145.0570  131.4158  151.5545 H   0  0  0  0  0  0  0  0  0  0  0  0
  145.7250  137.3934  151.1054 H   0  0  0  0  0  0  0  0  0  0  0  0
  142.1290  139.2041  153.3234 H   0  0  0  0  0  0  0  0  0  0  0  0
  140.2456  139.7033  154.4983 H   0  0  0  0  0  0  0  0  0  0  0  0
  138.4223  138.9407  153.1998 H   0  0  0  0  0  0  0  0  0  0  0  0
  139.3988  137.6143  152.5662 H   0  0  0  0  0  0  0  0  0  0  0  0
  137.8167  136.4189  154.0129 H   0  0  0  0  0  0  0  0  0  0  0  0
  137.2266  138.7076  155.3940 H   0  0  0  0  0  0  0  0  0  0  0  0
  137.2672  137.1814  156.2851 H   0  0  0  0  0  0  0  0  0  0  0  0
  139.1516  139.3886  156.6159 H   0  0  0  0  0  0  0  0  0  0  0  0
  139.1482  137.8197  157.4293 H   0  0  0  0  0  0  0  0  0  0  0  0
  141.1815  137.6607  156.0611 H   0  0  0  0  0  0  0  0  0  0  0  0
  1  2  2  0  0  0  0
  2  3  1  0  0  0  0
  2 13  1  0  0  0  0
  3  4  1  0  0  0  0
  3 21  1  0  0  0  0
  4 12  1  0  0  0  0
  4  5  2  0  0  0  0
  5  6  1  0  0  0  0
  5 22  1  0  0  0  0
  6  7  2  0  0  0  0
  7  8  1  0  0  0  0
  7 11  1  0  0  0  0
  8 10  1  0  0  0  0
  8  9  1  0  0  0  0
  8 23  1  0  0  0  0
  9 10  1  0  0  0  0
  9 24  1  0  0  0  0
  9 25  1  0  0  0  0
 10 26  1  0  0  0  0
 10 27  1  0  0  0  0
 11 12  2  0  0  0  0
 12 28  1  0  0  0  0
 13 14  1  0  0  0  0
 13 29  1  0  0  0  0
 14 19  1  0  0  0  0
 14 15  1  0  0  0  0
 14 30  1  0  0  0  0
 15 16  1  0  0  0  0
 15 31  1  0  0  0  0
 15 32  1  0  0  0  0
 16 20  1  0  0  0  0
 16 17  1  0  0  0  0
 16 33  1  0  0  0  0
 17 18  1  0  0  0  0
 17 34  1  0  0  0  0
 17 35  1  0  0  0  0
 18 19  1  0  0  0  0
 18 36  1  0  0  0  0
 18 37  1  0  0  0  0
 19 20  1  0  0  0  0
 19 38  1  0  0  0  0
M  END
> <s_m_source_file>
AV-unprocessed.smi

> <i_m_source_file_index>
2865

> <i_lp_mmshare_version>
43012

> <i_f3d_flags>
0

> <s_epik_input>
W0NIMl0xW0NIMl1bQ0BIXShPMilbQ0BASF0oW0NIMl1bQ0BASF0xMilbTkhdQyg9TylbTkhdYzNbY0hdbmMobltjSF0zKVtDSF00W0NIMl1bQ0gyXTQ=

> <s_epik_cmdline>
J2VwaWtfcHl0aG9uJywgJy1waCcsICc3LjAnLCAnLXRuJywgJzgnLCAnLW1hJywgJzIwMCcsICctbWV0YWxfYmluZGluZycsICctaW1hZScsICc8aW5maWxlLm1hZT4nLCAnLW9tYWUnLCAnPG91dGZpbGUubWFlPic=

> <r_lp_tautomer_probability>
1

> <r_epik_Ionization_Penalty>
2.43104e-05

> <r_epik_Ionization_Penalty_Charging>
0

> <r_epik_Ionization_Penalty_Neutral>
2.43104e-05

> <r_epik_State_Penalty>
-0

> <r_epik_Charging_Adjusted_Penalty>
0

> <i_epik_Tot_Q>
0

> <i_epik_Tot_abs_Q>
0

> <r_epik_Metal_State_Penalty>
-0

> <b_epik_Metal_Only>
0

> <s_lp_Force_Field>
OPLS_2005

> <r_lp_Energy>
45.9934

> <b_lp_Chiralities_Consistent>
1

> <s_lp_Variant>
AV-unprocessed.smi:2865-4

> <Gold.Version>
5.8.1

> <Gold.Id.Protein>
6NUR|6NUR_protein|mol2

> <Gold.PLP.Fitness>
39.2865

> <Gold.PLP.PLP>
-30.6792

> <Gold.PLP.part.hbond>
-3.2883

> <Gold.PLP.part.metal>
0.0000

> <Gold.PLP.part.buried>
-3.1556

> <Gold.PLP.part.nonpolar>
-24.3058

> <Gold.PLP.part.repulsive>
0.5924

> <Gold.PLP.ligand.clash>
0.0000

> <Gold.PLP.ligand.torsion>
0.0868

> <Gold.PLP.Chemscore.Hbond>
2.3400

> <Gold.PLP.Chemscore.CHOScore>
0.5380

> <Gold.PLP.Chemscore.Metal>
0.0000

> <Gold.Chemscore.Hbonds>
donor molecule, donor type, donor heavy atom, donor atom, acceptor molecule, acceptor atom, score
      L1  H     3    21       P1 10175  0.55
      L1  H    13    29       P1 10175  0.83
      P1  H 11000 11005       L1    20  0.86
      L1  C    12    28       P1 10171  0.49

> <Gold.PLP.Chemscore.Internal.Correction>
0.1467

> <Gold.Rescore>
     Score         DG    S(hbond)    S(metal)    S(lipo)     H(rot)  DE(clash)    DE(int)     intcor
     14.41     -18.99       2.37        0.00      74.22       1.20       0.24       4.33       ----

> <Gold.Chemscore.Fitness>
14.4148

> <Gold.Chemscore.DG>
-18.9901

> <Gold.Chemscore.ZeroCoef>
-5.4800

> <Gold.Chemscore.Hbond>
2.3658

> <Gold.Chemscore.Metal>
0.0000

> <Gold.Chemscore.Lipo>
74.2164

> <Gold.Chemscore.Internal_Hbond>
0.0000

> <Gold.Chemscore.DEClash>
0.2443

> <Gold.Chemscore.DEInternal>
4.3309

> <Gold.Chemscore.Rot>
1.2012

> <Gold.Chemscore.Internal.Correction>
   9.000000E+99

> <Gold.Chemscore.Hbonds>
donor molecule, donor type, donor heavy atom, donor atom, acceptor molecule, acceptor atom, score
      L1  H     3    21       P1 10175  0.56
      L1  H    13    29       P1 10175  0.81
      P1  H 11000 11005       L1    20  0.82

> <Gold.Chemscore.Hbond.Weighted>
-7.9019

> <Gold.Chemscore.Metal.Weighted>
-0.0000

> <Gold.Chemscore.Lipo.Weighted>
-8.6833

> <Gold.Chemscore.Internal_Hbond.Weighted>
0.0000

> <Gold.Chemscore.DEClash.Weighted>
0.2443

> <Gold.Chemscore.DEInternal.Weighted>
4.3309

> <Gold.Chemscore.Rot.Weighted>
3.0752

> <Gold.Chemscore.Internal.Correction.Weighted>
   9.000000E+99

> <Gold.Protein.RotatedTorsions>
[ 6907 6896 6895 6894 ] final   57.03 input  -60.11 | X-H torsion
[ 7974 7965 7964 7962 ] final   64.58 input  175.53 | X-H torsion
[ 8008 7997 7996 7995 ] final   -5.98 input   59.86 | X-H torsion
[ 10167 10162 10161 10158 ] final  102.01 input  -65.29 | X-H torsion
[ 10718 10713 10712 10709 ] final  -43.42 input   66.30 | X-H torsion
[ 10763 10752 10751 10750 ] final -159.77 input  -60.55 | X-H torsion
[ 11005 11000 10999 10996 ] final   76.84 input  -57.11 | X-H torsion

> <Gold.Protein.ActiveResidues>
 VAL166  LYS551  ARG553  GLY616  TRP617  ASP618  TYR619  PRO620  LYS621  CYS622 
 ASP623  PHE694  ASN695  SER759  ASP760  ASP761  ALA762  ILE779  LEU786  VAL792 
 PHE793  MET794  SER795  GLU796  ALA797  LYS798  CYS799  TRP800  GLU811  SER814 

> <Gold.Protein.RotatedAtoms>
  152.3693  134.6758  160.0181 H   0  0  0  0  0  0  0  0  0  0  0  0  # atno 6907 bound_to 6896
  151.7056  133.3306  159.3286 H   0  0  0  0  0  0  0  0  0  0  0  0  # atno 6908 bound_to 6896
  150.7661  134.6512  159.6333 H   0  0  0  0  0  0  0  0  0  0  0  0  # atno 6909 bound_to 6896
  145.8486  139.3239  143.0889 H   0  0  0  0  0  0  0  0  0  0  0  0  # atno 7974 bound_to 7965
  154.5984  140.2444  155.7826 H   0  0  0  0  0  0  0  0  0  0  0  0  # atno 8008 bound_to 7997
  156.2294  140.2971  156.0103 H   0  0  0  0  0  0  0  0  0  0  0  0  # atno 8009 bound_to 7997
  155.2253  140.0402  157.2945 H   0  0  0  0  0  0  0  0  0  0  0  0  # atno 8010 bound_to 7997
  139.7387  144.7017  151.0608 H   0  0  0  0  0  0  0  0  0  0  0  0  # atno 10167 bound_to 10162
  156.2491  130.4186  149.8670 H   0  0  0  0  0  0  0  0  0  0  0  0  # atno 10718 bound_to 10713
  154.7447  135.3077  154.8666 H   0  0  0  0  0  0  0  0  0  0  0  0  # atno 10763 bound_to 10752
  153.9471  135.6768  153.4748 H   0  0  0  0  0  0  0  0  0  0  0  0  # atno 10764 bound_to 10752
  153.1044  135.4896  154.8850 H   0  0  0  0  0  0  0  0  0  0  0  0  # atno 10765 bound_to 10752
  139.9281  134.7634  156.1446 H   0  0  0  0  0  0  0  0  0  0  0  0  # atno 11005 bound_to 11000
  145.9384  140.8998  143.0320 LP  0  0  0  0  0  0  0  0  0  0  0  0  # atno 17320 bound_to 7965
  144.6730  140.1514  143.7429 LP  0  0  0  0  0  0  0  0  0  0  0  0  # atno 17321 bound_to 7965
  140.7783  143.4951  150.9843 LP  0  0  0  0  0  0  0  0  0  0  0  0  # atno 17342 bound_to 10162
  139.8639  143.7278  152.3171 LP  0  0  0  0  0  0  0  0  0  0  0  0  # atno 17343 bound_to 10162
  156.6225  130.8632  151.3478 LP  0  0  0  0  0  0  0  0  0  0  0  0  # atno 17370 bound_to 10713
  157.7207  130.9555  150.1428 LP  0  0  0  0  0  0  0  0  0  0  0  0  # atno 17371 bound_to 10713
  141.0851  133.6737  156.2420 LP  0  0  0  0  0  0  0  0  0  0  0  0  # atno 17394 bound_to 11000
  140.6280  134.5293  157.5556 LP  0  0  0  0  0  0  0  0  0  0  0  0  # atno 17395 bound_to 11000

$$$$
