AV-unprocessed.smi:2510|AV-procd|sdf|9879|dock5
  -GOLD-   2272013513D 1   1.00000     0.00000
 Structure written by MMmdl.
 48 49  0  0  0  0  0  0  0  0  1 V2000
  147.2797  141.8561  154.0145 C   0  0  0  0  0  0  0  0  0  0  0  0
  148.6748  141.3762  154.4391 C   0  0  0  0  0  0  0  0  0  0  0  0
  148.7240  140.0006  155.1405 C   0  0  0  0  0  0  0  0  0  0  0  0
  147.5134  139.9187  156.1235 C   0  0  0  0  0  0  0  0  0  0  0  0
  147.4426  138.6674  157.0160 C   0  0  0  0  0  0  0  0  0  0  0  0
  148.9036  138.8049  154.1590 C   0  0  2  0  0  0  0  0  0  0  0  0
  147.6843  138.0658  153.8563 N   0  0  0  0  0  0  0  0  0  0  0  0
  146.6962  138.5189  153.0703 C   0  0  0  0  0  0  0  0  0  0  0  0
  146.7735  139.5547  152.4100 O   0  0  0  0  0  0  0  0  0  0  0  0
  145.4102  137.6929  153.0565 C   0  0  0  0  0  0  0  0  0  0  0  0
  145.6865  136.3118  152.5516 C   0  0  0  0  0  0  0  0  0  0  0  0
  145.1667  135.6159  151.4958 C   0  0  0  0  0  0  0  0  0  0  0  0
  145.8029  134.3421  151.5650 C   0  0  0  0  0  0  0  0  0  0  0  0
  145.6063  133.1589  150.6641 C   0  0  0  0  0  0  0  0  0  0  0  0
  146.6557  134.2569  152.5753 N   0  0  0  0  0  0  0  0  0  0  0  0
  146.5791  135.4632  153.1668 N   0  0  0  0  0  0  0  0  0  0  0  0
  149.7772  138.1168  155.2135 C   0  0  1  0  0  0  0  0  0  0  0  0
  150.8794  137.1602  154.7770 C   0  0  0  0  0  0  0  0  0  0  0  0
  150.1077  139.5441  155.6924 C   0  0  1  0  0  0  0  0  0  0  0  0
  151.1853  140.1294  154.9669 O   0  0  0  0  0  0  0  0  0  0  0  0
  152.4572  139.6538  155.3732 C   0  0  0  0  0  0  0  0  0  0  0  0
  147.1301  135.6878  153.9830 H   0  0  0  0  0  0  0  0  0  0  0  0
  147.3163  142.8986  153.6976 H   0  0  0  0  0  0  0  0  0  0  0  0
  146.5638  141.7862  154.8337 H   0  0  0  0  0  0  0  0  0  0  0  0
  146.8977  141.2822  153.1714 H   0  0  0  0  0  0  0  0  0  0  0  0
  149.3320  141.3832  153.5688 H   0  0  0  0  0  0  0  0  0  0  0  0
  149.0928  142.1367  155.0995 H   0  0  0  0  0  0  0  0  0  0  0  0
  147.4865  140.8004  156.7649 H   0  0  0  0  0  0  0  0  0  0  0  0
  146.5660  139.9509  155.5866 H   0  0  0  0  0  0  0  0  0  0  0  0
  146.6648  138.7851  157.7708 H   0  0  0  0  0  0  0  0  0  0  0  0
  148.3762  138.4666  157.5371 H   0  0  0  0  0  0  0  0  0  0  0  0
  147.1871  137.7807  156.4365 H   0  0  0  0  0  0  0  0  0  0  0  0
  149.4837  139.0653  153.2699 H   0  0  0  0  0  0  0  0  0  0  0  0
  147.5388  137.1995  154.3538 H   0  0  0  0  0  0  0  0  0  0  0  0
  144.9946  137.6441  154.0638 H   0  0  0  0  0  0  0  0  0  0  0  0
  144.6674  138.1909  152.4320 H   0  0  0  0  0  0  0  0  0  0  0  0
  144.4284  135.9614  150.7872 H   0  0  0  0  0  0  0  0  0  0  0  0
  144.9922  133.4190  149.8015 H   0  0  0  0  0  0  0  0  0  0  0  0
  145.1093  132.3445  151.1918 H   0  0  0  0  0  0  0  0  0  0  0  0
  146.5598  132.7837  150.2905 H   0  0  0  0  0  0  0  0  0  0  0  0
  149.1468  137.6358  155.9647 H   0  0  0  0  0  0  0  0  0  0  0  0
  151.5189  137.6051  154.0142 H   0  0  0  0  0  0  0  0  0  0  0  0
  150.4602  136.2452  154.3585 H   0  0  0  0  0  0  0  0  0  0  0  0
  151.5120  136.8771  155.6181 H   0  0  0  0  0  0  0  0  0  0  0  0
  150.2237  139.6422  156.7714 H   0  0  0  0  0  0  0  0  0  0  0  0
  153.2313  140.1072  154.7545 H   0  0  0  0  0  0  0  0  0  0  0  0
  152.5348  138.5714  155.2708 H   0  0  0  0  0  0  0  0  0  0  0  0
  152.6588  139.9206  156.4114 H   0  0  0  0  0  0  0  0  0  0  0  0
  1  2  1  0  0  0  0
  1 23  1  0  0  0  0
  1 24  1  0  0  0  0
  1 25  1  0  0  0  0
  2  3  1  0  0  0  0
  2 26  1  0  0  0  0
  2 27  1  0  0  0  0
  3 19  1  0  0  0  0
  3  4  1  0  0  0  0
  3  6  1  0  0  0  0
  4  5  1  0  0  0  0
  4 28  1  0  0  0  0
  4 29  1  0  0  0  0
  5 30  1  0  0  0  0
  5 31  1  0  0  0  0
  5 32  1  0  0  0  0
  6  7  1  0  0  0  0
  6 17  1  0  0  0  0
  6 33  1  0  0  0  0
  7  8  1  0  0  0  0
  7 34  1  0  0  0  0
  8  9  2  0  0  0  0
  8 10  1  0  0  0  0
 10 35  1  0  0  0  0
 10 36  1  0  0  0  0
 10 11  1  0  0  0  0
 11 16  1  0  0  0  0
 11 12  2  0  0  0  0
 12 13  1  0  0  0  0
 12 37  1  0  0  0  0
 13 14  1  0  0  0  0
 13 15  2  0  0  0  0
 14 38  1  0  0  0  0
 14 39  1  0  0  0  0
 14 40  1  0  0  0  0
 15 16  1  0  0  0  0
 16 22  1  0  0  0  0
 17 18  1  0  0  0  0
 17 19  1  0  0  0  0
 17 41  1  0  0  0  0
 18 42  1  0  0  0  0
 18 43  1  0  0  0  0
 18 44  1  0  0  0  0
 19 20  1  0  0  0  0
 19 45  1  0  0  0  0
 20 21  1  0  0  0  0
 21 46  1  0  0  0  0
 21 47  1  0  0  0  0
 21 48  1  0  0  0  0
M  END
> <s_m_source_file>
AV-unprocessed.smi

> <i_m_source_file_index>
2510

> <i_lp_mmshare_version>
43012

> <i_f3d_flags>
0

> <s_epik_input>
W0NIM11PW0NAQEhdMVtDQEhdKFtDSDNdKVtDQEBIXShDMShbQ0gyXVtDSDNdKVtDSDJdW0NIM10pW05IXUMoPU8pW0NIMl1jMltjSF1jKFtDSDNdKVtuSF1uMg==

> <s_epik_cmdline>
J2VwaWtfcHl0aG9uJywgJy1waCcsICc3LjAnLCAnLXRuJywgJzgnLCAnLW1hJywgJzIwMCcsICctbWV0YWxfYmluZGluZycsICctaW1hZScsICc8aW5maWxlLm1hZT4nLCAnLW9tYWUnLCAnPG91dGZpbGUubWFlPic=

> <r_lp_tautomer_probability>
0.5

> <r_epik_Ionization_Penalty>
0.000134763

> <r_epik_Ionization_Penalty_Charging>
0

> <r_epik_Ionization_Penalty_Neutral>
0.000134763

> <r_epik_State_Penalty>
0.41068

> <r_epik_Charging_Adjusted_Penalty>
0.41068

> <i_epik_Tot_Q>
0

> <i_epik_Tot_abs_Q>
0

> <r_epik_Metal_State_Penalty>
0.410661

> <b_epik_Metal_Only>
0

> <s_lp_Force_Field>
OPLS_2005

> <r_lp_Energy>
26.7648

> <b_lp_Chiralities_Consistent>
1

> <s_lp_Variant>
AV-unprocessed.smi:2510-10

> <Gold.Version>
5.8.1

> <Gold.Id.Protein>
6NUR|6NUR_protein|mol2

> <Gold.PLP.Fitness>
34.9826

> <Gold.PLP.PLP>
-32.4051

> <Gold.PLP.part.hbond>
-3.0000

> <Gold.PLP.part.metal>
0.0000

> <Gold.PLP.part.buried>
-4.6426

> <Gold.PLP.part.nonpolar>
-26.7115

> <Gold.PLP.part.repulsive>
1.4691

> <Gold.PLP.ligand.clash>
0.0000

> <Gold.PLP.ligand.torsion>
0.5569

> <Gold.PLP.Chemscore.Hbond>
1.0000

> <Gold.PLP.Chemscore.CHOScore>
0.0000

> <Gold.PLP.Chemscore.Metal>
0.0000

> <Gold.Chemscore.Hbonds>
donor molecule, donor type, donor heavy atom, donor atom, acceptor molecule, acceptor atom, score
      P1  H  7989  7998       L1    20  0.95

> <Gold.PLP.Chemscore.Internal.Correction>
0.6913

> <Gold.Rescore>
     Score         DG    S(hbond)    S(metal)    S(lipo)     H(rot)  DE(clash)    DE(int)     intcor
      9.50     -12.83       0.78        0.00      80.07       1.81       0.30       3.03       ----

> <Gold.Chemscore.Fitness>
9.4990

> <Gold.Chemscore.DG>
-12.8297

> <Gold.Chemscore.ZeroCoef>
-5.4800

> <Gold.Chemscore.Hbond>
0.7830

> <Gold.Chemscore.Metal>
0.0000

> <Gold.Chemscore.Lipo>
80.0733

> <Gold.Chemscore.Internal_Hbond>
0.0000

> <Gold.Chemscore.DEClash>
0.2984

> <Gold.Chemscore.DEInternal>
3.0323

> <Gold.Chemscore.Rot>
1.8102

> <Gold.Chemscore.Internal.Correction>
   9.000000E+99

> <Gold.Chemscore.Hbonds>
donor molecule, donor type, donor heavy atom, donor atom, acceptor molecule, acceptor atom, score
      P1  H  7989  7998       L1    20  0.21

> <Gold.Chemscore.Hbond.Weighted>
-2.6152

> <Gold.Chemscore.Metal.Weighted>
-0.0000

> <Gold.Chemscore.Lipo.Weighted>
-9.3686

> <Gold.Chemscore.Internal_Hbond.Weighted>
0.0000

> <Gold.Chemscore.DEClash.Weighted>
0.2984

> <Gold.Chemscore.DEInternal.Weighted>
3.0323

> <Gold.Chemscore.Rot.Weighted>
4.6341

> <Gold.Chemscore.Internal.Correction.Weighted>
   9.000000E+99

> <Gold.Protein.RotatedTorsions>
[ 6907 6896 6895 6894 ] final   71.49 input  -60.11 | X-H torsion
[ 7974 7965 7964 7962 ] final  -71.28 input  175.53 | X-H torsion
[ 8008 7997 7996 7995 ] final   62.15 input   59.86 | X-H torsion
[ 10167 10162 10161 10158 ] final  103.09 input  -65.29 | X-H torsion
[ 10718 10713 10712 10709 ] final  -86.63 input   66.30 | X-H torsion
[ 10763 10752 10751 10750 ] final  130.17 input  -60.55 | X-H torsion
[ 11005 11000 10999 10996 ] final -170.31 input  -57.11 | X-H torsion

> <Gold.Protein.ActiveResidues>
 VAL166  LYS551  ARG553  GLY616  TRP617  ASP618  TYR619  PRO620  LYS621  CYS622 
 ASP623  PHE694  ASN695  SER759  ASP760  ASP761  ALA762  ILE779  LEU786  VAL792 
 PHE793  MET794  SER795  GLU796  ALA797  LYS798  CYS799  TRP800  GLU811  SER814 

> <Gold.Protein.RotatedAtoms>
  152.4813  134.4712  159.9635 H   0  0  0  0  0  0  0  0  0  0  0  0  # atno 6907 bound_to 6896
  151.4718  133.3561  159.2832 H   0  0  0  0  0  0  0  0  0  0  0  0  # atno 6908 bound_to 6896
  150.8887  134.8314  159.7339 H   0  0  0  0  0  0  0  0  0  0  0  0  # atno 6909 bound_to 6896
  145.6801  140.9191  143.0837 H   0  0  0  0  0  0  0  0  0  0  0  0  # atno 7974 bound_to 7965
  155.6097  140.3495  155.4618 H   0  0  0  0  0  0  0  0  0  0  0  0  # atno 8008 bound_to 7997
  156.0164  140.1244  157.0426 H   0  0  0  0  0  0  0  0  0  0  0  0  # atno 8009 bound_to 7997
  154.4299  140.1071  156.5887 H   0  0  0  0  0  0  0  0  0  0  0  0  # atno 8010 bound_to 7997
  139.7293  144.7040  151.0748 H   0  0  0  0  0  0  0  0  0  0  0  0  # atno 10167 bound_to 10162
  155.9989  130.4772  150.4745 H   0  0  0  0  0  0  0  0  0  0  0  0  # atno 10718 bound_to 10713
  153.7536  135.3206  155.3325 H   0  0  0  0  0  0  0  0  0  0  0  0  # atno 10763 bound_to 10752
  154.8254  135.4573  154.0907 H   0  0  0  0  0  0  0  0  0  0  0  0  # atno 10764 bound_to 10752
  153.2117  135.6936  153.8189 H   0  0  0  0  0  0  0  0  0  0  0  0  # atno 10765 bound_to 10752
  140.5209  134.5710  157.5047 H   0  0  0  0  0  0  0  0  0  0  0  0  # atno 11005 bound_to 11000
  144.7029  139.8686  143.7439 LP  0  0  0  0  0  0  0  0  0  0  0  0  # atno 17320 bound_to 7965
  146.0971  139.3964  143.0370 LP  0  0  0  0  0  0  0  0  0  0  0  0  # atno 17321 bound_to 7965
  140.7768  143.5064  150.9707 LP  0  0  0  0  0  0  0  0  0  0  0  0  # atno 17342 bound_to 10162
  139.8752  143.7142  152.3162 LP  0  0  0  0  0  0  0  0  0  0  0  0  # atno 17343 bound_to 10162
  157.2756  131.0596  151.2231 LP  0  0  0  0  0  0  0  0  0  0  0  0  # atno 17370 bound_to 10713
  157.3296  130.6978  149.6316 LP  0  0  0  0  0  0  0  0  0  0  0  0  # atno 17371 bound_to 10713
  139.9606  134.7459  156.0245 LP  0  0  0  0  0  0  0  0  0  0  0  0  # atno 17394 bound_to 11000
  141.1334  133.6581  156.3528 LP  0  0  0  0  0  0  0  0  0  0  0  0  # atno 17395 bound_to 11000

$$$$
