AV-unprocessed.smi:611|AV-procd|sdf|3061|dock8
  -GOLD-   2262023583D 1   1.00000     0.00000
 Structure written by MMmdl.
 41 42  0  0  0  0  0  0  0  0  1 V2000
  135.0469  137.9146  154.0626 C   0  0  0  0  0  0  0  0  0  0  0  0
  135.7580  139.2885  154.0671 C   0  0  0  0  0  0  0  0  0  0  0  0
  135.0233  140.2523  153.1174 C   0  0  0  0  0  0  0  0  0  0  0  0
  135.6585  139.8160  155.5181 C   0  0  0  0  0  0  0  0  0  0  0  0
  137.2266  139.1529  153.6282 C   0  0  0  0  0  0  0  0  0  0  0  0
  137.9648  140.2709  153.6116 N   0  0  0  0  0  0  0  0  0  0  0  0
  139.2816  140.1532  153.3369 C   0  0  0  0  0  0  0  0  0  0  0  0
  139.8803  138.8925  153.1021 C   0  0  0  0  0  0  0  0  0  0  0  0
  141.2551  138.6760  152.8184 N   0  0  0  0  0  0  0  0  0  0  0  0
  141.9760  137.5472  152.9640 C   0  0  0  0  0  0  0  0  0  0  0  0
  141.5289  136.4785  153.3736 O   0  0  0  0  0  0  0  0  0  0  0  0
  143.2755  137.6791  152.6407 N   0  0  0  0  0  0  0  0  0  0  0  0
  144.3286  136.6610  152.6829 C   0  0  0  0  0  0  0  0  0  0  0  0
  145.6224  137.1905  152.0338 C   0  0  0  0  0  0  0  0  0  0  0  0
  146.0975  136.0964  151.0765 C   0  0  0  0  0  0  0  0  0  0  0  0
  144.8141  135.4038  150.6311 C   0  0  0  0  0  0  0  0  0  0  0  0
  143.9382  135.4000  151.8838 C   0  0  0  0  0  0  0  0  0  0  0  0
  139.0225  137.7795  153.2023 C   0  0  0  0  0  0  0  0  0  0  0  0
  137.7079  137.9119  153.4767 N   0  0  0  0  0  0  0  0  0  0  0  0
  134.0211  137.9967  154.4235 H   0  0  0  0  0  0  0  0  0  0  0  0
  135.5631  137.1983  154.7027 H   0  0  0  0  0  0  0  0  0  0  0  0
  134.9937  137.4847  153.0616 H   0  0  0  0  0  0  0  0  0  0  0  0
  135.0458  139.8894  152.0892 H   0  0  0  0  0  0  0  0  0  0  0  0
  135.4805  141.2424  153.1267 H   0  0  0  0  0  0  0  0  0  0  0  0
  133.9772  140.3705  153.4017 H   0  0  0  0  0  0  0  0  0  0  0  0
  134.6216  139.8667  155.8522 H   0  0  0  0  0  0  0  0  0  0  0  0
  136.0689  140.8216  155.6164 H   0  0  0  0  0  0  0  0  0  0  0  0
  136.1959  139.1700  156.2135 H   0  0  0  0  0  0  0  0  0  0  0  0
  139.8394  141.0764  153.3338 H   0  0  0  0  0  0  0  0  0  0  0  0
  141.7721  139.4937  152.5298 H   0  0  0  0  0  0  0  0  0  0  0  0
  143.5706  138.5981  152.3442 H   0  0  0  0  0  0  0  0  0  0  0  0
  144.5379  136.3884  153.7189 H   0  0  0  0  0  0  0  0  0  0  0  0
  145.4225  138.0975  151.4608 H   0  0  0  0  0  0  0  0  0  0  0  0
  146.3825  137.4406  152.7746 H   0  0  0  0  0  0  0  0  0  0  0  0
  146.6753  136.4911  150.2402 H   0  0  0  0  0  0  0  0  0  0  0  0
  146.7295  135.3871  151.6125 H   0  0  0  0  0  0  0  0  0  0  0  0
  144.3328  135.9904  149.8473 H   0  0  0  0  0  0  0  0  0  0  0  0
  144.9904  134.4020  150.2389 H   0  0  0  0  0  0  0  0  0  0  0  0
  144.1682  134.5153  152.4788 H   0  0  0  0  0  0  0  0  0  0  0  0
  142.8770  135.3499  151.6358 H   0  0  0  0  0  0  0  0  0  0  0  0
  139.3911  136.7735  153.0631 H   0  0  0  0  0  0  0  0  0  0  0  0
  1  2  1  0  0  0  0
  1 20  1  0  0  0  0
  1 21  1  0  0  0  0
  1 22  1  0  0  0  0
  2  3  1  0  0  0  0
  2  4  1  0  0  0  0
  2  5  1  0  0  0  0
  3 23  1  0  0  0  0
  3 24  1  0  0  0  0
  3 25  1  0  0  0  0
  4 26  1  0  0  0  0
  4 27  1  0  0  0  0
  4 28  1  0  0  0  0
  5 19  1  0  0  0  0
  5  6  2  0  0  0  0
  6  7  1  0  0  0  0
  7  8  2  0  0  0  0
  7 29  1  0  0  0  0
  8  9  1  0  0  0  0
  8 18  1  0  0  0  0
  9 10  1  0  0  0  0
  9 30  1  0  0  0  0
 10 11  2  0  0  0  0
 10 12  1  0  0  0  0
 12 13  1  0  0  0  0
 12 31  1  0  0  0  0
 13 17  1  0  0  0  0
 13 14  1  0  0  0  0
 13 32  1  0  0  0  0
 14 15  1  0  0  0  0
 14 33  1  0  0  0  0
 14 34  1  0  0  0  0
 15 16  1  0  0  0  0
 15 35  1  0  0  0  0
 15 36  1  0  0  0  0
 16 17  1  0  0  0  0
 16 37  1  0  0  0  0
 16 38  1  0  0  0  0
 17 39  1  0  0  0  0
 17 40  1  0  0  0  0
 18 19  2  0  0  0  0
 18 41  1  0  0  0  0
M  END
> <s_m_source_file>
AV-unprocessed.smi

> <i_m_source_file_index>
611

> <i_lp_mmshare_version>
43012

> <i_f3d_flags>
0

> <s_epik_input>
W0NIM11DKFtDSDNdKShbQ0gzXSljMW5bY0hdYyhbY0hdbjEpW05IXUMoPU8pW05IXVtDSF0yW0NIMl1bQ0gyXVtDSDJdW0NIMl0y

> <s_epik_cmdline>
J2VwaWtfcHl0aG9uJywgJy1waCcsICc3LjAnLCAnLXRuJywgJzgnLCAnLW1hJywgJzIwMCcsICctbWV0YWxfYmluZGluZycsICctaW1hZScsICc8aW5maWxlLm1hZT4nLCAnLW9tYWUnLCAnPG91dGZpbGUubWFlPic=

> <r_lp_tautomer_probability>
1

> <r_epik_Ionization_Penalty>
2.83035e-05

> <r_epik_Ionization_Penalty_Charging>
0

> <r_epik_Ionization_Penalty_Neutral>
2.83035e-05

> <r_epik_State_Penalty>
-0

> <r_epik_Charging_Adjusted_Penalty>
0

> <i_epik_Tot_Q>
0

> <i_epik_Tot_abs_Q>
0

> <r_epik_Metal_State_Penalty>
-0

> <b_epik_Metal_Only>
0

> <s_lp_Force_Field>
OPLS_2005

> <r_lp_Energy>
27.5905

> <b_lp_Chiralities_Consistent>
1

> <s_lp_Variant>
AV-unprocessed.smi:611-1

> <Gold.Version>
5.8.1

> <Gold.Id.Protein>
6NUR|6NUR_protein|mol2

> <Gold.PLP.Fitness>
35.2083

> <Gold.PLP.PLP>
-29.5973

> <Gold.PLP.part.hbond>
-3.8290

> <Gold.PLP.part.metal>
0.0000

> <Gold.PLP.part.buried>
-1.3227

> <Gold.PLP.part.nonpolar>
-24.4019

> <Gold.PLP.part.repulsive>
0.2742

> <Gold.PLP.ligand.clash>
0.0000

> <Gold.PLP.ligand.torsion>
0.2609

> <Gold.PLP.Chemscore.Hbond>
2.0000

> <Gold.PLP.Chemscore.CHOScore>
0.0000

> <Gold.PLP.Chemscore.Metal>
0.0000

> <Gold.Chemscore.Hbonds>
donor molecule, donor type, donor heavy atom, donor atom, acceptor molecule, acceptor atom, score
      L1  H     9    30       P1 10175  0.94
      L1  H    12    31       P1 10175  1.00
      L1  C     7    29       P1 10160  0.12
      L1  C    18    41       P1 10187  0.35

> <Gold.PLP.Chemscore.Internal.Correction>
0.1329

> <Gold.Rescore>
     Score         DG    S(hbond)    S(metal)    S(lipo)     H(rot)  DE(clash)    DE(int)     intcor
     13.88     -15.68       1.66        0.00      65.19       1.16       0.28       1.52       ----

> <Gold.Chemscore.Fitness>
13.8845

> <Gold.Chemscore.DG>
-15.6803

> <Gold.Chemscore.ZeroCoef>
-5.4800

> <Gold.Chemscore.Hbond>
1.6623

> <Gold.Chemscore.Metal>
0.0000

> <Gold.Chemscore.Lipo>
65.1907

> <Gold.Chemscore.Internal_Hbond>
0.0000

> <Gold.Chemscore.DEClash>
0.2793

> <Gold.Chemscore.DEInternal>
1.5165

> <Gold.Chemscore.Rot>
1.1637

> <Gold.Chemscore.Internal.Correction>
   9.000000E+99

> <Gold.Chemscore.Hbonds>
donor molecule, donor type, donor heavy atom, donor atom, acceptor molecule, acceptor atom, score
      L1  H     9    30       P1 10175  0.25
      L1  H    12    31       P1 10175  0.98

> <Gold.Chemscore.Hbond.Weighted>
-5.5520

> <Gold.Chemscore.Metal.Weighted>
-0.0000

> <Gold.Chemscore.Lipo.Weighted>
-7.6273

> <Gold.Chemscore.Internal_Hbond.Weighted>
0.0000

> <Gold.Chemscore.DEClash.Weighted>
0.2793

> <Gold.Chemscore.DEInternal.Weighted>
1.5165

> <Gold.Chemscore.Rot.Weighted>
2.9790

> <Gold.Chemscore.Internal.Correction.Weighted>
   9.000000E+99

> <Gold.Protein.RotatedTorsions>
[ 6907 6896 6895 6894 ] final -125.71 input  -60.11 | X-H torsion
[ 7974 7965 7964 7962 ] final  -21.97 input  175.53 | X-H torsion
[ 8008 7997 7996 7995 ] final  157.11 input   59.86 | X-H torsion
[ 10167 10162 10161 10158 ] final  -60.82 input  -65.29 | X-H torsion
[ 10718 10713 10712 10709 ] final  -95.55 input   66.30 | X-H torsion
[ 10763 10752 10751 10750 ] final  -29.62 input  -60.55 | X-H torsion
[ 11005 11000 10999 10996 ] final  116.46 input  -57.11 | X-H torsion

> <Gold.Protein.ActiveResidues>
 VAL166  LYS551  ARG553  GLY616  TRP617  ASP618  TYR619  PRO620  LYS621  CYS622 
 ASP623  PHE694  ASN695  SER759  ASP760  ASP761  ALA762  ILE779  LEU786  VAL792 
 PHE793  MET794  SER795  GLU796  ALA797  LYS798  CYS799  TRP800  GLU811  SER814 

> <Gold.Protein.RotatedAtoms>
  150.8895  133.7262  159.2908 H   0  0  0  0  0  0  0  0  0  0  0  0  # atno 6907 bound_to 6896
  151.4817  135.1051  159.9789 H   0  0  0  0  0  0  0  0  0  0  0  0  # atno 6908 bound_to 6896
  152.4811  133.8210  159.7109 H   0  0  0  0  0  0  0  0  0  0  0  0  # atno 6909 bound_to 6896
  146.1703  140.4414  142.8535 H   0  0  0  0  0  0  0  0  0  0  0  0  # atno 7974 bound_to 7965
  156.2383  140.1894  156.7058 H   0  0  0  0  0  0  0  0  0  0  0  0  # atno 8008 bound_to 7997
  154.6149  140.0616  156.9568 H   0  0  0  0  0  0  0  0  0  0  0  0  # atno 8009 bound_to 7997
  155.1956  140.3288  155.4354 H   0  0  0  0  0  0  0  0  0  0  0  0  # atno 8010 bound_to 7997
  140.6046  143.2370  151.5850 H   0  0  0  0  0  0  0  0  0  0  0  0  # atno 10167 bound_to 10162
  156.0045  130.5114  150.6093 H   0  0  0  0  0  0  0  0  0  0  0  0  # atno 10718 bound_to 10713
  153.7676  135.6914  153.4913 H   0  0  0  0  0  0  0  0  0  0  0  0  # atno 10763 bound_to 10752
  153.1896  135.4476  155.0131 H   0  0  0  0  0  0  0  0  0  0  0  0  # atno 10764 bound_to 10752
  154.8130  135.3386  154.7187 H   0  0  0  0  0  0  0  0  0  0  0  0  # atno 10765 bound_to 10752
  139.9042  134.9598  156.7201 H   0  0  0  0  0  0  0  0  0  0  0  0  # atno 11005 bound_to 11000
  144.8153  140.6456  143.6388 LP  0  0  0  0  0  0  0  0  0  0  0  0  # atno 17320 bound_to 7965
  145.4358  139.1542  143.3997 LP  0  0  0  0  0  0  0  0  0  0  0  0  # atno 17321 bound_to 7965
  139.5316  144.2900  152.1160 LP  0  0  0  0  0  0  0  0  0  0  0  0  # atno 17342 bound_to 10162
  140.2088  144.4584  150.6396 LP  0  0  0  0  0  0  0  0  0  0  0  0  # atno 17343 bound_to 10162
  157.3928  131.0798  151.1378 LP  0  0  0  0  0  0  0  0  0  0  0  0  # atno 17370 bound_to 10713
  157.2065  130.6418  149.5758 LP  0  0  0  0  0  0  0  0  0  0  0  0  # atno 17371 bound_to 10713
  140.7007  133.9309  155.8022 LP  0  0  0  0  0  0  0  0  0  0  0  0  # atno 17394 bound_to 11000
  141.0373  134.0671  157.3943 LP  0  0  0  0  0  0  0  0  0  0  0  0  # atno 17395 bound_to 11000

$$$$
