AV-unprocessed.smi:658|AV-procd|sdf|3230|dock4
  -GOLD-   22720 0173D 1   1.00000     0.00000
 Structure written by MMmdl.
 38 38  0  0  0  0  0  0  0  0  2 V2000
  151.3196  142.9783  157.3870 C   0  0  0  0  0  0  0  0  0  0  0  0
  150.7730  141.8862  156.4524 C   0  0  2  0  0  0  0  0  0  0  0  0
  149.3270  142.1343  156.2421 N   0  3  0  0  0  0  0  0  0  0  0  0
  148.4694  141.9007  157.4223 C   0  0  0  0  0  0  0  0  0  0  0  0
  147.0268  142.3378  157.1442 C   0  0  0  0  0  0  0  0  0  0  0  0
  146.0845  142.0304  158.3163 C   0  0  0  0  0  0  0  0  0  0  0  0
  146.1691  143.3361  159.6161 S   0  0  0  0  0  0  0  0  0  0  0  0
  147.5580  144.2310  159.1401 N   0  0  0  0  0  0  0  0  0  0  0  0
  145.0058  144.2266  159.4849 O   0  0  0  0  0  0  0  0  0  0  0  0
  146.4870  142.6951  160.9006 O   0  0  0  0  0  0  0  0  0  0  0  0
  151.0092  140.4543  157.0071 C   0  0  2  0  0  0  0  0  0  0  0  0
  152.3029  140.3207  157.8334 C   0  0  0  0  0  0  0  0  0  0  0  0
  151.0023  139.4621  155.9378 N   0  0  0  0  0  0  0  0  0  0  0  0
  151.1771  138.0942  156.0202 C   0  0  0  0  0  0  0  0  0  0  0  0
  151.1251  137.5978  154.7495 C   0  0  0  0  0  0  0  0  0  0  0  0
  150.9238  138.7522  153.9436 C   0  0  0  0  0  0  0  0  0  0  0  0
  150.8615  139.8659  154.6555 N   0  0  0  0  0  0  0  0  0  0  0  0
  152.4046  142.9290  157.4759 H   0  0  0  0  0  0  0  0  0  0  0  0
  150.8964  142.8942  158.3887 H   0  0  0  0  0  0  0  0  0  0  0  0
  151.0792  143.9723  157.0084 H   0  0  0  0  0  0  0  0  0  0  0  0
  151.2933  141.9866  155.4978 H   0  0  0  0  0  0  0  0  0  0  0  0
  149.2117  143.0911  155.9387 H   0  0  0  0  0  0  0  0  0  0  0  0
  148.4996  140.8414  157.6808 H   0  0  0  0  0  0  0  0  0  0  0  0
  148.8591  142.4515  158.2783 H   0  0  0  0  0  0  0  0  0  0  0  0
  147.0074  143.4089  156.9381 H   0  0  0  0  0  0  0  0  0  0  0  0
  146.6638  141.8409  156.2439 H   0  0  0  0  0  0  0  0  0  0  0  0
  145.0544  141.9888  157.9610 H   0  0  0  0  0  0  0  0  0  0  0  0
  146.3103  141.0690  158.7785 H   0  0  0  0  0  0  0  0  0  0  0  0
  148.0143  144.7070  159.9183 H   0  0  0  0  0  0  0  0  0  0  0  0
  147.4011  144.8071  158.3135 H   0  0  0  0  0  0  0  0  0  0  0  0
  150.1819  140.2133  157.6780 H   0  0  0  0  0  0  0  0  0  0  0  0
  152.2584  140.9097  158.7490 H   0  0  0  0  0  0  0  0  0  0  0  0
  153.1768  140.6478  157.2695 H   0  0  0  0  0  0  0  0  0  0  0  0
  152.4689  139.2851  158.1332 H   0  0  0  0  0  0  0  0  0  0  0  0
  151.3232  137.5914  156.9650 H   0  0  0  0  0  0  0  0  0  0  0  0
  151.2184  136.5667  154.4418 H   0  0  0  0  0  0  0  0  0  0  0  0
  150.8262  138.8139  152.8696 H   0  0  0  0  0  0  0  0  0  0  0  0
  149.0058  141.5245  155.5037 H   0  0  0  0  0  0  0  0  0  0  0  0
  1  2  1  0  0  0  0
  1 18  1  0  0  0  0
  1 19  1  0  0  0  0
  1 20  1  0  0  0  0
  2  3  1  0  0  0  0
  2 11  1  0  0  0  0
  2 21  1  0  0  0  0
  3  4  1  0  0  0  0
  3 22  1  0  0  0  0
  3 38  1  0  0  0  0
  4  5  1  0  0  0  0
  4 23  1  0  0  0  0
  4 24  1  0  0  0  0
  5  6  1  0  0  0  0
  5 25  1  0  0  0  0
  5 26  1  0  0  0  0
  6  7  1  0  0  0  0
  6 27  1  0  0  0  0
  6 28  1  0  0  0  0
  7  8  1  0  0  0  0
  7  9  2  0  0  0  0
  7 10  2  0  0  0  0
  8 29  1  0  0  0  0
  8 30  1  0  0  0  0
 11 12  1  0  0  0  0
 11 13  1  0  0  0  0
 11 31  1  0  0  0  0
 12 32  1  0  0  0  0
 12 33  1  0  0  0  0
 12 34  1  0  0  0  0
 13 17  1  0  0  0  0
 13 14  1  0  0  0  0
 14 15  2  0  0  0  0
 14 35  1  0  0  0  0
 15 16  1  0  0  0  0
 15 36  1  0  0  0  0
 16 17  2  0  0  0  0
 16 37  1  0  0  0  0
M  CHG  1   3   1
M  END
> <s_m_source_file>
AV-unprocessed.smi

> <i_m_source_file_index>
658

> <i_lp_mmshare_version>
43012

> <i_f3d_flags>
0

> <s_epik_input>
bjFbY0hdW2NIXVtjSF1uMVtDQEBIXShbQ0gzXSlbQ0BIXShbQ0gzXSlbTkhdW0NIMl1bQ0gyXVtDSDJdUyg9TykoPU8pW05IMl0=

> <s_epik_cmdline>
J2VwaWtfcHl0aG9uJywgJy1waCcsICc3LjAnLCAnLXRuJywgJzgnLCAnLW1hJywgJzIwMCcsICctbWV0YWxfYmluZGluZycsICctaW1hZScsICc8aW5maWxlLm1hZT4nLCAnLW9tYWUnLCAnPG91dGZpbGUubWFlPic=

> <r_lp_tautomer_probability>
1

> <r_epik_Ionization_Penalty>
0.00535781

> <r_epik_Ionization_Penalty_Charging>
0.00511015

> <r_epik_Ionization_Penalty_Neutral>
0.000247661

> <r_epik_State_Penalty>
-0

> <r_epik_Charging_Adjusted_Penalty>
0.00511015

> <i_epik_Tot_Q>
1

> <i_epik_Tot_abs_Q>
1

> <r_epik_Metal_State_Penalty>
0.149106

> <b_epik_Metal_Only>
0

> <s_lp_Force_Field>
OPLS_2005

> <r_lp_Energy>
8.18413

> <b_lp_Chiralities_Consistent>
1

> <s_lp_Variant>
AV-unprocessed.smi:658-1

> <Gold.Version>
5.8.1

> <Gold.Id.Protein>
6NUR|6NUR_protein|mol2

> <Gold.PLP.Fitness>
43.9555

> <Gold.PLP.PLP>
-25.7704

> <Gold.PLP.part.hbond>
-4.9529

> <Gold.PLP.part.metal>
0.0000

> <Gold.PLP.part.buried>
-5.6673

> <Gold.PLP.part.nonpolar>
-16.2526

> <Gold.PLP.part.repulsive>
0.2334

> <Gold.PLP.ligand.clash>
0.0000

> <Gold.PLP.ligand.torsion>
0.9465

> <Gold.PLP.Chemscore.Hbond>
5.6068

> <Gold.PLP.Chemscore.CHOScore>
1.0000

> <Gold.PLP.Chemscore.Metal>
0.0000

> <Gold.Chemscore.Hbonds>
donor molecule, donor type, donor heavy atom, donor atom, acceptor molecule, acceptor atom, score
      L1  H     3    22       P1  8028  2.00
      L1  H     8    30       P1  8029  1.00
      P1  H  6933  6944       L1    10  0.65
      P1  H  6934  6946       L1    10  0.94
      P1  H  7989  7998       L1    17  0.80
      L1  C    16    37       P1  7957  0.85

> <Gold.PLP.Chemscore.Internal.Correction>
0.2578

> <Gold.Rescore>
     Score         DG    S(hbond)    S(metal)    S(lipo)     H(rot)  DE(clash)    DE(int)     intcor
     16.55     -18.04       4.29        0.00      53.36       3.13       0.43       1.05       ----

> <Gold.Chemscore.Fitness>
16.5524

> <Gold.Chemscore.DG>
-18.0377

> <Gold.Chemscore.ZeroCoef>
-5.4800

> <Gold.Chemscore.Hbond>
4.2906

> <Gold.Chemscore.Metal>
0.0000

> <Gold.Chemscore.Lipo>
53.3597

> <Gold.Chemscore.Internal_Hbond>
0.0000

> <Gold.Chemscore.DEClash>
0.4320

> <Gold.Chemscore.DEInternal>
1.0532

> <Gold.Chemscore.Rot>
3.1312

> <Gold.Chemscore.Internal.Correction>
   9.000000E+99

> <Gold.Chemscore.Hbonds>
donor molecule, donor type, donor heavy atom, donor atom, acceptor molecule, acceptor atom, score
      L1  H     3    22       P1  8028  1.00
      L1  H     8    30       P1  8029  0.92
      P1  H  6933  6944       L1    10  0.63
      P1  H  6934  6946       L1    10  0.80
      P1  H  7989  7998       L1    17  0.12

> <Gold.Chemscore.Hbond.Weighted>
-14.3306

> <Gold.Chemscore.Metal.Weighted>
-0.0000

> <Gold.Chemscore.Lipo.Weighted>
-6.2431

> <Gold.Chemscore.Internal_Hbond.Weighted>
0.0000

> <Gold.Chemscore.DEClash.Weighted>
0.4320

> <Gold.Chemscore.DEInternal.Weighted>
1.0532

> <Gold.Chemscore.Rot.Weighted>
8.0160

> <Gold.Chemscore.Internal.Correction.Weighted>
   9.000000E+99

> <Gold.Protein.RotatedTorsions>
[ 6907 6896 6895 6894 ] final   11.23 input  -60.11 | X-H torsion
[ 7974 7965 7964 7962 ] final  145.71 input  175.53 | X-H torsion
[ 8008 7997 7996 7995 ] final   -9.48 input   59.86 | X-H torsion
[ 10167 10162 10161 10158 ] final -116.46 input  -65.29 | X-H torsion
[ 10718 10713 10712 10709 ] final -154.42 input   66.30 | X-H torsion
[ 10763 10752 10751 10750 ] final  126.73 input  -60.55 | X-H torsion
[ 11005 11000 10999 10996 ] final -166.63 input  -57.11 | X-H torsion

> <Gold.Protein.ActiveResidues>
 VAL166  LYS551  ARG553  GLY616  TRP617  ASP618  TYR619  PRO620  LYS621  CYS622 
 ASP623  PHE694  ASN695  SER759  ASP760  ASP761  ALA762  ILE779  LEU786  VAL792 
 PHE793  MET794  SER795  GLU796  ALA797  LYS798  CYS799  TRP800  GLU811  SER814 

> <Gold.Protein.RotatedAtoms>
  151.7510  135.0832  160.0330 H   0  0  0  0  0  0  0  0  0  0  0  0  # atno 6907 bound_to 6896
  152.3417  133.6070  159.5889 H   0  0  0  0  0  0  0  0  0  0  0  0  # atno 6908 bound_to 6896
  150.7483  133.9628  159.3563 H   0  0  0  0  0  0  0  0  0  0  0  0  # atno 6909 bound_to 6896
  144.8730  139.5816  143.5878 H   0  0  0  0  0  0  0  0  0  0  0  0  # atno 7974 bound_to 7965
  154.5643  140.2354  155.8287 H   0  0  0  0  0  0  0  0  0  0  0  0  # atno 8008 bound_to 7997
  156.2055  140.3041  155.9577 H   0  0  0  0  0  0  0  0  0  0  0  0  # atno 8009 bound_to 7997
  155.2830  140.0423  157.3007 H   0  0  0  0  0  0  0  0  0  0  0  0  # atno 8010 bound_to 7997
  140.0790  143.4805  152.1936 H   0  0  0  0  0  0  0  0  0  0  0  0  # atno 10167 bound_to 10162
  156.4991  130.8383  151.2602 H   0  0  0  0  0  0  0  0  0  0  0  0  # atno 10718 bound_to 10713
  153.6981  135.3288  155.3218 H   0  0  0  0  0  0  0  0  0  0  0  0  # atno 10763 bound_to 10752
  154.8421  135.4447  154.1439 H   0  0  0  0  0  0  0  0  0  0  0  0  # atno 10764 bound_to 10752
  153.2499  135.6980  153.7769 H   0  0  0  0  0  0  0  0  0  0  0  0  # atno 10765 bound_to 10752
  140.5623  134.5320  157.5145 H   0  0  0  0  0  0  0  0  0  0  0  0  # atno 11005 bound_to 11000
  146.2944  139.7233  142.9138 LP  0  0  0  0  0  0  0  0  0  0  0  0  # atno 17320 bound_to 7965
  145.4094  141.0395  143.3025 LP  0  0  0  0  0  0  0  0  0  0  0  0  # atno 17321 bound_to 7965
  139.5791  144.7502  151.3688 LP  0  0  0  0  0  0  0  0  0  0  0  0  # atno 17342 bound_to 10162
  140.7087  143.7446  150.7528 LP  0  0  0  0  0  0  0  0  0  0  0  0  # atno 17343 bound_to 10162
  157.7465  130.9987  150.2864 LP  0  0  0  0  0  0  0  0  0  0  0  0  # atno 17370 bound_to 10713
  156.3350  130.3806  149.7458 LP  0  0  0  0  0  0  0  0  0  0  0  0  # atno 17371 bound_to 10713
  139.9402  134.7802  156.0699 LP  0  0  0  0  0  0  0  0  0  0  0  0  # atno 17394 bound_to 11000
  141.1107  133.6644  156.2971 LP  0  0  0  0  0  0  0  0  0  0  0  0  # atno 17395 bound_to 11000

$$$$
