AV-unprocessed.smi:737|AV-procd|sdf|3536|dock2
  -GOLD-   22720 0523D 1   1.00000     0.00000
 Structure written by MMmdl.
 45 47  0  0  0  0  0  0  0  0  1 V2000
  146.3179  137.2207  158.5341 C   0  0  0  0  0  0  0  0  0  0  0  0
  146.5984  138.1442  157.4465 N   0  0  0  0  0  0  0  0  0  0  0  0
  145.5563  138.8090  156.7854 C   0  0  0  0  0  0  0  0  0  0  0  0
  144.2704  138.5313  157.1023 N   0  0  0  0  0  0  0  0  0  0  0  0
  143.3066  139.1862  156.4421 C   0  0  0  0  0  0  0  0  0  0  0  0
  143.4213  140.1103  155.4754 N   0  0  0  0  0  0  0  0  0  0  0  0
  144.6911  140.3939  155.1552 C   0  0  0  0  0  0  0  0  0  0  0  0
  145.1031  141.3033  154.1961 N   0  0  0  0  0  0  0  0  0  0  0  0
  146.4274  141.2028  154.2790 C   0  0  0  0  0  0  0  0  0  0  0  0
  146.9302  140.3342  155.1780 N   0  0  0  0  0  0  0  0  0  0  0  0
  148.3366  140.0728  155.4312 C   0  0  0  0  0  0  0  0  0  0  0  0
  149.2541  141.1825  154.8777 C   0  0  2  0  0  0  0  0  0  0  0  0
  149.6157  140.9517  153.5303 O   0  0  0  0  0  0  0  0  0  0  0  0
  150.5312  141.3891  155.7062 C   0  0  0  0  0  0  0  0  0  0  0  0
  150.1859  141.7667  157.0320 O   0  0  0  0  0  0  0  0  0  0  0  0
  151.2671  141.9642  157.8505 C   0  0  0  0  0  0  0  0  0  0  0  0
  152.1366  140.8918  158.1636 C   0  0  0  0  0  0  0  0  0  0  0  0
  151.8916  139.5003  157.6087 C   0  0  0  0  0  0  0  0  0  0  0  0
  153.2444  141.1135  159.0074 C   0  0  0  0  0  0  0  0  0  0  0  0
  153.4797  142.3910  159.5484 C   0  0  0  0  0  0  0  0  0  0  0  0
  152.6046  143.4525  159.2534 C   0  0  0  0  0  0  0  0  0  0  0  0
  151.4943  143.2430  158.4100 C   0  0  0  0  0  0  0  0  0  0  0  0
  150.5513  144.3928  158.1086 C   0  0  0  0  0  0  0  0  0  0  0  0
  145.8096  139.7692  155.7848 C   0  0  0  0  0  0  0  0  0  0  0  0
  147.2489  136.7980  158.9112 H   0  0  0  0  0  0  0  0  0  0  0  0
  145.6847  136.4011  158.1929 H   0  0  0  0  0  0  0  0  0  0  0  0
  145.8179  137.7331  159.3568 H   0  0  0  0  0  0  0  0  0  0  0  0
  147.5510  138.2549  157.1294 H   0  0  0  0  0  0  0  0  0  0  0  0
  142.2958  138.9349  156.7271 H   0  0  0  0  0  0  0  0  0  0  0  0
  147.0719  141.7973  153.6477 H   0  0  0  0  0  0  0  0  0  0  0  0
  148.4799  139.9778  156.5084 H   0  0  0  0  0  0  0  0  0  0  0  0
  148.5917  139.1017  155.0089 H   0  0  0  0  0  0  0  0  0  0  0  0
  148.6983  142.1209  154.8820 H   0  0  0  0  0  0  0  0  0  0  0  0
  149.2236  140.1393  153.2485 H   0  0  0  0  0  0  0  0  0  0  0  0
  151.1455  140.4878  155.6972 H   0  0  0  0  0  0  0  0  0  0  0  0
  151.1279  142.1826  155.2536 H   0  0  0  0  0  0  0  0  0  0  0  0
  152.2989  138.7391  158.2748 H   0  0  0  0  0  0  0  0  0  0  0  0
  152.3705  139.3921  156.6359 H   0  0  0  0  0  0  0  0  0  0  0  0
  150.8256  139.3031  157.4926 H   0  0  0  0  0  0  0  0  0  0  0  0
  153.9161  140.3019  159.2461 H   0  0  0  0  0  0  0  0  0  0  0  0
  154.3288  142.5550  160.1956 H   0  0  0  0  0  0  0  0  0  0  0  0
  152.7883  144.4280  159.6791 H   0  0  0  0  0  0  0  0  0  0  0  0
  150.6922  145.2137  158.8121 H   0  0  0  0  0  0  0  0  0  0  0  0
  149.5126  144.0680  158.1769 H   0  0  0  0  0  0  0  0  0  0  0  0
  150.7277  144.7720  157.1022 H   0  0  0  0  0  0  0  0  0  0  0  0
  1  2  1  0  0  0  0
  1 25  1  0  0  0  0
  1 26  1  0  0  0  0
  1 27  1  0  0  0  0
  2  3  1  0  0  0  0
  2 28  1  0  0  0  0
  3 24  1  0  0  0  0
  3  4  2  0  0  0  0
  4  5  1  0  0  0  0
  5  6  2  0  0  0  0
  5 29  1  0  0  0  0
  6  7  1  0  0  0  0
  7 24  2  0  0  0  0
  7  8  1  0  0  0  0
  8  9  2  0  0  0  0
  9 10  1  0  0  0  0
  9 30  1  0  0  0  0
 10 11  1  0  0  0  0
 10 24  1  0  0  0  0
 11 12  1  0  0  0  0
 11 31  1  0  0  0  0
 11 32  1  0  0  0  0
 12 13  1  0  0  0  0
 12 14  1  0  0  0  0
 12 33  1  0  0  0  0
 13 34  1  0  0  0  0
 14 15  1  0  0  0  0
 14 35  1  0  0  0  0
 14 36  1  0  0  0  0
 15 16  1  0  0  0  0
 16 22  1  0  0  0  0
 16 17  2  0  0  0  0
 17 18  1  0  0  0  0
 17 19  1  0  0  0  0
 18 37  1  0  0  0  0
 18 38  1  0  0  0  0
 18 39  1  0  0  0  0
 19 20  2  0  0  0  0
 19 40  1  0  0  0  0
 20 21  1  0  0  0  0
 20 41  1  0  0  0  0
 21 22  2  0  0  0  0
 21 42  1  0  0  0  0
 22 23  1  0  0  0  0
 23 43  1  0  0  0  0
 23 44  1  0  0  0  0
 23 45  1  0  0  0  0
M  END
> <s_m_source_file>
AV-unprocessed.smi

> <i_m_source_file_index>
737

> <i_lp_mmshare_version>
43012

> <i_f3d_flags>
0

> <s_epik_input>
bjFbY0hdbmMoW05IXVtDSDNdKWMoYzEyKW4oW2NIXW4yKVtDSDJdW0NASF0oW09IXSlbQ0gyXU9jM2MoW0NIM10pW2NIXVtjSF1bY0hdYzNbQ0gzXQ==

> <s_epik_cmdline>
J2VwaWtfcHl0aG9uJywgJy1waCcsICc3LjAnLCAnLXRuJywgJzgnLCAnLW1hJywgJzIwMCcsICctbWV0YWxfYmluZGluZycsICctaW1hZScsICc8aW5maWxlLm1hZT4nLCAnLW9tYWUnLCAnPG91dGZpbGUubWFlPic=

> <r_lp_tautomer_probability>
1

> <r_epik_Ionization_Penalty>
0.0070961

> <r_epik_Ionization_Penalty_Charging>
0

> <r_epik_Ionization_Penalty_Neutral>
0.0070961

> <r_epik_State_Penalty>
-0

> <r_epik_Charging_Adjusted_Penalty>
0

> <i_epik_Tot_Q>
0

> <i_epik_Tot_abs_Q>
0

> <r_epik_Metal_State_Penalty>
-0

> <b_epik_Metal_Only>
0

> <s_lp_Force_Field>
OPLS_2005

> <r_lp_Energy>
18.2803

> <b_lp_Chiralities_Consistent>
1

> <s_lp_Variant>
AV-unprocessed.smi:737-1

> <Gold.Version>
5.8.1

> <Gold.Id.Protein>
6NUR|6NUR_protein|mol2

> <Gold.PLP.Fitness>
45.9493

> <Gold.PLP.PLP>
-43.0453

> <Gold.PLP.part.hbond>
-3.0000

> <Gold.PLP.part.metal>
0.0000

> <Gold.PLP.part.buried>
-6.0559

> <Gold.PLP.part.nonpolar>
-34.8039

> <Gold.PLP.part.repulsive>
0.5524

> <Gold.PLP.ligand.clash>
0.0000

> <Gold.PLP.ligand.torsion>
0.6270

> <Gold.PLP.Chemscore.Hbond>
1.3409

> <Gold.PLP.Chemscore.CHOScore>
0.0000

> <Gold.PLP.Chemscore.Metal>
0.0000

> <Gold.Chemscore.Hbonds>
donor molecule, donor type, donor heavy atom, donor atom, acceptor molecule, acceptor atom, score
      L1  H    13    34       P1  7957  0.07
      P1  H  7989  7998       L1    13  0.29
      P1  H  8011  8017       L1    13  1.00

> <Gold.PLP.Chemscore.Internal.Correction>
0.1353

> <Gold.Rescore>
     Score         DG    S(hbond)    S(metal)    S(lipo)     H(rot)  DE(clash)    DE(int)     intcor
     11.36     -12.18       0.97        0.00      93.10       2.91       0.03       0.79       ----

> <Gold.Chemscore.Fitness>
11.3588

> <Gold.Chemscore.DG>
-12.1770

> <Gold.Chemscore.ZeroCoef>
-5.4800

> <Gold.Chemscore.Hbond>
0.9718

> <Gold.Chemscore.Metal>
0.0000

> <Gold.Chemscore.Lipo>
93.0976

> <Gold.Chemscore.Internal_Hbond>
0.0000

> <Gold.Chemscore.DEClash>
0.0263

> <Gold.Chemscore.DEInternal>
0.7919

> <Gold.Chemscore.Rot>
2.9067

> <Gold.Chemscore.Internal.Correction>
   9.000000E+99

> <Gold.Chemscore.Hbonds>
donor molecule, donor type, donor heavy atom, donor atom, acceptor molecule, acceptor atom, score
      L1  H    13    34       P1  7957  0.09
      P1  H  7989  7998       L1    13  0.14
      P1  H  8011  8017       L1    13  0.94

> <Gold.Chemscore.Hbond.Weighted>
-3.2457

> <Gold.Chemscore.Metal.Weighted>
-0.0000

> <Gold.Chemscore.Lipo.Weighted>
-10.8924

> <Gold.Chemscore.Internal_Hbond.Weighted>
0.0000

> <Gold.Chemscore.DEClash.Weighted>
0.0263

> <Gold.Chemscore.DEInternal.Weighted>
0.7919

> <Gold.Chemscore.Rot.Weighted>
7.4412

> <Gold.Chemscore.Internal.Correction.Weighted>
   9.000000E+99

> <Gold.Protein.RotatedTorsions>
[ 6907 6896 6895 6894 ] final -108.58 input  -60.11 | X-H torsion
[ 7974 7965 7964 7962 ] final -134.08 input  175.53 | X-H torsion
[ 8008 7997 7996 7995 ] final   68.96 input   59.86 | X-H torsion
[ 10167 10162 10161 10158 ] final -117.56 input  -65.29 | X-H torsion
[ 10718 10713 10712 10709 ] final   36.07 input   66.30 | X-H torsion
[ 10763 10752 10751 10750 ] final  -80.62 input  -60.55 | X-H torsion
[ 11005 11000 10999 10996 ] final -132.65 input  -57.11 | X-H torsion

> <Gold.Protein.ActiveResidues>
 VAL166  LYS551  ARG553  GLY616  TRP617  ASP618  TYR619  PRO620  LYS621  CYS622 
 ASP623  PHE694  ASN695  SER759  ASP760  ASP761  ALA762  ILE779  LEU786  VAL792 
 PHE793  MET794  SER795  GLU796  ALA797  LYS798  CYS799  TRP800  GLU811  SER814 

> <Gold.Protein.RotatedAtoms>
  150.7510  133.9656  159.3529 H   0  0  0  0  0  0  0  0  0  0  0  0  # atno 6907 bound_to 6896
  151.7586  135.0813  160.0351 H   0  0  0  0  0  0  0  0  0  0  0  0  # atno 6908 bound_to 6896
  152.3418  133.6039  159.5918 H   0  0  0  0  0  0  0  0  0  0  0  0  # atno 6909 bound_to 6896
  144.9135  140.6925  143.5010 H   0  0  0  0  0  0  0  0  0  0  0  0  # atno 7974 bound_to 7965
  155.7164  140.3494  155.4996 H   0  0  0  0  0  0  0  0  0  0  0  0  # atno 8008 bound_to 7997
  155.9309  140.1084  157.1154 H   0  0  0  0  0  0  0  0  0  0  0  0  # atno 8009 bound_to 7997
  154.4085  140.1231  156.4789 H   0  0  0  0  0  0  0  0  0  0  0  0  # atno 8010 bound_to 7997
  140.0670  143.4913  152.2001 H   0  0  0  0  0  0  0  0  0  0  0  0  # atno 10167 bound_to 10162
  157.3304  130.7494  149.6843 H   0  0  0  0  0  0  0  0  0  0  0  0  # atno 10718 bound_to 10713
  154.5535  135.5654  153.6943 H   0  0  0  0  0  0  0  0  0  0  0  0  # atno 10763 bound_to 10752
  152.9996  135.6256  154.2342 H   0  0  0  0  0  0  0  0  0  0  0  0  # atno 10764 bound_to 10752
  154.2277  135.2867  155.2881 H   0  0  0  0  0  0  0  0  0  0  0  0  # atno 10765 bound_to 10752
  140.9152  134.1517  157.4358 H   0  0  0  0  0  0  0  0  0  0  0  0  # atno 11005 bound_to 11000
  145.3415  139.1731  143.4483 LP  0  0  0  0  0  0  0  0  0  0  0  0  # atno 17320 bound_to 7965
  146.3170  140.3456  142.8651 LP  0  0  0  0  0  0  0  0  0  0  0  0  # atno 17321 bound_to 7965
  139.5859  144.7530  151.3522 LP  0  0  0  0  0  0  0  0  0  0  0  0  # atno 17342 bound_to 10162
  140.7144  143.7305  150.7627 LP  0  0  0  0  0  0  0  0  0  0  0  0  # atno 17343 bound_to 10162
  155.9695  130.4197  150.4387 LP  0  0  0  0  0  0  0  0  0  0  0  0  # atno 17370 bound_to 10713
  157.2418  131.0527  151.2432 LP  0  0  0  0  0  0  0  0  0  0  0  0  # atno 17371 bound_to 10713
  139.8764  134.9951  156.5725 LP  0  0  0  0  0  0  0  0  0  0  0  0  # atno 17394 bound_to 11000
  140.8059  133.8467  155.8767 LP  0  0  0  0  0  0  0  0  0  0  0  0  # atno 17395 bound_to 11000

$$$$
