AV-unprocessed.smi:3300|AV-procd|sdf|12651|dock8
  -GOLD-   2272018583D 1   1.00000     0.00000
 Structure written by MMmdl.
 36 37  0  0  0  0  0  0  0  0  1 V2000
  150.0279  134.5885  154.3826 C   0  0  0  0  0  0  0  0  0  0  0  0
  150.9735  135.3609  155.3097 C   0  0  0  0  0  0  0  0  0  0  0  0
  150.9234  136.8576  155.0654 C   0  0  0  0  0  0  0  0  0  0  0  0
  152.0859  137.4560  154.7220 N   0  0  0  0  0  0  0  0  0  0  0  0
  152.0428  138.7717  154.5004 C   0  0  0  0  0  0  0  0  0  0  0  0
  150.9684  139.5603  154.5799 N   0  0  0  0  0  0  0  0  0  0  0  0
  149.7906  138.9749  154.9097 C   0  0  0  0  0  0  0  0  0  0  0  0
  148.6361  139.7724  155.0226 N   0  0  0  0  0  0  0  0  0  0  0  0
  148.9124  140.8984  155.9088 C   0  0  0  0  0  0  0  0  0  0  0  0
  147.6356  141.7046  156.1764 C   0  0  0  0  0  0  0  0  0  0  0  0
  147.0953  142.1307  154.9342 O   0  0  0  0  0  0  0  0  0  0  0  0
  146.7186  141.0270  154.1200 C   0  0  0  0  0  0  0  0  0  0  0  0
  147.9460  140.1465  153.7786 C   0  0  2  0  0  0  0  0  0  0  0  0
  147.5152  138.9040  152.9553 C   0  0  0  0  0  0  0  0  0  0  0  0
  146.8926  139.2430  151.5912 C   0  0  0  0  0  0  0  0  0  0  0  0
  147.1647  138.2078  150.6712 O   0  0  0  0  0  0  0  0  0  0  0  0
  149.7205  137.5885  155.1763 C   0  0  0  0  0  0  0  0  0  0  0  0
  148.5526  136.9887  155.5141 F   0  0  0  0  0  0  0  0  0  0  0  0
  150.0818  133.5174  154.5779 H   0  0  0  0  0  0  0  0  0  0  0  0
  150.2840  134.7488  153.3349 H   0  0  0  0  0  0  0  0  0  0  0  0
  148.9938  134.9027  154.5270 H   0  0  0  0  0  0  0  0  0  0  0  0
  150.7244  135.1513  156.3503 H   0  0  0  0  0  0  0  0  0  0  0  0
  151.9967  135.0117  155.1659 H   0  0  0  0  0  0  0  0  0  0  0  0
  152.9738  139.2482  154.2309 H   0  0  0  0  0  0  0  0  0  0  0  0
  149.3231  140.5430  156.8550 H   0  0  0  0  0  0  0  0  0  0  0  0
  149.6673  141.5409  155.4525 H   0  0  0  0  0  0  0  0  0  0  0  0
  146.9037  141.1122  156.7282 H   0  0  0  0  0  0  0  0  0  0  0  0
  147.8637  142.5800  156.7846 H   0  0  0  0  0  0  0  0  0  0  0  0
  145.9463  140.4438  154.6245 H   0  0  0  0  0  0  0  0  0  0  0  0
  146.2684  141.4298  153.2135 H   0  0  0  0  0  0  0  0  0  0  0  0
  148.6346  140.7446  153.1800 H   0  0  0  0  0  0  0  0  0  0  0  0
  148.3729  138.2585  152.7666 H   0  0  0  0  0  0  0  0  0  0  0  0
  146.8161  138.3041  153.5399 H   0  0  0  0  0  0  0  0  0  0  0  0
  145.8119  139.3620  151.6627 H   0  0  0  0  0  0  0  0  0  0  0  0
  147.3023  140.1764  151.2039 H   0  0  0  0  0  0  0  0  0  0  0  0
  147.7825  137.6101  151.0640 H   0  0  0  0  0  0  0  0  0  0  0  0
  1  2  1  0  0  0  0
  1 19  1  0  0  0  0
  1 20  1  0  0  0  0
  1 21  1  0  0  0  0
  2  3  1  0  0  0  0
  2 22  1  0  0  0  0
  2 23  1  0  0  0  0
  3 17  1  0  0  0  0
  3  4  2  0  0  0  0
  4  5  1  0  0  0  0
  5  6  2  0  0  0  0
  5 24  1  0  0  0  0
  6  7  1  0  0  0  0
  7  8  1  0  0  0  0
  7 17  2  0  0  0  0
  8 13  1  0  0  0  0
  8  9  1  0  0  0  0
  9 10  1  0  0  0  0
  9 25  1  0  0  0  0
  9 26  1  0  0  0  0
 10 11  1  0  0  0  0
 10 27  1  0  0  0  0
 10 28  1  0  0  0  0
 11 12  1  0  0  0  0
 12 13  1  0  0  0  0
 12 29  1  0  0  0  0
 12 30  1  0  0  0  0
 13 14  1  0  0  0  0
 13 31  1  0  0  0  0
 14 15  1  0  0  0  0
 14 32  1  0  0  0  0
 14 33  1  0  0  0  0
 15 16  1  0  0  0  0
 15 34  1  0  0  0  0
 15 35  1  0  0  0  0
 16 36  1  0  0  0  0
 17 18  1  0  0  0  0
M  END
> <s_m_source_file>
AV-unprocessed.smi

> <i_m_source_file_index>
3300

> <i_lp_mmshare_version>
43012

> <i_f3d_flags>
0

> <s_epik_input>
W0NIM11bQ0gyXWMxbltjSF1uYyhjMUYpTjJbQ0gyXVtDSDJdT1tDSDJdW0NASF0yW0NIMl1bQ0gyXVtPSF0=

> <s_epik_cmdline>
J2VwaWtfcHl0aG9uJywgJy1waCcsICc3LjAnLCAnLXRuJywgJzgnLCAnLW1hJywgJzIwMCcsICctbWV0YWxfYmluZGluZycsICctaW1hZScsICc8aW5maWxlLm1hZT4nLCAnLW9tYWUnLCAnPG91dGZpbGUubWFlPic=

> <r_lp_tautomer_probability>
1

> <r_epik_Ionization_Penalty>
2.51351e-05

> <r_epik_Ionization_Penalty_Charging>
0

> <r_epik_Ionization_Penalty_Neutral>
2.51351e-05

> <r_epik_State_Penalty>
-0

> <r_epik_Charging_Adjusted_Penalty>
0

> <i_epik_Tot_Q>
0

> <i_epik_Tot_abs_Q>
0

> <r_epik_Metal_State_Penalty>
-0

> <b_epik_Metal_Only>
0

> <s_lp_Force_Field>
OPLS_2005

> <r_lp_Energy>
16.3992

> <b_lp_Chiralities_Consistent>
1

> <s_lp_Variant>
AV-unprocessed.smi:3300-2

> <Gold.Version>
5.8.1

> <Gold.Id.Protein>
6NUR|6NUR_protein|mol2

> <Gold.PLP.Fitness>
36.4122

> <Gold.PLP.PLP>
-28.3898

> <Gold.PLP.part.hbond>
-4.6071

> <Gold.PLP.part.metal>
0.0000

> <Gold.PLP.part.buried>
-2.0635

> <Gold.PLP.part.nonpolar>
-22.6276

> <Gold.PLP.part.repulsive>
1.1645

> <Gold.PLP.ligand.clash>
0.0000

> <Gold.PLP.ligand.torsion>
0.5257

> <Gold.PLP.Chemscore.Hbond>
2.9760

> <Gold.PLP.Chemscore.CHOScore>
0.0000

> <Gold.PLP.Chemscore.Metal>
0.0000

> <Gold.Chemscore.Hbonds>
donor molecule, donor type, donor heavy atom, donor atom, acceptor molecule, acceptor atom, score
      L1  H    16    36       P1  7948  1.00
      P1  H  7989  7998       L1     6  0.75
      P1  H 10752 10763       L1     4  0.45

> <Gold.PLP.Chemscore.Internal.Correction>
0.1458

> <Gold.Rescore>
     Score         DG    S(hbond)    S(metal)    S(lipo)     H(rot)  DE(clash)    DE(int)     intcor
     12.52     -13.22       2.18        0.00      55.17       2.35       0.22       0.47       ----

> <Gold.Chemscore.Fitness>
12.5237

> <Gold.Chemscore.DG>
-13.2183

> <Gold.Chemscore.ZeroCoef>
-5.4800

> <Gold.Chemscore.Hbond>
2.1820

> <Gold.Chemscore.Metal>
0.0000

> <Gold.Chemscore.Lipo>
55.1746

> <Gold.Chemscore.Internal_Hbond>
0.0000

> <Gold.Chemscore.DEClash>
0.2214

> <Gold.Chemscore.DEInternal>
0.4733

> <Gold.Chemscore.Rot>
2.3458

> <Gold.Chemscore.Internal.Correction>
   9.000000E+99

> <Gold.Chemscore.Hbonds>
donor molecule, donor type, donor heavy atom, donor atom, acceptor molecule, acceptor atom, score
      L1  H    16    36       P1  7948  0.98
      P1  H  7989  7998       L1     6  0.09
      P1  H 10752 10763       L1     4  0.02

> <Gold.Chemscore.Hbond.Weighted>
-7.2880

> <Gold.Chemscore.Metal.Weighted>
-0.0000

> <Gold.Chemscore.Lipo.Weighted>
-6.4554

> <Gold.Chemscore.Internal_Hbond.Weighted>
0.0000

> <Gold.Chemscore.DEClash.Weighted>
0.2214

> <Gold.Chemscore.DEInternal.Weighted>
0.4733

> <Gold.Chemscore.Rot.Weighted>
6.0051

> <Gold.Chemscore.Internal.Correction.Weighted>
   9.000000E+99

> <Gold.Protein.RotatedTorsions>
[ 6907 6896 6895 6894 ] final  162.55 input  -60.11 | X-H torsion
[ 7974 7965 7964 7962 ] final  123.02 input  175.53 | X-H torsion
[ 8008 7997 7996 7995 ] final  -21.47 input   59.86 | X-H torsion
[ 10167 10162 10161 10158 ] final    9.46 input  -65.29 | X-H torsion
[ 10718 10713 10712 10709 ] final -102.25 input   66.30 | X-H torsion
[ 10763 10752 10751 10750 ] final   47.58 input  -60.55 | X-H torsion
[ 11005 11000 10999 10996 ] final -153.19 input  -57.11 | X-H torsion

> <Gold.Protein.ActiveResidues>
 VAL166  LYS551  ARG553  GLY616  TRP617  ASP618  TYR619  PRO620  LYS621  CYS622 
 ASP623  PHE694  ASN695  SER759  ASP760  ASP761  ALA762  ILE779  LEU786  VAL792 
 PHE793  MET794  SER795  GLU796  ALA797  LYS798  CYS799  TRP800  GLU811  SER814 

> <Gold.Protein.RotatedAtoms>
  151.9387  133.3631  159.3956 H   0  0  0  0  0  0  0  0  0  0  0  0  # atno 6907 bound_to 6896
  150.7002  134.4462  159.5324 H   0  0  0  0  0  0  0  0  0  0  0  0  # atno 6908 bound_to 6896
  152.2115  134.8497  160.0547 H   0  0  0  0  0  0  0  0  0  0  0  0  # atno 6909 bound_to 6896
  145.1008  139.3520  143.4813 H   0  0  0  0  0  0  0  0  0  0  0  0  # atno 7974 bound_to 7965
  154.4703  140.2034  156.0011 H   0  0  0  0  0  0  0  0  0  0  0  0  # atno 8008 bound_to 7997
  156.1000  140.3245  155.7899 H   0  0  0  0  0  0  0  0  0  0  0  0  # atno 8009 bound_to 7997
  155.4814  140.0539  157.2957 H   0  0  0  0  0  0  0  0  0  0  0  0  # atno 8010 bound_to 7997
  140.6254  143.8113  150.7226 H   0  0  0  0  0  0  0  0  0  0  0  0  # atno 10167 bound_to 10162
  156.0222  130.5411  150.7082 H   0  0  0  0  0  0  0  0  0  0  0  0  # atno 10718 bound_to 10713
  152.9798  135.5971  154.3786 H   0  0  0  0  0  0  0  0  0  0  0  0  # atno 10763 bound_to 10752
  154.3453  135.2767  155.2403 H   0  0  0  0  0  0  0  0  0  0  0  0  # atno 10764 bound_to 10752
  154.4466  135.6000  153.6219 H   0  0  0  0  0  0  0  0  0  0  0  0  # atno 10765 bound_to 10752
  140.7108  134.3834  157.5198 H   0  0  0  0  0  0  0  0  0  0  0  0  # atno 11005 bound_to 11000
  146.3530  140.0884  142.8614 LP  0  0  0  0  0  0  0  0  0  0  0  0  # atno 17320 bound_to 7965
  145.0958  140.9314  143.4742 LP  0  0  0  0  0  0  0  0  0  0  0  0  # atno 17321 bound_to 7965
  140.1713  143.4192  152.1999 LP  0  0  0  0  0  0  0  0  0  0  0  0  # atno 17342 bound_to 10162
  139.5475  144.7310  151.4538 LP  0  0  0  0  0  0  0  0  0  0  0  0  # atno 17343 bound_to 10162
  157.4726  131.0894  151.0625 LP  0  0  0  0  0  0  0  0  0  0  0  0  # atno 17370 bound_to 10713
  157.1081  130.6010  149.5475 LP  0  0  0  0  0  0  0  0  0  0  0  0  # atno 17371 bound_to 10713
  139.8872  134.8889  156.2541 LP  0  0  0  0  0  0  0  0  0  0  0  0  # atno 17394 bound_to 11000
  141.0086  133.7109  156.1074 LP  0  0  0  0  0  0  0  0  0  0  0  0  # atno 17395 bound_to 11000

$$$$
