AV-unprocessed.smi:1830|AV-procd|sdf|7439|dock6
  -GOLD-   22720 9123D 1   1.00000     0.00000
 Structure written by MMmdl.
 53 56  0  0  0  0  0  0  0  0  2 V2000
  149.8599  139.9533  155.2459 O   0  0  0  0  0  0  0  0  0  0  0  0
  149.6038  141.0970  155.6220 C   0  0  0  0  0  0  0  0  0  0  0  0
  148.7249  141.9002  155.0065 N   0  0  0  0  0  0  0  0  0  0  0  0
  147.9427  141.5431  153.8273 C   0  0  0  0  0  0  0  0  0  0  0  0
  146.4900  142.0428  153.9291 C   0  0  1  0  0  0  0  0  0  0  0  0
  145.9096  141.8292  155.3476 C   0  0  0  0  0  0  0  0  0  0  0  0
  144.5636  142.4295  155.3943 N   0  3  1  0  0  0  0  0  0  0  0  0
  143.7962  142.3329  156.6478 C   0  0  0  0  0  0  0  0  0  0  0  0
  142.7970  143.5063  156.5891 C   0  0  0  0  0  0  0  0  0  0  0  0
  143.1801  144.3200  155.3390 C   0  0  0  0  0  0  0  0  0  0  0  0
  144.6024  143.8520  155.0488 C   0  0  2  0  0  0  0  0  0  0  0  0
  145.1414  144.0044  153.6214 C   0  0  0  0  0  0  0  0  0  0  0  0
  146.4512  143.4360  153.5980 O   0  0  0  0  0  0  0  0  0  0  0  0
  150.1378  141.6969  156.6986 N   0  0  0  0  0  0  0  0  0  0  0  0
  151.0142  141.1336  157.6680 C   0  0  0  0  0  0  0  0  0  0  0  0
  151.3813  139.7661  157.6276 C   0  0  0  0  0  0  0  0  0  0  0  0
  152.3002  139.2703  158.5685 C   0  0  0  0  0  0  0  0  0  0  0  0
  152.8355  140.1652  159.5096 C   0  0  0  0  0  0  0  0  0  0  0  0
  152.5084  141.4723  159.5516 N   0  0  0  0  0  0  0  0  0  0  0  0
  151.6125  141.9627  158.6599 C   0  0  0  0  0  0  0  0  0  0  0  0
  151.2974  143.3373  158.7624 N   0  0  0  0  0  0  0  0  0  0  0  0
  152.2344  144.2677  159.3835 C   0  0  0  0  0  0  0  0  0  0  0  0
  151.4171  145.5268  159.6564 C   0  0  0  0  0  0  0  0  0  0  0  0
  150.0498  144.9544  160.0173 C   0  0  0  0  0  0  0  0  0  0  0  0
  149.9350  143.7064  159.1355 C   0  0  0  0  0  0  0  0  0  0  0  0
  148.5814  142.8248  155.3856 H   0  0  0  0  0  0  0  0  0  0  0  0
  148.4282  142.0034  152.9665 H   0  0  0  0  0  0  0  0  0  0  0  0
  147.9698  140.4656  153.6551 H   0  0  0  0  0  0  0  0  0  0  0  0
  145.8774  141.4961  153.2095 H   0  0  0  0  0  0  0  0  0  0  0  0
  145.8449  140.7659  155.5810 H   0  0  0  0  0  0  0  0  0  0  0  0
  146.5499  142.2913  156.1011 H   0  0  0  0  0  0  0  0  0  0  0  0
  143.3017  141.3647  156.7299 H   0  0  0  0  0  0  0  0  0  0  0  0
  144.4623  142.4495  157.5041 H   0  0  0  0  0  0  0  0  0  0  0  0
  141.7661  143.1568  156.5259 H   0  0  0  0  0  0  0  0  0  0  0  0
  142.8822  144.1161  157.4893 H   0  0  0  0  0  0  0  0  0  0  0  0
  142.5207  144.0595  154.5097 H   0  0  0  0  0  0  0  0  0  0  0  0
  143.1139  145.3969  155.4967 H   0  0  0  0  0  0  0  0  0  0  0  0
  145.2782  144.3614  155.7397 H   0  0  0  0  0  0  0  0  0  0  0  0
  144.4980  143.5086  152.8928 H   0  0  0  0  0  0  0  0  0  0  0  0
  145.2016  145.0568  153.3436 H   0  0  0  0  0  0  0  0  0  0  0  0
  149.7729  142.6101  156.9268 H   0  0  0  0  0  0  0  0  0  0  0  0
  150.9904  139.0956  156.8779 H   0  0  0  0  0  0  0  0  0  0  0  0
  152.5964  138.2319  158.5601 H   0  0  0  0  0  0  0  0  0  0  0  0
  153.5497  139.8248  160.2446 H   0  0  0  0  0  0  0  0  0  0  0  0
  152.6099  143.8679  160.3265 H   0  0  0  0  0  0  0  0  0  0  0  0
  153.0857  144.4694  158.7326 H   0  0  0  0  0  0  0  0  0  0  0  0
  151.8435  146.1483  160.4443 H   0  0  0  0  0  0  0  0  0  0  0  0
  151.3424  146.1287  158.7496 H   0  0  0  0  0  0  0  0  0  0  0  0
  150.0422  144.6626  161.0685 H   0  0  0  0  0  0  0  0  0  0  0  0
  149.2356  145.6619  159.8590 H   0  0  0  0  0  0  0  0  0  0  0  0
  149.3756  143.9434  158.2304 H   0  0  0  0  0  0  0  0  0  0  0  0
  149.4163  142.8985  159.6535 H   0  0  0  0  0  0  0  0  0  0  0  0
  144.0072  141.9779  154.6824 H   0  0  0  0  0  0  0  0  0  0  0  0
  1  2  2  0  0  0  0
  2  3  1  0  0  0  0
  2 14  1  0  0  0  0
  3  4  1  0  0  0  0
  3 26  1  0  0  0  0
  4  5  1  0  0  0  0
  4 27  1  0  0  0  0
  4 28  1  0  0  0  0
  5 13  1  0  0  0  0
  5  6  1  0  0  0  0
  5 29  1  0  0  0  0
  6  7  1  0  0  0  0
  6 30  1  0  0  0  0
  6 31  1  0  0  0  0
  7 11  1  0  0  0  0
  7  8  1  0  0  0  0
  7 53  1  0  0  0  0
  8  9  1  0  0  0  0
  8 32  1  0  0  0  0
  8 33  1  0  0  0  0
  9 10  1  0  0  0  0
  9 34  1  0  0  0  0
  9 35  1  0  0  0  0
 10 11  1  0  0  0  0
 10 36  1  0  0  0  0
 10 37  1  0  0  0  0
 11 12  1  0  0  0  0
 11 38  1  0  0  0  0
 12 13  1  0  0  0  0
 12 39  1  0  0  0  0
 12 40  1  0  0  0  0
 14 15  1  0  0  0  0
 14 41  1  0  0  0  0
 15 20  1  0  0  0  0
 15 16  2  0  0  0  0
 16 17  1  0  0  0  0
 16 42  1  0  0  0  0
 17 18  2  0  0  0  0
 17 43  1  0  0  0  0
 18 19  1  0  0  0  0
 18 44  1  0  0  0  0
 19 20  2  0  0  0  0
 20 21  1  0  0  0  0
 21 25  1  0  0  0  0
 21 22  1  0  0  0  0
 22 23  1  0  0  0  0
 22 45  1  0  0  0  0
 22 46  1  0  0  0  0
 23 24  1  0  0  0  0
 23 47  1  0  0  0  0
 23 48  1  0  0  0  0
 24 25  1  0  0  0  0
 24 49  1  0  0  0  0
 24 50  1  0  0  0  0
 25 51  1  0  0  0  0
 25 52  1  0  0  0  0
M  CHG  1   7   1
M  END
> <s_m_source_file>
AV-unprocessed.smi

> <i_m_source_file_index>
1830

> <i_lp_mmshare_version>
43012

> <i_f3d_flags>
0

> <s_epik_input>
W0NIMl0xW0NIMl1bQ0gyXVtDQEhdKE4xMilbQ0gyXU9bQ0BASF0oW0NIMl0yKVtDSDJdW05IXUMoPU8pW05IXWMzW2NIXVtjSF1bY0hdbmMzTjRbQ0gyXVtDSDJdW0NIMl1bQ0gyXTQ=

> <s_epik_cmdline>
J2VwaWtfcHl0aG9uJywgJy1waCcsICc3LjAnLCAnLXRuJywgJzgnLCAnLW1hJywgJzIwMCcsICctbWV0YWxfYmluZGluZycsICctaW1hZScsICc8aW5maWxlLm1hZT4nLCAnLW9tYWUnLCAnPG91dGZpbGUubWFlPic=

> <r_lp_tautomer_probability>
1

> <r_epik_Ionization_Penalty>
0.193547

> <r_epik_Ionization_Penalty_Charging>
0.10673

> <r_epik_Ionization_Penalty_Neutral>
0.0868166

> <r_epik_State_Penalty>
0.173595

> <r_epik_Charging_Adjusted_Penalty>
0.280326

> <i_epik_Tot_Q>
1

> <i_epik_Tot_abs_Q>
1

> <r_epik_Metal_State_Penalty>
0.164683

> <b_epik_Metal_Only>
0

> <s_lp_Force_Field>
OPLS_2005

> <r_lp_Energy>
64.524

> <b_lp_Chiralities_Consistent>
1

> <s_lp_Variant>
AV-unprocessed.smi:1830-8

> <Gold.Version>
5.8.1

> <Gold.Id.Protein>
6NUR|6NUR_protein|mol2

> <Gold.PLP.Fitness>
44.6680

> <Gold.PLP.PLP>
-42.6045

> <Gold.PLP.part.hbond>
-2.0000

> <Gold.PLP.part.metal>
0.0000

> <Gold.PLP.part.buried>
-6.2408

> <Gold.PLP.part.nonpolar>
-34.5595

> <Gold.PLP.part.repulsive>
0.5555

> <Gold.PLP.ligand.clash>
0.0000

> <Gold.PLP.ligand.torsion>
0.6707

> <Gold.PLP.Chemscore.Hbond>
1.0203

> <Gold.PLP.Chemscore.CHOScore>
0.0000

> <Gold.PLP.Chemscore.Metal>
0.0000

> <Gold.Chemscore.Hbonds>
donor molecule, donor type, donor heavy atom, donor atom, acceptor molecule, acceptor atom, score
      L1  H     3    26       P1  8028  1.00

> <Gold.PLP.Chemscore.Internal.Correction>
0.3441

> <Gold.Rescore>
     Score         DG    S(hbond)    S(metal)    S(lipo)     H(rot)  DE(clash)    DE(int)     intcor
     15.33     -17.42       1.01        0.00     103.95       1.41       0.18       1.91       ----

> <Gold.Chemscore.Fitness>
15.3284

> <Gold.Chemscore.DG>
-17.4168

> <Gold.Chemscore.ZeroCoef>
-5.4800

> <Gold.Chemscore.Hbond>
1.0109

> <Gold.Chemscore.Metal>
0.0000

> <Gold.Chemscore.Lipo>
103.9451

> <Gold.Chemscore.Internal_Hbond>
0.0000

> <Gold.Chemscore.DEClash>
0.1776

> <Gold.Chemscore.DEInternal>
1.9108

> <Gold.Chemscore.Rot>
1.4067

> <Gold.Chemscore.Internal.Correction>
   9.000000E+99

> <Gold.Chemscore.Hbonds>
donor molecule, donor type, donor heavy atom, donor atom, acceptor molecule, acceptor atom, score
      L1  H     3    26       P1  8028  0.99

> <Gold.Chemscore.Hbond.Weighted>
-3.3763

> <Gold.Chemscore.Metal.Weighted>
-0.0000

> <Gold.Chemscore.Lipo.Weighted>
-12.1616

> <Gold.Chemscore.Internal_Hbond.Weighted>
0.0000

> <Gold.Chemscore.DEClash.Weighted>
0.1776

> <Gold.Chemscore.DEInternal.Weighted>
1.9108

> <Gold.Chemscore.Rot.Weighted>
3.6011

> <Gold.Chemscore.Internal.Correction.Weighted>
   9.000000E+99

> <Gold.Protein.RotatedTorsions>
[ 6907 6896 6895 6894 ] final   79.07 input  -60.11 | X-H torsion
[ 7974 7965 7964 7962 ] final  -79.64 input  175.53 | X-H torsion
[ 8008 7997 7996 7995 ] final -119.99 input   59.86 | X-H torsion
[ 10167 10162 10161 10158 ] final  -30.07 input  -65.29 | X-H torsion
[ 10718 10713 10712 10709 ] final    1.69 input   66.30 | X-H torsion
[ 10763 10752 10751 10750 ] final   67.33 input  -60.55 | X-H torsion
[ 11005 11000 10999 10996 ] final   -3.70 input  -57.11 | X-H torsion

> <Gold.Protein.ActiveResidues>
 VAL166  LYS551  ARG553  GLY616  TRP617  ASP618  TYR619  PRO620  LYS621  CYS622 
 ASP623  PHE694  ASN695  SER759  ASP760  ASP761  ALA762  ILE779  LEU786  VAL792 
 PHE793  MET794  SER795  GLU796  ALA797  LYS798  CYS799  TRP800  GLU811  SER814 

> <Gold.Protein.RotatedAtoms>
  152.5184  134.3567  159.9270 H   0  0  0  0  0  0  0  0  0  0  0  0  # atno 6907 bound_to 6896
  151.3519  133.3916  159.2689 H   0  0  0  0  0  0  0  0  0  0  0  0  # atno 6908 bound_to 6896
  150.9720  134.9110  159.7852 H   0  0  0  0  0  0  0  0  0  0  0  0  # atno 6909 bound_to 6896
  145.5705  140.9467  143.1398 H   0  0  0  0  0  0  0  0  0  0  0  0  # atno 7974 bound_to 7965
  155.1246  140.0399  157.2759 H   0  0  0  0  0  0  0  0  0  0  0  0  # atno 8008 bound_to 7997
  154.6588  140.2586  155.7106 H   0  0  0  0  0  0  0  0  0  0  0  0  # atno 8009 bound_to 7997
  156.2610  140.2821  156.1051 H   0  0  0  0  0  0  0  0  0  0  0  0  # atno 8010 bound_to 7997
  140.7253  143.3878  151.1484 H   0  0  0  0  0  0  0  0  0  0  0  0  # atno 10167 bound_to 10162
  156.8519  130.5557  149.5669 H   0  0  0  0  0  0  0  0  0  0  0  0  # atno 10718 bound_to 10713
  153.0181  135.5288  154.6962 H   0  0  0  0  0  0  0  0  0  0  0  0  # atno 10763 bound_to 10752
  154.6083  135.2875  155.0462 H   0  0  0  0  0  0  0  0  0  0  0  0  # atno 10764 bound_to 10752
  154.1493  135.6565  153.5012 H   0  0  0  0  0  0  0  0  0  0  0  0  # atno 10765 bound_to 10752
  140.6721  133.9227  155.8501 H   0  0  0  0  0  0  0  0  0  0  0  0  # atno 11005 bound_to 11000
  144.7440  139.7370  143.7299 LP  0  0  0  0  0  0  0  0  0  0  0  0  # atno 17320 bound_to 7965
  146.1788  139.4970  142.9880 LP  0  0  0  0  0  0  0  0  0  0  0  0  # atno 17321 bound_to 7965
  139.7478  143.8826  152.3068 LP  0  0  0  0  0  0  0  0  0  0  0  0  # atno 17342 bound_to 10162
  139.8669  144.7088  150.9034 LP  0  0  0  0  0  0  0  0  0  0  0  0  # atno 17343 bound_to 10162
  156.0823  130.5830  150.9586 LP  0  0  0  0  0  0  0  0  0  0  0  0  # atno 17370 bound_to 10713
  157.6298  131.0922  150.8463 LP  0  0  0  0  0  0  0  0  0  0  0  0  # atno 17371 bound_to 10713
  141.0383  134.0657  157.3932 LP  0  0  0  0  0  0  0  0  0  0  0  0  # atno 17394 bound_to 11000
  139.8978  135.0152  156.7118 LP  0  0  0  0  0  0  0  0  0  0  0  0  # atno 17395 bound_to 11000

$$$$
