AV-unprocessed.smi:2135|AV-procd|sdf|8701|dock8
  -GOLD-   2272011463D 1   1.00000     0.00000
 Structure written by MMmdl.
 43 44  0  0  0  0  0  0  0  0  2 V2000
  151.1310  142.6144  157.3245 C   0  0  0  0  0  0  0  0  0  0  0  0
  151.8424  141.3224  158.4237 S   0  0  0  0  0  0  0  0  0  0  0  0
  150.7654  140.8094  159.2844 O   0  0  0  0  0  0  0  0  0  0  0  0
  152.6175  140.3898  157.5913 O   0  0  0  0  0  0  0  0  0  0  0  0
  152.9638  142.1901  159.4330 N   0  0  0  0  0  0  0  0  0  0  0  0
  152.5378  143.4289  160.1155 C   0  0  0  0  0  0  0  0  0  0  0  0
  152.2300  143.1810  161.6028 C   0  0  0  0  0  0  0  0  0  0  0  0
  153.4088  142.5004  162.3081 C   0  0  0  0  0  0  0  0  0  0  0  0
  153.7627  141.1901  161.5821 C   0  0  2  0  0  0  0  0  0  0  0  0
  154.9474  140.4836  162.2543 C   0  0  0  0  0  0  0  0  0  0  0  0
  155.2753  139.3491  161.9049 O   0  0  0  0  0  0  0  0  0  0  0  0
  155.5793  141.1635  163.2238 N   0  0  0  0  0  0  0  0  0  0  0  0
  156.7140  140.6638  163.9906 C   0  0  0  0  0  0  0  0  0  0  0  0
  156.2921  140.2183  165.4004 C   0  0  0  0  0  0  0  0  0  0  0  0
  155.9162  141.3938  166.2806 C   0  0  0  0  0  0  0  0  0  0  0  0
  155.4998  141.1918  167.6150 C   0  0  0  0  0  0  0  0  0  0  0  0
  155.1519  142.3063  168.4066 C   0  0  0  0  0  0  0  0  0  0  0  0
  155.2274  143.5976  167.8452 C   0  0  0  0  0  0  0  0  0  0  0  0
  155.6301  143.7516  166.5647 N   0  3  0  0  0  0  0  0  0  0  0  0
  155.9723  142.7104  165.7745 C   0  0  0  0  0  0  0  0  0  0  0  0
  154.0718  141.4717  160.0950 C   0  0  0  0  0  0  0  0  0  0  0  0
  150.4245  142.1470  156.6390 H   0  0  0  0  0  0  0  0  0  0  0  0
  151.9233  143.0867  156.7466 H   0  0  0  0  0  0  0  0  0  0  0  0
  150.6049  143.3595  157.9182 H   0  0  0  0  0  0  0  0  0  0  0  0
  153.3403  144.1622  160.0276 H   0  0  0  0  0  0  0  0  0  0  0  0
  151.6714  143.8604  159.6152 H   0  0  0  0  0  0  0  0  0  0  0  0
  152.0036  144.1283  162.0929 H   0  0  0  0  0  0  0  0  0  0  0  0
  151.3371  142.5658  161.7054 H   0  0  0  0  0  0  0  0  0  0  0  0
  154.2650  143.1769  162.3187 H   0  0  0  0  0  0  0  0  0  0  0  0
  153.1517  142.3027  163.3495 H   0  0  0  0  0  0  0  0  0  0  0  0
  152.8989  140.5283  161.6424 H   0  0  0  0  0  0  0  0  0  0  0  0
  155.2472  142.0904  163.4481 H   0  0  0  0  0  0  0  0  0  0  0  0
  157.1907  139.8412  163.4546 H   0  0  0  0  0  0  0  0  0  0  0  0
  157.4551  141.4607  164.0584 H   0  0  0  0  0  0  0  0  0  0  0  0
  155.4483  139.5293  165.3391 H   0  0  0  0  0  0  0  0  0  0  0  0
  157.1013  139.6688  165.8834 H   0  0  0  0  0  0  0  0  0  0  0  0
  155.4461  140.1953  168.0289 H   0  0  0  0  0  0  0  0  0  0  0  0
  154.8312  142.1725  169.4295 H   0  0  0  0  0  0  0  0  0  0  0  0
  154.9797  144.5046  168.3775 H   0  0  0  0  0  0  0  0  0  0  0  0
  156.2765  142.9602  164.7681 H   0  0  0  0  0  0  0  0  0  0  0  0
  154.2845  140.5428  159.5658 H   0  0  0  0  0  0  0  0  0  0  0  0
  154.9707  142.0838  160.0082 H   0  0  0  0  0  0  0  0  0  0  0  0
  155.6777  144.6945  166.1774 H   0  0  0  0  0  0  0  0  0  0  0  0
  1  2  1  0  0  0  0
  1 22  1  0  0  0  0
  1 23  1  0  0  0  0
  1 24  1  0  0  0  0
  2  3  2  0  0  0  0
  2  4  2  0  0  0  0
  2  5  1  0  0  0  0
  5 21  1  0  0  0  0
  5  6  1  0  0  0  0
  6  7  1  0  0  0  0
  6 25  1  0  0  0  0
  6 26  1  0  0  0  0
  7  8  1  0  0  0  0
  7 27  1  0  0  0  0
  7 28  1  0  0  0  0
  8  9  1  0  0  0  0
  8 29  1  0  0  0  0
  8 30  1  0  0  0  0
  9 10  1  0  0  0  0
  9 21  1  0  0  0  0
  9 31  1  0  0  0  0
 10 11  2  0  0  0  0
 10 12  1  0  0  0  0
 12 13  1  0  0  0  0
 12 32  1  0  0  0  0
 13 14  1  0  0  0  0
 13 33  1  0  0  0  0
 13 34  1  0  0  0  0
 14 15  1  0  0  0  0
 14 35  1  0  0  0  0
 14 36  1  0  0  0  0
 15 20  1  0  0  0  0
 15 16  2  0  0  0  0
 16 17  1  0  0  0  0
 16 37  1  0  0  0  0
 17 18  2  0  0  0  0
 17 38  1  0  0  0  0
 18 19  1  0  0  0  0
 18 39  1  0  0  0  0
 19 20  2  0  0  0  0
 19 43  1  0  0  0  0
 20 40  1  0  0  0  0
 21 41  1  0  0  0  0
 21 42  1  0  0  0  0
M  CHG  1  19   1
M  END
> <s_m_source_file>
AV-unprocessed.smi

> <i_m_source_file_index>
2135

> <i_lp_mmshare_version>
43012

> <i_f3d_flags>
0

> <s_epik_input>
W0NIM11TKD1PKSg9TylOMVtDSDJdW0NIMl1bQ0gyXVtDQEhdKFtDSDJdMSlDKD1PKVtOSF1bQ0gyXVtDSDJdYzJbY0hdW2NIXVtjSF1uW2NIXTI=

> <s_epik_cmdline>
J2VwaWtfcHl0aG9uJywgJy1waCcsICc3LjAnLCAnLXRuJywgJzgnLCAnLW1hJywgJzIwMCcsICctbWV0YWxfYmluZGluZycsICctaW1hZScsICc8aW5maWxlLm1hZT4nLCAnLW9tYWUnLCAnPG91dGZpbGUubWFlPic=

> <r_epik_Ionization_Penalty>
2.24912

> <r_epik_Ionization_Penalty_Charging>
2.24912

> <r_epik_Ionization_Penalty_Neutral>
2.62834e-08

> <r_epik_State_Penalty>
2.39611

> <r_epik_Charging_Adjusted_Penalty>
4.64523

> <i_epik_Tot_Q>
1

> <i_epik_Tot_abs_Q>
1

> <r_epik_Metal_State_Penalty>
2.40934

> <b_epik_Metal_Only>
0

> <s_lp_Force_Field>
OPLS_2005

> <r_lp_Energy>
6.9467

> <b_lp_Chiralities_Consistent>
1

> <s_lp_Variant>
AV-unprocessed.smi:2135-4

> <Gold.Version>
5.8.1

> <Gold.Id.Protein>
6NUR|6NUR_protein|mol2

> <Gold.PLP.Fitness>
47.4098

> <Gold.PLP.PLP>
-46.7633

> <Gold.PLP.part.hbond>
-2.8930

> <Gold.PLP.part.metal>
0.0000

> <Gold.PLP.part.buried>
-3.4461

> <Gold.PLP.part.nonpolar>
-39.4042

> <Gold.PLP.part.repulsive>
0.0471

> <Gold.PLP.ligand.clash>
1.4891

> <Gold.PLP.ligand.torsion>
1.3842

> <Gold.PLP.Chemscore.Hbond>
0.9440

> <Gold.PLP.Chemscore.CHOScore>
0.0000

> <Gold.PLP.Chemscore.Metal>
0.0000

> <Gold.Chemscore.Hbonds>
donor molecule, donor type, donor heavy atom, donor atom, acceptor molecule, acceptor atom, score
      P1  H  7997  8010       L1     4  0.91

> <Gold.PLP.Chemscore.Internal.Correction>
2.0719

> <Gold.Rescore>
     Score         DG    S(hbond)    S(metal)    S(lipo)     H(rot)  DE(clash)    DE(int)     intcor
     14.41     -16.14       0.94        0.00     100.44       1.65       0.25       1.48       ----

> <Gold.Chemscore.Fitness>
14.4052

> <Gold.Chemscore.DG>
-16.1417

> <Gold.Chemscore.ZeroCoef>
-5.4800

> <Gold.Chemscore.Hbond>
0.9413

> <Gold.Chemscore.Metal>
0.0000

> <Gold.Chemscore.Lipo>
100.4390

> <Gold.Chemscore.Internal_Hbond>
0.0000

> <Gold.Chemscore.DEClash>
0.2523

> <Gold.Chemscore.DEInternal>
1.4842

> <Gold.Chemscore.Rot>
1.6538

> <Gold.Chemscore.Internal.Correction>
   9.000000E+99

> <Gold.Chemscore.Hbonds>
donor molecule, donor type, donor heavy atom, donor atom, acceptor molecule, acceptor atom, score
      P1  H  7997  8010       L1     4  0.86

> <Gold.Chemscore.Hbond.Weighted>
-3.1440

> <Gold.Chemscore.Metal.Weighted>
-0.0000

> <Gold.Chemscore.Lipo.Weighted>
-11.7514

> <Gold.Chemscore.Internal_Hbond.Weighted>
0.0000

> <Gold.Chemscore.DEClash.Weighted>
0.2523

> <Gold.Chemscore.DEInternal.Weighted>
1.4842

> <Gold.Chemscore.Rot.Weighted>
4.2337

> <Gold.Chemscore.Internal.Correction.Weighted>
   9.000000E+99

> <Gold.Protein.RotatedTorsions>
[ 6907 6896 6895 6894 ] final -131.52 input  -60.11 | X-H torsion
[ 7974 7965 7964 7962 ] final   53.76 input  175.53 | X-H torsion
[ 8008 7997 7996 7995 ] final   53.54 input   59.86 | X-H torsion
[ 10167 10162 10161 10158 ] final  104.96 input  -65.29 | X-H torsion
[ 10718 10713 10712 10709 ] final -119.74 input   66.30 | X-H torsion
[ 10763 10752 10751 10750 ] final   74.59 input  -60.55 | X-H torsion
[ 11005 11000 10999 10996 ] final -172.40 input  -57.11 | X-H torsion

> <Gold.Protein.ActiveResidues>
 VAL166  LYS551  ARG553  GLY616  TRP617  ASP618  TYR619  PRO620  LYS621  CYS622 
 ASP623  PHE694  ASN695  SER759  ASP760  ASP761  ALA762  ILE779  LEU786  VAL792 
 PHE793  MET794  SER795  GLU796  ALA797  LYS798  CYS799  TRP800  GLU811  SER814 

> <Gold.Protein.RotatedAtoms>
  150.9519  133.6540  159.2770 H   0  0  0  0  0  0  0  0  0  0  0  0  # atno 6907 bound_to 6896
  151.3893  135.0952  159.9531 H   0  0  0  0  0  0  0  0  0  0  0  0  # atno 6908 bound_to 6896
  152.5113  133.9037  159.7508 H   0  0  0  0  0  0  0  0  0  0  0  0  # atno 6909 bound_to 6896
  145.9678  139.4120  143.0208 H   0  0  0  0  0  0  0  0  0  0  0  0  # atno 7974 bound_to 7965
  155.4699  140.3465  155.4324 H   0  0  0  0  0  0  0  0  0  0  0  0  # atno 8008 bound_to 7997
  156.1107  140.1460  156.9371 H   0  0  0  0  0  0  0  0  0  0  0  0  # atno 8009 bound_to 7997
  154.4754  140.0887  156.7228 H   0  0  0  0  0  0  0  0  0  0  0  0  # atno 8010 bound_to 7997
  139.7133  144.7073  151.0991 H   0  0  0  0  0  0  0  0  0  0  0  0  # atno 10167 bound_to 10162
  156.1204  130.6318  150.9453 H   0  0  0  0  0  0  0  0  0  0  0  0  # atno 10718 bound_to 10713
  153.0597  135.5020  154.8065 H   0  0  0  0  0  0  0  0  0  0  0  0  # atno 10763 bound_to 10752
  154.6863  135.2977  154.9544 H   0  0  0  0  0  0  0  0  0  0  0  0  # atno 10764 bound_to 10752
  154.0314  135.6729  153.4834 H   0  0  0  0  0  0  0  0  0  0  0  0  # atno 10765 bound_to 10752
  140.4974  134.5926  157.4976 H   0  0  0  0  0  0  0  0  0  0  0  0  # atno 11005 bound_to 11000
  145.7949  140.9798  143.1029 LP  0  0  0  0  0  0  0  0  0  0  0  0  # atno 17320 bound_to 7965
  144.6830  139.9728  143.7482 LP  0  0  0  0  0  0  0  0  0  0  0  0  # atno 17321 bound_to 7965
  140.7738  143.5264  150.9475 LP  0  0  0  0  0  0  0  0  0  0  0  0  # atno 17342 bound_to 10162
  139.8949  143.6907  152.3140 LP  0  0  0  0  0  0  0  0  0  0  0  0  # atno 17343 bound_to 10162
  157.6387  131.0913  150.8295 LP  0  0  0  0  0  0  0  0  0  0  0  0  # atno 17370 bound_to 10713
  156.8393  130.5042  149.5323 LP  0  0  0  0  0  0  0  0  0  0  0  0  # atno 17371 bound_to 10713
  139.9733  134.7257  155.9998 LP  0  0  0  0  0  0  0  0  0  0  0  0  # atno 17394 bound_to 11000
  141.1453  133.6557  156.3849 LP  0  0  0  0  0  0  0  0  0  0  0  0  # atno 17395 bound_to 11000

$$$$
