AV-unprocessed.smi:2563|AV-procd|sdf|10060|dock8
  -GOLD-   2272014 93D 1   1.00000     0.00000
 Structure written by MMmdl.
 34 35  0  0  0  0  0  0  0  0  1 V2000
  153.0369  144.5637  157.9108 C   0  0  0  0  0  0  0  0  0  0  0  0
  151.9856  143.7568  157.1376 C   0  0  0  0  0  0  0  0  0  0  0  0
  151.2954  142.7892  157.9907 N   0  0  0  0  0  0  0  0  0  0  0  0
  150.2546  141.9509  157.3980 C   0  0  0  0  0  0  0  0  0  0  0  0
  150.7991  141.0351  156.2876 C   0  0  2  0  0  0  0  0  0  0  0  0
  149.8158  140.9359  155.1043 C   0  0  0  0  0  0  0  0  0  0  0  0
  150.3236  140.0090  154.0937 N   0  0  0  0  0  0  0  0  0  0  0  0
  150.6065  138.6971  154.6724 C   0  0  0  0  0  0  0  0  0  0  0  0
  151.5554  138.8388  155.8748 C   0  0  0  0  0  0  0  0  0  0  0  0
  150.9813  139.7277  156.8266 O   0  0  0  0  0  0  0  0  0  0  0  0
  151.6859  142.6124  159.3405 C   0  0  0  0  0  0  0  0  0  0  0  0
  152.7857  141.7946  159.7002 C   0  0  0  0  0  0  0  0  0  0  0  0
  153.1061  141.6735  161.0630 C   0  0  0  0  0  0  0  0  0  0  0  0
  152.3075  142.3772  161.9797 C   0  0  0  0  0  0  0  0  0  0  0  0
  151.2671  143.1459  161.5935 N   0  0  0  0  0  0  0  0  0  0  0  0
  150.9655  143.2576  160.2956 N   0  0  0  0  0  0  0  0  0  0  0  0
  153.5484  145.2635  157.2498 H   0  0  0  0  0  0  0  0  0  0  0  0
  153.7918  143.9121  158.3516 H   0  0  0  0  0  0  0  0  0  0  0  0
  152.5811  145.1414  158.7154 H   0  0  0  0  0  0  0  0  0  0  0  0
  151.2746  144.4245  156.6504 H   0  0  0  0  0  0  0  0  0  0  0  0
  152.4777  143.2173  156.3280 H   0  0  0  0  0  0  0  0  0  0  0  0
  149.7961  141.3413  158.1777 H   0  0  0  0  0  0  0  0  0  0  0  0
  149.4488  142.5791  157.0185 H   0  0  0  0  0  0  0  0  0  0  0  0
  151.7552  141.4226  155.9303 H   0  0  0  0  0  0  0  0  0  0  0  0
  148.8413  140.5987  155.4604 H   0  0  0  0  0  0  0  0  0  0  0  0
  149.6635  141.9203  154.6607 H   0  0  0  0  0  0  0  0  0  0  0  0
  149.6428  139.9119  153.3472 H   0  0  0  0  0  0  0  0  0  0  0  0
  149.6770  138.2254  154.9934 H   0  0  0  0  0  0  0  0  0  0  0  0
  151.0475  138.0421  153.9208 H   0  0  0  0  0  0  0  0  0  0  0  0
  151.7101  137.8686  156.3469 H   0  0  0  0  0  0  0  0  0  0  0  0
  152.5361  139.2003  155.5616 H   0  0  0  0  0  0  0  0  0  0  0  0
  153.3761  141.2593  158.9727 H   0  0  0  0  0  0  0  0  0  0  0  0
  153.9324  141.0618  161.3928 H   0  0  0  0  0  0  0  0  0  0  0  0
  152.5041  142.3224  163.0402 H   0  0  0  0  0  0  0  0  0  0  0  0
  1  2  1  0  0  0  0
  1 17  1  0  0  0  0
  1 18  1  0  0  0  0
  1 19  1  0  0  0  0
  2  3  1  0  0  0  0
  2 20  1  0  0  0  0
  2 21  1  0  0  0  0
  3  4  1  0  0  0  0
  3 11  1  0  0  0  0
  4  5  1  0  0  0  0
  4 22  1  0  0  0  0
  4 23  1  0  0  0  0
  5 10  1  0  0  0  0
  5  6  1  0  0  0  0
  5 24  1  0  0  0  0
  6  7  1  0  0  0  0
  6 25  1  0  0  0  0
  6 26  1  0  0  0  0
  7  8  1  0  0  0  0
  7 27  1  0  0  0  0
  8  9  1  0  0  0  0
  8 28  1  0  0  0  0
  8 29  1  0  0  0  0
  9 10  1  0  0  0  0
  9 30  1  0  0  0  0
  9 31  1  0  0  0  0
 11 16  1  0  0  0  0
 11 12  2  0  0  0  0
 12 13  1  0  0  0  0
 12 32  1  0  0  0  0
 13 14  2  0  0  0  0
 13 33  1  0  0  0  0
 14 15  1  0  0  0  0
 14 34  1  0  0  0  0
 15 16  2  0  0  0  0
M  END
> <s_m_source_file>
AV-unprocessed.smi

> <i_m_source_file_index>
2563

> <i_lp_mmshare_version>
43012

> <i_f3d_flags>
0

> <s_epik_input>
bjFuW2NIXVtjSF1bY0hdYzFOKFtDSDJdW0NIM10pW0NIMl1bQ0BASF0yW0NIMl1bTkhdW0NIMl1bQ0gyXU8y

> <s_epik_cmdline>
J2VwaWtfcHl0aG9uJywgJy1waCcsICc3LjAnLCAnLXRuJywgJzgnLCAnLW1hJywgJzIwMCcsICctbWV0YWxfYmluZGluZycsICctaW1hZScsICc8aW5maWxlLm1hZT4nLCAnLW9tYWUnLCAnPG91dGZpbGUubWFlPic=

> <r_lp_tautomer_probability>
1

> <r_epik_Ionization_Penalty>
2.34719

> <r_epik_Ionization_Penalty_Charging>
0

> <r_epik_Ionization_Penalty_Neutral>
2.34719

> <r_epik_State_Penalty>
2.60452

> <r_epik_Charging_Adjusted_Penalty>
2.60452

> <i_epik_Tot_Q>
0

> <i_epik_Tot_abs_Q>
0

> <r_epik_Metal_State_Penalty>
2.56937

> <b_epik_Metal_Only>
0

> <s_lp_Force_Field>
OPLS_2005

> <r_lp_Energy>
25.5001

> <b_lp_Chiralities_Consistent>
1

> <s_lp_Variant>
AV-unprocessed.smi:2563-5

> <Gold.Version>
5.8.1

> <Gold.Id.Protein>
6NUR|6NUR_protein|mol2

> <Gold.PLP.Fitness>
43.2010

> <Gold.PLP.PLP>
-41.9153

> <Gold.PLP.part.hbond>
-3.7210

> <Gold.PLP.part.metal>
0.0000

> <Gold.PLP.part.buried>
-4.7646

> <Gold.PLP.part.nonpolar>
-34.1600

> <Gold.PLP.part.repulsive>
0.2085

> <Gold.PLP.ligand.clash>
0.0000

> <Gold.PLP.ligand.torsion>
2.0744

> <Gold.PLP.Chemscore.Hbond>
1.7989

> <Gold.PLP.Chemscore.CHOScore>
0.0000

> <Gold.PLP.Chemscore.Metal>
0.0000

> <Gold.Chemscore.Hbonds>
donor molecule, donor type, donor heavy atom, donor atom, acceptor molecule, acceptor atom, score
      L1  H     7    27       P1  7957  0.45
      P1  H  6933  6945       L1    15  0.23
      P1  H  7989  7998       L1     7  1.00

> <Gold.PLP.Chemscore.Internal.Correction>
0.0377

> <Gold.Rescore>
     Score         DG    S(hbond)    S(metal)    S(lipo)     H(rot)  DE(clash)    DE(int)     intcor
     12.67     -15.93       0.83        0.00      95.41       1.36       0.15       3.10       ----

> <Gold.Chemscore.Fitness>
12.6736

> <Gold.Chemscore.DG>
-15.9282

> <Gold.Chemscore.ZeroCoef>
-5.4800

> <Gold.Chemscore.Hbond>
0.8297

> <Gold.Chemscore.Metal>
0.0000

> <Gold.Chemscore.Lipo>
95.4100

> <Gold.Chemscore.Internal_Hbond>
0.0000

> <Gold.Chemscore.DEClash>
0.1503

> <Gold.Chemscore.DEInternal>
3.1043

> <Gold.Chemscore.Rot>
1.3618

> <Gold.Chemscore.Internal.Correction>
   9.000000E+99

> <Gold.Chemscore.Hbonds>
donor molecule, donor type, donor heavy atom, donor atom, acceptor molecule, acceptor atom, score
      L1  H     7    27       P1  7957  0.45
      P1  H  7989  7998       L1     7  0.17

> <Gold.Chemscore.Hbond.Weighted>
-2.7713

> <Gold.Chemscore.Metal.Weighted>
-0.0000

> <Gold.Chemscore.Lipo.Weighted>
-11.1630

> <Gold.Chemscore.Internal_Hbond.Weighted>
0.0000

> <Gold.Chemscore.DEClash.Weighted>
0.1503

> <Gold.Chemscore.DEInternal.Weighted>
3.1043

> <Gold.Chemscore.Rot.Weighted>
3.4861

> <Gold.Chemscore.Internal.Correction.Weighted>
   9.000000E+99

> <Gold.Protein.RotatedTorsions>
[ 6907 6896 6895 6894 ] final  106.00 input  -60.11 | X-H torsion
[ 7974 7965 7964 7962 ] final   58.24 input  175.53 | X-H torsion
[ 8008 7997 7996 7995 ] final -148.54 input   59.86 | X-H torsion
[ 10167 10162 10161 10158 ] final  140.25 input  -65.29 | X-H torsion
[ 10718 10713 10712 10709 ] final  127.26 input   66.30 | X-H torsion
[ 10763 10752 10751 10750 ] final  -53.44 input  -60.55 | X-H torsion
[ 11005 11000 10999 10996 ] final   85.87 input  -57.11 | X-H torsion

> <Gold.Protein.ActiveResidues>
 VAL166  LYS551  ARG553  GLY616  TRP617  ASP618  TYR619  PRO620  LYS621  CYS622 
 ASP623  PHE694  ASN695  SER759  ASP760  ASP761  ALA762  ILE779  LEU786  VAL792 
 PHE793  MET794  SER795  GLU796  ALA797  LYS798  CYS799  TRP800  GLU811  SER814 

> <Gold.Protein.RotatedAtoms>
  152.5210  133.9446  159.7642 H   0  0  0  0  0  0  0  0  0  0  0  0  # atno 6907 bound_to 6896
  150.9769  133.6278  159.2736 H   0  0  0  0  0  0  0  0  0  0  0  0  # atno 6908 bound_to 6896
  151.3469  135.0882  159.9443 H   0  0  0  0  0  0  0  0  0  0  0  0  # atno 6909 bound_to 6896
  145.9203  139.3724  143.0482 H   0  0  0  0  0  0  0  0  0  0  0  0  # atno 7974 bound_to 7965
  155.5933  140.0655  157.2753 H   0  0  0  0  0  0  0  0  0  0  0  0  # atno 8008 bound_to 7997
  154.4299  140.1831  156.1144 H   0  0  0  0  0  0  0  0  0  0  0  0  # atno 8009 bound_to 7997
  156.0216  140.3316  155.7048 H   0  0  0  0  0  0  0  0  0  0  0  0  # atno 8010 bound_to 7997
  139.5054  144.6245  151.5970 H   0  0  0  0  0  0  0  0  0  0  0  0  # atno 10167 bound_to 10162
  157.5348  131.1098  150.8952 H   0  0  0  0  0  0  0  0  0  0  0  0  # atno 10718 bound_to 10713
  154.1589  135.6478  153.4981 H   0  0  0  0  0  0  0  0  0  0  0  0  # atno 10763 bound_to 10752
  153.0116  135.5356  154.6731 H   0  0  0  0  0  0  0  0  0  0  0  0  # atno 10764 bound_to 10752
  154.6039  135.2946  155.0477 H   0  0  0  0  0  0  0  0  0  0  0  0  # atno 10765 bound_to 10752
  139.8960  134.8316  156.2641 H   0  0  0  0  0  0  0  0  0  0  0  0  # atno 11005 bound_to 11000
  145.8558  140.9503  143.0726 LP  0  0  0  0  0  0  0  0  0  0  0  0  # atno 17320 bound_to 7965
  144.6752  140.0466  143.7479 LP  0  0  0  0  0  0  0  0  0  0  0  0  # atno 17321 bound_to 7965
  140.5958  143.9699  150.6353 LP  0  0  0  0  0  0  0  0  0  0  0  0  # atno 17342 bound_to 10162
  140.2894  143.3335  152.1077 LP  0  0  0  0  0  0  0  0  0  0  0  0  # atno 17343 bound_to 10162
  156.9522  130.5424  149.5283 LP  0  0  0  0  0  0  0  0  0  0  0  0  # atno 17370 bound_to 10713
  156.0450  130.5528  150.8860 LP  0  0  0  0  0  0  0  0  0  0  0  0  # atno 17371 bound_to 10713
  141.0143  133.7077  156.1163 LP  0  0  0  0  0  0  0  0  0  0  0  0  # atno 17394 bound_to 11000
  140.7323  134.4241  157.5564 LP  0  0  0  0  0  0  0  0  0  0  0  0  # atno 17395 bound_to 11000

$$$$
