AV-unprocessed.smi:252|AV-procd|sdf|1943|dock6
  -GOLD-   2262021 73D 1   1.00000     0.00000
 Structure written by MMmdl.
 56 59  0  0  0  0  0  0  0  0  1 V2000
  155.2322  143.0403  165.4828 C   0  0  0  0  0  0  0  0  0  0  0  0
  154.8722  142.0747  164.3425 C   0  0  0  0  0  0  0  0  0  0  0  0
  153.7977  142.6168  163.3943 C   0  0  0  0  0  0  0  0  0  0  0  0
  153.0948  143.5761  163.7146 O   0  0  0  0  0  0  0  0  0  0  0  0
  153.6821  141.9816  162.2180 N   0  0  0  0  0  0  0  0  0  0  0  0
  152.7225  142.3157  161.1707 C   0  0  1  0  0  0  0  0  0  0  0  0
  152.8618  143.8009  160.7914 C   0  0  0  0  0  0  0  0  0  0  0  0
  151.9203  144.1481  159.6282 C   0  0  0  0  0  0  0  0  0  0  0  0
  152.1582  143.2157  158.4300 C   0  0  0  0  0  0  0  0  0  0  0  0
  152.0576  141.8138  158.8339 N   0  0  0  0  0  0  0  0  0  0  0  0
  151.9038  140.9386  157.8079 C   0  0  0  0  0  0  0  0  0  0  0  0
  152.7031  139.8410  157.7259 N   0  0  0  0  0  0  0  0  0  0  0  0
  152.5654  138.9790  156.7145 C   0  0  0  0  0  0  0  0  0  0  0  0
  151.7081  139.0211  155.6933 N   0  0  0  0  0  0  0  0  0  0  0  0
  150.8999  140.1168  155.7707 C   0  0  0  0  0  0  0  0  0  0  0  0
  150.9266  141.1134  156.7872 C   0  0  0  0  0  0  0  0  0  0  0  0
  149.9397  142.0617  156.5446 N   0  0  0  0  0  0  0  0  0  0  0  0
  149.3685  141.6537  155.4448 C   0  0  0  0  0  0  0  0  0  0  0  0
  149.8923  140.5015  154.9032 N   0  0  0  0  0  0  0  0  0  0  0  0
  149.4513  139.8306  153.6901 C   0  0  0  0  0  0  0  0  0  0  0  0
  148.2267  138.8954  153.8929 C   0  0  2  0  0  0  0  0  0  0  0  0
  147.8064  138.3834  152.6424 O   0  0  0  0  0  0  0  0  0  0  0  0
  147.0403  139.5669  154.5746 C   0  0  0  0  0  0  0  0  0  0  0  0
  147.4078  139.4664  156.0519 C   0  0  0  0  0  0  0  0  0  0  0  0
  148.1813  138.2762  156.1749 O   0  0  0  0  0  0  0  0  0  0  0  0
  148.4748  137.7429  154.8858 C   0  0  2  0  0  0  0  0  0  0  0  0
  149.8702  137.1014  154.8669 C   0  0  0  0  0  0  0  0  0  0  0  0
  152.9389  141.4191  159.9344 C   0  0  0  0  0  0  0  0  0  0  0  0
  155.9810  142.5979  166.1401 H   0  0  0  0  0  0  0  0  0  0  0  0
  154.3595  143.2799  166.0918 H   0  0  0  0  0  0  0  0  0  0  0  0
  155.6436  143.9745  165.0989 H   0  0  0  0  0  0  0  0  0  0  0  0
  155.7655  141.8452  163.7608 H   0  0  0  0  0  0  0  0  0  0  0  0
  154.5215  141.1325  164.7657 H   0  0  0  0  0  0  0  0  0  0  0  0
  154.3005  141.2044  162.0369 H   0  0  0  0  0  0  0  0  0  0  0  0
  151.7111  142.1564  161.5501 H   0  0  0  0  0  0  0  0  0  0  0  0
  152.6398  144.4341  161.6514 H   0  0  0  0  0  0  0  0  0  0  0  0
  153.8913  144.0164  160.5015 H   0  0  0  0  0  0  0  0  0  0  0  0
  150.8843  144.0600  159.9577 H   0  0  0  0  0  0  0  0  0  0  0  0
  152.0635  145.1859  159.3266 H   0  0  0  0  0  0  0  0  0  0  0  0
  151.4473  143.4569  157.6405 H   0  0  0  0  0  0  0  0  0  0  0  0
  153.1525  143.3892  158.0168 H   0  0  0  0  0  0  0  0  0  0  0  0
  153.2395  138.1352  156.7240 H   0  0  0  0  0  0  0  0  0  0  0  0
  148.5477  142.1897  154.9907 H   0  0  0  0  0  0  0  0  0  0  0  0
  149.2241  140.5980  152.9493 H   0  0  0  0  0  0  0  0  0  0  0  0
  150.2970  139.2684  153.2924 H   0  0  0  0  0  0  0  0  0  0  0  0
  148.2440  138.8656  151.9577 H   0  0  0  0  0  0  0  0  0  0  0  0
  146.8401  140.5869  154.2493 H   0  0  0  0  0  0  0  0  0  0  0  0
  146.1295  138.9911  154.4003 H   0  0  0  0  0  0  0  0  0  0  0  0
  148.0220  140.3155  156.3533 H   0  0  0  0  0  0  0  0  0  0  0  0
  146.5289  139.4391  156.6965 H   0  0  0  0  0  0  0  0  0  0  0  0
  147.7336  136.9613  154.7080 H   0  0  0  0  0  0  0  0  0  0  0  0
  150.1146  136.7237  153.8737 H   0  0  0  0  0  0  0  0  0  0  0  0
  149.9168  136.2625  155.5615 H   0  0  0  0  0  0  0  0  0  0  0  0
  150.6448  137.8096  155.1606 H   0  0  0  0  0  0  0  0  0  0  0  0
  153.9761  141.4850  159.6017 H   0  0  0  0  0  0  0  0  0  0  0  0
  152.7517  140.3779  160.2013 H   0  0  0  0  0  0  0  0  0  0  0  0
  1  2  1  0  0  0  0
  1 29  1  0  0  0  0
  1 30  1  0  0  0  0
  1 31  1  0  0  0  0
  2  3  1  0  0  0  0
  2 32  1  0  0  0  0
  2 33  1  0  0  0  0
  3  4  2  0  0  0  0
  3  5  1  0  0  0  0
  5  6  1  0  0  0  0
  5 34  1  0  0  0  0
  6 28  1  0  0  0  0
  6  7  1  0  0  0  0
  6 35  1  0  0  0  0
  7  8  1  0  0  0  0
  7 36  1  0  0  0  0
  7 37  1  0  0  0  0
  8  9  1  0  0  0  0
  8 38  1  0  0  0  0
  8 39  1  0  0  0  0
  9 10  1  0  0  0  0
  9 40  1  0  0  0  0
  9 41  1  0  0  0  0
 10 11  1  0  0  0  0
 10 28  1  0  0  0  0
 11 16  1  0  0  0  0
 11 12  2  0  0  0  0
 12 13  1  0  0  0  0
 13 14  2  0  0  0  0
 13 42  1  0  0  0  0
 14 15  1  0  0  0  0
 15 19  1  0  0  0  0
 15 16  2  0  0  0  0
 16 17  1  0  0  0  0
 17 18  2  0  0  0  0
 18 19  1  0  0  0  0
 18 43  1  0  0  0  0
 19 20  1  0  0  0  0
 20 21  1  0  0  0  0
 20 44  1  0  0  0  0
 20 45  1  0  0  0  0
 21 26  1  0  0  0  0
 21 22  1  0  0  0  0
 21 23  1  0  0  0  0
 22 46  1  0  0  0  0
 23 24  1  0  0  0  0
 23 47  1  0  0  0  0
 23 48  1  0  0  0  0
 24 25  1  0  0  0  0
 24 49  1  0  0  0  0
 24 50  1  0  0  0  0
 25 26  1  0  0  0  0
 26 27  1  0  0  0  0
 26 51  1  0  0  0  0
 27 52  1  0  0  0  0
 27 53  1  0  0  0  0
 27 54  1  0  0  0  0
 28 55  1  0  0  0  0
 28 56  1  0  0  0  0
M  END
> <s_m_source_file>
AV-unprocessed.smi

> <i_m_source_file_index>
252

> <i_lp_mmshare_version>
43012

> <i_f3d_flags>
0

> <s_epik_input>
W0NIM11bQ0gyXUMoPU8pW05IXVtDQEBIXTFbQ0gyXVtDSDJdW0NIMl1OKFtDSDJdMSljKG5bY0hdbjIpYyhjMjMpbltjSF1uM1tDSDJdW0NAQF00KFtPSF0pW0NIMl1bQ0gyXU9bQ0BIXTRbQ0gzXQ==

> <s_epik_cmdline>
J2VwaWtfcHl0aG9uJywgJy1waCcsICc3LjAnLCAnLXRuJywgJzgnLCAnLW1hJywgJzIwMCcsICctbWV0YWxfYmluZGluZycsICctaW1hZScsICc8aW5maWxlLm1hZT4nLCAnLW9tYWUnLCAnPG91dGZpbGUubWFlPic=

> <r_lp_tautomer_probability>
1

> <r_epik_Ionization_Penalty>
0.00182575

> <r_epik_Ionization_Penalty_Charging>
0

> <r_epik_Ionization_Penalty_Neutral>
0.00182575

> <r_epik_State_Penalty>
0.00104524

> <r_epik_Charging_Adjusted_Penalty>
0.00104524

> <i_epik_Tot_Q>
0

> <i_epik_Tot_abs_Q>
0

> <r_epik_Metal_State_Penalty>
-0

> <b_epik_Metal_Only>
0

> <s_lp_Force_Field>
OPLS_2005

> <r_lp_Energy>
35.9235

> <b_lp_Chiralities_Consistent>
1

> <s_lp_Variant>
AV-unprocessed.smi:252-8

> <Gold.Version>
5.8.1

> <Gold.Id.Protein>
6NUR|6NUR_protein|mol2

> <Gold.PLP.Fitness>
47.6938

> <Gold.PLP.PLP>
-43.8473

> <Gold.PLP.part.hbond>
-3.2218

> <Gold.PLP.part.metal>
0.0000

> <Gold.PLP.part.buried>
1.7585

> <Gold.PLP.part.nonpolar>
-42.1210

> <Gold.PLP.part.repulsive>
1.5752

> <Gold.PLP.ligand.clash>
0.0162

> <Gold.PLP.ligand.torsion>
0.7647

> <Gold.PLP.Chemscore.Hbond>
1.2248

> <Gold.PLP.Chemscore.CHOScore>
0.4349

> <Gold.PLP.Chemscore.Metal>
0.0000

> <Gold.Chemscore.Hbonds>
donor molecule, donor type, donor heavy atom, donor atom, acceptor molecule, acceptor atom, score
      L1  H    22    46       P1  7957  1.00
      P1  H  7997  8008       L1    12  0.20
      L1  C    18    43       P1  8028  0.41

> <Gold.PLP.Chemscore.Internal.Correction>
0.4127

> <Gold.Rescore>
     Score         DG    S(hbond)    S(metal)    S(lipo)     H(rot)  DE(clash)    DE(int)     intcor
      5.79     -14.26       0.98        0.00     106.37       2.70       2.37       6.11       ----

> <Gold.Chemscore.Fitness>
5.7893

> <Gold.Chemscore.DG>
-14.2629

> <Gold.Chemscore.ZeroCoef>
-5.4800

> <Gold.Chemscore.Hbond>
0.9760

> <Gold.Chemscore.Metal>
0.0000

> <Gold.Chemscore.Lipo>
106.3728

> <Gold.Chemscore.Internal_Hbond>
0.0000

> <Gold.Chemscore.DEClash>
2.3666

> <Gold.Chemscore.DEInternal>
6.1071

> <Gold.Chemscore.Rot>
2.7041

> <Gold.Chemscore.Internal.Correction>
   9.000000E+99

> <Gold.Chemscore.Hbonds>
donor molecule, donor type, donor heavy atom, donor atom, acceptor molecule, acceptor atom, score
      L1  H    22    46       P1  7957  0.93

> <Gold.Chemscore.Hbond.Weighted>
-3.2598

> <Gold.Chemscore.Metal.Weighted>
-0.0000

> <Gold.Chemscore.Lipo.Weighted>
-12.4456

> <Gold.Chemscore.Internal_Hbond.Weighted>
0.0000

> <Gold.Chemscore.DEClash.Weighted>
2.3666

> <Gold.Chemscore.DEInternal.Weighted>
6.1071

> <Gold.Chemscore.Rot.Weighted>
6.9225

> <Gold.Chemscore.Internal.Correction.Weighted>
   9.000000E+99

> <Gold.Protein.RotatedTorsions>
[ 6907 6896 6895 6894 ] final -118.10 input  -60.11 | X-H torsion
[ 7974 7965 7964 7962 ] final   -6.97 input  175.53 | X-H torsion
[ 8008 7997 7996 7995 ] final  -98.88 input   59.86 | X-H torsion
[ 10167 10162 10161 10158 ] final   90.66 input  -65.29 | X-H torsion
[ 10718 10713 10712 10709 ] final -160.10 input   66.30 | X-H torsion
[ 10763 10752 10751 10750 ] final   66.37 input  -60.55 | X-H torsion
[ 11005 11000 10999 10996 ] final  -12.29 input  -57.11 | X-H torsion

> <Gold.Protein.ActiveResidues>
 VAL166  LYS551  ARG553  GLY616  TRP617  ASP618  TYR619  PRO620  LYS621  CYS622 
 ASP623  PHE694  ASN695  SER759  ASP760  ASP761  ALA762  ILE779  LEU786  VAL792 
 PHE793  MET794  SER795  GLU796  ALA797  LYS798  CYS799  TRP800  GLU811  SER814 

> <Gold.Protein.RotatedAtoms>
  150.8191  133.8284  159.3146 H   0  0  0  0  0  0  0  0  0  0  0  0  # atno 6907 bound_to 6896
  151.6048  135.1043  160.0077 H   0  0  0  0  0  0  0  0  0  0  0  0  # atno 6908 bound_to 6896
  152.4281  133.7189  159.6578 H   0  0  0  0  0  0  0  0  0  0  0  0  # atno 6909 bound_to 6896
  146.2318  140.2250  142.8338 H   0  0  0  0  0  0  0  0  0  0  0  0  # atno 7974 bound_to 7965
  154.8073  140.0452  157.1317 H   0  0  0  0  0  0  0  0  0  0  0  0  # atno 8008 bound_to 7997
  154.9409  140.3052  155.5101 H   0  0  0  0  0  0  0  0  0  0  0  0  # atno 8009 bound_to 7997
  156.2968  140.2305  156.4478 H   0  0  0  0  0  0  0  0  0  0  0  0  # atno 8010 bound_to 7997
  139.8451  144.6622  150.9237 H   0  0  0  0  0  0  0  0  0  0  0  0  # atno 10167 bound_to 10162
  156.5774  130.8714  151.2855 H   0  0  0  0  0  0  0  0  0  0  0  0  # atno 10718 bound_to 10713
  153.0137  135.5323  154.6814 H   0  0  0  0  0  0  0  0  0  0  0  0  # atno 10763 bound_to 10752
  154.5973  135.2864  155.0575 H   0  0  0  0  0  0  0  0  0  0  0  0  # atno 10764 bound_to 10752
  154.1646  135.6542  153.5046 H   0  0  0  0  0  0  0  0  0  0  0  0  # atno 10765 bound_to 10752
  140.7642  133.8490  155.9150 H   0  0  0  0  0  0  0  0  0  0  0  0  # atno 11005 bound_to 11000
  144.9602  140.8267  143.5518 LP  0  0  0  0  0  0  0  0  0  0  0  0  # atno 17320 bound_to 7965
  145.2220  139.2154  143.5088 LP  0  0  0  0  0  0  0  0  0  0  0  0  # atno 17321 bound_to 7965
  140.7794  143.3877  151.1364 LP  0  0  0  0  0  0  0  0  0  0  0  0  # atno 17342 bound_to 10162
  139.7520  143.8764  152.3079 LP  0  0  0  0  0  0  0  0  0  0  0  0  # atno 17343 bound_to 10162
  157.7334  130.9730  150.1978 LP  0  0  0  0  0  0  0  0  0  0  0  0  # atno 17370 bound_to 10713
  156.2661  130.3716  149.8079 LP  0  0  0  0  0  0  0  0  0  0  0  0  # atno 17371 bound_to 10713
  140.9635  134.1625  157.4635 LP  0  0  0  0  0  0  0  0  0  0  0  0  # atno 17394 bound_to 11000
  139.8766  134.9953  156.5737 LP  0  0  0  0  0  0  0  0  0  0  0  0  # atno 17395 bound_to 11000

$$$$
