AV-unprocessed.smi:884|AV-procd|sdf|4042|dock3
  -GOLD-   22720 1533D 1   1.00000     0.00000
 Structure written by MMmdl.
 47 49  0  0  0  0  0  0  0  0  1 V2000
  150.2406  140.1488  154.4713 O   0  0  0  0  0  0  0  0  0  0  0  0
  149.4883  141.1100  154.6376 C   0  0  0  0  0  0  0  0  0  0  0  0
  149.7742  142.1038  155.4972 N   0  0  0  0  0  0  0  0  0  0  0  0
  150.9361  142.1620  156.3810 C   0  0  0  0  0  0  0  0  0  0  0  0
  150.5387  142.1647  157.8694 C   0  0  0  0  0  0  0  0  0  0  0  0
  150.9202  143.4362  158.6107 C   0  0  0  0  0  0  0  0  0  0  0  0
  151.5867  144.4839  157.9408 C   0  0  0  0  0  0  0  0  0  0  0  0
  151.9350  145.6349  158.6740 C   0  0  0  0  0  0  0  0  0  0  0  0
  151.6024  145.6951  160.0410 C   0  0  0  0  0  0  0  0  0  0  0  0
  150.9375  144.5950  160.6179 C   0  0  0  0  0  0  0  0  0  0  0  0
  150.6058  143.4837  159.9257 N   0  0  0  0  0  0  0  0  0  0  0  0
  148.3042  141.2436  153.9857 N   0  0  0  0  0  0  0  0  0  0  0  0
  147.2376  142.2026  154.3117 C   0  0  0  0  0  0  0  0  0  0  0  0
  146.1306  141.4710  155.0818 C   0  0  0  0  0  0  0  0  0  0  0  0
  145.3786  140.1685  154.0577 S   0  0  0  0  0  0  0  0  0  0  0  0
  146.8573  139.2715  153.4470 C   0  0  0  0  0  0  0  0  0  0  0  0
  147.4643  138.3888  154.5703 C   0  0  0  0  0  0  0  0  0  0  0  0
  146.5611  137.2145  154.9855 C   0  0  0  0  0  0  0  0  0  0  0  0
  146.1932  136.3423  153.7785 C   0  0  0  0  0  0  0  0  0  0  0  0
  145.5433  137.1847  152.6731 C   0  0  0  0  0  0  0  0  0  0  0  0
  146.4478  138.3612  152.2619 C   0  0  0  0  0  0  0  0  0  0  0  0
  147.8878  140.3115  152.9270 C   0  0  0  0  0  0  0  0  0  0  0  0
  149.1076  142.8577  155.5771 H   0  0  0  0  0  0  0  0  0  0  0  0
  151.6155  141.3297  156.1902 H   0  0  0  0  0  0  0  0  0  0  0  0
  151.4981  143.0672  156.1508 H   0  0  0  0  0  0  0  0  0  0  0  0
  149.4625  142.0135  157.9606 H   0  0  0  0  0  0  0  0  0  0  0  0
  151.0029  141.3126  158.3688 H   0  0  0  0  0  0  0  0  0  0  0  0
  151.8316  144.4056  156.8916 H   0  0  0  0  0  0  0  0  0  0  0  0
  152.4481  146.4565  158.1962 H   0  0  0  0  0  0  0  0  0  0  0  0
  151.8547  146.5612  160.6347 H   0  0  0  0  0  0  0  0  0  0  0  0
  150.6745  144.6031  161.6653 H   0  0  0  0  0  0  0  0  0  0  0  0
  147.5868  143.0591  154.8886 H   0  0  0  0  0  0  0  0  0  0  0  0
  146.8312  142.6318  153.3949 H   0  0  0  0  0  0  0  0  0  0  0  0
  146.5257  141.0298  155.9965 H   0  0  0  0  0  0  0  0  0  0  0  0
  145.3502  142.1715  155.3793 H   0  0  0  0  0  0  0  0  0  0  0  0
  148.4211  137.9868  154.2338 H   0  0  0  0  0  0  0  0  0  0  0  0
  147.6884  138.9879  155.4505 H   0  0  0  0  0  0  0  0  0  0  0  0
  147.0683  136.6088  155.7364 H   0  0  0  0  0  0  0  0  0  0  0  0
  145.6540  137.5905  155.4598 H   0  0  0  0  0  0  0  0  0  0  0  0
  147.0897  135.8578  153.3902 H   0  0  0  0  0  0  0  0  0  0  0  0
  145.5173  135.5441  154.0866 H   0  0  0  0  0  0  0  0  0  0  0  0
  145.3386  136.5574  151.8051 H   0  0  0  0  0  0  0  0  0  0  0  0
  144.5762  137.5559  153.0140 H   0  0  0  0  0  0  0  0  0  0  0  0
  145.9483  138.9513  151.4923 H   0  0  0  0  0  0  0  0  0  0  0  0
  147.3448  137.9549  151.7920 H   0  0  0  0  0  0  0  0  0  0  0  0
  147.4563  140.8794  152.1012 H   0  0  0  0  0  0  0  0  0  0  0  0
  148.7460  139.7995  152.4888 H   0  0  0  0  0  0  0  0  0  0  0  0
  1  2  2  0  0  0  0
  2  3  1  0  0  0  0
  2 12  1  0  0  0  0
  3  4  1  0  0  0  0
  3 23  1  0  0  0  0
  4  5  1  0  0  0  0
  4 24  1  0  0  0  0
  4 25  1  0  0  0  0
  5  6  1  0  0  0  0
  5 26  1  0  0  0  0
  5 27  1  0  0  0  0
  6 11  1  0  0  0  0
  6  7  2  0  0  0  0
  7  8  1  0  0  0  0
  7 28  1  0  0  0  0
  8  9  2  0  0  0  0
  8 29  1  0  0  0  0
  9 10  1  0  0  0  0
  9 30  1  0  0  0  0
 10 11  2  0  0  0  0
 10 31  1  0  0  0  0
 12 22  1  0  0  0  0
 12 13  1  0  0  0  0
 13 14  1  0  0  0  0
 13 32  1  0  0  0  0
 13 33  1  0  0  0  0
 14 15  1  0  0  0  0
 14 34  1  0  0  0  0
 14 35  1  0  0  0  0
 15 16  1  0  0  0  0
 16 21  1  0  0  0  0
 16 17  1  0  0  0  0
 16 22  1  0  0  0  0
 17 18  1  0  0  0  0
 17 36  1  0  0  0  0
 17 37  1  0  0  0  0
 18 19  1  0  0  0  0
 18 38  1  0  0  0  0
 18 39  1  0  0  0  0
 19 20  1  0  0  0  0
 19 40  1  0  0  0  0
 19 41  1  0  0  0  0
 20 21  1  0  0  0  0
 20 42  1  0  0  0  0
 20 43  1  0  0  0  0
 21 44  1  0  0  0  0
 21 45  1  0  0  0  0
 22 46  1  0  0  0  0
 22 47  1  0  0  0  0
M  END
> <s_m_source_file>
AV-unprocessed.smi

> <i_m_source_file_index>
884

> <i_lp_mmshare_version>
43012

> <i_f3d_flags>
0

> <s_epik_input>
bjFbY0hdW2NIXVtjSF1bY0hdYzFbQ0gyXVtDSDJdW05IXUMoPU8pTihbQ0gyXTIpW0NIMl1bQ0gyXVNDMjNbQ0gyXVtDSDJdW0NIMl1bQ0gyXVtDSDJdMw==

> <s_epik_cmdline>
J2VwaWtfcHl0aG9uJywgJy1waCcsICc3LjAnLCAnLXRuJywgJzgnLCAnLW1hJywgJzIwMCcsICctbWV0YWxfYmluZGluZycsICctaW1hZScsICc8aW5maWxlLm1hZT4nLCAnLW9tYWUnLCAnPG91dGZpbGUubWFlPic=

> <r_epik_Ionization_Penalty>
0.0449137

> <r_epik_Ionization_Penalty_Charging>
0

> <r_epik_Ionization_Penalty_Neutral>
0.0449137

> <r_epik_State_Penalty>
0.0380475

> <r_epik_Charging_Adjusted_Penalty>
0.0380475

> <i_epik_Tot_Q>
0

> <i_epik_Tot_abs_Q>
0

> <r_epik_Metal_State_Penalty>
0.0353559

> <b_epik_Metal_Only>
0

> <s_lp_Force_Field>
OPLS_2005

> <r_lp_Energy>
30.1612

> <b_lp_Chiralities_Consistent>
1

> <s_lp_Variant>
AV-unprocessed.smi:884-1

> <Gold.Version>
5.8.1

> <Gold.Id.Protein>
6NUR|6NUR_protein|mol2

> <Gold.PLP.Fitness>
45.4115

> <Gold.PLP.PLP>
-40.5386

> <Gold.PLP.part.hbond>
-3.0000

> <Gold.PLP.part.metal>
0.0000

> <Gold.PLP.part.buried>
2.4528

> <Gold.PLP.part.nonpolar>
-40.8045

> <Gold.PLP.part.repulsive>
0.3072

> <Gold.PLP.ligand.clash>
0.0000

> <Gold.PLP.ligand.torsion>
0.4179

> <Gold.PLP.Chemscore.Hbond>
1.8960

> <Gold.PLP.Chemscore.CHOScore>
0.0000

> <Gold.PLP.Chemscore.Metal>
0.0000

> <Gold.Chemscore.Hbonds>
donor molecule, donor type, donor heavy atom, donor atom, acceptor molecule, acceptor atom, score
      L1  H     3    23       P1  8028  0.91
      P1  H  7989  7998       L1     1  1.00

> <Gold.PLP.Chemscore.Internal.Correction>
0.0208

> <Gold.Rescore>
     Score         DG    S(hbond)    S(metal)    S(lipo)     H(rot)  DE(clash)    DE(int)     intcor
     18.33     -20.01       1.54        0.00     107.21       1.23       0.77       0.91       ----

> <Gold.Chemscore.Fitness>
18.3294

> <Gold.Chemscore.DG>
-20.0081

> <Gold.Chemscore.ZeroCoef>
-5.4800

> <Gold.Chemscore.Hbond>
1.5350

> <Gold.Chemscore.Metal>
0.0000

> <Gold.Chemscore.Lipo>
107.2121

> <Gold.Chemscore.Internal_Hbond>
0.0000

> <Gold.Chemscore.DEClash>
0.7724

> <Gold.Chemscore.DEInternal>
0.9063

> <Gold.Chemscore.Rot>
1.2276

> <Gold.Chemscore.Internal.Correction>
   9.000000E+99

> <Gold.Chemscore.Hbonds>
donor molecule, donor type, donor heavy atom, donor atom, acceptor molecule, acceptor atom, score
      L1  H     3    23       P1  8028  0.90
      P1  H  7989  7998       L1     1  0.39

> <Gold.Chemscore.Hbond.Weighted>
-5.1271

> <Gold.Chemscore.Metal.Weighted>
-0.0000

> <Gold.Chemscore.Lipo.Weighted>
-12.5438

> <Gold.Chemscore.Internal_Hbond.Weighted>
0.0000

> <Gold.Chemscore.DEClash.Weighted>
0.7724

> <Gold.Chemscore.DEInternal.Weighted>
0.9063

> <Gold.Chemscore.Rot.Weighted>
3.1427

> <Gold.Chemscore.Internal.Correction.Weighted>
   9.000000E+99

> <Gold.Protein.RotatedTorsions>
[ 6907 6896 6895 6894 ] final   24.46 input  -60.11 | X-H torsion
[ 7974 7965 7964 7962 ] final  155.79 input  175.53 | X-H torsion
[ 8008 7997 7996 7995 ] final  -79.58 input   59.86 | X-H torsion
[ 10167 10162 10161 10158 ] final  104.62 input  -65.29 | X-H torsion
[ 10718 10713 10712 10709 ] final  -50.23 input   66.30 | X-H torsion
[ 10763 10752 10751 10750 ] final -100.24 input  -60.55 | X-H torsion
[ 11005 11000 10999 10996 ] final  -66.31 input  -57.11 | X-H torsion

> <Gold.Protein.ActiveResidues>
 VAL166  LYS551  ARG553  GLY616  TRP617  ASP618  TYR619  PRO620  LYS621  CYS622 
 ASP623  PHE694  ASN695  SER759  ASP760  ASP761  ALA762  ILE779  LEU786  VAL792 
 PHE793  MET794  SER795  GLU796  ALA797  LYS798  CYS799  TRP800  GLU811  SER814 

> <Gold.Protein.RotatedAtoms>
  151.9579  135.0138  160.0545 H   0  0  0  0  0  0  0  0  0  0  0  0  # atno 6907 bound_to 6896
  152.1895  133.4758  159.5009 H   0  0  0  0  0  0  0  0  0  0  0  0  # atno 6908 bound_to 6896
  150.6932  134.1648  159.4232 H   0  0  0  0  0  0  0  0  0  0  0  0  # atno 6909 bound_to 6896
  144.8003  139.7116  143.6185 H   0  0  0  0  0  0  0  0  0  0  0  0  # atno 7974 bound_to 7965
  154.5799  140.0676  156.9089 H   0  0  0  0  0  0  0  0  0  0  0  0  # atno 8008 bound_to 7997
  155.2481  140.3349  155.4267 H   0  0  0  0  0  0  0  0  0  0  0  0  # atno 8009 bound_to 7997
  156.2182  140.1787  156.7525 H   0  0  0  0  0  0  0  0  0  0  0  0  # atno 8010 bound_to 7997
  139.7162  144.7068  151.0947 H   0  0  0  0  0  0  0  0  0  0  0  0  # atno 10167 bound_to 10162
  156.1819  130.4150  149.9494 H   0  0  0  0  0  0  0  0  0  0  0  0  # atno 10718 bound_to 10713
  154.7563  135.4942  153.9381 H   0  0  0  0  0  0  0  0  0  0  0  0  # atno 10763 bound_to 10752
  153.1200  135.6729  153.9360 H   0  0  0  0  0  0  0  0  0  0  0  0  # atno 10764 bound_to 10752
  153.9094  135.3100  155.3427 H   0  0  0  0  0  0  0  0  0  0  0  0  # atno 10765 bound_to 10752
  141.1478  133.6697  156.6119 H   0  0  0  0  0  0  0  0  0  0  0  0  # atno 11005 bound_to 11000
  146.2282  139.5764  142.9573 LP  0  0  0  0  0  0  0  0  0  0  0  0  # atno 17320 bound_to 7965
  145.5570  141.0408  143.2247 LP  0  0  0  0  0  0  0  0  0  0  0  0  # atno 17321 bound_to 7965
  140.7744  143.5227  150.9517 LP  0  0  0  0  0  0  0  0  0  0  0  0  # atno 17342 bound_to 10162
  139.8913  143.6950  152.3145 LP  0  0  0  0  0  0  0  0  0  0  0  0  # atno 17343 bound_to 10162
  156.7262  130.9026  151.3622 LP  0  0  0  0  0  0  0  0  0  0  0  0  # atno 17370 bound_to 10713
  157.6874  130.9199  150.0422 LP  0  0  0  0  0  0  0  0  0  0  0  0  # atno 17371 bound_to 10713
  140.3607  134.7689  157.4532 LP  0  0  0  0  0  0  0  0  0  0  0  0  # atno 17394 bound_to 11000
  140.0787  134.5761  155.8563 LP  0  0  0  0  0  0  0  0  0  0  0  0  # atno 17395 bound_to 11000

$$$$
