AV-unprocessed.smi:109|AV-procd|sdf|1057|dock2
  -GOLD-   2262018123D 1   1.00000     0.00000
 Structure written by MMmdl.
 58 61  0  0  0  0  0  0  0  0  1 V2000
  154.2432  139.6718  158.8575 O   0  0  0  0  0  0  0  0  0  0  0  0
  153.2595  138.6866  158.6247 C   0  0  0  0  0  0  0  0  0  0  0  0
  151.8698  139.2428  158.9782 C   0  0  0  0  0  0  0  0  0  0  0  0
  151.3580  140.3493  158.0217 C   0  0  2  0  0  0  0  0  0  0  0  0
  151.5889  139.9432  156.6329 N   0  0  0  0  0  0  0  0  0  0  0  0
  150.5759  139.6425  155.7885 C   0  0  0  0  0  0  0  0  0  0  0  0
  150.2602  140.4482  154.7415 N   0  0  0  0  0  0  0  0  0  0  0  0
  149.2440  140.1309  153.9340 C   0  0  0  0  0  0  0  0  0  0  0  0
  148.4307  139.0744  153.9928 N   0  0  0  0  0  0  0  0  0  0  0  0
  148.7459  138.2574  155.0393 C   0  0  0  0  0  0  0  0  0  0  0  0
  149.7974  138.4708  155.9743 C   0  0  0  0  0  0  0  0  0  0  0  0
  149.8190  137.4369  156.9012 N   0  0  0  0  0  0  0  0  0  0  0  0
  148.8340  136.6618  156.5332 C   0  0  0  0  0  0  0  0  0  0  0  0
  148.1364  137.0801  155.4217 N   0  0  0  0  0  0  0  0  0  0  0  0
  146.9591  136.4192  154.7819 C   0  0  1  0  0  0  0  0  0  0  0  0
  145.9698  136.2711  155.7566 O   0  0  0  0  0  0  0  0  0  0  0  0
  144.6884  136.5223  155.1913 C   0  0  2  0  0  0  0  0  0  0  0  0
  144.1266  135.1980  154.6302 C   0  0  0  0  0  0  0  0  0  0  0  0
  143.7022  134.3511  155.6777 O   0  0  0  0  0  0  0  0  0  0  0  0
  144.9922  137.6248  154.1675 C   0  0  2  0  0  0  0  0  0  0  0  0
  144.0114  137.7941  153.1595 O   0  0  0  0  0  0  0  0  0  0  0  0
  146.3835  137.2764  153.6401 C   0  0  2  0  0  0  0  0  0  0  0  0
  146.3242  136.5407  152.4320 O   0  0  0  0  0  0  0  0  0  0  0  0
  152.0207  141.7353  158.2726 C   0  0  0  0  0  0  0  0  0  0  0  0
  152.1014  142.1112  159.7744 C   0  0  0  0  0  0  0  0  0  0  0  0
  152.7249  143.4983  160.0020 C   0  0  0  0  0  0  0  0  0  0  0  0
  151.9704  144.5870  159.2300 C   0  0  0  0  0  0  0  0  0  0  0  0
  151.9083  144.2432  157.7373 C   0  0  0  0  0  0  0  0  0  0  0  0
  151.2738  142.8618  157.5125 C   0  0  0  0  0  0  0  0  0  0  0  0
  147.3258  135.4448  154.4553 H   0  0  0  0  0  0  0  0  0  0  0  0
  144.0287  136.8910  155.9779 H   0  0  0  0  0  0  0  0  0  0  0  0
  145.0598  138.5693  154.7075 H   0  0  0  0  0  0  0  0  0  0  0  0
  146.9823  138.1732  153.4746 H   0  0  0  0  0  0  0  0  0  0  0  0
  153.9137  140.2796  159.5016 H   0  0  0  0  0  0  0  0  0  0  0  0
  153.3125  138.3868  157.5782 H   0  0  0  0  0  0  0  0  0  0  0  0
  153.4877  137.8096  159.2308 H   0  0  0  0  0  0  0  0  0  0  0  0
  151.1857  138.3963  158.9628 H   0  0  0  0  0  0  0  0  0  0  0  0
  151.8733  139.6162  160.0032 H   0  0  0  0  0  0  0  0  0  0  0  0
  150.2921  140.4805  158.2080 H   0  0  0  0  0  0  0  0  0  0  0  0
  152.5583  139.8930  156.3535 H   0  0  0  0  0  0  0  0  0  0  0  0
  149.0541  140.8237  153.1274 H   0  0  0  0  0  0  0  0  0  0  0  0
  148.5867  135.7567  157.0689 H   0  0  0  0  0  0  0  0  0  0  0  0
  143.3070  135.3625  153.9315 H   0  0  0  0  0  0  0  0  0  0  0  0
  144.9078  134.6708  154.0821 H   0  0  0  0  0  0  0  0  0  0  0  0
  143.4193  133.5304  155.3038 H   0  0  0  0  0  0  0  0  0  0  0  0
  143.9455  138.7154  152.9580 H   0  0  0  0  0  0  0  0  0  0  0  0
  147.2068  136.3068  152.1866 H   0  0  0  0  0  0  0  0  0  0  0  0
  153.0415  141.6932  157.8887 H   0  0  0  0  0  0  0  0  0  0  0  0
  151.1039  142.0830  160.2150 H   0  0  0  0  0  0  0  0  0  0  0  0
  152.7054  141.3920  160.3246 H   0  0  0  0  0  0  0  0  0  0  0  0
  152.7272  143.7334  161.0667 H   0  0  0  0  0  0  0  0  0  0  0  0
  153.7692  143.4841  159.6873 H   0  0  0  0  0  0  0  0  0  0  0  0
  150.9596  144.6864  159.6276 H   0  0  0  0  0  0  0  0  0  0  0  0
  152.4575  145.5519  159.3723 H   0  0  0  0  0  0  0  0  0  0  0  0
  151.3377  145.0051  157.2055 H   0  0  0  0  0  0  0  0  0  0  0  0
  152.9136  144.2580  157.3143 H   0  0  0  0  0  0  0  0  0  0  0  0
  151.2604  142.6637  156.4408 H   0  0  0  0  0  0  0  0  0  0  0  0
  150.2301  142.8873  157.8294 H   0  0  0  0  0  0  0  0  0  0  0  0
  1  2  1  0  0  0  0
  1 34  1  0  0  0  0
  2  3  1  0  0  0  0
  2 35  1  0  0  0  0
  2 36  1  0  0  0  0
  3  4  1  0  0  0  0
  3 37  1  0  0  0  0
  3 38  1  0  0  0  0
  4  5  1  0  0  0  0
  4 24  1  0  0  0  0
  4 39  1  0  0  0  0
  5  6  1  0  0  0  0
  5 40  1  0  0  0  0
  6 11  1  0  0  0  0
  6  7  2  0  0  0  0
  7  8  1  0  0  0  0
  8  9  2  0  0  0  0
  8 41  1  0  0  0  0
  9 10  1  0  0  0  0
 10 14  1  0  0  0  0
 10 11  2  0  0  0  0
 11 12  1  0  0  0  0
 12 13  2  0  0  0  0
 13 14  1  0  0  0  0
 13 42  1  0  0  0  0
 14 15  1  0  0  0  0
 15 30  1  0  0  0  0
 15 22  1  0  0  0  0
 15 16  1  0  0  0  0
 16 17  1  0  0  0  0
 17 31  1  0  0  0  0
 17 18  1  0  0  0  0
 17 20  1  0  0  0  0
 18 19  1  0  0  0  0
 18 43  1  0  0  0  0
 18 44  1  0  0  0  0
 19 45  1  0  0  0  0
 20 32  1  0  0  0  0
 20 21  1  0  0  0  0
 20 22  1  0  0  0  0
 21 46  1  0  0  0  0
 22 33  1  0  0  0  0
 22 23  1  0  0  0  0
 23 47  1  0  0  0  0
 24 29  1  0  0  0  0
 24 25  1  0  0  0  0
 24 48  1  0  0  0  0
 25 26  1  0  0  0  0
 25 49  1  0  0  0  0
 25 50  1  0  0  0  0
 26 27  1  0  0  0  0
 26 51  1  0  0  0  0
 26 52  1  0  0  0  0
 27 28  1  0  0  0  0
 27 53  1  0  0  0  0
 27 54  1  0  0  0  0
 28 29  1  0  0  0  0
 28 55  1  0  0  0  0
 28 56  1  0  0  0  0
 29 57  1  0  0  0  0
 29 58  1  0  0  0  0
M  END
> <s_m_source_file>
AV-unprocessed.smi

> <i_m_source_file_index>
109

> <i_lp_mmshare_version>
43012

> <i_f3d_flags>
0

> <s_epik_input>
W0NIMl0xW0NIMl1bQ0gyXVtDSDJdW0NIMl1bQ0hdMVtDQEhdKFtDSDJdW0NIMl1bT0hdKVtOSF1jKG5bY0hdbjIpYyhjMjMpbltjSF1uM1tDQEBIXTRPW0NASF0oW0NIMl1bT0hdKVtDQEBIXShbT0hdKVtDQEhdNFtPSF0=

> <s_epik_cmdline>
J2VwaWtfcHl0aG9uJywgJy1waCcsICc3LjAnLCAnLXRuJywgJzgnLCAnLW1hJywgJzIwMCcsICctbWV0YWxfYmluZGluZycsICctaW1hZScsICc8aW5maWxlLm1hZT4nLCAnLW9tYWUnLCAnPG91dGZpbGUubWFlPic=

> <r_lp_tautomer_probability>
1

> <r_epik_Ionization_Penalty>
0.000793976

> <r_epik_Ionization_Penalty_Charging>
0

> <r_epik_Ionization_Penalty_Neutral>
0.000793976

> <r_epik_State_Penalty>
-0

> <r_epik_Charging_Adjusted_Penalty>
0

> <i_epik_Tot_Q>
0

> <i_epik_Tot_abs_Q>
0

> <r_epik_Metal_State_Penalty>
-0

> <b_epik_Metal_Only>
0

> <s_epik_Chemistry_Notes>
This compound contains an acetal/aminal-like group ( X-CH(R)-Y where X, Y are N, S, or O) that may be acid/base labile, releasing an aldehyde.

> <s_lp_Force_Field>
OPLS_2005

> <r_lp_Energy>
58.5181

> <b_lp_Chiralities_Consistent>
1

> <s_lp_Variant>
AV-unprocessed.smi:109-27

> <Gold.Version>
5.8.1

> <Gold.Id.Protein>
6NUR|6NUR_protein|mol2

> <Gold.PLP.Fitness>
52.9078

> <Gold.PLP.PLP>
-37.6261

> <Gold.PLP.part.hbond>
-5.0000

> <Gold.PLP.part.metal>
0.0000

> <Gold.PLP.part.buried>
-4.5279

> <Gold.PLP.part.nonpolar>
-29.1680

> <Gold.PLP.part.repulsive>
0.3778

> <Gold.PLP.ligand.clash>
0.0947

> <Gold.PLP.ligand.torsion>
1.0963

> <Gold.PLP.Chemscore.Hbond>
4.9833

> <Gold.PLP.Chemscore.CHOScore>
0.6759

> <Gold.PLP.Chemscore.Metal>
0.0000

> <Gold.Chemscore.Hbonds>
donor molecule, donor type, donor heavy atom, donor atom, acceptor molecule, acceptor atom, score
      L1  H    19    45       P1 10957  1.00
      L1  H    21    46       P1 10175  1.00
      L1  H    23    47       P1  7948  1.00
      P1  H  7989  7998       L1     7  0.99
      P1  H  7997  8008       L1     1  0.99
      L1  C     8    41       P1  7957  0.68

> <Gold.PLP.Chemscore.Internal.Correction>
0.5918

> <Gold.Rescore>
     Score         DG    S(hbond)    S(metal)    S(lipo)     H(rot)  DE(clash)    DE(int)     intcor
     13.18     -15.86       4.13        0.00      90.35       5.47       0.16       2.51       ----

> <Gold.Chemscore.Fitness>
13.1822

> <Gold.Chemscore.DG>
-15.8560

> <Gold.Chemscore.ZeroCoef>
-5.4800

> <Gold.Chemscore.Hbond>
4.1313

> <Gold.Chemscore.Metal>
0.0000

> <Gold.Chemscore.Lipo>
90.3497

> <Gold.Chemscore.Internal_Hbond>
0.0000

> <Gold.Chemscore.DEClash>
0.1608

> <Gold.Chemscore.DEInternal>
2.5129

> <Gold.Chemscore.Rot>
5.4662

> <Gold.Chemscore.Internal.Correction>
   9.000000E+99

> <Gold.Chemscore.Hbonds>
donor molecule, donor type, donor heavy atom, donor atom, acceptor molecule, acceptor atom, score
      L1  H    19    45       P1 10957  0.97
      L1  H    21    46       P1 10175  1.00
      L1  H    23    47       P1  7948  1.00
      P1  H  7989  7998       L1     7  0.32
      P1  H  7997  8008       L1     1  0.78

> <Gold.Chemscore.Hbond.Weighted>
-13.7986

> <Gold.Chemscore.Metal.Weighted>
-0.0000

> <Gold.Chemscore.Lipo.Weighted>
-10.5709

> <Gold.Chemscore.Internal_Hbond.Weighted>
0.0000

> <Gold.Chemscore.DEClash.Weighted>
0.1608

> <Gold.Chemscore.DEInternal.Weighted>
2.5129

> <Gold.Chemscore.Rot.Weighted>
13.9935

> <Gold.Chemscore.Internal.Correction.Weighted>
   9.000000E+99

> <Gold.Protein.RotatedTorsions>
[ 6907 6896 6895 6894 ] final   82.74 input  -60.11 | X-H torsion
[ 7974 7965 7964 7962 ] final  125.56 input  175.53 | X-H torsion
[ 8008 7997 7996 7995 ] final -126.94 input   59.86 | X-H torsion
[ 10167 10162 10161 10158 ] final  -58.54 input  -65.29 | X-H torsion
[ 10718 10713 10712 10709 ] final   -8.70 input   66.30 | X-H torsion
[ 10763 10752 10751 10750 ] final -159.35 input  -60.55 | X-H torsion
[ 11005 11000 10999 10996 ] final  -46.68 input  -57.11 | X-H torsion

> <Gold.Protein.ActiveResidues>
 VAL166  LYS551  ARG553  GLY616  TRP617  ASP618  TYR619  PRO620  LYS621  CYS622 
 ASP623  PHE694  ASN695  SER759  ASP760  ASP761  ALA762  ILE779  LEU786  VAL792 
 PHE793  MET794  SER795  GLU796  ALA797  LYS798  CYS799  TRP800  GLU811  SER814 

> <Gold.Protein.RotatedAtoms>
  152.5308  134.3002  159.9075 H   0  0  0  0  0  0  0  0  0  0  0  0  # atno 6907 bound_to 6896
  151.2953  133.4140  159.2643 H   0  0  0  0  0  0  0  0  0  0  0  0  # atno 6908 bound_to 6896
  151.0165  134.9453  159.8093 H   0  0  0  0  0  0  0  0  0  0  0  0  # atno 6909 bound_to 6896
  145.0716  139.3725  143.4954 H   0  0  0  0  0  0  0  0  0  0  0  0  # atno 7974 bound_to 7965
  155.2380  140.0427  157.2971 H   0  0  0  0  0  0  0  0  0  0  0  0  # atno 8008 bound_to 7997
  154.5846  140.2410  155.7975 H   0  0  0  0  0  0  0  0  0  0  0  0  # atno 8009 bound_to 7997
  156.2217  140.2967  155.9977 H   0  0  0  0  0  0  0  0  0  0  0  0  # atno 8010 bound_to 7997
  140.6191  143.2413  151.5525 H   0  0  0  0  0  0  0  0  0  0  0  0  # atno 10167 bound_to 10162
  156.6988  130.5087  149.5923 H   0  0  0  0  0  0  0  0  0  0  0  0  # atno 10718 bound_to 10713
  154.7482  135.3085  154.8606 H   0  0  0  0  0  0  0  0  0  0  0  0  # atno 10763 bound_to 10752
  153.9401  135.6775  153.4748 H   0  0  0  0  0  0  0  0  0  0  0  0  # atno 10764 bound_to 10752
  153.1078  135.4881  154.8909 H   0  0  0  0  0  0  0  0  0  0  0  0  # atno 10765 bound_to 10752
  141.0594  133.6714  156.3189 H   0  0  0  0  0  0  0  0  0  0  0  0  # atno 11005 bound_to 11000
  146.3529  140.0464  142.8639 LP  0  0  0  0  0  0  0  0  0  0  0  0  # atno 17320 bound_to 7965
  145.1285  140.9504  143.4558 LP  0  0  0  0  0  0  0  0  0  0  0  0  # atno 17321 bound_to 7965
  139.5423  144.2614  152.1375 LP  0  0  0  0  0  0  0  0  0  0  0  0  # atno 17342 bound_to 10162
  140.1830  144.4826  150.6518 LP  0  0  0  0  0  0  0  0  0  0  0  0  # atno 17343 bound_to 10162
  156.1744  130.6458  151.0876 LP  0  0  0  0  0  0  0  0  0  0  0  0  # atno 17370 bound_to 10713
  157.6981  131.0786  150.6906 LP  0  0  0  0  0  0  0  0  0  0  0  0  # atno 17371 bound_to 10713
  140.5899  134.5661  157.5497 LP  0  0  0  0  0  0  0  0  0  0  0  0  # atno 17394 bound_to 11000
  139.9419  134.7772  156.0658 LP  0  0  0  0  0  0  0  0  0  0  0  0  # atno 17395 bound_to 11000

$$$$
