AV-unprocessed.smi:2356|AV-procd|sdf|9393|dock10
  -GOLD-   2272013 23D 1   1.00000     0.00000
 Structure written by MMmdl.
 53 56  0  0  0  0  0  0  0  0  1 V2000
  149.5551  140.1936  154.3895 C   0  0  0  0  0  0  0  0  0  0  0  0
  150.3881  139.9641  155.6393 C   0  0  0  0  0  0  0  0  0  0  0  0
  150.8137  141.0836  156.2629 N   0  0  0  0  0  0  0  0  0  0  0  0
  151.5698  140.9723  157.3796 C   0  0  0  0  0  0  0  0  0  0  0  0
  151.9914  142.1687  157.9935 N   0  0  0  0  0  0  0  0  0  0  0  0
  151.3073  143.4327  157.7743 C   0  0  0  0  0  0  0  0  0  0  0  0
  151.9774  144.4110  158.7386 C   0  0  0  0  0  0  0  0  0  0  0  0
  152.3726  143.5216  159.9169 C   0  0  0  0  0  0  0  0  0  0  0  0
  152.6964  142.1707  159.2695 C   0  0  0  0  0  0  0  0  0  0  0  0
  151.9176  139.7105  157.9153 C   0  0  0  0  0  0  0  0  0  0  0  0
  151.4760  138.5426  157.2655 C   0  0  0  0  0  0  0  0  0  0  0  0
  150.6870  138.6590  156.0966 C   0  0  0  0  0  0  0  0  0  0  0  0
  150.2025  137.5533  155.3430 N   0  0  0  0  0  0  0  0  0  0  0  0
  150.3539  136.2296  155.5423 C   0  0  0  0  0  0  0  0  0  0  0  0
  150.9191  135.7204  156.5070 O   0  0  0  0  0  0  0  0  0  0  0  0
  149.8013  135.4684  154.5796 N   0  0  0  0  0  0  0  0  0  0  0  0
  149.7789  134.0064  154.4807 C   0  0  2  0  0  0  0  0  0  0  0  0
  148.6303  133.5386  153.5720 C   0  0  0  0  0  0  0  0  0  0  0  0
  148.5212  132.0068  153.5782 C   0  0  0  0  0  0  0  0  0  0  0  0
  148.3580  131.5247  154.9102 O   0  0  0  0  0  0  0  0  0  0  0  0
  149.4131  131.8616  155.8120 C   0  0  1  0  0  0  0  0  0  0  0  0
  150.6948  131.1050  155.4874 C   0  0  0  0  0  0  0  0  0  0  0  0
  150.6926  130.0015  154.4566 C   0  0  0  0  0  0  0  0  0  0  0  0
  150.8793  129.6688  155.9180 C   0  0  0  0  0  0  0  0  0  0  0  0
  149.5996  133.3910  155.8770 C   0  0  0  0  0  0  0  0  0  0  0  0
  148.5721  139.7345  154.4981 H   0  0  0  0  0  0  0  0  0  0  0  0
  150.0465  139.7555  153.5203 H   0  0  0  0  0  0  0  0  0  0  0  0
  149.4096  141.2569  154.1941 H   0  0  0  0  0  0  0  0  0  0  0  0
  151.3971  143.7662  156.7400 H   0  0  0  0  0  0  0  0  0  0  0  0
  150.2492  143.3196  158.0141 H   0  0  0  0  0  0  0  0  0  0  0  0
  152.8734  144.8293  158.2780 H   0  0  0  0  0  0  0  0  0  0  0  0
  151.3272  145.2377  159.0260 H   0  0  0  0  0  0  0  0  0  0  0  0
  153.2048  143.9241  160.4949 H   0  0  0  0  0  0  0  0  0  0  0  0
  151.5205  143.4100  160.5887 H   0  0  0  0  0  0  0  0  0  0  0  0
  152.3933  141.3464  159.9165 H   0  0  0  0  0  0  0  0  0  0  0  0
  153.7661  142.0799  159.0781 H   0  0  0  0  0  0  0  0  0  0  0  0
  152.5181  139.6184  158.8078 H   0  0  0  0  0  0  0  0  0  0  0  0
  151.7652  137.5895  157.6774 H   0  0  0  0  0  0  0  0  0  0  0  0
  149.6596  137.8035  154.5297 H   0  0  0  0  0  0  0  0  0  0  0  0
  149.3374  135.9632  153.8313 H   0  0  0  0  0  0  0  0  0  0  0  0
  150.7274  133.6499  154.0769 H   0  0  0  0  0  0  0  0  0  0  0  0
  147.6877  133.9661  153.9170 H   0  0  0  0  0  0  0  0  0  0  0  0
  148.7783  133.8938  152.5518 H   0  0  0  0  0  0  0  0  0  0  0  0
  147.6578  131.6949  152.9903 H   0  0  0  0  0  0  0  0  0  0  0  0
  149.3941  131.5535  153.1084 H   0  0  0  0  0  0  0  0  0  0  0  0
  149.0847  131.5272  156.7969 H   0  0  0  0  0  0  0  0  0  0  0  0
  151.5951  131.7154  155.5077 H   0  0  0  0  0  0  0  0  0  0  0  0
  149.7414  129.7374  153.9989 H   0  0  0  0  0  0  0  0  0  0  0  0
  151.5612  129.9224  153.8061 H   0  0  0  0  0  0  0  0  0  0  0  0
  151.8729  129.3656  156.2418 H   0  0  0  0  0  0  0  0  0  0  0  0
  150.0527  129.1815  156.4313 H   0  0  0  0  0  0  0  0  0  0  0  0
  150.4481  133.6401  156.5155 H   0  0  0  0  0  0  0  0  0  0  0  0
  148.7203  133.8286  156.3526 H   0  0  0  0  0  0  0  0  0  0  0  0
  1  2  1  0  0  0  0
  1 26  1  0  0  0  0
  1 27  1  0  0  0  0
  1 28  1  0  0  0  0
  2 12  1  0  0  0  0
  2  3  2  0  0  0  0
  3  4  1  0  0  0  0
  4  5  1  0  0  0  0
  4 10  2  0  0  0  0
  5  9  1  0  0  0  0
  5  6  1  0  0  0  0
  6  7  1  0  0  0  0
  6 29  1  0  0  0  0
  6 30  1  0  0  0  0
  7  8  1  0  0  0  0
  7 31  1  0  0  0  0
  7 32  1  0  0  0  0
  8  9  1  0  0  0  0
  8 33  1  0  0  0  0
  8 34  1  0  0  0  0
  9 35  1  0  0  0  0
  9 36  1  0  0  0  0
 10 11  1  0  0  0  0
 10 37  1  0  0  0  0
 11 12  2  0  0  0  0
 11 38  1  0  0  0  0
 12 13  1  0  0  0  0
 13 14  1  0  0  0  0
 13 39  1  0  0  0  0
 14 15  2  0  0  0  0
 14 16  1  0  0  0  0
 16 17  1  0  0  0  0
 16 40  1  0  0  0  0
 17 25  1  0  0  0  0
 17 18  1  0  0  0  0
 17 41  1  0  0  0  0
 18 19  1  0  0  0  0
 18 42  1  0  0  0  0
 18 43  1  0  0  0  0
 19 20  1  0  0  0  0
 19 44  1  0  0  0  0
 19 45  1  0  0  0  0
 20 21  1  0  0  0  0
 21 22  1  0  0  0  0
 21 25  1  0  0  0  0
 21 46  1  0  0  0  0
 22 24  1  0  0  0  0
 22 23  1  0  0  0  0
 22 47  1  0  0  0  0
 23 24  1  0  0  0  0
 23 48  1  0  0  0  0
 23 49  1  0  0  0  0
 24 50  1  0  0  0  0
 24 51  1  0  0  0  0
 25 52  1  0  0  0  0
 25 53  1  0  0  0  0
M  END
> <s_m_source_file>
AV-unprocessed.smi

> <i_m_source_file_index>
2356

> <i_lp_mmshare_version>
43012

> <i_f3d_flags>
0

> <s_epik_input>
W0NIMl0xW0NIMl1bQ0gyXVtDSDJdTjFjKG5jMltDSDNdKVtjSF1bY0hdYzJbTkhdQyg9TylbTkhdW0NAQEhdM1tDSDJdW0NIMl1PW0NASF0oW0NIMl0zKVtDSF00W0NIMl1bQ0gyXTQ=

> <s_epik_cmdline>
J2VwaWtfcHl0aG9uJywgJy1waCcsICc3LjAnLCAnLXRuJywgJzgnLCAnLW1hJywgJzIwMCcsICctbWV0YWxfYmluZGluZycsICctaW1hZScsICc8aW5maWxlLm1hZT4nLCAnLW9tYWUnLCAnPG91dGZpbGUubWFlPic=

> <r_lp_tautomer_probability>
1

> <r_epik_Ionization_Penalty>
0.308781

> <r_epik_Ionization_Penalty_Charging>
0

> <r_epik_Ionization_Penalty_Neutral>
0.308781

> <r_epik_State_Penalty>
0.302092

> <r_epik_Charging_Adjusted_Penalty>
0.302092

> <i_epik_Tot_Q>
0

> <i_epik_Tot_abs_Q>
0

> <r_epik_Metal_State_Penalty>
0.197467

> <b_epik_Metal_Only>
0

> <s_lp_Force_Field>
OPLS_2005

> <r_lp_Energy>
55.4092

> <b_lp_Chiralities_Consistent>
1

> <s_lp_Variant>
AV-unprocessed.smi:2356-1

> <Gold.Version>
5.8.1

> <Gold.Id.Protein>
6NUR|6NUR_protein|mol2

> <Gold.PLP.Fitness>
45.0094

> <Gold.PLP.PLP>
-43.4673

> <Gold.PLP.part.hbond>
-1.0000

> <Gold.PLP.part.metal>
0.0000

> <Gold.PLP.part.buried>
-4.3090

> <Gold.PLP.part.nonpolar>
-37.6922

> <Gold.PLP.part.repulsive>
0.1371

> <Gold.PLP.ligand.clash>
0.0000

> <Gold.PLP.ligand.torsion>
1.3396

> <Gold.PLP.Chemscore.Hbond>
0.9920

> <Gold.PLP.Chemscore.CHOScore>
0.0000

> <Gold.PLP.Chemscore.Metal>
0.0000

> <Gold.Chemscore.Hbonds>
donor molecule, donor type, donor heavy atom, donor atom, acceptor molecule, acceptor atom, score
      L1  H    16    40       P1  7948  0.99

> <Gold.PLP.Chemscore.Internal.Correction>
1.2452

> <Gold.Rescore>
     Score         DG    S(hbond)    S(metal)    S(lipo)     H(rot)  DE(clash)    DE(int)     intcor
     13.96     -18.48       0.75        0.00     114.63       1.14       0.09       4.43       ----

> <Gold.Chemscore.Fitness>
13.9632

> <Gold.Chemscore.DG>
-18.4848

> <Gold.Chemscore.ZeroCoef>
-5.4800

> <Gold.Chemscore.Hbond>
0.7515

> <Gold.Chemscore.Metal>
0.0000

> <Gold.Chemscore.Lipo>
114.6322

> <Gold.Chemscore.Internal_Hbond>
0.0000

> <Gold.Chemscore.DEClash>
0.0904

> <Gold.Chemscore.DEInternal>
4.4312

> <Gold.Chemscore.Rot>
1.1395

> <Gold.Chemscore.Internal.Correction>
   9.000000E+99

> <Gold.Chemscore.Hbonds>
donor molecule, donor type, donor heavy atom, donor atom, acceptor molecule, acceptor atom, score
      L1  H    16    40       P1  7948  0.67

> <Gold.Chemscore.Hbond.Weighted>
-2.5100

> <Gold.Chemscore.Metal.Weighted>
-0.0000

> <Gold.Chemscore.Lipo.Weighted>
-13.4120

> <Gold.Chemscore.Internal_Hbond.Weighted>
0.0000

> <Gold.Chemscore.DEClash.Weighted>
0.0904

> <Gold.Chemscore.DEInternal.Weighted>
4.4312

> <Gold.Chemscore.Rot.Weighted>
2.9171

> <Gold.Chemscore.Internal.Correction.Weighted>
   9.000000E+99

> <Gold.Protein.RotatedTorsions>
[ 6907 6896 6895 6894 ] final  -17.41 input  -60.11 | X-H torsion
[ 7974 7965 7964 7962 ] final   13.31 input  175.53 | X-H torsion
[ 8008 7997 7996 7995 ] final  140.49 input   59.86 | X-H torsion
[ 10167 10162 10161 10158 ] final   85.34 input  -65.29 | X-H torsion
[ 10718 10713 10712 10709 ] final  116.22 input   66.30 | X-H torsion
[ 10763 10752 10751 10750 ] final    2.82 input  -60.55 | X-H torsion
[ 11005 11000 10999 10996 ] final  -99.20 input  -57.11 | X-H torsion

> <Gold.Protein.ActiveResidues>
 VAL166  LYS551  ARG553  GLY616  TRP617  ASP618  TYR619  PRO620  LYS621  CYS622 
 ASP623  PHE694  ASN695  SER759  ASP760  ASP761  ALA762  ILE779  LEU786  VAL792 
 PHE793  MET794  SER795  GLU796  ALA797  LYS798  CYS799  TRP800  GLU811  SER814 

> <Gold.Protein.RotatedAtoms>
  151.2937  135.0749  159.9213 H   0  0  0  0  0  0  0  0  0  0  0  0  # atno 6907 bound_to 6896
  152.5311  133.9905  159.7859 H   0  0  0  0  0  0  0  0  0  0  0  0  # atno 6908 bound_to 6896
  151.0179  133.5853  159.2705 H   0  0  0  0  0  0  0  0  0  0  0  0  # atno 6909 bound_to 6896
  146.2332  139.9207  142.8510 H   0  0  0  0  0  0  0  0  0  0  0  0  # atno 7974 bound_to 7965
  156.2978  140.2340  156.4410 H   0  0  0  0  0  0  0  0  0  0  0  0  # atno 8008 bound_to 7997
  154.8185  140.0439  157.1414 H   0  0  0  0  0  0  0  0  0  0  0  0  # atno 8009 bound_to 7997
  154.9341  140.3020  155.5156 H   0  0  0  0  0  0  0  0  0  0  0  0  # atno 8010 bound_to 7997
  139.8987  144.6342  150.8660 H   0  0  0  0  0  0  0  0  0  0  0  0  # atno 10167 bound_to 10162
  157.6174  131.1022  150.7441 H   0  0  0  0  0  0  0  0  0  0  0  0  # atno 10718 bound_to 10713
  153.2909  135.6948  153.7294 H   0  0  0  0  0  0  0  0  0  0  0  0  # atno 10763 bound_to 10752
  153.6245  135.3421  155.3022 H   0  0  0  0  0  0  0  0  0  0  0  0  # atno 10764 bound_to 10752
  154.8523  135.4394  154.1991 H   0  0  0  0  0  0  0  0  0  0  0  0  # atno 10765 bound_to 10752
  141.1317  133.8303  157.0940 H   0  0  0  0  0  0  0  0  0  0  0  0  # atno 11005 bound_to 11000
  145.2139  140.9907  143.4084 LP  0  0  0  0  0  0  0  0  0  0  0  0  # atno 17320 bound_to 7965
  144.9667  139.3922  143.6329 LP  0  0  0  0  0  0  0  0  0  0  0  0  # atno 17321 bound_to 7965
  140.7711  143.3453  151.2123 LP  0  0  0  0  0  0  0  0  0  0  0  0  # atno 17342 bound_to 10162
  139.7044  143.9479  152.2920 LP  0  0  0  0  0  0  0  0  0  0  0  0  # atno 17343 bound_to 10162
  156.7806  130.4858  149.5402 LP  0  0  0  0  0  0  0  0  0  0  0  0  # atno 17370 bound_to 10713
  156.1303  130.6173  151.0323 LP  0  0  0  0  0  0  0  0  0  0  0  0  # atno 17371 bound_to 10713
  140.0375  134.9871  157.0898 LP  0  0  0  0  0  0  0  0  0  0  0  0  # atno 17394 bound_to 11000
  140.4188  134.1903  155.7164 LP  0  0  0  0  0  0  0  0  0  0  0  0  # atno 17395 bound_to 11000

$$$$
