AV-unprocessed.smi:804|AV-procd|sdf|3794|dock8
  -GOLD-   22720 1233D 1   1.00000     0.00000
 Structure written by MMmdl.
 39 40  0  0  0  0  0  0  0  0  1 V2000
  151.1353  137.3664  154.9596 C   0  0  0  0  0  0  0  0  0  0  0  0
  149.6035  137.3422  155.1052 C   0  0  0  0  0  0  0  0  0  0  0  0
  149.2398  137.4876  156.5979 C   0  0  0  0  0  0  0  0  0  0  0  0
  149.0018  138.5008  154.2830 C   0  0  0  0  0  0  0  0  0  0  0  0
  149.1475  136.0481  154.5863 N   0  0  0  0  0  0  0  0  0  0  0  0
  149.3008  134.8258  155.1278 C   0  0  0  0  0  0  0  0  0  0  0  0
  149.8392  134.6103  156.2139 O   0  0  0  0  0  0  0  0  0  0  0  0
  148.6889  133.7005  154.3452 C   0  0  0  0  0  0  0  0  0  0  0  0
  147.7288  134.0404  153.4550 N   0  0  0  0  0  0  0  0  0  0  0  0
  147.1521  133.0727  152.7316 C   0  0  0  0  0  0  0  0  0  0  0  0
  146.1693  133.4521  151.8077 N   0  0  0  0  0  0  0  0  0  0  0  0
  146.0408  134.8382  151.3496 C   0  0  0  0  0  0  0  0  0  0  0  0
  144.5891  135.1570  150.9533 C   0  0  0  0  0  0  0  0  0  0  0  0
  144.1340  134.2180  149.9878 O   0  0  0  0  0  0  0  0  0  0  0  0
  144.1375  132.8950  150.5082 C   0  0  0  0  0  0  0  0  0  0  0  0
  145.5722  132.4865  150.8812 C   0  0  0  0  0  0  0  0  0  0  0  0
  147.4490  131.7707  152.8253 N   0  0  0  0  0  0  0  0  0  0  0  0
  148.3932  131.4036  153.7161 C   0  0  0  0  0  0  0  0  0  0  0  0
  149.0614  132.3427  154.5251 C   0  0  0  0  0  0  0  0  0  0  0  0
  150.2348  131.8050  155.6786 Cl  0  0  0  0  0  0  0  0  0  0  0  0
  151.5547  138.3039  155.3268 H   0  0  0  0  0  0  0  0  0  0  0  0
  151.4384  137.2588  153.9173 H   0  0  0  0  0  0  0  0  0  0  0  0
  151.6019  136.5568  155.5223 H   0  0  0  0  0  0  0  0  0  0  0  0
  149.6295  136.6548  157.1844 H   0  0  0  0  0  0  0  0  0  0  0  0
  148.1621  137.5263  156.7562 H   0  0  0  0  0  0  0  0  0  0  0  0
  149.6559  138.4053  157.0148 H   0  0  0  0  0  0  0  0  0  0  0  0
  149.4093  139.4606  154.6021 H   0  0  0  0  0  0  0  0  0  0  0  0
  147.9190  138.5630  154.3914 H   0  0  0  0  0  0  0  0  0  0  0  0
  149.2209  138.3894  153.2203 H   0  0  0  0  0  0  0  0  0  0  0  0
  148.6647  136.0832  153.7002 H   0  0  0  0  0  0  0  0  0  0  0  0
  146.3457  135.5514  152.1152 H   0  0  0  0  0  0  0  0  0  0  0  0
  146.7038  134.9863  150.4967 H   0  0  0  0  0  0  0  0  0  0  0  0
  143.9356  135.1448  151.8271 H   0  0  0  0  0  0  0  0  0  0  0  0
  144.5301  136.1586  150.5274 H   0  0  0  0  0  0  0  0  0  0  0  0
  143.4768  132.8293  151.3743 H   0  0  0  0  0  0  0  0  0  0  0  0
  143.7396  132.2168  149.7532 H   0  0  0  0  0  0  0  0  0  0  0  0
  146.1912  132.4332  149.9849 H   0  0  0  0  0  0  0  0  0  0  0  0
  145.5386  131.4827  151.3038 H   0  0  0  0  0  0  0  0  0  0  0  0
  148.6117  130.3485  153.7884 H   0  0  0  0  0  0  0  0  0  0  0  0
  1  2  1  0  0  0  0
  1 21  1  0  0  0  0
  1 22  1  0  0  0  0
  1 23  1  0  0  0  0
  2  3  1  0  0  0  0
  2  4  1  0  0  0  0
  2  5  1  0  0  0  0
  3 24  1  0  0  0  0
  3 25  1  0  0  0  0
  3 26  1  0  0  0  0
  4 27  1  0  0  0  0
  4 28  1  0  0  0  0
  4 29  1  0  0  0  0
  5  6  1  0  0  0  0
  5 30  1  0  0  0  0
  6  7  2  0  0  0  0
  6  8  1  0  0  0  0
  8 19  1  0  0  0  0
  8  9  2  0  0  0  0
  9 10  1  0  0  0  0
 10 11  1  0  0  0  0
 10 17  2  0  0  0  0
 11 16  1  0  0  0  0
 11 12  1  0  0  0  0
 12 13  1  0  0  0  0
 12 31  1  0  0  0  0
 12 32  1  0  0  0  0
 13 14  1  0  0  0  0
 13 33  1  0  0  0  0
 13 34  1  0  0  0  0
 14 15  1  0  0  0  0
 15 16  1  0  0  0  0
 15 35  1  0  0  0  0
 15 36  1  0  0  0  0
 16 37  1  0  0  0  0
 16 38  1  0  0  0  0
 17 18  1  0  0  0  0
 18 19  2  0  0  0  0
 18 39  1  0  0  0  0
 19 20  1  0  0  0  0
M  END
> <s_m_source_file>
AV-unprocessed.smi

> <i_m_source_file_index>
804

> <i_lp_mmshare_version>
43012

> <i_f3d_flags>
0

> <s_epik_input>
W0NIM11DKFtDSDNdKShbQ0gzXSlbTkhdQyg9TyljMW5jKG5bY0hdYzFDbClOMltDSDJdW0NIMl1PW0NIMl1bQ0gyXTI=

> <s_epik_cmdline>
J2VwaWtfcHl0aG9uJywgJy1waCcsICc3LjAnLCAnLXRuJywgJzgnLCAnLW1hJywgJzIwMCcsICctbWV0YWxfYmluZGluZycsICctaW1hZScsICc8aW5maWxlLm1hZT4nLCAnLW9tYWUnLCAnPG91dGZpbGUubWFlPic=

> <r_lp_tautomer_probability>
1

> <r_epik_Ionization_Penalty>
1.02082e-05

> <r_epik_Ionization_Penalty_Charging>
0

> <r_epik_Ionization_Penalty_Neutral>
1.02082e-05

> <r_epik_State_Penalty>
-0

> <r_epik_Charging_Adjusted_Penalty>
0

> <i_epik_Tot_Q>
0

> <i_epik_Tot_abs_Q>
0

> <r_epik_Metal_State_Penalty>
0.00994437

> <b_epik_Metal_Only>
0

> <s_lp_Force_Field>
OPLS_2005

> <r_lp_Energy>
15.0003

> <b_lp_Chiralities_Consistent>
1

> <s_lp_Variant>
AV-unprocessed.smi:804-1

> <Gold.Version>
5.8.1

> <Gold.Id.Protein>
6NUR|6NUR_protein|mol2

> <Gold.PLP.Fitness>
32.6407

> <Gold.PLP.PLP>
-30.8059

> <Gold.PLP.part.hbond>
-1.0000

> <Gold.PLP.part.metal>
0.0000

> <Gold.PLP.part.buried>
-5.2730

> <Gold.PLP.part.nonpolar>
-27.6611

> <Gold.PLP.part.repulsive>
3.1746

> <Gold.PLP.ligand.clash>
0.0000

> <Gold.PLP.ligand.torsion>
0.4457

> <Gold.PLP.Chemscore.Hbond>
0.8640

> <Gold.PLP.Chemscore.CHOScore>
0.0000

> <Gold.PLP.Chemscore.Metal>
0.0000

> <Gold.Chemscore.Hbonds>
donor molecule, donor type, donor heavy atom, donor atom, acceptor molecule, acceptor atom, score
      L1  H     5    30       P1  7948  0.83

> <Gold.PLP.Chemscore.Internal.Correction>
0.1342

> <Gold.Rescore>
     Score         DG    S(hbond)    S(metal)    S(lipo)     H(rot)  DE(clash)    DE(int)     intcor
     10.19     -13.06       0.70        0.00      66.74       1.00       0.71       2.16       ----

> <Gold.Chemscore.Fitness>
10.1945

> <Gold.Chemscore.DG>
-13.0616

> <Gold.Chemscore.ZeroCoef>
-5.4800

> <Gold.Chemscore.Hbond>
0.6984

> <Gold.Chemscore.Metal>
0.0000

> <Gold.Chemscore.Lipo>
66.7439

> <Gold.Chemscore.Internal_Hbond>
0.0000

> <Gold.Chemscore.DEClash>
0.7071

> <Gold.Chemscore.DEInternal>
2.1600

> <Gold.Chemscore.Rot>
1.0000

> <Gold.Chemscore.Internal.Correction>
   9.000000E+99

> <Gold.Chemscore.Hbonds>
donor molecule, donor type, donor heavy atom, donor atom, acceptor molecule, acceptor atom, score
      L1  H     5    30       P1  7948  0.81

> <Gold.Chemscore.Hbond.Weighted>
-2.3325

> <Gold.Chemscore.Metal.Weighted>
-0.0000

> <Gold.Chemscore.Lipo.Weighted>
-7.8090

> <Gold.Chemscore.Internal_Hbond.Weighted>
0.0000

> <Gold.Chemscore.DEClash.Weighted>
0.7071

> <Gold.Chemscore.DEInternal.Weighted>
2.1600

> <Gold.Chemscore.Rot.Weighted>
2.5600

> <Gold.Chemscore.Internal.Correction.Weighted>
   9.000000E+99

> <Gold.Protein.RotatedTorsions>
[ 6907 6896 6895 6894 ] final  138.34 input  -60.11 | X-H torsion
[ 7974 7965 7964 7962 ] final  176.86 input  175.53 | X-H torsion
[ 8008 7997 7996 7995 ] final -164.68 input   59.86 | X-H torsion
[ 10167 10162 10161 10158 ] final -137.62 input  -65.29 | X-H torsion
[ 10718 10713 10712 10709 ] final  -28.74 input   66.30 | X-H torsion
[ 10763 10752 10751 10750 ] final   86.59 input  -60.55 | X-H torsion
[ 11005 11000 10999 10996 ] final  124.24 input  -57.11 | X-H torsion

> <Gold.Protein.ActiveResidues>
 VAL166  LYS551  ARG553  GLY616  TRP617  ASP618  TYR619  PRO620  LYS621  CYS622 
 ASP623  PHE694  ASN695  SER759  ASP760  ASP761  ALA762  ILE779  LEU786  VAL792 
 PHE793  MET794  SER795  GLU796  ALA797  LYS798  CYS799  TRP800  GLU811  SER814 

> <Gold.Protein.RotatedAtoms>
  152.2677  133.5354  159.5419 H   0  0  0  0  0  0  0  0  0  0  0  0  # atno 6907 bound_to 6896
  150.7147  134.0742  159.3884 H   0  0  0  0  0  0  0  0  0  0  0  0  # atno 6908 bound_to 6896
  151.8657  135.0508  160.0525 H   0  0  0  0  0  0  0  0  0  0  0  0  # atno 6909 bound_to 6896
  144.7177  140.0160  143.6440 H   0  0  0  0  0  0  0  0  0  0  0  0  # atno 7974 bound_to 7965
  155.8391  140.0945  157.1745 H   0  0  0  0  0  0  0  0  0  0  0  0  # atno 8008 bound_to 7997
  154.3981  140.1404  156.3768 H   0  0  0  0  0  0  0  0  0  0  0  0  # atno 8009 bound_to 7997
  155.8083  140.3450  155.5445 H   0  0  0  0  0  0  0  0  0  0  0  0  # atno 8010 bound_to 7997
  139.8559  143.7139  152.2654 H   0  0  0  0  0  0  0  0  0  0  0  0  # atno 10167 bound_to 10162
  156.4214  130.4427  149.7181 H   0  0  0  0  0  0  0  0  0  0  0  0  # atno 10718 bound_to 10713
  153.1586  135.4574  154.9739 H   0  0  0  0  0  0  0  0  0  0  0  0  # atno 10763 bound_to 10752
  154.7880  135.3210  154.7845 H   0  0  0  0  0  0  0  0  0  0  0  0  # atno 10764 bound_to 10752
  153.8338  135.6936  153.4865 H   0  0  0  0  0  0  0  0  0  0  0  0  # atno 10765 bound_to 10752
  139.9349  134.9640  156.8380 H   0  0  0  0  0  0  0  0  0  0  0  0  # atno 11005 bound_to 11000
  146.0219  139.3259  143.0807 LP  0  0  0  0  0  0  0  0  0  0  0  0  # atno 17320 bound_to 7965
  145.8557  140.9504  143.0726 LP  0  0  0  0  0  0  0  0  0  0  0  0  # atno 17321 bound_to 7965
  139.7420  144.7557  151.0638 LP  0  0  0  0  0  0  0  0  0  0  0  0  # atno 17342 bound_to 10162
  140.7781  143.4961  150.9831 LP  0  0  0  0  0  0  0  0  0  0  0  0  # atno 17343 bound_to 10162
  156.4121  130.7727  151.2740 LP  0  0  0  0  0  0  0  0  0  0  0  0  # atno 17370 bound_to 10713
  157.7508  131.0208  150.3725 LP  0  0  0  0  0  0  0  0  0  0  0  0  # atno 17371 bound_to 10713
  140.6101  134.0090  155.7573 LP  0  0  0  0  0  0  0  0  0  0  0  0  # atno 17394 bound_to 11000
  141.0958  133.9845  157.3162 LP  0  0  0  0  0  0  0  0  0  0  0  0  # atno 17395 bound_to 11000

$$$$
