AV-unprocessed.smi:2492|AV-procd|sdf|9818|dock2
  -GOLD-   2272013443D 1   1.00000     0.00000
 Structure written by MMmdl.
 32 33  0  0  0  0  0  0  0  0  2 V2000
  152.6331  144.7165  157.4759 C   0  0  0  0  0  0  0  0  0  0  0  0
  151.6389  144.7820  158.9899 S   0  0  0  0  0  0  0  0  0  0  0  0
  152.6984  143.8219  160.1094 C   0  0  1  0  0  0  0  0  0  0  0  0
  152.1923  143.8337  161.5496 C   0  0  0  0  0  0  0  0  0  0  0  0
  152.8733  142.6287  162.2018 C   0  0  0  0  0  0  0  0  0  0  0  0
  153.1148  141.6084  161.0723 C   0  0  2  0  0  0  0  0  0  0  0  0
  154.5043  141.1549  161.0727 N   0  0  0  0  0  0  0  0  0  0  0  0
  155.0768  140.3699  160.1485 C   0  0  0  0  0  0  0  0  0  0  0  0
  154.4176  139.9733  159.1845 O   0  0  0  0  0  0  0  0  0  0  0  0
  156.3771  140.0947  160.3984 N   0  5  0  0  0  0  0  0  0  0  0  0
  157.3372  140.6483  159.6396 C   0  0  0  0  0  0  0  0  0  0  0  0
  158.5036  141.1255  160.0764 N   0  0  0  0  0  0  0  0  0  0  0  0
  159.0736  141.5677  158.9238 C   0  0  0  0  0  0  0  0  0  0  0  0
  160.4223  142.2003  158.8781 C   0  0  0  0  0  0  0  0  0  0  0  0
  158.3503  141.4117  157.8250 N   0  0  0  0  0  0  0  0  0  0  0  0
  157.1819  140.7980  158.2982 O   0  0  0  0  0  0  0  0  0  0  0  0
  152.7568  142.3328  159.7598 C   0  0  0  0  0  0  0  0  0  0  0  0
  152.1507  145.2919  156.6858 H   0  0  0  0  0  0  0  0  0  0  0  0
  152.7435  143.6879  157.1330 H   0  0  0  0  0  0  0  0  0  0  0  0
  153.6243  145.1341  157.6522 H   0  0  0  0  0  0  0  0  0  0  0  0
  153.7069  144.2377  160.0873 H   0  0  0  0  0  0  0  0  0  0  0  0
  152.4140  144.7687  162.0649 H   0  0  0  0  0  0  0  0  0  0  0  0
  151.1106  143.6925  161.5663 H   0  0  0  0  0  0  0  0  0  0  0  0
  153.8192  142.9490  162.6420 H   0  0  0  0  0  0  0  0  0  0  0  0
  152.2701  142.2113  163.0086 H   0  0  0  0  0  0  0  0  0  0  0  0
  152.4532  140.7510  161.2094 H   0  0  0  0  0  0  0  0  0  0  0  0
  155.0820  141.4574  161.8433 H   0  0  0  0  0  0  0  0  0  0  0  0
  160.3263  143.2817  158.7787 H   0  0  0  0  0  0  0  0  0  0  0  0
  160.9932  141.8213  158.0299 H   0  0  0  0  0  0  0  0  0  0  0  0
  160.9789  141.9844  159.7906 H   0  0  0  0  0  0  0  0  0  0  0  0
  151.7746  141.9946  159.4265 H   0  0  0  0  0  0  0  0  0  0  0  0
  153.4564  142.1280  158.9484 H   0  0  0  0  0  0  0  0  0  0  0  0
  1  2  1  0  0  0  0
  1 18  1  0  0  0  0
  1 19  1  0  0  0  0
  1 20  1  0  0  0  0
  2  3  1  0  0  0  0
  3 17  1  0  0  0  0
  3  4  1  0  0  0  0
  3 21  1  0  0  0  0
  4  5  1  0  0  0  0
  4 22  1  0  0  0  0
  4 23  1  0  0  0  0
  5  6  1  0  0  0  0
  5 24  1  0  0  0  0
  5 25  1  0  0  0  0
  6  7  1  0  0  0  0
  6 17  1  0  0  0  0
  6 26  1  0  0  0  0
  7  8  1  0  0  0  0
  7 27  1  0  0  0  0
  8  9  2  0  0  0  0
  8 10  1  0  0  0  0
 10 11  1  0  0  0  0
 11 16  1  0  0  0  0
 11 12  2  0  0  0  0
 12 13  1  0  0  0  0
 13 14  1  0  0  0  0
 13 15  2  0  0  0  0
 14 28  1  0  0  0  0
 14 29  1  0  0  0  0
 14 30  1  0  0  0  0
 15 16  1  0  0  0  0
 17 31  1  0  0  0  0
 17 32  1  0  0  0  0
M  CHG  1  10  -1
M  END
> <s_m_source_file>
AV-unprocessed.smi

> <i_m_source_file_index>
2492

> <i_lp_mmshare_version>
43012

> <i_f3d_flags>
0

> <s_epik_input>
W0NIM11TW0NAQEhdMVtDSDJdW0NIMl1bQ0BIXShbQ0gyXTEpW05IXUMoPU8pW05IXWMybmMoW0NIM10pbm8y

> <s_epik_cmdline>
J2VwaWtfcHl0aG9uJywgJy1waCcsICc3LjAnLCAnLXRuJywgJzgnLCAnLW1hJywgJzIwMCcsICctbWV0YWxfYmluZGluZycsICctaW1hZScsICc8aW5maWxlLm1hZT4nLCAnLW9tYWUnLCAnPG91dGZpbGUubWFlPic=

> <r_lp_tautomer_probability>
1

> <r_epik_Ionization_Penalty>
6.26454

> <r_epik_Ionization_Penalty_Charging>
6.26445

> <r_epik_Ionization_Penalty_Neutral>
9.05726e-05

> <r_epik_State_Penalty>
6.26444

> <r_epik_Charging_Adjusted_Penalty>
12.5289

> <i_epik_Tot_Q>
-1

> <i_epik_Tot_abs_Q>
1

> <r_epik_Metal_State_Penalty>
2.20125

> <b_epik_Metal_Only>
1

> <s_lp_Force_Field>
OPLS_2005

> <r_lp_Energy>
10.5143

> <b_lp_Chiralities_Consistent>
1

> <s_lp_Variant>
AV-unprocessed.smi:2492-8

> <Gold.Version>
5.8.1

> <Gold.Id.Protein>
6NUR|6NUR_protein|mol2

> <Gold.PLP.Fitness>
40.9436

> <Gold.PLP.PLP>
-40.0119

> <Gold.PLP.part.hbond>
-3.6338

> <Gold.PLP.part.metal>
0.0000

> <Gold.PLP.part.buried>
-3.6592

> <Gold.PLP.part.nonpolar>
-32.8054

> <Gold.PLP.part.repulsive>
0.2491

> <Gold.PLP.ligand.clash>
0.0000

> <Gold.PLP.ligand.torsion>
1.0469

> <Gold.PLP.Chemscore.Hbond>
1.0000

> <Gold.PLP.Chemscore.CHOScore>
0.0000

> <Gold.PLP.Chemscore.Metal>
0.0000

> <Gold.Chemscore.Hbonds>
donor molecule, donor type, donor heavy atom, donor atom, acceptor molecule, acceptor atom, score
      P1  H  7997  8009       L1     9  1.00

> <Gold.PLP.Chemscore.Internal.Correction>
0.0255

> <Gold.Rescore>
     Score         DG    S(hbond)    S(metal)    S(lipo)     H(rot)  DE(clash)    DE(int)     intcor
     12.91     -16.48       0.95        0.00      94.61       1.27       0.34       3.22       ----

> <Gold.Chemscore.Fitness>
12.9145

> <Gold.Chemscore.DG>
-16.4787

> <Gold.Chemscore.ZeroCoef>
-5.4800

> <Gold.Chemscore.Hbond>
0.9533

> <Gold.Chemscore.Metal>
0.0000

> <Gold.Chemscore.Lipo>
94.6064

> <Gold.Chemscore.Internal_Hbond>
0.0000

> <Gold.Chemscore.DEClash>
0.3447

> <Gold.Chemscore.DEInternal>
3.2195

> <Gold.Chemscore.Rot>
1.2712

> <Gold.Chemscore.Internal.Correction>
   9.000000E+99

> <Gold.Chemscore.Hbonds>
donor molecule, donor type, donor heavy atom, donor atom, acceptor molecule, acceptor atom, score
      P1  H  7997  8009       L1     9  0.94

> <Gold.Chemscore.Hbond.Weighted>
-3.1839

> <Gold.Chemscore.Metal.Weighted>
-0.0000

> <Gold.Chemscore.Lipo.Weighted>
-11.0689

> <Gold.Chemscore.Internal_Hbond.Weighted>
0.0000

> <Gold.Chemscore.DEClash.Weighted>
0.3447

> <Gold.Chemscore.DEInternal.Weighted>
3.2195

> <Gold.Chemscore.Rot.Weighted>
3.2542

> <Gold.Chemscore.Internal.Correction.Weighted>
   9.000000E+99

> <Gold.Protein.RotatedTorsions>
[ 6907 6896 6895 6894 ] final  -14.59 input  -60.11 | X-H torsion
[ 7974 7965 7964 7962 ] final  -60.64 input  175.53 | X-H torsion
[ 8008 7997 7996 7995 ] final  119.17 input   59.86 | X-H torsion
[ 10167 10162 10161 10158 ] final    1.68 input  -65.29 | X-H torsion
[ 10718 10713 10712 10709 ] final -103.43 input   66.30 | X-H torsion
[ 10763 10752 10751 10750 ] final -146.97 input  -60.55 | X-H torsion
[ 11005 11000 10999 10996 ] final -161.74 input  -57.11 | X-H torsion

> <Gold.Protein.ActiveResidues>
 VAL166  LYS551  ARG553  GLY616  TRP617  ASP618  TYR619  PRO620  LYS621  CYS622 
 ASP623  PHE694  ASN695  SER759  ASP760  ASP761  ALA762  ILE779  LEU786  VAL792 
 PHE793  MET794  SER795  GLU796  ALA797  LYS798  CYS799  TRP800  GLU811  SER814 

> <Gold.Protein.RotatedAtoms>
  151.3371  135.0855  159.9358 H   0  0  0  0  0  0  0  0  0  0  0  0  # atno 6907 bound_to 6896
  152.5220  133.9484  159.7670 H   0  0  0  0  0  0  0  0  0  0  0  0  # atno 6908 bound_to 6896
  150.9834  133.6169  159.2749 H   0  0  0  0  0  0  0  0  0  0  0  0  # atno 6909 bound_to 6896
  145.8130  140.8587  143.0172 H   0  0  0  0  0  0  0  0  0  0  0  0  # atno 7974 bound_to 7965
  156.2583  140.2858  156.0950 H   0  0  0  0  0  0  0  0  0  0  0  0  # atno 8008 bound_to 7997
  155.1421  140.0396  157.2818 H   0  0  0  0  0  0  0  0  0  0  0  0  # atno 8009 bound_to 7997
  154.6522  140.2547  155.7208 H   0  0  0  0  0  0  0  0  0  0  0  0  # atno 8010 bound_to 7997
  140.6671  143.7149  150.7849 H   0  0  0  0  0  0  0  0  0  0  0  0  # atno 10167 bound_to 10162
  156.0265  130.5467  150.7252 H   0  0  0  0  0  0  0  0  0  0  0  0  # atno 10718 bound_to 10713
  154.8309  135.3372  154.6745 H   0  0  0  0  0  0  0  0  0  0  0  0  # atno 10763 bound_to 10752
  153.7365  135.6948  153.4981 H   0  0  0  0  0  0  0  0  0  0  0  0  # atno 10764 bound_to 10752
  153.2274  135.4428  155.0509 H   0  0  0  0  0  0  0  0  0  0  0  0  # atno 10765 bound_to 10752
  140.6171  134.4789  157.5220 H   0  0  0  0  0  0  0  0  0  0  0  0  # atno 11005 bound_to 11000
  144.6755  140.0424  143.7480 LP  0  0  0  0  0  0  0  0  0  0  0  0  # atno 17320 bound_to 7965
  145.9756  139.2902  143.1072 LP  0  0  0  0  0  0  0  0  0  0  0  0  # atno 17321 bound_to 7965
  140.0828  143.4952  152.2521 LP  0  0  0  0  0  0  0  0  0  0  0  0  # atno 17342 bound_to 10162
  139.5924  144.7555  151.3368 LP  0  0  0  0  0  0  0  0  0  0  0  0  # atno 17343 bound_to 10162
  157.4858  131.0906  151.0484 LP  0  0  0  0  0  0  0  0  0  0  0  0  # atno 17370 bound_to 10713
  157.0904  130.5940  149.5438 LP  0  0  0  0  0  0  0  0  0  0  0  0  # atno 17371 bound_to 10713
  139.9168  134.8229  156.1339 LP  0  0  0  0  0  0  0  0  0  0  0  0  # atno 17394 bound_to 11000
  141.0768  133.6772  156.2253 LP  0  0  0  0  0  0  0  0  0  0  0  0  # atno 17395 bound_to 11000

$$$$
