AV-unprocessed.smi:283|AV-procd|sdf|2138|dock1
  -GOLD-   2262021463D 1   1.00000     0.00000
 Structure written by MMmdl.
 48 51  0  0  0  0  0  0  0  0  1 V2000
  148.5858  141.7148  157.3122 C   0  0  0  0  0  0  0  0  0  0  0  0
  149.9827  141.0797  157.3289 C   0  0  1  0  0  0  0  0  0  0  0  0
  150.4463  140.8761  155.9584 N   0  0  0  0  0  0  0  0  0  0  0  0
  150.8439  139.6583  155.5285 C   0  0  0  0  0  0  0  0  0  0  0  0
  151.9742  139.6451  154.7839 N   0  0  0  0  0  0  0  0  0  0  0  0
  152.4633  138.4892  154.3299 C   0  0  0  0  0  0  0  0  0  0  0  0
  151.9769  137.2587  154.4930 N   0  0  0  0  0  0  0  0  0  0  0  0
  150.8222  137.2587  155.2217 C   0  0  0  0  0  0  0  0  0  0  0  0
  150.1975  138.4116  155.7808 C   0  0  0  0  0  0  0  0  0  0  0  0
  149.0555  138.0241  156.4687 N   0  0  0  0  0  0  0  0  0  0  0  0
  149.0214  136.7276  156.3381 C   0  0  0  0  0  0  0  0  0  0  0  0
  150.0227  136.1805  155.5636 N   0  0  0  0  0  0  0  0  0  0  0  0
  150.2588  134.7223  155.2541 C   0  0  2  0  0  0  0  0  0  0  0  0
  149.8702  134.4550  153.9447 O   0  0  0  0  0  0  0  0  0  0  0  0
  148.4729  134.2048  153.9208 C   0  0  1  0  0  0  0  0  0  0  0  0
  148.0867  133.4941  152.6155 C   0  0  0  0  0  0  0  0  0  0  0  0
  148.7392  132.2449  152.5348 O   0  0  0  0  0  0  0  0  0  0  0  0
  148.2775  133.3437  155.1747 C   0  0  2  0  0  0  0  0  0  0  0  0
  146.9970  133.5856  155.7238 O   0  0  0  0  0  0  0  0  0  0  0  0
  149.3752  133.8147  156.1343 C   0  0  1  0  0  0  0  0  0  0  0  0
  150.1110  132.7175  156.6359 O   0  0  0  0  0  0  0  0  0  0  0  0
  150.9294  141.9013  158.2086 C   0  0  0  0  0  0  0  0  0  0  0  0
  150.6607  143.2693  158.4489 C   0  0  0  0  0  0  0  0  0  0  0  0
  151.5181  144.0394  159.2565 C   0  0  0  0  0  0  0  0  0  0  0  0
  152.6507  143.4469  159.8427 C   0  0  0  0  0  0  0  0  0  0  0  0
  152.9208  142.0837  159.6230 C   0  0  0  0  0  0  0  0  0  0  0  0
  152.0663  141.3081  158.8138 C   0  0  0  0  0  0  0  0  0  0  0  0
  152.4398  139.6343  158.5919 Cl  0  0  0  0  0  0  0  0  0  0  0  0
  151.3326  134.5943  155.3971 H   0  0  0  0  0  0  0  0  0  0  0  0
  147.9311  135.1477  154.0248 H   0  0  0  0  0  0  0  0  0  0  0  0
  148.3915  132.2848  154.9366 H   0  0  0  0  0  0  0  0  0  0  0  0
  148.9643  134.3639  156.9808 H   0  0  0  0  0  0  0  0  0  0  0  0
  148.1807  141.7981  158.3212 H   0  0  0  0  0  0  0  0  0  0  0  0
  147.8874  141.1149  156.7277 H   0  0  0  0  0  0  0  0  0  0  0  0
  148.6091  142.7158  156.8800 H   0  0  0  0  0  0  0  0  0  0  0  0
  149.8680  140.0869  157.7596 H   0  0  0  0  0  0  0  0  0  0  0  0
  150.7257  141.7213  155.4823 H   0  0  0  0  0  0  0  0  0  0  0  0
  153.3739  138.5591  153.7535 H   0  0  0  0  0  0  0  0  0  0  0  0
  148.2496  136.1359  156.8083 H   0  0  0  0  0  0  0  0  0  0  0  0
  147.0069  133.3663  152.5351 H   0  0  0  0  0  0  0  0  0  0  0  0
  148.4084  134.0862  151.7584 H   0  0  0  0  0  0  0  0  0  0  0  0
  148.8076  131.9997  151.6247 H   0  0  0  0  0  0  0  0  0  0  0  0
  147.0728  133.6061  156.6656 H   0  0  0  0  0  0  0  0  0  0  0  0
  150.9486  132.6921  156.1989 H   0  0  0  0  0  0  0  0  0  0  0  0
  149.7920  143.7399  158.0124 H   0  0  0  0  0  0  0  0  0  0  0  0
  151.3046  145.0844  159.4275 H   0  0  0  0  0  0  0  0  0  0  0  0
  153.3085  144.0357  160.4647 H   0  0  0  0  0  0  0  0  0  0  0  0
  153.7874  141.6303  160.0812 H   0  0  0  0  0  0  0  0  0  0  0  0
  1  2  1  0  0  0  0
  1 33  1  0  0  0  0
  1 34  1  0  0  0  0
  1 35  1  0  0  0  0
  2  3  1  0  0  0  0
  2 22  1  0  0  0  0
  2 36  1  0  0  0  0
  3  4  1  0  0  0  0
  3 37  1  0  0  0  0
  4  9  1  0  0  0  0
  4  5  2  0  0  0  0
  5  6  1  0  0  0  0
  6  7  2  0  0  0  0
  6 38  1  0  0  0  0
  7  8  1  0  0  0  0
  8 12  1  0  0  0  0
  8  9  2  0  0  0  0
  9 10  1  0  0  0  0
 10 11  2  0  0  0  0
 11 12  1  0  0  0  0
 11 39  1  0  0  0  0
 12 13  1  0  0  0  0
 13 29  1  0  0  0  0
 13 20  1  0  0  0  0
 13 14  1  0  0  0  0
 14 15  1  0  0  0  0
 15 30  1  0  0  0  0
 15 16  1  0  0  0  0
 15 18  1  0  0  0  0
 16 17  1  0  0  0  0
 16 40  1  0  0  0  0
 16 41  1  0  0  0  0
 17 42  1  0  0  0  0
 18 31  1  0  0  0  0
 18 19  1  0  0  0  0
 18 20  1  0  0  0  0
 19 43  1  0  0  0  0
 20 32  1  0  0  0  0
 20 21  1  0  0  0  0
 21 44  1  0  0  0  0
 22 27  1  0  0  0  0
 22 23  2  0  0  0  0
 23 24  1  0  0  0  0
 23 45  1  0  0  0  0
 24 25  2  0  0  0  0
 24 46  1  0  0  0  0
 25 26  1  0  0  0  0
 25 47  1  0  0  0  0
 26 27  2  0  0  0  0
 26 48  1  0  0  0  0
 27 28  1  0  0  0  0
M  END
> <s_m_source_file>
AV-unprocessed.smi

> <i_m_source_file_index>
283

> <i_lp_mmshare_version>
43012

> <i_f3d_flags>
0

> <s_epik_input>
Q2xjMVtjSF1bY0hdW2NIXVtjSF1jMVtDQEhdKFtDSDNdKVtOSF1jKG5bY0hdbjIpYyhjMjMpbltjSF1uM1tDQEBIXTRPW0NASF0oW0NIMl1bT0hdKVtDQEBIXShbT0hdKVtDQEhdNFtPSF0=

> <s_epik_cmdline>
J2VwaWtfcHl0aG9uJywgJy1waCcsICc3LjAnLCAnLXRuJywgJzgnLCAnLW1hJywgJzIwMCcsICctbWV0YWxfYmluZGluZycsICctaW1hZScsICc8aW5maWxlLm1hZT4nLCAnLW9tYWUnLCAnPG91dGZpbGUubWFlPic=

> <r_lp_tautomer_probability>
1

> <r_epik_Ionization_Penalty>
0.000266407

> <r_epik_Ionization_Penalty_Charging>
0

> <r_epik_Ionization_Penalty_Neutral>
0.000266407

> <r_epik_State_Penalty>
-0

> <r_epik_Charging_Adjusted_Penalty>
0

> <i_epik_Tot_Q>
0

> <i_epik_Tot_abs_Q>
0

> <r_epik_Metal_State_Penalty>
-0

> <b_epik_Metal_Only>
0

> <s_epik_Chemistry_Notes>
This compound contains an acetal/aminal-like group ( X-CH(R)-Y where X, Y are N, S, or O) that may be acid/base labile, releasing an aldehyde.

> <s_lp_Force_Field>
OPLS_2005

> <r_lp_Energy>
39.8379

> <b_lp_Chiralities_Consistent>
1

> <s_lp_Variant>
AV-unprocessed.smi:283-14

> <Gold.Version>
5.8.1

> <Gold.Id.Protein>
6NUR|6NUR_protein|mol2

> <Gold.PLP.Fitness>
49.6608

> <Gold.PLP.PLP>
-43.1233

> <Gold.PLP.part.hbond>
-3.2241

> <Gold.PLP.part.metal>
0.0000

> <Gold.PLP.part.buried>
-7.3227

> <Gold.PLP.part.nonpolar>
-33.6104

> <Gold.PLP.part.repulsive>
0.4265

> <Gold.PLP.ligand.clash>
0.0000

> <Gold.PLP.ligand.torsion>
1.4472

> <Gold.PLP.Chemscore.Hbond>
3.0263

> <Gold.PLP.Chemscore.CHOScore>
0.0000

> <Gold.PLP.Chemscore.Metal>
0.0000

> <Gold.Chemscore.Hbonds>
donor molecule, donor type, donor heavy atom, donor atom, acceptor molecule, acceptor atom, score
      L1  H    17    42       P1 10747  1.00
      P1  H  7989  7998       L1     5  0.93
      P1  H 10752 10765       L1     7  0.94

> <Gold.PLP.Chemscore.Internal.Correction>
0.3532

> <Gold.Rescore>
     Score         DG    S(hbond)    S(metal)    S(lipo)     H(rot)  DE(clash)    DE(int)     intcor
     12.47     -13.87       2.47        0.00      90.79       4.10       0.09       1.31       ----

> <Gold.Chemscore.Fitness>
12.4681

> <Gold.Chemscore.DG>
-13.8669

> <Gold.Chemscore.ZeroCoef>
-5.4800

> <Gold.Chemscore.Hbond>
2.4707

> <Gold.Chemscore.Metal>
0.0000

> <Gold.Chemscore.Lipo>
90.7930

> <Gold.Chemscore.Internal_Hbond>
0.0000

> <Gold.Chemscore.DEClash>
0.0865

> <Gold.Chemscore.DEInternal>
1.3123

> <Gold.Chemscore.Rot>
4.0968

> <Gold.Chemscore.Internal.Correction>
   9.000000E+99

> <Gold.Chemscore.Hbonds>
donor molecule, donor type, donor heavy atom, donor atom, acceptor molecule, acceptor atom, score
      L1  H    17    42       P1 10747  0.96
      P1  H  7989  7998       L1     5  0.35
      P1  H 10752 10765       L1     7  0.89

> <Gold.Chemscore.Hbond.Weighted>
-8.2520

> <Gold.Chemscore.Metal.Weighted>
-0.0000

> <Gold.Chemscore.Lipo.Weighted>
-10.6228

> <Gold.Chemscore.Internal_Hbond.Weighted>
0.0000

> <Gold.Chemscore.DEClash.Weighted>
0.0865

> <Gold.Chemscore.DEInternal.Weighted>
1.3123

> <Gold.Chemscore.Rot.Weighted>
10.4879

> <Gold.Chemscore.Internal.Correction.Weighted>
   9.000000E+99

> <Gold.Protein.RotatedTorsions>
[ 6907 6896 6895 6894 ] final   88.38 input  -60.11 | X-H torsion
[ 7974 7965 7964 7962 ] final  -12.47 input  175.53 | X-H torsion
[ 8008 7997 7996 7995 ] final  -45.53 input   59.86 | X-H torsion
[ 10167 10162 10161 10158 ] final   -3.15 input  -65.29 | X-H torsion
[ 10718 10713 10712 10709 ] final  -19.95 input   66.30 | X-H torsion
[ 10763 10752 10751 10750 ] final  166.09 input  -60.55 | X-H torsion
[ 11005 11000 10999 10996 ] final   95.29 input  -57.11 | X-H torsion

> <Gold.Protein.ActiveResidues>
 VAL166  LYS551  ARG553  GLY616  TRP617  ASP618  TYR619  PRO620  LYS621  CYS622 
 ASP623  PHE694  ASN695  SER759  ASP760  ASP761  ALA762  ILE779  LEU786  VAL792 
 PHE793  MET794  SER795  GLU796  ALA797  LYS798  CYS799  TRP800  GLU811  SER814 

> <Gold.Protein.RotatedAtoms>
  152.5424  134.2130  159.8757 H   0  0  0  0  0  0  0  0  0  0  0  0  # atno 6907 bound_to 6896
  151.2111  133.4548  159.2606 H   0  0  0  0  0  0  0  0  0  0  0  0  # atno 6908 bound_to 6896
  151.0895  134.9920  159.8451 H   0  0  0  0  0  0  0  0  0  0  0  0  # atno 6909 bound_to 6896
  146.2150  140.3062  142.8379 H   0  0  0  0  0  0  0  0  0  0  0  0  # atno 7974 bound_to 7965
  154.4001  140.1394  156.3862 H   0  0  0  0  0  0  0  0  0  0  0  0  # atno 8008 bound_to 7997
  155.7957  140.3477  155.5354 H   0  0  0  0  0  0  0  0  0  0  0  0  # atno 8009 bound_to 7997
  155.8534  140.0945  157.1650 H   0  0  0  0  0  0  0  0  0  0  0  0  # atno 8010 bound_to 7997
  140.6879  143.6574  150.8297 H   0  0  0  0  0  0  0  0  0  0  0  0  # atno 10167 bound_to 10162
  156.5386  130.4673  149.6510 H   0  0  0  0  0  0  0  0  0  0  0  0  # atno 10718 bound_to 10713
  154.3338  135.2754  155.2458 H   0  0  0  0  0  0  0  0  0  0  0  0  # atno 10763 bound_to 10752
  154.4758  135.5871  153.6357 H   0  0  0  0  0  0  0  0  0  0  0  0  # atno 10764 bound_to 10752
  152.9864  135.6099  154.3533 H   0  0  0  0  0  0  0  0  0  0  0  0  # atno 10765 bound_to 10752
  139.8790  134.8891  156.3989 H   0  0  0  0  0  0  0  0  0  0  0  0  # atno 11005 bound_to 11000
  144.9021  140.7655  143.5860 LP  0  0  0  0  0  0  0  0  0  0  0  0  # atno 17320 bound_to 7965
  145.2989  139.1857  143.4700 LP  0  0  0  0  0  0  0  0  0  0  0  0  # atno 17321 bound_to 7965
  140.0283  143.5470  152.2771 LP  0  0  0  0  0  0  0  0  0  0  0  0  # atno 17342 bound_to 10162
  139.6253  144.7636  151.2651 LP  0  0  0  0  0  0  0  0  0  0  0  0  # atno 17343 bound_to 10162
  156.2992  130.7167  151.2035 LP  0  0  0  0  0  0  0  0  0  0  0  0  # atno 17370 bound_to 10713
  157.7409  131.0511  150.5133 LP  0  0  0  0  0  0  0  0  0  0  0  0  # atno 17371 bound_to 10713
  140.9280  133.7598  155.9989 LP  0  0  0  0  0  0  0  0  0  0  0  0  # atno 17394 bound_to 11000
  140.8363  134.3119  157.5330 LP  0  0  0  0  0  0  0  0  0  0  0  0  # atno 17395 bound_to 11000

$$$$
