AV-unprocessed.smi:1696|AV-procd|sdf|6799|dock1
  -GOLD-   22720 7563D 1   1.00000     0.00000
 Structure written by MMmdl.
 39 40  0  0  0  0  0  0  0  0  2 V2000
  146.5164  141.8834  154.9002 C   0  0  0  0  0  0  0  0  0  0  0  0
  146.9997  141.4401  153.5096 C   0  0  0  0  0  0  0  0  0  0  0  0
  147.5449  139.9873  153.4407 C   0  0  2  0  0  0  0  0  0  0  0  0
  146.4328  138.9229  153.6372 C   0  0  0  0  0  0  0  0  0  0  0  0
  146.6889  137.7049  152.8715 N   0  0  0  0  0  0  0  0  0  0  0  0
  145.7553  136.8497  152.4288 C   0  0  0  0  0  0  0  0  0  0  0  0
  144.5503  136.9901  152.6378 O   0  0  0  0  0  0  0  0  0  0  0  0
  146.3102  135.8417  151.7333 N   0  0  0  0  0  0  0  0  0  0  0  0
  145.6579  134.7585  151.0877 C   0  0  0  0  0  0  0  0  0  0  0  0
  144.3478  134.7187  150.8184 N   0  0  0  0  0  0  0  0  0  0  0  0
  143.9805  133.5337  150.1756 C   0  0  0  0  0  0  0  0  0  0  0  0
  145.0313  132.6769  149.9615 C   0  0  0  0  0  0  0  0  0  0  0  0
  146.5329  133.3274  150.5629 S   0  0  0  0  0  0  0  0  0  0  0  0
  148.6737  139.7746  154.3949 N   0  3  0  0  0  0  0  0  0  0  0  0
  149.5954  138.6608  154.0557 C   0  0  0  0  0  0  0  0  0  0  0  0
  151.0034  139.0802  154.5025 C   0  0  0  0  0  0  0  0  0  0  0  0
  150.8047  140.3867  155.2630 C   0  0  0  0  0  0  0  0  0  0  0  0
  149.5271  140.9542  154.6562 C   0  0  0  0  0  0  0  0  0  0  0  0
  146.1572  142.9122  154.8701 H   0  0  0  0  0  0  0  0  0  0  0  0
  147.3168  141.8382  155.6383 H   0  0  0  0  0  0  0  0  0  0  0  0
  145.6955  141.2646  155.2604 H   0  0  0  0  0  0  0  0  0  0  0  0
  146.1785  141.5590  152.8025 H   0  0  0  0  0  0  0  0  0  0  0  0
  147.7579  142.1409  153.1602 H   0  0  0  0  0  0  0  0  0  0  0  0
  147.9511  139.8490  152.4372 H   0  0  0  0  0  0  0  0  0  0  0  0
  146.3725  138.6153  154.6805 H   0  0  0  0  0  0  0  0  0  0  0  0
  145.4569  139.3483  153.3990 H   0  0  0  0  0  0  0  0  0  0  0  0
  147.6539  137.5017  152.6547 H   0  0  0  0  0  0  0  0  0  0  0  0
  147.3155  135.8547  151.6452 H   0  0  0  0  0  0  0  0  0  0  0  0
  142.9459  133.3822  149.9051 H   0  0  0  0  0  0  0  0  0  0  0  0
  145.0127  131.7064  149.4883 H   0  0  0  0  0  0  0  0  0  0  0  0
  149.2697  137.7502  154.5598 H   0  0  0  0  0  0  0  0  0  0  0  0
  149.6022  138.4639  152.9827 H   0  0  0  0  0  0  0  0  0  0  0  0
  151.4914  138.3201  155.1130 H   0  0  0  0  0  0  0  0  0  0  0  0
  151.6307  139.2536  153.6274 H   0  0  0  0  0  0  0  0  0  0  0  0
  150.6491  140.1784  156.3226 H   0  0  0  0  0  0  0  0  0  0  0  0
  151.6544  141.0643  155.1742 H   0  0  0  0  0  0  0  0  0  0  0  0
  149.7567  141.4595  153.7165 H   0  0  0  0  0  0  0  0  0  0  0  0
  149.0486  141.6721  155.3227 H   0  0  0  0  0  0  0  0  0  0  0  0
  148.2631  139.5324  155.2855 H   0  0  0  0  0  0  0  0  0  0  0  0
  1  2  1  0  0  0  0
  1 19  1  0  0  0  0
  1 20  1  0  0  0  0
  1 21  1  0  0  0  0
  2  3  1  0  0  0  0
  2 22  1  0  0  0  0
  2 23  1  0  0  0  0
  3  4  1  0  0  0  0
  3 14  1  0  0  0  0
  3 24  1  0  0  0  0
  4  5  1  0  0  0  0
  4 25  1  0  0  0  0
  4 26  1  0  0  0  0
  5  6  1  0  0  0  0
  5 27  1  0  0  0  0
  6  7  2  0  0  0  0
  6  8  1  0  0  0  0
  8  9  1  0  0  0  0
  8 28  1  0  0  0  0
  9 13  1  0  0  0  0
  9 10  2  0  0  0  0
 10 11  1  0  0  0  0
 11 12  2  0  0  0  0
 11 29  1  0  0  0  0
 12 13  1  0  0  0  0
 12 30  1  0  0  0  0
 14 18  1  0  0  0  0
 14 15  1  0  0  0  0
 14 39  1  0  0  0  0
 15 16  1  0  0  0  0
 15 31  1  0  0  0  0
 15 32  1  0  0  0  0
 16 17  1  0  0  0  0
 16 33  1  0  0  0  0
 16 34  1  0  0  0  0
 17 18  1  0  0  0  0
 17 35  1  0  0  0  0
 17 36  1  0  0  0  0
 18 37  1  0  0  0  0
 18 38  1  0  0  0  0
M  CHG  1  14   1
M  END
> <s_m_source_file>
AV-unprocessed.smi

> <i_m_source_file_index>
1696

> <i_lp_mmshare_version>
43012

> <i_f3d_flags>
0

> <s_epik_input>
W0NIMl0xW0NIMl1bQ0gyXVtDSDJdTjFbQ0BIXShbQ0gyXVtDSDNdKVtDSDJdW05IXUMoPU8pW05IXWMybltjSF1bY0hdczI=

> <s_epik_cmdline>
J2VwaWtfcHl0aG9uJywgJy1waCcsICc3LjAnLCAnLXRuJywgJzgnLCAnLW1hJywgJzIwMCcsICctbWV0YWxfYmluZGluZycsICctaW1hZScsICc8aW5maWxlLm1hZT4nLCAnLW9tYWUnLCAnPG91dGZpbGUubWFlPic=

> <r_lp_tautomer_probability>
1

> <r_epik_Ionization_Penalty>
0.0013883

> <r_epik_Ionization_Penalty_Charging>
0.00115997

> <r_epik_Ionization_Penalty_Neutral>
0.000228323

> <r_epik_State_Penalty>
-0

> <r_epik_Charging_Adjusted_Penalty>
0.00115997

> <i_epik_Tot_Q>
1

> <i_epik_Tot_abs_Q>
1

> <r_epik_Metal_State_Penalty>
0.0131845

> <b_epik_Metal_Only>
0

> <s_lp_Force_Field>
OPLS_2005

> <r_lp_Energy>
31.4712

> <b_lp_Chiralities_Consistent>
1

> <s_lp_Variant>
AV-unprocessed.smi:1696-1

> <Gold.Version>
5.8.1

> <Gold.Id.Protein>
6NUR|6NUR_protein|mol2

> <Gold.PLP.Fitness>
39.8183

> <Gold.PLP.PLP>
-33.1158

> <Gold.PLP.part.hbond>
-2.0000

> <Gold.PLP.part.metal>
0.0000

> <Gold.PLP.part.buried>
-3.3669

> <Gold.PLP.part.nonpolar>
-28.1863

> <Gold.PLP.part.repulsive>
0.5393

> <Gold.PLP.ligand.clash>
0.0000

> <Gold.PLP.ligand.torsion>
1.0872

> <Gold.PLP.Chemscore.Hbond>
1.9120

> <Gold.PLP.Chemscore.CHOScore>
1.0000

> <Gold.PLP.Chemscore.Metal>
0.0000

> <Gold.Chemscore.Hbonds>
donor molecule, donor type, donor heavy atom, donor atom, acceptor molecule, acceptor atom, score
      L1  H     5    27       P1  7948  0.94
      L1  H     8    28       P1  7948  1.00
      L1  C    11    29       P1 10186  1.00

> <Gold.PLP.Chemscore.Internal.Correction>
0.1410

> <Gold.Rescore>
     Score         DG    S(hbond)    S(metal)    S(lipo)     H(rot)  DE(clash)    DE(int)     intcor
     14.41     -16.70       1.95        0.00      78.87       1.77       0.05       2.24       ----

> <Gold.Chemscore.Fitness>
14.4100

> <Gold.Chemscore.DG>
-16.7015

> <Gold.Chemscore.ZeroCoef>
-5.4800

> <Gold.Chemscore.Hbond>
1.9540

> <Gold.Chemscore.Metal>
0.0000

> <Gold.Chemscore.Lipo>
78.8687

> <Gold.Chemscore.Internal_Hbond>
0.0000

> <Gold.Chemscore.DEClash>
0.0544

> <Gold.Chemscore.DEInternal>
2.2371

> <Gold.Chemscore.Rot>
1.7705

> <Gold.Chemscore.Internal.Correction>
   9.000000E+99

> <Gold.Chemscore.Hbonds>
donor molecule, donor type, donor heavy atom, donor atom, acceptor molecule, acceptor atom, score
      L1  H     5    27       P1  7948  0.90
      L1  H     8    28       P1  7948  1.00

> <Gold.Chemscore.Hbond.Weighted>
-6.5263

> <Gold.Chemscore.Metal.Weighted>
-0.0000

> <Gold.Chemscore.Lipo.Weighted>
-9.2276

> <Gold.Chemscore.Internal_Hbond.Weighted>
0.0000

> <Gold.Chemscore.DEClash.Weighted>
0.0544

> <Gold.Chemscore.DEInternal.Weighted>
2.2371

> <Gold.Chemscore.Rot.Weighted>
4.5324

> <Gold.Chemscore.Internal.Correction.Weighted>
   9.000000E+99

> <Gold.Protein.RotatedTorsions>
[ 6907 6896 6895 6894 ] final  -59.19 input  -60.11 | X-H torsion
[ 7974 7965 7964 7962 ] final  177.76 input  175.53 | X-H torsion
[ 8008 7997 7996 7995 ] final -170.21 input   59.86 | X-H torsion
[ 10167 10162 10161 10158 ] final -172.11 input  -65.29 | X-H torsion
[ 10718 10713 10712 10709 ] final  -50.00 input   66.30 | X-H torsion
[ 10763 10752 10751 10750 ] final  -99.03 input  -60.55 | X-H torsion
[ 11005 11000 10999 10996 ] final  -32.86 input  -57.11 | X-H torsion

> <Gold.Protein.ActiveResidues>
 VAL166  LYS551  ARG553  GLY616  TRP617  ASP618  TYR619  PRO620  LYS621  CYS622 
 ASP623  PHE694  ASN695  SER759  ASP760  ASP761  ALA762  ILE779  LEU786  VAL792 
 PHE793  MET794  SER795  GLU796  ALA797  LYS798  CYS799  TRP800  GLU811  SER814 

> <Gold.Protein.RotatedAtoms>
  150.7949  134.7001  159.6545 H   0  0  0  0  0  0  0  0  0  0  0  0  # atno 6907 bound_to 6896
  152.4060  134.6202  160.0058 H   0  0  0  0  0  0  0  0  0  0  0  0  # atno 6908 bound_to 6896
  151.6460  133.3286  159.3177 H   0  0  0  0  0  0  0  0  0  0  0  0  # atno 6909 bound_to 6896
  144.7165  140.0295  143.6439 H   0  0  0  0  0  0  0  0  0  0  0  0  # atno 7974 bound_to 7965
  155.9153  140.1064  157.1248 H   0  0  0  0  0  0  0  0  0  0  0  0  # atno 8008 bound_to 7997
  154.4045  140.1266  156.4674 H   0  0  0  0  0  0  0  0  0  0  0  0  # atno 8009 bound_to 7997
  155.7261  140.3469  155.5040 H   0  0  0  0  0  0  0  0  0  0  0  0  # atno 8010 bound_to 7997
  139.5763  144.1524  152.1455 H   0  0  0  0  0  0  0  0  0  0  0  0  # atno 10167 bound_to 10162
  156.1841  130.4151  149.9465 H   0  0  0  0  0  0  0  0  0  0  0  0  # atno 10718 bound_to 10713
  154.7464  135.4987  153.9212 H   0  0  0  0  0  0  0  0  0  0  0  0  # atno 10763 bound_to 10752
  153.1097  135.6706  153.9531 H   0  0  0  0  0  0  0  0  0  0  0  0  # atno 10764 bound_to 10752
  153.9294  135.3079  155.3425 H   0  0  0  0  0  0  0  0  0  0  0  0  # atno 10765 bound_to 10752
  140.9587  133.7177  156.1335 H   0  0  0  0  0  0  0  0  0  0  0  0  # atno 11005 bound_to 11000
  146.0114  139.3173  143.0868 LP  0  0  0  0  0  0  0  0  0  0  0  0  # atno 17320 bound_to 7965
  145.8677  140.9438  143.0667 LP  0  0  0  0  0  0  0  0  0  0  0  0  # atno 17321 bound_to 7965
  140.1068  144.5492  150.6952 LP  0  0  0  0  0  0  0  0  0  0  0  0  # atno 17342 bound_to 10162
  140.7046  143.2458  151.4765 LP  0  0  0  0  0  0  0  0  0  0  0  0  # atno 17343 bound_to 10162
  156.7226  130.9013  151.3619 LP  0  0  0  0  0  0  0  0  0  0  0  0  # atno 17370 bound_to 10713
  157.6887  130.9211  150.0455 LP  0  0  0  0  0  0  0  0  0  0  0  0  # atno 17371 bound_to 10713
  140.7498  134.4057  157.5543 LP  0  0  0  0  0  0  0  0  0  0  0  0  # atno 17394 bound_to 11000
  139.8871  134.8892  156.2549 LP  0  0  0  0  0  0  0  0  0  0  0  0  # atno 17395 bound_to 11000

$$$$
