AV-unprocessed.smi:3140|AV-procd|sdf|11959|dock5
  -GOLD-   2272017363D 1   1.00000     0.00000
 Structure written by MMmdl.
 38 39  0  0  0  0  0  0  0  0  2 V2000
  148.5071  141.5718  154.9011 C   0  0  0  0  0  0  0  0  0  0  0  0
  149.3701  141.2661  156.1327 C   0  0  1  0  0  0  0  0  0  0  0  0
  150.8594  141.1504  155.7404 C   0  0  0  0  0  0  0  0  0  0  0  0
  151.1967  139.8585  155.1697 N   0  0  0  0  0  0  0  0  0  0  0  0
  152.2302  139.0121  155.5126 C   0  0  0  0  0  0  0  0  0  0  0  0
  152.1576  137.9281  154.6852 C   0  0  0  0  0  0  0  0  0  0  0  0
  151.0292  138.2035  153.8631 C   0  0  0  0  0  0  0  0  0  0  0  0
  150.4560  139.3600  154.1558 N   0  0  0  0  0  0  0  0  0  0  0  0
  149.1637  142.3209  157.1516 N   0  3  0  0  0  0  0  0  0  0  0  0
  150.0196  142.2034  158.3503 C   0  0  0  0  0  0  0  0  0  0  0  0
  151.0699  143.3234  158.3877 C   0  0  0  0  0  0  0  0  0  0  0  0
  151.9961  143.1517  159.5032 N   0  0  0  0  0  0  0  0  0  0  0  0
  152.1176  144.1670  160.5358 C   0  0  0  0  0  0  0  0  0  0  0  0
  153.0151  143.5349  161.6098 C   0  0  0  0  0  0  0  0  0  0  0  0
  153.6601  142.3131  160.9464 C   0  0  0  0  0  0  0  0  0  0  0  0
  152.8398  142.1278  159.6812 C   0  0  0  0  0  0  0  0  0  0  0  0
  152.9608  141.1521  158.9420 O   0  0  0  0  0  0  0  0  0  0  0  0
  148.6112  140.7924  154.1458 H   0  0  0  0  0  0  0  0  0  0  0  0
  148.7889  142.5197  154.4412 H   0  0  0  0  0  0  0  0  0  0  0  0
  147.4509  141.6311  155.1663 H   0  0  0  0  0  0  0  0  0  0  0  0
  149.0328  140.3091  156.5347 H   0  0  0  0  0  0  0  0  0  0  0  0
  151.1102  141.9148  155.0036 H   0  0  0  0  0  0  0  0  0  0  0  0
  151.4998  141.3344  156.6050 H   0  0  0  0  0  0  0  0  0  0  0  0
  152.9264  139.2509  156.3033 H   0  0  0  0  0  0  0  0  0  0  0  0
  152.8111  137.0684  154.6687 H   0  0  0  0  0  0  0  0  0  0  0  0
  150.6150  137.6038  153.0658 H   0  0  0  0  0  0  0  0  0  0  0  0
  149.3302  143.2170  156.7153 H   0  0  0  0  0  0  0  0  0  0  0  0
  149.3915  142.2432  159.2415 H   0  0  0  0  0  0  0  0  0  0  0  0
  150.5130  141.2321  158.3556 H   0  0  0  0  0  0  0  0  0  0  0  0
  151.6357  143.3389  157.4544 H   0  0  0  0  0  0  0  0  0  0  0  0
  150.5795  144.2947  158.4679 H   0  0  0  0  0  0  0  0  0  0  0  0
  152.5842  145.0572  160.1115 H   0  0  0  0  0  0  0  0  0  0  0  0
  151.1429  144.4482  160.9365 H   0  0  0  0  0  0  0  0  0  0  0  0
  153.7599  144.2402  161.9805 H   0  0  0  0  0  0  0  0  0  0  0  0
  152.4129  143.2171  162.4621 H   0  0  0  0  0  0  0  0  0  0  0  0
  154.6994  142.5073  160.6792 H   0  0  0  0  0  0  0  0  0  0  0  0
  153.6199  141.4279  161.5817 H   0  0  0  0  0  0  0  0  0  0  0  0
  148.2016  142.2863  157.4571 H   0  0  0  0  0  0  0  0  0  0  0  0
  1  2  1  0  0  0  0
  1 18  1  0  0  0  0
  1 19  1  0  0  0  0
  1 20  1  0  0  0  0
  2  3  1  0  0  0  0
  2  9  1  0  0  0  0
  2 21  1  0  0  0  0
  3  4  1  0  0  0  0
  3 22  1  0  0  0  0
  3 23  1  0  0  0  0
  4  8  1  0  0  0  0
  4  5  1  0  0  0  0
  5  6  2  0  0  0  0
  5 24  1  0  0  0  0
  6  7  1  0  0  0  0
  6 25  1  0  0  0  0
  7  8  2  0  0  0  0
  7 26  1  0  0  0  0
  9 10  1  0  0  0  0
  9 27  1  0  0  0  0
  9 38  1  0  0  0  0
 10 11  1  0  0  0  0
 10 28  1  0  0  0  0
 10 29  1  0  0  0  0
 11 12  1  0  0  0  0
 11 30  1  0  0  0  0
 11 31  1  0  0  0  0
 12 16  1  0  0  0  0
 12 13  1  0  0  0  0
 13 14  1  0  0  0  0
 13 32  1  0  0  0  0
 13 33  1  0  0  0  0
 14 15  1  0  0  0  0
 14 34  1  0  0  0  0
 14 35  1  0  0  0  0
 15 16  1  0  0  0  0
 15 36  1  0  0  0  0
 15 37  1  0  0  0  0
 16 17  2  0  0  0  0
M  CHG  1   9   1
M  END
> <s_m_source_file>
AV-unprocessed.smi

> <i_m_source_file_index>
3140

> <i_lp_mmshare_version>
43012

> <i_f3d_flags>
0

> <s_epik_input>
bjFbY0hdW2NIXVtjSF1uMVtDSDJdW0NAQEhdKFtDSDNdKVtOSF1bQ0gyXVtDSDJdTjJbQ0gyXVtDSDJdW0NIMl1DMj1P

> <s_epik_cmdline>
J2VwaWtfcHl0aG9uJywgJy1waCcsICc3LjAnLCAnLXRuJywgJzgnLCAnLW1hJywgJzIwMCcsICctbWV0YWxfYmluZGluZycsICctaW1hZScsICc8aW5maWxlLm1hZT4nLCAnLW9tYWUnLCAnPG91dGZpbGUubWFlPic=

> <r_lp_tautomer_probability>
1

> <r_epik_Ionization_Penalty>
0.00826299

> <r_epik_Ionization_Penalty_Charging>
0.00825899

> <r_epik_Ionization_Penalty_Neutral>
3.99893e-06

> <r_epik_State_Penalty>
0.00621436

> <r_epik_Charging_Adjusted_Penalty>
0.0144734

> <i_epik_Tot_Q>
1

> <i_epik_Tot_abs_Q>
1

> <r_epik_Metal_State_Penalty>
0.00621472

> <b_epik_Metal_Only>
0

> <s_lp_Force_Field>
OPLS_2005

> <r_lp_Energy>
19.0418

> <b_lp_Chiralities_Consistent>
1

> <s_lp_Variant>
AV-unprocessed.smi:3140-2

> <Gold.Version>
5.8.1

> <Gold.Id.Protein>
6NUR|6NUR_protein|mol2

> <Gold.PLP.Fitness>
49.6085

> <Gold.PLP.PLP>
-41.5865

> <Gold.PLP.part.hbond>
-2.0000

> <Gold.PLP.part.metal>
0.0000

> <Gold.PLP.part.buried>
-3.9064

> <Gold.PLP.part.nonpolar>
-35.3270

> <Gold.PLP.part.repulsive>
0.1702

> <Gold.PLP.ligand.clash>
0.0000

> <Gold.PLP.ligand.torsion>
0.6746

> <Gold.PLP.Chemscore.Hbond>
2.0000

> <Gold.PLP.Chemscore.CHOScore>
1.0930

> <Gold.PLP.Chemscore.Metal>
0.0000

> <Gold.Chemscore.Hbonds>
donor molecule, donor type, donor heavy atom, donor atom, acceptor molecule, acceptor atom, score
      L1  H     9    27       P1  8028  2.00
      L1  C     7    26       P1  7948  0.39
      L1  C     7    26       P1  7949  0.59

> <Gold.PLP.Chemscore.Internal.Correction>
0.0924

> <Gold.Rescore>
     Score         DG    S(hbond)    S(metal)    S(lipo)     H(rot)  DE(clash)    DE(int)     intcor
     13.13     -13.94       0.93        0.00      90.64       2.06       0.06       0.76       ----

> <Gold.Chemscore.Fitness>
13.1288

> <Gold.Chemscore.DG>
-13.9402

> <Gold.Chemscore.ZeroCoef>
-5.4800

> <Gold.Chemscore.Hbond>
0.9336

> <Gold.Chemscore.Metal>
0.0000

> <Gold.Chemscore.Lipo>
90.6384

> <Gold.Chemscore.Internal_Hbond>
0.0000

> <Gold.Chemscore.DEClash>
0.0562

> <Gold.Chemscore.DEInternal>
0.7552

> <Gold.Chemscore.Rot>
2.0557

> <Gold.Chemscore.Internal.Correction>
   9.000000E+99

> <Gold.Chemscore.Hbonds>
donor molecule, donor type, donor heavy atom, donor atom, acceptor molecule, acceptor atom, score
      L1  H     9    27       P1  8028  0.97

> <Gold.Chemscore.Hbond.Weighted>
-3.1182

> <Gold.Chemscore.Metal.Weighted>
-0.0000

> <Gold.Chemscore.Lipo.Weighted>
-10.6047

> <Gold.Chemscore.Internal_Hbond.Weighted>
0.0000

> <Gold.Chemscore.DEClash.Weighted>
0.0562

> <Gold.Chemscore.DEInternal.Weighted>
0.7552

> <Gold.Chemscore.Rot.Weighted>
5.2627

> <Gold.Chemscore.Internal.Correction.Weighted>
   9.000000E+99

> <Gold.Protein.RotatedTorsions>
[ 6907 6896 6895 6894 ] final -101.82 input  -60.11 | X-H torsion
[ 7974 7965 7964 7962 ] final   43.72 input  175.53 | X-H torsion
[ 8008 7997 7996 7995 ] final -108.27 input   59.86 | X-H torsion
[ 10167 10162 10161 10158 ] final  130.46 input  -65.29 | X-H torsion
[ 10718 10713 10712 10709 ] final -162.53 input   66.30 | X-H torsion
[ 10763 10752 10751 10750 ] final  -18.53 input  -60.55 | X-H torsion
[ 11005 11000 10999 10996 ] final -128.78 input  -57.11 | X-H torsion

> <Gold.Protein.ActiveResidues>
 VAL166  LYS551  ARG553  GLY616  TRP617  ASP618  TYR619  PRO620  LYS621  CYS622 
 ASP623  PHE694  ASN695  SER759  ASP760  ASP761  ALA762  ILE779  LEU786  VAL792 
 PHE793  MET794  SER795  GLU796  ALA797  LYS798  CYS799  TRP800  GLU811  SER814 

> <Gold.Protein.RotatedAtoms>
  150.7170  134.0676  159.3852 H   0  0  0  0  0  0  0  0  0  0  0  0  # atno 6907 bound_to 6896
  151.8657  135.0505  160.0483 H   0  0  0  0  0  0  0  0  0  0  0  0  # atno 6908 bound_to 6896
  152.2682  133.5323  159.5459 H   0  0  0  0  0  0  0  0  0  0  0  0  # atno 6909 bound_to 6896
  146.0631  139.5155  142.9646 H   0  0  0  0  0  0  0  0  0  0  0  0  # atno 7974 bound_to 7965
  154.9417  140.0402  157.2100 H   0  0  0  0  0  0  0  0  0  0  0  0  # atno 8008 bound_to 7997
  154.8062  140.2860  155.5864 H   0  0  0  0  0  0  0  0  0  0  0  0  # atno 8009 bound_to 7997
  156.2967  140.2545  156.2941 H   0  0  0  0  0  0  0  0  0  0  0  0  # atno 8010 bound_to 7997
  139.5429  144.6747  151.4566 H   0  0  0  0  0  0  0  0  0  0  0  0  # atno 10167 bound_to 10162
  156.6118  130.8853  151.2938 H   0  0  0  0  0  0  0  0  0  0  0  0  # atno 10718 bound_to 10713
  153.5908  135.7002  153.5424 H   0  0  0  0  0  0  0  0  0  0  0  0  # atno 10763 bound_to 10752
  153.3180  135.4082  155.1392 H   0  0  0  0  0  0  0  0  0  0  0  0  # atno 10764 bound_to 10752
  154.8601  135.3688  154.5439 H   0  0  0  0  0  0  0  0  0  0  0  0  # atno 10765 bound_to 10752
  140.9487  134.1095  157.4083 H   0  0  0  0  0  0  0  0  0  0  0  0  # atno 11005 bound_to 11000
  145.6525  141.0259  143.1752 LP  0  0  0  0  0  0  0  0  0  0  0  0  # atno 17320 bound_to 7965
  144.7186  139.8108  143.7390 LP  0  0  0  0  0  0  0  0  0  0  0  0  # atno 17321 bound_to 7965
  140.6666  143.8384  150.6949 LP  0  0  0  0  0  0  0  0  0  0  0  0  # atno 17342 bound_to 10162
  140.1796  143.4126  152.1943 LP  0  0  0  0  0  0  0  0  0  0  0  0  # atno 17343 bound_to 10162
  157.7252  130.9613  150.1605 LP  0  0  0  0  0  0  0  0  0  0  0  0  # atno 17370 bound_to 10713
  156.2384  130.3688  149.8365 LP  0  0  0  0  0  0  0  0  0  0  0  0  # atno 17371 bound_to 10713
  139.8841  135.0059  156.6345 LP  0  0  0  0  0  0  0  0  0  0  0  0  # atno 17394 bound_to 11000
  140.7633  133.8799  155.8435 LP  0  0  0  0  0  0  0  0  0  0  0  0  # atno 17395 bound_to 11000

$$$$
