AV-unprocessed.smi:79|AV-procd|sdf|780|dock3
  -GOLD-   2262017143D 1   1.00000     0.00000
 Structure written by MMmdl.
 56 59  0  0  0  0  0  0  0  0  2 V2000
  145.3676  132.2661  149.3260 C   0  0  0  0  0  0  0  0  0  0  0  0
  144.2081  133.1141  149.8692 C   0  0  1  0  0  0  0  0  0  0  0  0
  143.2718  133.2982  148.8286 O   0  0  0  0  0  0  0  0  0  0  0  0
  143.4860  132.4575  151.0630 C   0  0  0  0  0  0  0  0  0  0  0  0
  143.6853  133.1962  152.3361 N   0  3  1  0  0  0  0  0  0  0  0  0
  145.1176  133.3603  152.7067 C   0  0  0  0  0  0  0  0  0  0  0  0
  145.2675  134.0839  154.0584 C   0  0  0  0  0  0  0  0  0  0  0  0
  144.5541  135.3564  154.0486 N   0  0  0  0  0  0  0  0  0  0  0  0
  145.3037  136.3756  153.5553 C   0  0  0  0  0  0  0  0  0  0  0  0
  145.1308  136.8114  152.2798 N   0  0  0  0  0  0  0  0  0  0  0  0
  145.8906  137.7991  151.7970 C   0  0  0  0  0  0  0  0  0  0  0  0
  146.8676  138.4733  152.4062 N   0  0  0  0  0  0  0  0  0  0  0  0
  147.0507  138.0337  153.6843 C   0  0  0  0  0  0  0  0  0  0  0  0
  146.3223  136.9952  154.3284 C   0  0  0  0  0  0  0  0  0  0  0  0
  146.7910  136.8170  155.6233 N   0  0  0  0  0  0  0  0  0  0  0  0
  147.7400  137.7057  155.7414 C   0  0  0  0  0  0  0  0  0  0  0  0
  147.9550  138.4888  154.6288 N   0  0  0  0  0  0  0  0  0  0  0  0
  148.9386  139.5506  154.4827 C   0  0  0  0  0  0  0  0  0  0  0  0
  148.5728  140.8770  155.1846 C   0  0  0  0  0  0  0  0  0  0  0  0
  147.5468  141.6670  154.3509 C   0  0  0  0  0  0  0  0  0  0  0  0
  147.0699  142.8097  155.0337 O   0  0  0  0  0  0  0  0  0  0  0  0
  148.3072  140.8020  156.6965 C   0  0  0  0  0  0  0  0  0  0  0  0
  149.6183  141.3128  157.0155 O   0  0  0  0  0  0  0  0  0  0  0  0
  149.8000  141.6849  155.6334 C   0  0  0  0  0  0  0  0  0  0  0  0
  143.1344  135.2221  153.7013 C   0  0  1  0  0  0  0  0  0  0  0  0
  142.3370  136.5370  153.7990 C   0  0  0  0  0  0  0  0  0  0  0  0
  142.9456  134.4859  152.3564 C   0  0  0  0  0  0  0  0  0  0  0  0
  146.1424  132.1260  150.0797 H   0  0  0  0  0  0  0  0  0  0  0  0
  145.8345  132.7461  148.4652 H   0  0  0  0  0  0  0  0  0  0  0  0
  145.0265  131.2791  149.0113 H   0  0  0  0  0  0  0  0  0  0  0  0
  144.5766  134.1031  150.1394 H   0  0  0  0  0  0  0  0  0  0  0  0
  142.4627  133.6181  149.1980 H   0  0  0  0  0  0  0  0  0  0  0  0
  142.4160  132.3703  150.8656 H   0  0  0  0  0  0  0  0  0  0  0  0
  143.8583  131.4375  151.1707 H   0  0  0  0  0  0  0  0  0  0  0  0
  145.6087  132.3905  152.7709 H   0  0  0  0  0  0  0  0  0  0  0  0
  145.6318  133.9214  151.9247 H   0  0  0  0  0  0  0  0  0  0  0  0
  144.8595  133.4652  154.8583 H   0  0  0  0  0  0  0  0  0  0  0  0
  146.3236  134.2262  154.2926 H   0  0  0  0  0  0  0  0  0  0  0  0
  145.6866  138.0905  150.7771 H   0  0  0  0  0  0  0  0  0  0  0  0
  148.3119  137.8124  156.6511 H   0  0  0  0  0  0  0  0  0  0  0  0
  149.8873  139.1710  154.8645 H   0  0  0  0  0  0  0  0  0  0  0  0
  149.1018  139.7208  153.4180 H   0  0  0  0  0  0  0  0  0  0  0  0
  147.9904  142.0158  153.4180 H   0  0  0  0  0  0  0  0  0  0  0  0
  146.6998  141.0404  154.0702 H   0  0  0  0  0  0  0  0  0  0  0  0
  147.8123  143.2970  155.3571 H   0  0  0  0  0  0  0  0  0  0  0  0
  147.5192  141.4724  157.0428 H   0  0  0  0  0  0  0  0  0  0  0  0
  148.1514  139.7938  157.0784 H   0  0  0  0  0  0  0  0  0  0  0  0
  150.7446  141.3234  155.2254 H   0  0  0  0  0  0  0  0  0  0  0  0
  149.7075  142.7628  155.4913 H   0  0  0  0  0  0  0  0  0  0  0  0
  142.7192  134.5719  154.4725 H   0  0  0  0  0  0  0  0  0  0  0  0
  141.2689  136.3464  153.6928 H   0  0  0  0  0  0  0  0  0  0  0  0
  142.6120  137.2531  153.0255 H   0  0  0  0  0  0  0  0  0  0  0  0
  142.4883  137.0151  154.7673 H   0  0  0  0  0  0  0  0  0  0  0  0
  143.2733  135.1044  151.5204 H   0  0  0  0  0  0  0  0  0  0  0  0
  141.8836  134.2922  152.2000 H   0  0  0  0  0  0  0  0  0  0  0  0
  143.2652  132.6315  153.0603 H   0  0  0  0  0  0  0  0  0  0  0  0
  1  2  1  0  0  0  0
  1 28  1  0  0  0  0
  1 29  1  0  0  0  0
  1 30  1  0  0  0  0
  2  3  1  0  0  0  0
  2  4  1  0  0  0  0
  2 31  1  0  0  0  0
  3 32  1  0  0  0  0
  4  5  1  0  0  0  0
  4 33  1  0  0  0  0
  4 34  1  0  0  0  0
  5 27  1  0  0  0  0
  5  6  1  0  0  0  0
  5 56  1  0  0  0  0
  6  7  1  0  0  0  0
  6 35  1  0  0  0  0
  6 36  1  0  0  0  0
  7  8  1  0  0  0  0
  7 37  1  0  0  0  0
  7 38  1  0  0  0  0
  8  9  1  0  0  0  0
  8 25  1  0  0  0  0
  9 14  1  0  0  0  0
  9 10  2  0  0  0  0
 10 11  1  0  0  0  0
 11 12  2  0  0  0  0
 11 39  1  0  0  0  0
 12 13  1  0  0  0  0
 13 17  1  0  0  0  0
 13 14  2  0  0  0  0
 14 15  1  0  0  0  0
 15 16  2  0  0  0  0
 16 17  1  0  0  0  0
 16 40  1  0  0  0  0
 17 18  1  0  0  0  0
 18 19  1  0  0  0  0
 18 41  1  0  0  0  0
 18 42  1  0  0  0  0
 19 24  1  0  0  0  0
 19 20  1  0  0  0  0
 19 22  1  0  0  0  0
 20 21  1  0  0  0  0
 20 43  1  0  0  0  0
 20 44  1  0  0  0  0
 21 45  1  0  0  0  0
 22 23  1  0  0  0  0
 22 46  1  0  0  0  0
 22 47  1  0  0  0  0
 23 24  1  0  0  0  0
 24 48  1  0  0  0  0
 24 49  1  0  0  0  0
 25 26  1  0  0  0  0
 25 27  1  0  0  0  0
 25 50  1  0  0  0  0
 26 51  1  0  0  0  0
 26 52  1  0  0  0  0
 26 53  1  0  0  0  0
 27 54  1  0  0  0  0
 27 55  1  0  0  0  0
M  CHG  1   5   1
M  END
> <s_m_source_file>
AV-unprocessed.smi

> <i_m_source_file_index>
79

> <i_lp_mmshare_version>
43012

> <i_f3d_flags>
0

> <s_epik_input>
W0NIM11bQ0BIXShbT0hdKVtDSDJdTjFbQ0gyXVtDSDJdTihbQ0BASF0oW0NIM10pW0NIMl0xKWMobltjSF1uMiljKGMyMyluW2NIXW4zW0NIMl1DNChbQ0gyXVtPSF0pW0NIMl1PW0NIMl00

> <s_epik_cmdline>
J2VwaWtfcHl0aG9uJywgJy1waCcsICc3LjAnLCAnLXRuJywgJzgnLCAnLW1hJywgJzIwMCcsICctbWV0YWxfYmluZGluZycsICctaW1hZScsICc8aW5maWxlLm1hZT4nLCAnLW9tYWUnLCAnPG91dGZpbGUubWFlPic=

> <r_lp_tautomer_probability>
1

> <r_epik_Ionization_Penalty>
0.00515943

> <r_epik_Ionization_Penalty_Charging>
0.00509693

> <r_epik_Ionization_Penalty_Neutral>
6.25007e-05

> <r_epik_State_Penalty>
-0

> <r_epik_Charging_Adjusted_Penalty>
0.00509693

> <i_epik_Tot_Q>
1

> <i_epik_Tot_abs_Q>
1

> <r_epik_Metal_State_Penalty>
-0

> <b_epik_Metal_Only>
0

> <s_lp_Force_Field>
OPLS_2005

> <r_lp_Energy>
48.5729

> <b_lp_Chiralities_Consistent>
1

> <s_lp_Variant>
AV-unprocessed.smi:79-4

> <Gold.Version>
5.8.1

> <Gold.Id.Protein>
6NUR|6NUR_protein|mol2

> <Gold.PLP.Fitness>
45.9052

> <Gold.PLP.PLP>
-34.4329

> <Gold.PLP.part.hbond>
-3.0000

> <Gold.PLP.part.metal>
0.0000

> <Gold.PLP.part.buried>
-2.8478

> <Gold.PLP.part.nonpolar>
-30.3447

> <Gold.PLP.part.repulsive>
1.3166

> <Gold.PLP.ligand.clash>
0.0000

> <Gold.PLP.ligand.torsion>
1.9312

> <Gold.PLP.Chemscore.Hbond>
3.9000

> <Gold.PLP.Chemscore.CHOScore>
0.9157

> <Gold.PLP.Chemscore.Metal>
0.0000

> <Gold.Chemscore.Hbonds>
donor molecule, donor type, donor heavy atom, donor atom, acceptor molecule, acceptor atom, score
      L1  H     3    32       P1 10186  1.00
      L1  H     5    56       P1 10957  1.80
      L1  H    21    45       P1  8028  1.00
      L1  C    11    39       P1 10171  1.00

> <Gold.PLP.Chemscore.Internal.Correction>
0.8875

> <Gold.Rescore>
     Score         DG    S(hbond)    S(metal)    S(lipo)     H(rot)  DE(clash)    DE(int)     intcor
      7.91     -11.04       1.78        0.00      78.29       3.72       1.58       1.55       ----

> <Gold.Chemscore.Fitness>
7.9113

> <Gold.Chemscore.DG>
-11.0401

> <Gold.Chemscore.ZeroCoef>
-5.4800

> <Gold.Chemscore.Hbond>
1.7756

> <Gold.Chemscore.Metal>
0.0000

> <Gold.Chemscore.Lipo>
78.2867

> <Gold.Chemscore.Internal_Hbond>
0.0000

> <Gold.Chemscore.DEClash>
1.5771

> <Gold.Chemscore.DEInternal>
1.5518

> <Gold.Chemscore.Rot>
3.7226

> <Gold.Chemscore.Internal.Correction>
   9.000000E+99

> <Gold.Chemscore.Hbonds>
donor molecule, donor type, donor heavy atom, donor atom, acceptor molecule, acceptor atom, score
      L1  H     3    32       P1 10186  1.00
      L1  H     5    56       P1 10957  0.17
      L1  H    21    45       P1  8028  0.44

> <Gold.Chemscore.Hbond.Weighted>
-5.9304

> <Gold.Chemscore.Metal.Weighted>
-0.0000

> <Gold.Chemscore.Lipo.Weighted>
-9.1595

> <Gold.Chemscore.Internal_Hbond.Weighted>
0.0000

> <Gold.Chemscore.DEClash.Weighted>
1.5771

> <Gold.Chemscore.DEInternal.Weighted>
1.5518

> <Gold.Chemscore.Rot.Weighted>
9.5298

> <Gold.Chemscore.Internal.Correction.Weighted>
   9.000000E+99

> <Gold.Protein.RotatedTorsions>
[ 6907 6896 6895 6894 ] final -117.70 input  -60.11 | X-H torsion
[ 7974 7965 7964 7962 ] final -133.33 input  175.53 | X-H torsion
[ 8008 7997 7996 7995 ] final -144.52 input   59.86 | X-H torsion
[ 10167 10162 10161 10158 ] final  173.96 input  -65.29 | X-H torsion
[ 10718 10713 10712 10709 ] final  133.91 input   66.30 | X-H torsion
[ 10763 10752 10751 10750 ] final   35.25 input  -60.55 | X-H torsion
[ 11005 11000 10999 10996 ] final -147.96 input  -57.11 | X-H torsion

> <Gold.Protein.ActiveResidues>
 VAL166  LYS551  ARG553  GLY616  TRP617  ASP618  TYR619  PRO620  LYS621  CYS622 
 ASP623  PHE694  ASN695  SER759  ASP760  ASP761  ALA762  ILE779  LEU786  VAL792 
 PHE793  MET794  SER795  GLU796  ALA797  LYS798  CYS799  TRP800  GLU811  SER814 

> <Gold.Protein.RotatedAtoms>
  150.8159  133.8339  159.3160 H   0  0  0  0  0  0  0  0  0  0  0  0  # atno 6907 bound_to 6896
  151.6111  135.1038  160.0091 H   0  0  0  0  0  0  0  0  0  0  0  0  # atno 6908 bound_to 6896
  152.4250  133.7139  159.6551 H   0  0  0  0  0  0  0  0  0  0  0  0  # atno 6909 bound_to 6896
  144.9203  140.7006  143.4969 H   0  0  0  0  0  0  0  0  0  0  0  0  # atno 7974 bound_to 7965
  155.5282  140.0597  157.2894 H   0  0  0  0  0  0  0  0  0  0  0  0  # atno 8008 bound_to 7997
  154.4493  140.1940  156.0513 H   0  0  0  0  0  0  0  0  0  0  0  0  # atno 8009 bound_to 7997
  156.0670  140.3265  155.7534 H   0  0  0  0  0  0  0  0  0  0  0  0  # atno 8010 bound_to 7997
  139.5126  144.3201  152.0211 H   0  0  0  0  0  0  0  0  0  0  0  0  # atno 10167 bound_to 10162
  157.4725  131.1081  150.9784 H   0  0  0  0  0  0  0  0  0  0  0  0  # atno 10718 bound_to 10713
  153.0127  135.6338  154.1796 H   0  0  0  0  0  0  0  0  0  0  0  0  # atno 10763 bound_to 10752
  154.1538  135.2827  155.3130 H   0  0  0  0  0  0  0  0  0  0  0  0  # atno 10764 bound_to 10752
  154.6034  135.5580  153.7458 H   0  0  0  0  0  0  0  0  0  0  0  0  # atno 10765 bound_to 10752
  140.7662  134.3241  157.5088 H   0  0  0  0  0  0  0  0  0  0  0  0  # atno 11005 bound_to 11000
  145.3307  139.1760  143.4538 LP  0  0  0  0  0  0  0  0  0  0  0  0  # atno 17320 bound_to 7965
  146.3201  140.3336  142.8642 LP  0  0  0  0  0  0  0  0  0  0  0  0  # atno 17321 bound_to 7965
  140.2643  144.4033  150.6174 LP  0  0  0  0  0  0  0  0  0  0  0  0  # atno 17342 bound_to 10162
  140.6135  143.2171  151.6839 LP  0  0  0  0  0  0  0  0  0  0  0  0  # atno 17343 bound_to 10162
  157.0545  130.5800  149.5375 LP  0  0  0  0  0  0  0  0  0  0  0  0  # atno 17370 bound_to 10713
  156.0080  130.5169  150.7896 LP  0  0  0  0  0  0  0  0  0  0  0  0  # atno 17371 bound_to 10713
  139.8763  134.9233  156.3320 LP  0  0  0  0  0  0  0  0  0  0  0  0  # atno 17394 bound_to 11000
  140.9617  133.7384  156.0410 LP  0  0  0  0  0  0  0  0  0  0  0  0  # atno 17395 bound_to 11000

$$$$
