AV-unprocessed.smi:768|AV-procd|sdf|3673|dock4
  -GOLD-   22720 1 83D 1   1.00000     0.00000
 Structure written by MMmdl.
 48 49  0  0  0  0  0  0  0  0  1 V2000
  155.2472  140.1430  161.0562 C   0  0  0  0  0  0  0  0  0  0  0  0
  154.0692  141.0155  160.6599 C   0  0  0  0  0  0  0  0  0  0  0  0
  153.6538  142.0358  161.4415 C   0  0  0  0  0  0  0  0  0  0  0  0
  152.5370  142.8638  161.0564 C   0  0  0  0  0  0  0  0  0  0  0  0
  151.9174  142.5932  159.8989 C   0  0  0  0  0  0  0  0  0  0  0  0
  152.3284  141.5353  159.0670 N   0  0  0  0  0  0  0  0  0  0  0  0
  151.5736  141.3387  157.8149 C   0  0  0  0  0  0  0  0  0  0  0  0
  150.0886  140.9817  158.0035 C   0  0  0  0  0  0  0  0  0  0  0  0
  149.3789  141.7224  158.6823 O   0  0  0  0  0  0  0  0  0  0  0  0
  149.6322  139.8572  157.4268 N   0  0  0  0  0  0  0  0  0  0  0  0
  148.2948  139.2955  157.5799 C   0  0  0  0  0  0  0  0  0  0  0  0
  148.3621  137.7672  157.7320 C   0  0  0  0  0  0  0  0  0  0  0  0
  147.0767  137.1523  158.3056 C   0  0  0  0  0  0  0  0  0  0  0  0
  147.0707  137.3315  159.7139 O   0  0  0  0  0  0  0  0  0  0  0  0
  147.7407  136.3075  160.4389 C   0  0  0  0  0  0  0  0  0  0  0  0
  147.3413  134.9100  159.9182 C   0  0  0  0  0  0  0  0  0  0  0  0
  147.9486  133.7925  160.7813 C   0  0  0  0  0  0  0  0  0  0  0  0
  147.5677  133.9582  162.2607 C   0  0  0  0  0  0  0  0  0  0  0  0
  147.9644  135.3479  162.7831 C   0  0  0  0  0  0  0  0  0  0  0  0
  147.3502  136.4616  161.9195 C   0  0  0  0  0  0  0  0  0  0  0  0
  153.3849  140.7238  159.3863 C   0  0  0  0  0  0  0  0  0  0  0  0
  153.7399  139.8081  158.6420 O   0  0  0  0  0  0  0  0  0  0  0  0
  155.6402  140.4245  162.0335 H   0  0  0  0  0  0  0  0  0  0  0  0
  156.0536  140.2408  160.3299 H   0  0  0  0  0  0  0  0  0  0  0  0
  154.9503  139.0947  161.1025 H   0  0  0  0  0  0  0  0  0  0  0  0
  154.1627  142.2430  162.3716 H   0  0  0  0  0  0  0  0  0  0  0  0
  152.2113  143.6815  161.6823 H   0  0  0  0  0  0  0  0  0  0  0  0
  151.0780  143.1679  159.5348 H   0  0  0  0  0  0  0  0  0  0  0  0
  151.6393  142.2346  157.1945 H   0  0  0  0  0  0  0  0  0  0  0  0
  152.0329  140.5510  157.2162 H   0  0  0  0  0  0  0  0  0  0  0  0
  150.2848  139.3174  156.8770 H   0  0  0  0  0  0  0  0  0  0  0  0
  147.7720  139.7249  158.4359 H   0  0  0  0  0  0  0  0  0  0  0  0
  147.7113  139.5536  156.6961 H   0  0  0  0  0  0  0  0  0  0  0  0
  148.5694  137.3207  156.7588 H   0  0  0  0  0  0  0  0  0  0  0  0
  149.2047  137.5044  158.3727 H   0  0  0  0  0  0  0  0  0  0  0  0
  146.2047  137.6292  157.8599 H   0  0  0  0  0  0  0  0  0  0  0  0
  147.0296  136.0897  158.0630 H   0  0  0  0  0  0  0  0  0  0  0  0
  148.8213  136.4388  160.3543 H   0  0  0  0  0  0  0  0  0  0  0  0
  146.2544  134.8182  159.9173 H   0  0  0  0  0  0  0  0  0  0  0  0
  147.6644  134.7735  158.8870 H   0  0  0  0  0  0  0  0  0  0  0  0
  147.6141  132.8204  160.4177 H   0  0  0  0  0  0  0  0  0  0  0  0
  149.0346  133.8036  160.6798 H   0  0  0  0  0  0  0  0  0  0  0  0
  146.4926  133.8164  162.3795 H   0  0  0  0  0  0  0  0  0  0  0  0
  148.0495  133.1838  162.8581 H   0  0  0  0  0  0  0  0  0  0  0  0
  147.6433  135.4614  163.8190 H   0  0  0  0  0  0  0  0  0  0  0  0
  149.0512  135.4426  162.7838 H   0  0  0  0  0  0  0  0  0  0  0  0
  147.6727  137.4354  162.2890 H   0  0  0  0  0  0  0  0  0  0  0  0
  146.2640  136.4388  162.0172 H   0  0  0  0  0  0  0  0  0  0  0  0
  1  2  1  0  0  0  0
  1 23  1  0  0  0  0
  1 24  1  0  0  0  0
  1 25  1  0  0  0  0
  2 21  1  0  0  0  0
  2  3  2  0  0  0  0
  3  4  1  0  0  0  0
  3 26  1  0  0  0  0
  4  5  2  0  0  0  0
  4 27  1  0  0  0  0
  5  6  1  0  0  0  0
  5 28  1  0  0  0  0
  6  7  1  0  0  0  0
  6 21  1  0  0  0  0
  7  8  1  0  0  0  0
  7 29  1  0  0  0  0
  7 30  1  0  0  0  0
  8  9  2  0  0  0  0
  8 10  1  0  0  0  0
 10 11  1  0  0  0  0
 10 31  1  0  0  0  0
 11 12  1  0  0  0  0
 11 32  1  0  0  0  0
 11 33  1  0  0  0  0
 12 13  1  0  0  0  0
 12 34  1  0  0  0  0
 12 35  1  0  0  0  0
 13 14  1  0  0  0  0
 13 36  1  0  0  0  0
 13 37  1  0  0  0  0
 14 15  1  0  0  0  0
 15 20  1  0  0  0  0
 15 16  1  0  0  0  0
 15 38  1  0  0  0  0
 16 17  1  0  0  0  0
 16 39  1  0  0  0  0
 16 40  1  0  0  0  0
 17 18  1  0  0  0  0
 17 41  1  0  0  0  0
 17 42  1  0  0  0  0
 18 19  1  0  0  0  0
 18 43  1  0  0  0  0
 18 44  1  0  0  0  0
 19 20  1  0  0  0  0
 19 45  1  0  0  0  0
 19 46  1  0  0  0  0
 20 47  1  0  0  0  0
 20 48  1  0  0  0  0
 21 22  2  0  0  0  0
M  END
> <s_m_source_file>
AV-unprocessed.smi

> <i_m_source_file_index>
768

> <i_lp_mmshare_version>
43012

> <i_f3d_flags>
0

> <s_epik_input>
W0NIM11jMVtjSF1bY0hdW2NIXW4oYzE9TylbQ0gyXUMoPU8pW05IXVtDSDJdW0NIMl1bQ0gyXU9bQ0hdMltDSDJdW0NIMl1bQ0gyXVtDSDJdW0NIMl0y

> <s_epik_cmdline>
J2VwaWtfcHl0aG9uJywgJy1waCcsICc3LjAnLCAnLXRuJywgJzgnLCAnLW1hJywgJzIwMCcsICctbWV0YWxfYmluZGluZycsICctaW1hZScsICc8aW5maWxlLm1hZT4nLCAnLW9tYWUnLCAnPG91dGZpbGUubWFlPic=

> <r_lp_tautomer_probability>
1

> <r_epik_Ionization_Penalty>
7.81262e-07

> <r_epik_Ionization_Penalty_Charging>
7.6198e-07

> <r_epik_Ionization_Penalty_Neutral>
1.92812e-08

> <r_epik_State_Penalty>
-0

> <r_epik_Charging_Adjusted_Penalty>
7.6198e-07

> <i_epik_Tot_Q>
0

> <i_epik_Tot_abs_Q>
0

> <r_epik_Metal_State_Penalty>
-0

> <b_epik_Metal_Only>
0

> <s_lp_Force_Field>
OPLS_2005

> <r_lp_Energy>
20.2971

> <b_lp_Chiralities_Consistent>
1

> <s_lp_Variant>
AV-unprocessed.smi:768-1

> <Gold.Version>
5.8.1

> <Gold.Id.Protein>
6NUR|6NUR_protein|mol2

> <Gold.PLP.Fitness>
49.8021

> <Gold.PLP.PLP>
-44.8663

> <Gold.PLP.part.hbond>
-2.5959

> <Gold.PLP.part.metal>
0.0000

> <Gold.PLP.part.buried>
-5.0832

> <Gold.PLP.part.nonpolar>
-36.9980

> <Gold.PLP.part.repulsive>
0.1453

> <Gold.PLP.ligand.clash>
0.0000

> <Gold.PLP.ligand.torsion>
0.5700

> <Gold.PLP.Chemscore.Hbond>
1.9920

> <Gold.PLP.Chemscore.CHOScore>
0.0000

> <Gold.PLP.Chemscore.Metal>
0.0000

> <Gold.Chemscore.Hbonds>
donor molecule, donor type, donor heavy atom, donor atom, acceptor molecule, acceptor atom, score
      P1  H  6934  6947       L1    14  0.89
      P1  H  7997  8008       L1    22  0.98

> <Gold.PLP.Chemscore.Internal.Correction>
0.0999

> <Gold.Rescore>
     Score         DG    S(hbond)    S(metal)    S(lipo)     H(rot)  DE(clash)    DE(int)     intcor
     17.31     -19.24       1.84        0.00     108.06       1.97       0.01       1.92       ----

> <Gold.Chemscore.Fitness>
17.3103

> <Gold.Chemscore.DG>
-19.2424

> <Gold.Chemscore.ZeroCoef>
-5.4800

> <Gold.Chemscore.Hbond>
1.8430

> <Gold.Chemscore.Metal>
0.0000

> <Gold.Chemscore.Lipo>
108.0554

> <Gold.Chemscore.Internal_Hbond>
0.0000

> <Gold.Chemscore.DEClash>
0.0144

> <Gold.Chemscore.DEInternal>
1.9177

> <Gold.Chemscore.Rot>
1.9671

> <Gold.Chemscore.Internal.Correction>
   9.000000E+99

> <Gold.Chemscore.Hbonds>
donor molecule, donor type, donor heavy atom, donor atom, acceptor molecule, acceptor atom, score
      P1  H  6934  6947       L1    14  0.45
      P1  H  7997  8008       L1    22  0.93

> <Gold.Chemscore.Hbond.Weighted>
-6.1558

> <Gold.Chemscore.Metal.Weighted>
-0.0000

> <Gold.Chemscore.Lipo.Weighted>
-12.6425

> <Gold.Chemscore.Internal_Hbond.Weighted>
0.0000

> <Gold.Chemscore.DEClash.Weighted>
0.0144

> <Gold.Chemscore.DEInternal.Weighted>
1.9177

> <Gold.Chemscore.Rot.Weighted>
5.0359

> <Gold.Chemscore.Internal.Correction.Weighted>
   9.000000E+99

> <Gold.Protein.RotatedTorsions>
[ 6907 6896 6895 6894 ] final -147.12 input  -60.11 | X-H torsion
[ 7974 7965 7964 7962 ] final  178.40 input  175.53 | X-H torsion
[ 8008 7997 7996 7995 ] final -114.68 input   59.86 | X-H torsion
[ 10167 10162 10161 10158 ] final  170.18 input  -65.29 | X-H torsion
[ 10718 10713 10712 10709 ] final -118.20 input   66.30 | X-H torsion
[ 10763 10752 10751 10750 ] final   53.72 input  -60.55 | X-H torsion
[ 11005 11000 10999 10996 ] final   81.02 input  -57.11 | X-H torsion

> <Gold.Protein.ActiveResidues>
 VAL166  LYS551  ARG553  GLY616  TRP617  ASP618  TYR619  PRO620  LYS621  CYS622 
 ASP623  PHE694  ASN695  SER759  ASP760  ASP761  ALA762  ILE779  LEU786  VAL792 
 PHE793  MET794  SER795  GLU796  ALA797  LYS798  CYS799  TRP800  GLU811  SER814 

> <Gold.Protein.RotatedAtoms>
  151.1513  133.4906  159.2595 H   0  0  0  0  0  0  0  0  0  0  0  0  # atno 6907 bound_to 6896
  151.1551  135.0246  159.8695 H   0  0  0  0  0  0  0  0  0  0  0  0  # atno 6908 bound_to 6896
  152.5463  134.1392  159.8525 H   0  0  0  0  0  0  0  0  0  0  0  0  # atno 6909 bound_to 6896
  144.7156  140.0392  143.6437 H   0  0  0  0  0  0  0  0  0  0  0  0  # atno 7974 bound_to 7965
  155.0401  140.0392  157.2506 H   0  0  0  0  0  0  0  0  0  0  0  0  # atno 8008 bound_to 7997
  154.7224  140.2714  155.6506 H   0  0  0  0  0  0  0  0  0  0  0  0  # atno 8009 bound_to 7997
  156.2820  140.2700  156.1899 H   0  0  0  0  0  0  0  0  0  0  0  0  # atno 8010 bound_to 7997
  139.5011  144.3625  151.9810 H   0  0  0  0  0  0  0  0  0  0  0  0  # atno 10167 bound_to 10162
  156.1089  130.6232  150.9261 H   0  0  0  0  0  0  0  0  0  0  0  0  # atno 10718 bound_to 10713
  152.9798  135.5769  154.4788 H   0  0  0  0  0  0  0  0  0  0  0  0  # atno 10763 bound_to 10752
  154.4340  135.2774  155.1895 H   0  0  0  0  0  0  0  0  0  0  0  0  # atno 10764 bound_to 10752
  154.3591  135.6192  153.5735 H   0  0  0  0  0  0  0  0  0  0  0  0  # atno 10765 bound_to 10752
  139.9113  134.7965  156.1986 H   0  0  0  0  0  0  0  0  0  0  0  0  # atno 11005 bound_to 11000
  146.0037  139.3112  143.0912 LP  0  0  0  0  0  0  0  0  0  0  0  0  # atno 17320 bound_to 7965
  145.8763  140.9390  143.0624 LP  0  0  0  0  0  0  0  0  0  0  0  0  # atno 17321 bound_to 7965
  140.3061  144.3591  150.6046 LP  0  0  0  0  0  0  0  0  0  0  0  0  # atno 17342 bound_to 10162
  140.5835  143.2171  151.7385 LP  0  0  0  0  0  0  0  0  0  0  0  0  # atno 17343 bound_to 10162
  157.6268  131.0925  150.8518 LP  0  0  0  0  0  0  0  0  0  0  0  0  # atno 17370 bound_to 10713
  156.8632  130.5120  149.5302 LP  0  0  0  0  0  0  0  0  0  0  0  0  # atno 17371 bound_to 10713
  141.0539  133.6875  156.1823 LP  0  0  0  0  0  0  0  0  0  0  0  0  # atno 17394 bound_to 11000
  140.6767  134.4810  157.5588 LP  0  0  0  0  0  0  0  0  0  0  0  0  # atno 17395 bound_to 11000

$$$$
