AV-unprocessed.smi:2288|AV-procd|sdf|9206|dock3
  -GOLD-   2272012423D 1   1.00000     0.00000
 Structure written by MMmdl.
 40 41  0  0  0  0  0  0  0  0  1 V2000
  152.7232  143.7341  163.5020 C   0  0  0  0  0  0  0  0  0  0  0  0
  153.1094  142.8962  162.3007 C   0  0  0  0  0  0  0  0  0  0  0  0
  154.0007  141.8133  162.4437 C   0  0  0  0  0  0  0  0  0  0  0  0
  154.3575  141.0361  161.3233 C   0  0  0  0  0  0  0  0  0  0  0  0
  155.3179  139.8763  161.4871 C   0  0  0  0  0  0  0  0  0  0  0  0
  153.8201  141.3447  160.0565 C   0  0  0  0  0  0  0  0  0  0  0  0
  152.9278  142.4273  159.9046 C   0  0  0  0  0  0  0  0  0  0  0  0
  152.3463  142.7450  158.5353 C   0  0  2  0  0  0  0  0  0  0  0  0
  152.3346  144.1383  158.2961 O   0  0  0  0  0  0  0  0  0  0  0  0
  150.9060  142.1992  158.4071 C   0  0  0  0  0  0  0  0  0  0  0  0
  150.6807  141.5097  157.1248 N   0  0  0  0  0  0  0  0  0  0  0  0
  149.4974  141.8373  156.4414 C   0  0  0  0  0  0  0  0  0  0  0  0
  149.1900  141.2885  155.3120 N   0  0  0  0  0  0  0  0  0  0  0  0
  150.0452  140.3409  154.7425 C   0  0  0  0  0  0  0  0  0  0  0  0
  149.5871  139.7575  153.4175 C   0  0  0  0  0  0  0  0  0  0  0  0
  151.2065  139.9789  155.3531 C   0  0  0  0  0  0  0  0  0  0  0  0
  152.1774  138.9548  154.7786 C   0  0  0  0  0  0  0  0  0  0  0  0
  151.5708  140.5970  156.6387 C   0  0  0  0  0  0  0  0  0  0  0  0
  152.6069  140.3150  157.2432 O   0  0  0  0  0  0  0  0  0  0  0  0
  152.5726  143.1983  161.0331 C   0  0  0  0  0  0  0  0  0  0  0  0
  153.3880  143.5466  164.3458 H   0  0  0  0  0  0  0  0  0  0  0  0
  151.7037  143.5027  163.8102 H   0  0  0  0  0  0  0  0  0  0  0  0
  152.7767  144.7955  163.2590 H   0  0  0  0  0  0  0  0  0  0  0  0
  154.4122  141.5760  163.4141 H   0  0  0  0  0  0  0  0  0  0  0  0
  155.4312  139.3176  160.5575 H   0  0  0  0  0  0  0  0  0  0  0  0
  154.9570  139.1902  162.2537 H   0  0  0  0  0  0  0  0  0  0  0  0
  156.3004  140.2411  161.7875 H   0  0  0  0  0  0  0  0  0  0  0  0
  154.0925  140.7479  159.1982 H   0  0  0  0  0  0  0  0  0  0  0  0
  152.9876  142.2890  157.7797 H   0  0  0  0  0  0  0  0  0  0  0  0
  151.7188  144.3181  157.6022 H   0  0  0  0  0  0  0  0  0  0  0  0
  150.7231  141.4867  159.2145 H   0  0  0  0  0  0  0  0  0  0  0  0
  150.1764  142.9920  158.5830 H   0  0  0  0  0  0  0  0  0  0  0  0
  148.8628  142.5775  156.9321 H   0  0  0  0  0  0  0  0  0  0  0  0
  149.4592  138.6779  153.4997 H   0  0  0  0  0  0  0  0  0  0  0  0
  150.3177  139.9642  152.6350 H   0  0  0  0  0  0  0  0  0  0  0  0
  148.6329  140.1833  153.1049 H   0  0  0  0  0  0  0  0  0  0  0  0
  153.1457  139.4203  154.5919 H   0  0  0  0  0  0  0  0  0  0  0  0
  151.8371  138.5188  153.8409 H   0  0  0  0  0  0  0  0  0  0  0  0
  152.3252  138.1375  155.4852 H   0  0  0  0  0  0  0  0  0  0  0  0
  151.8848  144.0248  160.9265 H   0  0  0  0  0  0  0  0  0  0  0  0
  1  2  1  0  0  0  0
  1 21  1  0  0  0  0
  1 22  1  0  0  0  0
  1 23  1  0  0  0  0
  2 20  1  0  0  0  0
  2  3  2  0  0  0  0
  3  4  1  0  0  0  0
  3 24  1  0  0  0  0
  4  5  1  0  0  0  0
  4  6  2  0  0  0  0
  5 25  1  0  0  0  0
  5 26  1  0  0  0  0
  5 27  1  0  0  0  0
  6  7  1  0  0  0  0
  6 28  1  0  0  0  0
  7  8  1  0  0  0  0
  7 20  2  0  0  0  0
  8  9  1  0  0  0  0
  8 10  1  0  0  0  0
  8 29  1  0  0  0  0
  9 30  1  0  0  0  0
 10 11  1  0  0  0  0
 10 31  1  0  0  0  0
 10 32  1  0  0  0  0
 11 18  1  0  0  0  0
 11 12  1  0  0  0  0
 12 13  2  0  0  0  0
 12 33  1  0  0  0  0
 13 14  1  0  0  0  0
 14 15  1  0  0  0  0
 14 16  2  0  0  0  0
 15 34  1  0  0  0  0
 15 35  1  0  0  0  0
 15 36  1  0  0  0  0
 16 17  1  0  0  0  0
 16 18  1  0  0  0  0
 17 37  1  0  0  0  0
 17 38  1  0  0  0  0
 17 39  1  0  0  0  0
 18 19  2  0  0  0  0
 20 40  1  0  0  0  0
M  END
> <s_m_source_file>
AV-unprocessed.smi

> <i_m_source_file_index>
2288

> <i_lp_mmshare_version>
43012

> <i_f3d_flags>
0

> <s_epik_input>
W0NIM11jMVtjSF1jKFtDSDNdKVtjSF1jKFtjSF0xKVtDQEhdKFtPSF0pW0NIMl1uMltjSF1uYyhbQ0gzXSljKFtDSDNdKWMyPU8=

> <s_epik_cmdline>
J2VwaWtfcHl0aG9uJywgJy1waCcsICc3LjAnLCAnLXRuJywgJzgnLCAnLW1hJywgJzIwMCcsICctbWV0YWxfYmluZGluZycsICctaW1hZScsICc8aW5maWxlLm1hZT4nLCAnLW9tYWUnLCAnPG91dGZpbGUubWFlPic=

> <r_lp_tautomer_probability>
1

> <r_epik_Ionization_Penalty>
5.07027e-05

> <r_epik_Ionization_Penalty_Charging>
7.56727e-08

> <r_epik_Ionization_Penalty_Neutral>
5.06271e-05

> <r_epik_State_Penalty>
-0

> <r_epik_Charging_Adjusted_Penalty>
7.56727e-08

> <i_epik_Tot_Q>
0

> <i_epik_Tot_abs_Q>
0

> <r_epik_Metal_State_Penalty>
-0

> <b_epik_Metal_Only>
0

> <s_lp_Force_Field>
OPLS_2005

> <r_lp_Energy>
20.195

> <b_lp_Chiralities_Consistent>
1

> <s_lp_Variant>
AV-unprocessed.smi:2288-1

> <Gold.Version>
5.8.1

> <Gold.Id.Protein>
6NUR|6NUR_protein|mol2

> <Gold.PLP.Fitness>
45.7906

> <Gold.PLP.PLP>
-43.2184

> <Gold.PLP.part.hbond>
-1.0000

> <Gold.PLP.part.metal>
0.0000

> <Gold.PLP.part.buried>
4.5711

> <Gold.PLP.part.nonpolar>
-45.2087

> <Gold.PLP.part.repulsive>
0.1050

> <Gold.PLP.ligand.clash>
0.0000

> <Gold.PLP.ligand.torsion>
1.2824

> <Gold.PLP.Chemscore.Hbond>
1.0000

> <Gold.PLP.Chemscore.CHOScore>
0.7075

> <Gold.PLP.Chemscore.Metal>
0.0000

> <Gold.Chemscore.Hbonds>
donor molecule, donor type, donor heavy atom, donor atom, acceptor molecule, acceptor atom, score
      P1  H  7997  8010       L1    19  0.93
      L1  C    12    33       P1  8028  0.62

> <Gold.PLP.Chemscore.Internal.Correction>
0.0145

> <Gold.Rescore>
     Score         DG    S(hbond)    S(metal)    S(lipo)     H(rot)  DE(clash)    DE(int)     intcor
     13.97     -19.64       1.00        0.00     133.96       1.89       3.32       2.36       ----

> <Gold.Chemscore.Fitness>
13.9671

> <Gold.Chemscore.DG>
-19.6379

> <Gold.Chemscore.ZeroCoef>
-5.4800

> <Gold.Chemscore.Hbond>
0.9953

> <Gold.Chemscore.Metal>
0.0000

> <Gold.Chemscore.Lipo>
133.9617

> <Gold.Chemscore.Internal_Hbond>
0.0000

> <Gold.Chemscore.DEClash>
3.3151

> <Gold.Chemscore.DEInternal>
2.3557

> <Gold.Chemscore.Rot>
1.8907

> <Gold.Chemscore.Internal.Correction>
   9.000000E+99

> <Gold.Chemscore.Hbonds>
donor molecule, donor type, donor heavy atom, donor atom, acceptor molecule, acceptor atom, score
      P1  H  7997  8010       L1    19  0.91

> <Gold.Chemscore.Hbond.Weighted>
-3.3244

> <Gold.Chemscore.Metal.Weighted>
-0.0000

> <Gold.Chemscore.Lipo.Weighted>
-15.6735

> <Gold.Chemscore.Internal_Hbond.Weighted>
0.0000

> <Gold.Chemscore.DEClash.Weighted>
3.3151

> <Gold.Chemscore.DEInternal.Weighted>
2.3557

> <Gold.Chemscore.Rot.Weighted>
4.8401

> <Gold.Chemscore.Internal.Correction.Weighted>
   9.000000E+99

> <Gold.Protein.RotatedTorsions>
[ 6907 6896 6895 6894 ] final  143.32 input  -60.11 | X-H torsion
[ 7974 7965 7964 7962 ] final -111.81 input  175.53 | X-H torsion
[ 8008 7997 7996 7995 ] final   51.57 input   59.86 | X-H torsion
[ 10167 10162 10161 10158 ] final  -58.03 input  -65.29 | X-H torsion
[ 10718 10713 10712 10709 ] final -160.40 input   66.30 | X-H torsion
[ 10763 10752 10751 10750 ] final   34.56 input  -60.55 | X-H torsion
[ 11005 11000 10999 10996 ] final -177.33 input  -57.11 | X-H torsion

> <Gold.Protein.ActiveResidues>
 VAL166  LYS551  ARG553  GLY616  TRP617  ASP618  TYR619  PRO620  LYS621  CYS622 
 ASP623  PHE694  ASN695  SER759  ASP760  ASP761  ALA762  ILE779  LEU786  VAL792 
 PHE793  MET794  SER795  GLU796  ALA797  LYS798  CYS799  TRP800  GLU811  SER814 

> <Gold.Protein.RotatedAtoms>
  152.2078  133.4888  159.5093 H   0  0  0  0  0  0  0  0  0  0  0  0  # atno 6907 bound_to 6896
  150.6983  134.1507  159.4148 H   0  0  0  0  0  0  0  0  0  0  0  0  # atno 6908 bound_to 6896
  151.9426  135.0206  160.0587 H   0  0  0  0  0  0  0  0  0  0  0  0  # atno 6909 bound_to 6896
  145.1516  140.8832  143.3643 H   0  0  0  0  0  0  0  0  0  0  0  0  # atno 7974 bound_to 7965
  155.4374  140.3453  155.4286 H   0  0  0  0  0  0  0  0  0  0  0  0  # atno 8008 bound_to 7997
  156.1299  140.1511  156.9111 H   0  0  0  0  0  0  0  0  0  0  0  0  # atno 8009 bound_to 7997
  154.4887  140.0847  156.7525 H   0  0  0  0  0  0  0  0  0  0  0  0  # atno 8010 bound_to 7997
  140.6222  143.2424  151.5451 H   0  0  0  0  0  0  0  0  0  0  0  0  # atno 10167 bound_to 10162
  156.5816  130.8732  151.2866 H   0  0  0  0  0  0  0  0  0  0  0  0  # atno 10718 bound_to 10713
  153.0158  135.6357  154.1688 H   0  0  0  0  0  0  0  0  0  0  0  0  # atno 10763 bound_to 10752
  154.1427  135.2833  155.3158 H   0  0  0  0  0  0  0  0  0  0  0  0  # atno 10764 bound_to 10752
  154.6112  135.5555  153.7537 H   0  0  0  0  0  0  0  0  0  0  0  0  # atno 10765 bound_to 10752
  140.4421  134.6422  157.4762 H   0  0  0  0  0  0  0  0  0  0  0  0  # atno 11005 bound_to 11000
  145.0425  139.3248  143.5969 LP  0  0  0  0  0  0  0  0  0  0  0  0  # atno 17320 bound_to 7965
  146.3494  139.9803  142.8696 LP  0  0  0  0  0  0  0  0  0  0  0  0  # atno 17321 bound_to 7965
  139.5449  144.2549  152.1422 LP  0  0  0  0  0  0  0  0  0  0  0  0  # atno 17342 bound_to 10162
  140.1771  144.4880  150.6548 LP  0  0  0  0  0  0  0  0  0  0  0  0  # atno 17343 bound_to 10162
  157.7325  130.9716  150.1931 LP  0  0  0  0  0  0  0  0  0  0  0  0  # atno 17370 bound_to 10713
  156.2626  130.3712  149.8114 LP  0  0  0  0  0  0  0  0  0  0  0  0  # atno 17371 bound_to 10713
  140.0063  134.6759  155.9450 LP  0  0  0  0  0  0  0  0  0  0  0  0  # atno 17394 bound_to 11000
  141.1701  133.6537  156.4620 LP  0  0  0  0  0  0  0  0  0  0  0  0  # atno 17395 bound_to 11000

$$$$
