AV-unprocessed.smi:2121|AV-procd|sdf|8644|dock3
  -GOLD-   2272011393D 1   1.00000     0.00000
 Structure written by MMmdl.
 49 50  0  0  0  0  0  0  0  0  1 V2000
  153.3499  141.7505  161.7789 C   0  0  0  0  0  0  0  0  0  0  0  0
  152.9819  142.2627  160.3824 C   0  0  1  0  0  0  0  0  0  0  0  0
  152.4661  141.1322  159.4743 C   0  0  0  0  0  0  0  0  0  0  0  0
  152.0067  141.6735  158.1994 N   0  0  0  0  0  0  0  0  0  0  0  0
  151.8160  140.7264  157.1703 C   0  0  0  0  0  0  0  0  0  0  0  0
  150.6639  140.7915  156.3514 C   0  0  0  0  0  0  0  0  0  0  0  0
  150.4983  139.8455  155.3224 C   0  0  0  0  0  0  0  0  0  0  0  0
  151.4801  138.8529  155.1375 C   0  0  0  0  0  0  0  0  0  0  0  0
  151.3263  137.8334  154.0160 C   0  0  0  0  0  0  0  0  0  0  0  0
  150.2810  136.8391  154.2335 N   0  0  0  0  0  0  0  0  0  0  0  0
  150.2942  135.9089  155.1999 C   0  0  0  0  0  0  0  0  0  0  0  0
  151.1981  135.8122  156.0316 O   0  0  0  0  0  0  0  0  0  0  0  0
  149.0957  134.9477  155.2311 C   0  0  2  0  0  0  0  0  0  0  0  0
  149.6189  133.5180  155.0151 C   0  0  0  0  0  0  0  0  0  0  0  0
  148.1616  135.2599  154.1506 N   0  0  0  0  0  0  0  0  0  0  0  0
  146.8514  135.4965  154.3124 C   0  0  0  0  0  0  0  0  0  0  0  0
  146.2408  135.7777  153.1609 N   0  0  0  0  0  0  0  0  0  0  0  0
  146.2653  135.4638  155.3929 O   0  0  0  0  0  0  0  0  0  0  0  0
  152.5931  138.8613  156.0066 C   0  0  0  0  0  0  0  0  0  0  0  0
  152.7572  139.7664  156.9944 N   0  0  0  0  0  0  0  0  0  0  0  0
  151.0101  142.7313  158.3522 C   0  0  0  0  0  0  0  0  0  0  0  0
  151.5131  143.8342  159.3045 C   0  0  2  0  0  0  0  0  0  0  0  0
  152.5662  144.7604  158.6704 C   0  0  0  0  0  0  0  0  0  0  0  0
  151.9700  143.2584  160.5305 O   0  0  0  0  0  0  0  0  0  0  0  0
  154.1289  140.9895  161.7256 H   0  0  0  0  0  0  0  0  0  0  0  0
  152.4859  141.3113  162.2787 H   0  0  0  0  0  0  0  0  0  0  0  0
  153.7205  142.5619  162.4058 H   0  0  0  0  0  0  0  0  0  0  0  0
  153.8743  142.7072  159.9416 H   0  0  0  0  0  0  0  0  0  0  0  0
  153.2563  140.3950  159.3387 H   0  0  0  0  0  0  0  0  0  0  0  0
  151.6333  140.6160  159.9537 H   0  0  0  0  0  0  0  0  0  0  0  0
  149.9062  141.5449  156.5063 H   0  0  0  0  0  0  0  0  0  0  0  0
  149.6268  139.8831  154.6854 H   0  0  0  0  0  0  0  0  0  0  0  0
  151.1496  138.3509  153.0714 H   0  0  0  0  0  0  0  0  0  0  0  0
  152.2741  137.3066  153.9045 H   0  0  0  0  0  0  0  0  0  0  0  0
  149.4989  136.8499  153.5950 H   0  0  0  0  0  0  0  0  0  0  0  0
  148.5840  135.0087  156.1939 H   0  0  0  0  0  0  0  0  0  0  0  0
  150.3205  133.2311  155.7996 H   0  0  0  0  0  0  0  0  0  0  0  0
  150.1297  133.4114  154.0567 H   0  0  0  0  0  0  0  0  0  0  0  0
  148.8007  132.7974  155.0336 H   0  0  0  0  0  0  0  0  0  0  0  0
  148.5476  135.3200  153.2199 H   0  0  0  0  0  0  0  0  0  0  0  0
  145.2501  135.9696  153.1444 H   0  0  0  0  0  0  0  0  0  0  0  0
  146.7759  135.7910  152.3048 H   0  0  0  0  0  0  0  0  0  0  0  0
  153.3820  138.1301  155.9102 H   0  0  0  0  0  0  0  0  0  0  0  0
  150.7616  143.1675  157.3837 H   0  0  0  0  0  0  0  0  0  0  0  0
  150.0947  142.2929  158.7519 H   0  0  0  0  0  0  0  0  0  0  0  0
  150.6595  144.4612  159.5633 H   0  0  0  0  0  0  0  0  0  0  0  0
  152.1478  145.2893  157.8138 H   0  0  0  0  0  0  0  0  0  0  0  0
  153.4396  144.2136  158.3160 H   0  0  0  0  0  0  0  0  0  0  0  0
  152.9061  145.5089  159.3863 H   0  0  0  0  0  0  0  0  0  0  0  0
  1  2  1  0  0  0  0
  1 25  1  0  0  0  0
  1 26  1  0  0  0  0
  1 27  1  0  0  0  0
  2 24  1  0  0  0  0
  2  3  1  0  0  0  0
  2 28  1  0  0  0  0
  3  4  1  0  0  0  0
  3 29  1  0  0  0  0
  3 30  1  0  0  0  0
  4  5  1  0  0  0  0
  4 21  1  0  0  0  0
  5 20  1  0  0  0  0
  5  6  2  0  0  0  0
  6  7  1  0  0  0  0
  6 31  1  0  0  0  0
  7  8  2  0  0  0  0
  7 32  1  0  0  0  0
  8  9  1  0  0  0  0
  8 19  1  0  0  0  0
  9 10  1  0  0  0  0
  9 33  1  0  0  0  0
  9 34  1  0  0  0  0
 10 11  1  0  0  0  0
 10 35  1  0  0  0  0
 11 12  2  0  0  0  0
 11 13  1  0  0  0  0
 13 14  1  0  0  0  0
 13 15  1  0  0  0  0
 13 36  1  0  0  0  0
 14 37  1  0  0  0  0
 14 38  1  0  0  0  0
 14 39  1  0  0  0  0
 15 16  1  0  0  0  0
 15 40  1  0  0  0  0
 16 17  1  0  0  0  0
 16 18  2  0  0  0  0
 17 41  1  0  0  0  0
 17 42  1  0  0  0  0
 19 20  2  0  0  0  0
 19 43  1  0  0  0  0
 21 22  1  0  0  0  0
 21 44  1  0  0  0  0
 21 45  1  0  0  0  0
 22 23  1  0  0  0  0
 22 24  1  0  0  0  0
 22 46  1  0  0  0  0
 23 47  1  0  0  0  0
 23 48  1  0  0  0  0
 23 49  1  0  0  0  0
M  END
> <s_m_source_file>
AV-unprocessed.smi

> <i_m_source_file_index>
2121

> <i_lp_mmshare_version>
43012

> <i_f3d_flags>
0

> <s_epik_input>
W0NIM11bQ0BASF0xW0NIMl1OKFtDSDJdW0NASF0oTzEpW0NIM10pYzJbY0hdW2NIXWMoW2NIXW4yKVtDSDJdW05IXUMoPU8pW0NASF0oW0NIM10pW05IXUMoPU8pW05IMl0=

> <s_epik_cmdline>
J2VwaWtfcHl0aG9uJywgJy1waCcsICc3LjAnLCAnLXRuJywgJzgnLCAnLW1hJywgJzIwMCcsICctbWV0YWxfYmluZGluZycsICctaW1hZScsICc8aW5maWxlLm1hZT4nLCAnLW9tYWUnLCAnPG91dGZpbGUubWFlPic=

> <r_lp_tautomer_probability>
1

> <r_epik_Ionization_Penalty>
0.0063713

> <r_epik_Ionization_Penalty_Charging>
0

> <r_epik_Ionization_Penalty_Neutral>
0.0063713

> <r_epik_State_Penalty>
0.00467069

> <r_epik_Charging_Adjusted_Penalty>
0.00467069

> <i_epik_Tot_Q>
0

> <i_epik_Tot_abs_Q>
0

> <r_epik_Metal_State_Penalty>
-0

> <b_epik_Metal_Only>
0

> <s_lp_Force_Field>
OPLS_2005

> <r_lp_Energy>
13.1908

> <b_lp_Chiralities_Consistent>
1

> <s_lp_Variant>
AV-unprocessed.smi:2121-5

> <Gold.Version>
5.8.1

> <Gold.Id.Protein>
6NUR|6NUR_protein|mol2

> <Gold.PLP.Fitness>
58.3198

> <Gold.PLP.PLP>
-45.4051

> <Gold.PLP.part.hbond>
-5.9849

> <Gold.PLP.part.metal>
0.0000

> <Gold.PLP.part.buried>
-1.0808

> <Gold.PLP.part.nonpolar>
-36.9464

> <Gold.PLP.part.repulsive>
0.1910

> <Gold.PLP.ligand.clash>
0.0000

> <Gold.PLP.ligand.torsion>
0.3793

> <Gold.PLP.Chemscore.Hbond>
4.4369

> <Gold.PLP.Chemscore.CHOScore>
0.0000

> <Gold.PLP.Chemscore.Metal>
0.0000

> <Gold.Chemscore.Hbonds>
donor molecule, donor type, donor heavy atom, donor atom, acceptor molecule, acceptor atom, score
      L1  H    10    35       P1  7948  0.82
      L1  H    15    40       P1  7948  1.00
      L1  H    17    42       P1  7948  0.32
      P1  H  7997  8010       L1    20  1.00
      P1  H 10752 10764       L1    12  0.59

> <Gold.PLP.Chemscore.Internal.Correction>
0.3626

> <Gold.Rescore>
     Score         DG    S(hbond)    S(metal)    S(lipo)     H(rot)  DE(clash)    DE(int)     intcor
     21.48     -22.43       3.14        0.00     111.92       2.58       0.67       0.28       ----

> <Gold.Chemscore.Fitness>
21.4830

> <Gold.Chemscore.DG>
-22.4339

> <Gold.Chemscore.ZeroCoef>
-5.4800

> <Gold.Chemscore.Hbond>
3.1358

> <Gold.Chemscore.Metal>
0.0000

> <Gold.Chemscore.Lipo>
111.9205

> <Gold.Chemscore.Internal_Hbond>
0.0000

> <Gold.Chemscore.DEClash>
0.6668

> <Gold.Chemscore.DEInternal>
0.2840

> <Gold.Chemscore.Rot>
2.5838

> <Gold.Chemscore.Internal.Correction>
   9.000000E+99

> <Gold.Chemscore.Hbonds>
donor molecule, donor type, donor heavy atom, donor atom, acceptor molecule, acceptor atom, score
      L1  H    10    35       P1  7948  0.68
      L1  H    15    40       P1  7948  0.89
      L1  H    17    42       P1  7948  0.31
      P1  H  7997  8010       L1    20  0.25
      P1  H 10752 10764       L1    12  0.20

> <Gold.Chemscore.Hbond.Weighted>
-10.4736

> <Gold.Chemscore.Metal.Weighted>
-0.0000

> <Gold.Chemscore.Lipo.Weighted>
-13.0947

> <Gold.Chemscore.Internal_Hbond.Weighted>
0.0000

> <Gold.Chemscore.DEClash.Weighted>
0.6668

> <Gold.Chemscore.DEInternal.Weighted>
0.2840

> <Gold.Chemscore.Rot.Weighted>
6.6145

> <Gold.Chemscore.Internal.Correction.Weighted>
   9.000000E+99

> <Gold.Protein.RotatedTorsions>
[ 6907 6896 6895 6894 ] final  -54.97 input  -60.11 | X-H torsion
[ 7974 7965 7964 7962 ] final   -2.89 input  175.53 | X-H torsion
[ 8008 7997 7996 7995 ] final   46.22 input   59.86 | X-H torsion
[ 10167 10162 10161 10158 ] final -118.29 input  -65.29 | X-H torsion
[ 10718 10713 10712 10709 ] final   64.15 input   66.30 | X-H torsion
[ 10763 10752 10751 10750 ] final  -50.26 input  -60.55 | X-H torsion
[ 11005 11000 10999 10996 ] final  -79.74 input  -57.11 | X-H torsion

> <Gold.Protein.ActiveResidues>
 VAL166  LYS551  ARG553  GLY616  TRP617  ASP618  TYR619  PRO620  LYS621  CYS622 
 ASP623  PHE694  ASN695  SER759  ASP760  ASP761  ALA762  ILE779  LEU786  VAL792 
 PHE793  MET794  SER795  GLU796  ALA797  LYS798  CYS799  TRP800  GLU811  SER814 

> <Gold.Protein.RotatedAtoms>
  150.8292  134.7537  159.6838 H   0  0  0  0  0  0  0  0  0  0  0  0  # atno 6907 bound_to 6896
  152.4399  134.5609  159.9903 H   0  0  0  0  0  0  0  0  0  0  0  0  # atno 6908 bound_to 6896
  151.5774  133.3344  159.3037 H   0  0  0  0  0  0  0  0  0  0  0  0  # atno 6909 bound_to 6896
  146.2398  140.1638  142.8332 H   0  0  0  0  0  0  0  0  0  0  0  0  # atno 7974 bound_to 7965
  155.3489  140.3412  155.4239 H   0  0  0  0  0  0  0  0  0  0  0  0  # atno 8008 bound_to 7997
  156.1774  140.1652  156.8372 H   0  0  0  0  0  0  0  0  0  0  0  0  # atno 8009 bound_to 7997
  154.5297  140.0748  156.8305 H   0  0  0  0  0  0  0  0  0  0  0  0  # atno 8010 bound_to 7997
  140.0591  143.4985  152.2041 H   0  0  0  0  0  0  0  0  0  0  0  0  # atno 10167 bound_to 10162
  157.6020  130.9144  149.9809 H   0  0  0  0  0  0  0  0  0  0  0  0  # atno 10718 bound_to 10713
  154.1074  135.6554  153.4879 H   0  0  0  0  0  0  0  0  0  0  0  0  # atno 10763 bound_to 10752
  153.0268  135.5239  154.7226 H   0  0  0  0  0  0  0  0  0  0  0  0  # atno 10764 bound_to 10752
  154.6396  135.2986  155.0089 H   0  0  0  0  0  0  0  0  0  0  0  0  # atno 10765 bound_to 10752
  141.1667  133.7119  156.8168 H   0  0  0  0  0  0  0  0  0  0  0  0  # atno 11005 bound_to 11000
  145.0067  140.8679  143.5249 LP  0  0  0  0  0  0  0  0  0  0  0  0  # atno 17320 bound_to 7965
  145.1666  139.2428  143.5364 LP  0  0  0  0  0  0  0  0  0  0  0  0  # atno 17321 bound_to 7965
  139.5905  144.7548  151.3413 LP  0  0  0  0  0  0  0  0  0  0  0  0  # atno 17342 bound_to 10162
  140.7180  143.7212  150.7694 LP  0  0  0  0  0  0  0  0  0  0  0  0  # atno 17343 bound_to 10162
  156.1096  130.3651  150.0072 LP  0  0  0  0  0  0  0  0  0  0  0  0  # atno 17370 bound_to 10713
  156.8173  130.9346  151.3642 LP  0  0  0  0  0  0  0  0  0  0  0  0  # atno 17371 bound_to 10713
  140.2147  134.8801  157.3313 LP  0  0  0  0  0  0  0  0  0  0  0  0  # atno 17394 bound_to 11000
  140.2049  134.4209  155.7643 LP  0  0  0  0  0  0  0  0  0  0  0  0  # atno 17395 bound_to 11000

$$$$
