AV-unprocessed.smi:1568|AV-procd|sdf|6310|dock4
  -GOLD-   22720 6513D 1   1.00000     0.00000
 Structure written by MMmdl.
 43 44  0  0  0  0  0  0  0  0  1 V2000
  147.4118  128.2689  151.1091 C   0  0  0  0  0  0  0  0  0  0  0  0
  146.2025  128.5216  151.8032 O   0  0  0  0  0  0  0  0  0  0  0  0
  146.0803  129.8786  152.1929 C   0  0  0  0  0  0  0  0  0  0  0  0
  147.2466  130.2494  153.1123 C   0  0  0  0  0  0  0  0  0  0  0  0
  147.0534  131.5871  153.5583 O   0  0  0  0  0  0  0  0  0  0  0  0
  148.1226  132.2724  154.1013 C   0  0  0  0  0  0  0  0  0  0  0  0
  149.2101  131.5627  154.4953 N   0  0  0  0  0  0  0  0  0  0  0  0
  150.2712  132.2328  154.9915 C   0  0  0  0  0  0  0  0  0  0  0  0
  150.3098  133.6345  155.1150 C   0  0  0  0  0  0  0  0  0  0  0  0
  149.1820  134.3723  154.7097 C   0  0  0  0  0  0  0  0  0  0  0  0
  148.0580  133.6835  154.2084 C   0  0  0  0  0  0  0  0  0  0  0  0
  146.8472  134.4496  153.7622 C   0  0  0  0  0  0  0  0  0  0  0  0
  146.2185  135.0930  154.6029 O   0  0  0  0  0  0  0  0  0  0  0  0
  146.5151  134.4137  152.4470 N   0  0  0  0  0  0  0  0  0  0  0  0
  147.1851  133.5176  151.4958 C   0  0  0  0  0  0  0  0  0  0  0  0
  146.1398  132.5911  150.8501 C   0  0  0  0  0  0  0  0  0  0  0  0
  145.0362  133.4092  150.1449 C   0  0  0  0  0  0  0  0  0  0  0  0
  143.9461  132.4933  149.5728 C   0  0  0  0  0  0  0  0  0  0  0  0
  143.1576  131.8661  150.4490 N   0  0  0  0  0  0  0  0  0  0  0  0
  143.8131  132.3535  148.3584 O   0  0  0  0  0  0  0  0  0  0  0  0
  144.4372  134.4511  151.1143 C   0  0  0  0  0  0  0  0  0  0  0  0
  145.5395  135.2934  151.7826 C   0  0  0  0  0  0  0  0  0  0  0  0
  147.4615  127.2167  150.8294 H   0  0  0  0  0  0  0  0  0  0  0  0
  148.2782  128.4925  151.7328 H   0  0  0  0  0  0  0  0  0  0  0  0
  147.4750  128.8637  150.1967 H   0  0  0  0  0  0  0  0  0  0  0  0
  146.0799  130.5231  151.3125 H   0  0  0  0  0  0  0  0  0  0  0  0
  145.1347  130.0318  152.7131 H   0  0  0  0  0  0  0  0  0  0  0  0
  147.2793  129.5662  153.9626 H   0  0  0  0  0  0  0  0  0  0  0  0
  148.1878  130.1612  152.5672 H   0  0  0  0  0  0  0  0  0  0  0  0
  151.1175  131.6339  155.2937 H   0  0  0  0  0  0  0  0  0  0  0  0
  151.1831  134.1310  155.5111 H   0  0  0  0  0  0  0  0  0  0  0  0
  149.1798  135.4496  154.7924 H   0  0  0  0  0  0  0  0  0  0  0  0
  147.6872  134.1127  150.7316 H   0  0  0  0  0  0  0  0  0  0  0  0
  147.9614  132.9090  151.9612 H   0  0  0  0  0  0  0  0  0  0  0  0
  146.6290  131.9277  150.1357 H   0  0  0  0  0  0  0  0  0  0  0  0
  145.7052  131.9512  151.6203 H   0  0  0  0  0  0  0  0  0  0  0  0
  145.5012  133.9501  149.3187 H   0  0  0  0  0  0  0  0  0  0  0  0
  142.4254  131.2532  150.1210 H   0  0  0  0  0  0  0  0  0  0  0  0
  143.2970  132.0083  151.4390 H   0  0  0  0  0  0  0  0  0  0  0  0
  143.7509  135.1081  150.5785 H   0  0  0  0  0  0  0  0  0  0  0  0
  143.8453  133.9560  151.8828 H   0  0  0  0  0  0  0  0  0  0  0  0
  145.0856  136.0256  152.4490 H   0  0  0  0  0  0  0  0  0  0  0  0
  146.0621  135.8792  151.0251 H   0  0  0  0  0  0  0  0  0  0  0  0
  1  2  1  0  0  0  0
  1 23  1  0  0  0  0
  1 24  1  0  0  0  0
  1 25  1  0  0  0  0
  2  3  1  0  0  0  0
  3  4  1  0  0  0  0
  3 26  1  0  0  0  0
  3 27  1  0  0  0  0
  4  5  1  0  0  0  0
  4 28  1  0  0  0  0
  4 29  1  0  0  0  0
  5  6  1  0  0  0  0
  6 11  1  0  0  0  0
  6  7  2  0  0  0  0
  7  8  1  0  0  0  0
  8  9  2  0  0  0  0
  8 30  1  0  0  0  0
  9 10  1  0  0  0  0
  9 31  1  0  0  0  0
 10 11  2  0  0  0  0
 10 32  1  0  0  0  0
 11 12  1  0  0  0  0
 12 13  2  0  0  0  0
 12 14  1  0  0  0  0
 14 22  1  0  0  0  0
 14 15  1  0  0  0  0
 15 16  1  0  0  0  0
 15 33  1  0  0  0  0
 15 34  1  0  0  0  0
 16 17  1  0  0  0  0
 16 35  1  0  0  0  0
 16 36  1  0  0  0  0
 17 18  1  0  0  0  0
 17 21  1  0  0  0  0
 17 37  1  0  0  0  0
 18 19  1  0  0  0  0
 18 20  2  0  0  0  0
 19 38  1  0  0  0  0
 19 39  1  0  0  0  0
 21 22  1  0  0  0  0
 21 40  1  0  0  0  0
 21 41  1  0  0  0  0
 22 42  1  0  0  0  0
 22 43  1  0  0  0  0
M  END
> <s_m_source_file>
AV-unprocessed.smi

> <i_m_source_file_index>
1568

> <i_lp_mmshare_version>
43012

> <i_f3d_flags>
0

> <s_epik_input>
W0NIM11PW0NIMl1bQ0gyXU9jMW5bY0hdW2NIXVtjSF1jMUMoPU8pTjJbQ0gyXVtDSDJdW0NIXShDKD1PKVtOSDJdKVtDSDJdW0NIMl0y

> <s_epik_cmdline>
J2VwaWtfcHl0aG9uJywgJy1waCcsICc3LjAnLCAnLXRuJywgJzgnLCAnLW1hJywgJzIwMCcsICctbWV0YWxfYmluZGluZycsICctaW1hZScsICc8aW5maWxlLm1hZT4nLCAnLW9tYWUnLCAnPG91dGZpbGUubWFlPic=

> <r_lp_tautomer_probability>
1

> <r_epik_Ionization_Penalty>
2.36279e-06

> <r_epik_Ionization_Penalty_Charging>
0

> <r_epik_Ionization_Penalty_Neutral>
2.36279e-06

> <r_epik_State_Penalty>
-0

> <r_epik_Charging_Adjusted_Penalty>
0

> <i_epik_Tot_Q>
0

> <i_epik_Tot_abs_Q>
0

> <r_epik_Metal_State_Penalty>
-0

> <b_epik_Metal_Only>
0

> <s_lp_Force_Field>
OPLS_2005

> <r_lp_Energy>
28.0257

> <b_lp_Chiralities_Consistent>
1

> <s_lp_Variant>
AV-unprocessed.smi:1568-1

> <Gold.Version>
5.8.1

> <Gold.Id.Protein>
6NUR|6NUR_protein|mol2

> <Gold.PLP.Fitness>
39.5859

> <Gold.PLP.PLP>
-37.3159

> <Gold.PLP.part.hbond>
-2.0000

> <Gold.PLP.part.metal>
0.0000

> <Gold.PLP.part.buried>
-4.6517

> <Gold.PLP.part.nonpolar>
-30.5859

> <Gold.PLP.part.repulsive>
0.7267

> <Gold.PLP.ligand.clash>
0.0000

> <Gold.PLP.ligand.torsion>
1.6686

> <Gold.PLP.Chemscore.Hbond>
1.1802

> <Gold.PLP.Chemscore.CHOScore>
0.0000

> <Gold.PLP.Chemscore.Metal>
0.0000

> <Gold.Chemscore.Hbonds>
donor molecule, donor type, donor heavy atom, donor atom, acceptor molecule, acceptor atom, score
      L1  H    19    38       P1 10952  1.00
      P1  H 10785 10796       L1    20  0.08

> <Gold.PLP.Chemscore.Internal.Correction>
2.0667

> <Gold.Rescore>
     Score         DG    S(hbond)    S(metal)    S(lipo)     H(rot)  DE(clash)    DE(int)     intcor
      8.65     -12.52       0.98        0.00      80.73       2.21       0.08       3.79       ----

> <Gold.Chemscore.Fitness>
8.6498

> <Gold.Chemscore.DG>
-12.5213

> <Gold.Chemscore.ZeroCoef>
-5.4800

> <Gold.Chemscore.Hbond>
0.9778

> <Gold.Chemscore.Metal>
0.0000

> <Gold.Chemscore.Lipo>
80.7274

> <Gold.Chemscore.Internal_Hbond>
0.0000

> <Gold.Chemscore.DEClash>
0.0815

> <Gold.Chemscore.DEInternal>
3.7900

> <Gold.Chemscore.Rot>
2.2148

> <Gold.Chemscore.Internal.Correction>
   9.000000E+99

> <Gold.Chemscore.Hbonds>
donor molecule, donor type, donor heavy atom, donor atom, acceptor molecule, acceptor atom, score
      L1  H    19    38       P1 10952  0.82

> <Gold.Chemscore.Hbond.Weighted>
-3.2659

> <Gold.Chemscore.Metal.Weighted>
-0.0000

> <Gold.Chemscore.Lipo.Weighted>
-9.4451

> <Gold.Chemscore.Internal_Hbond.Weighted>
0.0000

> <Gold.Chemscore.DEClash.Weighted>
0.0815

> <Gold.Chemscore.DEInternal.Weighted>
3.7900

> <Gold.Chemscore.Rot.Weighted>
5.6698

> <Gold.Chemscore.Internal.Correction.Weighted>
   9.000000E+99

> <Gold.Protein.RotatedTorsions>
[ 6907 6896 6895 6894 ] final -108.48 input  -60.11 | X-H torsion
[ 7974 7965 7964 7962 ] final  134.19 input  175.53 | X-H torsion
[ 8008 7997 7996 7995 ] final -172.43 input   59.86 | X-H torsion
[ 10167 10162 10161 10158 ] final   54.87 input  -65.29 | X-H torsion
[ 10718 10713 10712 10709 ] final  -71.44 input   66.30 | X-H torsion
[ 10763 10752 10751 10750 ] final  101.35 input  -60.55 | X-H torsion
[ 11005 11000 10999 10996 ] final  -57.96 input  -57.11 | X-H torsion

> <Gold.Protein.ActiveResidues>
 VAL166  LYS551  ARG553  GLY616  TRP617  ASP618  TYR619  PRO620  LYS621  CYS622 
 ASP623  PHE694  ASN695  SER759  ASP760  ASP761  ALA762  ILE779  LEU786  VAL792 
 PHE793  MET794  SER795  GLU796  ALA797  LYS798  CYS799  TRP800  GLU811  SER814 

> <Gold.Protein.RotatedAtoms>
  150.7504  133.9672  159.3533 H   0  0  0  0  0  0  0  0  0  0  0  0  # atno 6907 bound_to 6896
  151.7602  135.0810  160.0354 H   0  0  0  0  0  0  0  0  0  0  0  0  # atno 6908 bound_to 6896
  152.3408  133.6027  159.5911 H   0  0  0  0  0  0  0  0  0  0  0  0  # atno 6909 bound_to 6896
  144.9789  139.4526  143.5396 H   0  0  0  0  0  0  0  0  0  0  0  0  # atno 7974 bound_to 7965
  155.9445  140.1115  157.1028 H   0  0  0  0  0  0  0  0  0  0  0  0  # atno 8008 bound_to 7997
  154.4096  140.1212  156.5037 H   0  0  0  0  0  0  0  0  0  0  0  0  # atno 8009 bound_to 7997
  155.6920  140.3472  155.4899 H   0  0  0  0  0  0  0  0  0  0  0  0  # atno 8010 bound_to 7997
  140.2255  144.3743  150.6434 H   0  0  0  0  0  0  0  0  0  0  0  0  # atno 10167 bound_to 10162
  156.0363  130.4351  150.2444 H   0  0  0  0  0  0  0  0  0  0  0  0  # atno 10718 bound_to 10713
  153.3256  135.4047  155.1453 H   0  0  0  0  0  0  0  0  0  0  0  0  # atno 10763 bound_to 10752
  154.8611  135.3598  154.5539 H   0  0  0  0  0  0  0  0  0  0  0  0  # atno 10764 bound_to 10752
  153.5975  135.7072  153.5457 H   0  0  0  0  0  0  0  0  0  0  0  0  # atno 10765 bound_to 10752
  141.1187  133.6611  156.4848 H   0  0  0  0  0  0  0  0  0  0  0  0  # atno 11005 bound_to 11000
  146.3403  139.9049  142.8789 LP  0  0  0  0  0  0  0  0  0  0  0  0  # atno 17320 bound_to 7965
  145.2450  141.0023  143.3914 LP  0  0  0  0  0  0  0  0  0  0  0  0  # atno 17321 bound_to 7965
  140.6224  143.2177  151.6667 LP  0  0  0  0  0  0  0  0  0  0  0  0  # atno 17342 bound_to 10162
  139.5129  144.3462  152.0695 LP  0  0  0  0  0  0  0  0  0  0  0  0  # atno 17343 bound_to 10162
  157.0543  131.0072  151.3243 LP  0  0  0  0  0  0  0  0  0  0  0  0  # atno 17370 bound_to 10713
  157.5117  130.7942  149.7712 LP  0  0  0  0  0  0  0  0  0  0  0  0  # atno 17371 bound_to 10713
  140.4571  134.6875  157.5068 LP  0  0  0  0  0  0  0  0  0  0  0  0  # atno 17394 bound_to 11000
  140.0128  134.6665  155.9355 LP  0  0  0  0  0  0  0  0  0  0  0  0  # atno 17395 bound_to 11000

$$$$
