AV-unprocessed.smi:290|AV-procd|sdf|2233|dock1
  -GOLD-   2262022 93D 1   1.00000     0.00000
 Structure written by MMmdl.
 59 62  0  0  0  0  0  0  0  0  2 V2000
  153.2773  142.5311  160.3063 C   0  0  0  0  0  0  0  0  0  0  0  0
  152.3134  143.3401  159.4229 C   0  0  2  0  0  0  0  0  0  0  0  0
  151.8260  144.4472  160.1747 O   0  0  0  0  0  0  0  0  0  0  0  0
  150.5437  144.7959  159.6862 C   0  0  0  0  0  0  0  0  0  0  0  0
  149.9072  143.4342  159.4508 C   0  0  0  0  0  0  0  0  0  0  0  0
  151.0561  142.5920  158.8926 C   0  0  2  0  0  0  0  0  0  0  0  0
  150.9420  141.2872  159.4342 O   0  0  0  0  0  0  0  0  0  0  0  0
  151.0338  142.4141  157.3473 C   0  0  0  0  0  0  0  0  0  0  0  0
  149.8888  141.6853  156.8156 N   0  0  0  0  0  0  0  0  0  0  0  0
  148.5639  141.8623  157.1512 C   0  0  0  0  0  0  0  0  0  0  0  0
  147.7199  141.0842  156.5302 N   0  0  0  0  0  0  0  0  0  0  0  0
  148.5208  140.3286  155.6832 C   0  0  0  0  0  0  0  0  0  0  0  0
  148.2672  139.3046  154.7276 C   0  0  0  0  0  0  0  0  0  0  0  0
  147.0444  138.8110  154.4350 N   0  0  0  0  0  0  0  0  0  0  0  0
  146.3591  139.4741  153.3353 C   0  0  0  0  0  0  0  0  0  0  0  0
  145.9379  138.3732  152.3694 C   0  0  0  0  0  0  0  0  0  0  0  0
  145.8497  137.1109  153.2387 C   0  0  1  0  0  0  0  0  0  0  0  0
  145.9753  135.8786  152.4008 N   0  3  1  0  0  0  0  0  0  0  0  0
  146.2405  134.6278  153.1514 C   0  0  0  0  0  0  0  0  0  0  0  0
  144.8399  135.7116  151.4529 C   0  0  0  0  0  0  0  0  0  0  0  0
  144.8832  134.3508  150.7388 C   0  0  0  0  0  0  0  0  0  0  0  0
  143.8997  134.3043  149.7262 O   0  0  0  0  0  0  0  0  0  0  0  0
  146.9883  137.3608  154.2584 C   0  0  2  0  0  0  0  0  0  0  0  0
  146.7950  136.6915  155.6351 C   0  0  0  0  0  0  0  0  0  0  0  0
  149.3209  138.7880  154.0509 N   0  0  0  0  0  0  0  0  0  0  0  0
  150.5541  139.2432  154.2904 C   0  0  0  0  0  0  0  0  0  0  0  0
  150.9429  140.1881  155.1494 N   0  0  0  0  0  0  0  0  0  0  0  0
  149.8841  140.7048  155.8371 C   0  0  0  0  0  0  0  0  0  0  0  0
  144.8949  137.1004  153.7682 H   0  0  0  0  0  0  0  0  0  0  0  0
  147.9307  137.0214  153.8258 H   0  0  0  0  0  0  0  0  0  0  0  0
  153.6804  141.6735  159.7673 H   0  0  0  0  0  0  0  0  0  0  0  0
  152.7828  142.1651  161.2066 H   0  0  0  0  0  0  0  0  0  0  0  0
  154.1194  143.1468  160.6224 H   0  0  0  0  0  0  0  0  0  0  0  0
  152.8867  143.7491  158.5939 H   0  0  0  0  0  0  0  0  0  0  0  0
  149.9904  145.4009  160.4043 H   0  0  0  0  0  0  0  0  0  0  0  0
  150.6390  145.3625  158.7593 H   0  0  0  0  0  0  0  0  0  0  0  0
  149.5808  143.0431  160.4161 H   0  0  0  0  0  0  0  0  0  0  0  0
  149.0273  143.4709  158.8111 H   0  0  0  0  0  0  0  0  0  0  0  0
  151.1676  141.3218  160.3513 H   0  0  0  0  0  0  0  0  0  0  0  0
  151.0677  143.3908  156.8620 H   0  0  0  0  0  0  0  0  0  0  0  0
  151.9339  141.8891  157.0233 H   0  0  0  0  0  0  0  0  0  0  0  0
  148.2367  142.5919  157.8779 H   0  0  0  0  0  0  0  0  0  0  0  0
  145.4798  139.9744  153.7423 H   0  0  0  0  0  0  0  0  0  0  0  0
  146.9653  140.2329  152.8378 H   0  0  0  0  0  0  0  0  0  0  0  0
  145.0074  138.6202  151.8582 H   0  0  0  0  0  0  0  0  0  0  0  0
  146.7121  138.2501  151.6099 H   0  0  0  0  0  0  0  0  0  0  0  0
  145.4551  134.4371  153.8837 H   0  0  0  0  0  0  0  0  0  0  0  0
  147.2029  134.6689  153.6604 H   0  0  0  0  0  0  0  0  0  0  0  0
  146.2845  133.7678  152.4841 H   0  0  0  0  0  0  0  0  0  0  0  0
  143.8986  135.8236  151.9931 H   0  0  0  0  0  0  0  0  0  0  0  0
  144.8321  136.4949  150.6953 H   0  0  0  0  0  0  0  0  0  0  0  0
  145.8625  134.1483  150.3059 H   0  0  0  0  0  0  0  0  0  0  0  0
  144.6799  133.5499  151.4502 H   0  0  0  0  0  0  0  0  0  0  0  0
  144.2878  134.5875  148.9116 H   0  0  0  0  0  0  0  0  0  0  0  0
  146.7698  135.6060  155.5843 H   0  0  0  0  0  0  0  0  0  0  0  0
  145.8661  137.0191  156.1030 H   0  0  0  0  0  0  0  0  0  0  0  0
  147.6095  136.9518  156.3116 H   0  0  0  0  0  0  0  0  0  0  0  0
  151.3425  138.7840  153.7121 H   0  0  0  0  0  0  0  0  0  0  0  0
  146.7916  136.0328  151.8255 H   0  0  0  0  0  0  0  0  0  0  0  0
  1  2  1  0  0  0  0
  1 31  1  0  0  0  0
  1 32  1  0  0  0  0
  1 33  1  0  0  0  0
  2  6  1  0  0  0  0
  2  3  1  0  0  0  0
  2 34  1  0  0  0  0
  3  4  1  0  0  0  0
  4  5  1  0  0  0  0
  4 35  1  0  0  0  0
  4 36  1  0  0  0  0
  5  6  1  0  0  0  0
  5 37  1  0  0  0  0
  5 38  1  0  0  0  0
  6  7  1  0  0  0  0
  6  8  1  0  0  0  0
  7 39  1  0  0  0  0
  8  9  1  0  0  0  0
  8 40  1  0  0  0  0
  8 41  1  0  0  0  0
  9 28  1  0  0  0  0
  9 10  1  0  0  0  0
 10 11  2  0  0  0  0
 10 42  1  0  0  0  0
 11 12  1  0  0  0  0
 12 28  2  0  0  0  0
 12 13  1  0  0  0  0
 13 14  1  0  0  0  0
 13 25  2  0  0  0  0
 14 23  1  0  0  0  0
 14 15  1  0  0  0  0
 15 16  1  0  0  0  0
 15 43  1  0  0  0  0
 15 44  1  0  0  0  0
 16 17  1  0  0  0  0
 16 45  1  0  0  0  0
 16 46  1  0  0  0  0
 17 29  1  0  0  0  0
 17 18  1  0  0  0  0
 17 23  1  0  0  0  0
 18 19  1  0  0  0  0
 18 20  1  0  0  0  0
 18 59  1  0  0  0  0
 19 47  1  0  0  0  0
 19 48  1  0  0  0  0
 19 49  1  0  0  0  0
 20 21  1  0  0  0  0
 20 50  1  0  0  0  0
 20 51  1  0  0  0  0
 21 22  1  0  0  0  0
 21 52  1  0  0  0  0
 21 53  1  0  0  0  0
 22 54  1  0  0  0  0
 23 30  1  0  0  0  0
 23 24  1  0  0  0  0
 24 55  1  0  0  0  0
 24 56  1  0  0  0  0
 24 57  1  0  0  0  0
 25 26  1  0  0  0  0
 26 27  2  0  0  0  0
 26 58  1  0  0  0  0
 27 28  1  0  0  0  0
M  CHG  1  18   1
M  END
> <s_m_source_file>
AV-unprocessed.smi

> <i_m_source_file_index>
290

> <i_lp_mmshare_version>
43012

> <i_f3d_flags>
0

> <s_epik_input>
W0NIMl0xW0NIMl1PW0NAQEhdKFtDSDNdKVtDQEBdMShbT0hdKVtDSDJdbihbY0hdbjIpYyhjMjMpbltjSF1uYzNONFtDSDJdW0NIMl1bQ0BIXShbQ0BIXTRbQ0gzXSlOKFtDSDNdKVtDSDJdW0NIMl1bT0hd

> <s_epik_cmdline>
J2VwaWtfcHl0aG9uJywgJy1waCcsICc3LjAnLCAnLXRuJywgJzgnLCAnLW1hJywgJzIwMCcsICctbWV0YWxfYmluZGluZycsICctaW1hZScsICc8aW5maWxlLm1hZT4nLCAnLW9tYWUnLCAnPG91dGZpbGUubWFlPic=

> <r_lp_tautomer_probability>
1

> <r_epik_Ionization_Penalty>
0.0036983

> <r_epik_Ionization_Penalty_Charging>
0.0032725

> <r_epik_Ionization_Penalty_Neutral>
0.000425798

> <r_epik_State_Penalty>
-0

> <r_epik_Charging_Adjusted_Penalty>
0.0032725

> <i_epik_Tot_Q>
1

> <i_epik_Tot_abs_Q>
1

> <r_epik_Metal_State_Penalty>
-0

> <b_epik_Metal_Only>
0

> <s_lp_Force_Field>
OPLS_2005

> <r_lp_Energy>
66.0364

> <b_lp_Chiralities_Consistent>
1

> <s_lp_Variant>
AV-unprocessed.smi:290-19

> <Gold.Version>
5.8.1

> <Gold.Id.Protein>
6NUR|6NUR_protein|mol2

> <Gold.PLP.Fitness>
55.2816

> <Gold.PLP.PLP>
-45.4636

> <Gold.PLP.part.hbond>
-4.4046

> <Gold.PLP.part.metal>
0.0000

> <Gold.PLP.part.buried>
-3.6470

> <Gold.PLP.part.nonpolar>
-39.1098

> <Gold.PLP.part.repulsive>
0.5917

> <Gold.PLP.ligand.clash>
0.0000

> <Gold.PLP.ligand.torsion>
1.0326

> <Gold.PLP.Chemscore.Hbond>
3.3000

> <Gold.PLP.Chemscore.CHOScore>
0.5392

> <Gold.PLP.Chemscore.Metal>
0.0000

> <Gold.Chemscore.Hbonds>
donor molecule, donor type, donor heavy atom, donor atom, acceptor molecule, acceptor atom, score
      L1  H    18    59       P1  7948  1.30
      L1  H    22    54       P1  7921  0.45

> <Gold.PLP.Chemscore.Internal.Correction>
0.3654

> <Gold.Rescore>
     Score         DG    S(hbond)    S(metal)    S(lipo)     H(rot)  DE(clash)    DE(int)     intcor
     11.67     -14.15       1.97        0.00      98.15       3.67       1.59       0.89       ----

> <Gold.Chemscore.Fitness>
11.6738

> <Gold.Chemscore.DG>
-14.1532

> <Gold.Chemscore.ZeroCoef>
-5.4800

> <Gold.Chemscore.Hbond>
1.9684

> <Gold.Chemscore.Metal>
0.0000

> <Gold.Chemscore.Lipo>
98.1474

> <Gold.Chemscore.Internal_Hbond>
0.0000

> <Gold.Chemscore.DEClash>
1.5863

> <Gold.Chemscore.DEInternal>
0.8932

> <Gold.Chemscore.Rot>
3.6658

> <Gold.Chemscore.Internal.Correction>
   9.000000E+99

> <Gold.Chemscore.Hbonds>
donor molecule, donor type, donor heavy atom, donor atom, acceptor molecule, acceptor atom, score
      L1  H    18    59       P1  7948  0.62
      L1  H    22    54       P1  7921  0.43

> <Gold.Chemscore.Hbond.Weighted>
-6.5744

> <Gold.Chemscore.Metal.Weighted>
-0.0000

> <Gold.Chemscore.Lipo.Weighted>
-11.4832

> <Gold.Chemscore.Internal_Hbond.Weighted>
0.0000

> <Gold.Chemscore.DEClash.Weighted>
1.5863

> <Gold.Chemscore.DEInternal.Weighted>
0.8932

> <Gold.Chemscore.Rot.Weighted>
9.3844

> <Gold.Chemscore.Internal.Correction.Weighted>
   9.000000E+99

> <Gold.Protein.RotatedTorsions>
[ 6907 6896 6895 6894 ] final  -18.75 input  -60.11 | X-H torsion
[ 7974 7965 7964 7962 ] final  -68.66 input  175.53 | X-H torsion
[ 8008 7997 7996 7995 ] final    1.65 input   59.86 | X-H torsion
[ 10167 10162 10161 10158 ] final  172.30 input  -65.29 | X-H torsion
[ 10718 10713 10712 10709 ] final -149.44 input   66.30 | X-H torsion
[ 10763 10752 10751 10750 ] final -165.10 input  -60.55 | X-H torsion
[ 11005 11000 10999 10996 ] final -102.84 input  -57.11 | X-H torsion

> <Gold.Protein.ActiveResidues>
 VAL166  LYS551  ARG553  GLY616  TRP617  ASP618  TYR619  PRO620  LYS621  CYS622 
 ASP623  PHE694  ASN695  SER759  ASP760  ASP761  ALA762  ILE779  LEU786  VAL792 
 PHE793  MET794  SER795  GLU796  ALA797  LYS798  CYS799  TRP800  GLU811  SER814 

> <Gold.Protein.RotatedAtoms>
  151.2735  135.0692  159.9142 H   0  0  0  0  0  0  0  0  0  0  0  0  # atno 6907 bound_to 6896
  152.5346  134.0106  159.7947 H   0  0  0  0  0  0  0  0  0  0  0  0  # atno 6908 bound_to 6896
  151.0348  133.5708  159.2688 H   0  0  0  0  0  0  0  0  0  0  0  0  # atno 6909 bound_to 6896
  145.7136  140.9068  143.0667 H   0  0  0  0  0  0  0  0  0  0  0  0  # atno 7974 bound_to 7965
  154.6822  140.2635  155.6897 H   0  0  0  0  0  0  0  0  0  0  0  0  # atno 8008 bound_to 7997
  156.2701  140.2808  156.1293 H   0  0  0  0  0  0  0  0  0  0  0  0  # atno 8009 bound_to 7997
  155.1015  140.0374  157.2688 H   0  0  0  0  0  0  0  0  0  0  0  0  # atno 8010 bound_to 7997
  139.5072  144.3389  152.0038 H   0  0  0  0  0  0  0  0  0  0  0  0  # atno 10167 bound_to 10162
  156.4331  130.8085  151.2313 H   0  0  0  0  0  0  0  0  0  0  0  0  # atno 10718 bound_to 10713
  154.6965  135.2980  154.9404 H   0  0  0  0  0  0  0  0  0  0  0  0  # atno 10763 bound_to 10752
  154.0350  135.6665  153.4788 H   0  0  0  0  0  0  0  0  0  0  0  0  # atno 10764 bound_to 10752
  153.0649  135.5094  154.8085 H   0  0  0  0  0  0  0  0  0  0  0  0  # atno 10765 bound_to 10752
  141.1172  133.8591  157.1411 H   0  0  0  0  0  0  0  0  0  0  0  0  # atno 11005 bound_to 11000
  144.6935  139.9108  143.7463 LP  0  0  0  0  0  0  0  0  0  0  0  0  # atno 17320 bound_to 7965
  146.0690  139.3679  143.0535 LP  0  0  0  0  0  0  0  0  0  0  0  0  # atno 17321 bound_to 7965
  140.2827  144.3841  150.6114 LP  0  0  0  0  0  0  0  0  0  0  0  0  # atno 17342 bound_to 10162
  140.6006  143.2167  151.7080 LP  0  0  0  0  0  0  0  0  0  0  0  0  # atno 17343 bound_to 10162
  157.7508  131.0192  150.3657 LP  0  0  0  0  0  0  0  0  0  0  0  0  # atno 17370 bound_to 10713
  156.3998  130.3913  149.6968 LP  0  0  0  0  0  0  0  0  0  0  0  0  # atno 17371 bound_to 10713
  140.0102  134.9991  157.0378 LP  0  0  0  0  0  0  0  0  0  0  0  0  # atno 17394 bound_to 11000
  140.4613  134.1481  155.7191 LP  0  0  0  0  0  0  0  0  0  0  0  0  # atno 17395 bound_to 11000

$$$$
