AV-unprocessed.smi:1775|AV-procd|sdf|7171|dock2
  -GOLD-   22720 8413D 1   1.00000     0.00000
 Structure written by MMmdl.
 38 40  0  0  0  0  0  0  0  0  1 V2000
  150.8183  135.7576  156.0518 O   0  0  0  0  0  0  0  0  0  0  0  0
  150.2283  135.8886  154.9797 C   0  0  0  0  0  0  0  0  0  0  0  0
  149.8663  134.8875  154.1567 N   0  0  0  0  0  0  0  0  0  0  0  0
  150.0188  133.5018  154.3282 C   0  0  0  0  0  0  0  0  0  0  0  0
  150.9527  132.9185  155.1241 C   0  0  0  0  0  0  0  0  0  0  0  0
  151.0498  131.4759  155.2696 C   0  0  0  0  0  0  0  0  0  0  0  0
  152.1504  130.8340  156.1000 C   0  0  0  0  0  0  0  0  0  0  0  0
  151.6447  130.0591  157.0604 F   0  0  0  0  0  0  0  0  0  0  0  0
  152.9496  130.0879  155.3373 F   0  0  0  0  0  0  0  0  0  0  0  0
  152.8920  131.7791  156.6760 F   0  0  0  0  0  0  0  0  0  0  0  0
  150.1687  130.7410  154.5657 C   0  0  0  0  0  0  0  0  0  0  0  0
  149.1908  131.3337  153.7636 N   0  0  0  0  0  0  0  0  0  0  0  0
  149.0499  132.6681  153.5978 C   0  0  0  0  0  0  0  0  0  0  0  0
  148.1591  133.1133  152.8749 O   0  0  0  0  0  0  0  0  0  0  0  0
  149.8768  137.0773  154.4659 N   0  0  0  0  0  0  0  0  0  0  0  0
  150.1186  138.3926  155.0559 C   0  0  0  0  0  0  0  0  0  0  0  0
  149.6712  139.5506  154.1762 C   0  0  0  0  0  0  0  0  0  0  0  0
  149.3382  140.8995  154.7678 C   0  0  0  0  0  0  0  0  0  0  0  0
  148.2411  140.0343  154.1889 C   0  0  0  0  0  0  0  0  0  0  0  0
  151.5465  138.5977  155.5407 C   0  0  0  0  0  0  0  0  0  0  0  0
  152.1492  139.9790  155.6274 C   0  0  0  0  0  0  0  0  0  0  0  0
  152.6486  138.9987  154.5892 C   0  0  0  0  0  0  0  0  0  0  0  0
  148.5561  130.7142  153.2805 H   0  0  0  0  0  0  0  0  0  0  0  0
  149.4634  135.1582  153.2712 H   0  0  0  0  0  0  0  0  0  0  0  0
  151.6439  133.5154  155.6967 H   0  0  0  0  0  0  0  0  0  0  0  0
  150.1460  129.6610  154.5575 H   0  0  0  0  0  0  0  0  0  0  0  0
  149.3985  137.0735  153.5768 H   0  0  0  0  0  0  0  0  0  0  0  0
  149.4825  138.4103  155.9422 H   0  0  0  0  0  0  0  0  0  0  0  0
  150.1675  139.5800  153.2077 H   0  0  0  0  0  0  0  0  0  0  0  0
  149.3712  141.0053  155.8504 H   0  0  0  0  0  0  0  0  0  0  0  0
  149.6358  141.7813  154.2040 H   0  0  0  0  0  0  0  0  0  0  0  0
  147.8066  140.3385  153.2389 H   0  0  0  0  0  0  0  0  0  0  0  0
  147.5522  139.5626  154.8871 H   0  0  0  0  0  0  0  0  0  0  0  0
  151.8456  137.9040  156.3245 H   0  0  0  0  0  0  0  0  0  0  0  0
  151.5488  140.8171  155.2788 H   0  0  0  0  0  0  0  0  0  0  0  0
  152.7965  140.1899  156.4762 H   0  0  0  0  0  0  0  0  0  0  0  0
  153.6307  138.5568  154.7451 H   0  0  0  0  0  0  0  0  0  0  0  0
  152.3836  139.1918  153.5515 H   0  0  0  0  0  0  0  0  0  0  0  0
  1  2  2  0  0  0  0
  2  3  1  0  0  0  0
  2 15  1  0  0  0  0
  3  4  1  0  0  0  0
  3 24  1  0  0  0  0
  4 13  1  0  0  0  0
  4  5  2  0  0  0  0
  5  6  1  0  0  0  0
  5 25  1  0  0  0  0
  6  7  1  0  0  0  0
  6 11  2  0  0  0  0
  7  8  1  0  0  0  0
  7  9  1  0  0  0  0
  7 10  1  0  0  0  0
 11 12  1  0  0  0  0
 11 26  1  0  0  0  0
 12 23  1  0  0  0  0
 12 13  1  0  0  0  0
 13 14  2  0  0  0  0
 15 16  1  0  0  0  0
 15 27  1  0  0  0  0
 16 17  1  0  0  0  0
 16 20  1  0  0  0  0
 16 28  1  0  0  0  0
 17 19  1  0  0  0  0
 17 18  1  0  0  0  0
 17 29  1  0  0  0  0
 18 19  1  0  0  0  0
 18 30  1  0  0  0  0
 18 31  1  0  0  0  0
 19 32  1  0  0  0  0
 19 33  1  0  0  0  0
 20 22  1  0  0  0  0
 20 21  1  0  0  0  0
 20 34  1  0  0  0  0
 21 22  1  0  0  0  0
 21 35  1  0  0  0  0
 21 36  1  0  0  0  0
 22 37  1  0  0  0  0
 22 38  1  0  0  0  0
M  END
> <s_m_source_file>
AV-unprocessed.smi

> <i_m_source_file_index>
1775

> <i_lp_mmshare_version>
43012

> <i_f3d_flags>
0

> <s_epik_input>
W0NIMl0xW0NIMl1bQ0hdMVtDSF0oW0NIXTJbQ0gyXVtDSDJdMilbTkhdQyg9TylbTkhdYzNbY0hdYyhDKEYpKEYpRilbY0hdW25IXWMzPU8=

> <s_epik_cmdline>
J2VwaWtfcHl0aG9uJywgJy1waCcsICc3LjAnLCAnLXRuJywgJzgnLCAnLW1hJywgJzIwMCcsICctbWV0YWxfYmluZGluZycsICctaW1hZScsICc8aW5maWxlLm1hZT4nLCAnLW9tYWUnLCAnPG91dGZpbGUubWFlPic=

> <r_lp_tautomer_probability>
1

> <r_epik_Ionization_Penalty>
0.00370881

> <r_epik_Ionization_Penalty_Charging>
0.00368697

> <r_epik_Ionization_Penalty_Neutral>
2.18468e-05

> <r_epik_State_Penalty>
-0

> <r_epik_Charging_Adjusted_Penalty>
0.00368697

> <i_epik_Tot_Q>
0

> <i_epik_Tot_abs_Q>
0

> <r_epik_Metal_State_Penalty>
0.370005

> <b_epik_Metal_Only>
0

> <s_lp_Force_Field>
OPLS_2005

> <r_lp_Energy>
35.723

> <b_lp_Chiralities_Consistent>
1

> <s_lp_Variant>
AV-unprocessed.smi:1775-1

> <Gold.Version>
5.8.1

> <Gold.Id.Protein>
6NUR|6NUR_protein|mol2

> <Gold.PLP.Fitness>
42.2525

> <Gold.PLP.PLP>
-37.8589

> <Gold.PLP.part.hbond>
-2.1619

> <Gold.PLP.part.metal>
0.0000

> <Gold.PLP.part.buried>
-0.6620

> <Gold.PLP.part.nonpolar>
-33.0087

> <Gold.PLP.part.repulsive>
0.2882

> <Gold.PLP.ligand.clash>
0.6273

> <Gold.PLP.ligand.torsion>
1.3106

> <Gold.PLP.Chemscore.Hbond>
1.7500

> <Gold.PLP.Chemscore.CHOScore>
0.0000

> <Gold.PLP.Chemscore.Metal>
0.0000

> <Gold.Chemscore.Hbonds>
donor molecule, donor type, donor heavy atom, donor atom, acceptor molecule, acceptor atom, score
      L1  H     3    24       P1  7948  0.50
      L1  H    15    27       P1  7948  1.00

> <Gold.PLP.Chemscore.Internal.Correction>
2.3921

> <Gold.Rescore>
     Score         DG    S(hbond)    S(metal)    S(lipo)     H(rot)  DE(clash)    DE(int)     intcor
     10.13     -13.42       0.93        0.00      74.36       1.51       0.02       3.27       ----

> <Gold.Chemscore.Fitness>
10.1271

> <Gold.Chemscore.DG>
-13.4213

> <Gold.Chemscore.ZeroCoef>
-5.4800

> <Gold.Chemscore.Hbond>
0.9268

> <Gold.Chemscore.Metal>
0.0000

> <Gold.Chemscore.Lipo>
74.3595

> <Gold.Chemscore.Internal_Hbond>
0.0000

> <Gold.Chemscore.DEClash>
0.0243

> <Gold.Chemscore.DEInternal>
3.2698

> <Gold.Chemscore.Rot>
1.5056

> <Gold.Chemscore.Internal.Correction>
   9.000000E+99

> <Gold.Chemscore.Hbonds>
donor molecule, donor type, donor heavy atom, donor atom, acceptor molecule, acceptor atom, score
      L1  H     3    24       P1  7948  0.02
      L1  H    15    27       P1  7948  0.89

> <Gold.Chemscore.Hbond.Weighted>
-3.0954

> <Gold.Chemscore.Metal.Weighted>
-0.0000

> <Gold.Chemscore.Lipo.Weighted>
-8.7001

> <Gold.Chemscore.Internal_Hbond.Weighted>
0.0000

> <Gold.Chemscore.DEClash.Weighted>
0.0243

> <Gold.Chemscore.DEInternal.Weighted>
3.2698

> <Gold.Chemscore.Rot.Weighted>
3.8542

> <Gold.Chemscore.Internal.Correction.Weighted>
   9.000000E+99

> <Gold.Protein.RotatedTorsions>
[ 6907 6896 6895 6894 ] final   60.23 input  -60.11 | X-H torsion
[ 7974 7965 7964 7962 ] final -150.76 input  175.53 | X-H torsion
[ 8008 7997 7996 7995 ] final  -91.27 input   59.86 | X-H torsion
[ 10167 10162 10161 10158 ] final  100.84 input  -65.29 | X-H torsion
[ 10718 10713 10712 10709 ] final    2.90 input   66.30 | X-H torsion
[ 10763 10752 10751 10750 ] final   65.65 input  -60.55 | X-H torsion
[ 11005 11000 10999 10996 ] final  124.22 input  -57.11 | X-H torsion

> <Gold.Protein.ActiveResidues>
 VAL166  LYS551  ARG553  GLY616  TRP617  ASP618  TYR619  PRO620  LYS621  CYS622 
 ASP623  PHE694  ASN695  SER759  ASP760  ASP761  ALA762  ILE779  LEU786  VAL792 
 PHE793  MET794  SER795  GLU796  ALA797  LYS798  CYS799  TRP800  GLU811  SER814 

> <Gold.Protein.RotatedAtoms>
  152.3984  134.6327  160.0079 H   0  0  0  0  0  0  0  0  0  0  0  0  # atno 6907 bound_to 6896
  151.6539  133.3314  159.3166 H   0  0  0  0  0  0  0  0  0  0  0  0  # atno 6908 bound_to 6896
  150.7888  134.6938  159.6556 H   0  0  0  0  0  0  0  0  0  0  0  0  # atno 6909 bound_to 6896
  144.7889  140.4889  143.5787 H   0  0  0  0  0  0  0  0  0  0  0  0  # atno 7974 bound_to 7965
  154.7086  140.0521  157.0528 H   0  0  0  0  0  0  0  0  0  0  0  0  # atno 8008 bound_to 7997
  155.0585  140.3187  155.4649 H   0  0  0  0  0  0  0  0  0  0  0  0  # atno 8009 bound_to 7997
  156.2782  140.2103  156.5712 H   0  0  0  0  0  0  0  0  0  0  0  0  # atno 8010 bound_to 7997
  139.7491  144.6989  151.0459 H   0  0  0  0  0  0  0  0  0  0  0  0  # atno 10167 bound_to 10162
  156.8699  130.5616  149.5658 H   0  0  0  0  0  0  0  0  0  0  0  0  # atno 10718 bound_to 10713
  153.0105  135.5349  154.6701 H   0  0  0  0  0  0  0  0  0  0  0  0  # atno 10763 bound_to 10752
  154.5887  135.2857  155.0660 H   0  0  0  0  0  0  0  0  0  0  0  0  # atno 10764 bound_to 10752
  154.1761  135.6524  153.5074 H   0  0  0  0  0  0  0  0  0  0  0  0  # atno 10765 bound_to 10752
  139.9348  134.9640  156.8377 H   0  0  0  0  0  0  0  0  0  0  0  0  # atno 11005 bound_to 11000
  145.5847  139.1491  143.3215 LP  0  0  0  0  0  0  0  0  0  0  0  0  # atno 17320 bound_to 7965
  146.2133  140.5976  142.9050 LP  0  0  0  0  0  0  0  0  0  0  0  0  # atno 17321 bound_to 7965
  140.7795  143.4831  150.9992 LP  0  0  0  0  0  0  0  0  0  0  0  0  # atno 17342 bound_to 10162
  139.8519  143.7428  152.3177 LP  0  0  0  0  0  0  0  0  0  0  0  0  # atno 17343 bound_to 10162
  156.0732  130.5760  150.9423 LP  0  0  0  0  0  0  0  0  0  0  0  0  # atno 17370 bound_to 10713
  157.6202  131.0930  150.8637 LP  0  0  0  0  0  0  0  0  0  0  0  0  # atno 17371 bound_to 10713
  140.6104  134.0088  155.7574 LP  0  0  0  0  0  0  0  0  0  0  0  0  # atno 17394 bound_to 11000
  141.0957  133.9847  157.3164 LP  0  0  0  0  0  0  0  0  0  0  0  0  # atno 17395 bound_to 11000

$$$$
