AV-unprocessed.smi:672|AV-procd|sdf|3289|dock8
  -GOLD-   22720 0253D 1   1.00000     0.00000
 Structure written by MMmdl.
 36 37  0  0  0  0  0  0  0  0  1 V2000
  142.1167  147.5928  162.3616 C   0  0  0  0  0  0  0  0  0  0  0  0
  143.2406  148.5048  161.8583 C   0  0  0  0  0  0  0  0  0  0  0  0
  144.5231  147.7715  161.6479 C   0  0  0  0  0  0  0  0  0  0  0  0
  145.0936  147.0231  162.6001 N   0  0  0  0  0  0  0  0  0  0  0  0
  146.2631  146.4169  162.1628 N   0  0  0  0  0  0  0  0  0  0  0  0
  146.5321  146.7146  160.8842 C   0  0  0  0  0  0  0  0  0  0  0  0
  147.6655  146.2273  160.1815 N   0  0  0  0  0  0  0  0  0  0  0  0
  148.7651  145.6358  160.6802 C   0  0  0  0  0  0  0  0  0  0  0  0
  148.9726  145.4047  161.8716 O   0  0  0  0  0  0  0  0  0  0  0  0
  149.6296  145.3210  159.7049 N   0  0  0  0  0  0  0  0  0  0  0  0
  150.9163  144.6591  159.9048 C   0  0  2  0  0  0  0  0  0  0  0  0
  152.0109  145.2496  158.9941 C   0  0  0  0  0  0  0  0  0  0  0  0
  152.3636  144.1527  157.9873 C   0  0  0  0  0  0  0  0  0  0  0  0
  152.0658  142.8390  158.7101 C   0  0  1  0  0  0  0  0  0  0  0  0
  153.4704  142.3273  159.7476 S   0  0  0  0  0  0  0  0  0  0  0  0
  152.7342  140.9224  160.6257 C   0  0  0  0  0  0  0  0  0  0  0  0
  150.8240  143.1634  159.5491 C   0  0  0  0  0  0  0  0  0  0  0  0
  145.3676  147.7708  160.1041 S   0  0  0  0  0  0  0  0  0  0  0  0
  141.1936  148.1553  162.5029 H   0  0  0  0  0  0  0  0  0  0  0  0
  142.3790  147.1365  163.3165 H   0  0  0  0  0  0  0  0  0  0  0  0
  141.9133  146.7910  161.6511 H   0  0  0  0  0  0  0  0  0  0  0  0
  142.9465  148.9717  160.9180 H   0  0  0  0  0  0  0  0  0  0  0  0
  143.4088  149.3147  162.5693 H   0  0  0  0  0  0  0  0  0  0  0  0
  147.6367  146.3467  159.1798 H   0  0  0  0  0  0  0  0  0  0  0  0
  149.3792  145.5496  158.7542 H   0  0  0  0  0  0  0  0  0  0  0  0
  151.2224  144.7604  160.9478 H   0  0  0  0  0  0  0  0  0  0  0  0
  151.7116  146.1728  158.4956 H   0  0  0  0  0  0  0  0  0  0  0  0
  152.8898  145.4849  159.5957 H   0  0  0  0  0  0  0  0  0  0  0  0
  151.7116  144.2409  157.1173 H   0  0  0  0  0  0  0  0  0  0  0  0
  153.3922  144.2228  157.6321 H   0  0  0  0  0  0  0  0  0  0  0  0
  151.8671  142.0423  157.9925 H   0  0  0  0  0  0  0  0  0  0  0  0
  153.4668  140.4762  161.2980 H   0  0  0  0  0  0  0  0  0  0  0  0
  152.4069  140.1606  159.9183 H   0  0  0  0  0  0  0  0  0  0  0  0
  151.8758  141.2404  161.2167 H   0  0  0  0  0  0  0  0  0  0  0  0
  150.7315  142.5372  160.4363 H   0  0  0  0  0  0  0  0  0  0  0  0
  149.9386  142.9745  158.9396 H   0  0  0  0  0  0  0  0  0  0  0  0
  1  2  1  0  0  0  0
  1 19  1  0  0  0  0
  1 20  1  0  0  0  0
  1 21  1  0  0  0  0
  2  3  1  0  0  0  0
  2 22  1  0  0  0  0
  2 23  1  0  0  0  0
  3 18  1  0  0  0  0
  3  4  2  0  0  0  0
  4  5  1  0  0  0  0
  5  6  2  0  0  0  0
  6  7  1  0  0  0  0
  6 18  1  0  0  0  0
  7  8  1  0  0  0  0
  7 24  1  0  0  0  0
  8  9  2  0  0  0  0
  8 10  1  0  0  0  0
 10 11  1  0  0  0  0
 10 25  1  0  0  0  0
 11 17  1  0  0  0  0
 11 12  1  0  0  0  0
 11 26  1  0  0  0  0
 12 13  1  0  0  0  0
 12 27  1  0  0  0  0
 12 28  1  0  0  0  0
 13 14  1  0  0  0  0
 13 29  1  0  0  0  0
 13 30  1  0  0  0  0
 14 15  1  0  0  0  0
 14 17  1  0  0  0  0
 14 31  1  0  0  0  0
 15 16  1  0  0  0  0
 16 32  1  0  0  0  0
 16 33  1  0  0  0  0
 16 34  1  0  0  0  0
 17 35  1  0  0  0  0
 17 36  1  0  0  0  0
M  END
> <s_m_source_file>
AV-unprocessed.smi

> <i_m_source_file_index>
672

> <i_lp_mmshare_version>
43012

> <i_f3d_flags>
0

> <s_epik_input>
W0NIM11bQ0gyXWMxbm5jKHMxKVtOSF1DKD1PKVtOSF1bQ0BASF0yW0NIMl1bQ0gyXVtDQEhdKFtDSDJdMilTW0NIM10=

> <s_epik_cmdline>
J2VwaWtfcHl0aG9uJywgJy1waCcsICc3LjAnLCAnLXRuJywgJzgnLCAnLW1hJywgJzIwMCcsICctbWV0YWxfYmluZGluZycsICctaW1hZScsICc8aW5maWxlLm1hZT4nLCAnLW9tYWUnLCAnPG91dGZpbGUubWFlPic=

> <r_lp_tautomer_probability>
1

> <r_epik_Ionization_Penalty>
0.000422169

> <r_epik_Ionization_Penalty_Charging>
0

> <r_epik_Ionization_Penalty_Neutral>
0.000422169

> <r_epik_State_Penalty>
-0

> <r_epik_Charging_Adjusted_Penalty>
0

> <i_epik_Tot_Q>
0

> <i_epik_Tot_abs_Q>
0

> <r_epik_Metal_State_Penalty>
0.200061

> <b_epik_Metal_Only>
0

> <s_lp_Force_Field>
OPLS_2005

> <r_lp_Energy>
12.7649

> <b_lp_Chiralities_Consistent>
1

> <s_lp_Variant>
AV-unprocessed.smi:672-1

> <Gold.Version>
5.8.1

> <Gold.Id.Protein>
6NUR|6NUR_protein|mol2

> <Gold.PLP.Fitness>
42.5856

> <Gold.PLP.PLP>
-34.6980

> <Gold.PLP.part.hbond>
-3.0000

> <Gold.PLP.part.metal>
0.0000

> <Gold.PLP.part.buried>
-5.3235

> <Gold.PLP.part.nonpolar>
-27.1081

> <Gold.PLP.part.repulsive>
0.6149

> <Gold.PLP.ligand.clash>
0.0000

> <Gold.PLP.ligand.torsion>
0.3613

> <Gold.PLP.Chemscore.Hbond>
2.8640

> <Gold.PLP.Chemscore.CHOScore>
0.0000

> <Gold.PLP.Chemscore.Metal>
0.0000

> <Gold.Chemscore.Hbonds>
donor molecule, donor type, donor heavy atom, donor atom, acceptor molecule, acceptor atom, score
      L1  H     7    24       P1  8029  1.00
      L1  H    10    25       P1  8029  0.78

> <Gold.PLP.Chemscore.Internal.Correction>
0.0181

> <Gold.Rescore>
     Score         DG    S(hbond)    S(metal)    S(lipo)     H(rot)  DE(clash)    DE(int)     intcor
     21.25     -22.80       2.79        0.00      98.30       1.37       0.10       1.45       ----

> <Gold.Chemscore.Fitness>
21.2544

> <Gold.Chemscore.DG>
-22.8017

> <Gold.Chemscore.ZeroCoef>
-5.4800

> <Gold.Chemscore.Hbond>
2.7903

> <Gold.Chemscore.Metal>
0.0000

> <Gold.Chemscore.Lipo>
98.3012

> <Gold.Chemscore.Internal_Hbond>
0.0000

> <Gold.Chemscore.DEClash>
0.0997

> <Gold.Chemscore.DEInternal>
1.4476

> <Gold.Chemscore.Rot>
1.3669

> <Gold.Chemscore.Internal.Correction>
   9.000000E+99

> <Gold.Chemscore.Hbonds>
donor molecule, donor type, donor heavy atom, donor atom, acceptor molecule, acceptor atom, score
      L1  H     7    24       P1  8029  0.99
      L1  H    10    25       P1  8029  0.72

> <Gold.Chemscore.Hbond.Weighted>
-9.3197

> <Gold.Chemscore.Metal.Weighted>
-0.0000

> <Gold.Chemscore.Lipo.Weighted>
-11.5012

> <Gold.Chemscore.Internal_Hbond.Weighted>
0.0000

> <Gold.Chemscore.DEClash.Weighted>
0.0997

> <Gold.Chemscore.DEInternal.Weighted>
1.4476

> <Gold.Chemscore.Rot.Weighted>
3.4992

> <Gold.Chemscore.Internal.Correction.Weighted>
   9.000000E+99

> <Gold.Protein.RotatedTorsions>
[ 6907 6896 6895 6894 ] final   28.92 input  -60.11 | X-H torsion
[ 7974 7965 7964 7962 ] final   87.16 input  175.53 | X-H torsion
[ 8008 7997 7996 7995 ] final   67.89 input   59.86 | X-H torsion
[ 10167 10162 10161 10158 ] final   17.21 input  -65.29 | X-H torsion
[ 10718 10713 10712 10709 ] final -140.37 input   66.30 | X-H torsion
[ 10763 10752 10751 10750 ] final  -82.00 input  -60.55 | X-H torsion
[ 11005 11000 10999 10996 ] final -110.29 input  -57.11 | X-H torsion

> <Gold.Protein.ActiveResidues>
 VAL166  LYS551  ARG553  GLY616  TRP617  ASP618  TYR619  PRO620  LYS621  CYS622 
 ASP623  PHE694  ASN695  SER759  ASP760  ASP761  ALA762  ILE779  LEU786  VAL792 
 PHE793  MET794  SER795  GLU796  ALA797  LYS798  CYS799  TRP800  GLU811  SER814 

> <Gold.Protein.RotatedAtoms>
  152.0240  134.9806  160.0570 H   0  0  0  0  0  0  0  0  0  0  0  0  # atno 6907 bound_to 6896
  152.1309  133.4402  159.4728 H   0  0  0  0  0  0  0  0  0  0  0  0  # atno 6908 bound_to 6896
  150.6856  134.2340  159.4489 H   0  0  0  0  0  0  0  0  0  0  0  0  # atno 6909 bound_to 6896
  145.5626  139.2305  143.2451 H   0  0  0  0  0  0  0  0  0  0  0  0  # atno 7974 bound_to 7965
  155.6999  140.3495  155.4929 H   0  0  0  0  0  0  0  0  0  0  0  0  # atno 8008 bound_to 7997
  155.9449  140.1108  157.1047 H   0  0  0  0  0  0  0  0  0  0  0  0  # atno 8009 bound_to 7997
  154.4110  140.1205  156.4963 H   0  0  0  0  0  0  0  0  0  0  0  0  # atno 8010 bound_to 7997
  140.5742  143.9103  150.6737 H   0  0  0  0  0  0  0  0  0  0  0  0  # atno 10167 bound_to 10162
  156.3215  130.7537  151.1636 H   0  0  0  0  0  0  0  0  0  0  0  0  # atno 10718 bound_to 10713
  154.5704  135.5607  153.7089 H   0  0  0  0  0  0  0  0  0  0  0  0  # atno 10763 bound_to 10752
  153.0046  135.6295  154.2122 H   0  0  0  0  0  0  0  0  0  0  0  0  # atno 10764 bound_to 10752
  154.2062  135.2875  155.2954 H   0  0  0  0  0  0  0  0  0  0  0  0  # atno 10765 bound_to 10752
  141.0800  133.9236  157.2309 H   0  0  0  0  0  0  0  0  0  0  0  0  # atno 11005 bound_to 11000
  146.1840  140.6451  142.9176 LP  0  0  0  0  0  0  0  0  0  0  0  0  # atno 17320 bound_to 7965
  144.7475  140.5107  143.6825 LP  0  0  0  0  0  0  0  0  0  0  0  0  # atno 17321 bound_to 7965
  140.2586  143.3540  152.1342 LP  0  0  0  0  0  0  0  0  0  0  0  0  # atno 17342 bound_to 10162
  139.5134  144.6931  151.5704 LP  0  0  0  0  0  0  0  0  0  0  0  0  # atno 17343 bound_to 10162
  157.7413  131.0506  150.5108 LP  0  0  0  0  0  0  0  0  0  0  0  0  # atno 17370 bound_to 10713
  156.5261  130.4173  149.6225 LP  0  0  0  0  0  0  0  0  0  0  0  0  # atno 17371 bound_to 10713
  139.9613  135.0153  156.9269 LP  0  0  0  0  0  0  0  0  0  0  0  0  # atno 17394 bound_to 11000
  140.5490  134.0646  155.7363 LP  0  0  0  0  0  0  0  0  0  0  0  0  # atno 17395 bound_to 11000

$$$$
