AV-unprocessed.smi:35|AV-procd|sdf|256|dock4
  -GOLD-   2262016 23D 1   1.00000     0.00000
 Structure written by MMmdl.
 29 30  0  0  0  0  0  0  0  0  1 V2000
  153.1391  142.0563  159.7049 O   0  0  0  0  0  0  0  0  0  0  0  0
  152.3146  141.7493  158.8467 C   0  0  0  0  0  0  0  0  0  0  0  0
  151.8758  140.4284  158.7292 N   0  0  0  0  0  0  0  0  0  0  0  0
  150.9538  139.9594  157.7914 C   0  0  0  0  0  0  0  0  0  0  0  0
  150.6075  138.7794  157.8162 O   0  0  0  0  0  0  0  0  0  0  0  0
  150.4515  140.8885  156.8493 N   0  0  0  0  0  0  0  0  0  0  0  0
  149.4151  140.4239  155.8369 C   0  0  1  0  0  0  0  0  0  0  0  0
  148.2030  140.1732  156.4934 O   0  0  0  0  0  0  0  0  0  0  0  0
  147.2493  141.2075  156.2562 C   0  0  1  0  0  0  0  0  0  0  0  0
  147.3916  142.3432  157.2969 C   0  0  0  0  0  0  0  0  0  0  0  0
  146.9181  141.9069  158.5531 O   0  0  0  0  0  0  0  0  0  0  0  0
  147.5885  141.5990  154.8141 C   0  0  1  0  0  0  0  0  0  0  0  0
  147.1376  142.8938  154.4666 O   0  0  0  0  0  0  0  0  0  0  0  0
  149.1074  141.4960  154.7619 C   0  0  2  0  0  0  0  0  0  0  0  0
  149.5047  141.0822  153.4692 O   0  0  0  0  0  0  0  0  0  0  0  0
  150.8133  142.2269  156.9739 C   0  0  0  0  0  0  0  0  0  0  0  0
  151.7011  142.6678  157.8955 C   0  0  0  0  0  0  0  0  0  0  0  0
  152.0924  144.6098  157.8887 Br  0  0  0  0  0  0  0  0  0  0  0  0
  152.2474  139.7590  159.3876 H   0  0  0  0  0  0  0  0  0  0  0  0
  149.8173  139.4892  155.4416 H   0  0  0  0  0  0  0  0  0  0  0  0
  146.2381  140.8007  156.3023 H   0  0  0  0  0  0  0  0  0  0  0  0
  148.4120  142.7141  157.3788 H   0  0  0  0  0  0  0  0  0  0  0  0
  146.7730  143.1959  157.0182 H   0  0  0  0  0  0  0  0  0  0  0  0
  147.6612  141.6932  159.0966 H   0  0  0  0  0  0  0  0  0  0  0  0
  147.1357  140.8688  154.1408 H   0  0  0  0  0  0  0  0  0  0  0  0
  147.7549  143.5243  154.8055 H   0  0  0  0  0  0  0  0  0  0  0  0
  149.5671  142.4485  155.0309 H   0  0  0  0  0  0  0  0  0  0  0  0
  148.8258  140.5289  153.1126 H   0  0  0  0  0  0  0  0  0  0  0  0
  150.3818  142.9700  156.3210 H   0  0  0  0  0  0  0  0  0  0  0  0
  1  2  2  0  0  0  0
  2 17  1  0  0  0  0
  2  3  1  0  0  0  0
  3 19  1  0  0  0  0
  3  4  1  0  0  0  0
  4  5  2  0  0  0  0
  4  6  1  0  0  0  0
  6  7  1  0  0  0  0
  6 16  1  0  0  0  0
  7 14  1  0  0  0  0
  7  8  1  0  0  0  0
  7 20  1  0  0  0  0
  8  9  1  0  0  0  0
  9 10  1  0  0  0  0
  9 12  1  0  0  0  0
  9 21  1  0  0  0  0
 10 11  1  0  0  0  0
 10 22  1  0  0  0  0
 10 23  1  0  0  0  0
 11 24  1  0  0  0  0
 12 13  1  0  0  0  0
 12 14  1  0  0  0  0
 12 25  1  0  0  0  0
 13 26  1  0  0  0  0
 14 15  1  0  0  0  0
 14 27  1  0  0  0  0
 15 28  1  0  0  0  0
 16 17  2  0  0  0  0
 16 29  1  0  0  0  0
 17 18  1  0  0  0  0
M  END
> <s_m_source_file>
AV-unprocessed.smi

> <i_m_source_file_index>
35

> <i_lp_mmshare_version>
43012

> <i_f3d_flags>
0

> <s_epik_input>
Tz1jMVtuSF1jKD1PKW4oW2NIXWMxQnIpW0NAQEhdMk9bQ0BASF0oW0NIMl1bT0hdKVtDQEBIXShbT0hdKVtDQEhdMltPSF0=

> <s_epik_cmdline>
J2VwaWtfcHl0aG9uJywgJy1waCcsICc3LjAnLCAnLXRuJywgJzgnLCAnLW1hJywgJzIwMCcsICctbWV0YWxfYmluZGluZycsICctaW1hZScsICc8aW5maWxlLm1hZT4nLCAnLW9tYWUnLCAnPG91dGZpbGUubWFlPic=

> <r_lp_tautomer_probability>
0.999537

> <r_epik_Ionization_Penalty>
0.10812

> <r_epik_Ionization_Penalty_Charging>
0.108119

> <r_epik_Ionization_Penalty_Neutral>
4.93006e-07

> <r_epik_State_Penalty>
0.0979238

> <r_epik_Charging_Adjusted_Penalty>
0.206043

> <i_epik_Tot_Q>
0

> <i_epik_Tot_abs_Q>
0

> <r_epik_Metal_State_Penalty>
3.07911

> <b_epik_Metal_Only>
0

> <s_epik_Chemistry_Notes>
This compound contains an acetal/aminal-like group ( X-CH(R)-Y where X, Y are N, S, or O) that may be acid/base labile, releasing an aldehyde.

> <s_lp_Force_Field>
OPLS_2005

> <r_lp_Energy>
30.5173

> <b_lp_Chiralities_Consistent>
1

> <s_lp_Variant>
AV-unprocessed.smi:35-10

> <Gold.Version>
5.8.1

> <Gold.Id.Protein>
6NUR|6NUR_protein|mol2

> <Gold.PLP.Fitness>
39.1839

> <Gold.PLP.PLP>
-30.0953

> <Gold.PLP.part.hbond>
-4.9267

> <Gold.PLP.part.metal>
0.0000

> <Gold.PLP.part.buried>
-5.2297

> <Gold.PLP.part.nonpolar>
-19.9971

> <Gold.PLP.part.repulsive>
0.1435

> <Gold.PLP.ligand.clash>
0.0000

> <Gold.PLP.ligand.torsion>
0.3308

> <Gold.PLP.Chemscore.Hbond>
2.2283

> <Gold.PLP.Chemscore.CHOScore>
1.0000

> <Gold.PLP.Chemscore.Metal>
0.0000

> <Gold.Chemscore.Hbonds>
donor molecule, donor type, donor heavy atom, donor atom, acceptor molecule, acceptor atom, score
      L1  H    13    26       P1  8028  1.00
      L1  H    15    28       P1  7957  0.03
      P1  H  7989  7998       L1    15  0.19
      P1  H  8011  8017       L1    15  1.00
      L1  C    16    29       P1  8028  1.00

> <Gold.PLP.Chemscore.Internal.Correction>
0.0653

> <Gold.Rescore>
     Score         DG    S(hbond)    S(metal)    S(lipo)     H(rot)  DE(clash)    DE(int)     intcor
      6.37      -6.94       1.52        0.00      49.47       3.67       0.02       0.55       ----

> <Gold.Chemscore.Fitness>
6.3748

> <Gold.Chemscore.DG>
-6.9403

> <Gold.Chemscore.ZeroCoef>
-5.4800

> <Gold.Chemscore.Hbond>
1.5173

> <Gold.Chemscore.Metal>
0.0000

> <Gold.Chemscore.Lipo>
49.4711

> <Gold.Chemscore.Internal_Hbond>
0.0000

> <Gold.Chemscore.DEClash>
0.0151

> <Gold.Chemscore.DEInternal>
0.5504

> <Gold.Chemscore.Rot>
3.6701

> <Gold.Chemscore.Internal.Correction>
   9.000000E+99

> <Gold.Chemscore.Hbonds>
donor molecule, donor type, donor heavy atom, donor atom, acceptor molecule, acceptor atom, score
      L1  H    13    26       P1  8028  0.40
      L1  H    15    28       P1  7957  0.05
      P1  H  7989  7998       L1    15  0.12
      P1  H  8011  8017       L1    15  0.57

> <Gold.Chemscore.Hbond.Weighted>
-5.0677

> <Gold.Chemscore.Metal.Weighted>
-0.0000

> <Gold.Chemscore.Lipo.Weighted>
-5.7881

> <Gold.Chemscore.Internal_Hbond.Weighted>
0.0000

> <Gold.Chemscore.DEClash.Weighted>
0.0151

> <Gold.Chemscore.DEInternal.Weighted>
0.5504

> <Gold.Chemscore.Rot.Weighted>
9.3955

> <Gold.Chemscore.Internal.Correction.Weighted>
   9.000000E+99

> <Gold.Protein.RotatedTorsions>
[ 6907 6896 6895 6894 ] final  -84.22 input  -60.11 | X-H torsion
[ 7974 7965 7964 7962 ] final -131.02 input  175.53 | X-H torsion
[ 8008 7997 7996 7995 ] final -170.99 input   59.86 | X-H torsion
[ 10167 10162 10161 10158 ] final -101.08 input  -65.29 | X-H torsion
[ 10718 10713 10712 10709 ] final  -20.71 input   66.30 | X-H torsion
[ 10763 10752 10751 10750 ] final -145.86 input  -60.55 | X-H torsion
[ 11005 11000 10999 10996 ] final  123.58 input  -57.11 | X-H torsion

> <Gold.Protein.ActiveResidues>
 VAL166  LYS551  ARG553  GLY616  TRP617  ASP618  TYR619  PRO620  LYS621  CYS622 
 ASP623  PHE694  ASN695  SER759  ASP760  ASP761  ALA762  ILE779  LEU786  VAL792 
 PHE793  MET794  SER795  GLU796  ALA797  LYS798  CYS799  TRP800  GLU811  SER814 

> <Gold.Protein.RotatedAtoms>
  150.6878  134.3391  159.4859 H   0  0  0  0  0  0  0  0  0  0  0  0  # atno 6907 bound_to 6896
  152.1246  134.9177  160.0571 H   0  0  0  0  0  0  0  0  0  0  0  0  # atno 6908 bound_to 6896
  152.0370  133.3926  159.4358 H   0  0  0  0  0  0  0  0  0  0  0  0  # atno 6909 bound_to 6896
  144.9419  140.7248  143.4841 H   0  0  0  0  0  0  0  0  0  0  0  0  # atno 7974 bound_to 7965
  155.9256  140.1082  157.1173 H   0  0  0  0  0  0  0  0  0  0  0  0  # atno 8008 bound_to 7997
  154.4061  140.1247  156.4801 H   0  0  0  0  0  0  0  0  0  0  0  0  # atno 8009 bound_to 7997
  155.7143  140.3470  155.4990 H   0  0  0  0  0  0  0  0  0  0  0  0  # atno 8010 bound_to 7997
  140.2451  143.3511  152.0766 H   0  0  0  0  0  0  0  0  0  0  0  0  # atno 10167 bound_to 10162
  156.5282  130.4648  149.6561 H   0  0  0  0  0  0  0  0  0  0  0  0  # atno 10718 bound_to 10713
  154.8364  135.3402  154.6570 H   0  0  0  0  0  0  0  0  0  0  0  0  # atno 10763 bound_to 10752
  153.7185  135.6959  153.5023 H   0  0  0  0  0  0  0  0  0  0  0  0  # atno 10764 bound_to 10752
  153.2399  135.4388  155.0640 H   0  0  0  0  0  0  0  0  0  0  0  0  # atno 10765 bound_to 10752
  139.9319  134.9641  156.8281 H   0  0  0  0  0  0  0  0  0  0  0  0  # atno 11005 bound_to 11000
  145.2978  139.1861  143.4706 LP  0  0  0  0  0  0  0  0  0  0  0  0  # atno 17320 bound_to 7965
  146.3289  140.2964  142.8618 LP  0  0  0  0  0  0  0  0  0  0  0  0  # atno 17321 bound_to 7965
  139.5064  144.6813  151.6000 LP  0  0  0  0  0  0  0  0  0  0  0  0  # atno 17342 bound_to 10162
  140.6084  143.9482  150.6435 LP  0  0  0  0  0  0  0  0  0  0  0  0  # atno 17343 bound_to 10162
  156.3085  130.7216  151.2103 LP  0  0  0  0  0  0  0  0  0  0  0  0  # atno 17370 bound_to 10713
  157.7426  131.0487  150.5011 LP  0  0  0  0  0  0  0  0  0  0  0  0  # atno 17371 bound_to 10713
  140.6179  134.0021  155.7605 LP  0  0  0  0  0  0  0  0  0  0  0  0  # atno 17394 bound_to 11000
  141.0912  133.9913  157.3233 LP  0  0  0  0  0  0  0  0  0  0  0  0  # atno 17395 bound_to 11000

$$$$
