AV-unprocessed.smi:2774|AV-procd|sdf|10683|dock7
  -GOLD-   2272015123D 1   1.00000     0.00000
 Structure written by MMmdl.
 35 36  0  0  0  0  0  0  0  0  2 V2000
  148.7499  141.1243  155.0938 O   0  0  0  0  0  0  0  0  0  0  0  0
  150.1278  141.1515  155.4100 C   0  0  1  0  0  0  0  0  0  0  0  0
  150.2870  141.5571  156.8861 C   0  0  0  0  0  0  0  0  0  0  0  0
  150.7983  142.9392  157.0144 N   0  3  0  0  0  0  0  0  0  0  0  0
  150.9348  143.4362  158.4014 C   0  0  1  0  0  0  0  0  0  0  0  0
  151.9937  142.5958  159.1420 C   0  0  0  0  0  0  0  0  0  0  0  0
  152.1391  142.9860  160.6224 C   0  0  0  0  0  0  0  0  0  0  0  0
  152.5813  144.4442  160.8032 C   0  0  0  0  0  0  0  0  0  0  0  0
  151.3573  145.5874  160.1102 S   0  0  0  0  0  0  0  0  0  0  0  0
  151.3009  144.9349  158.4190 C   0  0  0  0  0  0  0  0  0  0  0  0
  150.7897  139.8115  155.1312 C   0  0  0  0  0  0  0  0  0  0  0  0
  152.1674  139.6271  155.3726 C   0  0  0  0  0  0  0  0  0  0  0  0
  152.7356  138.3655  155.1037 C   0  0  0  0  0  0  0  0  0  0  0  0
  152.0272  137.3195  154.6275 N   0  0  0  0  0  0  0  0  0  0  0  0
  150.7092  137.5010  154.3983 C   0  0  0  0  0  0  0  0  0  0  0  0
  150.0443  138.7211  154.6326 C   0  0  0  0  0  0  0  0  0  0  0  0
  148.5121  141.9596  154.7195 H   0  0  0  0  0  0  0  0  0  0  0  0
  150.5939  141.9079  154.7766 H   0  0  0  0  0  0  0  0  0  0  0  0
  149.3344  141.4569  157.4062 H   0  0  0  0  0  0  0  0  0  0  0  0
  150.9898  140.8818  157.3759 H   0  0  0  0  0  0  0  0  0  0  0  0
  151.7132  142.9602  156.5875 H   0  0  0  0  0  0  0  0  0  0  0  0
  149.9780  143.2943  158.9065 H   0  0  0  0  0  0  0  0  0  0  0  0
  151.7250  141.5402  159.0839 H   0  0  0  0  0  0  0  0  0  0  0  0
  152.9598  142.6913  158.6444 H   0  0  0  0  0  0  0  0  0  0  0  0
  151.1954  142.8202  161.1434 H   0  0  0  0  0  0  0  0  0  0  0  0
  152.8685  142.3291  161.0973 H   0  0  0  0  0  0  0  0  0  0  0  0
  152.7119  144.6711  161.8615 H   0  0  0  0  0  0  0  0  0  0  0  0
  153.5430  144.6144  160.3183 H   0  0  0  0  0  0  0  0  0  0  0  0
  152.2694  145.0987  157.9449 H   0  0  0  0  0  0  0  0  0  0  0  0
  150.5730  145.5268  157.8652 H   0  0  0  0  0  0  0  0  0  0  0  0
  152.7811  140.4299  155.7541 H   0  0  0  0  0  0  0  0  0  0  0  0
  153.7873  138.1919  155.2774 H   0  0  0  0  0  0  0  0  0  0  0  0
  150.1670  136.6478  154.0180 H   0  0  0  0  0  0  0  0  0  0  0  0
  148.9865  138.8127  154.4341 H   0  0  0  0  0  0  0  0  0  0  0  0
  150.1925  143.5634  156.5005 H   0  0  0  0  0  0  0  0  0  0  0  0
  1  2  1  0  0  0  0
  1 17  1  0  0  0  0
  2  3  1  0  0  0  0
  2 11  1  0  0  0  0
  2 18  1  0  0  0  0
  3  4  1  0  0  0  0
  3 19  1  0  0  0  0
  3 20  1  0  0  0  0
  4  5  1  0  0  0  0
  4 21  1  0  0  0  0
  4 35  1  0  0  0  0
  5 10  1  0  0  0  0
  5  6  1  0  0  0  0
  5 22  1  0  0  0  0
  6  7  1  0  0  0  0
  6 23  1  0  0  0  0
  6 24  1  0  0  0  0
  7  8  1  0  0  0  0
  7 25  1  0  0  0  0
  7 26  1  0  0  0  0
  8  9  1  0  0  0  0
  8 27  1  0  0  0  0
  8 28  1  0  0  0  0
  9 10  1  0  0  0  0
 10 29  1  0  0  0  0
 10 30  1  0  0  0  0
 11 16  1  0  0  0  0
 11 12  2  0  0  0  0
 12 13  1  0  0  0  0
 12 31  1  0  0  0  0
 13 14  2  0  0  0  0
 13 32  1  0  0  0  0
 14 15  1  0  0  0  0
 15 16  2  0  0  0  0
 15 33  1  0  0  0  0
 16 34  1  0  0  0  0
M  CHG  1   4   1
M  END
> <s_m_source_file>
AV-unprocessed.smi

> <i_m_source_file_index>
2774

> <i_lp_mmshare_version>
43012

> <i_f3d_flags>
0

> <s_epik_input>
W2NIXTFbY0hdbltjSF1bY0hdYzFbQ0BIXShbT0hdKVtDSDJdW05IXVtDQEBIXTJbQ0gyXVtDSDJdW0NIMl1TW0NIMl0y

> <s_epik_cmdline>
J2VwaWtfcHl0aG9uJywgJy1waCcsICc3LjAnLCAnLXRuJywgJzgnLCAnLW1hJywgJzIwMCcsICctbWV0YWxfYmluZGluZycsICctaW1hZScsICc8aW5maWxlLm1hZT4nLCAnLW9tYWUnLCAnPG91dGZpbGUubWFlPic=

> <r_epik_Ionization_Penalty>
0.0205977

> <r_epik_Ionization_Penalty_Charging>
0.0185619

> <r_epik_Ionization_Penalty_Neutral>
0.00203589

> <r_epik_State_Penalty>
0.0147768

> <r_epik_Charging_Adjusted_Penalty>
0.0333386

> <i_epik_Tot_Q>
1

> <i_epik_Tot_abs_Q>
1

> <r_epik_Metal_State_Penalty>
0.0152254

> <b_epik_Metal_Only>
0

> <s_lp_Force_Field>
OPLS_2005

> <r_lp_Energy>
9.96731

> <b_lp_Chiralities_Consistent>
1

> <s_lp_Variant>
AV-unprocessed.smi:2774-4

> <Gold.Version>
5.8.1

> <Gold.Id.Protein>
6NUR|6NUR_protein|mol2

> <Gold.PLP.Fitness>
48.2550

> <Gold.PLP.PLP>
-38.1604

> <Gold.PLP.part.hbond>
-2.0000

> <Gold.PLP.part.metal>
0.0000

> <Gold.PLP.part.buried>
-3.1963

> <Gold.PLP.part.nonpolar>
-32.7571

> <Gold.PLP.part.repulsive>
0.1365

> <Gold.PLP.ligand.clash>
0.0000

> <Gold.PLP.ligand.torsion>
0.7025

> <Gold.PLP.Chemscore.Hbond>
2.8640

> <Gold.PLP.Chemscore.CHOScore>
0.9655

> <Gold.PLP.Chemscore.Metal>
0.0000

> <Gold.Chemscore.Hbonds>
donor molecule, donor type, donor heavy atom, donor atom, acceptor molecule, acceptor atom, score
      L1  H     4    35       P1  8028  2.00
      P1  H 10752 10763       L1    14  0.88
      L1  C    15    33       P1  7948  0.95
      L1  C    15    33       P1  7949  0.04

> <Gold.PLP.Chemscore.Internal.Correction>
0.0112

> <Gold.Rescore>
     Score         DG    S(hbond)    S(metal)    S(lipo)     H(rot)  DE(clash)    DE(int)     intcor
     19.43     -20.21       1.81        0.00     117.34       1.97       0.10       0.68       ----

> <Gold.Chemscore.Fitness>
19.4296

> <Gold.Chemscore.DG>
-20.2110

> <Gold.Chemscore.ZeroCoef>
-5.4800

> <Gold.Chemscore.Hbond>
1.8088

> <Gold.Chemscore.Metal>
0.0000

> <Gold.Chemscore.Lipo>
117.3433

> <Gold.Chemscore.Internal_Hbond>
0.0000

> <Gold.Chemscore.DEClash>
0.0977

> <Gold.Chemscore.DEInternal>
0.6836

> <Gold.Chemscore.Rot>
1.9686

> <Gold.Chemscore.Internal.Correction>
   9.000000E+99

> <Gold.Chemscore.Hbonds>
donor molecule, donor type, donor heavy atom, donor atom, acceptor molecule, acceptor atom, score
      L1  H     4    35       P1  8028  1.00
      P1  H 10752 10763       L1    14  0.82

> <Gold.Chemscore.Hbond.Weighted>
-6.0414

> <Gold.Chemscore.Metal.Weighted>
-0.0000

> <Gold.Chemscore.Lipo.Weighted>
-13.7292

> <Gold.Chemscore.Internal_Hbond.Weighted>
0.0000

> <Gold.Chemscore.DEClash.Weighted>
0.0977

> <Gold.Chemscore.DEInternal.Weighted>
0.6836

> <Gold.Chemscore.Rot.Weighted>
5.0396

> <Gold.Chemscore.Internal.Correction.Weighted>
   9.000000E+99

> <Gold.Protein.RotatedTorsions>
[ 6907 6896 6895 6894 ] final  163.89 input  -60.11 | X-H torsion
[ 7974 7965 7964 7962 ] final   32.19 input  175.53 | X-H torsion
[ 8008 7997 7996 7995 ] final  -96.23 input   59.86 | X-H torsion
[ 10167 10162 10161 10158 ] final  -31.19 input  -65.29 | X-H torsion
[ 10718 10713 10712 10709 ] final  145.59 input   66.30 | X-H torsion
[ 10763 10752 10751 10750 ] final   43.48 input  -60.55 | X-H torsion
[ 11005 11000 10999 10996 ] final -173.92 input  -57.11 | X-H torsion

> <Gold.Protein.ActiveResidues>
 VAL166  LYS551  ARG553  GLY616  TRP617  ASP618  TYR619  PRO620  LYS621  CYS622 
 ASP623  PHE694  ASN695  SER759  ASP760  ASP761  ALA762  ILE779  LEU786  VAL792 
 PHE793  MET794  SER795  GLU796  ALA797  LYS798  CYS799  TRP800  GLU811  SER814 

> <Gold.Protein.RotatedAtoms>
  151.9183  133.3579  159.3887 H   0  0  0  0  0  0  0  0  0  0  0  0  # atno 6907 bound_to 6896
  150.7043  134.4662  159.5413 H   0  0  0  0  0  0  0  0  0  0  0  0  # atno 6908 bound_to 6896
  152.2280  134.8349  160.0528 H   0  0  0  0  0  0  0  0  0  0  0  0  # atno 6909 bound_to 6896
  146.1502  139.6558  142.9104 H   0  0  0  0  0  0  0  0  0  0  0  0  # atno 7974 bound_to 7965
  154.7718  140.0473  157.1057 H   0  0  0  0  0  0  0  0  0  0  0  0  # atno 8008 bound_to 7997
  154.9811  140.3101  155.4926 H   0  0  0  0  0  0  0  0  0  0  0  0  # atno 8009 bound_to 7997
  156.2922  140.2235  156.4910 H   0  0  0  0  0  0  0  0  0  0  0  0  # atno 8010 bound_to 7997
  140.7239  143.3790  151.1636 H   0  0  0  0  0  0  0  0  0  0  0  0  # atno 10167 bound_to 10162
  157.3434  131.0939  151.1063 H   0  0  0  0  0  0  0  0  0  0  0  0  # atno 10718 bound_to 10713
  152.9860  135.6100  154.3118 H   0  0  0  0  0  0  0  0  0  0  0  0  # atno 10763 bound_to 10752
  154.2833  135.2776  155.2689 H   0  0  0  0  0  0  0  0  0  0  0  0  # atno 10764 bound_to 10752
  154.5018  135.5865  153.6593 H   0  0  0  0  0  0  0  0  0  0  0  0  # atno 10765 bound_to 10752
  140.4803  134.6082  157.4917 H   0  0  0  0  0  0  0  0  0  0  0  0  # atno 11005 bound_to 11000
  145.4841  141.0438  143.2629 LP  0  0  0  0  0  0  0  0  0  0  0  0  # atno 17320 bound_to 7965
  144.7895  139.6358  143.7119 LP  0  0  0  0  0  0  0  0  0  0  0  0  # atno 17321 bound_to 7965
  139.7375  143.8976  152.3039 LP  0  0  0  0  0  0  0  0  0  0  0  0  # atno 17342 bound_to 10162
  139.8786  144.7030  150.8904 LP  0  0  0  0  0  0  0  0  0  0  0  0  # atno 17343 bound_to 10162
  157.2266  130.6506  149.5832 LP  0  0  0  0  0  0  0  0  0  0  0  0  # atno 17370 bound_to 10713
  155.9711  130.4612  150.6101 LP  0  0  0  0  0  0  0  0  0  0  0  0  # atno 17371 bound_to 10713
  139.9831  134.7106  155.9824 LP  0  0  0  0  0  0  0  0  0  0  0  0  # atno 17394 bound_to 11000
  141.1534  133.6545  156.4086 LP  0  0  0  0  0  0  0  0  0  0  0  0  # atno 17395 bound_to 11000

$$$$
