AV-unprocessed.smi:114|AV-procd|sdf|1119|dock7
  -GOLD-   2262018243D 1   1.00000     0.00000
 Structure written by MMmdl.
 32 34  0  0  0  0  0  0  0  0  1 V2000
  152.8378  140.3696  158.8654 N   0  0  0  0  0  0  0  0  0  0  0  0
  152.4092  140.1778  157.6101 C   0  0  0  0  0  0  0  0  0  0  0  0
  153.1380  139.3799  156.7950 N   0  0  0  0  0  0  0  0  0  0  0  0
  152.7478  139.1659  155.5324 C   0  0  0  0  0  0  0  0  0  0  0  0
  153.5374  138.3572  154.7875 F   0  0  0  0  0  0  0  0  0  0  0  0
  151.6640  139.6601  154.9236 N   0  0  0  0  0  0  0  0  0  0  0  0
  150.9232  140.4595  155.7453 C   0  0  0  0  0  0  0  0  0  0  0  0
  151.2316  140.7726  157.0955 C   0  0  0  0  0  0  0  0  0  0  0  0
  150.2702  141.6294  157.6135 N   0  0  0  0  0  0  0  0  0  0  0  0
  149.4460  141.8150  156.6171 C   0  0  0  0  0  0  0  0  0  0  0  0
  149.7466  141.1212  155.4622 N   0  0  0  0  0  0  0  0  0  0  0  0
  149.0344  141.1279  154.1432 C   0  0  2  0  0  0  0  0  0  0  0  0
  148.3155  142.3231  154.0348 O   0  0  0  0  0  0  0  0  0  0  0  0
  146.9162  142.1046  154.2069 C   0  0  2  0  0  0  0  0  0  0  0  0
  146.5294  142.2446  155.6972 C   0  0  0  0  0  0  0  0  0  0  0  0
  145.1539  141.9740  155.8628 O   0  0  0  0  0  0  0  0  0  0  0  0
  146.7483  140.6980  153.6172 C   0  0  2  0  0  0  0  0  0  0  0  0
  145.5857  140.0365  154.0764 O   0  0  0  0  0  0  0  0  0  0  0  0
  148.0156  139.9754  154.0527 C   0  0  1  0  0  0  0  0  0  0  0  0
  148.3812  139.0258  153.0720 O   0  0  0  0  0  0  0  0  0  0  0  0
  149.8334  141.0897  153.4014 H   0  0  0  0  0  0  0  0  0  0  0  0
  146.3490  142.8253  153.6160 H   0  0  0  0  0  0  0  0  0  0  0  0
  146.7117  140.7779  152.5293 H   0  0  0  0  0  0  0  0  0  0  0  0
  147.8851  139.5052  155.0291 H   0  0  0  0  0  0  0  0  0  0  0  0
  152.3110  140.9627  159.4907 H   0  0  0  0  0  0  0  0  0  0  0  0
  153.6848  139.9212  159.1840 H   0  0  0  0  0  0  0  0  0  0  0  0
  148.5861  142.4633  156.7057 H   0  0  0  0  0  0  0  0  0  0  0  0
  147.0614  141.5098  156.3014 H   0  0  0  0  0  0  0  0  0  0  0  0
  146.7781  143.2230  156.1050 H   0  0  0  0  0  0  0  0  0  0  0  0
  144.8940  142.2585  156.7256 H   0  0  0  0  0  0  0  0  0  0  0  0
  144.8758  140.2394  153.4861 H   0  0  0  0  0  0  0  0  0  0  0  0
  148.6989  139.4905  152.3123 H   0  0  0  0  0  0  0  0  0  0  0  0
  1  2  1  0  0  0  0
  1 25  1  0  0  0  0
  1 26  1  0  0  0  0
  2  8  1  0  0  0  0
  2  3  2  0  0  0  0
  3  4  1  0  0  0  0
  4  5  1  0  0  0  0
  4  6  2  0  0  0  0
  6  7  1  0  0  0  0
  7 11  1  0  0  0  0
  7  8  2  0  0  0  0
  8  9  1  0  0  0  0
  9 10  2  0  0  0  0
 10 11  1  0  0  0  0
 10 27  1  0  0  0  0
 11 12  1  0  0  0  0
 12 21  1  0  0  0  0
 12 19  1  0  0  0  0
 12 13  1  0  0  0  0
 13 14  1  0  0  0  0
 14 22  1  0  0  0  0
 14 15  1  0  0  0  0
 14 17  1  0  0  0  0
 15 16  1  0  0  0  0
 15 28  1  0  0  0  0
 15 29  1  0  0  0  0
 16 30  1  0  0  0  0
 17 23  1  0  0  0  0
 17 18  1  0  0  0  0
 17 19  1  0  0  0  0
 18 31  1  0  0  0  0
 19 24  1  0  0  0  0
 19 20  1  0  0  0  0
 20 32  1  0  0  0  0
M  END
> <s_m_source_file>
AV-unprocessed.smi

> <i_m_source_file_index>
114

> <i_lp_mmshare_version>
43012

> <i_f3d_flags>
0

> <s_epik_input>
RmMobjEpbmMoW05IMl0pYyhjMTIpbltjSF1uMltDQEBIXTNPW0NASF0oW0NIMl1bT0hdKVtDQEBIXShbT0hdKVtDQEBIXTNbT0hd

> <s_epik_cmdline>
J2VwaWtfcHl0aG9uJywgJy1waCcsICc3LjAnLCAnLXRuJywgJzgnLCAnLW1hJywgJzIwMCcsICctbWV0YWxfYmluZGluZycsICctaW1hZScsICc8aW5maWxlLm1hZT4nLCAnLW9tYWUnLCAnPG91dGZpbGUubWFlPic=

> <r_lp_tautomer_probability>
1

> <r_epik_Ionization_Penalty>
1.13199e-05

> <r_epik_Ionization_Penalty_Charging>
0

> <r_epik_Ionization_Penalty_Neutral>
1.13199e-05

> <r_epik_State_Penalty>
-0

> <r_epik_Charging_Adjusted_Penalty>
0

> <i_epik_Tot_Q>
0

> <i_epik_Tot_abs_Q>
0

> <r_epik_Metal_State_Penalty>
-0

> <b_epik_Metal_Only>
0

> <s_epik_Chemistry_Notes>
This compound contains an acetal/aminal-like group ( X-CH(R)-Y where X, Y are N, S, or O) that may be acid/base labile, releasing an aldehyde.

> <s_lp_Force_Field>
OPLS_2005

> <r_lp_Energy>
35.5551

> <b_lp_Chiralities_Consistent>
1

> <s_lp_Variant>
AV-unprocessed.smi:114-13

> <Gold.Version>
5.8.1

> <Gold.Id.Protein>
6NUR|6NUR_protein|mol2

> <Gold.PLP.Fitness>
42.4315

> <Gold.PLP.PLP>
-30.5063

> <Gold.PLP.part.hbond>
-5.5591

> <Gold.PLP.part.metal>
0.0000

> <Gold.PLP.part.buried>
0.7206

> <Gold.PLP.part.nonpolar>
-27.2197

> <Gold.PLP.part.repulsive>
1.7003

> <Gold.PLP.ligand.clash>
0.0000

> <Gold.PLP.ligand.torsion>
0.7223

> <Gold.PLP.Chemscore.Hbond>
3.7500

> <Gold.PLP.Chemscore.CHOScore>
0.6950

> <Gold.PLP.Chemscore.Metal>
0.0000

> <Gold.Chemscore.Hbonds>
donor molecule, donor type, donor heavy atom, donor atom, acceptor molecule, acceptor atom, score
      L1  H    18    31       P1 10175  1.00
      L1  H    20    32       P1  7957  1.00
      P1  H  7989  7998       L1     6  0.75
      P1  H  7997  8008       L1     3  0.95
      L1  C    10    27       P1  8028  0.70

> <Gold.PLP.Chemscore.Internal.Correction>
0.0348

> <Gold.Rescore>
     Score         DG    S(hbond)    S(metal)    S(lipo)     H(rot)  DE(clash)    DE(int)     intcor
      4.62      -5.69       2.17        0.00      27.94       4.03       0.44       0.63       ----

> <Gold.Chemscore.Fitness>
4.6166

> <Gold.Chemscore.DG>
-5.6909

> <Gold.Chemscore.ZeroCoef>
-5.4800

> <Gold.Chemscore.Hbond>
2.1714

> <Gold.Chemscore.Metal>
0.0000

> <Gold.Chemscore.Lipo>
27.9435

> <Gold.Chemscore.Internal_Hbond>
0.0000

> <Gold.Chemscore.DEClash>
0.4415

> <Gold.Chemscore.DEInternal>
0.6329

> <Gold.Chemscore.Rot>
4.0277

> <Gold.Chemscore.Internal.Correction>
   9.000000E+99

> <Gold.Chemscore.Hbonds>
donor molecule, donor type, donor heavy atom, donor atom, acceptor molecule, acceptor atom, score
      L1  H    18    31       P1 10175  0.97
      L1  H    20    32       P1  7957  0.96
      P1  H  7989  7998       L1     6  0.09
      P1  H  7997  8008       L1     3  0.21
      P1  H  8022  8030       L1    13  0.01

> <Gold.Chemscore.Hbond.Weighted>
-7.2525

> <Gold.Chemscore.Metal.Weighted>
-0.0000

> <Gold.Chemscore.Lipo.Weighted>
-3.2694

> <Gold.Chemscore.Internal_Hbond.Weighted>
0.0000

> <Gold.Chemscore.DEClash.Weighted>
0.4415

> <Gold.Chemscore.DEInternal.Weighted>
0.6329

> <Gold.Chemscore.Rot.Weighted>
10.3110

> <Gold.Chemscore.Internal.Correction.Weighted>
   9.000000E+99

> <Gold.Protein.RotatedTorsions>
[ 6907 6896 6895 6894 ] final   48.38 input  -60.11 | X-H torsion
[ 7974 7965 7964 7962 ] final  126.33 input  175.53 | X-H torsion
[ 8008 7997 7996 7995 ] final  -77.45 input   59.86 | X-H torsion
[ 10167 10162 10161 10158 ] final   23.97 input  -65.29 | X-H torsion
[ 10718 10713 10712 10709 ] final   99.38 input   66.30 | X-H torsion
[ 10763 10752 10751 10750 ] final -168.61 input  -60.55 | X-H torsion
[ 11005 11000 10999 10996 ] final   37.35 input  -57.11 | X-H torsion

> <Gold.Protein.ActiveResidues>
 VAL166  LYS551  ARG553  GLY616  TRP617  ASP618  TYR619  PRO620  LYS621  CYS622 
 ASP623  PHE694  ASN695  SER759  ASP760  ASP761  ALA762  ILE779  LEU786  VAL792 
 PHE793  MET794  SER795  GLU796  ALA797  LYS798  CYS799  TRP800  GLU811  SER814 

> <Gold.Protein.RotatedAtoms>
  152.2788  134.7851  160.0400 H   0  0  0  0  0  0  0  0  0  0  0  0  # atno 6907 bound_to 6896
  151.8438  133.3423  159.3659 H   0  0  0  0  0  0  0  0  0  0  0  0  # atno 6908 bound_to 6896
  150.7181  134.5294  159.5737 H   0  0  0  0  0  0  0  0  0  0  0  0  # atno 6909 bound_to 6896
  145.0629  139.3791  143.4997 H   0  0  0  0  0  0  0  0  0  0  0  0  # atno 7974 bound_to 7965
  154.5597  140.0710  156.8800 H   0  0  0  0  0  0  0  0  0  0  0  0  # atno 8008 bound_to 7997
  155.2834  140.3373  155.4238 H   0  0  0  0  0  0  0  0  0  0  0  0  # atno 8009 bound_to 7997
  156.2032  140.1730  156.7841 H   0  0  0  0  0  0  0  0  0  0  0  0  # atno 8010 bound_to 7997
  140.5226  143.9977  150.6424 H   0  0  0  0  0  0  0  0  0  0  0  0  # atno 10167 bound_to 10162
  157.6877  131.0668  150.4939 H   0  0  0  0  0  0  0  0  0  0  0  0  # atno 10718 bound_to 10713
  154.6610  135.2925  154.9866 H   0  0  0  0  0  0  0  0  0  0  0  0  # atno 10763 bound_to 10752
  154.0926  135.6588  153.4859 H   0  0  0  0  0  0  0  0  0  0  0  0  # atno 10764 bound_to 10752
  153.0430  135.5223  154.7562 H   0  0  0  0  0  0  0  0  0  0  0  0  # atno 10765 bound_to 10752
  140.2235  134.3613  155.7994 H   0  0  0  0  0  0  0  0  0  0  0  0  # atno 11005 bound_to 11000
  146.3525  140.0336  142.8648 LP  0  0  0  0  0  0  0  0  0  0  0  0  # atno 17320 bound_to 7965
  145.1387  140.9559  143.4501 LP  0  0  0  0  0  0  0  0  0  0  0  0  # atno 17321 bound_to 7965
  140.3330  143.3066  152.0667 LP  0  0  0  0  0  0  0  0  0  0  0  0  # atno 17342 bound_to 10162
  139.4928  144.6496  151.6705 LP  0  0  0  0  0  0  0  0  0  0  0  0  # atno 17343 bound_to 10162
  156.5264  130.4174  149.6224 LP  0  0  0  0  0  0  0  0  0  0  0  0  # atno 17370 bound_to 10713
  156.3108  130.7228  151.2120 LP  0  0  0  0  0  0  0  0  0  0  0  0  # atno 17371 bound_to 10713
  141.2222  133.7206  156.8614 LP  0  0  0  0  0  0  0  0  0  0  0  0  # atno 17394 bound_to 11000
  140.1825  134.9023  157.2965 LP  0  0  0  0  0  0  0  0  0  0  0  0  # atno 17395 bound_to 11000

$$$$
