AV-unprocessed.smi:290|AV-procd|sdf|2242|dock5
  -GOLD-   2262022123D 1   1.00000     0.00000
 Structure written by MMmdl.
 59 62  0  0  0  0  0  0  0  0  2 V2000
  153.1670  142.0537  160.3957 C   0  0  0  0  0  0  0  0  0  0  0  0
  152.0105  142.9846  159.9983 C   0  0  1  0  0  0  0  0  0  0  0  0
  152.5447  144.2979  159.8547 O   0  0  0  0  0  0  0  0  0  0  0  0
  151.7861  144.9967  158.8841 C   0  0  0  0  0  0  0  0  0  0  0  0
  151.5482  143.9297  157.8266 C   0  0  0  0  0  0  0  0  0  0  0  0
  151.2881  142.6744  158.6560 C   0  0  2  0  0  0  0  0  0  0  0  0
  149.8971  142.6123  158.9221 O   0  0  0  0  0  0  0  0  0  0  0  0
  151.6990  141.3602  157.9411 C   0  0  0  0  0  0  0  0  0  0  0  0
  150.7509  140.9288  156.9248 N   0  0  0  0  0  0  0  0  0  0  0  0
  150.2395  141.6924  155.9009 C   0  0  0  0  0  0  0  0  0  0  0  0
  149.4049  141.0750  155.1109 N   0  0  0  0  0  0  0  0  0  0  0  0
  149.3443  139.7811  155.6168 C   0  0  0  0  0  0  0  0  0  0  0  0
  148.6432  138.5955  155.2482 C   0  0  0  0  0  0  0  0  0  0  0  0
  147.8112  138.4982  154.1793 N   0  0  0  0  0  0  0  0  0  0  0  0
  147.3702  139.6524  153.4222 C   0  0  0  0  0  0  0  0  0  0  0  0
  146.8346  139.0408  152.1353 C   0  0  0  0  0  0  0  0  0  0  0  0
  146.1954  137.7156  152.5918 C   0  0  1  0  0  0  0  0  0  0  0  0
  146.1455  136.6855  151.5072 N   0  3  2  0  0  0  0  0  0  0  0  0
  145.8130  137.2863  150.1885 C   0  0  0  0  0  0  0  0  0  0  0  0
  145.2756  135.5147  151.8188 C   0  0  0  0  0  0  0  0  0  0  0  0
  145.7891  134.1899  151.2238 C   0  0  0  0  0  0  0  0  0  0  0  0
  147.0623  133.8821  151.7514 O   0  0  0  0  0  0  0  0  0  0  0  0
  147.0249  137.3140  153.8451 C   0  0  2  0  0  0  0  0  0  0  0  0
  146.1110  136.9043  155.0220 C   0  0  0  0  0  0  0  0  0  0  0  0
  148.8226  137.4973  156.0278 N   0  0  0  0  0  0  0  0  0  0  0  0
  149.6449  137.5398  157.0797 C   0  0  0  0  0  0  0  0  0  0  0  0
  150.3708  138.5645  157.5291 N   0  0  0  0  0  0  0  0  0  0  0  0
  150.1831  139.6768  156.7636 C   0  0  0  0  0  0  0  0  0  0  0  0
  145.1712  137.9341  152.9012 H   0  0  0  0  0  0  0  0  0  0  0  0
  147.7181  136.5125  153.5900 H   0  0  0  0  0  0  0  0  0  0  0  0
  152.8259  141.0266  160.5259 H   0  0  0  0  0  0  0  0  0  0  0  0
  153.6081  142.3718  161.3406 H   0  0  0  0  0  0  0  0  0  0  0  0
  153.9609  142.0595  159.6484 H   0  0  0  0  0  0  0  0  0  0  0  0
  151.2916  143.0087  160.8196 H   0  0  0  0  0  0  0  0  0  0  0  0
  150.8463  145.3366  159.3219 H   0  0  0  0  0  0  0  0  0  0  0  0
  152.3242  145.8629  158.4987 H   0  0  0  0  0  0  0  0  0  0  0  0
  150.7411  144.1803  157.1369 H   0  0  0  0  0  0  0  0  0  0  0  0
  152.4607  143.8094  157.2411 H   0  0  0  0  0  0  0  0  0  0  0  0
  149.4453  143.1484  158.2884 H   0  0  0  0  0  0  0  0  0  0  0  0
  152.6656  141.4798  157.4512 H   0  0  0  0  0  0  0  0  0  0  0  0
  151.8177  140.5525  158.6646 H   0  0  0  0  0  0  0  0  0  0  0  0
  150.5045  142.7302  155.7590 H   0  0  0  0  0  0  0  0  0  0  0  0
  146.5842  140.1721  153.9717 H   0  0  0  0  0  0  0  0  0  0  0  0
  148.1823  140.3530  153.2243 H   0  0  0  0  0  0  0  0  0  0  0  0
  146.1354  139.7045  151.6256 H   0  0  0  0  0  0  0  0  0  0  0  0
  147.6684  138.8442  151.4593 H   0  0  0  0  0  0  0  0  0  0  0  0
  144.8025  137.6972  150.1925 H   0  0  0  0  0  0  0  0  0  0  0  0
  145.8797  136.5593  149.3812 H   0  0  0  0  0  0  0  0  0  0  0  0
  146.5010  138.0874  149.9208 H   0  0  0  0  0  0  0  0  0  0  0  0
  145.2071  135.3573  152.8927 H   0  0  0  0  0  0  0  0  0  0  0  0
  144.2607  135.7166  151.4730 H   0  0  0  0  0  0  0  0  0  0  0  0
  145.1077  133.3827  151.4944 H   0  0  0  0  0  0  0  0  0  0  0  0
  145.8299  134.2009  150.1357 H   0  0  0  0  0  0  0  0  0  0  0  0
  147.6299  134.6282  151.6259 H   0  0  0  0  0  0  0  0  0  0  0  0
  145.4495  136.0799  154.7605 H   0  0  0  0  0  0  0  0  0  0  0  0
  145.4799  137.7364  155.3362 H   0  0  0  0  0  0  0  0  0  0  0  0
  146.6849  136.5871  155.8918 H   0  0  0  0  0  0  0  0  0  0  0  0
  149.7357  136.6209  157.6400 H   0  0  0  0  0  0  0  0  0  0  0  0
  147.0836  136.3177  151.4317 H   0  0  0  0  0  0  0  0  0  0  0  0
  1  2  1  0  0  0  0
  1 31  1  0  0  0  0
  1 32  1  0  0  0  0
  1 33  1  0  0  0  0
  2  6  1  0  0  0  0
  2  3  1  0  0  0  0
  2 34  1  0  0  0  0
  3  4  1  0  0  0  0
  4  5  1  0  0  0  0
  4 35  1  0  0  0  0
  4 36  1  0  0  0  0
  5  6  1  0  0  0  0
  5 37  1  0  0  0  0
  5 38  1  0  0  0  0
  6  7  1  0  0  0  0
  6  8  1  0  0  0  0
  7 39  1  0  0  0  0
  8  9  1  0  0  0  0
  8 40  1  0  0  0  0
  8 41  1  0  0  0  0
  9 28  1  0  0  0  0
  9 10  1  0  0  0  0
 10 11  2  0  0  0  0
 10 42  1  0  0  0  0
 11 12  1  0  0  0  0
 12 28  2  0  0  0  0
 12 13  1  0  0  0  0
 13 14  1  0  0  0  0
 13 25  2  0  0  0  0
 14 23  1  0  0  0  0
 14 15  1  0  0  0  0
 15 16  1  0  0  0  0
 15 43  1  0  0  0  0
 15 44  1  0  0  0  0
 16 17  1  0  0  0  0
 16 45  1  0  0  0  0
 16 46  1  0  0  0  0
 17 29  1  0  0  0  0
 17 18  1  0  0  0  0
 17 23  1  0  0  0  0
 18 19  1  0  0  0  0
 18 20  1  0  0  0  0
 18 59  1  0  0  0  0
 19 47  1  0  0  0  0
 19 48  1  0  0  0  0
 19 49  1  0  0  0  0
 20 21  1  0  0  0  0
 20 50  1  0  0  0  0
 20 51  1  0  0  0  0
 21 22  1  0  0  0  0
 21 52  1  0  0  0  0
 21 53  1  0  0  0  0
 22 54  1  0  0  0  0
 23 30  1  0  0  0  0
 23 24  1  0  0  0  0
 24 55  1  0  0  0  0
 24 56  1  0  0  0  0
 24 57  1  0  0  0  0
 25 26  1  0  0  0  0
 26 27  2  0  0  0  0
 26 58  1  0  0  0  0
 27 28  1  0  0  0  0
M  CHG  1  18   1
M  END
> <s_m_source_file>
AV-unprocessed.smi

> <i_m_source_file_index>
290

> <i_lp_mmshare_version>
43012

> <i_f3d_flags>
0

> <s_epik_input>
W0NIMl0xW0NIMl1PW0NAQEhdKFtDSDNdKVtDQEBdMShbT0hdKVtDSDJdbihbY0hdbjIpYyhjMjMpbltjSF1uYzNONFtDSDJdW0NIMl1bQ0BIXShbQ0BIXTRbQ0gzXSlOKFtDSDNdKVtDSDJdW0NIMl1bT0hd

> <s_epik_cmdline>
J2VwaWtfcHl0aG9uJywgJy1waCcsICc3LjAnLCAnLXRuJywgJzgnLCAnLW1hJywgJzIwMCcsICctbWV0YWxfYmluZGluZycsICctaW1hZScsICc8aW5maWxlLm1hZT4nLCAnLW9tYWUnLCAnPG91dGZpbGUubWFlPic=

> <r_lp_tautomer_probability>
1

> <r_epik_Ionization_Penalty>
0.0036983

> <r_epik_Ionization_Penalty_Charging>
0.0032725

> <r_epik_Ionization_Penalty_Neutral>
0.000425798

> <r_epik_State_Penalty>
-0

> <r_epik_Charging_Adjusted_Penalty>
0.0032725

> <i_epik_Tot_Q>
1

> <i_epik_Tot_abs_Q>
1

> <r_epik_Metal_State_Penalty>
-0

> <b_epik_Metal_Only>
0

> <s_lp_Force_Field>
OPLS_2005

> <r_lp_Energy>
64.6527

> <b_lp_Chiralities_Consistent>
1

> <s_lp_Variant>
AV-unprocessed.smi:290-28

> <Gold.Version>
5.8.1

> <Gold.Id.Protein>
6NUR|6NUR_protein|mol2

> <Gold.PLP.Fitness>
52.1720

> <Gold.PLP.PLP>
-42.0167

> <Gold.PLP.part.hbond>
-2.7077

> <Gold.PLP.part.metal>
0.0000

> <Gold.PLP.part.buried>
3.5286

> <Gold.PLP.part.nonpolar>
-42.6992

> <Gold.PLP.part.repulsive>
0.2492

> <Gold.PLP.ligand.clash>
0.0000

> <Gold.PLP.ligand.torsion>
0.9887

> <Gold.PLP.Chemscore.Hbond>
3.0000

> <Gold.PLP.Chemscore.CHOScore>
0.9536

> <Gold.PLP.Chemscore.Metal>
0.0000

> <Gold.Chemscore.Hbonds>
donor molecule, donor type, donor heavy atom, donor atom, acceptor molecule, acceptor atom, score
      L1  H    18    59       P1  7948  2.00
      L1  H    22    54       P1  7948  0.99
      L1  C    10    42       P1  8028  0.87

> <Gold.PLP.Chemscore.Internal.Correction>
0.2719

> <Gold.Rescore>
     Score         DG    S(hbond)    S(metal)    S(lipo)     H(rot)  DE(clash)    DE(int)     intcor
     11.36     -17.17       1.96        0.00     117.17       3.35       2.32       3.48       ----

> <Gold.Chemscore.Fitness>
11.3613

> <Gold.Chemscore.DG>
-17.1679

> <Gold.Chemscore.ZeroCoef>
-5.4800

> <Gold.Chemscore.Hbond>
1.9638

> <Gold.Chemscore.Metal>
0.0000

> <Gold.Chemscore.Lipo>
117.1748

> <Gold.Chemscore.Internal_Hbond>
0.0000

> <Gold.Chemscore.DEClash>
2.3231

> <Gold.Chemscore.DEInternal>
3.4835

> <Gold.Chemscore.Rot>
3.3518

> <Gold.Chemscore.Internal.Correction>
   9.000000E+99

> <Gold.Chemscore.Hbonds>
donor molecule, donor type, donor heavy atom, donor atom, acceptor molecule, acceptor atom, score
      L1  H    18    59       P1  7948  0.98
      L1  H    22    54       P1  7948  0.28

> <Gold.Chemscore.Hbond.Weighted>
-6.5590

> <Gold.Chemscore.Metal.Weighted>
-0.0000

> <Gold.Chemscore.Lipo.Weighted>
-13.7095

> <Gold.Chemscore.Internal_Hbond.Weighted>
0.0000

> <Gold.Chemscore.DEClash.Weighted>
2.3231

> <Gold.Chemscore.DEInternal.Weighted>
3.4835

> <Gold.Chemscore.Rot.Weighted>
8.5806

> <Gold.Chemscore.Internal.Correction.Weighted>
   9.000000E+99

> <Gold.Protein.RotatedTorsions>
[ 6907 6896 6895 6894 ] final    1.90 input  -60.11 | X-H torsion
[ 7974 7965 7964 7962 ] final  -18.13 input  175.53 | X-H torsion
[ 8008 7997 7996 7995 ] final  145.59 input   59.86 | X-H torsion
[ 10167 10162 10161 10158 ] final  -76.46 input  -65.29 | X-H torsion
[ 10718 10713 10712 10709 ] final  -89.29 input   66.30 | X-H torsion
[ 10763 10752 10751 10750 ] final -110.75 input  -60.55 | X-H torsion
[ 11005 11000 10999 10996 ] final  177.97 input  -57.11 | X-H torsion

> <Gold.Protein.ActiveResidues>
 VAL166  LYS551  ARG553  GLY616  TRP617  ASP618  TYR619  PRO620  LYS621  CYS622 
 ASP623  PHE694  ASN695  SER759  ASP760  ASP761  ALA762  ILE779  LEU786  VAL792 
 PHE793  MET794  SER795  GLU796  ALA797  LYS798  CYS799  TRP800  GLU811  SER814 

> <Gold.Protein.RotatedAtoms>
  151.6001  135.1048  160.0058 H   0  0  0  0  0  0  0  0  0  0  0  0  # atno 6907 bound_to 6896
  152.4262  133.7195  159.6536 H   0  0  0  0  0  0  0  0  0  0  0  0  # atno 6908 bound_to 6896
  150.8151  133.8280  159.3186 H   0  0  0  0  0  0  0  0  0  0  0  0  # atno 6909 bound_to 6896
  146.1907  140.3878  142.8459 H   0  0  0  0  0  0  0  0  0  0  0  0  # atno 7974 bound_to 7965
  156.2879  140.2205  156.5240 H   0  0  0  0  0  0  0  0  0  0  0  0  # atno 8008 bound_to 7997
  154.7505  140.0481  157.0911 H   0  0  0  0  0  0  0  0  0  0  0  0  # atno 8009 bound_to 7997
  155.0116  140.3113  155.4831 H   0  0  0  0  0  0  0  0  0  0  0  0  # atno 8010 bound_to 7997
  140.4855  143.2392  151.7991 H   0  0  0  0  0  0  0  0  0  0  0  0  # atno 10167 bound_to 10162
  155.9984  130.4867  150.5149 H   0  0  0  0  0  0  0  0  0  0  0  0  # atno 10718 bound_to 10713
  154.8264  135.4552  154.0933 H   0  0  0  0  0  0  0  0  0  0  0  0  # atno 10763 bound_to 10752
  153.2244  135.6898  153.7969 H   0  0  0  0  0  0  0  0  0  0  0  0  # atno 10764 bound_to 10752
  153.7375  135.3317  155.3274 H   0  0  0  0  0  0  0  0  0  0  0  0  # atno 10765 bound_to 10752
  140.3899  134.6871  157.4501 H   0  0  0  0  0  0  0  0  0  0  0  0  # atno 11005 bound_to 11000
  144.8482  140.6961  143.6185 LP  0  0  0  0  0  0  0  0  0  0  0  0  # atno 17320 bound_to 7965
  145.3801  139.1639  143.4285 LP  0  0  0  0  0  0  0  0  0  0  0  0  # atno 17321 bound_to 7965
  139.4841  144.4718  151.9416 LP  0  0  0  0  0  0  0  0  0  0  0  0  # atno 17342 bound_to 10162
  140.3804  144.2744  150.5909 LP  0  0  0  0  0  0  0  0  0  0  0  0  # atno 17343 bound_to 10162
  157.3118  131.0665  151.1996 LP  0  0  0  0  0  0  0  0  0  0  0  0  # atno 17370 bound_to 10713
  157.2939  130.6810  149.6128 LP  0  0  0  0  0  0  0  0  0  0  0  0  # atno 17371 bound_to 10713
  140.0414  134.6261  155.8975 LP  0  0  0  0  0  0  0  0  0  0  0  0  # atno 17394 bound_to 11000
  141.1894  133.6565  156.5368 LP  0  0  0  0  0  0  0  0  0  0  0  0  # atno 17395 bound_to 11000

$$$$
