AV-unprocessed.smi:893|AV-procd|sdf|4068|dock4
  -GOLD-   22720 1553D 1   1.00000     0.00000
 Structure written by MMmdl.
 26 27  0  0  0  0  0  0  0  0  2 V2000
  152.0021  138.4878  155.6359 C   0  0  0  0  0  0  0  0  0  0  0  0
  151.9895  139.7910  156.4509 C   0  0  0  0  0  0  0  0  0  0  0  0
  152.0469  139.5814  157.9842 C   0  0  1  0  0  0  0  0  0  0  0  0
  152.2882  140.8773  158.7389 C   0  0  0  0  0  0  0  0  0  0  0  0
  152.6795  141.0534  160.0996 C   0  0  0  0  0  0  0  0  0  0  0  0
  152.8023  142.3243  160.4458 N   0  0  0  0  0  0  0  0  0  0  0  0
  152.4995  143.0065  159.3237 N   0  0  0  0  0  0  0  0  0  0  0  0
  152.5386  144.4530  159.3355 C   0  0  0  0  0  0  0  0  0  0  0  0
  152.1837  142.1629  158.2816 C   0  0  0  0  0  0  0  0  0  0  0  0
  150.8624  138.8868  158.4487 N   0  0  0  0  0  0  0  0  0  0  0  0
  151.1685  137.7182  159.0094 C   0  0  0  0  0  0  0  0  0  0  0  0
  150.3044  136.9806  159.4774 O   0  0  0  0  0  0  0  0  0  0  0  0
  152.4999  137.5168  158.9655 N   0  5  0  0  0  0  0  0  0  0  0  0
  153.1227  138.5563  158.3681 C   0  0  0  0  0  0  0  0  0  0  0  0
  154.3172  138.7311  158.1274 O   0  0  0  0  0  0  0  0  0  0  0  0
  151.9544  138.7019  154.5682 H   0  0  0  0  0  0  0  0  0  0  0  0
  151.1504  137.8536  155.8824 H   0  0  0  0  0  0  0  0  0  0  0  0
  152.9113  137.9139  155.8159 H   0  0  0  0  0  0  0  0  0  0  0  0
  152.8317  140.4072  156.1313 H   0  0  0  0  0  0  0  0  0  0  0  0
  151.0936  140.3570  156.1913 H   0  0  0  0  0  0  0  0  0  0  0  0
  152.8768  140.2962  160.8442 H   0  0  0  0  0  0  0  0  0  0  0  0
  152.2853  144.8422  158.3490 H   0  0  0  0  0  0  0  0  0  0  0  0
  153.5394  144.7927  159.6041 H   0  0  0  0  0  0  0  0  0  0  0  0
  151.8223  144.8356  160.0631 H   0  0  0  0  0  0  0  0  0  0  0  0
  151.9161  142.5397  157.3053 H   0  0  0  0  0  0  0  0  0  0  0  0
  149.9282  139.2581  158.3594 H   0  0  0  0  0  0  0  0  0  0  0  0
  1  2  1  0  0  0  0
  1 16  1  0  0  0  0
  1 17  1  0  0  0  0
  1 18  1  0  0  0  0
  2  3  1  0  0  0  0
  2 19  1  0  0  0  0
  2 20  1  0  0  0  0
  3 14  1  0  0  0  0
  3  4  1  0  0  0  0
  3 10  1  0  0  0  0
  4  9  2  0  0  0  0
  4  5  1  0  0  0  0
  5  6  2  0  0  0  0
  5 21  1  0  0  0  0
  6  7  1  0  0  0  0
  7  8  1  0  0  0  0
  7  9  1  0  0  0  0
  8 22  1  0  0  0  0
  8 23  1  0  0  0  0
  8 24  1  0  0  0  0
  9 25  1  0  0  0  0
 10 11  1  0  0  0  0
 10 26  1  0  0  0  0
 11 12  2  0  0  0  0
 11 13  1  0  0  0  0
 13 14  1  0  0  0  0
 14 15  2  0  0  0  0
M  CHG  1  13  -1
M  END
> <s_m_source_file>
AV-unprocessed.smi

> <i_m_source_file_index>
893

> <i_lp_mmshare_version>
43012

> <i_f3d_flags>
0

> <s_epik_input>
Tz1DMVtOSF1DKD1PKVtOSF1bQ0BAXTEoW0NIMl1bQ0gzXSljMltjSF1ubihbQ0gzXSlbY0hdMg==

> <s_epik_cmdline>
J2VwaWtfcHl0aG9uJywgJy1waCcsICc3LjAnLCAnLXRuJywgJzgnLCAnLW1hJywgJzIwMCcsICctbWV0YWxfYmluZGluZycsICctaW1hZScsICc8aW5maWxlLm1hZT4nLCAnLW9tYWUnLCAnPG91dGZpbGUubWFlPic=

> <r_lp_tautomer_probability>
1

> <r_epik_Ionization_Penalty>
1.92579

> <r_epik_Ionization_Penalty_Charging>
1.92573

> <r_epik_Ionization_Penalty_Neutral>
5.85665e-05

> <r_epik_State_Penalty>
2.04887

> <r_epik_Charging_Adjusted_Penalty>
3.97461

> <i_epik_Tot_Q>
-1

> <i_epik_Tot_abs_Q>
1

> <r_epik_Metal_State_Penalty>
0.530533

> <b_epik_Metal_Only>
0

> <s_lp_Force_Field>
OPLS_2005

> <r_lp_Energy>
5.94643

> <b_lp_Chiralities_Consistent>
1

> <s_lp_Variant>
AV-unprocessed.smi:893-3

> <Gold.Version>
5.8.1

> <Gold.Id.Protein>
6NUR|6NUR_protein|mol2

> <Gold.PLP.Fitness>
31.5154

> <Gold.PLP.PLP>
-26.5832

> <Gold.PLP.part.hbond>
-1.7716

> <Gold.PLP.part.metal>
0.0000

> <Gold.PLP.part.buried>
-4.6774

> <Gold.PLP.part.nonpolar>
-20.1855

> <Gold.PLP.part.repulsive>
0.1222

> <Gold.PLP.ligand.clash>
0.0000

> <Gold.PLP.ligand.torsion>
0.5964

> <Gold.PLP.Chemscore.Hbond>
2.0000

> <Gold.PLP.Chemscore.CHOScore>
0.0000

> <Gold.PLP.Chemscore.Metal>
0.0000

> <Gold.Chemscore.Hbonds>
donor molecule, donor type, donor heavy atom, donor atom, acceptor molecule, acceptor atom, score
      P1  H  6896  6908       L1    12  0.83
      P1  H  7997  8010       L1    15  1.00

> <Gold.PLP.Chemscore.Internal.Correction>
0.1250

> <Gold.Rescore>
     Score         DG    S(hbond)    S(metal)    S(lipo)     H(rot)  DE(clash)    DE(int)     intcor
     15.04     -15.28       1.95        0.00      56.26       1.28       0.04       0.20       ----

> <Gold.Chemscore.Fitness>
15.0378

> <Gold.Chemscore.DG>
-15.2825

> <Gold.Chemscore.ZeroCoef>
-5.4800

> <Gold.Chemscore.Hbond>
1.9456

> <Gold.Chemscore.Metal>
0.0000

> <Gold.Chemscore.Lipo>
56.2610

> <Gold.Chemscore.Internal_Hbond>
0.0000

> <Gold.Chemscore.DEClash>
0.0402

> <Gold.Chemscore.DEInternal>
0.2045

> <Gold.Chemscore.Rot>
1.2805

> <Gold.Chemscore.Internal.Correction>
   9.000000E+99

> <Gold.Chemscore.Hbonds>
donor molecule, donor type, donor heavy atom, donor atom, acceptor molecule, acceptor atom, score
      P1  H  6896  6908       L1    12  0.63
      P1  H  7997  8010       L1    15  0.88

> <Gold.Chemscore.Hbond.Weighted>
-6.4982

> <Gold.Chemscore.Metal.Weighted>
-0.0000

> <Gold.Chemscore.Lipo.Weighted>
-6.5825

> <Gold.Chemscore.Internal_Hbond.Weighted>
0.0000

> <Gold.Chemscore.DEClash.Weighted>
0.0402

> <Gold.Chemscore.DEInternal.Weighted>
0.2045

> <Gold.Chemscore.Rot.Weighted>
3.2782

> <Gold.Chemscore.Internal.Correction.Weighted>
   9.000000E+99

> <Gold.Protein.RotatedTorsions>
[ 6907 6896 6895 6894 ] final -151.80 input  -60.11 | X-H torsion
[ 7974 7965 7964 7962 ] final    5.64 input  175.53 | X-H torsion
[ 8008 7997 7996 7995 ] final   29.88 input   59.86 | X-H torsion
[ 10167 10162 10161 10158 ] final -172.72 input  -65.29 | X-H torsion
[ 10718 10713 10712 10709 ] final  -40.28 input   66.30 | X-H torsion
[ 10763 10752 10751 10750 ] final  -47.98 input  -60.55 | X-H torsion
[ 11005 11000 10999 10996 ] final -154.01 input  -57.11 | X-H torsion

> <Gold.Protein.ActiveResidues>
 VAL166  LYS551  ARG553  GLY616  TRP617  ASP618  TYR619  PRO620  LYS621  CYS622 
 ASP623  PHE694  ASN695  SER759  ASP760  ASP761  ALA762  ILE779  LEU786  VAL792 
 PHE793  MET794  SER795  GLU796  ALA797  LYS798  CYS799  TRP800  GLU811  SER814 

> <Gold.Protein.RotatedAtoms>
  151.2184  133.4516  159.2599 H   0  0  0  0  0  0  0  0  0  0  0  0  # atno 6907 bound_to 6896
  151.0908  134.9915  159.8412 H   0  0  0  0  0  0  0  0  0  0  0  0  # atno 6908 bound_to 6896
  152.5434  134.2118  159.8806 H   0  0  0  0  0  0  0  0  0  0  0  0  # atno 6909 bound_to 6896
  146.2439  140.0353  142.8386 H   0  0  0  0  0  0  0  0  0  0  0  0  # atno 7974 bound_to 7965
  155.0815  140.3211  155.4600 H   0  0  0  0  0  0  0  0  0  0  0  0  # atno 8008 bound_to 7997
  156.2766  140.2094  156.5889 H   0  0  0  0  0  0  0  0  0  0  0  0  # atno 8009 bound_to 7997
  154.6974  140.0510  157.0412 H   0  0  0  0  0  0  0  0  0  0  0  0  # atno 8010 bound_to 7997
  139.5729  144.1600  152.1409 H   0  0  0  0  0  0  0  0  0  0  0  0  # atno 10167 bound_to 10162
  156.2831  130.4219  149.8316 H   0  0  0  0  0  0  0  0  0  0  0  0  # atno 10718 bound_to 10713
  154.0702  135.6605  153.4823 H   0  0  0  0  0  0  0  0  0  0  0  0  # atno 10763 bound_to 10752
  153.0393  135.5155  154.7574 H   0  0  0  0  0  0  0  0  0  0  0  0  # atno 10764 bound_to 10752
  154.6637  135.3019  154.9800 H   0  0  0  0  0  0  0  0  0  0  0  0  # atno 10765 bound_to 10752
  140.7020  134.3927  157.5208 H   0  0  0  0  0  0  0  0  0  0  0  0  # atno 11005 bound_to 11000
  145.1118  140.9409  143.4652 LP  0  0  0  0  0  0  0  0  0  0  0  0  # atno 17320 bound_to 7965
  145.0568  139.3137  143.5900 LP  0  0  0  0  0  0  0  0  0  0  0  0  # atno 17321 bound_to 7965
  140.1137  144.5434  150.6908 LP  0  0  0  0  0  0  0  0  0  0  0  0  # atno 17342 bound_to 10162
  140.7012  143.2436  151.4857 LP  0  0  0  0  0  0  0  0  0  0  0  0  # atno 17343 bound_to 10162
  156.5757  130.8444  151.3369 LP  0  0  0  0  0  0  0  0  0  0  0  0  # atno 17370 bound_to 10713
  157.7320  130.9709  150.1908 LP  0  0  0  0  0  0  0  0  0  0  0  0  # atno 17371 bound_to 10713
  139.8894  134.8831  156.2422 LP  0  0  0  0  0  0  0  0  0  0  0  0  # atno 17394 bound_to 11000
  141.0156  133.7070  156.1183 LP  0  0  0  0  0  0  0  0  0  0  0  0  # atno 17395 bound_to 11000

$$$$
