AV-unprocessed.smi:2849|AV-procd|sdf|10959|dock8
  -GOLD-   2272015413D 1   1.00000     0.00000
 Structure written by MMmdl.
 55 58  0  0  0  0  0  0  0  0  2 V2000
  145.9697  133.9588  151.2934 C   0  0  0  0  0  0  0  0  0  0  0  0
  146.2559  135.2018  152.0484 N   0  3  2  0  0  0  0  0  0  0  0  0
  146.1591  135.0730  153.5230 C   0  0  2  0  0  0  0  0  0  0  0  0
  144.6891  134.8850  153.9761 C   0  0  0  0  0  0  0  0  0  0  0  0
  143.7231  135.9492  153.4223 C   0  0  0  0  0  0  0  0  0  0  0  0
  143.9989  136.2841  151.9437 C   0  0  0  0  0  0  0  0  0  0  0  0
  145.5044  136.3959  151.5906 C   0  0  1  0  0  0  0  0  0  0  0  0
  146.2061  137.6637  152.1309 C   0  0  0  0  0  0  0  0  0  0  0  0
  146.4486  137.6587  153.6591 C   0  0  2  0  0  0  0  0  0  0  0  0
  147.4594  138.6623  153.9876 N   0  0  0  0  0  0  0  0  0  0  0  0
  148.0745  138.7824  155.1735 C   0  0  0  0  0  0  0  0  0  0  0  0
  147.8539  138.0356  156.1259 O   0  0  0  0  0  0  0  0  0  0  0  0
  148.9383  139.8126  155.1669 N   0  0  0  0  0  0  0  0  0  0  0  0
  149.7582  140.3128  156.2167 C   0  0  0  0  0  0  0  0  0  0  0  0
  150.3290  139.5288  157.2474 C   0  0  0  0  0  0  0  0  0  0  0  0
  151.1222  140.1591  158.2256 C   0  0  0  0  0  0  0  0  0  0  0  0
  151.3342  141.5559  158.1491 C   0  0  0  0  0  0  0  0  0  0  0  0
  152.1102  142.2273  159.1141 N   0  0  0  0  0  0  0  0  0  0  0  0
  152.7014  141.5374  160.2497 C   0  0  0  0  0  0  0  0  0  0  0  0
  153.3796  142.6413  161.0594 C   0  0  0  0  0  0  0  0  0  0  0  0
  152.4849  143.8561  160.8092 C   0  0  0  0  0  0  0  0  0  0  0  0
  151.9615  143.6505  159.3827 C   0  0  0  0  0  0  0  0  0  0  0  0
  150.7919  142.3036  157.1595 N   0  0  0  0  0  0  0  0  0  0  0  0
  150.0325  141.6953  156.2252 C   0  0  0  0  0  0  0  0  0  0  0  0
  146.8912  136.2668  154.1793 C   0  0  0  0  0  0  0  0  0  0  0  0
  144.9379  133.6295  151.4117 H   0  0  0  0  0  0  0  0  0  0  0  0
  146.6217  133.1517  151.6289 H   0  0  0  0  0  0  0  0  0  0  0  0
  146.1551  134.1101  150.2298 H   0  0  0  0  0  0  0  0  0  0  0  0
  146.7056  134.1752  153.8159 H   0  0  0  0  0  0  0  0  0  0  0  0
  144.3436  133.9035  153.6509 H   0  0  0  0  0  0  0  0  0  0  0  0
  144.6311  134.8646  155.0648 H   0  0  0  0  0  0  0  0  0  0  0  0
  142.6965  135.5975  153.5292 H   0  0  0  0  0  0  0  0  0  0  0  0
  143.7640  136.8495  154.0295 H   0  0  0  0  0  0  0  0  0  0  0  0
  143.5508  135.5050  151.3263 H   0  0  0  0  0  0  0  0  0  0  0  0
  143.4790  137.2030  151.6707 H   0  0  0  0  0  0  0  0  0  0  0  0
  145.5798  136.4403  150.5030 H   0  0  0  0  0  0  0  0  0  0  0  0
  147.1704  137.7431  151.6257 H   0  0  0  0  0  0  0  0  0  0  0  0
  145.6484  138.5562  151.8437 H   0  0  0  0  0  0  0  0  0  0  0  0
  145.5268  137.9553  154.1539 H   0  0  0  0  0  0  0  0  0  0  0  0
  147.7004  139.3211  153.2616 H   0  0  0  0  0  0  0  0  0  0  0  0
  148.9848  140.3387  154.3063 H   0  0  0  0  0  0  0  0  0  0  0  0
  150.1852  138.4627  157.3151 H   0  0  0  0  0  0  0  0  0  0  0  0
  151.5490  139.5649  159.0197 H   0  0  0  0  0  0  0  0  0  0  0  0
  151.9141  141.0583  160.8334 H   0  0  0  0  0  0  0  0  0  0  0  0
  153.4131  140.7738  159.9341 H   0  0  0  0  0  0  0  0  0  0  0  0
  153.4787  142.3920  162.1162 H   0  0  0  0  0  0  0  0  0  0  0  0
  154.3775  142.8313  160.6615 H   0  0  0  0  0  0  0  0  0  0  0  0
  151.6493  143.8413  161.5101 H   0  0  0  0  0  0  0  0  0  0  0  0
  153.0092  144.8038  160.9345 H   0  0  0  0  0  0  0  0  0  0  0  0
  152.5632  144.2090  158.6650 H   0  0  0  0  0  0  0  0  0  0  0  0
  150.9260  143.9810  159.2956 H   0  0  0  0  0  0  0  0  0  0  0  0
  149.6260  142.3393  155.4591 H   0  0  0  0  0  0  0  0  0  0  0  0
  146.7879  136.2212  155.2641 H   0  0  0  0  0  0  0  0  0  0  0  0
  147.9576  136.1459  153.9806 H   0  0  0  0  0  0  0  0  0  0  0  0
  147.2273  135.3991  151.8551 H   0  0  0  0  0  0  0  0  0  0  0  0
  1  2  1  0  0  0  0
  1 26  1  0  0  0  0
  1 27  1  0  0  0  0
  1 28  1  0  0  0  0
  2  7  1  0  0  0  0
  2  3  1  0  0  0  0
  2 55  1  0  0  0  0
  3 25  1  0  0  0  0
  3  4  1  0  0  0  0
  3 29  1  0  0  0  0
  4  5  1  0  0  0  0
  4 30  1  0  0  0  0
  4 31  1  0  0  0  0
  5  6  1  0  0  0  0
  5 32  1  0  0  0  0
  5 33  1  0  0  0  0
  6  7  1  0  0  0  0
  6 34  1  0  0  0  0
  6 35  1  0  0  0  0
  7  8  1  0  0  0  0
  7 36  1  0  0  0  0
  8  9  1  0  0  0  0
  8 37  1  0  0  0  0
  8 38  1  0  0  0  0
  9 10  1  0  0  0  0
  9 25  1  0  0  0  0
  9 39  1  0  0  0  0
 10 11  1  0  0  0  0
 10 40  1  0  0  0  0
 11 12  2  0  0  0  0
 11 13  1  0  0  0  0
 13 14  1  0  0  0  0
 13 41  1  0  0  0  0
 14 24  1  0  0  0  0
 14 15  2  0  0  0  0
 15 16  1  0  0  0  0
 15 42  1  0  0  0  0
 16 17  2  0  0  0  0
 16 43  1  0  0  0  0
 17 18  1  0  0  0  0
 17 23  1  0  0  0  0
 18 22  1  0  0  0  0
 18 19  1  0  0  0  0
 19 20  1  0  0  0  0
 19 44  1  0  0  0  0
 19 45  1  0  0  0  0
 20 21  1  0  0  0  0
 20 46  1  0  0  0  0
 20 47  1  0  0  0  0
 21 22  1  0  0  0  0
 21 48  1  0  0  0  0
 21 49  1  0  0  0  0
 22 50  1  0  0  0  0
 22 51  1  0  0  0  0
 23 24  2  0  0  0  0
 24 52  1  0  0  0  0
 25 53  1  0  0  0  0
 25 54  1  0  0  0  0
M  CHG  1   2   1
M  END
> <s_m_source_file>
AV-unprocessed.smi

> <i_m_source_file_index>
2849

> <i_lp_mmshare_version>
43012

> <i_f3d_flags>
0

> <s_epik_input>
W0NIMl0xW0NIMl1bQ0gyXVtDQEhdKE4oW0NIM10pW0NIXTEyKVtDSDJdW0NASF0oW0NIMl0yKVtOSF1DKD1PKVtOSF1jM1tjSF1bY0hdYyhuW2NIXTMpTjRbQ0gyXVtDSDJdW0NIMl1bQ0gyXTQ=

> <s_epik_cmdline>
J2VwaWtfcHl0aG9uJywgJy1waCcsICc3LjAnLCAnLXRuJywgJzgnLCAnLW1hJywgJzIwMCcsICctbWV0YWxfYmluZGluZycsICctaW1hZScsICc8aW5maWxlLm1hZT4nLCAnLW9tYWUnLCAnPG91dGZpbGUubWFlPic=

> <r_lp_tautomer_probability>
1

> <r_epik_Ionization_Penalty>
0.07954

> <r_epik_Ionization_Penalty_Charging>
0.00089841

> <r_epik_Ionization_Penalty_Neutral>
0.0786416

> <r_epik_State_Penalty>
0.0689917

> <r_epik_Charging_Adjusted_Penalty>
0.0698901

> <i_epik_Tot_Q>
1

> <i_epik_Tot_abs_Q>
1

> <r_epik_Metal_State_Penalty>
0.060891

> <b_epik_Metal_Only>
0

> <s_lp_Force_Field>
OPLS_2005

> <r_lp_Energy>
61.678

> <b_lp_Chiralities_Consistent>
1

> <s_lp_Variant>
AV-unprocessed.smi:2849-3

> <Gold.Version>
5.8.1

> <Gold.Id.Protein>
6NUR|6NUR_protein|mol2

> <Gold.PLP.Fitness>
44.0861

> <Gold.PLP.PLP>
-35.9055

> <Gold.PLP.part.hbond>
-1.0000

> <Gold.PLP.part.metal>
0.0000

> <Gold.PLP.part.buried>
-2.9529

> <Gold.PLP.part.nonpolar>
-31.0809

> <Gold.PLP.part.repulsive>
0.1864

> <Gold.PLP.ligand.clash>
0.0000

> <Gold.PLP.ligand.torsion>
0.4844

> <Gold.PLP.Chemscore.Hbond>
2.0000

> <Gold.PLP.Chemscore.CHOScore>
1.0000

> <Gold.PLP.Chemscore.Metal>
0.0000

> <Gold.Chemscore.Hbonds>
donor molecule, donor type, donor heavy atom, donor atom, acceptor molecule, acceptor atom, score
      L1  H     2    55       P1  7948  2.00
      L1  C    24    52       P1  8028  0.98

> <Gold.PLP.Chemscore.Internal.Correction>
0.1494

> <Gold.Rescore>
     Score         DG    S(hbond)    S(metal)    S(lipo)     H(rot)  DE(clash)    DE(int)     intcor
     15.87     -17.68       0.99        0.00      97.97       1.00       0.02       1.79       ----

> <Gold.Chemscore.Fitness>
15.8747

> <Gold.Chemscore.DG>
-17.6819

> <Gold.Chemscore.ZeroCoef>
-5.4800

> <Gold.Chemscore.Hbond>
0.9878

> <Gold.Chemscore.Metal>
0.0000

> <Gold.Chemscore.Lipo>
97.9720

> <Gold.Chemscore.Internal_Hbond>
0.0000

> <Gold.Chemscore.DEClash>
0.0178

> <Gold.Chemscore.DEInternal>
1.7895

> <Gold.Chemscore.Rot>
1.0000

> <Gold.Chemscore.Internal.Correction>
   9.000000E+99

> <Gold.Chemscore.Hbonds>
donor molecule, donor type, donor heavy atom, donor atom, acceptor molecule, acceptor atom, score
      L1  H     2    55       P1  7948  0.99

> <Gold.Chemscore.Hbond.Weighted>
-3.2992

> <Gold.Chemscore.Metal.Weighted>
-0.0000

> <Gold.Chemscore.Lipo.Weighted>
-11.4627

> <Gold.Chemscore.Internal_Hbond.Weighted>
0.0000

> <Gold.Chemscore.DEClash.Weighted>
0.0178

> <Gold.Chemscore.DEInternal.Weighted>
1.7895

> <Gold.Chemscore.Rot.Weighted>
2.5600

> <Gold.Chemscore.Internal.Correction.Weighted>
   9.000000E+99

> <Gold.Protein.RotatedTorsions>
[ 6907 6896 6895 6894 ] final  -54.85 input  -60.11 | X-H torsion
[ 7974 7965 7964 7962 ] final   41.82 input  175.53 | X-H torsion
[ 8008 7997 7996 7995 ] final  -98.68 input   59.86 | X-H torsion
[ 10167 10162 10161 10158 ] final  174.02 input  -65.29 | X-H torsion
[ 10718 10713 10712 10709 ] final  148.22 input   66.30 | X-H torsion
[ 10763 10752 10751 10750 ] final  -87.30 input  -60.55 | X-H torsion
[ 11005 11000 10999 10996 ] final  -64.64 input  -57.11 | X-H torsion

> <Gold.Protein.ActiveResidues>
 VAL166  LYS551  ARG553  GLY616  TRP617  ASP618  TYR619  PRO620  LYS621  CYS622 
 ASP623  PHE694  ASN695  SER759  ASP760  ASP761  ALA762  ILE779  LEU786  VAL792 
 PHE793  MET794  SER795  GLU796  ALA797  LYS798  CYS799  TRP800  GLU811  SER814 

> <Gold.Protein.RotatedAtoms>
  150.8302  134.7552  159.6847 H   0  0  0  0  0  0  0  0  0  0  0  0  # atno 6907 bound_to 6896
  152.4408  134.5592  159.9899 H   0  0  0  0  0  0  0  0  0  0  0  0  # atno 6908 bound_to 6896
  151.5754  133.3347  159.3034 H   0  0  0  0  0  0  0  0  0  0  0  0  # atno 6909 bound_to 6896
  146.0792  139.5372  142.9548 H   0  0  0  0  0  0  0  0  0  0  0  0  # atno 7974 bound_to 7965
  154.8045  140.0453  157.1297 H   0  0  0  0  0  0  0  0  0  0  0  0  # atno 8008 bound_to 7997
  154.9440  140.3056  155.5087 H   0  0  0  0  0  0  0  0  0  0  0  0  # atno 8009 bound_to 7997
  156.2965  140.2300  156.4512 H   0  0  0  0  0  0  0  0  0  0  0  0  # atno 8010 bound_to 7997
  139.5127  144.3194  152.0216 H   0  0  0  0  0  0  0  0  0  0  0  0  # atno 10167 bound_to 10162
  157.3114  131.0888  151.1313 H   0  0  0  0  0  0  0  0  0  0  0  0  # atno 10718 bound_to 10713
  154.6321  135.5418  153.7692 H   0  0  0  0  0  0  0  0  0  0  0  0  # atno 10763 bound_to 10752
  153.0290  135.6438  154.1285 H   0  0  0  0  0  0  0  0  0  0  0  0  # atno 10764 bound_to 10752
  154.1215  135.2920  155.3187 H   0  0  0  0  0  0  0  0  0  0  0  0  # atno 10765 bound_to 10752
  141.1431  133.6669  156.5865 H   0  0  0  0  0  0  0  0  0  0  0  0  # atno 11005 bound_to 11000
  145.6249  141.0315  143.1894 LP  0  0  0  0  0  0  0  0  0  0  0  0  # atno 17320 bound_to 7965
  144.7282  139.7809  143.7357 LP  0  0  0  0  0  0  0  0  0  0  0  0  # atno 17321 bound_to 7965
  140.2637  144.4040  150.6176 LP  0  0  0  0  0  0  0  0  0  0  0  0  # atno 17342 bound_to 10162
  140.6139  143.2171  151.6831 LP  0  0  0  0  0  0  0  0  0  0  0  0  # atno 17343 bound_to 10162
  157.2634  130.6670  149.5985 LP  0  0  0  0  0  0  0  0  0  0  0  0  # atno 17370 bound_to 10713
  155.9678  130.4501  150.5685 LP  0  0  0  0  0  0  0  0  0  0  0  0  # atno 17371 bound_to 10713
  140.3797  134.7534  157.4653 LP  0  0  0  0  0  0  0  0  0  0  0  0  # atno 17394 bound_to 11000
  140.0647  134.5946  155.8709 LP  0  0  0  0  0  0  0  0  0  0  0  0  # atno 17395 bound_to 11000

$$$$
