AV-unprocessed.smi:1787|AV-procd|sdf|7206|dock3
  -GOLD-   22720 8443D 1   1.00000     0.00000
 Structure written by MMmdl.
 44 46  0  0  0  0  0  0  0  0  1 V2000
  145.7818  134.4768  154.4691 O   0  0  0  0  0  0  0  0  0  0  0  0
  146.6426  134.7589  153.6363 C   0  0  0  0  0  0  0  0  0  0  0  0
  147.7399  135.4696  153.9239 N   0  0  0  0  0  0  0  0  0  0  0  0
  148.0713  135.9959  155.2449 C   0  0  0  0  0  0  0  0  0  0  0  0
  149.6140  136.0253  155.4922 C   0  0  1  0  0  0  0  0  0  0  0  0
  150.2001  137.2992  154.9718 N   0  0  0  0  0  0  0  0  0  0  0  0
  149.5341  138.5391  155.3976 C   0  0  0  0  0  0  0  0  0  0  0  0
  150.1538  139.7899  154.7512 C   0  0  0  0  0  0  0  0  0  0  0  0
  151.5425  139.8468  155.0470 O   0  0  0  0  0  0  0  0  0  0  0  0
  152.2368  138.6991  154.5786 C   0  0  0  0  0  0  0  0  0  0  0  0
  151.6419  137.4353  155.2218 C   0  0  0  0  0  0  0  0  0  0  0  0
  149.8478  135.8148  157.0167 C   0  0  0  0  0  0  0  0  0  0  0  0
  149.5203  134.3633  157.3852 C   0  0  0  0  0  0  0  0  0  0  0  0
  149.9236  133.3369  155.9522 S   0  0  0  0  0  0  0  0  0  0  0  0
  150.2320  134.7522  154.8600 C   0  0  0  0  0  0  0  0  0  0  0  0
  146.6148  134.4211  152.3356 N   0  0  0  0  0  0  0  0  0  0  0  0
  145.6338  133.6776  151.6237 C   0  0  0  0  0  0  0  0  0  0  0  0
  146.0670  132.9075  150.5244 C   0  0  0  0  0  0  0  0  0  0  0  0
  145.1269  132.1469  149.8038 C   0  0  0  0  0  0  0  0  0  0  0  0
  143.7814  132.1809  150.2167 C   0  0  0  0  0  0  0  0  0  0  0  0
  143.3498  132.9022  151.2722 N   0  0  0  0  0  0  0  0  0  0  0  0
  144.2570  133.6300  151.9591 C   0  0  0  0  0  0  0  0  0  0  0  0
  148.3987  135.6595  153.1827 H   0  0  0  0  0  0  0  0  0  0  0  0
  147.6348  136.9891  155.3487 H   0  0  0  0  0  0  0  0  0  0  0  0
  147.5564  135.3994  155.9973 H   0  0  0  0  0  0  0  0  0  0  0  0
  148.4837  138.5368  155.1170 H   0  0  0  0  0  0  0  0  0  0  0  0
  149.5784  138.6479  156.4806 H   0  0  0  0  0  0  0  0  0  0  0  0
  150.0037  139.7809  153.6704 H   0  0  0  0  0  0  0  0  0  0  0  0
  149.6722  140.6904  155.1328 H   0  0  0  0  0  0  0  0  0  0  0  0
  152.1752  138.6447  153.4905 H   0  0  0  0  0  0  0  0  0  0  0  0
  153.2922  138.7925  154.8353 H   0  0  0  0  0  0  0  0  0  0  0  0
  151.8336  137.4604  156.2952 H   0  0  0  0  0  0  0  0  0  0  0  0
  152.1913  136.5846  154.8246 H   0  0  0  0  0  0  0  0  0  0  0  0
  150.8957  135.9426  157.2775 H   0  0  0  0  0  0  0  0  0  0  0  0
  149.2893  136.5206  157.6322 H   0  0  0  0  0  0  0  0  0  0  0  0
  150.0768  134.0338  158.2629 H   0  0  0  0  0  0  0  0  0  0  0  0
  148.4606  134.2498  157.6136 H   0  0  0  0  0  0  0  0  0  0  0  0
  149.8432  134.5496  153.8616 H   0  0  0  0  0  0  0  0  0  0  0  0
  151.3134  134.8355  154.7673 H   0  0  0  0  0  0  0  0  0  0  0  0
  147.3725  134.7796  151.7728 H   0  0  0  0  0  0  0  0  0  0  0  0
  147.1072  132.8993  150.2330 H   0  0  0  0  0  0  0  0  0  0  0  0
  145.4299  131.5507  148.9559 H   0  0  0  0  0  0  0  0  0  0  0  0
  143.0327  131.6093  149.6883 H   0  0  0  0  0  0  0  0  0  0  0  0
  143.8502  134.1635  152.8032 H   0  0  0  0  0  0  0  0  0  0  0  0
  1  2  2  0  0  0  0
  2  3  1  0  0  0  0
  2 16  1  0  0  0  0
  3  4  1  0  0  0  0
  3 23  1  0  0  0  0
  4  5  1  0  0  0  0
  4 24  1  0  0  0  0
  4 25  1  0  0  0  0
  5 15  1  0  0  0  0
  5  6  1  0  0  0  0
  5 12  1  0  0  0  0
  6 11  1  0  0  0  0
  6  7  1  0  0  0  0
  7  8  1  0  0  0  0
  7 26  1  0  0  0  0
  7 27  1  0  0  0  0
  8  9  1  0  0  0  0
  8 28  1  0  0  0  0
  8 29  1  0  0  0  0
  9 10  1  0  0  0  0
 10 11  1  0  0  0  0
 10 30  1  0  0  0  0
 10 31  1  0  0  0  0
 11 32  1  0  0  0  0
 11 33  1  0  0  0  0
 12 13  1  0  0  0  0
 12 34  1  0  0  0  0
 12 35  1  0  0  0  0
 13 14  1  0  0  0  0
 13 36  1  0  0  0  0
 13 37  1  0  0  0  0
 14 15  1  0  0  0  0
 15 38  1  0  0  0  0
 15 39  1  0  0  0  0
 16 17  1  0  0  0  0
 16 40  1  0  0  0  0
 17 22  1  0  0  0  0
 17 18  2  0  0  0  0
 18 19  1  0  0  0  0
 18 41  1  0  0  0  0
 19 20  2  0  0  0  0
 19 42  1  0  0  0  0
 20 21  1  0  0  0  0
 20 43  1  0  0  0  0
 21 22  2  0  0  0  0
 22 44  1  0  0  0  0
M  END
> <s_m_source_file>
AV-unprocessed.smi

> <i_m_source_file_index>
1787

> <i_lp_mmshare_version>
43012

> <i_f3d_flags>
0

> <s_epik_input>
W2NIXTFuW2NIXVtjSF1bY0hdYzFbTkhdQyg9TylbTkhdW0NIMl1bQ0BdMihbQ0gyXVtDSDJdU1tDSDJdMilOM1tDSDJdW0NIMl1PW0NIMl1bQ0gyXTM=

> <s_epik_cmdline>
J2VwaWtfcHl0aG9uJywgJy1waCcsICc3LjAnLCAnLXRuJywgJzgnLCAnLW1hJywgJzIwMCcsICctbWV0YWxfYmluZGluZycsICctaW1hZScsICc8aW5maWxlLm1hZT4nLCAnLW9tYWUnLCAnPG91dGZpbGUubWFlPic=

> <r_epik_Ionization_Penalty>
0.024212

> <r_epik_Ionization_Penalty_Charging>
0

> <r_epik_Ionization_Penalty_Neutral>
0.024212

> <r_epik_State_Penalty>
0.0155843

> <r_epik_Charging_Adjusted_Penalty>
0.0155843

> <i_epik_Tot_Q>
0

> <i_epik_Tot_abs_Q>
0

> <r_epik_Metal_State_Penalty>
0.01557

> <b_epik_Metal_Only>
0

> <s_lp_Force_Field>
OPLS_2005

> <r_lp_Energy>
57.3635

> <b_lp_Chiralities_Consistent>
1

> <s_lp_Variant>
AV-unprocessed.smi:1787-1

> <Gold.Version>
5.8.1

> <Gold.Id.Protein>
6NUR|6NUR_protein|mol2

> <Gold.PLP.Fitness>
39.6420

> <Gold.PLP.PLP>
-32.5731

> <Gold.PLP.part.hbond>
-2.8888

> <Gold.PLP.part.metal>
0.0000

> <Gold.PLP.part.buried>
-5.6431

> <Gold.PLP.part.nonpolar>
-25.2882

> <Gold.PLP.part.repulsive>
0.5130

> <Gold.PLP.ligand.clash>
0.0000

> <Gold.PLP.ligand.torsion>
0.9021

> <Gold.PLP.Chemscore.Hbond>
1.9640

> <Gold.PLP.Chemscore.CHOScore>
0.9724

> <Gold.PLP.Chemscore.Metal>
0.0000

> <Gold.Chemscore.Hbonds>
donor molecule, donor type, donor heavy atom, donor atom, acceptor molecule, acceptor atom, score
      L1  H     3    23       P1  7948  0.99
      L1  H    16    40       P1  7948  0.69
      P1  H  7989  7998       L1     9  0.23
      L1  C    20    43       P1 10952  0.95

> <Gold.PLP.Chemscore.Internal.Correction>
0.0640

> <Gold.Rescore>
     Score         DG    S(hbond)    S(metal)    S(lipo)     H(rot)  DE(clash)    DE(int)     intcor
     16.86     -17.87       1.90        0.00      83.41       1.44       0.06       0.94       ----

> <Gold.Chemscore.Fitness>
16.8644

> <Gold.Chemscore.DG>
-17.8708

> <Gold.Chemscore.ZeroCoef>
-5.4800

> <Gold.Chemscore.Hbond>
1.8951

> <Gold.Chemscore.Metal>
0.0000

> <Gold.Chemscore.Lipo>
83.4102

> <Gold.Chemscore.Internal_Hbond>
0.0000

> <Gold.Chemscore.DEClash>
0.0635

> <Gold.Chemscore.DEInternal>
0.9429

> <Gold.Chemscore.Rot>
1.4445

> <Gold.Chemscore.Internal.Correction>
   9.000000E+99

> <Gold.Chemscore.Hbonds>
donor molecule, donor type, donor heavy atom, donor atom, acceptor molecule, acceptor atom, score
      L1  H     3    23       P1  7948  0.92
      L1  H    16    40       P1  7948  0.48

> <Gold.Chemscore.Hbond.Weighted>
-6.3298

> <Gold.Chemscore.Metal.Weighted>
-0.0000

> <Gold.Chemscore.Lipo.Weighted>
-9.7590

> <Gold.Chemscore.Internal_Hbond.Weighted>
0.0000

> <Gold.Chemscore.DEClash.Weighted>
0.0635

> <Gold.Chemscore.DEInternal.Weighted>
0.9429

> <Gold.Chemscore.Rot.Weighted>
3.6980

> <Gold.Chemscore.Internal.Correction.Weighted>
   9.000000E+99

> <Gold.Protein.RotatedTorsions>
[ 6907 6896 6895 6894 ] final   60.08 input  -60.11 | X-H torsion
[ 7974 7965 7964 7962 ] final -142.56 input  175.53 | X-H torsion
[ 8008 7997 7996 7995 ] final  127.27 input   59.86 | X-H torsion
[ 10167 10162 10161 10158 ] final  -84.63 input  -65.29 | X-H torsion
[ 10718 10713 10712 10709 ] final  -32.72 input   66.30 | X-H torsion
[ 10763 10752 10751 10750 ] final   -6.26 input  -60.55 | X-H torsion
[ 11005 11000 10999 10996 ] final -170.01 input  -57.11 | X-H torsion

> <Gold.Protein.ActiveResidues>
 VAL166  LYS551  ARG553  GLY616  TRP617  ASP618  TYR619  PRO620  LYS621  CYS622 
 ASP623  PHE694  ASN695  SER759  ASP760  ASP761  ALA762  ILE779  LEU786  VAL792 
 PHE793  MET794  SER795  GLU796  ALA797  LYS798  CYS799  TRP800  GLU811  SER814 

> <Gold.Protein.RotatedAtoms>
  152.3972  134.6346  160.0084 H   0  0  0  0  0  0  0  0  0  0  0  0  # atno 6907 bound_to 6896
  151.6562  133.3313  159.3171 H   0  0  0  0  0  0  0  0  0  0  0  0  # atno 6908 bound_to 6896
  150.7878  134.6920  159.6546 H   0  0  0  0  0  0  0  0  0  0  0  0  # atno 6909 bound_to 6896
  144.8434  140.5943  143.5437 H   0  0  0  0  0  0  0  0  0  0  0  0  # atno 7974 bound_to 7965
  156.2886  140.2673  156.2245 H   0  0  0  0  0  0  0  0  0  0  0  0  # atno 8008 bound_to 7997
  155.0134  140.0387  157.2426 H   0  0  0  0  0  0  0  0  0  0  0  0  # atno 8009 bound_to 7997
  154.7498  140.2741  155.6307 H   0  0  0  0  0  0  0  0  0  0  0  0  # atno 8010 bound_to 7997
  140.4114  143.2621  151.9012 H   0  0  0  0  0  0  0  0  0  0  0  0  # atno 10167 bound_to 10162
  156.3714  130.4340  149.7542 H   0  0  0  0  0  0  0  0  0  0  0  0  # atno 10718 bound_to 10713
  153.4098  135.7007  153.6367 H   0  0  0  0  0  0  0  0  0  0  0  0  # atno 10763 bound_to 10752
  153.4865  135.3682  155.2470 H   0  0  0  0  0  0  0  0  0  0  0  0  # atno 10764 bound_to 10752
  154.8716  135.4078  154.3448 H   0  0  0  0  0  0  0  0  0  0  0  0  # atno 10765 bound_to 10752
  140.5243  134.5679  157.5057 H   0  0  0  0  0  0  0  0  0  0  0  0  # atno 11005 bound_to 11000
  145.4646  139.1509  143.3847 LP  0  0  0  0  0  0  0  0  0  0  0  0  # atno 17320 bound_to 7965
  146.2723  140.4777  142.8809 LP  0  0  0  0  0  0  0  0  0  0  0  0  # atno 17321 bound_to 7965
  139.4782  144.5533  151.8353 LP  0  0  0  0  0  0  0  0  0  0  0  0  # atno 17342 bound_to 10162
  140.4633  144.1690  150.5909 LP  0  0  0  0  0  0  0  0  0  0  0  0  # atno 17343 bound_to 10162
  156.4668  130.7978  151.2997 LP  0  0  0  0  0  0  0  0  0  0  0  0  # atno 17370 bound_to 10713
  157.7484  131.0048  150.3090 LP  0  0  0  0  0  0  0  0  0  0  0  0  # atno 17371 bound_to 10713
  139.9589  134.7487  156.0281 LP  0  0  0  0  0  0  0  0  0  0  0  0  # atno 17394 bound_to 11000
  141.1317  133.6585  156.3482 LP  0  0  0  0  0  0  0  0  0  0  0  0  # atno 17395 bound_to 11000

$$$$
