AV-unprocessed.smi:1677|AV-procd|sdf|6726|dock4
  -GOLD-   22720 7473D 1   1.00000     0.00000
 Structure written by MMmdl.
 36 37  0  0  0  0  0  0  0  0  1 V2000
  148.2524  141.6991  154.3789 C   0  0  0  0  0  0  0  0  0  0  0  0
  149.5062  141.1105  155.0393 C   0  0  2  0  0  0  0  0  0  0  0  0
  149.2491  139.6803  155.5594 C   0  0  0  0  0  0  0  0  0  0  0  0
  150.2641  138.7368  155.1272 N   0  0  0  0  0  0  0  0  0  0  0  0
  150.6264  138.4358  153.8211 C   0  0  0  0  0  0  0  0  0  0  0  0
  151.6344  137.5015  153.8985 C   0  0  0  0  0  0  0  0  0  0  0  0
  151.9028  137.2102  155.2339 N   0  0  0  0  0  0  0  0  0  0  0  0
  151.0508  137.9767  155.9017 C   0  0  0  0  0  0  0  0  0  0  0  0
  149.9265  141.9903  156.1291 N   0  0  0  0  0  0  0  0  0  0  0  0
  150.7968  141.6737  157.1016 C   0  0  0  0  0  0  0  0  0  0  0  0
  151.3795  140.5908  157.1632 O   0  0  0  0  0  0  0  0  0  0  0  0
  151.0305  142.7382  158.1805 C   0  0  1  0  0  0  0  0  0  0  0  0
  151.9467  142.1944  159.3007 C   0  0  0  0  0  0  0  0  0  0  0  0
  152.4046  143.2896  160.2477 C   0  0  0  0  0  0  0  0  0  0  0  0
  152.3164  144.5997  159.9605 C   0  0  0  0  0  0  0  0  0  0  0  0
  151.7528  145.1334  158.6554 C   0  0  0  0  0  0  0  0  0  0  0  0
  151.6171  144.0339  157.5849 C   0  0  0  0  0  0  0  0  0  0  0  0
  147.9276  141.0850  153.5385 H   0  0  0  0  0  0  0  0  0  0  0  0
  148.4436  142.7026  153.9971 H   0  0  0  0  0  0  0  0  0  0  0  0
  147.4234  141.7624  155.0846 H   0  0  0  0  0  0  0  0  0  0  0  0
  150.2828  141.0694  154.2734 H   0  0  0  0  0  0  0  0  0  0  0  0
  149.1991  139.6702  156.6492 H   0  0  0  0  0  0  0  0  0  0  0  0
  148.2850  139.3187  155.1999 H   0  0  0  0  0  0  0  0  0  0  0  0
  150.1551  138.9037  152.9694 H   0  0  0  0  0  0  0  0  0  0  0  0
  152.1827  137.0201  153.1022 H   0  0  0  0  0  0  0  0  0  0  0  0
  151.0049  137.9932  156.9808 H   0  0  0  0  0  0  0  0  0  0  0  0
  149.4998  142.9050  156.1621 H   0  0  0  0  0  0  0  0  0  0  0  0
  150.0656  142.9897  158.6251 H   0  0  0  0  0  0  0  0  0  0  0  0
  151.4145  141.4362  159.8765 H   0  0  0  0  0  0  0  0  0  0  0  0
  152.8349  141.7126  158.8893 H   0  0  0  0  0  0  0  0  0  0  0  0
  152.8308  142.9735  161.1885 H   0  0  0  0  0  0  0  0  0  0  0  0
  152.6477  145.3312  160.6830 H   0  0  0  0  0  0  0  0  0  0  0  0
  150.7794  145.5775  158.8649 H   0  0  0  0  0  0  0  0  0  0  0  0
  152.3945  145.9336  158.2860 H   0  0  0  0  0  0  0  0  0  0  0  0
  152.6013  143.8272  157.1612 H   0  0  0  0  0  0  0  0  0  0  0  0
  150.9990  144.3971  156.7627 H   0  0  0  0  0  0  0  0  0  0  0  0
  1  2  1  0  0  0  0
  1 18  1  0  0  0  0
  1 19  1  0  0  0  0
  1 20  1  0  0  0  0
  2  3  1  0  0  0  0
  2  9  1  0  0  0  0
  2 21  1  0  0  0  0
  3  4  1  0  0  0  0
  3 22  1  0  0  0  0
  3 23  1  0  0  0  0
  4  8  1  0  0  0  0
  4  5  1  0  0  0  0
  5  6  2  0  0  0  0
  5 24  1  0  0  0  0
  6  7  1  0  0  0  0
  6 25  1  0  0  0  0
  7  8  2  0  0  0  0
  8 26  1  0  0  0  0
  9 10  1  0  0  0  0
  9 27  1  0  0  0  0
 10 11  2  0  0  0  0
 10 12  1  0  0  0  0
 12 17  1  0  0  0  0
 12 13  1  0  0  0  0
 12 28  1  0  0  0  0
 13 14  1  0  0  0  0
 13 29  1  0  0  0  0
 13 30  1  0  0  0  0
 14 15  2  0  0  0  0
 14 31  1  0  0  0  0
 15 16  1  0  0  0  0
 15 32  1  0  0  0  0
 16 17  1  0  0  0  0
 16 33  1  0  0  0  0
 16 34  1  0  0  0  0
 17 35  1  0  0  0  0
 17 36  1  0  0  0  0
M  END
> <s_m_source_file>
AV-unprocessed.smi

> <i_m_source_file_index>
1677

> <i_lp_mmshare_version>
43012

> <i_f3d_flags>
0

> <s_epik_input>
W2NIXTFuW2NIXVtjSF1uMVtDSDJdW0NAQEhdKFtDSDNdKVtOSF1DKD1PKVtDQEBIXTJbQ0gyXVtDSF09W0NIXVtDSDJdW0NIMl0y

> <s_epik_cmdline>
J2VwaWtfcHl0aG9uJywgJy1waCcsICc3LjAnLCAnLXRuJywgJzgnLCAnLW1hJywgJzIwMCcsICctbWV0YWxfYmluZGluZycsICctaW1hZScsICc8aW5maWxlLm1hZT4nLCAnLW9tYWUnLCAnPG91dGZpbGUubWFlPic=

> <r_lp_tautomer_probability>
1

> <r_epik_Ionization_Penalty>
0.640435

> <r_epik_Ionization_Penalty_Charging>
0.640435

> <r_epik_Ionization_Penalty_Neutral>
2.11108e-08

> <r_epik_State_Penalty>
0.658069

> <r_epik_Charging_Adjusted_Penalty>
1.2985

> <i_epik_Tot_Q>
0

> <i_epik_Tot_abs_Q>
0

> <r_epik_Metal_State_Penalty>
0.311689

> <b_epik_Metal_Only>
0

> <s_lp_Force_Field>
OPLS_2005

> <r_lp_Energy>
9.94345

> <b_lp_Chiralities_Consistent>
1

> <s_lp_Variant>
AV-unprocessed.smi:1677-7

> <Gold.Version>
5.8.1

> <Gold.Id.Protein>
6NUR|6NUR_protein|mol2

> <Gold.PLP.Fitness>
45.2320

> <Gold.PLP.PLP>
-36.5784

> <Gold.PLP.part.hbond>
-2.0000

> <Gold.PLP.part.metal>
0.0000

> <Gold.PLP.part.buried>
-2.7174

> <Gold.PLP.part.nonpolar>
-32.7580

> <Gold.PLP.part.repulsive>
0.1682

> <Gold.PLP.ligand.clash>
0.0000

> <Gold.PLP.ligand.torsion>
0.9338

> <Gold.PLP.Chemscore.Hbond>
1.6515

> <Gold.PLP.Chemscore.CHOScore>
1.8468

> <Gold.PLP.Chemscore.Metal>
0.0000

> <Gold.Chemscore.Hbonds>
donor molecule, donor type, donor heavy atom, donor atom, acceptor molecule, acceptor atom, score
      L1  H     9    27       P1  8028  1.00
      P1  H 10752 10763       L1     7  0.66
      L1  C     5    24       P1  7957  1.00
      L1  C     6    25       P1  7949  0.85

> <Gold.PLP.Chemscore.Internal.Correction>
0.0263

> <Gold.Rescore>
     Score         DG    S(hbond)    S(metal)    S(lipo)     H(rot)  DE(clash)    DE(int)     intcor
     15.11     -16.16       1.00        0.00     101.05       1.75       0.27       0.77       ----

> <Gold.Chemscore.Fitness>
15.1133

> <Gold.Chemscore.DG>
-16.1562

> <Gold.Chemscore.ZeroCoef>
-5.4800

> <Gold.Chemscore.Hbond>
0.9961

> <Gold.Chemscore.Metal>
0.0000

> <Gold.Chemscore.Lipo>
101.0495

> <Gold.Chemscore.Internal_Hbond>
0.0000

> <Gold.Chemscore.DEClash>
0.2696

> <Gold.Chemscore.DEInternal>
0.7734

> <Gold.Chemscore.Rot>
1.7475

> <Gold.Chemscore.Internal.Correction>
   9.000000E+99

> <Gold.Chemscore.Hbonds>
donor molecule, donor type, donor heavy atom, donor atom, acceptor molecule, acceptor atom, score
      L1  H     9    27       P1  8028  0.97
      P1  H 10752 10763       L1     7  0.09

> <Gold.Chemscore.Hbond.Weighted>
-3.3270

> <Gold.Chemscore.Metal.Weighted>
-0.0000

> <Gold.Chemscore.Lipo.Weighted>
-11.8228

> <Gold.Chemscore.Internal_Hbond.Weighted>
0.0000

> <Gold.Chemscore.DEClash.Weighted>
0.2696

> <Gold.Chemscore.DEInternal.Weighted>
0.7734

> <Gold.Chemscore.Rot.Weighted>
4.4735

> <Gold.Chemscore.Internal.Correction.Weighted>
   9.000000E+99

> <Gold.Protein.RotatedTorsions>
[ 6907 6896 6895 6894 ] final   32.42 input  -60.11 | X-H torsion
[ 7974 7965 7964 7962 ] final -116.79 input  175.53 | X-H torsion
[ 8008 7997 7996 7995 ] final  -68.73 input   59.86 | X-H torsion
[ 10167 10162 10161 10158 ] final  -91.57 input  -65.29 | X-H torsion
[ 10718 10713 10712 10709 ] final   59.62 input   66.30 | X-H torsion
[ 10763 10752 10751 10750 ] final   76.75 input  -60.55 | X-H torsion
[ 11005 11000 10999 10996 ] final  -93.05 input  -57.11 | X-H torsion

> <Gold.Protein.ActiveResidues>
 VAL166  LYS551  ARG553  GLY616  TRP617  ASP618  TYR619  PRO620  LYS621  CYS622 
 ASP623  PHE694  ASN695  SER759  ASP760  ASP761  ALA762  ILE779  LEU786  VAL792 
 PHE793  MET794  SER795  GLU796  ALA797  LYS798  CYS799  TRP800  GLU811  SER814 

> <Gold.Protein.RotatedAtoms>
  152.0742  134.9513  160.0573 H   0  0  0  0  0  0  0  0  0  0  0  0  # atno 6907 bound_to 6896
  152.0827  133.4156  159.4517 H   0  0  0  0  0  0  0  0  0  0  0  0  # atno 6908 bound_to 6896
  150.6836  134.2883  159.4699 H   0  0  0  0  0  0  0  0  0  0  0  0  # atno 6909 bound_to 6896
  145.0927  140.8500  143.3973 H   0  0  0  0  0  0  0  0  0  0  0  0  # atno 7974 bound_to 7965
  154.4889  140.0867  156.7549 H   0  0  0  0  0  0  0  0  0  0  0  0  # atno 8008 bound_to 7997
  155.4281  140.3448  155.4259 H   0  0  0  0  0  0  0  0  0  0  0  0  # atno 8009 bound_to 7997
  156.1301  140.1499  156.9066 H   0  0  0  0  0  0  0  0  0  0  0  0  # atno 8010 bound_to 7997
  140.3436  143.2929  151.9807 H   0  0  0  0  0  0  0  0  0  0  0  0  # atno 10167 bound_to 10162
  157.5690  130.8893  149.9235 H   0  0  0  0  0  0  0  0  0  0  0  0  # atno 10718 bound_to 10713
  153.0748  135.4939  154.8382 H   0  0  0  0  0  0  0  0  0  0  0  0  # atno 10763 bound_to 10752
  154.7072  135.3013  154.9254 H   0  0  0  0  0  0  0  0  0  0  0  0  # atno 10764 bound_to 10752
  153.9959  135.6772  153.4809 H   0  0  0  0  0  0  0  0  0  0  0  0  # atno 10765 bound_to 10752
  141.1507  133.7861  157.0105 H   0  0  0  0  0  0  0  0  0  0  0  0  # atno 11005 bound_to 11000
  145.1047  139.2798  143.5668 LP  0  0  0  0  0  0  0  0  0  0  0  0  # atno 17320 bound_to 7965
  146.3531  140.0624  142.8628 LP  0  0  0  0  0  0  0  0  0  0  0  0  # atno 17321 bound_to 7965
  139.4837  144.6136  151.7388 LP  0  0  0  0  0  0  0  0  0  0  0  0  # atno 17342 bound_to 10162
  140.5286  144.0766  150.6046 LP  0  0  0  0  0  0  0  0  0  0  0  0  # atno 17343 bound_to 10162
  156.0736  130.3682  150.0723 LP  0  0  0  0  0  0  0  0  0  0  0  0  # atno 17370 bound_to 10713
  156.8879  130.9578  151.3592 LP  0  0  0  0  0  0  0  0  0  0  0  0  # atno 17371 bound_to 10713
  140.0881  134.9609  157.1732 LP  0  0  0  0  0  0  0  0  0  0  0  0  # atno 17394 bound_to 11000
  140.3484  134.2626  155.7202 LP  0  0  0  0  0  0  0  0  0  0  0  0  # atno 17395 bound_to 11000

$$$$
