AV-unprocessed.smi:1602|AV-procd|sdf|6442|dock6
  -GOLD-   22720 7 93D 1   1.00000     0.00000
 Structure written by MMmdl.
 35 36  0  0  0  0  0  0  0  0  2 V2000
  154.0346  140.4282  160.5908 C   0  0  0  0  0  0  0  0  0  0  0  0
  152.9694  139.9067  159.6111 C   0  0  1  0  0  0  0  0  0  0  0  0
  152.2450  141.0311  158.8223 C   0  0  0  0  0  0  0  0  0  0  0  0
  152.1954  142.3348  159.4815 N   0  0  0  0  0  0  0  0  0  0  0  0
  152.6505  143.5545  159.0171 C   0  0  0  0  0  0  0  0  0  0  0  0
  152.4153  144.4808  159.9924 C   0  0  0  0  0  0  0  0  0  0  0  0
  151.8195  143.7238  161.0390 C   0  0  0  0  0  0  0  0  0  0  0  0
  151.6995  142.4421  160.7368 N   0  0  0  0  0  0  0  0  0  0  0  0
  153.5817  138.9664  158.6831 N   0  5  0  0  0  0  0  0  0  0  0  0
  153.0596  137.4319  158.6290 S   0  0  0  0  0  0  0  0  0  0  0  0
  154.1363  136.4369  158.4961 O   0  0  0  0  0  0  0  0  0  0  0  0
  151.9932  137.1613  159.6072 O   0  0  0  0  0  0  0  0  0  0  0  0
  152.2922  137.5085  157.0723 N   0  0  0  0  0  0  0  0  0  0  0  0
  151.4801  136.3441  156.6788 C   0  0  0  0  0  0  0  0  0  0  0  0
  150.6792  136.6271  155.3976 C   0  0  0  0  0  0  0  0  0  0  0  0
  151.5476  137.0580  154.3616 O   0  0  0  0  0  0  0  0  0  0  0  0
  152.1930  138.2740  154.7061 C   0  0  0  0  0  0  0  0  0  0  0  0
  153.0713  138.0741  155.9513 C   0  0  0  0  0  0  0  0  0  0  0  0
  153.6116  141.1739  161.2638 H   0  0  0  0  0  0  0  0  0  0  0  0
  154.8753  140.8873  160.0695 H   0  0  0  0  0  0  0  0  0  0  0  0
  154.4329  139.6226  161.2077 H   0  0  0  0  0  0  0  0  0  0  0  0
  152.2012  139.4097  160.2048 H   0  0  0  0  0  0  0  0  0  0  0  0
  152.6956  141.1510  157.8355 H   0  0  0  0  0  0  0  0  0  0  0  0
  151.2147  140.7241  158.6390 H   0  0  0  0  0  0  0  0  0  0  0  0
  153.0940  143.6593  158.0380 H   0  0  0  0  0  0  0  0  0  0  0  0
  152.6381  145.5369  159.9636 H   0  0  0  0  0  0  0  0  0  0  0  0
  151.4783  144.0641  162.0056 H   0  0  0  0  0  0  0  0  0  0  0  0
  152.1410  135.4898  156.5280 H   0  0  0  0  0  0  0  0  0  0  0  0
  150.7941  136.0810  157.4837 H   0  0  0  0  0  0  0  0  0  0  0  0
  150.1645  135.7227  155.0727 H   0  0  0  0  0  0  0  0  0  0  0  0
  149.9103  137.3795  155.5803 H   0  0  0  0  0  0  0  0  0  0  0  0
  152.8077  138.5970  153.8658 H   0  0  0  0  0  0  0  0  0  0  0  0
  151.4536  139.0585  154.8761 H   0  0  0  0  0  0  0  0  0  0  0  0
  153.5143  139.0281  156.2357 H   0  0  0  0  0  0  0  0  0  0  0  0
  153.8960  137.3986  155.7207 H   0  0  0  0  0  0  0  0  0  0  0  0
  1  2  1  0  0  0  0
  1 19  1  0  0  0  0
  1 20  1  0  0  0  0
  1 21  1  0  0  0  0
  2  3  1  0  0  0  0
  2  9  1  0  0  0  0
  2 22  1  0  0  0  0
  3  4  1  0  0  0  0
  3 23  1  0  0  0  0
  3 24  1  0  0  0  0
  4  8  1  0  0  0  0
  4  5  1  0  0  0  0
  5  6  2  0  0  0  0
  5 25  1  0  0  0  0
  6  7  1  0  0  0  0
  6 26  1  0  0  0  0
  7  8  2  0  0  0  0
  7 27  1  0  0  0  0
  9 10  1  0  0  0  0
 10 11  2  0  0  0  0
 10 12  2  0  0  0  0
 10 13  1  0  0  0  0
 13 18  1  0  0  0  0
 13 14  1  0  0  0  0
 14 15  1  0  0  0  0
 14 28  1  0  0  0  0
 14 29  1  0  0  0  0
 15 16  1  0  0  0  0
 15 30  1  0  0  0  0
 15 31  1  0  0  0  0
 16 17  1  0  0  0  0
 17 18  1  0  0  0  0
 17 32  1  0  0  0  0
 17 33  1  0  0  0  0
 18 34  1  0  0  0  0
 18 35  1  0  0  0  0
M  CHG  1   9  -1
M  END
> <s_m_source_file>
AV-unprocessed.smi

> <i_m_source_file_index>
1602

> <i_lp_mmshare_version>
43012

> <i_f3d_flags>
0

> <s_epik_input>
bjFbY0hdW2NIXVtjSF1uMVtDSDJdW0NAQEhdKFtDSDNdKVtOSF1TKD1PKSg9TylOMltDSDJdW0NIMl1PW0NIMl1bQ0gyXTI=

> <s_epik_cmdline>
J2VwaWtfcHl0aG9uJywgJy1waCcsICc3LjAnLCAnLXRuJywgJzgnLCAnLW1hJywgJzIwMCcsICctbWV0YWxfYmluZGluZycsICctaW1hZScsICc8aW5maWxlLm1hZT4nLCAnLW9tYWUnLCAnPG91dGZpbGUubWFlPic=

> <r_lp_tautomer_probability>
1

> <r_epik_Ionization_Penalty>
1.03144

> <r_epik_Ionization_Penalty_Charging>
1.03142

> <r_epik_Ionization_Penalty_Neutral>
2.21579e-05

> <r_epik_State_Penalty>
1.0826

> <r_epik_Charging_Adjusted_Penalty>
2.11402

> <i_epik_Tot_Q>
-1

> <i_epik_Tot_abs_Q>
1

> <r_epik_Metal_State_Penalty>
0.386234

> <b_epik_Metal_Only>
0

> <s_lp_Force_Field>
OPLS_2005

> <r_lp_Energy>
7.84511

> <b_lp_Chiralities_Consistent>
1

> <s_lp_Variant>
AV-unprocessed.smi:1602-4

> <Gold.Version>
5.8.1

> <Gold.Id.Protein>
6NUR|6NUR_protein|mol2

> <Gold.PLP.Fitness>
44.3767

> <Gold.PLP.PLP>
-33.6125

> <Gold.PLP.part.hbond>
-3.8323

> <Gold.PLP.part.metal>
0.0000

> <Gold.PLP.part.buried>
-5.3137

> <Gold.PLP.part.nonpolar>
-25.8426

> <Gold.PLP.part.repulsive>
0.3985

> <Gold.PLP.ligand.clash>
0.0000

> <Gold.PLP.ligand.torsion>
1.2110

> <Gold.PLP.Chemscore.Hbond>
3.8895

> <Gold.PLP.Chemscore.CHOScore>
0.0000

> <Gold.PLP.Chemscore.Metal>
0.0000

> <Gold.Chemscore.Hbonds>
donor molecule, donor type, donor heavy atom, donor atom, acceptor molecule, acceptor atom, score
      P1  H  6896  6908       L1    12  0.93
      P1  H  6933  6945       L1     8  0.07
      P1  H  7997  8008       L1     9  1.24
      P1  H 10752 10763       L1    16  1.00

> <Gold.PLP.Chemscore.Internal.Correction>
1.5178

> <Gold.Rescore>
     Score         DG    S(hbond)    S(metal)    S(lipo)     H(rot)  DE(clash)    DE(int)     intcor
     17.29     -18.51       2.23        0.00      84.20       1.67       0.06       1.16       ----

> <Gold.Chemscore.Fitness>
17.2872

> <Gold.Chemscore.DG>
-18.5083

> <Gold.Chemscore.ZeroCoef>
-5.4800

> <Gold.Chemscore.Hbond>
2.2302

> <Gold.Chemscore.Metal>
0.0000

> <Gold.Chemscore.Lipo>
84.2011

> <Gold.Chemscore.Internal_Hbond>
0.0000

> <Gold.Chemscore.DEClash>
0.0603

> <Gold.Chemscore.DEInternal>
1.1608

> <Gold.Chemscore.Rot>
1.6688

> <Gold.Chemscore.Internal.Correction>
   9.000000E+99

> <Gold.Chemscore.Hbonds>
donor molecule, donor type, donor heavy atom, donor atom, acceptor molecule, acceptor atom, score
      P1  H  6896  6908       L1    12  0.78
      P1  H  6933  6945       L1     8  0.02
      P1  H  7997  8008       L1     9  0.49
      P1  H 10752 10763       L1    16  0.40

> <Gold.Chemscore.Hbond.Weighted>
-7.4490

> <Gold.Chemscore.Metal.Weighted>
-0.0000

> <Gold.Chemscore.Lipo.Weighted>
-9.8515

> <Gold.Chemscore.Internal_Hbond.Weighted>
0.0000

> <Gold.Chemscore.DEClash.Weighted>
0.0603

> <Gold.Chemscore.DEInternal.Weighted>
1.1608

> <Gold.Chemscore.Rot.Weighted>
4.2722

> <Gold.Chemscore.Internal.Correction.Weighted>
   9.000000E+99

> <Gold.Protein.RotatedTorsions>
[ 6907 6896 6895 6894 ] final -111.65 input  -60.11 | X-H torsion
[ 7974 7965 7964 7962 ] final -177.34 input  175.53 | X-H torsion
[ 8008 7997 7996 7995 ] final  -95.70 input   59.86 | X-H torsion
[ 10167 10162 10161 10158 ] final  -15.70 input  -65.29 | X-H torsion
[ 10718 10713 10712 10709 ] final    8.04 input   66.30 | X-H torsion
[ 10763 10752 10751 10750 ] final   31.31 input  -60.55 | X-H torsion
[ 11005 11000 10999 10996 ] final   82.84 input  -57.11 | X-H torsion

> <Gold.Protein.ActiveResidues>
 VAL166  LYS551  ARG553  GLY616  TRP617  ASP618  TYR619  PRO620  LYS621  CYS622 
 ASP623  PHE694  ASN695  SER759  ASP760  ASP761  ALA762  ILE779  LEU786  VAL792 
 PHE793  MET794  SER795  GLU796  ALA797  LYS798  CYS799  TRP800  GLU811  SER814 

> <Gold.Protein.RotatedAtoms>
  150.7705  133.9204  159.3396 H   0  0  0  0  0  0  0  0  0  0  0  0  # atno 6907 bound_to 6896
  151.7091  135.0914  160.0274 H   0  0  0  0  0  0  0  0  0  0  0  0  # atno 6908 bound_to 6896
  152.3720  133.6393  159.6130 H   0  0  0  0  0  0  0  0  0  0  0  0  # atno 6909 bound_to 6896
  144.7127  140.1034  143.6415 H   0  0  0  0  0  0  0  0  0  0  0  0  # atno 7974 bound_to 7965
  154.7648  140.0478  157.1003 H   0  0  0  0  0  0  0  0  0  0  0  0  # atno 8008 bound_to 7997
  154.9893  140.3111  155.4893 H   0  0  0  0  0  0  0  0  0  0  0  0  # atno 8009 bound_to 7997
  156.2910  140.2221  156.4997 H   0  0  0  0  0  0  0  0  0  0  0  0  # atno 8010 bound_to 7997
  140.7222  143.5192  150.9655 H   0  0  0  0  0  0  0  0  0  0  0  0  # atno 10167 bound_to 10162
  156.9457  130.5878  149.5654 H   0  0  0  0  0  0  0  0  0  0  0  0  # atno 10718 bound_to 10713
  153.0323  135.6442  154.1179 H   0  0  0  0  0  0  0  0  0  0  0  0  # atno 10763 bound_to 10752
  154.0900  135.2867  155.3275 H   0  0  0  0  0  0  0  0  0  0  0  0  # atno 10764 bound_to 10752
  154.6471  135.5439  153.7922 H   0  0  0  0  0  0  0  0  0  0  0  0  # atno 10765 bound_to 10752
  139.9050  134.8101  156.2229 H   0  0  0  0  0  0  0  0  0  0  0  0  # atno 11005 bound_to 11000
  145.9518  139.2739  143.1207 LP  0  0  0  0  0  0  0  0  0  0  0  0  # atno 17320 bound_to 7965
  145.9315  140.9045  143.0354 LP  0  0  0  0  0  0  0  0  0  0  0  0  # atno 17321 bound_to 7965
  139.8908  143.6955  152.3145 LP  0  0  0  0  0  0  0  0  0  0  0  0  # atno 17342 bound_to 10162
  139.7270  144.7590  151.0862 LP  0  0  0  0  0  0  0  0  0  0  0  0  # atno 17343 bound_to 10162
  156.0384  130.5470  150.8712 LP  0  0  0  0  0  0  0  0  0  0  0  0  # atno 17370 bound_to 10713
  157.5755  131.0946  150.9352 LP  0  0  0  0  0  0  0  0  0  0  0  0  # atno 17371 bound_to 10713
  141.0394  133.6946  156.1571 LP  0  0  0  0  0  0  0  0  0  0  0  0  # atno 17394 bound_to 11000
  140.6978  134.4597  157.5587 LP  0  0  0  0  0  0  0  0  0  0  0  0  # atno 17395 bound_to 11000

$$$$
