AV-unprocessed.smi:1290|AV-procd|sdf|5390|dock7
  -GOLD-   22720 4543D 1   1.00000     0.00000
 Structure written by MMmdl.
 38 40  0  0  0  0  0  0  0  0  1 V2000
  154.6037  139.8660  161.3273 C   0  0  0  0  0  0  0  0  0  0  0  0
  153.6929  140.8287  160.6795 N   0  0  0  0  0  0  0  0  0  0  0  0
  153.2228  140.5358  159.4263 C   0  0  0  0  0  0  0  0  0  0  0  0
  153.5032  139.5186  158.7909 O   0  0  0  0  0  0  0  0  0  0  0  0
  152.3303  141.5603  158.8715 C   0  0  0  0  0  0  0  0  0  0  0  0
  152.0026  142.6939  159.5395 C   0  0  0  0  0  0  0  0  0  0  0  0
  151.1506  143.4946  158.7864 N   0  0  0  0  0  0  0  0  0  0  0  0
  151.0072  142.7790  157.6709 C   0  0  0  0  0  0  0  0  0  0  0  0
  151.6788  141.6104  157.6388 N   0  0  0  0  0  0  0  0  0  0  0  0
  151.6870  140.6592  156.5368 C   0  0  0  0  0  0  0  0  0  0  0  0
  150.4620  140.8074  155.6110 C   0  0  1  0  0  0  0  0  0  0  0  0
  150.6432  140.0559  154.4264 O   0  0  0  0  0  0  0  0  0  0  0  0
  149.1771  140.4311  156.3315 C   0  0  0  0  0  0  0  0  0  0  0  0
  148.1665  141.3950  156.5422 C   0  0  0  0  0  0  0  0  0  0  0  0
  146.9759  141.0422  157.2065 C   0  0  0  0  0  0  0  0  0  0  0  0
  146.7879  139.7232  157.6632 C   0  0  0  0  0  0  0  0  0  0  0  0
  145.3296  139.2903  158.4778 Cl  0  0  0  0  0  0  0  0  0  0  0  0
  147.7912  138.7572  157.4529 C   0  0  0  0  0  0  0  0  0  0  0  0
  148.9818  139.1098  156.7880 C   0  0  0  0  0  0  0  0  0  0  0  0
  152.5452  142.8960  160.8350 N   0  0  0  0  0  0  0  0  0  0  0  0
  152.2002  144.1157  161.5707 C   0  0  0  0  0  0  0  0  0  0  0  0
  153.3898  141.9724  161.3981 C   0  0  0  0  0  0  0  0  0  0  0  0
  153.8653  142.1659  162.5208 O   0  0  0  0  0  0  0  0  0  0  0  0
  154.7771  138.9479  160.7649 H   0  0  0  0  0  0  0  0  0  0  0  0
  154.2111  139.5591  162.2981 H   0  0  0  0  0  0  0  0  0  0  0  0
  155.5810  140.3229  161.4898 H   0  0  0  0  0  0  0  0  0  0  0  0
  150.3945  143.1167  156.8478 H   0  0  0  0  0  0  0  0  0  0  0  0
  152.6173  140.7582  155.9791 H   0  0  0  0  0  0  0  0  0  0  0  0
  151.7031  139.6546  156.9618 H   0  0  0  0  0  0  0  0  0  0  0  0
  150.3876  141.8511  155.3025 H   0  0  0  0  0  0  0  0  0  0  0  0
  151.1515  139.2868  154.6344 H   0  0  0  0  0  0  0  0  0  0  0  0
  148.3018  142.4082  156.1926 H   0  0  0  0  0  0  0  0  0  0  0  0
  146.2078  141.7849  157.3645 H   0  0  0  0  0  0  0  0  0  0  0  0
  147.6488  137.7447  157.8010 H   0  0  0  0  0  0  0  0  0  0  0  0
  149.7438  138.3607  156.6306 H   0  0  0  0  0  0  0  0  0  0  0  0
  151.7523  143.8695  162.5346 H   0  0  0  0  0  0  0  0  0  0  0  0
  151.4877  144.7444  161.0372 H   0  0  0  0  0  0  0  0  0  0  0  0
  153.0928  144.7156  161.7528 H   0  0  0  0  0  0  0  0  0  0  0  0
  1  2  1  0  0  0  0
  1 24  1  0  0  0  0
  1 25  1  0  0  0  0
  1 26  1  0  0  0  0
  2 22  1  0  0  0  0
  2  3  1  0  0  0  0
  3  4  2  0  0  0  0
  3  5  1  0  0  0  0
  5  9  1  0  0  0  0
  5  6  2  0  0  0  0
  6  7  1  0  0  0  0
  6 20  1  0  0  0  0
  7  8  2  0  0  0  0
  8  9  1  0  0  0  0
  8 27  1  0  0  0  0
  9 10  1  0  0  0  0
 10 11  1  0  0  0  0
 10 28  1  0  0  0  0
 10 29  1  0  0  0  0
 11 12  1  0  0  0  0
 11 13  1  0  0  0  0
 11 30  1  0  0  0  0
 12 31  1  0  0  0  0
 13 19  1  0  0  0  0
 13 14  2  0  0  0  0
 14 15  1  0  0  0  0
 14 32  1  0  0  0  0
 15 16  2  0  0  0  0
 15 33  1  0  0  0  0
 16 17  1  0  0  0  0
 16 18  1  0  0  0  0
 18 19  2  0  0  0  0
 18 34  1  0  0  0  0
 19 35  1  0  0  0  0
 20 21  1  0  0  0  0
 20 22  1  0  0  0  0
 21 36  1  0  0  0  0
 21 37  1  0  0  0  0
 21 38  1  0  0  0  0
 22 23  2  0  0  0  0
M  END
> <s_m_source_file>
AV-unprocessed.smi

> <i_m_source_file_index>
1290

> <i_lp_mmshare_version>
43012

> <i_f3d_flags>
0

> <s_epik_input>
Tz1jMW4oW0NIM10pYyg9TyluKFtDSDNdKWMoYzEyKW5bY0hdbjJbQ0gyXVtDQEhdKFtPSF0pYzNbY0hdW2NIXWMoQ2wpW2NIXVtjSF0z

> <s_epik_cmdline>
J2VwaWtfcHl0aG9uJywgJy1waCcsICc3LjAnLCAnLXRuJywgJzgnLCAnLW1hJywgJzIwMCcsICctbWV0YWxfYmluZGluZycsICctaW1hZScsICc8aW5maWxlLm1hZT4nLCAnLW9tYWUnLCAnPG91dGZpbGUubWFlPic=

> <r_lp_tautomer_probability>
1

> <r_epik_Ionization_Penalty>
1.48293e-06

> <r_epik_Ionization_Penalty_Charging>
3.74189e-09

> <r_epik_Ionization_Penalty_Neutral>
1.47919e-06

> <r_epik_State_Penalty>
-0

> <r_epik_Charging_Adjusted_Penalty>
3.74189e-09

> <i_epik_Tot_Q>
0

> <i_epik_Tot_abs_Q>
0

> <r_epik_Metal_State_Penalty>
-0

> <b_epik_Metal_Only>
0

> <s_lp_Force_Field>
OPLS_2005

> <r_lp_Energy>
35.8921

> <b_lp_Chiralities_Consistent>
1

> <s_lp_Variant>
AV-unprocessed.smi:1290-2

> <Gold.Version>
5.8.1

> <Gold.Id.Protein>
6NUR|6NUR_protein|mol2

> <Gold.PLP.Fitness>
49.1623

> <Gold.PLP.PLP>
-40.8742

> <Gold.PLP.part.hbond>
-3.0000

> <Gold.PLP.part.metal>
0.0000

> <Gold.PLP.part.buried>
-5.8007

> <Gold.PLP.part.nonpolar>
-31.8587

> <Gold.PLP.part.repulsive>
0.1112

> <Gold.PLP.ligand.clash>
0.0000

> <Gold.PLP.ligand.torsion>
0.3707

> <Gold.PLP.Chemscore.Hbond>
2.0000

> <Gold.PLP.Chemscore.CHOScore>
1.0000

> <Gold.PLP.Chemscore.Metal>
0.0000

> <Gold.Chemscore.Hbonds>
donor molecule, donor type, donor heavy atom, donor atom, acceptor molecule, acceptor atom, score
      P1  H  7989  7998       L1    12  1.00
      P1  H  7997  8008       L1     4  0.81
      L1  C     8    27       P1  8028  1.00

> <Gold.PLP.Chemscore.Internal.Correction>
0.0295

> <Gold.Rescore>
     Score         DG    S(hbond)    S(metal)    S(lipo)     H(rot)  DE(clash)    DE(int)     intcor
      9.58     -10.13       1.18        0.00      53.04       2.15       0.13       0.41       ----

> <Gold.Chemscore.Fitness>
9.5831

> <Gold.Chemscore.DG>
-10.1324

> <Gold.Chemscore.ZeroCoef>
-5.4800

> <Gold.Chemscore.Hbond>
1.1807

> <Gold.Chemscore.Metal>
0.0000

> <Gold.Chemscore.Lipo>
53.0438

> <Gold.Chemscore.Internal_Hbond>
0.0000

> <Gold.Chemscore.DEClash>
0.1345

> <Gold.Chemscore.DEInternal>
0.4148

> <Gold.Chemscore.Rot>
2.1474

> <Gold.Chemscore.Internal.Correction>
   9.000000E+99

> <Gold.Chemscore.Hbonds>
donor molecule, donor type, donor heavy atom, donor atom, acceptor molecule, acceptor atom, score
      P1  H  7989  7998       L1    12  0.22
      P1  H  7997  8008       L1     4  0.58

> <Gold.Chemscore.Hbond.Weighted>
-3.9437

> <Gold.Chemscore.Metal.Weighted>
-0.0000

> <Gold.Chemscore.Lipo.Weighted>
-6.2061

> <Gold.Chemscore.Internal_Hbond.Weighted>
0.0000

> <Gold.Chemscore.DEClash.Weighted>
0.1345

> <Gold.Chemscore.DEInternal.Weighted>
0.4148

> <Gold.Chemscore.Rot.Weighted>
5.4974

> <Gold.Chemscore.Internal.Correction.Weighted>
   9.000000E+99

> <Gold.Protein.RotatedTorsions>
[ 6907 6896 6895 6894 ] final   90.55 input  -60.11 | X-H torsion
[ 7974 7965 7964 7962 ] final   19.20 input  175.53 | X-H torsion
[ 8008 7997 7996 7995 ] final  -92.81 input   59.86 | X-H torsion
[ 10167 10162 10161 10158 ] final -156.50 input  -65.29 | X-H torsion
[ 10718 10713 10712 10709 ] final   17.27 input   66.30 | X-H torsion
[ 10763 10752 10751 10750 ] final  158.23 input  -60.55 | X-H torsion
[ 11005 11000 10999 10996 ] final   20.53 input  -57.11 | X-H torsion

> <Gold.Protein.ActiveResidues>
 VAL166  LYS551  ARG553  GLY616  TRP617  ASP618  TYR619  PRO620  LYS621  CYS622 
 ASP623  PHE694  ASN695  SER759  ASP760  ASP761  ALA762  ILE779  LEU786  VAL792 
 PHE793  MET794  SER795  GLU796  ALA797  LYS798  CYS799  TRP800  GLU811  SER814 

> <Gold.Protein.RotatedAtoms>
  152.5445  134.1795  159.8629 H   0  0  0  0  0  0  0  0  0  0  0  0  # atno 6907 bound_to 6896
  151.1798  133.4725  159.2601 H   0  0  0  0  0  0  0  0  0  0  0  0  # atno 6908 bound_to 6896
  151.1189  135.0080  159.8585 H   0  0  0  0  0  0  0  0  0  0  0  0  # atno 6909 bound_to 6896
  146.2158  139.8347  142.8653 H   0  0  0  0  0  0  0  0  0  0  0  0  # atno 7974 bound_to 7965
  154.7277  140.0505  157.0698 H   0  0  0  0  0  0  0  0  0  0  0  0  # atno 8008 bound_to 7997
  155.0343  140.3161  155.4728 H   0  0  0  0  0  0  0  0  0  0  0  0  # atno 8009 bound_to 7997
  156.2833  140.2144  156.5465 H   0  0  0  0  0  0  0  0  0  0  0  0  # atno 8010 bound_to 7997
  139.6845  143.9524  152.2354 H   0  0  0  0  0  0  0  0  0  0  0  0  # atno 10167 bound_to 10162
  157.0798  130.6383  149.5824 H   0  0  0  0  0  0  0  0  0  0  0  0  # atno 10718 bound_to 10713
  154.2128  135.2785  155.2952 H   0  0  0  0  0  0  0  0  0  0  0  0  # atno 10763 bound_to 10752
  154.5764  135.5603  153.7147 H   0  0  0  0  0  0  0  0  0  0  0  0  # atno 10764 bound_to 10752
  153.0060  135.6334  154.2267 H   0  0  0  0  0  0  0  0  0  0  0  0  # atno 10765 bound_to 10752
  140.4016  134.1713  155.7664 H   0  0  0  0  0  0  0  0  0  0  0  0  # atno 11005 bound_to 11000
  145.2961  141.0181  143.3635 LP  0  0  0  0  0  0  0  0  0  0  0  0  # atno 17320 bound_to 7965
  144.9041  139.4612  143.6618 LP  0  0  0  0  0  0  0  0  0  0  0  0  # atno 17321 bound_to 7965
  139.9323  144.6733  150.8350 LP  0  0  0  0  0  0  0  0  0  0  0  0  # atno 17342 bound_to 10162
  140.7663  143.3300  151.2431 LP  0  0  0  0  0  0  0  0  0  0  0  0  # atno 17343 bound_to 10162
  155.9927  130.4985  150.7350 LP  0  0  0  0  0  0  0  0  0  0  0  0  # atno 17370 bound_to 10713
  157.4810  131.0902  151.0536 LP  0  0  0  0  0  0  0  0  0  0  0  0  # atno 17371 bound_to 10713
  141.1855  133.8323  157.1103 LP  0  0  0  0  0  0  0  0  0  0  0  0  # atno 17394 bound_to 11000
  140.0332  134.9891  157.0821 LP  0  0  0  0  0  0  0  0  0  0  0  0  # atno 17395 bound_to 11000

$$$$
