AV-unprocessed.smi:2100|AV-procd|sdf|8574|dock7
  -GOLD-   2272011303D 1   1.00000     0.00000
 Structure written by MMmdl.
 41 42  0  0  0  0  0  0  0  0  1 V2000
  147.8557  141.9873  154.2733 C   0  0  0  0  0  0  0  0  0  0  0  0
  148.4946  140.6138  154.0414 C   0  0  1  0  0  0  0  0  0  0  0  0
  149.7889  140.4322  154.8546 C   0  0  0  0  0  0  0  0  0  0  0  0
  150.3152  139.0632  154.7139 N   0  0  0  0  0  0  0  0  0  0  0  0
  151.9003  138.7504  155.3353 S   0  0  0  0  0  0  0  0  0  0  0  0
  152.2496  137.3516  155.0441 O   0  0  0  0  0  0  0  0  0  0  0  0
  152.7929  139.8501  154.9376 O   0  0  0  0  0  0  0  0  0  0  0  0
  151.5811  138.9069  157.0250 N   0  0  0  0  0  0  0  0  0  0  0  0
  152.3443  139.8628  157.8301 C   0  0  0  0  0  0  0  0  0  0  0  0
  151.8606  141.3044  157.6056 C   0  0  0  0  0  0  0  0  0  0  0  0
  152.0190  142.1619  158.8468 C   0  0  0  0  0  0  0  0  0  0  0  0
  151.7891  143.5533  158.7953 C   0  0  0  0  0  0  0  0  0  0  0  0
  151.9528  144.3046  159.9752 C   0  0  0  0  0  0  0  0  0  0  0  0
  152.3402  143.6396  161.1545 C   0  0  0  0  0  0  0  0  0  0  0  0
  152.5481  142.2470  161.1009 C   0  0  0  0  0  0  0  0  0  0  0  0
  152.3931  141.5173  159.9750 N   0  0  0  0  0  0  0  0  0  0  0  0
  149.2980  138.0263  154.9484 C   0  0  0  0  0  0  0  0  0  0  0  0
  148.0210  138.3065  154.1347 C   0  0  1  0  0  0  0  0  0  0  0  0
  146.8982  137.3170  154.4657 C   0  0  0  0  0  0  0  0  0  0  0  0
  147.5543  139.6180  154.4192 O   0  0  0  0  0  0  0  0  0  0  0  0
  148.5379  142.7901  153.9928 H   0  0  0  0  0  0  0  0  0  0  0  0
  147.5873  142.1263  155.3209 H   0  0  0  0  0  0  0  0  0  0  0  0
  146.9485  142.0999  153.6793 H   0  0  0  0  0  0  0  0  0  0  0  0
  148.7156  140.5139  152.9771 H   0  0  0  0  0  0  0  0  0  0  0  0
  150.5347  141.1552  154.5252 H   0  0  0  0  0  0  0  0  0  0  0  0
  149.6019  140.6278  155.9115 H   0  0  0  0  0  0  0  0  0  0  0  0
  150.5830  138.9115  157.2326 H   0  0  0  0  0  0  0  0  0  0  0  0
  152.2722  139.5867  158.8829 H   0  0  0  0  0  0  0  0  0  0  0  0
  153.3952  139.7811  157.5514 H   0  0  0  0  0  0  0  0  0  0  0  0
  152.4106  141.7594  156.7809 H   0  0  0  0  0  0  0  0  0  0  0  0
  150.8092  141.3141  157.3167 H   0  0  0  0  0  0  0  0  0  0  0  0
  151.4946  144.0354  157.8748 H   0  0  0  0  0  0  0  0  0  0  0  0
  151.7852  145.3715  159.9753 H   0  0  0  0  0  0  0  0  0  0  0  0
  152.4756  144.1837  162.0775 H   0  0  0  0  0  0  0  0  0  0  0  0
  152.8472  141.7048  161.9857 H   0  0  0  0  0  0  0  0  0  0  0  0
  149.7008  137.0499  154.6779 H   0  0  0  0  0  0  0  0  0  0  0  0
  149.0710  137.9943  156.0150 H   0  0  0  0  0  0  0  0  0  0  0  0
  148.2433  138.2291  153.0689 H   0  0  0  0  0  0  0  0  0  0  0  0
  147.2009  136.2927  154.2469 H   0  0  0  0  0  0  0  0  0  0  0  0
  146.0046  137.5314  153.8790 H   0  0  0  0  0  0  0  0  0  0  0  0
  146.6249  137.3677  155.5200 H   0  0  0  0  0  0  0  0  0  0  0  0
  1  2  1  0  0  0  0
  1 21  1  0  0  0  0
  1 22  1  0  0  0  0
  1 23  1  0  0  0  0
  2 20  1  0  0  0  0
  2  3  1  0  0  0  0
  2 24  1  0  0  0  0
  3  4  1  0  0  0  0
  3 25  1  0  0  0  0
  3 26  1  0  0  0  0
  4  5  1  0  0  0  0
  4 17  1  0  0  0  0
  5  6  2  0  0  0  0
  5  7  2  0  0  0  0
  5  8  1  0  0  0  0
  8  9  1  0  0  0  0
  8 27  1  0  0  0  0
  9 10  1  0  0  0  0
  9 28  1  0  0  0  0
  9 29  1  0  0  0  0
 10 11  1  0  0  0  0
 10 30  1  0  0  0  0
 10 31  1  0  0  0  0
 11 16  1  0  0  0  0
 11 12  2  0  0  0  0
 12 13  1  0  0  0  0
 12 32  1  0  0  0  0
 13 14  2  0  0  0  0
 13 33  1  0  0  0  0
 14 15  1  0  0  0  0
 14 34  1  0  0  0  0
 15 16  2  0  0  0  0
 15 35  1  0  0  0  0
 17 18  1  0  0  0  0
 17 36  1  0  0  0  0
 17 37  1  0  0  0  0
 18 19  1  0  0  0  0
 18 20  1  0  0  0  0
 18 38  1  0  0  0  0
 19 39  1  0  0  0  0
 19 40  1  0  0  0  0
 19 41  1  0  0  0  0
M  END
> <s_m_source_file>
AV-unprocessed.smi

> <i_m_source_file_index>
2100

> <i_lp_mmshare_version>
43012

> <i_f3d_flags>
0

> <s_epik_input>
W0NIM11bQ0BASF0xW0NIMl1OKFtDSDJdW0NASF0oTzEpW0NIM10pUyg9TykoPU8pW05IXVtDSDJdW0NIMl1jMltjSF1bY0hdW2NIXVtjSF1uMg==

> <s_epik_cmdline>
J2VwaWtfcHl0aG9uJywgJy1waCcsICc3LjAnLCAnLXRuJywgJzgnLCAnLW1hJywgJzIwMCcsICctbWV0YWxfYmluZGluZycsICctaW1hZScsICc8aW5maWxlLm1hZT4nLCAnLW9tYWUnLCAnPG91dGZpbGUubWFlPic=

> <r_epik_Ionization_Penalty>
0.085378

> <r_epik_Ionization_Penalty_Charging>
0

> <r_epik_Ionization_Penalty_Neutral>
0.085378

> <r_epik_State_Penalty>
0.0441186

> <r_epik_Charging_Adjusted_Penalty>
0.0441186

> <i_epik_Tot_Q>
0

> <i_epik_Tot_abs_Q>
0

> <r_epik_Metal_State_Penalty>
0.24397

> <b_epik_Metal_Only>
0

> <s_lp_Force_Field>
OPLS_2005

> <r_lp_Energy>
5.36855

> <b_lp_Chiralities_Consistent>
1

> <s_lp_Variant>
AV-unprocessed.smi:2100-2

> <Gold.Version>
5.8.1

> <Gold.Id.Protein>
6NUR|6NUR_protein|mol2

> <Gold.PLP.Fitness>
42.8147

> <Gold.PLP.PLP>
-36.6674

> <Gold.PLP.part.hbond>
-3.0000

> <Gold.PLP.part.metal>
0.0000

> <Gold.PLP.part.buried>
-4.6844

> <Gold.PLP.part.nonpolar>
-29.2193

> <Gold.PLP.part.repulsive>
0.3177

> <Gold.PLP.ligand.clash>
0.0000

> <Gold.PLP.ligand.torsion>
0.6952

> <Gold.PLP.Chemscore.Hbond>
2.2758

> <Gold.PLP.Chemscore.CHOScore>
0.0000

> <Gold.PLP.Chemscore.Metal>
0.0000

> <Gold.Chemscore.Hbonds>
donor molecule, donor type, donor heavy atom, donor atom, acceptor molecule, acceptor atom, score
      P1  H  7989  7998       L1     7  0.41
      P1  H  7997  8008       L1     7  1.00
      P1  H 10752 10765       L1     6  0.74

> <Gold.PLP.Chemscore.Internal.Correction>
0.7102

> <Gold.Rescore>
     Score         DG    S(hbond)    S(metal)    S(lipo)     H(rot)  DE(clash)    DE(int)     intcor
     18.80     -19.49       2.06        0.00      98.27       1.71       0.01       0.69       ----

> <Gold.Chemscore.Fitness>
18.7986

> <Gold.Chemscore.DG>
-19.4940

> <Gold.Chemscore.ZeroCoef>
-5.4800

> <Gold.Chemscore.Hbond>
2.0610

> <Gold.Chemscore.Metal>
0.0000

> <Gold.Chemscore.Lipo>
98.2708

> <Gold.Chemscore.Internal_Hbond>
0.0000

> <Gold.Chemscore.DEClash>
0.0069

> <Gold.Chemscore.DEInternal>
0.6884

> <Gold.Chemscore.Rot>
1.7060

> <Gold.Chemscore.Internal.Correction>
   9.000000E+99

> <Gold.Chemscore.Hbonds>
donor molecule, donor type, donor heavy atom, donor atom, acceptor molecule, acceptor atom, score
      P1  H  7989  7998       L1     7  0.18
      P1  H  7997  8008       L1     7  0.98
      P1  H 10752 10765       L1     6  0.73

> <Gold.Chemscore.Hbond.Weighted>
-6.8837

> <Gold.Chemscore.Metal.Weighted>
-0.0000

> <Gold.Chemscore.Lipo.Weighted>
-11.4977

> <Gold.Chemscore.Internal_Hbond.Weighted>
0.0000

> <Gold.Chemscore.DEClash.Weighted>
0.0069

> <Gold.Chemscore.DEInternal.Weighted>
0.6884

> <Gold.Chemscore.Rot.Weighted>
4.3674

> <Gold.Chemscore.Internal.Correction.Weighted>
   9.000000E+99

> <Gold.Protein.RotatedTorsions>
[ 6907 6896 6895 6894 ] final  -81.00 input  -60.11 | X-H torsion
[ 7974 7965 7964 7962 ] final   76.15 input  175.53 | X-H torsion
[ 8008 7997 7996 7995 ] final  -12.50 input   59.86 | X-H torsion
[ 10167 10162 10161 10158 ] final -153.25 input  -65.29 | X-H torsion
[ 10718 10713 10712 10709 ] final   41.91 input   66.30 | X-H torsion
[ 10763 10752 10751 10750 ] final -174.45 input  -60.55 | X-H torsion
[ 11005 11000 10999 10996 ] final  177.75 input  -57.11 | X-H torsion

> <Gold.Protein.ActiveResidues>
 VAL166  LYS551  ARG553  GLY616  TRP617  ASP618  TYR619  PRO620  LYS621  CYS622 
 ASP623  PHE694  ASN695  SER759  ASP760  ASP761  ALA762  ILE779  LEU786  VAL792 
 PHE793  MET794  SER795  GLU796  ALA797  LYS798  CYS799  TRP800  GLU811  SER814 

> <Gold.Protein.RotatedAtoms>
  150.6919  134.3884  159.5064 H   0  0  0  0  0  0  0  0  0  0  0  0  # atno 6907 bound_to 6896
  152.1675  134.8858  160.0546 H   0  0  0  0  0  0  0  0  0  0  0  0  # atno 6908 bound_to 6896
  151.9897  133.3752  159.4176 H   0  0  0  0  0  0  0  0  0  0  0  0  # atno 6909 bound_to 6896
  145.7065  139.2600  143.1675 H   0  0  0  0  0  0  0  0  0  0  0  0  # atno 7974 bound_to 7965
  154.5372  140.2274  155.8702 H   0  0  0  0  0  0  0  0  0  0  0  0  # atno 8008 bound_to 7997
  156.1823  140.3097  155.9135 H   0  0  0  0  0  0  0  0  0  0  0  0  # atno 8009 bound_to 7997
  155.3330  140.0446  157.3033 H   0  0  0  0  0  0  0  0  0  0  0  0  # atno 8010 bound_to 7997
  139.7112  143.9105  152.2469 H   0  0  0  0  0  0  0  0  0  0  0  0  # atno 10167 bound_to 10162
  157.3989  130.7849  149.7332 H   0  0  0  0  0  0  0  0  0  0  0  0  # atno 10718 bound_to 10713
  154.5961  135.2850  155.0585 H   0  0  0  0  0  0  0  0  0  0  0  0  # atno 10763 bound_to 10752
  154.1867  135.6447  153.5052 H   0  0  0  0  0  0  0  0  0  0  0  0  # atno 10764 bound_to 10752
  153.0139  135.5436  154.6663 H   0  0  0  0  0  0  0  0  0  0  0  0  # atno 10765 bound_to 10752
  140.3876  134.6891  157.4488 H   0  0  0  0  0  0  0  0  0  0  0  0  # atno 11005 bound_to 11000
  146.0751  140.7826  142.9669 LP  0  0  0  0  0  0  0  0  0  0  0  0  # atno 17320 bound_to 7965
  144.6954  140.3402  143.7200 LP  0  0  0  0  0  0  0  0  0  0  0  0  # atno 17321 bound_to 7965
  139.8975  144.6931  150.8702 LP  0  0  0  0  0  0  0  0  0  0  0  0  # atno 17342 bound_to 10162
  140.7733  143.3539  151.1959 LP  0  0  0  0  0  0  0  0  0  0  0  0  # atno 17343 bound_to 10162
  155.9818  130.4016  150.3452 LP  0  0  0  0  0  0  0  0  0  0  0  0  # atno 17370 bound_to 10713
  157.1577  131.0337  151.2855 LP  0  0  0  0  0  0  0  0  0  0  0  0  # atno 17371 bound_to 10713
  140.0431  134.6238  155.8955 LP  0  0  0  0  0  0  0  0  0  0  0  0  # atno 17394 bound_to 11000
  141.1902  133.6568  156.5402 LP  0  0  0  0  0  0  0  0  0  0  0  0  # atno 17395 bound_to 11000

$$$$
