AV-unprocessed.smi:3116|AV-procd|sdf|11864|dock1
  -GOLD-   2272017243D 1   1.00000     0.00000
 Structure written by MMmdl.
 34 34  0  0  0  0  0  0  0  0  2 V2000
  146.8261  139.1226  151.3485 C   0  0  0  0  0  0  0  0  0  0  0  0
  147.0635  138.9841  152.8602 C   0  0  2  0  0  0  0  0  0  0  0  0
  148.4992  138.7147  153.1073 N   0  3  0  0  0  0  0  0  0  0  0  0
  148.9995  138.9562  154.4843 C   0  0  1  0  0  0  0  0  0  0  0  0
  148.6450  137.7684  155.4000 C   0  0  0  0  0  0  0  0  0  0  0  0
  150.5238  139.2428  154.4381 C   0  0  2  0  0  0  0  0  0  0  0  0
  151.3961  137.9813  154.5842 C   0  0  0  0  0  0  0  0  0  0  0  0
  150.8944  140.2198  155.4570 N   0  0  0  0  0  0  0  0  0  0  0  0
  151.7908  140.0884  156.4998 C   0  0  0  0  0  0  0  0  0  0  0  0
  151.7621  141.2522  157.2130 C   0  0  0  0  0  0  0  0  0  0  0  0
  150.8001  142.0451  156.5279 C   0  0  0  0  0  0  0  0  0  0  0  0
  150.2764  141.4214  155.4854 N   0  0  0  0  0  0  0  0  0  0  0  0
  146.1776  137.8684  153.4314 C   0  0  0  0  0  0  0  0  0  0  0  0
  146.3997  136.6286  152.9879 N   0  0  0  0  0  0  0  0  0  0  0  0
  145.3089  138.1177  154.2657 O   0  0  0  0  0  0  0  0  0  0  0  0
  145.7841  139.3581  151.1280 H   0  0  0  0  0  0  0  0  0  0  0  0
  147.0799  138.2047  150.8164 H   0  0  0  0  0  0  0  0  0  0  0  0
  147.4360  139.9244  150.9309 H   0  0  0  0  0  0  0  0  0  0  0  0
  146.7858  139.9291  153.3303 H   0  0  0  0  0  0  0  0  0  0  0  0
  148.7130  137.7680  152.8257 H   0  0  0  0  0  0  0  0  0  0  0  0
  148.5092  139.8500  154.8732 H   0  0  0  0  0  0  0  0  0  0  0  0
  148.9595  137.9415  156.4285 H   0  0  0  0  0  0  0  0  0  0  0  0
  149.1164  136.8472  155.0556 H   0  0  0  0  0  0  0  0  0  0  0  0
  147.5694  137.5976  155.4359 H   0  0  0  0  0  0  0  0  0  0  0  0
  150.7578  139.6801  153.4652 H   0  0  0  0  0  0  0  0  0  0  0  0
  151.2866  137.3143  153.7295 H   0  0  0  0  0  0  0  0  0  0  0  0
  151.1418  137.4176  155.4823 H   0  0  0  0  0  0  0  0  0  0  0  0
  152.4531  138.2432  154.6447 H   0  0  0  0  0  0  0  0  0  0  0  0
  152.3678  139.1875  156.6490 H   0  0  0  0  0  0  0  0  0  0  0  0
  152.3383  141.4993  158.0924 H   0  0  0  0  0  0  0  0  0  0  0  0
  150.4645  143.0452  156.7594 H   0  0  0  0  0  0  0  0  0  0  0  0
  145.8412  135.8588  153.3268 H   0  0  0  0  0  0  0  0  0  0  0  0
  147.1268  136.4646  152.3058 H   0  0  0  0  0  0  0  0  0  0  0  0
  149.0158  139.3418  152.5067 H   0  0  0  0  0  0  0  0  0  0  0  0
  1  2  1  0  0  0  0
  1 16  1  0  0  0  0
  1 17  1  0  0  0  0
  1 18  1  0  0  0  0
  2  3  1  0  0  0  0
  2 13  1  0  0  0  0
  2 19  1  0  0  0  0
  3  4  1  0  0  0  0
  3 20  1  0  0  0  0
  3 34  1  0  0  0  0
  4  5  1  0  0  0  0
  4  6  1  0  0  0  0
  4 21  1  0  0  0  0
  5 22  1  0  0  0  0
  5 23  1  0  0  0  0
  5 24  1  0  0  0  0
  6  7  1  0  0  0  0
  6  8  1  0  0  0  0
  6 25  1  0  0  0  0
  7 26  1  0  0  0  0
  7 27  1  0  0  0  0
  7 28  1  0  0  0  0
  8 12  1  0  0  0  0
  8  9  1  0  0  0  0
  9 10  2  0  0  0  0
  9 29  1  0  0  0  0
 10 11  1  0  0  0  0
 10 30  1  0  0  0  0
 11 12  2  0  0  0  0
 11 31  1  0  0  0  0
 13 14  1  0  0  0  0
 13 15  2  0  0  0  0
 14 32  1  0  0  0  0
 14 33  1  0  0  0  0
M  CHG  1   3   1
M  END
> <s_m_source_file>
AV-unprocessed.smi

> <i_m_source_file_index>
3116

> <i_lp_mmshare_version>
43012

> <i_f3d_flags>
0

> <s_epik_input>
W05IMl1DKD1PKVtDQEhdKFtDSDNdKVtOSF1bQ0BIXShbQ0gzXSlbQ0BIXShbQ0gzXSluMVtjSF1bY0hdW2NIXW4x

> <s_epik_cmdline>
J2VwaWtfcHl0aG9uJywgJy1waCcsICc3LjAnLCAnLXRuJywgJzgnLCAnLW1hJywgJzIwMCcsICctbWV0YWxfYmluZGluZycsICctaW1hZScsICc8aW5maWxlLm1hZT4nLCAnLW9tYWUnLCAnPG91dGZpbGUubWFlPic=

> <r_lp_tautomer_probability>
1

> <r_epik_Ionization_Penalty>
0.15658

> <r_epik_Ionization_Penalty_Charging>
0.156568

> <r_epik_Ionization_Penalty_Neutral>
1.19778e-05

> <r_epik_State_Penalty>
0.145866

> <r_epik_Charging_Adjusted_Penalty>
0.302434

> <i_epik_Tot_Q>
1

> <i_epik_Tot_abs_Q>
1

> <r_epik_Metal_State_Penalty>
0.146064

> <b_epik_Metal_Only>
0

> <s_lp_Force_Field>
OPLS_2005

> <r_lp_Energy>
10.2724

> <b_lp_Chiralities_Consistent>
1

> <s_lp_Variant>
AV-unprocessed.smi:3116-3

> <Gold.Version>
5.8.1

> <Gold.Id.Protein>
6NUR|6NUR_protein|mol2

> <Gold.PLP.Fitness>
41.2977

> <Gold.PLP.PLP>
-28.4711

> <Gold.PLP.part.hbond>
-3.0847

> <Gold.PLP.part.metal>
0.0000

> <Gold.PLP.part.buried>
-0.1085

> <Gold.PLP.part.nonpolar>
-24.2317

> <Gold.PLP.part.repulsive>
0.2773

> <Gold.PLP.ligand.clash>
0.0000

> <Gold.PLP.ligand.torsion>
1.2136

> <Gold.PLP.Chemscore.Hbond>
4.0000

> <Gold.PLP.Chemscore.CHOScore>
1.0000

> <Gold.PLP.Chemscore.Metal>
0.0000

> <Gold.Chemscore.Hbonds>
donor molecule, donor type, donor heavy atom, donor atom, acceptor molecule, acceptor atom, score
      L1  H     3    20       P1  7948  2.00
      L1  H     3    34       P1  7957  1.00
      L1  H    14    33       P1  7948  1.00
      L1  C    11    31       P1  8028  0.96

> <Gold.PLP.Chemscore.Internal.Correction>
0.2538

> <Gold.Rescore>
     Score         DG    S(hbond)    S(metal)    S(lipo)     H(rot)  DE(clash)    DE(int)     intcor
     15.47     -16.35       2.99        0.00      61.19       2.45       0.22       0.66       ----

> <Gold.Chemscore.Fitness>
15.4678

> <Gold.Chemscore.DG>
-16.3519

> <Gold.Chemscore.ZeroCoef>
-5.4800

> <Gold.Chemscore.Hbond>
2.9868

> <Gold.Chemscore.Metal>
0.0000

> <Gold.Chemscore.Lipo>
61.1899

> <Gold.Chemscore.Internal_Hbond>
0.0000

> <Gold.Chemscore.DEClash>
0.2200

> <Gold.Chemscore.DEInternal>
0.6642

> <Gold.Chemscore.Rot>
2.4465

> <Gold.Chemscore.Internal.Correction>
   9.000000E+99

> <Gold.Chemscore.Hbonds>
donor molecule, donor type, donor heavy atom, donor atom, acceptor molecule, acceptor atom, score
      L1  H     3    20       P1  7948  1.00
      L1  H     3    34       P1  7957  0.99
      L1  H    14    33       P1  7948  0.96

> <Gold.Chemscore.Hbond.Weighted>
-9.9758

> <Gold.Chemscore.Metal.Weighted>
-0.0000

> <Gold.Chemscore.Lipo.Weighted>
-7.1592

> <Gold.Chemscore.Internal_Hbond.Weighted>
0.0000

> <Gold.Chemscore.DEClash.Weighted>
0.2200

> <Gold.Chemscore.DEInternal.Weighted>
0.6642

> <Gold.Chemscore.Rot.Weighted>
6.2631

> <Gold.Chemscore.Internal.Correction.Weighted>
   9.000000E+99

> <Gold.Protein.RotatedTorsions>
[ 6907 6896 6895 6894 ] final  -55.72 input  -60.11 | X-H torsion
[ 7974 7965 7964 7962 ] final -141.84 input  175.53 | X-H torsion
[ 8008 7997 7996 7995 ] final  167.98 input   59.86 | X-H torsion
[ 10167 10162 10161 10158 ] final   47.23 input  -65.29 | X-H torsion
[ 10718 10713 10712 10709 ] final  156.41 input   66.30 | X-H torsion
[ 10763 10752 10751 10750 ] final  -17.09 input  -60.55 | X-H torsion
[ 11005 11000 10999 10996 ] final -158.48 input  -57.11 | X-H torsion

> <Gold.Protein.ActiveResidues>
 VAL166  LYS551  ARG553  GLY616  TRP617  ASP618  TYR619  PRO620  LYS621  CYS622 
 ASP623  PHE694  ASN695  SER759  ASP760  ASP761  ALA762  ILE779  LEU786  VAL792 
 PHE793  MET794  SER795  GLU796  ALA797  LYS798  CYS799  TRP800  GLU811  SER814 

> <Gold.Protein.RotatedAtoms>
  150.8228  134.7444  159.6786 H   0  0  0  0  0  0  0  0  0  0  0  0  # atno 6907 bound_to 6896
  152.4342  134.5716  159.9932 H   0  0  0  0  0  0  0  0  0  0  0  0  # atno 6908 bound_to 6896
  151.5896  133.3330  159.3061 H   0  0  0  0  0  0  0  0  0  0  0  0  # atno 6909 bound_to 6896
  144.8488  140.6031  143.5403 H   0  0  0  0  0  0  0  0  0  0  0  0  # atno 7974 bound_to 7965
  156.1586  140.1602  156.8650 H   0  0  0  0  0  0  0  0  0  0  0  0  # atno 8008 bound_to 7997
  154.5139  140.0794  156.8079 H   0  0  0  0  0  0  0  0  0  0  0  0  # atno 8009 bound_to 7997
  155.3752  140.3402  155.4247 H   0  0  0  0  0  0  0  0  0  0  0  0  # atno 8010 bound_to 7997
  140.3058  144.2880  150.6209 H   0  0  0  0  0  0  0  0  0  0  0  0  # atno 10167 bound_to 10162
  157.2053  131.0685  151.2001 H   0  0  0  0  0  0  0  0  0  0  0  0  # atno 10718 bound_to 10713
  153.5686  135.7008  153.5515 H   0  0  0  0  0  0  0  0  0  0  0  0  # atno 10763 bound_to 10752
  153.3365  135.4033  155.1537 H   0  0  0  0  0  0  0  0  0  0  0  0  # atno 10764 bound_to 10752
  154.8637  135.3731  154.5207 H   0  0  0  0  0  0  0  0  0  0  0  0  # atno 10765 bound_to 10752
  140.6532  134.4429  157.5235 H   0  0  0  0  0  0  0  0  0  0  0  0  # atno 11005 bound_to 11000
  145.4541  139.1520  143.3902 LP  0  0  0  0  0  0  0  0  0  0  0  0  # atno 17320 bound_to 7965
  146.2767  140.4669  142.8792 LP  0  0  0  0  0  0  0  0  0  0  0  0  # atno 17321 bound_to 7965
  140.5611  143.2192  151.7763 LP  0  0  0  0  0  0  0  0  0  0  0  0  # atno 17342 bound_to 10162
  139.4904  144.4347  151.9833 LP  0  0  0  0  0  0  0  0  0  0  0  0  # atno 17343 bound_to 10162
  157.3726  130.7189  149.6575 LP  0  0  0  0  0  0  0  0  0  0  0  0  # atno 17370 bound_to 10713
  155.9696  130.4194  150.4376 LP  0  0  0  0  0  0  0  0  0  0  0  0  # atno 17371 bound_to 10713
  139.9038  134.8494  156.1785 LP  0  0  0  0  0  0  0  0  0  0  0  0  # atno 17394 bound_to 11000
  141.0521  133.6883  156.1792 LP  0  0  0  0  0  0  0  0  0  0  0  0  # atno 17395 bound_to 11000

$$$$
