AV-unprocessed.smi:3039|AV-procd|sdf|11592|dock10
  -GOLD-   2272016573D 1   1.00000     0.00000
 Structure written by MMmdl.
 38 39  0  0  0  0  0  0  0  0  1 V2000
  144.9043  136.4029  153.5855 O   0  0  0  0  0  0  0  0  0  0  0  0
  144.2856  135.3414  153.6576 C   0  0  0  0  0  0  0  0  0  0  0  0
  142.9975  135.2584  154.4776 C   0  0  0  0  0  0  0  0  0  0  0  0
  141.9891  136.2521  153.9646 C   0  0  0  0  0  0  0  0  0  0  0  0
  142.1876  137.3123  153.0369 C   0  0  0  0  0  0  0  0  0  0  0  0
  140.9511  137.8812  152.9327 C   0  0  0  0  0  0  0  0  0  0  0  0
  140.0611  137.2338  153.7267 O   0  0  0  0  0  0  0  0  0  0  0  0
  140.7332  136.1975  154.3844 N   0  0  0  0  0  0  0  0  0  0  0  0
  144.6740  134.2118  153.0458 N   0  0  0  0  0  0  0  0  0  0  0  0
  145.8396  134.0613  152.1735 C   0  0  1  0  0  0  0  0  0  0  0  0
  146.7293  132.8776  152.6232 C   0  0  0  0  0  0  0  0  0  0  0  0
  145.9977  131.5279  152.7671 C   0  0  0  0  0  0  0  0  0  0  0  0
  145.8488  130.7091  151.4733 C   0  0  0  0  0  0  0  0  0  0  0  0
  145.6194  131.5015  150.1751 C   0  0  0  0  0  0  0  0  0  0  0  0
  144.6788  132.7136  150.2888 C   0  0  0  0  0  0  0  0  0  0  0  0
  145.4115  134.0194  150.6847 C   0  0  1  0  0  0  0  0  0  0  0  0
  144.5753  135.2673  150.3155 C   0  0  0  0  0  0  0  0  0  0  0  0
  145.4071  136.3800  150.0586 O   0  0  0  0  0  0  0  0  0  0  0  0
  142.6051  134.2414  154.4294 H   0  0  0  0  0  0  0  0  0  0  0  0
  143.2223  135.4543  155.5267 H   0  0  0  0  0  0  0  0  0  0  0  0
  143.0934  137.6058  152.5270 H   0  0  0  0  0  0  0  0  0  0  0  0
  140.5624  138.7125  152.3635 H   0  0  0  0  0  0  0  0  0  0  0  0
  144.0997  133.3907  153.1722 H   0  0  0  0  0  0  0  0  0  0  0  0
  146.4507  134.9599  152.2791 H   0  0  0  0  0  0  0  0  0  0  0  0
  147.5900  132.7736  151.9615 H   0  0  0  0  0  0  0  0  0  0  0  0
  147.1464  133.1326  153.5983 H   0  0  0  0  0  0  0  0  0  0  0  0
  146.5413  130.9128  153.4850 H   0  0  0  0  0  0  0  0  0  0  0  0
  145.0158  131.6718  153.2169 H   0  0  0  0  0  0  0  0  0  0  0  0
  146.7390  130.0938  151.3377 H   0  0  0  0  0  0  0  0  0  0  0  0
  145.0280  130.0043  151.6111 H   0  0  0  0  0  0  0  0  0  0  0  0
  146.5793  131.8208  149.7675 H   0  0  0  0  0  0  0  0  0  0  0  0
  145.2146  130.8108  149.4345 H   0  0  0  0  0  0  0  0  0  0  0  0
  144.2287  132.8543  149.3059 H   0  0  0  0  0  0  0  0  0  0  0  0
  143.8459  132.5027  150.9605 H   0  0  0  0  0  0  0  0  0  0  0  0
  146.3281  134.0803  150.0958 H   0  0  0  0  0  0  0  0  0  0  0  0
  143.9500  135.0794  149.4416 H   0  0  0  0  0  0  0  0  0  0  0  0
  143.9075  135.5356  151.1348 H   0  0  0  0  0  0  0  0  0  0  0  0
  144.8662  137.1530  150.0028 H   0  0  0  0  0  0  0  0  0  0  0  0
  1  2  2  0  0  0  0
  2  3  1  0  0  0  0
  2  9  1  0  0  0  0
  3  4  1  0  0  0  0
  3 19  1  0  0  0  0
  3 20  1  0  0  0  0
  4  8  2  0  0  0  0
  4  5  1  0  0  0  0
  5  6  2  0  0  0  0
  5 21  1  0  0  0  0
  6  7  1  0  0  0  0
  6 22  1  0  0  0  0
  7  8  1  0  0  0  0
  9 10  1  0  0  0  0
  9 23  1  0  0  0  0
 10 16  1  0  0  0  0
 10 11  1  0  0  0  0
 10 24  1  0  0  0  0
 11 12  1  0  0  0  0
 11 25  1  0  0  0  0
 11 26  1  0  0  0  0
 12 13  1  0  0  0  0
 12 27  1  0  0  0  0
 12 28  1  0  0  0  0
 13 14  1  0  0  0  0
 13 29  1  0  0  0  0
 13 30  1  0  0  0  0
 14 15  1  0  0  0  0
 14 31  1  0  0  0  0
 14 32  1  0  0  0  0
 15 16  1  0  0  0  0
 15 33  1  0  0  0  0
 15 34  1  0  0  0  0
 16 17  1  0  0  0  0
 16 35  1  0  0  0  0
 17 18  1  0  0  0  0
 17 36  1  0  0  0  0
 17 37  1  0  0  0  0
 18 38  1  0  0  0  0
M  END
> <s_m_source_file>
AV-unprocessed.smi

> <i_m_source_file_index>
3039

> <i_lp_mmshare_version>
43012

> <i_f3d_flags>
0

> <s_epik_input>
bjFvW2NIXVtjSF1jMVtDSDJdQyg9TylbTkhdW0NAQEhdMltDSDJdW0NIMl1bQ0gyXVtDSDJdW0NIMl1bQ0BIXTJbQ0gyXVtPSF0=

> <s_epik_cmdline>
J2VwaWtfcHl0aG9uJywgJy1waCcsICc3LjAnLCAnLXRuJywgJzgnLCAnLW1hJywgJzIwMCcsICctbWV0YWxfYmluZGluZycsICctaW1hZScsICc8aW5maWxlLm1hZT4nLCAnLW9tYWUnLCAnPG91dGZpbGUubWFlPic=

> <r_lp_tautomer_probability>
1

> <r_epik_Ionization_Penalty>
3.05817e-07

> <r_epik_Ionization_Penalty_Charging>
0

> <r_epik_Ionization_Penalty_Neutral>
3.05817e-07

> <r_epik_State_Penalty>
-0

> <r_epik_Charging_Adjusted_Penalty>
0

> <i_epik_Tot_Q>
0

> <i_epik_Tot_abs_Q>
0

> <r_epik_Metal_State_Penalty>
-0

> <b_epik_Metal_Only>
0

> <s_lp_Force_Field>
OPLS_2005

> <r_lp_Energy>
19.8887

> <b_lp_Chiralities_Consistent>
1

> <s_lp_Variant>
AV-unprocessed.smi:3039-2

> <Gold.Version>
5.8.1

> <Gold.Id.Protein>
6NUR|6NUR_protein|mol2

> <Gold.PLP.Fitness>
36.8351

> <Gold.PLP.PLP>
-30.1486

> <Gold.PLP.part.hbond>
-2.8208

> <Gold.PLP.part.metal>
0.0000

> <Gold.PLP.part.buried>
-6.8149

> <Gold.PLP.part.nonpolar>
-22.0021

> <Gold.PLP.part.repulsive>
0.1957

> <Gold.PLP.ligand.clash>
0.0000

> <Gold.PLP.ligand.torsion>
0.5321

> <Gold.PLP.Chemscore.Hbond>
1.5741

> <Gold.PLP.Chemscore.CHOScore>
0.9907

> <Gold.PLP.Chemscore.Metal>
0.0000

> <Gold.Chemscore.Hbonds>
donor molecule, donor type, donor heavy atom, donor atom, acceptor molecule, acceptor atom, score
      L1  H    18    38       P1 10171  1.00
      P1  H 11000 11005       L1     8  0.34
      L1  C     6    22       P1 10160  1.00

> <Gold.PLP.Chemscore.Internal.Correction>
0.0564

> <Gold.Rescore>
     Score         DG    S(hbond)    S(metal)    S(lipo)     H(rot)  DE(clash)    DE(int)     intcor
     13.40     -14.99       1.82        0.00      78.81       2.26       0.04       1.55       ----

> <Gold.Chemscore.Fitness>
13.3982

> <Gold.Chemscore.DG>
-14.9913

> <Gold.Chemscore.ZeroCoef>
-5.4800

> <Gold.Chemscore.Hbond>
1.8203

> <Gold.Chemscore.Metal>
0.0000

> <Gold.Chemscore.Lipo>
78.8120

> <Gold.Chemscore.Internal_Hbond>
0.0000

> <Gold.Chemscore.DEClash>
0.0383

> <Gold.Chemscore.DEInternal>
1.5548

> <Gold.Chemscore.Rot>
2.2616

> <Gold.Chemscore.Internal.Correction>
   9.000000E+99

> <Gold.Chemscore.Hbonds>
donor molecule, donor type, donor heavy atom, donor atom, acceptor molecule, acceptor atom, score
      L1  H    18    38       P1 10171  1.00
      P1  H 11000 11005       L1     8  0.33

> <Gold.Chemscore.Hbond.Weighted>
-6.0800

> <Gold.Chemscore.Metal.Weighted>
-0.0000

> <Gold.Chemscore.Lipo.Weighted>
-9.2210

> <Gold.Chemscore.Internal_Hbond.Weighted>
0.0000

> <Gold.Chemscore.DEClash.Weighted>
0.0383

> <Gold.Chemscore.DEInternal.Weighted>
1.5548

> <Gold.Chemscore.Rot.Weighted>
5.7896

> <Gold.Chemscore.Internal.Correction.Weighted>
   9.000000E+99

> <Gold.Protein.RotatedTorsions>
[ 6907 6896 6895 6894 ] final  -14.44 input  -60.11 | X-H torsion
[ 7974 7965 7964 7962 ] final   -0.98 input  175.53 | X-H torsion
[ 8008 7997 7996 7995 ] final  175.33 input   59.86 | X-H torsion
[ 10167 10162 10161 10158 ] final  120.00 input  -65.29 | X-H torsion
[ 10718 10713 10712 10709 ] final  -76.49 input   66.30 | X-H torsion
[ 10763 10752 10751 10750 ] final  -13.13 input  -60.55 | X-H torsion
[ 11005 11000 10999 10996 ] final   58.24 input  -57.11 | X-H torsion

> <Gold.Protein.ActiveResidues>
 VAL166  LYS551  ARG553  GLY616  TRP617  ASP618  TYR619  PRO620  LYS621  CYS622 
 ASP623  PHE694  ASN695  SER759  ASP760  ASP761  ALA762  ILE779  LEU786  VAL792 
 PHE793  MET794  SER795  GLU796  ALA797  LYS798  CYS799  TRP800  GLU811  SER814 

> <Gold.Protein.RotatedAtoms>
  151.3394  135.0860  159.9365 H   0  0  0  0  0  0  0  0  0  0  0  0  # atno 6907 bound_to 6896
  152.5215  133.9462  159.7660 H   0  0  0  0  0  0  0  0  0  0  0  0  # atno 6908 bound_to 6896
  150.9816  133.6186  159.2751 H   0  0  0  0  0  0  0  0  0  0  0  0  # atno 6909 bound_to 6896
  146.2422  140.1352  142.8337 H   0  0  0  0  0  0  0  0  0  0  0  0  # atno 7974 bound_to 7965
  156.0881  140.1411  156.9627 H   0  0  0  0  0  0  0  0  0  0  0  0  # atno 8008 bound_to 7997
  154.4625  140.0938  156.6979 H   0  0  0  0  0  0  0  0  0  0  0  0  # atno 8009 bound_to 7997
  155.4965  140.3449  155.4366 H   0  0  0  0  0  0  0  0  0  0  0  0  # atno 8010 bound_to 7997
  139.6010  144.7056  151.3063 H   0  0  0  0  0  0  0  0  0  0  0  0  # atno 10167 bound_to 10162
  156.0173  130.4467  150.3201 H   0  0  0  0  0  0  0  0  0  0  0  0  # atno 10718 bound_to 10713
  153.5087  135.7016  153.5792 H   0  0  0  0  0  0  0  0  0  0  0  0  # atno 10763 bound_to 10752
  153.3892  135.3900  155.1911 H   0  0  0  0  0  0  0  0  0  0  0  0  # atno 10764 bound_to 10752
  154.8705  135.3854  154.4565 H   0  0  0  0  0  0  0  0  0  0  0  0  # atno 10765 bound_to 10752
  140.0392  134.5898  155.9404 H   0  0  0  0  0  0  0  0  0  0  0  0  # atno 11005 bound_to 11000
  145.0293  140.8857  143.5119 LP  0  0  0  0  0  0  0  0  0  0  0  0  # atno 17320 bound_to 7965
  145.1413  139.2570  143.5488 LP  0  0  0  0  0  0  0  0  0  0  0  0  # atno 17321 bound_to 7965
  140.7249  143.7031  150.7829 LP  0  0  0  0  0  0  0  0  0  0  0  0  # atno 17342 bound_to 10162
  140.0607  143.5157  152.2629 LP  0  0  0  0  0  0  0  0  0  0  0  0  # atno 17343 bound_to 10162
  157.1301  131.0269  151.2972 LP  0  0  0  0  0  0  0  0  0  0  0  0  # atno 17370 bound_to 10713
  157.4557  130.7624  149.7191 LP  0  0  0  0  0  0  0  0  0  0  0  0  # atno 17371 bound_to 10713
  141.1874  133.6559  156.5279 LP  0  0  0  0  0  0  0  0  0  0  0  0  # atno 17394 bound_to 11000
  140.4097  134.7283  157.4828 LP  0  0  0  0  0  0  0  0  0  0  0  0  # atno 17395 bound_to 11000

$$$$
