AV-unprocessed.smi:109|AV-procd|sdf|1044|dock6
  -GOLD-   2262018 83D 1   1.00000     0.00000
 Structure written by MMmdl.
 58 61  0  0  0  0  0  0  0  0  1 V2000
  146.4869  137.0452  157.5721 O   0  0  0  0  0  0  0  0  0  0  0  0
  145.5173  138.0703  157.6045 C   0  0  0  0  0  0  0  0  0  0  0  0
  144.6632  138.0247  156.3252 C   0  0  0  0  0  0  0  0  0  0  0  0
  145.4702  138.2241  155.0187 C   0  0  1  0  0  0  0  0  0  0  0  0
  144.5690  138.1066  153.8693 N   0  0  0  0  0  0  0  0  0  0  0  0
  143.9462  136.9459  153.5648 C   0  0  0  0  0  0  0  0  0  0  0  0
  142.8787  136.5049  154.2794 N   0  0  0  0  0  0  0  0  0  0  0  0
  142.2818  135.3553  153.9511 C   0  0  0  0  0  0  0  0  0  0  0  0
  142.5837  134.5114  152.9617 N   0  0  0  0  0  0  0  0  0  0  0  0
  143.6543  134.9516  152.2388 C   0  0  0  0  0  0  0  0  0  0  0  0
  144.3877  136.1460  152.4793 C   0  0  0  0  0  0  0  0  0  0  0  0
  145.4115  136.2627  151.5497 N   0  0  0  0  0  0  0  0  0  0  0  0
  145.2871  135.1953  150.8077 C   0  0  0  0  0  0  0  0  0  0  0  0
  144.2422  134.3564  151.1430 N   0  0  0  0  0  0  0  0  0  0  0  0
  143.8180  133.0478  150.5382 C   0  0  2  0  0  0  0  0  0  0  0  0
  144.0866  132.0417  151.4608 O   0  0  0  0  0  0  0  0  0  0  0  0
  145.4144  131.5748  151.2717 C   0  0  1  0  0  0  0  0  0  0  0  0
  145.5517  130.1733  151.8863 C   0  0  0  0  0  0  0  0  0  0  0  0
  146.8704  129.6944  151.7312 O   0  0  0  0  0  0  0  0  0  0  0  0
  145.6054  131.6326  149.7462 C   0  0  2  0  0  0  0  0  0  0  0  0
  146.9348  132.0012  149.4352 O   0  0  0  0  0  0  0  0  0  0  0  0
  144.6234  132.7106  149.2721 C   0  0  1  0  0  0  0  0  0  0  0  0
  143.7807  132.2064  148.2558 O   0  0  0  0  0  0  0  0  0  0  0  0
  146.2256  139.5822  154.9480 C   0  0  0  0  0  0  0  0  0  0  0  0
  145.2757  140.7604  155.2852 C   0  0  0  0  0  0  0  0  0  0  0  0
  145.9793  142.1250  155.2191 C   0  0  0  0  0  0  0  0  0  0  0  0
  146.6151  142.3537  153.8428 C   0  0  0  0  0  0  0  0  0  0  0  0
  147.5818  141.2140  153.5012 C   0  0  0  0  0  0  0  0  0  0  0  0
  146.8857  139.8445  153.5707 C   0  0  0  0  0  0  0  0  0  0  0  0
  142.7474  133.1582  150.3619 H   0  0  0  0  0  0  0  0  0  0  0  0
  146.0863  132.2697  151.7784 H   0  0  0  0  0  0  0  0  0  0  0  0
  145.3762  130.6675  149.2914 H   0  0  0  0  0  0  0  0  0  0  0  0
  145.1161  133.6029  148.8832 H   0  0  0  0  0  0  0  0  0  0  0  0
  146.2528  136.4308  156.8933 H   0  0  0  0  0  0  0  0  0  0  0  0
  144.8928  137.9397  158.4888 H   0  0  0  0  0  0  0  0  0  0  0  0
  146.0311  139.0262  157.7045 H   0  0  0  0  0  0  0  0  0  0  0  0
  144.1159  137.0821  156.2805 H   0  0  0  0  0  0  0  0  0  0  0  0
  143.9161  138.8109  156.4205 H   0  0  0  0  0  0  0  0  0  0  0  0
  146.2337  137.4474  154.9929 H   0  0  0  0  0  0  0  0  0  0  0  0
  144.3153  138.9818  153.4337 H   0  0  0  0  0  0  0  0  0  0  0  0
  141.4417  135.0722  154.5681 H   0  0  0  0  0  0  0  0  0  0  0  0
  145.9639  134.9993  149.9898 H   0  0  0  0  0  0  0  0  0  0  0  0
  145.3260  130.2095  152.9525 H   0  0  0  0  0  0  0  0  0  0  0  0
  144.8492  129.4743  151.4315 H   0  0  0  0  0  0  0  0  0  0  0  0
  147.3511  130.3048  151.1931 H   0  0  0  0  0  0  0  0  0  0  0  0
  147.5244  131.4769  149.9544 H   0  0  0  0  0  0  0  0  0  0  0  0
  143.8438  132.7753  147.5038 H   0  0  0  0  0  0  0  0  0  0  0  0
  147.0207  139.5660  155.6953 H   0  0  0  0  0  0  0  0  0  0  0  0
  144.4312  140.7571  154.5949 H   0  0  0  0  0  0  0  0  0  0  0  0
  144.8517  140.6410  156.2824 H   0  0  0  0  0  0  0  0  0  0  0  0
  145.2654  142.9208  155.4339 H   0  0  0  0  0  0  0  0  0  0  0  0
  146.7463  142.1803  155.9925 H   0  0  0  0  0  0  0  0  0  0  0  0
  145.8361  142.4155  153.0818 H   0  0  0  0  0  0  0  0  0  0  0  0
  147.1423  143.3081  153.8274 H   0  0  0  0  0  0  0  0  0  0  0  0
  147.9981  141.3672  152.5053 H   0  0  0  0  0  0  0  0  0  0  0  0
  148.4246  141.2308  154.1935 H   0  0  0  0  0  0  0  0  0  0  0  0
  147.6376  139.0881  153.3514 H   0  0  0  0  0  0  0  0  0  0  0  0
  146.1344  139.7761  152.7829 H   0  0  0  0  0  0  0  0  0  0  0  0
  1  2  1  0  0  0  0
  1 34  1  0  0  0  0
  2  3  1  0  0  0  0
  2 35  1  0  0  0  0
  2 36  1  0  0  0  0
  3  4  1  0  0  0  0
  3 37  1  0  0  0  0
  3 38  1  0  0  0  0
  4  5  1  0  0  0  0
  4 24  1  0  0  0  0
  4 39  1  0  0  0  0
  5  6  1  0  0  0  0
  5 40  1  0  0  0  0
  6 11  1  0  0  0  0
  6  7  2  0  0  0  0
  7  8  1  0  0  0  0
  8  9  2  0  0  0  0
  8 41  1  0  0  0  0
  9 10  1  0  0  0  0
 10 14  1  0  0  0  0
 10 11  2  0  0  0  0
 11 12  1  0  0  0  0
 12 13  2  0  0  0  0
 13 14  1  0  0  0  0
 13 42  1  0  0  0  0
 14 15  1  0  0  0  0
 15 30  1  0  0  0  0
 15 22  1  0  0  0  0
 15 16  1  0  0  0  0
 16 17  1  0  0  0  0
 17 31  1  0  0  0  0
 17 18  1  0  0  0  0
 17 20  1  0  0  0  0
 18 19  1  0  0  0  0
 18 43  1  0  0  0  0
 18 44  1  0  0  0  0
 19 45  1  0  0  0  0
 20 32  1  0  0  0  0
 20 21  1  0  0  0  0
 20 22  1  0  0  0  0
 21 46  1  0  0  0  0
 22 33  1  0  0  0  0
 22 23  1  0  0  0  0
 23 47  1  0  0  0  0
 24 29  1  0  0  0  0
 24 25  1  0  0  0  0
 24 48  1  0  0  0  0
 25 26  1  0  0  0  0
 25 49  1  0  0  0  0
 25 50  1  0  0  0  0
 26 27  1  0  0  0  0
 26 51  1  0  0  0  0
 26 52  1  0  0  0  0
 27 28  1  0  0  0  0
 27 53  1  0  0  0  0
 27 54  1  0  0  0  0
 28 29  1  0  0  0  0
 28 55  1  0  0  0  0
 28 56  1  0  0  0  0
 29 57  1  0  0  0  0
 29 58  1  0  0  0  0
M  END
> <s_m_source_file>
AV-unprocessed.smi

> <i_m_source_file_index>
109

> <i_lp_mmshare_version>
43012

> <i_f3d_flags>
0

> <s_epik_input>
W0NIMl0xW0NIMl1bQ0gyXVtDSDJdW0NIMl1bQ0hdMVtDQEhdKFtDSDJdW0NIMl1bT0hdKVtOSF1jKG5bY0hdbjIpYyhjMjMpbltjSF1uM1tDQEBIXTRPW0NASF0oW0NIMl1bT0hdKVtDQEBIXShbT0hdKVtDQEhdNFtPSF0=

> <s_epik_cmdline>
J2VwaWtfcHl0aG9uJywgJy1waCcsICc3LjAnLCAnLXRuJywgJzgnLCAnLW1hJywgJzIwMCcsICctbWV0YWxfYmluZGluZycsICctaW1hZScsICc8aW5maWxlLm1hZT4nLCAnLW9tYWUnLCAnPG91dGZpbGUubWFlPic=

> <r_lp_tautomer_probability>
1

> <r_epik_Ionization_Penalty>
0.000793976

> <r_epik_Ionization_Penalty_Charging>
0

> <r_epik_Ionization_Penalty_Neutral>
0.000793976

> <r_epik_State_Penalty>
-0

> <r_epik_Charging_Adjusted_Penalty>
0

> <i_epik_Tot_Q>
0

> <i_epik_Tot_abs_Q>
0

> <r_epik_Metal_State_Penalty>
-0

> <b_epik_Metal_Only>
0

> <s_epik_Chemistry_Notes>
This compound contains an acetal/aminal-like group ( X-CH(R)-Y where X, Y are N, S, or O) that may be acid/base labile, releasing an aldehyde.

> <s_lp_Force_Field>
OPLS_2005

> <r_lp_Energy>
47.5037

> <b_lp_Chiralities_Consistent>
1

> <s_lp_Variant>
AV-unprocessed.smi:109-14

> <Gold.Version>
5.8.1

> <Gold.Id.Protein>
6NUR|6NUR_protein|mol2

> <Gold.PLP.Fitness>
57.5354

> <Gold.PLP.PLP>
-43.3851

> <Gold.PLP.part.hbond>
-4.1724

> <Gold.PLP.part.metal>
0.0000

> <Gold.PLP.part.buried>
-8.3728

> <Gold.PLP.part.nonpolar>
-31.5478

> <Gold.PLP.part.repulsive>
0.6626

> <Gold.PLP.ligand.clash>
0.0000

> <Gold.PLP.ligand.torsion>
0.9671

> <Gold.PLP.Chemscore.Hbond>
3.3279

> <Gold.PLP.Chemscore.CHOScore>
2.0000

> <Gold.PLP.Chemscore.Metal>
0.0000

> <Gold.Chemscore.Hbonds>
donor molecule, donor type, donor heavy atom, donor atom, acceptor molecule, acceptor atom, score
      L1  H     5    40       P1 10175  1.00
      L1  H    19    45       P1 10747  1.00
      L1  H    21    46       P1 10747  1.00
      P1  H 10785 10796       L1    23  0.33
      L1  C     8    41       P1 11000  0.99
      L1  C    13    42       P1  7921  1.00

> <Gold.PLP.Chemscore.Internal.Correction>
0.1007

> <Gold.Rescore>
     Score         DG    S(hbond)    S(metal)    S(lipo)     H(rot)  DE(clash)    DE(int)     intcor
     10.95     -12.05       3.53        0.00      74.99       5.47       0.13       0.96       ----

> <Gold.Chemscore.Fitness>
10.9536

> <Gold.Chemscore.DG>
-12.0492

> <Gold.Chemscore.ZeroCoef>
-5.4800

> <Gold.Chemscore.Hbond>
3.5298

> <Gold.Chemscore.Metal>
0.0000

> <Gold.Chemscore.Lipo>
74.9859

> <Gold.Chemscore.Internal_Hbond>
0.0000

> <Gold.Chemscore.DEClash>
0.1329

> <Gold.Chemscore.DEInternal>
0.9627

> <Gold.Chemscore.Rot>
5.4662

> <Gold.Chemscore.Internal.Correction>
   9.000000E+99

> <Gold.Chemscore.Hbonds>
donor molecule, donor type, donor heavy atom, donor atom, acceptor molecule, acceptor atom, score
      L1  H     5    40       P1 10175  1.00
      L1  H    19    45       P1 10747  0.94
      L1  H    21    46       P1 10747  0.94
      P1  H 10785 10796       L1    23  0.24

> <Gold.Chemscore.Hbond.Weighted>
-11.7894

> <Gold.Chemscore.Metal.Weighted>
-0.0000

> <Gold.Chemscore.Lipo.Weighted>
-8.7734

> <Gold.Chemscore.Internal_Hbond.Weighted>
0.0000

> <Gold.Chemscore.DEClash.Weighted>
0.1329

> <Gold.Chemscore.DEInternal.Weighted>
0.9627

> <Gold.Chemscore.Rot.Weighted>
13.9935

> <Gold.Chemscore.Internal.Correction.Weighted>
   9.000000E+99

> <Gold.Protein.RotatedTorsions>
[ 6907 6896 6895 6894 ] final -123.96 input  -60.11 | X-H torsion
[ 7974 7965 7964 7962 ] final  114.44 input  175.53 | X-H torsion
[ 8008 7997 7996 7995 ] final  132.60 input   59.86 | X-H torsion
[ 10167 10162 10161 10158 ] final    2.99 input  -65.29 | X-H torsion
[ 10718 10713 10712 10709 ] final -107.87 input   66.30 | X-H torsion
[ 10763 10752 10751 10750 ] final   92.19 input  -60.55 | X-H torsion
[ 11005 11000 10999 10996 ] final  148.38 input  -57.11 | X-H torsion

> <Gold.Protein.ActiveResidues>
 VAL166  LYS551  ARG553  GLY616  TRP617  ASP618  TYR619  PRO620  LYS621  CYS622 
 ASP623  PHE694  ASN695  SER759  ASP760  ASP761  ALA762  ILE779  LEU786  VAL792 
 PHE793  MET794  SER795  GLU796  ALA797  LYS798  CYS799  TRP800  GLU811  SER814 

> <Gold.Protein.RotatedAtoms>
  150.8721  133.7490  159.2957 H   0  0  0  0  0  0  0  0  0  0  0  0  # atno 6907 bound_to 6896
  151.5099  135.1063  159.9860 H   0  0  0  0  0  0  0  0  0  0  0  0  # atno 6908 bound_to 6896
  152.4702  133.7969  159.6987 H   0  0  0  0  0  0  0  0  0  0  0  0  # atno 6909 bound_to 6896
  145.2044  139.2936  143.4301 H   0  0  0  0  0  0  0  0  0  0  0  0  # atno 7974 bound_to 7965
  156.2984  140.2542  156.3115 H   0  0  0  0  0  0  0  0  0  0  0  0  # atno 8008 bound_to 7997
  154.9321  140.0398  157.2072 H   0  0  0  0  0  0  0  0  0  0  0  0  # atno 8009 bound_to 7997
  154.8208  140.2860  155.5793 H   0  0  0  0  0  0  0  0  0  0  0  0  # atno 8010 bound_to 7997
  140.6608  143.7309  150.7735 H   0  0  0  0  0  0  0  0  0  0  0  0  # atno 10167 bound_to 10162
  156.0457  130.5684  150.7882 H   0  0  0  0  0  0  0  0  0  0  0  0  # atno 10718 bound_to 10713
  153.2165  135.4370  155.0440 H   0  0  0  0  0  0  0  0  0  0  0  0  # atno 10763 bound_to 10752
  154.8228  135.3346  154.6991 H   0  0  0  0  0  0  0  0  0  0  0  0  # atno 10764 bound_to 10752
  153.7425  135.7004  153.5019 H   0  0  0  0  0  0  0  0  0  0  0  0  # atno 10765 bound_to 10752
  140.0954  134.9015  157.1715 H   0  0  0  0  0  0  0  0  0  0  0  0  # atno 11005 bound_to 11000
  146.3411  140.2299  142.8593 LP  0  0  0  0  0  0  0  0  0  0  0  0  # atno 17320 bound_to 7965
  144.9916  140.8552  143.5336 LP  0  0  0  0  0  0  0  0  0  0  0  0  # atno 17321 bound_to 7965
  140.0978  143.4817  152.2443 LP  0  0  0  0  0  0  0  0  0  0  0  0  # atno 17342 bound_to 10162
  139.5841  144.7523  151.3564 LP  0  0  0  0  0  0  0  0  0  0  0  0  # atno 17343 bound_to 10162
  157.5330  131.0937  150.9929 LP  0  0  0  0  0  0  0  0  0  0  0  0  # atno 17370 bound_to 10713
  157.0231  130.5682  149.5334 LP  0  0  0  0  0  0  0  0  0  0  0  0  # atno 17371 bound_to 10713
  140.3293  134.2828  155.7231 LP  0  0  0  0  0  0  0  0  0  0  0  0  # atno 17394 bound_to 11000
  141.2090  133.7760  157.0021 LP  0  0  0  0  0  0  0  0  0  0  0  0  # atno 17395 bound_to 11000

$$$$
