AV-unprocessed.smi:1207|AV-procd|sdf|5055|dock6
  -GOLD-   22720 4 93D 1   1.00000     0.00000
 Structure written by MMmdl.
 52 54  0  0  0  0  0  0  0  0  2 V2000
  151.6405  145.0943  160.3099 C   0  0  0  0  0  0  0  0  0  0  0  0
  151.6232  143.8285  159.4701 C   0  0  0  0  0  0  0  0  0  0  0  0
  150.9295  143.8450  158.2388 C   0  0  0  0  0  0  0  0  0  0  0  0
  150.9370  142.6737  157.4906 C   0  0  0  0  0  0  0  0  0  0  0  0
  150.3609  142.3719  156.2544 N   0  3  0  0  0  0  0  0  0  0  0  0
  150.6482  141.0826  155.9219 C   0  0  0  0  0  0  0  0  0  0  0  0
  151.3982  140.5577  156.9283 N   0  0  0  0  0  0  0  0  0  0  0  0
  151.9802  139.2171  157.0733 C   0  0  0  0  0  0  0  0  0  0  0  0
  151.0733  138.2545  157.8645 C   0  0  2  0  0  0  0  0  0  0  0  0
  151.3919  136.9233  157.5102 O   0  0  0  0  0  0  0  0  0  0  0  0
  149.5814  138.4958  157.5560 C   0  0  0  0  0  0  0  0  0  0  0  0
  148.6636  137.4765  158.0694 N   0  0  0  0  0  0  0  0  0  0  0  0
  147.2917  137.9762  158.0308 C   0  0  0  0  0  0  0  0  0  0  0  0
  149.0208  137.0442  159.4250 C   0  0  0  0  0  0  0  0  0  0  0  0
  148.2443  135.8363  159.8829 C   0  0  0  0  0  0  0  0  0  0  0  0
  148.0737  134.5964  159.2035 C   0  0  0  0  0  0  0  0  0  0  0  0
  148.6250  134.1816  157.8696 C   0  0  0  0  0  0  0  0  0  0  0  0
  147.3251  133.7529  159.8943 N   0  0  0  0  0  0  0  0  0  0  0  0
  146.9739  134.4264  161.0683 O   0  0  0  0  0  0  0  0  0  0  0  0
  147.5324  135.6632  161.0381 C   0  0  0  0  0  0  0  0  0  0  0  0
  147.2665  136.5442  162.2117 C   0  0  0  0  0  0  0  0  0  0  0  0
  151.6013  141.5124  157.9297 C   0  0  0  0  0  0  0  0  0  0  0  0
  152.2855  141.4766  159.1418 C   0  0  0  0  0  0  0  0  0  0  0  0
  152.2922  142.6589  159.9160 C   0  0  0  0  0  0  0  0  0  0  0  0
  153.0357  142.6523  161.2408 C   0  0  0  0  0  0  0  0  0  0  0  0
  151.0772  145.8972  159.8331 H   0  0  0  0  0  0  0  0  0  0  0  0
  152.6631  145.4445  160.4526 H   0  0  0  0  0  0  0  0  0  0  0  0
  151.1963  144.9116  161.2888 H   0  0  0  0  0  0  0  0  0  0  0  0
  150.4184  144.7317  157.8930 H   0  0  0  0  0  0  0  0  0  0  0  0
  150.3421  140.5708  155.0207 H   0  0  0  0  0  0  0  0  0  0  0  0
  152.1907  138.8262  156.0769 H   0  0  0  0  0  0  0  0  0  0  0  0
  152.9435  139.3293  157.5732 H   0  0  0  0  0  0  0  0  0  0  0  0
  151.2814  138.3749  158.9256 H   0  0  0  0  0  0  0  0  0  0  0  0
  150.6298  136.3852  157.6636 H   0  0  0  0  0  0  0  0  0  0  0  0
  149.2820  139.4676  157.9517 H   0  0  0  0  0  0  0  0  0  0  0  0
  149.4739  138.5787  156.4730 H   0  0  0  0  0  0  0  0  0  0  0  0
  146.5810  137.2102  158.3416 H   0  0  0  0  0  0  0  0  0  0  0  0
  147.0166  138.2757  157.0190 H   0  0  0  0  0  0  0  0  0  0  0  0
  147.1683  138.8401  158.6852 H   0  0  0  0  0  0  0  0  0  0  0  0
  150.0814  136.8076  159.4759 H   0  0  0  0  0  0  0  0  0  0  0  0
  148.8854  137.8768  160.1167 H   0  0  0  0  0  0  0  0  0  0  0  0
  148.1660  134.7557  157.0648 H   0  0  0  0  0  0  0  0  0  0  0  0
  148.4453  133.1252  157.6668 H   0  0  0  0  0  0  0  0  0  0  0  0
  149.7014  134.3477  157.8246 H   0  0  0  0  0  0  0  0  0  0  0  0
  148.0252  137.3222  162.2977 H   0  0  0  0  0  0  0  0  0  0  0  0
  147.2692  135.9689  163.1376 H   0  0  0  0  0  0  0  0  0  0  0  0
  146.2949  137.0285  162.1166 H   0  0  0  0  0  0  0  0  0  0  0  0
  152.7953  140.5862  159.4789 H   0  0  0  0  0  0  0  0  0  0  0  0
  153.4924  141.6819  161.4374 H   0  0  0  0  0  0  0  0  0  0  0  0
  152.3550  142.8724  162.0634 H   0  0  0  0  0  0  0  0  0  0  0  0
  153.8300  143.3992  161.2380 H   0  0  0  0  0  0  0  0  0  0  0  0
  149.8148  142.9979  155.6765 H   0  0  0  0  0  0  0  0  0  0  0  0
  1  2  1  0  0  0  0
  1 26  1  0  0  0  0
  1 27  1  0  0  0  0
  1 28  1  0  0  0  0
  2 24  1  0  0  0  0
  2  3  2  0  0  0  0
  3  4  1  0  0  0  0
  3 29  1  0  0  0  0
  4 22  2  0  0  0  0
  4  5  1  0  0  0  0
  5  6  2  0  0  0  0
  5 52  1  0  0  0  0
  6  7  1  0  0  0  0
  6 30  1  0  0  0  0
  7  8  1  0  0  0  0
  7 22  1  0  0  0  0
  8  9  1  0  0  0  0
  8 31  1  0  0  0  0
  8 32  1  0  0  0  0
  9 10  1  0  0  0  0
  9 11  1  0  0  0  0
  9 33  1  0  0  0  0
 10 34  1  0  0  0  0
 11 12  1  0  0  0  0
 11 35  1  0  0  0  0
 11 36  1  0  0  0  0
 12 13  1  0  0  0  0
 12 14  1  0  0  0  0
 13 37  1  0  0  0  0
 13 38  1  0  0  0  0
 13 39  1  0  0  0  0
 14 15  1  0  0  0  0
 14 40  1  0  0  0  0
 14 41  1  0  0  0  0
 15 20  2  0  0  0  0
 15 16  1  0  0  0  0
 16 17  1  0  0  0  0
 16 18  2  0  0  0  0
 17 42  1  0  0  0  0
 17 43  1  0  0  0  0
 17 44  1  0  0  0  0
 18 19  1  0  0  0  0
 19 20  1  0  0  0  0
 20 21  1  0  0  0  0
 21 45  1  0  0  0  0
 21 46  1  0  0  0  0
 21 47  1  0  0  0  0
 22 23  1  0  0  0  0
 23 24  2  0  0  0  0
 23 48  1  0  0  0  0
 24 25  1  0  0  0  0
 25 49  1  0  0  0  0
 25 50  1  0  0  0  0
 25 51  1  0  0  0  0
M  CHG  1   5   1
M  END
> <s_m_source_file>
AV-unprocessed.smi

> <i_m_source_file_index>
1207

> <i_lp_mmshare_version>
43012

> <i_f3d_flags>
0

> <s_epik_input>
W0NIM11jKFtjSF0xKWMoW0NIM10pW2NIXWMoYzEyKW4oW2NIXW4yKVtDSDJdW0NASF0oW09IXSlbQ0gyXU4oW0NIM10pW0NIMl1jM2MoW0NIM10pbm9jM1tDSDNd

> <s_epik_cmdline>
J2VwaWtfcHl0aG9uJywgJy1waCcsICc3LjAnLCAnLXRuJywgJzgnLCAnLW1hJywgJzIwMCcsICctbWV0YWxfYmluZGluZycsICctaW1hZScsICc8aW5maWxlLm1hZT4nLCAnLW9tYWUnLCAnPG91dGZpbGUubWFlPic=

> <r_epik_Ionization_Penalty>
1.48114

> <r_epik_Ionization_Penalty_Charging>
1.21121

> <r_epik_Ionization_Penalty_Neutral>
0.269933

> <r_epik_State_Penalty>
1.53013

> <r_epik_Charging_Adjusted_Penalty>
2.74134

> <i_epik_Tot_Q>
1

> <i_epik_Tot_abs_Q>
1

> <r_epik_Metal_State_Penalty>
1.60462

> <b_epik_Metal_Only>
0

> <s_lp_Force_Field>
OPLS_2005

> <r_lp_Energy>
21.4613

> <b_lp_Chiralities_Consistent>
1

> <s_lp_Variant>
AV-unprocessed.smi:1207-7

> <Gold.Version>
5.8.1

> <Gold.Id.Protein>
6NUR|6NUR_protein|mol2

> <Gold.PLP.Fitness>
51.1655

> <Gold.PLP.PLP>
-46.6710

> <Gold.PLP.part.hbond>
-1.0000

> <Gold.PLP.part.metal>
0.0000

> <Gold.PLP.part.buried>
-6.5250

> <Gold.PLP.part.nonpolar>
-39.6399

> <Gold.PLP.part.repulsive>
0.0870

> <Gold.PLP.ligand.clash>
0.0000

> <Gold.PLP.ligand.torsion>
0.9150

> <Gold.PLP.Chemscore.Hbond>
1.9840

> <Gold.PLP.Chemscore.CHOScore>
0.0000

> <Gold.PLP.Chemscore.Metal>
0.0000

> <Gold.Chemscore.Hbonds>
donor molecule, donor type, donor heavy atom, donor atom, acceptor molecule, acceptor atom, score
      L1  H     5    52       P1  8028  1.76

> <Gold.PLP.Chemscore.Internal.Correction>
0.3727

> <Gold.Rescore>
     Score         DG    S(hbond)    S(metal)    S(lipo)     H(rot)  DE(clash)    DE(int)     intcor
     16.43     -17.32       1.00        0.00     126.35       2.46       0.11       0.77       ----

> <Gold.Chemscore.Fitness>
16.4349

> <Gold.Chemscore.DG>
-17.3156

> <Gold.Chemscore.ZeroCoef>
-5.4800

> <Gold.Chemscore.Hbond>
0.9997

> <Gold.Chemscore.Metal>
0.0000

> <Gold.Chemscore.Lipo>
126.3475

> <Gold.Chemscore.Internal_Hbond>
0.0000

> <Gold.Chemscore.DEClash>
0.1128

> <Gold.Chemscore.DEInternal>
0.7679

> <Gold.Chemscore.Rot>
2.4555

> <Gold.Chemscore.Internal.Correction>
   9.000000E+99

> <Gold.Chemscore.Hbonds>
donor molecule, donor type, donor heavy atom, donor atom, acceptor molecule, acceptor atom, score
      L1  H     5    52       P1  8028  0.86

> <Gold.Chemscore.Hbond.Weighted>
-3.3390

> <Gold.Chemscore.Metal.Weighted>
-0.0000

> <Gold.Chemscore.Lipo.Weighted>
-14.7827

> <Gold.Chemscore.Internal_Hbond.Weighted>
0.0000

> <Gold.Chemscore.DEClash.Weighted>
0.1128

> <Gold.Chemscore.DEInternal.Weighted>
0.7679

> <Gold.Chemscore.Rot.Weighted>
6.2861

> <Gold.Chemscore.Internal.Correction.Weighted>
   9.000000E+99

> <Gold.Protein.RotatedTorsions>
[ 6907 6896 6895 6894 ] final -112.81 input  -60.11 | X-H torsion
[ 7974 7965 7964 7962 ] final  -28.66 input  175.53 | X-H torsion
[ 8008 7997 7996 7995 ] final    2.76 input   59.86 | X-H torsion
[ 10167 10162 10161 10158 ] final  -22.50 input  -65.29 | X-H torsion
[ 10718 10713 10712 10709 ] final  -88.50 input   66.30 | X-H torsion
[ 10763 10752 10751 10750 ] final   26.97 input  -60.55 | X-H torsion
[ 11005 11000 10999 10996 ] final    8.34 input  -57.11 | X-H torsion

> <Gold.Protein.ActiveResidues>
 VAL166  LYS551  ARG553  GLY616  TRP617  ASP618  TYR619  PRO620  LYS621  CYS622 
 ASP623  PHE694  ASN695  SER759  ASP760  ASP761  ALA762  ILE779  LEU786  VAL792 
 PHE793  MET794  SER795  GLU796  ALA797  LYS798  CYS799  TRP800  GLU811  SER814 

> <Gold.Protein.RotatedAtoms>
  150.7784  133.9036  159.3348 H   0  0  0  0  0  0  0  0  0  0  0  0  # atno 6907 bound_to 6896
  151.6904  135.0945  160.0242 H   0  0  0  0  0  0  0  0  0  0  0  0  # atno 6908 bound_to 6896
  152.3828  133.6531  159.6210 H   0  0  0  0  0  0  0  0  0  0  0  0  # atno 6909 bound_to 6896
  146.1272  140.5312  142.8709 H   0  0  0  0  0  0  0  0  0  0  0  0  # atno 7974 bound_to 7965
  154.6955  140.2662  155.6770 H   0  0  0  0  0  0  0  0  0  0  0  0  # atno 8008 bound_to 7997
  156.2747  140.2782  156.1471 H   0  0  0  0  0  0  0  0  0  0  0  0  # atno 8009 bound_to 7997
  155.0837  140.0373  157.2637 H   0  0  0  0  0  0  0  0  0  0  0  0  # atno 8010 bound_to 7997
  140.7286  143.4529  151.0490 H   0  0  0  0  0  0  0  0  0  0  0  0  # atno 10167 bound_to 10162
  155.9983  130.4838  150.5028 H   0  0  0  0  0  0  0  0  0  0  0  0  # atno 10718 bound_to 10713
  153.0586  135.6548  154.0516 H   0  0  0  0  0  0  0  0  0  0  0  0  # atno 10763 bound_to 10752
  154.0189  135.2921  155.3385 H   0  0  0  0  0  0  0  0  0  0  0  0  # atno 10764 bound_to 10752
  154.6914  135.5281  153.8465 H   0  0  0  0  0  0  0  0  0  0  0  0  # atno 10765 bound_to 10752
  140.5380  134.0402  155.7895 H   0  0  0  0  0  0  0  0  0  0  0  0  # atno 11005 bound_to 11000
  144.7654  140.5518  143.6706 LP  0  0  0  0  0  0  0  0  0  0  0  0  # atno 17320 bound_to 7965
  145.5339  139.1475  143.3484 LP  0  0  0  0  0  0  0  0  0  0  0  0  # atno 17321 bound_to 7965
  139.8207  143.7824  152.3176 LP  0  0  0  0  0  0  0  0  0  0  0  0  # atno 17342 bound_to 10162
  139.7906  144.7412  150.9961 LP  0  0  0  0  0  0  0  0  0  0  0  0  # atno 17343 bound_to 10162
  157.3010  131.0645  151.2068 LP  0  0  0  0  0  0  0  0  0  0  0  0  # atno 17370 bound_to 10713
  157.3047  130.6860  149.6183 LP  0  0  0  0  0  0  0  0  0  0  0  0  # atno 17371 bound_to 10713
  141.1243  133.9409  157.2666 LP  0  0  0  0  0  0  0  0  0  0  0  0  # atno 17394 bound_to 11000
  139.9519  135.0174  156.9017 LP  0  0  0  0  0  0  0  0  0  0  0  0  # atno 17395 bound_to 11000

$$$$
