AV-unprocessed.smi:3116|AV-procd|sdf|11865|dock5
  -GOLD-   2272017243D 1   1.00000     0.00000
 Structure written by MMmdl.
 34 34  0  0  0  0  0  0  0  0  2 V2000
  146.6938  137.2189  154.2452 C   0  0  0  0  0  0  0  0  0  0  0  0
  146.9923  138.4894  153.4350 C   0  0  1  0  0  0  0  0  0  0  0  0
  148.4544  138.6163  153.2303 N   0  3  0  0  0  0  0  0  0  0  0  0
  149.2659  138.8623  154.4485 C   0  0  1  0  0  0  0  0  0  0  0  0
  150.7622  138.8308  154.0829 C   0  0  0  0  0  0  0  0  0  0  0  0
  148.8401  140.2018  155.1054 C   0  0  2  0  0  0  0  0  0  0  0  0
  148.5945  141.3338  154.0893 C   0  0  0  0  0  0  0  0  0  0  0  0
  149.8248  140.6282  156.0946 N   0  0  0  0  0  0  0  0  0  0  0  0
  150.4978  141.8311  156.1883 C   0  0  0  0  0  0  0  0  0  0  0  0
  151.3469  141.7434  157.2538 C   0  0  0  0  0  0  0  0  0  0  0  0
  151.1318  140.4280  157.7499 C   0  0  0  0  0  0  0  0  0  0  0  0
  150.2279  139.7615  157.0501 N   0  0  0  0  0  0  0  0  0  0  0  0
  146.2388  138.4468  152.0978 C   0  0  0  0  0  0  0  0  0  0  0  0
  144.9170  138.2632  152.1488 N   0  0  0  0  0  0  0  0  0  0  0  0
  146.8411  138.5637  151.0323 O   0  0  0  0  0  0  0  0  0  0  0  0
  145.6245  137.1085  154.4310 H   0  0  0  0  0  0  0  0  0  0  0  0
  147.1901  137.2490  155.2158 H   0  0  0  0  0  0  0  0  0  0  0  0
  147.0355  136.3218  153.7265 H   0  0  0  0  0  0  0  0  0  0  0  0
  146.6407  139.3455  154.0123 H   0  0  0  0  0  0  0  0  0  0  0  0
  148.8004  137.7757  152.7906 H   0  0  0  0  0  0  0  0  0  0  0  0
  149.0706  138.0643  155.1666 H   0  0  0  0  0  0  0  0  0  0  0  0
  151.3949  138.9078  154.9667 H   0  0  0  0  0  0  0  0  0  0  0  0
  151.0229  139.6508  153.4130 H   0  0  0  0  0  0  0  0  0  0  0  0
  151.0360  137.9004  153.5859 H   0  0  0  0  0  0  0  0  0  0  0  0
  147.8976  140.0388  155.6323 H   0  0  0  0  0  0  0  0  0  0  0  0
  147.7319  141.1266  153.4565 H   0  0  0  0  0  0  0  0  0  0  0  0
  149.4562  141.4838  153.4383 H   0  0  0  0  0  0  0  0  0  0  0  0
  148.3926  142.2780  154.5967 H   0  0  0  0  0  0  0  0  0  0  0  0
  150.3221  142.6416  155.4964 H   0  0  0  0  0  0  0  0  0  0  0  0
  152.0238  142.5012  157.6195 H   0  0  0  0  0  0  0  0  0  0  0  0
  151.6060  139.9392  158.5883 H   0  0  0  0  0  0  0  0  0  0  0  0
  144.3734  138.2356  151.2981 H   0  0  0  0  0  0  0  0  0  0  0  0
  144.4611  138.1600  153.0444 H   0  0  0  0  0  0  0  0  0  0  0  0
  148.5985  139.3891  152.5945 H   0  0  0  0  0  0  0  0  0  0  0  0
  1  2  1  0  0  0  0
  1 16  1  0  0  0  0
  1 17  1  0  0  0  0
  1 18  1  0  0  0  0
  2  3  1  0  0  0  0
  2 13  1  0  0  0  0
  2 19  1  0  0  0  0
  3  4  1  0  0  0  0
  3 20  1  0  0  0  0
  3 34  1  0  0  0  0
  4  5  1  0  0  0  0
  4  6  1  0  0  0  0
  4 21  1  0  0  0  0
  5 22  1  0  0  0  0
  5 23  1  0  0  0  0
  5 24  1  0  0  0  0
  6  7  1  0  0  0  0
  6  8  1  0  0  0  0
  6 25  1  0  0  0  0
  7 26  1  0  0  0  0
  7 27  1  0  0  0  0
  7 28  1  0  0  0  0
  8 12  1  0  0  0  0
  8  9  1  0  0  0  0
  9 10  2  0  0  0  0
  9 29  1  0  0  0  0
 10 11  1  0  0  0  0
 10 30  1  0  0  0  0
 11 12  2  0  0  0  0
 11 31  1  0  0  0  0
 13 14  1  0  0  0  0
 13 15  2  0  0  0  0
 14 32  1  0  0  0  0
 14 33  1  0  0  0  0
M  CHG  1   3   1
M  END
> <s_m_source_file>
AV-unprocessed.smi

> <i_m_source_file_index>
3116

> <i_lp_mmshare_version>
43012

> <i_f3d_flags>
0

> <s_epik_input>
W05IMl1DKD1PKVtDQEhdKFtDSDNdKVtOSF1bQ0BIXShbQ0gzXSlbQ0BIXShbQ0gzXSluMVtjSF1bY0hdW2NIXW4x

> <s_epik_cmdline>
J2VwaWtfcHl0aG9uJywgJy1waCcsICc3LjAnLCAnLXRuJywgJzgnLCAnLW1hJywgJzIwMCcsICctbWV0YWxfYmluZGluZycsICctaW1hZScsICc8aW5maWxlLm1hZT4nLCAnLW9tYWUnLCAnPG91dGZpbGUubWFlPic=

> <r_lp_tautomer_probability>
1

> <r_epik_Ionization_Penalty>
0.15658

> <r_epik_Ionization_Penalty_Charging>
0.156568

> <r_epik_Ionization_Penalty_Neutral>
1.19778e-05

> <r_epik_State_Penalty>
0.145866

> <r_epik_Charging_Adjusted_Penalty>
0.302434

> <i_epik_Tot_Q>
1

> <i_epik_Tot_abs_Q>
1

> <r_epik_Metal_State_Penalty>
0.146064

> <b_epik_Metal_Only>
0

> <s_lp_Force_Field>
OPLS_2005

> <r_lp_Energy>
9.00386

> <b_lp_Chiralities_Consistent>
1

> <s_lp_Variant>
AV-unprocessed.smi:3116-4

> <Gold.Version>
5.8.1

> <Gold.Id.Protein>
6NUR|6NUR_protein|mol2

> <Gold.PLP.Fitness>
44.1092

> <Gold.PLP.PLP>
-26.8455

> <Gold.PLP.part.hbond>
-5.0000

> <Gold.PLP.part.metal>
0.0000

> <Gold.PLP.part.buried>
-5.2557

> <Gold.PLP.part.nonpolar>
-19.5872

> <Gold.PLP.part.repulsive>
0.6919

> <Gold.PLP.ligand.clash>
0.0000

> <Gold.PLP.ligand.torsion>
0.4129

> <Gold.PLP.Chemscore.Hbond>
4.9920

> <Gold.PLP.Chemscore.CHOScore>
0.9970

> <Gold.PLP.Chemscore.Metal>
0.0000

> <Gold.Chemscore.Hbonds>
donor molecule, donor type, donor heavy atom, donor atom, acceptor molecule, acceptor atom, score
      L1  H     3    20       P1  7948  2.00
      L1  H     3    34       P1  7957  0.91
      L1  H    14    32       P1 10171  1.00
      P1  H  7954  7966       L1    15  1.00
      L1  C     9    29       P1  8028  1.00

> <Gold.PLP.Chemscore.Internal.Correction>
0.1225

> <Gold.Rescore>
     Score         DG    S(hbond)    S(metal)    S(lipo)     H(rot)  DE(clash)    DE(int)     intcor
     18.31     -18.73       3.94        0.00      54.40       2.45       0.13       0.29       ----

> <Gold.Chemscore.Fitness>
18.3107

> <Gold.Chemscore.DG>
-18.7307

> <Gold.Chemscore.ZeroCoef>
-5.4800

> <Gold.Chemscore.Hbond>
3.9368

> <Gold.Chemscore.Metal>
0.0000

> <Gold.Chemscore.Lipo>
54.4004

> <Gold.Chemscore.Internal_Hbond>
0.0000

> <Gold.Chemscore.DEClash>
0.1323

> <Gold.Chemscore.DEInternal>
0.2877

> <Gold.Chemscore.Rot>
2.4465

> <Gold.Chemscore.Internal.Correction>
   9.000000E+99

> <Gold.Chemscore.Hbonds>
donor molecule, donor type, donor heavy atom, donor atom, acceptor molecule, acceptor atom, score
      L1  H     3    20       P1  7948  1.00
      L1  H     3    34       P1  7957  0.88
      L1  H    14    32       P1 10171  0.98
      P1  H  7954  7966       L1    15  0.95

> <Gold.Chemscore.Hbond.Weighted>
-13.1489

> <Gold.Chemscore.Metal.Weighted>
-0.0000

> <Gold.Chemscore.Lipo.Weighted>
-6.3648

> <Gold.Chemscore.Internal_Hbond.Weighted>
0.0000

> <Gold.Chemscore.DEClash.Weighted>
0.1323

> <Gold.Chemscore.DEInternal.Weighted>
0.2877

> <Gold.Chemscore.Rot.Weighted>
6.2631

> <Gold.Chemscore.Internal.Correction.Weighted>
   9.000000E+99

> <Gold.Protein.RotatedTorsions>
[ 6907 6896 6895 6894 ] final  140.93 input  -60.11 | X-H torsion
[ 7974 7965 7964 7962 ] final   64.65 input  175.53 | X-H torsion
[ 8008 7997 7996 7995 ] final   76.09 input   59.86 | X-H torsion
[ 10167 10162 10161 10158 ] final   43.61 input  -65.29 | X-H torsion
[ 10718 10713 10712 10709 ] final  -46.80 input   66.30 | X-H torsion
[ 10763 10752 10751 10750 ] final  176.08 input  -60.55 | X-H torsion
[ 11005 11000 10999 10996 ] final    8.55 input  -57.11 | X-H torsion

> <Gold.Protein.ActiveResidues>
 VAL166  LYS551  ARG553  GLY616  TRP617  ASP618  TYR619  PRO620  LYS621  CYS622 
 ASP623  PHE694  ASN695  SER759  ASP760  ASP761  ALA762  ILE779  LEU786  VAL792 
 PHE793  MET794  SER795  GLU796  ALA797  LYS798  CYS799  TRP800  GLU811  SER814 

> <Gold.Protein.RotatedAtoms>
  152.2371  133.5105  159.5248 H   0  0  0  0  0  0  0  0  0  0  0  0  # atno 6907 bound_to 6896
  150.7053  134.1139  159.4019 H   0  0  0  0  0  0  0  0  0  0  0  0  # atno 6908 bound_to 6896
  151.9060  135.0359  160.0561 H   0  0  0  0  0  0  0  0  0  0  0  0  # atno 6909 bound_to 6896
  145.8478  139.3235  143.0893 H   0  0  0  0  0  0  0  0  0  0  0  0  # atno 7974 bound_to 7965
  155.8224  140.3469  155.5522 H   0  0  0  0  0  0  0  0  0  0  0  0  # atno 8008 bound_to 7997
  155.8328  140.0930  157.1802 H   0  0  0  0  0  0  0  0  0  0  0  0  # atno 8009 bound_to 7997
  154.4004  140.1409  156.3622 H   0  0  0  0  0  0  0  0  0  0  0  0  # atno 8010 bound_to 7997
  140.3426  144.2450  150.6154 H   0  0  0  0  0  0  0  0  0  0  0  0  # atno 10167 bound_to 10162
  156.2147  130.4162  149.9069 H   0  0  0  0  0  0  0  0  0  0  0  0  # atno 10718 bound_to 10713
  154.4763  135.2773  155.1605 H   0  0  0  0  0  0  0  0  0  0  0  0  # atno 10763 bound_to 10752
  154.3333  135.6185  153.5565 H   0  0  0  0  0  0  0  0  0  0  0  0  # atno 10764 bound_to 10752
  152.9870  135.5771  154.5154 H   0  0  0  0  0  0  0  0  0  0  0  0  # atno 10765 bound_to 10752
  140.5358  134.0423  155.7888 H   0  0  0  0  0  0  0  0  0  0  0  0  # atno 11005 bound_to 11000
  145.9392  140.8992  143.0316 LP  0  0  0  0  0  0  0  0  0  0  0  0  # atno 17320 bound_to 7965
  144.6730  140.1525  143.7429 LP  0  0  0  0  0  0  0  0  0  0  0  0  # atno 17321 bound_to 7965
  140.5294  143.2247  151.8262 LP  0  0  0  0  0  0  0  0  0  0  0  0  # atno 17342 bound_to 10162
  139.4838  144.4739  151.9391 LP  0  0  0  0  0  0  0  0  0  0  0  0  # atno 17343 bound_to 10162
  156.6735  130.8830  151.3565 LP  0  0  0  0  0  0  0  0  0  0  0  0  # atno 17370 bound_to 10713
  157.7057  130.9382  150.0924 LP  0  0  0  0  0  0  0  0  0  0  0  0  # atno 17371 bound_to 10713
  141.1256  133.9389  157.2643 LP  0  0  0  0  0  0  0  0  0  0  0  0  # atno 17394 bound_to 11000
  139.9530  135.0171  156.9048 LP  0  0  0  0  0  0  0  0  0  0  0  0  # atno 17395 bound_to 11000

$$$$
