AV-unprocessed.smi:2772|AV-procd|sdf|10673|dock5
  -GOLD-   2272015123D 1   1.00000     0.00000
 Structure written by MMmdl.
 56 58  0  0  0  0  0  0  0  0  4 V2000
  154.9950  143.5459  165.1981 C   0  0  0  0  0  0  0  0  0  0  0  0
  154.3903  143.0023  163.9209 C   0  0  0  0  0  0  0  0  0  0  0  0
  153.2246  143.5492  163.3449 C   0  0  0  0  0  0  0  0  0  0  0  0
  152.7192  142.9904  162.1530 C   0  0  0  0  0  0  0  0  0  0  0  0
  153.3875  141.9025  161.5495 C   0  0  0  0  0  0  0  0  0  0  0  0
  152.8338  141.3658  160.3550 N   0  0  0  0  0  0  0  0  0  0  0  0
  153.2813  140.3370  159.6141 C   0  0  0  0  0  0  0  0  0  0  0  0
  154.2918  139.6771  159.8531 O   0  0  0  0  0  0  0  0  0  0  0  0
  152.4877  140.1237  158.5546 N   0  0  0  0  0  0  0  0  0  0  0  0
  152.6831  139.0968  157.5341 C   0  0  2  0  0  0  0  0  0  0  0  0
  152.3496  139.6700  156.1439 C   0  0  0  0  0  0  0  0  0  0  0  0
  152.3654  138.5675  155.0672 C   0  0  0  0  0  0  0  0  0  0  0  0
  151.4316  137.4530  155.3999 N   0  3  2  0  0  0  0  0  0  0  0  0
  149.9684  137.7799  155.2755 C   0  0  2  0  0  0  0  0  0  0  0  0
  149.0954  136.5112  155.0977 C   0  0  0  0  0  0  0  0  0  0  0  0
  147.6078  136.8418  154.8880 C   0  0  0  0  0  0  0  0  0  0  0  0
  147.4182  137.7433  153.7289 N   0  3  1  0  0  0  0  0  0  0  0  0
  145.9904  137.9800  153.4245 C   0  0  0  0  0  0  0  0  0  0  0  0
  148.1772  139.0033  153.8981 C   0  0  0  0  0  0  0  0  0  0  0  0
  149.6793  138.7269  154.0829 C   0  0  0  0  0  0  0  0  0  0  0  0
  151.8441  136.8478  156.6991 C   0  0  0  0  0  0  0  0  0  0  0  0
  151.8015  137.8739  157.8480 C   0  0  0  0  0  0  0  0  0  0  0  0
  154.5470  141.3897  162.1832 C   0  0  0  0  0  0  0  0  0  0  0  0
  154.9980  141.9527  163.3254 N   0  3  0  0  0  0  0  0  0  0  0  0
  154.4265  144.3985  165.5703 H   0  0  0  0  0  0  0  0  0  0  0  0
  156.0212  143.8715  165.0249 H   0  0  0  0  0  0  0  0  0  0  0  0
  155.0028  142.7778  165.9718 H   0  0  0  0  0  0  0  0  0  0  0  0
  152.7213  144.3854  163.8080 H   0  0  0  0  0  0  0  0  0  0  0  0
  151.8260  143.4015  161.7049 H   0  0  0  0  0  0  0  0  0  0  0  0
  152.0283  141.8553  159.9931 H   0  0  0  0  0  0  0  0  0  0  0  0
  151.6823  140.7224  158.4441 H   0  0  0  0  0  0  0  0  0  0  0  0
  153.7226  138.7637  157.5180 H   0  0  0  0  0  0  0  0  0  0  0  0
  151.3757  140.1606  156.1596 H   0  0  0  0  0  0  0  0  0  0  0  0
  153.0725  140.4443  155.8838 H   0  0  0  0  0  0  0  0  0  0  0  0
  152.1778  138.9831  154.0797 H   0  0  0  0  0  0  0  0  0  0  0  0
  153.3735  138.1553  155.0011 H   0  0  0  0  0  0  0  0  0  0  0  0
  149.6421  138.2822  156.1863 H   0  0  0  0  0  0  0  0  0  0  0  0
  149.4608  135.9250  154.2532 H   0  0  0  0  0  0  0  0  0  0  0  0
  149.1540  135.8689  155.9751 H   0  0  0  0  0  0  0  0  0  0  0  0
  147.0500  135.9183  154.7263 H   0  0  0  0  0  0  0  0  0  0  0  0
  147.1960  137.3071  155.7852 H   0  0  0  0  0  0  0  0  0  0  0  0
  145.4916  138.4895  154.2502 H   0  0  0  0  0  0  0  0  0  0  0  0
  145.4740  137.0369  153.2422 H   0  0  0  0  0  0  0  0  0  0  0  0
  145.8841  138.5936  152.5292 H   0  0  0  0  0  0  0  0  0  0  0  0
  148.0298  139.6376  153.0229 H   0  0  0  0  0  0  0  0  0  0  0  0
  147.7879  139.5532  154.7565 H   0  0  0  0  0  0  0  0  0  0  0  0
  150.1623  139.6929  154.2224 H   0  0  0  0  0  0  0  0  0  0  0  0
  150.0868  138.3016  153.1645 H   0  0  0  0  0  0  0  0  0  0  0  0
  151.2641  135.9608  156.9448 H   0  0  0  0  0  0  0  0  0  0  0  0
  152.8666  136.4815  156.5924 H   0  0  0  0  0  0  0  0  0  0  0  0
  152.1429  137.4031  158.7707 H   0  0  0  0  0  0  0  0  0  0  0  0
  150.7724  138.1849  158.0311 H   0  0  0  0  0  0  0  0  0  0  0  0
  155.1273  140.5488  161.8356 H   0  0  0  0  0  0  0  0  0  0  0  0
  151.6027  136.7404  154.7044 H   0  0  0  0  0  0  0  0  0  0  0  0
  147.8064  137.2724  152.9238 H   0  0  0  0  0  0  0  0  0  0  0  0
  155.8359  141.5646  163.7593 H   0  0  0  0  0  0  0  0  0  0  0  0
  1  2  1  0  0  0  0
  1 25  1  0  0  0  0
  1 26  1  0  0  0  0
  1 27  1  0  0  0  0
  2 24  1  0  0  0  0
  2  3  2  0  0  0  0
  3  4  1  0  0  0  0
  3 28  1  0  0  0  0
  4  5  2  0  0  0  0
  4 29  1  0  0  0  0
  5  6  1  0  0  0  0
  5 23  1  0  0  0  0
  6  7  1  0  0  0  0
  6 30  1  0  0  0  0
  7  8  2  0  0  0  0
  7  9  1  0  0  0  0
  9 10  1  0  0  0  0
  9 31  1  0  0  0  0
 10 22  1  0  0  0  0
 10 11  1  0  0  0  0
 10 32  1  0  0  0  0
 11 12  1  0  0  0  0
 11 33  1  0  0  0  0
 11 34  1  0  0  0  0
 12 13  1  0  0  0  0
 12 35  1  0  0  0  0
 12 36  1  0  0  0  0
 13 14  1  0  0  0  0
 13 21  1  0  0  0  0
 13 54  1  0  0  0  0
 14 20  1  0  0  0  0
 14 15  1  0  0  0  0
 14 37  1  0  0  0  0
 15 16  1  0  0  0  0
 15 38  1  0  0  0  0
 15 39  1  0  0  0  0
 16 17  1  0  0  0  0
 16 40  1  0  0  0  0
 16 41  1  0  0  0  0
 17 18  1  0  0  0  0
 17 19  1  0  0  0  0
 17 55  1  0  0  0  0
 18 42  1  0  0  0  0
 18 43  1  0  0  0  0
 18 44  1  0  0  0  0
 19 20  1  0  0  0  0
 19 45  1  0  0  0  0
 19 46  1  0  0  0  0
 20 47  1  0  0  0  0
 20 48  1  0  0  0  0
 21 22  1  0  0  0  0
 21 49  1  0  0  0  0
 21 50  1  0  0  0  0
 22 51  1  0  0  0  0
 22 52  1  0  0  0  0
 23 24  2  0  0  0  0
 23 53  1  0  0  0  0
 24 56  1  0  0  0  0
M  CHG  1  13   1
M  CHG  1  17   1
M  CHG  1  24   1
M  END
> <s_m_source_file>
AV-unprocessed.smi

> <i_m_source_file_index>
2772

> <i_lp_mmshare_version>
43012

> <i_f3d_flags>
0

> <s_epik_input>
W0NIM11jMVtjSF1bY0hdYyhbY0hdbjEpW05IXUMoPU8pW05IXVtDSF0yW0NIMl1bQ0gyXU4oW0NIMl1bQ0gyXTIpW0NIXTNbQ0gyXVtDSDJdTihbQ0gzXSlbQ0gyXVtDSDJdMw==

> <s_epik_cmdline>
J2VwaWtfcHl0aG9uJywgJy1waCcsICc3LjAnLCAnLXRuJywgJzgnLCAnLW1hJywgJzIwMCcsICctbWV0YWxfYmluZGluZycsICctaW1hZScsICc8aW5maWxlLm1hZT4nLCAnLW9tYWUnLCAnPG91dGZpbGUubWFlPic=

> <r_epik_Ionization_Penalty>
2.34117

> <r_epik_Ionization_Penalty_Charging>
2.34115

> <r_epik_Ionization_Penalty_Neutral>
2.22786e-05

> <r_epik_State_Penalty>
2.43944

> <r_epik_Charging_Adjusted_Penalty>
4.78059

> <i_epik_Tot_Q>
3

> <i_epik_Tot_abs_Q>
3

> <r_epik_Metal_State_Penalty>
2.45906

> <b_epik_Metal_Only>
0

> <s_lp_Force_Field>
OPLS_2005

> <r_lp_Energy>
52.8488

> <b_lp_Chiralities_Consistent>
1

> <s_lp_Variant>
AV-unprocessed.smi:2772-10

> <Gold.Version>
5.8.1

> <Gold.Id.Protein>
6NUR|6NUR_protein|mol2

> <Gold.PLP.Fitness>
44.2118

> <Gold.PLP.PLP>
-39.4359

> <Gold.PLP.part.hbond>
-2.0000

> <Gold.PLP.part.metal>
0.0000

> <Gold.PLP.part.buried>
-0.2825

> <Gold.PLP.part.nonpolar>
-35.6440

> <Gold.PLP.part.repulsive>
0.3347

> <Gold.PLP.ligand.clash>
0.0000

> <Gold.PLP.ligand.torsion>
0.6333

> <Gold.PLP.Chemscore.Hbond>
2.0000

> <Gold.PLP.Chemscore.CHOScore>
0.0000

> <Gold.PLP.Chemscore.Metal>
0.0000

> <Gold.Chemscore.Hbonds>
donor molecule, donor type, donor heavy atom, donor atom, acceptor molecule, acceptor atom, score
      L1  H    17    55       P1  7948  2.00

> <Gold.PLP.Chemscore.Internal.Correction>
0.0425

> <Gold.Rescore>
     Score         DG    S(hbond)    S(metal)    S(lipo)     H(rot)  DE(clash)    DE(int)     intcor
     17.01     -19.65       1.00        0.00     119.31       1.22       0.79       1.85       ----

> <Gold.Chemscore.Fitness>
17.0098

> <Gold.Chemscore.DG>
-19.6487

> <Gold.Chemscore.ZeroCoef>
-5.4800

> <Gold.Chemscore.Hbond>
0.9994

> <Gold.Chemscore.Metal>
0.0000

> <Gold.Chemscore.Lipo>
119.3116

> <Gold.Chemscore.Internal_Hbond>
0.0000

> <Gold.Chemscore.DEClash>
0.7924

> <Gold.Chemscore.DEInternal>
1.8464

> <Gold.Chemscore.Rot>
1.2222

> <Gold.Chemscore.Internal.Correction>
   9.000000E+99

> <Gold.Chemscore.Hbonds>
donor molecule, donor type, donor heavy atom, donor atom, acceptor molecule, acceptor atom, score
      L1  H    17    55       P1  7948  1.00

> <Gold.Chemscore.Hbond.Weighted>
-3.3381

> <Gold.Chemscore.Metal.Weighted>
-0.0000

> <Gold.Chemscore.Lipo.Weighted>
-13.9595

> <Gold.Chemscore.Internal_Hbond.Weighted>
0.0000

> <Gold.Chemscore.DEClash.Weighted>
0.7924

> <Gold.Chemscore.DEInternal.Weighted>
1.8464

> <Gold.Chemscore.Rot.Weighted>
3.1289

> <Gold.Chemscore.Internal.Correction.Weighted>
   9.000000E+99

> <Gold.Protein.RotatedTorsions>
[ 6907 6896 6895 6894 ] final  -37.10 input  -60.11 | X-H torsion
[ 7974 7965 7964 7962 ] final   65.83 input  175.53 | X-H torsion
[ 8008 7997 7996 7995 ] final  -80.59 input   59.86 | X-H torsion
[ 10167 10162 10161 10158 ] final  135.43 input  -65.29 | X-H torsion
[ 10718 10713 10712 10709 ] final  101.42 input   66.30 | X-H torsion
[ 10763 10752 10751 10750 ] final  -71.29 input  -60.55 | X-H torsion
[ 11005 11000 10999 10996 ] final  150.87 input  -57.11 | X-H torsion

> <Gold.Protein.ActiveResidues>
 VAL166  LYS551  ARG553  GLY616  TRP617  ASP618  TYR619  PRO620  LYS621  CYS622 
 ASP623  PHE694  ASN695  SER759  ASP760  ASP761  ALA762  ILE779  LEU786  VAL792 
 PHE793  MET794  SER795  GLU796  ALA797  LYS798  CYS799  TRP800  GLU811  SER814 

> <Gold.Protein.RotatedAtoms>
  151.0189  134.9454  159.8048 H   0  0  0  0  0  0  0  0  0  0  0  0  # atno 6907 bound_to 6896
  152.5320  134.2930  159.9060 H   0  0  0  0  0  0  0  0  0  0  0  0  # atno 6908 bound_to 6896
  151.2937  133.4111  159.2669 H   0  0  0  0  0  0  0  0  0  0  0  0  # atno 6909 bound_to 6896
  145.8338  139.3154  143.0972 H   0  0  0  0  0  0  0  0  0  0  0  0  # atno 7974 bound_to 7965
  154.5898  140.0660  156.9222 H   0  0  0  0  0  0  0  0  0  0  0  0  # atno 8008 bound_to 7997
  155.2316  140.3338  155.4284 H   0  0  0  0  0  0  0  0  0  0  0  0  # atno 8009 bound_to 7997
  156.2248  140.1814  156.7375 H   0  0  0  0  0  0  0  0  0  0  0  0  # atno 8010 bound_to 7997
  139.5217  144.6517  151.5283 H   0  0  0  0  0  0  0  0  0  0  0  0  # atno 10167 bound_to 10162
  157.6829  131.0726  150.5250 H   0  0  0  0  0  0  0  0  0  0  0  0  # atno 10718 bound_to 10713
  154.4297  135.5967  153.6061 H   0  0  0  0  0  0  0  0  0  0  0  0  # atno 10763 bound_to 10752
  152.9798  135.5972  154.3854 H   0  0  0  0  0  0  0  0  0  0  0  0  # atno 10764 bound_to 10752
  154.3691  135.2841  155.2255 H   0  0  0  0  0  0  0  0  0  0  0  0  # atno 10765 bound_to 10752
  140.1169  134.8889  157.2016 H   0  0  0  0  0  0  0  0  0  0  0  0  # atno 11005 bound_to 11000
  145.9542  140.8886  143.0244 LP  0  0  0  0  0  0  0  0  0  0  0  0  # atno 17320 bound_to 7965
  144.6738  140.1722  143.7413 LP  0  0  0  0  0  0  0  0  0  0  0  0  # atno 17321 bound_to 7965
  140.6325  143.9049  150.6618 LP  0  0  0  0  0  0  0  0  0  0  0  0  # atno 17342 bound_to 10162
  140.2357  143.3701  152.1528 LP  0  0  0  0  0  0  0  0  0  0  0  0  # atno 17343 bound_to 10162
  156.5562  130.4244  149.6084 LP  0  0  0  0  0  0  0  0  0  0  0  0  # atno 17370 bound_to 10713
  156.2860  130.7097  151.1934 LP  0  0  0  0  0  0  0  0  0  0  0  0  # atno 17371 bound_to 10713
  140.3017  134.3124  155.7288 LP  0  0  0  0  0  0  0  0  0  0  0  0  # atno 17394 bound_to 11000
  141.2143  133.7596  156.9650 LP  0  0  0  0  0  0  0  0  0  0  0  0  # atno 17395 bound_to 11000

$$$$
