AV-unprocessed.smi:745|AV-procd|sdf|3575|dock1
  -GOLD-   22720 0563D 1   1.00000     0.00000
 Structure written by MMmdl.
 42 43  0  0  0  0  0  0  0  0  2 V2000
  150.2707  140.0414  154.6606 C   0  0  0  0  0  0  0  0  0  0  0  0
  149.0081  140.7624  155.1640 C   0  0  1  0  0  0  0  0  0  0  0  0
  149.4407  141.9508  155.9002 N   0  0  0  0  0  0  0  0  0  0  0  0
  150.0990  141.9589  157.0698 C   0  0  0  0  0  0  0  0  0  0  0  0
  150.4047  140.9374  157.6859 O   0  0  0  0  0  0  0  0  0  0  0  0
  150.3677  143.2150  157.4669 N   0  0  0  0  0  0  0  0  0  0  0  0
  150.9999  143.6394  158.6659 C   0  0  0  0  0  0  0  0  0  0  0  0
  151.1076  145.0398  158.8229 C   0  0  0  0  0  0  0  0  0  0  0  0
  151.7129  145.5625  159.9820 C   0  0  0  0  0  0  0  0  0  0  0  0
  152.1936  144.6701  160.9566 C   0  0  0  0  0  0  0  0  0  0  0  0
  152.0460  143.2905  160.7233 C   0  0  0  0  0  0  0  0  0  0  0  0
  151.4667  142.7871  159.6128 N   0  0  0  0  0  0  0  0  0  0  0  0
  148.0229  141.1484  154.0207 C   0  0  2  0  0  0  0  0  0  0  0  0
  146.9766  142.2156  154.4191 C   0  0  0  0  0  0  0  0  0  0  0  0
  145.9119  141.6532  155.3787 C   0  0  0  0  0  0  0  0  0  0  0  0
  145.2280  140.4773  154.7862 N   0  3  2  0  0  0  0  0  0  0  0  0
  144.1361  139.9697  155.6442 C   0  0  0  0  0  0  0  0  0  0  0  0
  146.1808  139.4092  154.3947 C   0  0  0  0  0  0  0  0  0  0  0  0
  147.2508  139.9487  153.4278 C   0  0  0  0  0  0  0  0  0  0  0  0
  150.0400  139.0656  154.2351 H   0  0  0  0  0  0  0  0  0  0  0  0
  150.9723  139.8672  155.4774 H   0  0  0  0  0  0  0  0  0  0  0  0
  150.7881  140.6271  153.9001 H   0  0  0  0  0  0  0  0  0  0  0  0
  148.5080  140.0778  155.8494 H   0  0  0  0  0  0  0  0  0  0  0  0
  149.2332  142.8420  155.4733 H   0  0  0  0  0  0  0  0  0  0  0  0
  150.0769  143.9550  156.8453 H   0  0  0  0  0  0  0  0  0  0  0  0
  150.7315  145.7114  158.0649 H   0  0  0  0  0  0  0  0  0  0  0  0
  151.8053  146.6296  160.1203 H   0  0  0  0  0  0  0  0  0  0  0  0
  152.6630  145.0332  161.8590 H   0  0  0  0  0  0  0  0  0  0  0  0
  152.4010  142.5719  161.4474 H   0  0  0  0  0  0  0  0  0  0  0  0
  148.6262  141.5749  153.2178 H   0  0  0  0  0  0  0  0  0  0  0  0
  147.4483  143.0952  154.8561 H   0  0  0  0  0  0  0  0  0  0  0  0
  146.4788  142.5768  153.5181 H   0  0  0  0  0  0  0  0  0  0  0  0
  146.3616  141.3743  156.3319 H   0  0  0  0  0  0  0  0  0  0  0  0
  145.1757  142.4282  155.5958 H   0  0  0  0  0  0  0  0  0  0  0  0
  144.5258  139.5941  156.5914 H   0  0  0  0  0  0  0  0  0  0  0  0
  143.6021  139.1589  155.1477 H   0  0  0  0  0  0  0  0  0  0  0  0
  143.4158  140.7595  155.8590 H   0  0  0  0  0  0  0  0  0  0  0  0
  146.6460  138.9836  155.2848 H   0  0  0  0  0  0  0  0  0  0  0  0
  145.6339  138.5987  153.9115 H   0  0  0  0  0  0  0  0  0  0  0  0
  146.7590  140.2666  152.5075 H   0  0  0  0  0  0  0  0  0  0  0  0
  147.9259  139.1485  153.1284 H   0  0  0  0  0  0  0  0  0  0  0  0
  144.7943  140.7999  153.9328 H   0  0  0  0  0  0  0  0  0  0  0  0
  1  2  1  0  0  0  0
  1 20  1  0  0  0  0
  1 21  1  0  0  0  0
  1 22  1  0  0  0  0
  2  3  1  0  0  0  0
  2 13  1  0  0  0  0
  2 23  1  0  0  0  0
  3  4  1  0  0  0  0
  3 24  1  0  0  0  0
  4  5  2  0  0  0  0
  4  6  1  0  0  0  0
  6  7  1  0  0  0  0
  6 25  1  0  0  0  0
  7 12  1  0  0  0  0
  7  8  2  0  0  0  0
  8  9  1  0  0  0  0
  8 26  1  0  0  0  0
  9 10  2  0  0  0  0
  9 27  1  0  0  0  0
 10 11  1  0  0  0  0
 10 28  1  0  0  0  0
 11 12  2  0  0  0  0
 11 29  1  0  0  0  0
 13 19  1  0  0  0  0
 13 14  1  0  0  0  0
 13 30  1  0  0  0  0
 14 15  1  0  0  0  0
 14 31  1  0  0  0  0
 14 32  1  0  0  0  0
 15 16  1  0  0  0  0
 15 33  1  0  0  0  0
 15 34  1  0  0  0  0
 16 17  1  0  0  0  0
 16 18  1  0  0  0  0
 16 42  1  0  0  0  0
 17 35  1  0  0  0  0
 17 36  1  0  0  0  0
 17 37  1  0  0  0  0
 18 19  1  0  0  0  0
 18 38  1  0  0  0  0
 18 39  1  0  0  0  0
 19 40  1  0  0  0  0
 19 41  1  0  0  0  0
M  CHG  1  16   1
M  END
> <s_m_source_file>
AV-unprocessed.smi

> <i_m_source_file_index>
745

> <i_lp_mmshare_version>
43012

> <i_f3d_flags>
0

> <s_epik_input>
W0NIMl0xW0NIMl1OKFtDSDNdKVtDSDJdW0NIMl1bQ0hdMVtDQEhdKFtDSDNdKVtOSF1DKD1PKVtOSF1jMltjSF1bY0hdW2NIXVtjSF1uMg==

> <s_epik_cmdline>
J2VwaWtfcHl0aG9uJywgJy1waCcsICc3LjAnLCAnLXRuJywgJzgnLCAnLW1hJywgJzIwMCcsICctbWV0YWxfYmluZGluZycsICctaW1hZScsICc8aW5maWxlLm1hZT4nLCAnLW9tYWUnLCAnPG91dGZpbGUubWFlPic=

> <r_epik_Ionization_Penalty>
0.0011087

> <r_epik_Ionization_Penalty_Charging>
0.00106265

> <r_epik_Ionization_Penalty_Neutral>
4.60506e-05

> <r_epik_State_Penalty>
0.000695551

> <r_epik_Charging_Adjusted_Penalty>
0.0017582

> <i_epik_Tot_Q>
1

> <i_epik_Tot_abs_Q>
1

> <r_epik_Metal_State_Penalty>
-0

> <b_epik_Metal_Only>
0

> <s_lp_Force_Field>
OPLS_2005

> <r_lp_Energy>
20.9575

> <b_lp_Chiralities_Consistent>
1

> <s_lp_Variant>
AV-unprocessed.smi:745-4

> <Gold.Version>
5.8.1

> <Gold.Id.Protein>
6NUR|6NUR_protein|mol2

> <Gold.PLP.Fitness>
49.0691

> <Gold.PLP.PLP>
-37.7206

> <Gold.PLP.part.hbond>
-3.0000

> <Gold.PLP.part.metal>
0.0000

> <Gold.PLP.part.buried>
-4.2066

> <Gold.PLP.part.nonpolar>
-31.6412

> <Gold.PLP.part.repulsive>
0.1419

> <Gold.PLP.ligand.clash>
0.0000

> <Gold.PLP.ligand.torsion>
0.3389

> <Gold.PLP.Chemscore.Hbond>
4.0000

> <Gold.PLP.Chemscore.CHOScore>
0.0000

> <Gold.PLP.Chemscore.Metal>
0.0000

> <Gold.Chemscore.Hbonds>
donor molecule, donor type, donor heavy atom, donor atom, acceptor molecule, acceptor atom, score
      L1  H     3    24       P1  8028  0.99
      L1  H     6    25       P1  8028  1.00
      L1  H    16    42       P1 10175  2.00

> <Gold.PLP.Chemscore.Internal.Correction>
0.0263

> <Gold.Rescore>
     Score         DG    S(hbond)    S(metal)    S(lipo)     H(rot)  DE(clash)    DE(int)     intcor
     19.94     -22.47       2.91        0.00      89.58       1.26       1.02       1.50       ----

> <Gold.Chemscore.Fitness>
19.9396

> <Gold.Chemscore.DG>
-22.4660

> <Gold.Chemscore.ZeroCoef>
-5.4800

> <Gold.Chemscore.Hbond>
2.9135

> <Gold.Chemscore.Metal>
0.0000

> <Gold.Chemscore.Lipo>
89.5798

> <Gold.Chemscore.Internal_Hbond>
0.0000

> <Gold.Chemscore.DEClash>
1.0235

> <Gold.Chemscore.DEInternal>
1.5029

> <Gold.Chemscore.Rot>
1.2601

> <Gold.Chemscore.Internal.Correction>
   9.000000E+99

> <Gold.Chemscore.Hbonds>
donor molecule, donor type, donor heavy atom, donor atom, acceptor molecule, acceptor atom, score
      L1  H     3    24       P1  8028  0.94
      L1  H     6    25       P1  8028  0.95
      L1  H    16    42       P1 10175  0.90

> <Gold.Chemscore.Hbond.Weighted>
-9.7311

> <Gold.Chemscore.Metal.Weighted>
-0.0000

> <Gold.Chemscore.Lipo.Weighted>
-10.4808

> <Gold.Chemscore.Internal_Hbond.Weighted>
0.0000

> <Gold.Chemscore.DEClash.Weighted>
1.0235

> <Gold.Chemscore.DEInternal.Weighted>
1.5029

> <Gold.Chemscore.Rot.Weighted>
3.2260

> <Gold.Chemscore.Internal.Correction.Weighted>
   9.000000E+99

> <Gold.Protein.RotatedTorsions>
[ 6907 6896 6895 6894 ] final   45.52 input  -60.11 | X-H torsion
[ 7974 7965 7964 7962 ] final   26.49 input  175.53 | X-H torsion
[ 8008 7997 7996 7995 ] final   15.61 input   59.86 | X-H torsion
[ 10167 10162 10161 10158 ] final -101.84 input  -65.29 | X-H torsion
[ 10718 10713 10712 10709 ] final  170.59 input   66.30 | X-H torsion
[ 10763 10752 10751 10750 ] final  174.43 input  -60.55 | X-H torsion
[ 11005 11000 10999 10996 ] final -116.39 input  -57.11 | X-H torsion

> <Gold.Protein.ActiveResidues>
 VAL166  LYS551  ARG553  GLY616  TRP617  ASP618  TYR619  PRO620  LYS621  CYS622 
 ASP623  PHE694  ASN695  SER759  ASP760  ASP761  ALA762  ILE779  LEU786  VAL792 
 PHE793  MET794  SER795  GLU796  ALA797  LYS798  CYS799  TRP800  GLU811  SER814 

> <Gold.Protein.RotatedAtoms>
  152.2456  134.8185  160.0453 H   0  0  0  0  0  0  0  0  0  0  0  0  # atno 6907 bound_to 6896
  151.8884  133.3505  159.3798 H   0  0  0  0  0  0  0  0  0  0  0  0  # atno 6908 bound_to 6896
  150.7067  134.4875  159.5544 H   0  0  0  0  0  0  0  0  0  0  0  0  # atno 6909 bound_to 6896
  146.1834  139.7320  142.8884 H   0  0  0  0  0  0  0  0  0  0  0  0  # atno 7974 bound_to 7965
  154.8652  140.2950  155.5515 H   0  0  0  0  0  0  0  0  0  0  0  0  # atno 8008 bound_to 7997
  156.3020  140.2470  156.3565 H   0  0  0  0  0  0  0  0  0  0  0  0  # atno 8009 bound_to 7997
  154.8876  140.0395  157.1808 H   0  0  0  0  0  0  0  0  0  0  0  0  # atno 8010 bound_to 7997
  140.2370  143.3566  152.0836 H   0  0  0  0  0  0  0  0  0  0  0  0  # atno 10167 bound_to 10162
  157.0059  131.0190  151.2817 H   0  0  0  0  0  0  0  0  0  0  0  0  # atno 10718 bound_to 10713
  154.4537  135.2765  155.1762 H   0  0  0  0  0  0  0  0  0  0  0  0  # atno 10763 bound_to 10752
  154.3579  135.6136  153.5679 H   0  0  0  0  0  0  0  0  0  0  0  0  # atno 10764 bound_to 10752
  152.9849  135.5827  154.4887 H   0  0  0  0  0  0  0  0  0  0  0  0  # atno 10765 bound_to 10752
  141.0425  133.9814  157.2972 H   0  0  0  0  0  0  0  0  0  0  0  0  # atno 11005 bound_to 11000
  145.4009  141.0385  143.3071 LP  0  0  0  0  0  0  0  0  0  0  0  0  # atno 17320 bound_to 7965
  144.8355  139.5557  143.6924 LP  0  0  0  0  0  0  0  0  0  0  0  0  # atno 17321 bound_to 7965
  139.5090  144.6860  151.5886 LP  0  0  0  0  0  0  0  0  0  0  0  0  # atno 17342 bound_to 10162
  140.6142  143.9379  150.6476 LP  0  0  0  0  0  0  0  0  0  0  0  0  # atno 17343 bound_to 10162
  157.5356  130.8086  149.7968 LP  0  0  0  0  0  0  0  0  0  0  0  0  # atno 17370 bound_to 10713
  156.0154  130.3816  150.2129 LP  0  0  0  0  0  0  0  0  0  0  0  0  # atno 17371 bound_to 10713
  139.9286  135.0201  156.8323 LP  0  0  0  0  0  0  0  0  0  0  0  0  # atno 17394 bound_to 11000
  140.6208  133.9995  155.7617 LP  0  0  0  0  0  0  0  0  0  0  0  0  # atno 17395 bound_to 11000

$$$$
