AV-unprocessed.smi:2942|AV-procd|sdf|11267|dock10
  -GOLD-   2272016163D 1   1.00000     0.00000
 Structure written by MMmdl.
 46 49  0  0  0  0  0  0  0  0  2 V2000
  146.9133  138.6438  151.2815 O   0  0  0  0  0  0  0  0  0  0  0  0
  146.3861  138.6653  152.3941 C   0  0  0  0  0  0  0  0  0  0  0  0
  145.2968  137.9337  152.6821 N   0  0  0  0  0  0  0  0  0  0  0  0
  144.6521  136.9876  151.7768 C   0  0  0  0  0  0  0  0  0  0  0  0
  145.6524  136.2336  150.8744 C   0  0  0  0  0  0  0  0  0  0  0  0
  145.6614  134.7288  151.0880 C   0  0  0  0  0  0  0  0  0  0  0  0
  144.6083  133.9023  150.6404 C   0  0  0  0  0  0  0  0  0  0  0  0
  144.6694  132.5144  150.8856 C   0  0  0  0  0  0  0  0  0  0  0  0
  145.7793  131.9827  151.5748 C   0  0  0  0  0  0  0  0  0  0  0  0
  146.8036  132.8534  151.9993 C   0  0  0  0  0  0  0  0  0  0  0  0
  146.7098  134.1760  151.7417 N   0  3  0  0  0  0  0  0  0  0  0  0
  147.0063  139.5260  153.5192 C   0  0  0  0  0  0  0  0  0  0  0  0
  148.4391  139.0055  153.8213 C   0  0  0  0  0  0  0  0  0  0  0  0
  149.1092  139.8736  154.9072 C   0  0  1  0  0  0  0  0  0  0  0  0
  149.2036  141.3325  154.4143 C   0  0  0  0  0  0  0  0  0  0  0  0
  147.7836  141.8671  154.1333 C   0  0  2  0  0  0  0  0  0  0  0  0
  146.9468  141.8167  155.4281 C   0  0  0  0  0  0  0  0  0  0  0  0
  146.8584  140.3574  155.9205 C   0  0  2  0  0  0  0  0  0  0  0  0
  148.2753  139.8167  156.2037 C   0  0  0  0  0  0  0  0  0  0  0  0
  146.1808  139.4879  154.8404 C   0  0  0  0  0  0  0  0  0  0  0  0
  147.1106  141.0016  153.0457 C   0  0  0  0  0  0  0  0  0  0  0  0
  144.9084  138.0124  153.6112 H   0  0  0  0  0  0  0  0  0  0  0  0
  144.1098  136.2692  152.3918 H   0  0  0  0  0  0  0  0  0  0  0  0
  143.9034  137.4991  151.1698 H   0  0  0  0  0  0  0  0  0  0  0  0
  145.4274  136.4424  149.8279 H   0  0  0  0  0  0  0  0  0  0  0  0
  146.6607  136.6144  151.0427 H   0  0  0  0  0  0  0  0  0  0  0  0
  143.7621  134.3251  150.1184 H   0  0  0  0  0  0  0  0  0  0  0  0
  143.8729  131.8658  150.5514 H   0  0  0  0  0  0  0  0  0  0  0  0
  145.8432  130.9232  151.7752 H   0  0  0  0  0  0  0  0  0  0  0  0
  147.6870  132.5355  152.5339 H   0  0  0  0  0  0  0  0  0  0  0  0
  148.4041  137.9664  154.1522 H   0  0  0  0  0  0  0  0  0  0  0  0
  149.0539  139.0168  152.9198 H   0  0  0  0  0  0  0  0  0  0  0  0
  150.1119  139.4939  155.1056 H   0  0  0  0  0  0  0  0  0  0  0  0
  149.7005  141.9526  155.1615 H   0  0  0  0  0  0  0  0  0  0  0  0
  149.8138  141.3885  153.5120 H   0  0  0  0  0  0  0  0  0  0  0  0
  147.8488  142.8984  153.7854 H   0  0  0  0  0  0  0  0  0  0  0  0
  147.3985  142.4475  156.1949 H   0  0  0  0  0  0  0  0  0  0  0  0
  145.9482  142.2169  155.2484 H   0  0  0  0  0  0  0  0  0  0  0  0
  146.2683  140.3210  156.8369 H   0  0  0  0  0  0  0  0  0  0  0  0
  148.2225  138.7924  156.5748 H   0  0  0  0  0  0  0  0  0  0  0  0
  148.7547  140.4044  156.9877 H   0  0  0  0  0  0  0  0  0  0  0  0
  145.1654  139.8500  154.6705 H   0  0  0  0  0  0  0  0  0  0  0  0
  146.0883  138.4650  155.2091 H   0  0  0  0  0  0  0  0  0  0  0  0
  147.6841  141.0730  152.1200 H   0  0  0  0  0  0  0  0  0  0  0  0
  146.1194  141.3985  152.8204 H   0  0  0  0  0  0  0  0  0  0  0  0
  147.4609  134.7890  152.0603 H   0  0  0  0  0  0  0  0  0  0  0  0
  1  2  2  0  0  0  0
  2  3  1  0  0  0  0
  2 12  1  0  0  0  0
  3  4  1  0  0  0  0
  3 22  1  0  0  0  0
  4  5  1  0  0  0  0
  4 23  1  0  0  0  0
  4 24  1  0  0  0  0
  5  6  1  0  0  0  0
  5 25  1  0  0  0  0
  5 26  1  0  0  0  0
  6 11  1  0  0  0  0
  6  7  2  0  0  0  0
  7  8  1  0  0  0  0
  7 27  1  0  0  0  0
  8  9  2  0  0  0  0
  8 28  1  0  0  0  0
  9 10  1  0  0  0  0
  9 29  1  0  0  0  0
 10 11  2  0  0  0  0
 10 30  1  0  0  0  0
 11 46  1  0  0  0  0
 12 20  1  0  0  0  0
 12 21  1  0  0  0  0
 12 13  1  0  0  0  0
 13 14  1  0  0  0  0
 13 31  1  0  0  0  0
 13 32  1  0  0  0  0
 14 19  1  0  0  0  0
 14 15  1  0  0  0  0
 14 33  1  0  0  0  0
 15 16  1  0  0  0  0
 15 34  1  0  0  0  0
 15 35  1  0  0  0  0
 16 17  1  0  0  0  0
 16 21  1  0  0  0  0
 16 36  1  0  0  0  0
 17 18  1  0  0  0  0
 17 37  1  0  0  0  0
 17 38  1  0  0  0  0
 18 19  1  0  0  0  0
 18 20  1  0  0  0  0
 18 39  1  0  0  0  0
 19 40  1  0  0  0  0
 19 41  1  0  0  0  0
 20 42  1  0  0  0  0
 20 43  1  0  0  0  0
 21 44  1  0  0  0  0
 21 45  1  0  0  0  0
M  CHG  1  11   1
M  END
> <s_m_source_file>
AV-unprocessed.smi

> <i_m_source_file_index>
2942

> <i_lp_mmshare_version>
43012

> <i_f3d_flags>
0

> <s_epik_input>
W0NIMl0xW0NASF0oW0NIMl0yKVtDSDJdW0NASF0oW0NIMl0zKVtDSDJdW0NAQEhdMVtDSDJdQzIzQyg9TylbTkhdW0NIMl1bQ0gyXWM0W2NIXVtjSF1bY0hdW2NIXW40

> <s_epik_cmdline>
J2VwaWtfcHl0aG9uJywgJy1waCcsICc3LjAnLCAnLXRuJywgJzgnLCAnLW1hJywgJzIwMCcsICctbWV0YWxfYmluZGluZycsICctaW1hZScsICc8aW5maWxlLm1hZT4nLCAnLW9tYWUnLCAnPG91dGZpbGUubWFlPic=

> <r_epik_Ionization_Penalty>
1.81477

> <r_epik_Ionization_Penalty_Charging>
1.81477

> <r_epik_Ionization_Penalty_Neutral>
2.68418e-08

> <r_epik_State_Penalty>
1.92951

> <r_epik_Charging_Adjusted_Penalty>
3.74429

> <i_epik_Tot_Q>
1

> <i_epik_Tot_abs_Q>
1

> <r_epik_Metal_State_Penalty>
1.95679

> <b_epik_Metal_Only>
0

> <s_lp_Force_Field>
OPLS_2005

> <r_lp_Energy>
40.8466

> <b_lp_Chiralities_Consistent>
1

> <s_lp_Variant>
AV-unprocessed.smi:2942-2

> <Gold.Version>
5.8.1

> <Gold.Id.Protein>
6NUR|6NUR_protein|mol2

> <Gold.PLP.Fitness>
43.3056

> <Gold.PLP.PLP>
-35.7728

> <Gold.PLP.part.hbond>
-3.0529

> <Gold.PLP.part.metal>
0.0000

> <Gold.PLP.part.buried>
-0.5226

> <Gold.PLP.part.nonpolar>
-33.1214

> <Gold.PLP.part.repulsive>
1.3591

> <Gold.PLP.ligand.clash>
0.0000

> <Gold.PLP.ligand.torsion>
0.7389

> <Gold.PLP.Chemscore.Hbond>
3.0000

> <Gold.PLP.Chemscore.CHOScore>
0.0000

> <Gold.PLP.Chemscore.Metal>
0.0000

> <Gold.Chemscore.Hbonds>
donor molecule, donor type, donor heavy atom, donor atom, acceptor molecule, acceptor atom, score
      L1  H    11    46       P1  7948  1.95
      P1  H  7954  7966       L1     1  1.00

> <Gold.PLP.Chemscore.Internal.Correction>
0.0107

> <Gold.Rescore>
     Score         DG    S(hbond)    S(metal)    S(lipo)     H(rot)  DE(clash)    DE(int)     intcor
     14.60     -18.49       1.58        0.00      96.96       1.41       1.68       2.21       ----

> <Gold.Chemscore.Fitness>
14.5990

> <Gold.Chemscore.DG>
-18.4882

> <Gold.Chemscore.ZeroCoef>
-5.4800

> <Gold.Chemscore.Hbond>
1.5822

> <Gold.Chemscore.Metal>
0.0000

> <Gold.Chemscore.Lipo>
96.9641

> <Gold.Chemscore.Internal_Hbond>
0.0000

> <Gold.Chemscore.DEClash>
1.6806

> <Gold.Chemscore.DEInternal>
2.2086

> <Gold.Chemscore.Rot>
1.4145

> <Gold.Chemscore.Internal.Correction>
   9.000000E+99

> <Gold.Chemscore.Hbonds>
donor molecule, donor type, donor heavy atom, donor atom, acceptor molecule, acceptor atom, score
      L1  H    11    46       P1  7948  0.73
      P1  H  7954  7966       L1     1  0.91

> <Gold.Chemscore.Hbond.Weighted>
-5.2845

> <Gold.Chemscore.Metal.Weighted>
-0.0000

> <Gold.Chemscore.Lipo.Weighted>
-11.3448

> <Gold.Chemscore.Internal_Hbond.Weighted>
0.0000

> <Gold.Chemscore.DEClash.Weighted>
1.6806

> <Gold.Chemscore.DEInternal.Weighted>
2.2086

> <Gold.Chemscore.Rot.Weighted>
3.6210

> <Gold.Chemscore.Internal.Correction.Weighted>
   9.000000E+99

> <Gold.Protein.RotatedTorsions>
[ 6907 6896 6895 6894 ] final  -95.82 input  -60.11 | X-H torsion
[ 7974 7965 7964 7962 ] final   26.23 input  175.53 | X-H torsion
[ 8008 7997 7996 7995 ] final   35.47 input   59.86 | X-H torsion
[ 10167 10162 10161 10158 ] final  125.50 input  -65.29 | X-H torsion
[ 10718 10713 10712 10709 ] final   15.74 input   66.30 | X-H torsion
[ 10763 10752 10751 10750 ] final  143.99 input  -60.55 | X-H torsion
[ 11005 11000 10999 10996 ] final  177.25 input  -57.11 | X-H torsion

> <Gold.Protein.ActiveResidues>
 VAL166  LYS551  ARG553  GLY616  TRP617  ASP618  TYR619  PRO620  LYS621  CYS622 
 ASP623  PHE694  ASN695  SER759  ASP760  ASP761  ALA762  ILE779  LEU786  VAL792 
 PHE793  MET794  SER795  GLU796  ALA797  LYS798  CYS799  TRP800  GLU811  SER814 

> <Gold.Protein.RotatedAtoms>
  150.6973  134.1599  159.4171 H   0  0  0  0  0  0  0  0  0  0  0  0  # atno 6907 bound_to 6896
  151.9579  135.0135  160.0555 H   0  0  0  0  0  0  0  0  0  0  0  0  # atno 6908 bound_to 6896
  152.1953  133.4767  159.5066 H   0  0  0  0  0  0  0  0  0  0  0  0  # atno 6909 bound_to 6896
  146.1848  139.7356  142.8874 H   0  0  0  0  0  0  0  0  0  0  0  0  # atno 7974 bound_to 7965
  155.1717  140.3292  155.4391 H   0  0  0  0  0  0  0  0  0  0  0  0  # atno 8008 bound_to 7997
  156.2508  140.1942  156.6770 H   0  0  0  0  0  0  0  0  0  0  0  0  # atno 8009 bound_to 7997
  154.6333  140.0579  156.9744 H   0  0  0  0  0  0  0  0  0  0  0  0  # atno 8010 bound_to 7997
  139.5682  144.6924  151.3851 H   0  0  0  0  0  0  0  0  0  0  0  0  # atno 10167 bound_to 10162
  157.0579  130.6296  149.5780 H   0  0  0  0  0  0  0  0  0  0  0  0  # atno 10718 bound_to 10713
  153.9816  135.2941  155.3419 H   0  0  0  0  0  0  0  0  0  0  0  0  # atno 10763 bound_to 10752
  154.7266  135.5086  153.8899 H   0  0  0  0  0  0  0  0  0  0  0  0  # atno 10764 bound_to 10752
  153.0852  135.6691  154.0078 H   0  0  0  0  0  0  0  0  0  0  0  0  # atno 10765 bound_to 10752
  140.3820  134.6938  157.4457 H   0  0  0  0  0  0  0  0  0  0  0  0  # atno 11005 bound_to 11000
  145.3971  141.0380  143.3091 LP  0  0  0  0  0  0  0  0  0  0  0  0  # atno 17320 bound_to 7965
  144.8378  139.5522  143.6914 LP  0  0  0  0  0  0  0  0  0  0  0  0  # atno 17321 bound_to 7965
  140.6966  143.7733  150.7337 LP  0  0  0  0  0  0  0  0  0  0  0  0  # atno 17342 bound_to 10162
  140.1232  143.4593  152.2300 LP  0  0  0  0  0  0  0  0  0  0  0  0  # atno 17343 bound_to 10162
  155.9987  130.5062  150.7582 LP  0  0  0  0  0  0  0  0  0  0  0  0  # atno 17370 bound_to 10713
  157.4978  131.0916  151.0350 LP  0  0  0  0  0  0  0  0  0  0  0  0  # atno 17371 bound_to 10713
  140.0471  134.6184  155.8907 LP  0  0  0  0  0  0  0  0  0  0  0  0  # atno 17394 bound_to 11000
  141.1920  133.6573  156.5482 LP  0  0  0  0  0  0  0  0  0  0  0  0  # atno 17395 bound_to 11000

$$$$
