AV-unprocessed.smi:2146|AV-procd|sdf|8740|dock10
  -GOLD-   2272011513D 1   1.00000     0.00000
 Structure written by MMmdl.
 45 46  0  0  0  0  0  0  0  0  2 V2000
  148.9879  134.0884  154.6984 C   0  0  0  0  0  0  0  0  0  0  0  0
  147.6226  134.7871  154.4795 C   0  0  2  0  0  0  0  0  0  0  0  0
  146.5913  134.2836  155.5214 C   0  0  0  0  0  0  0  0  0  0  0  0
  146.6240  135.0636  156.7535 N   0  0  0  0  0  0  0  0  0  0  0  0
  147.6342  135.0496  157.6347 C   0  0  0  0  0  0  0  0  0  0  0  0
  148.6408  134.3545  157.4890 O   0  0  0  0  0  0  0  0  0  0  0  0
  147.4628  135.9583  158.8613 C   0  0  0  0  0  0  0  0  0  0  0  0
  147.4204  135.2285  160.1402 N   0  0  0  0  0  0  0  0  0  0  0  0
  147.3289  133.8243  160.0724 C   0  0  0  0  0  0  0  0  0  0  0  0
  147.2923  133.0381  161.1656 C   0  0  0  0  0  0  0  0  0  0  0  0
  147.1365  131.5286  161.0620 C   0  0  0  0  0  0  0  0  0  0  0  0
  145.9591  131.1338  161.5472 F   0  0  0  0  0  0  0  0  0  0  0  0
  147.2254  131.1204  159.7954 F   0  0  0  0  0  0  0  0  0  0  0  0
  148.0969  130.9249  161.7608 F   0  0  0  0  0  0  0  0  0  0  0  0
  147.3198  133.7146  162.4474 C   0  0  0  0  0  0  0  0  0  0  0  0
  147.4018  135.0569  162.5302 C   0  0  0  0  0  0  0  0  0  0  0  0
  147.4641  135.8967  161.3318 C   0  0  0  0  0  0  0  0  0  0  0  0
  147.5498  137.1232  161.3945 O   0  0  0  0  0  0  0  0  0  0  0  0
  147.0894  134.6203  153.0863 N   0  3  0  0  0  0  0  0  0  0  0  0
  146.8071  133.1985  152.7444 C   0  0  0  0  0  0  0  0  0  0  0  0
  146.3366  133.0587  151.2876 C   0  0  0  0  0  0  0  0  0  0  0  0
  145.1762  133.8510  151.0875 O   0  0  0  0  0  0  0  0  0  0  0  0
  145.4458  135.2278  151.3022 C   0  0  0  0  0  0  0  0  0  0  0  0
  145.8996  135.4537  152.7550 C   0  0  0  0  0  0  0  0  0  0  0  0
  149.3393  134.1909  155.7247 H   0  0  0  0  0  0  0  0  0  0  0  0
  149.7733  134.5217  154.0792 H   0  0  0  0  0  0  0  0  0  0  0  0
  148.9286  133.0214  154.4802 H   0  0  0  0  0  0  0  0  0  0  0  0
  147.7849  135.8536  154.6440 H   0  0  0  0  0  0  0  0  0  0  0  0
  145.5756  134.3332  155.1322 H   0  0  0  0  0  0  0  0  0  0  0  0
  146.7855  133.2368  155.7613 H   0  0  0  0  0  0  0  0  0  0  0  0
  145.8304  135.6587  156.9449 H   0  0  0  0  0  0  0  0  0  0  0  0
  148.2711  136.6920  158.8717 H   0  0  0  0  0  0  0  0  0  0  0  0
  146.5517  136.5438  158.7298 H   0  0  0  0  0  0  0  0  0  0  0  0
  147.2922  133.4244  159.0695 H   0  0  0  0  0  0  0  0  0  0  0  0
  147.2799  133.1350  163.3580 H   0  0  0  0  0  0  0  0  0  0  0  0
  147.4239  135.5268  163.5024 H   0  0  0  0  0  0  0  0  0  0  0  0
  147.6894  132.5755  152.8753 H   0  0  0  0  0  0  0  0  0  0  0  0
  146.0418  132.8069  153.4162 H   0  0  0  0  0  0  0  0  0  0  0  0
  147.1239  133.3533  150.5914 H   0  0  0  0  0  0  0  0  0  0  0  0
  146.0930  132.0185  151.0706 H   0  0  0  0  0  0  0  0  0  0  0  0
  146.2029  135.5774  150.5984 H   0  0  0  0  0  0  0  0  0  0  0  0
  144.5390  135.7985  151.1007 H   0  0  0  0  0  0  0  0  0  0  0  0
  145.0852  135.2194  153.4425 H   0  0  0  0  0  0  0  0  0  0  0  0
  146.1245  136.5143  152.8613 H   0  0  0  0  0  0  0  0  0  0  0  0
  147.8227  134.9310  152.4648 H   0  0  0  0  0  0  0  0  0  0  0  0
  1  2  1  0  0  0  0
  1 25  1  0  0  0  0
  1 26  1  0  0  0  0
  1 27  1  0  0  0  0
  2  3  1  0  0  0  0
  2 19  1  0  0  0  0
  2 28  1  0  0  0  0
  3  4  1  0  0  0  0
  3 29  1  0  0  0  0
  3 30  1  0  0  0  0
  4  5  1  0  0  0  0
  4 31  1  0  0  0  0
  5  6  2  0  0  0  0
  5  7  1  0  0  0  0
  7  8  1  0  0  0  0
  7 32  1  0  0  0  0
  7 33  1  0  0  0  0
  8 17  1  0  0  0  0
  8  9  1  0  0  0  0
  9 10  2  0  0  0  0
  9 34  1  0  0  0  0
 10 11  1  0  0  0  0
 10 15  1  0  0  0  0
 11 12  1  0  0  0  0
 11 13  1  0  0  0  0
 11 14  1  0  0  0  0
 15 16  2  0  0  0  0
 15 35  1  0  0  0  0
 16 17  1  0  0  0  0
 16 36  1  0  0  0  0
 17 18  2  0  0  0  0
 19 24  1  0  0  0  0
 19 20  1  0  0  0  0
 19 45  1  0  0  0  0
 20 21  1  0  0  0  0
 20 37  1  0  0  0  0
 20 38  1  0  0  0  0
 21 22  1  0  0  0  0
 21 39  1  0  0  0  0
 21 40  1  0  0  0  0
 22 23  1  0  0  0  0
 23 24  1  0  0  0  0
 23 41  1  0  0  0  0
 23 42  1  0  0  0  0
 24 43  1  0  0  0  0
 24 44  1  0  0  0  0
M  CHG  1  19   1
M  END
> <s_m_source_file>
AV-unprocessed.smi

> <i_m_source_file_index>
2146

> <i_lp_mmshare_version>
43012

> <i_f3d_flags>
0

> <s_epik_input>
W0NIMl0xW0NIMl1PW0NIMl1bQ0gyXU4xW0NASF0oW0NIM10pW0NIMl1bTkhdQyg9TylbQ0gyXW4yW2NIXWMoQyhGKShGKUYpW2NIXVtjSF1jMj1P

> <s_epik_cmdline>
J2VwaWtfcHl0aG9uJywgJy1waCcsICc3LjAnLCAnLXRuJywgJzgnLCAnLW1hJywgJzIwMCcsICctbWV0YWxfYmluZGluZycsICctaW1hZScsICc8aW5maWxlLm1hZT4nLCAnLW9tYWUnLCAnPG91dGZpbGUubWFlPic=

> <r_lp_tautomer_probability>
1

> <r_epik_Ionization_Penalty>
0.656654

> <r_epik_Ionization_Penalty_Charging>
0.656653

> <r_epik_Ionization_Penalty_Neutral>
9.12373e-08

> <r_epik_State_Penalty>
0.675641

> <r_epik_Charging_Adjusted_Penalty>
1.33229

> <i_epik_Tot_Q>
1

> <i_epik_Tot_abs_Q>
1

> <r_epik_Metal_State_Penalty>
0.675692

> <b_epik_Metal_Only>
0

> <s_lp_Force_Field>
OPLS_2005

> <r_lp_Energy>
33.6044

> <b_lp_Chiralities_Consistent>
1

> <s_lp_Variant>
AV-unprocessed.smi:2146-3

> <Gold.Version>
5.8.1

> <Gold.Id.Protein>
6NUR|6NUR_protein|mol2

> <Gold.PLP.Fitness>
45.0038

> <Gold.PLP.PLP>
-35.9855

> <Gold.PLP.part.hbond>
-3.0000

> <Gold.PLP.part.metal>
0.0000

> <Gold.PLP.part.buried>
-4.0476

> <Gold.PLP.part.nonpolar>
-29.3902

> <Gold.PLP.part.repulsive>
0.1235

> <Gold.PLP.ligand.clash>
1.2532

> <Gold.PLP.ligand.torsion>
0.6732

> <Gold.PLP.Chemscore.Hbond>
3.8400

> <Gold.PLP.Chemscore.CHOScore>
0.0000

> <Gold.PLP.Chemscore.Metal>
0.0000

> <Gold.Chemscore.Hbonds>
donor molecule, donor type, donor heavy atom, donor atom, acceptor molecule, acceptor atom, score
      L1  H    19    45       P1  7948  2.00
      P1  H  6931  6943       L1    18  0.98
      P1  H  6934  6947       L1    18  0.88

> <Gold.PLP.Chemscore.Internal.Correction>
0.0979

> <Gold.Rescore>
     Score         DG    S(hbond)    S(metal)    S(lipo)     H(rot)  DE(clash)    DE(int)     intcor
     14.27     -16.36       2.75        0.00      62.12       2.18       0.01       2.08       ----

> <Gold.Chemscore.Fitness>
14.2688

> <Gold.Chemscore.DG>
-16.3624

> <Gold.Chemscore.ZeroCoef>
-5.4800

> <Gold.Chemscore.Hbond>
2.7535

> <Gold.Chemscore.Metal>
0.0000

> <Gold.Chemscore.Lipo>
62.1179

> <Gold.Chemscore.Internal_Hbond>
0.0000

> <Gold.Chemscore.DEClash>
0.0108

> <Gold.Chemscore.DEInternal>
2.0828

> <Gold.Chemscore.Rot>
2.1805

> <Gold.Chemscore.Internal.Correction>
   9.000000E+99

> <Gold.Chemscore.Hbonds>
donor molecule, donor type, donor heavy atom, donor atom, acceptor molecule, acceptor atom, score
      L1  H    19    45       P1  7948  0.88
      P1  H  6931  6943       L1    18  0.93
      P1  H  6934  6947       L1    18  0.84

> <Gold.Chemscore.Hbond.Weighted>
-9.1968

> <Gold.Chemscore.Metal.Weighted>
-0.0000

> <Gold.Chemscore.Lipo.Weighted>
-7.2678

> <Gold.Chemscore.Internal_Hbond.Weighted>
0.0000

> <Gold.Chemscore.DEClash.Weighted>
0.0108

> <Gold.Chemscore.DEInternal.Weighted>
2.0828

> <Gold.Chemscore.Rot.Weighted>
5.5822

> <Gold.Chemscore.Internal.Correction.Weighted>
   9.000000E+99

> <Gold.Protein.RotatedTorsions>
[ 6907 6896 6895 6894 ] final  132.76 input  -60.11 | X-H torsion
[ 7974 7965 7964 7962 ] final -115.84 input  175.53 | X-H torsion
[ 8008 7997 7996 7995 ] final   75.49 input   59.86 | X-H torsion
[ 10167 10162 10161 10158 ] final -133.24 input  -65.29 | X-H torsion
[ 10718 10713 10712 10709 ] final  -56.32 input   66.30 | X-H torsion
[ 10763 10752 10751 10750 ] final -129.21 input  -60.55 | X-H torsion
[ 11005 11000 10999 10996 ] final   42.34 input  -57.11 | X-H torsion

> <Gold.Protein.ActiveResidues>
 VAL166  LYS551  ARG553  GLY616  TRP617  ASP618  TYR619  PRO620  LYS621  CYS622 
 ASP623  PHE694  ASN695  SER759  ASP760  ASP761  ALA762  ILE779  LEU786  VAL792 
 PHE793  MET794  SER795  GLU796  ALA797  LYS798  CYS799  TRP800  GLU811  SER814 

> <Gold.Protein.RotatedAtoms>
  152.3291  133.5938  159.5796 H   0  0  0  0  0  0  0  0  0  0  0  0  # atno 6907 bound_to 6896
  150.7413  133.9896  159.3611 H   0  0  0  0  0  0  0  0  0  0  0  0  # atno 6908 bound_to 6896
  151.7772  135.0771  160.0419 H   0  0  0  0  0  0  0  0  0  0  0  0  # atno 6909 bound_to 6896
  145.1036  140.8568  143.3911 H   0  0  0  0  0  0  0  0  0  0  0  0  # atno 7974 bound_to 7965
  155.8136  140.3472  155.5472 H   0  0  0  0  0  0  0  0  0  0  0  0  # atno 8008 bound_to 7997
  155.8415  140.0942  157.1752 H   0  0  0  0  0  0  0  0  0  0  0  0  # atno 8009 bound_to 7997
  154.4005  140.1393  156.3721 H   0  0  0  0  0  0  0  0  0  0  0  0  # atno 8010 bound_to 7997
  139.9003  143.6615  152.2596 H   0  0  0  0  0  0  0  0  0  0  0  0  # atno 10167 bound_to 10162
  156.1298  130.4160  150.0289 H   0  0  0  0  0  0  0  0  0  0  0  0  # atno 10718 bound_to 10713
  154.8757  135.3903  154.3882 H   0  0  0  0  0  0  0  0  0  0  0  0  # atno 10763 bound_to 10752
  153.4621  135.7029  153.6049 H   0  0  0  0  0  0  0  0  0  0  0  0  # atno 10764 bound_to 10752
  153.4543  135.3826  155.2270 H   0  0  0  0  0  0  0  0  0  0  0  0  # atno 10765 bound_to 10752
  140.1748  134.4177  155.8235 H   0  0  0  0  0  0  0  0  0  0  0  0  # atno 11005 bound_to 11000
  145.0927  139.2879  143.5727 LP  0  0  0  0  0  0  0  0  0  0  0  0  # atno 17320 bound_to 7965
  146.3529  140.0469  142.8639 LP  0  0  0  0  0  0  0  0  0  0  0  0  # atno 17321 bound_to 7965
  139.7031  144.7632  151.1239 LP  0  0  0  0  0  0  0  0  0  0  0  0  # atno 17342 bound_to 10162
  140.7708  143.5431  150.9290 LP  0  0  0  0  0  0  0  0  0  0  0  0  # atno 17343 bound_to 10162
  156.8204  130.9357  151.3641 LP  0  0  0  0  0  0  0  0  0  0  0  0  # atno 17370 bound_to 10713
  157.6477  130.8858  149.9571 LP  0  0  0  0  0  0  0  0  0  0  0  0  # atno 17371 bound_to 10713
  141.2220  133.6973  156.7828 LP  0  0  0  0  0  0  0  0  0  0  0  0  # atno 17394 bound_to 11000
  140.2335  134.8668  157.3501 LP  0  0  0  0  0  0  0  0  0  0  0  0  # atno 17395 bound_to 11000

$$$$
