AV-unprocessed.smi:1525|AV-procd|sdf|6143|dock9
  -GOLD-   22720 6293D 1   1.00000     0.00000
 Structure written by MMmdl.
 49 51  0  0  0  0  0  0  0  0  2 V2000
  150.5531  134.6117  155.7587 O   0  0  0  0  0  0  0  0  0  0  0  0
  150.0245  135.1121  154.7661 C   0  0  0  0  0  0  0  0  0  0  0  0
  150.1532  136.4026  154.4278 N   0  0  0  0  0  0  0  0  0  0  0  0
  150.9127  137.3916  155.1829 C   0  0  0  0  0  0  0  0  0  0  0  0
  151.3649  138.5523  154.2773 C   0  0  0  0  0  0  0  0  0  0  0  0
  150.7283  139.8375  154.5577 N   0  0  0  0  0  0  0  0  0  0  0  0
  149.2823  139.7519  154.3799 C   0  0  0  0  0  0  0  0  0  0  0  0
  148.5845  141.0916  154.6719 C   0  0  0  0  0  0  0  0  0  0  0  0
  148.9034  141.5154  155.9930 O   0  0  0  0  0  0  0  0  0  0  0  0
  150.3049  141.6572  156.1994 C   0  0  0  0  0  0  0  0  0  0  0  0
  151.0107  140.3209  155.9079 C   0  0  0  0  0  0  0  0  0  0  0  0
  149.2325  134.4574  153.9005 N   0  0  0  0  0  0  0  0  0  0  0  0
  148.8468  133.0869  153.9311 C   0  0  0  0  0  0  0  0  0  0  0  0
  149.5780  132.1182  154.6654 C   0  0  0  0  0  0  0  0  0  0  0  0
  149.1614  130.7731  154.6587 C   0  0  0  0  0  0  0  0  0  0  0  0
  148.0261  130.4141  153.9108 C   0  0  0  0  0  0  0  0  0  0  0  0
  147.3622  131.3561  153.2094 N   0  3  0  0  0  0  0  0  0  0  0  0
  147.7156  132.6651  153.1796 C   0  0  0  0  0  0  0  0  0  0  0  0
  146.9607  133.5575  152.3887 N   0  0  0  0  0  0  0  0  0  0  0  0
  146.7623  133.1103  151.0122 C   0  0  0  0  0  0  0  0  0  0  0  0
  145.3361  133.5092  150.6245 C   0  0  0  0  0  0  0  0  0  0  0  0
  144.6125  133.5638  151.9643 C   0  0  0  0  0  0  0  0  0  0  0  0
  145.6982  134.0870  152.9019 C   0  0  0  0  0  0  0  0  0  0  0  0
  149.6840  136.7299  153.5963 H   0  0  0  0  0  0  0  0  0  0  0  0
  150.3123  137.7482  156.0207 H   0  0  0  0  0  0  0  0  0  0  0  0
  151.7829  136.8947  155.6121 H   0  0  0  0  0  0  0  0  0  0  0  0
  152.4434  138.6635  154.3984 H   0  0  0  0  0  0  0  0  0  0  0  0
  151.2078  138.2869  153.2306 H   0  0  0  0  0  0  0  0  0  0  0  0
  149.0523  139.4424  153.3597 H   0  0  0  0  0  0  0  0  0  0  0  0
  148.8739  138.9835  155.0382 H   0  0  0  0  0  0  0  0  0  0  0  0
  148.8915  141.8528  153.9531 H   0  0  0  0  0  0  0  0  0  0  0  0
  147.5035  140.9839  154.5832 H   0  0  0  0  0  0  0  0  0  0  0  0
  150.6952  142.4478  155.5566 H   0  0  0  0  0  0  0  0  0  0  0  0
  150.4847  141.9642  157.2296 H   0  0  0  0  0  0  0  0  0  0  0  0
  150.6929  139.5778  156.6410 H   0  0  0  0  0  0  0  0  0  0  0  0
  152.0825  140.4583  156.0458 H   0  0  0  0  0  0  0  0  0  0  0  0
  148.7842  135.0218  153.1940 H   0  0  0  0  0  0  0  0  0  0  0  0
  150.4617  132.3835  155.2253 H   0  0  0  0  0  0  0  0  0  0  0  0
  149.7091  130.0271  155.2160 H   0  0  0  0  0  0  0  0  0  0  0  0
  147.6365  129.4086  153.8448 H   0  0  0  0  0  0  0  0  0  0  0  0
  147.4936  133.5636  150.3426 H   0  0  0  0  0  0  0  0  0  0  0  0
  146.8756  132.0268  150.9473 H   0  0  0  0  0  0  0  0  0  0  0  0
  145.3395  134.5001  150.1681 H   0  0  0  0  0  0  0  0  0  0  0  0
  144.8787  132.8149  149.9191 H   0  0  0  0  0  0  0  0  0  0  0  0
  143.7245  134.1966  151.9467 H   0  0  0  0  0  0  0  0  0  0  0  0
  144.3097  132.5601  152.2657 H   0  0  0  0  0  0  0  0  0  0  0  0
  145.4891  133.8386  153.9424 H   0  0  0  0  0  0  0  0  0  0  0  0
  145.7467  135.1746  152.8422 H   0  0  0  0  0  0  0  0  0  0  0  0
  146.5495  131.0646  152.6660 H   0  0  0  0  0  0  0  0  0  0  0  0
  1  2  2  0  0  0  0
  2  3  1  0  0  0  0
  2 12  1  0  0  0  0
  3  4  1  0  0  0  0
  3 24  1  0  0  0  0
  4  5  1  0  0  0  0
  4 25  1  0  0  0  0
  4 26  1  0  0  0  0
  5  6  1  0  0  0  0
  5 27  1  0  0  0  0
  5 28  1  0  0  0  0
  6 11  1  0  0  0  0
  6  7  1  0  0  0  0
  7  8  1  0  0  0  0
  7 29  1  0  0  0  0
  7 30  1  0  0  0  0
  8  9  1  0  0  0  0
  8 31  1  0  0  0  0
  8 32  1  0  0  0  0
  9 10  1  0  0  0  0
 10 11  1  0  0  0  0
 10 33  1  0  0  0  0
 10 34  1  0  0  0  0
 11 35  1  0  0  0  0
 11 36  1  0  0  0  0
 12 13  1  0  0  0  0
 12 37  1  0  0  0  0
 13 18  1  0  0  0  0
 13 14  2  0  0  0  0
 14 15  1  0  0  0  0
 14 38  1  0  0  0  0
 15 16  2  0  0  0  0
 15 39  1  0  0  0  0
 16 17  1  0  0  0  0
 16 40  1  0  0  0  0
 17 18  2  0  0  0  0
 17 49  1  0  0  0  0
 18 19  1  0  0  0  0
 19 23  1  0  0  0  0
 19 20  1  0  0  0  0
 20 21  1  0  0  0  0
 20 41  1  0  0  0  0
 20 42  1  0  0  0  0
 21 22  1  0  0  0  0
 21 43  1  0  0  0  0
 21 44  1  0  0  0  0
 22 23  1  0  0  0  0
 22 45  1  0  0  0  0
 22 46  1  0  0  0  0
 23 47  1  0  0  0  0
 23 48  1  0  0  0  0
M  CHG  1  17   1
M  END
> <s_m_source_file>
AV-unprocessed.smi

> <i_m_source_file_index>
1525

> <i_lp_mmshare_version>
43012

> <i_f3d_flags>
0

> <s_epik_input>
W0NIMl0xW0NIMl1PW0NIMl1bQ0gyXU4xW0NIMl1bQ0gyXVtOSF1DKD1PKVtOSF1jMltjSF1bY0hdW2NIXW5jMk4zW0NIMl1bQ0gyXVtDSDJdW0NIMl0z

> <s_epik_cmdline>
J2VwaWtfcHl0aG9uJywgJy1waCcsICc3LjAnLCAnLXRuJywgJzgnLCAnLW1hJywgJzIwMCcsICctbWV0YWxfYmluZGluZycsICctaW1hZScsICc8aW5maWxlLm1hZT4nLCAnLW9tYWUnLCAnPG91dGZpbGUubWFlPic=

> <r_epik_Ionization_Penalty>
1.38385

> <r_epik_Ionization_Penalty_Charging>
1.11784

> <r_epik_Ionization_Penalty_Neutral>
0.26601

> <r_epik_State_Penalty>
1.46794

> <r_epik_Charging_Adjusted_Penalty>
2.58578

> <i_epik_Tot_Q>
1

> <i_epik_Tot_abs_Q>
1

> <r_epik_Metal_State_Penalty>
1.54909

> <b_epik_Metal_Only>
0

> <s_lp_Force_Field>
OPLS_2005

> <r_lp_Energy>
56.1891

> <b_lp_Chiralities_Consistent>
1

> <s_lp_Variant>
AV-unprocessed.smi:1525-3

> <Gold.Version>
5.8.1

> <Gold.Id.Protein>
6NUR|6NUR_protein|mol2

> <Gold.PLP.Fitness>
48.4628

> <Gold.PLP.PLP>
-41.5578

> <Gold.PLP.part.hbond>
-4.1367

> <Gold.PLP.part.metal>
0.0000

> <Gold.PLP.part.buried>
-4.5607

> <Gold.PLP.part.nonpolar>
-32.8930

> <Gold.PLP.part.repulsive>
0.4943

> <Gold.PLP.ligand.clash>
0.0000

> <Gold.PLP.ligand.torsion>
0.9725

> <Gold.PLP.Chemscore.Hbond>
2.8960

> <Gold.PLP.Chemscore.CHOScore>
0.0000

> <Gold.PLP.Chemscore.Metal>
0.0000

> <Gold.Chemscore.Hbonds>
donor molecule, donor type, donor heavy atom, donor atom, acceptor molecule, acceptor atom, score
      L1  H     3    24       P1  7948  0.90
      L1  H    12    37       P1  7948  0.94
      P1  H  7989  7998       L1     6  1.00

> <Gold.PLP.Chemscore.Internal.Correction>
0.1620

> <Gold.Rescore>
     Score         DG    S(hbond)    S(metal)    S(lipo)     H(rot)  DE(clash)    DE(int)     intcor
     12.85     -14.69       1.29        0.00      77.52       1.63       0.00       1.83       ----

> <Gold.Chemscore.Fitness>
12.8535

> <Gold.Chemscore.DG>
-14.6928

> <Gold.Chemscore.ZeroCoef>
-5.4800

> <Gold.Chemscore.Hbond>
1.2940

> <Gold.Chemscore.Metal>
0.0000

> <Gold.Chemscore.Lipo>
77.5174

> <Gold.Chemscore.Internal_Hbond>
0.0000

> <Gold.Chemscore.DEClash>
0.0047

> <Gold.Chemscore.DEInternal>
1.8345

> <Gold.Chemscore.Rot>
1.6323

> <Gold.Chemscore.Internal.Correction>
   9.000000E+99

> <Gold.Chemscore.Hbonds>
donor molecule, donor type, donor heavy atom, donor atom, acceptor molecule, acceptor atom, score
      L1  H     3    24       P1  7948  0.53
      L1  H    12    37       P1  7948  0.41
      P1  H  7989  7998       L1     6  0.14

> <Gold.Chemscore.Hbond.Weighted>
-4.3218

> <Gold.Chemscore.Metal.Weighted>
-0.0000

> <Gold.Chemscore.Lipo.Weighted>
-9.0695

> <Gold.Chemscore.Internal_Hbond.Weighted>
0.0000

> <Gold.Chemscore.DEClash.Weighted>
0.0047

> <Gold.Chemscore.DEInternal.Weighted>
1.8345

> <Gold.Chemscore.Rot.Weighted>
4.1786

> <Gold.Chemscore.Internal.Correction.Weighted>
   9.000000E+99

> <Gold.Protein.RotatedTorsions>
[ 6907 6896 6895 6894 ] final -118.10 input  -60.11 | X-H torsion
[ 7974 7965 7964 7962 ] final  124.08 input  175.53 | X-H torsion
[ 8008 7997 7996 7995 ] final  -97.94 input   59.86 | X-H torsion
[ 10167 10162 10161 10158 ] final  140.53 input  -65.29 | X-H torsion
[ 10718 10713 10712 10709 ] final -159.11 input   66.30 | X-H torsion
[ 10763 10752 10751 10750 ] final  -35.24 input  -60.55 | X-H torsion
[ 11005 11000 10999 10996 ] final  -12.89 input  -57.11 | X-H torsion

> <Gold.Protein.ActiveResidues>
 VAL166  LYS551  ARG553  GLY616  TRP617  ASP618  TYR619  PRO620  LYS621  CYS622 
 ASP623  PHE694  ASN695  SER759  ASP760  ASP761  ALA762  ILE779  LEU786  VAL792 
 PHE793  MET794  SER795  GLU796  ALA797  LYS798  CYS799  TRP800  GLU811  SER814 

> <Gold.Protein.RotatedAtoms>
  150.8192  133.8283  159.3146 H   0  0  0  0  0  0  0  0  0  0  0  0  # atno 6907 bound_to 6896
  151.6046  135.1043  160.0077 H   0  0  0  0  0  0  0  0  0  0  0  0  # atno 6908 bound_to 6896
  152.4282  133.7190  159.6579 H   0  0  0  0  0  0  0  0  0  0  0  0  # atno 6909 bound_to 6896
  145.0885  139.3604  143.4873 H   0  0  0  0  0  0  0  0  0  0  0  0  # atno 7974 bound_to 7965
  154.7945  140.0459  157.1226 H   0  0  0  0  0  0  0  0  0  0  0  0  # atno 8008 bound_to 7997
  154.9552  140.3070  155.5036 H   0  0  0  0  0  0  0  0  0  0  0  0  # atno 8009 bound_to 7997
  156.2954  140.2281  156.4633 H   0  0  0  0  0  0  0  0  0  0  0  0  # atno 8010 bound_to 7997
  139.5046  144.6228  151.6010 H   0  0  0  0  0  0  0  0  0  0  0  0  # atno 10167 bound_to 10162
  156.5636  130.8658  151.2817 H   0  0  0  0  0  0  0  0  0  0  0  0  # atno 10718 bound_to 10713
  153.8600  135.6841  153.4784 H   0  0  0  0  0  0  0  0  0  0  0  0  # atno 10763 bound_to 10752
  153.1347  135.4682  154.9402 H   0  0  0  0  0  0  0  0  0  0  0  0  # atno 10764 bound_to 10752
  154.7763  135.3254  154.8034 H   0  0  0  0  0  0  0  0  0  0  0  0  # atno 10765 bound_to 10752
  140.7704  133.8443  155.9202 H   0  0  0  0  0  0  0  0  0  0  0  0  # atno 11005 bound_to 11000
  146.3531  140.0708  142.8623 LP  0  0  0  0  0  0  0  0  0  0  0  0  # atno 17320 bound_to 7965
  145.1094  140.9396  143.4665 LP  0  0  0  0  0  0  0  0  0  0  0  0  # atno 17321 bound_to 7965
  140.5936  143.9736  150.6340 LP  0  0  0  0  0  0  0  0  0  0  0  0  # atno 17342 bound_to 10162
  140.2925  143.3315  152.1049 LP  0  0  0  0  0  0  0  0  0  0  0  0  # atno 17343 bound_to 10162
  157.7363  130.9777  150.2130 LP  0  0  0  0  0  0  0  0  0  0  0  0  # atno 17370 bound_to 10713
  156.2777  130.3729  149.7967 LP  0  0  0  0  0  0  0  0  0  0  0  0  # atno 17371 bound_to 10713
  140.9579  134.1694  157.4677 LP  0  0  0  0  0  0  0  0  0  0  0  0  # atno 17394 bound_to 11000
  139.8757  134.9934  156.5642 LP  0  0  0  0  0  0  0  0  0  0  0  0  # atno 17395 bound_to 11000

$$$$
