AV-unprocessed.smi:1412|AV-procd|sdf|5745|dock5
  -GOLD-   22720 5383D 1   1.00000     0.00000
 Structure written by MMmdl.
 40 41  0  0  0  0  0  0  0  0  2 V2000
  148.5895  141.4698  155.1983 C   0  0  0  0  0  0  0  0  0  0  0  0
  148.5144  140.3947  156.2980 C   0  0  0  0  0  0  0  0  0  0  0  0
  149.8570  139.6645  156.6222 C   0  0  2  0  0  0  0  0  0  0  0  0
  150.6664  139.6328  155.2979 C   0  0  0  0  0  0  0  0  0  0  0  0
  149.5272  138.1949  157.0445 C   0  0  0  0  0  0  0  0  0  0  0  0
  148.8225  138.0866  158.3232 N   0  0  0  0  0  0  0  0  0  0  0  0
  148.9183  137.0845  159.2092 C   0  0  0  0  0  0  0  0  0  0  0  0
  149.6710  136.1330  158.9886 O   0  0  0  0  0  0  0  0  0  0  0  0
  148.1253  137.2423  160.2930 N   0  5  0  0  0  0  0  0  0  0  0  0
  147.6596  136.1648  160.9457 C   0  0  0  0  0  0  0  0  0  0  0  0
  147.3223  135.0306  160.3114 N   0  0  0  0  0  0  0  0  0  0  0  0
  146.8681  134.0390  161.1706 N   0  0  0  0  0  0  0  0  0  0  0  0
  146.8835  134.4500  162.4382 C   0  0  0  0  0  0  0  0  0  0  0  0
  147.4549  136.0846  162.6977 S   0  0  0  0  0  0  0  0  0  0  0  0
  150.6208  140.3906  157.6771 N   0  0  0  0  0  0  0  0  0  0  0  0
  150.8428  141.8182  157.4173 C   0  0  0  0  0  0  0  0  0  0  0  0
  151.5048  142.5248  158.6126 C   0  0  0  0  0  0  0  0  0  0  0  0
  152.7304  141.8784  158.9350 O   0  0  0  0  0  0  0  0  0  0  0  0
  152.5530  140.5015  159.2463 C   0  0  0  0  0  0  0  0  0  0  0  0
  151.9014  139.7802  158.0544 C   0  0  0  0  0  0  0  0  0  0  0  0
  147.6158  141.9399  155.0596 H   0  0  0  0  0  0  0  0  0  0  0  0
  148.8830  141.0461  154.2384 H   0  0  0  0  0  0  0  0  0  0  0  0
  149.2980  142.2592  155.4484 H   0  0  0  0  0  0  0  0  0  0  0  0
  148.1007  140.8437  157.2008 H   0  0  0  0  0  0  0  0  0  0  0  0
  147.7616  139.6691  155.9882 H   0  0  0  0  0  0  0  0  0  0  0  0
  150.0511  139.3336  154.4488 H   0  0  0  0  0  0  0  0  0  0  0  0
  151.4936  138.9241  155.3418 H   0  0  0  0  0  0  0  0  0  0  0  0
  151.0880  140.6093  155.0588 H   0  0  0  0  0  0  0  0  0  0  0  0
  148.9593  137.6800  156.2697 H   0  0  0  0  0  0  0  0  0  0  0  0
  150.4449  137.6204  157.1636 H   0  0  0  0  0  0  0  0  0  0  0  0
  148.1928  138.8409  158.5546 H   0  0  0  0  0  0  0  0  0  0  0  0
  146.5582  133.7864  163.2252 H   0  0  0  0  0  0  0  0  0  0  0  0
  151.4762  141.9501  156.5405 H   0  0  0  0  0  0  0  0  0  0  0  0
  149.9037  142.3277  157.2093 H   0  0  0  0  0  0  0  0  0  0  0  0
  151.7061  143.5685  158.3713 H   0  0  0  0  0  0  0  0  0  0  0  0
  150.8423  142.5183  159.4795 H   0  0  0  0  0  0  0  0  0  0  0  0
  153.5238  140.0601  159.4715 H   0  0  0  0  0  0  0  0  0  0  0  0
  151.9384  140.3990  160.1421 H   0  0  0  0  0  0  0  0  0  0  0  0
  151.7717  138.7352  158.3289 H   0  0  0  0  0  0  0  0  0  0  0  0
  152.5941  139.8028  157.2132 H   0  0  0  0  0  0  0  0  0  0  0  0
  1  2  1  0  0  0  0
  1 21  1  0  0  0  0
  1 22  1  0  0  0  0
  1 23  1  0  0  0  0
  2  3  1  0  0  0  0
  2 24  1  0  0  0  0
  2 25  1  0  0  0  0
  3  4  1  0  0  0  0
  3  5  1  0  0  0  0
  3 15  1  0  0  0  0
  4 26  1  0  0  0  0
  4 27  1  0  0  0  0
  4 28  1  0  0  0  0
  5  6  1  0  0  0  0
  5 29  1  0  0  0  0
  5 30  1  0  0  0  0
  6  7  1  0  0  0  0
  6 31  1  0  0  0  0
  7  8  2  0  0  0  0
  7  9  1  0  0  0  0
  9 10  1  0  0  0  0
 10 14  1  0  0  0  0
 10 11  2  0  0  0  0
 11 12  1  0  0  0  0
 12 13  2  0  0  0  0
 13 14  1  0  0  0  0
 13 32  1  0  0  0  0
 15 20  1  0  0  0  0
 15 16  1  0  0  0  0
 16 17  1  0  0  0  0
 16 33  1  0  0  0  0
 16 34  1  0  0  0  0
 17 18  1  0  0  0  0
 17 35  1  0  0  0  0
 17 36  1  0  0  0  0
 18 19  1  0  0  0  0
 19 20  1  0  0  0  0
 19 37  1  0  0  0  0
 19 38  1  0  0  0  0
 20 39  1  0  0  0  0
 20 40  1  0  0  0  0
M  CHG  1   9  -1
M  END
> <s_m_source_file>
AV-unprocessed.smi

> <i_m_source_file_index>
1412

> <i_lp_mmshare_version>
43012

> <i_f3d_flags>
0

> <s_epik_input>
W0NIMl0xW0NIMl1PW0NIMl1bQ0gyXU4xW0NAQF0oW0NIM10pKFtDSDJdW0NIM10pW0NIMl1bTkhdQyg9TylbTkhdYzJubltjSF1zMg==

> <s_epik_cmdline>
J2VwaWtfcHl0aG9uJywgJy1waCcsICc3LjAnLCAnLXRuJywgJzgnLCAnLW1hJywgJzIwMCcsICctbWV0YWxfYmluZGluZycsICctaW1hZScsICc8aW5maWxlLm1hZT4nLCAnLW9tYWUnLCAnPG91dGZpbGUubWFlPic=

> <r_lp_tautomer_probability>
1

> <r_epik_Ionization_Penalty>
4.84662

> <r_epik_Ionization_Penalty_Charging>
4.3852

> <r_epik_Ionization_Penalty_Neutral>
0.461421

> <r_epik_State_Penalty>
4.67356

> <r_epik_Charging_Adjusted_Penalty>
9.05877

> <i_epik_Tot_Q>
-1

> <i_epik_Tot_abs_Q>
1

> <r_epik_Metal_State_Penalty>
1.08474

> <b_epik_Metal_Only>
1

> <s_lp_Force_Field>
OPLS_2005

> <r_lp_Energy>
39.9544

> <b_lp_Chiralities_Consistent>
1

> <s_lp_Variant>
AV-unprocessed.smi:1412-6

> <Gold.Version>
5.8.1

> <Gold.Id.Protein>
6NUR|6NUR_protein|mol2

> <Gold.PLP.Fitness>
40.7401

> <Gold.PLP.PLP>
-32.0413

> <Gold.PLP.part.hbond>
-3.0000

> <Gold.PLP.part.metal>
0.0000

> <Gold.PLP.part.buried>
-6.1030

> <Gold.PLP.part.nonpolar>
-24.2874

> <Gold.PLP.part.repulsive>
0.1614

> <Gold.PLP.ligand.clash>
0.0000

> <Gold.PLP.ligand.torsion>
1.2398

> <Gold.PLP.Chemscore.Hbond>
3.6544

> <Gold.PLP.Chemscore.CHOScore>
0.0000

> <Gold.PLP.Chemscore.Metal>
0.0000

> <Gold.Chemscore.Hbonds>
donor molecule, donor type, donor heavy atom, donor atom, acceptor molecule, acceptor atom, score
      P1  H  6896  6908       L1     8  1.00
      P1  H  6931  6943       L1     9  1.11
      P1  H  6934  6947       L1     9  1.12

> <Gold.PLP.Chemscore.Internal.Correction>
0.2152

> <Gold.Rescore>
     Score         DG    S(hbond)    S(metal)    S(lipo)     H(rot)  DE(clash)    DE(int)     intcor
     12.47     -14.87       1.99        0.00      63.43       1.82       0.00       2.40       ----

> <Gold.Chemscore.Fitness>
12.4677

> <Gold.Chemscore.DG>
-14.8701

> <Gold.Chemscore.ZeroCoef>
-5.4800

> <Gold.Chemscore.Hbond>
1.9879

> <Gold.Chemscore.Metal>
0.0000

> <Gold.Chemscore.Lipo>
63.4262

> <Gold.Chemscore.Internal_Hbond>
0.0000

> <Gold.Chemscore.DEClash>
0.0000

> <Gold.Chemscore.DEInternal>
2.4023

> <Gold.Chemscore.Rot>
1.8243

> <Gold.Chemscore.Internal.Correction>
   9.000000E+99

> <Gold.Chemscore.Hbonds>
donor molecule, donor type, donor heavy atom, donor atom, acceptor molecule, acceptor atom, score
      P1  H  6896  6908       L1     8  1.00
      P1  H  6931  6943       L1     9  0.12
      P1  H  6934  6947       L1     9  0.47

> <Gold.Chemscore.Hbond.Weighted>
-6.6394

> <Gold.Chemscore.Metal.Weighted>
-0.0000

> <Gold.Chemscore.Lipo.Weighted>
-7.4209

> <Gold.Chemscore.Internal_Hbond.Weighted>
0.0000

> <Gold.Chemscore.DEClash.Weighted>
0.0000

> <Gold.Chemscore.DEInternal.Weighted>
2.4023

> <Gold.Chemscore.Rot.Weighted>
4.6702

> <Gold.Chemscore.Internal.Correction.Weighted>
   9.000000E+99

> <Gold.Protein.RotatedTorsions>
[ 6907 6896 6895 6894 ] final  177.42 input  -60.11 | X-H torsion
[ 7974 7965 7964 7962 ] final   82.74 input  175.53 | X-H torsion
[ 8008 7997 7996 7995 ] final  -50.98 input   59.86 | X-H torsion
[ 10167 10162 10161 10158 ] final   94.19 input  -65.29 | X-H torsion
[ 10718 10713 10712 10709 ] final   98.91 input   66.30 | X-H torsion
[ 10763 10752 10751 10750 ] final   -5.61 input  -60.55 | X-H torsion
[ 11005 11000 10999 10996 ] final   35.53 input  -57.11 | X-H torsion

> <Gold.Protein.ActiveResidues>
 VAL166  LYS551  ARG553  GLY616  TRP617  ASP618  TYR619  PRO620  LYS621  CYS622 
 ASP623  PHE694  ASN695  SER759  ASP760  ASP761  ALA762  ILE779  LEU786  VAL792 
 PHE793  MET794  SER795  GLU796  ALA797  LYS798  CYS799  TRP800  GLU811  SER814 

> <Gold.Protein.RotatedAtoms>
  151.7043  133.3311  159.3274 H   0  0  0  0  0  0  0  0  0  0  0  0  # atno 6907 bound_to 6896
  150.7722  134.6588  159.6338 H   0  0  0  0  0  0  0  0  0  0  0  0  # atno 6908 bound_to 6896
  152.3750  134.6679  160.0215 H   0  0  0  0  0  0  0  0  0  0  0  0  # atno 6909 bound_to 6896
  145.6210  139.2386  143.2138 H   0  0  0  0  0  0  0  0  0  0  0  0  # atno 7974 bound_to 7965
  154.4073  140.1259  156.4754 H   0  0  0  0  0  0  0  0  0  0  0  0  # atno 8008 bound_to 7997
  155.7138  140.3493  155.4966 H   0  0  0  0  0  0  0  0  0  0  0  0  # atno 8009 bound_to 7997
  155.9277  140.1064  157.1147 H   0  0  0  0  0  0  0  0  0  0  0  0  # atno 8010 bound_to 7997
  139.8107  144.6774  150.9644 H   0  0  0  0  0  0  0  0  0  0  0  0  # atno 10167 bound_to 10162
  157.6886  131.0654  150.4868 H   0  0  0  0  0  0  0  0  0  0  0  0  # atno 10718 bound_to 10713
  153.4008  135.7005  153.6427 H   0  0  0  0  0  0  0  0  0  0  0  0  # atno 10763 bound_to 10752
  153.4961  135.3662  155.2517 H   0  0  0  0  0  0  0  0  0  0  0  0  # atno 10764 bound_to 10752
  154.8710  135.4100  154.3343 H   0  0  0  0  0  0  0  0  0  0  0  0  # atno 10765 bound_to 10752
  140.2417  134.3407  155.7923 H   0  0  0  0  0  0  0  0  0  0  0  0  # atno 11005 bound_to 11000
  146.1431  140.7030  142.9357 LP  0  0  0  0  0  0  0  0  0  0  0  0  # atno 17320 bound_to 7965
  144.7231  140.4438  143.6993 LP  0  0  0  0  0  0  0  0  0  0  0  0  # atno 17321 bound_to 7965
  140.7818  143.4188  151.0875 LP  0  0  0  0  0  0  0  0  0  0  0  0  # atno 17342 bound_to 10162
  139.7854  143.8294  152.3144 LP  0  0  0  0  0  0  0  0  0  0  0  0  # atno 17343 bound_to 10162
  156.5197  130.4159  149.6257 LP  0  0  0  0  0  0  0  0  0  0  0  0  # atno 17370 bound_to 10713
  156.3166  130.7257  151.2161 LP  0  0  0  0  0  0  0  0  0  0  0  0  # atno 17371 bound_to 10713
  141.2210  133.7303  156.8896 LP  0  0  0  0  0  0  0  0  0  0  0  0  # atno 17394 bound_to 11000
  140.1646  134.9142  157.2758 LP  0  0  0  0  0  0  0  0  0  0  0  0  # atno 17395 bound_to 11000

$$$$
