AV-unprocessed.smi:1586|AV-procd|sdf|6379|dock10
  -GOLD-   22720 7 13D 1   1.00000     0.00000
 Structure written by MMmdl.
 46 47  0  0  0  0  0  0  0  0  3 V2000
  146.7721  139.0649  151.8092 C   0  0  0  0  0  0  0  0  0  0  0  0
  147.0793  140.1484  152.8526 C   0  0  0  0  0  0  0  0  0  0  0  0
  148.4124  139.9755  153.4811 N   0  3  0  0  0  0  0  0  0  0  0  0
  148.5575  138.6513  154.1343 C   0  0  0  0  0  0  0  0  0  0  0  0
  149.9644  138.4999  154.7506 C   0  0  0  0  0  0  0  0  0  0  0  0
  150.2347  139.5389  155.7549 N   0  0  0  0  0  0  0  0  0  0  0  0
  149.4156  139.4671  156.9876 C   0  0  2  0  0  0  0  0  0  0  0  0
  149.6724  140.7047  157.8813 C   0  0  0  0  0  0  0  0  0  0  0  0
  149.6908  138.1552  157.7720 C   0  0  0  0  0  0  0  0  0  0  0  0
  148.8802  138.0493  158.9828 N   0  0  0  0  0  0  0  0  0  0  0  0
  148.5882  136.9267  159.6554 C   0  0  0  0  0  0  0  0  0  0  0  0
  149.0188  135.8404  159.2623 O   0  0  0  0  0  0  0  0  0  0  0  0
  147.8243  137.1387  160.7514 N   0  5  0  0  0  0  0  0  0  0  0  0
  147.3486  136.1000  161.4554 C   0  0  0  0  0  0  0  0  0  0  0  0
  146.6701  134.9710  160.9205 C   0  0  0  0  0  0  0  0  0  0  0  0
  146.4161  134.2074  162.0243 C   0  0  0  0  0  0  0  0  0  0  0  0
  145.7366  132.8938  162.2106 C   0  0  0  0  0  0  0  0  0  0  0  0
  146.9055  134.8127  163.1397 O   0  0  0  0  0  0  0  0  0  0  0  0
  147.5064  136.0209  162.7660 N   0  0  0  0  0  0  0  0  0  0  0  0
  150.1698  140.8179  155.0324 C   0  0  0  0  0  0  0  0  0  0  0  0
  148.7725  141.0653  154.4240 C   0  0  0  0  0  0  0  0  0  0  0  0
  145.7517  139.1686  151.4397 H   0  0  0  0  0  0  0  0  0  0  0  0
  146.8674  138.0667  152.2373 H   0  0  0  0  0  0  0  0  0  0  0  0
  147.4345  139.1281  150.9464 H   0  0  0  0  0  0  0  0  0  0  0  0
  147.0007  141.1423  152.4094 H   0  0  0  0  0  0  0  0  0  0  0  0
  146.3129  140.0937  153.6268 H   0  0  0  0  0  0  0  0  0  0  0  0
  147.7792  138.5108  154.8854 H   0  0  0  0  0  0  0  0  0  0  0  0
  148.4115  137.8689  153.3890 H   0  0  0  0  0  0  0  0  0  0  0  0
  150.1030  137.5010  155.1589 H   0  0  0  0  0  0  0  0  0  0  0  0
  150.7118  138.5783  153.9596 H   0  0  0  0  0  0  0  0  0  0  0  0
  148.3594  139.4707  156.7224 H   0  0  0  0  0  0  0  0  0  0  0  0
  149.1207  140.6492  158.8187 H   0  0  0  0  0  0  0  0  0  0  0  0
  149.3421  141.6322  157.4167 H   0  0  0  0  0  0  0  0  0  0  0  0
  150.7297  140.8030  158.1301 H   0  0  0  0  0  0  0  0  0  0  0  0
  149.4128  137.2800  157.1885 H   0  0  0  0  0  0  0  0  0  0  0  0
  150.7553  138.0545  157.9902 H   0  0  0  0  0  0  0  0  0  0  0  0
  148.5013  138.9101  159.3492 H   0  0  0  0  0  0  0  0  0  0  0  0
  146.4105  134.7591  159.8943 H   0  0  0  0  0  0  0  0  0  0  0  0
  146.3174  132.0923  161.7544 H   0  0  0  0  0  0  0  0  0  0  0  0
  144.7497  132.9019  161.7479 H   0  0  0  0  0  0  0  0  0  0  0  0
  145.6115  132.6612  163.2684 H   0  0  0  0  0  0  0  0  0  0  0  0
  150.4669  141.6506  155.6670 H   0  0  0  0  0  0  0  0  0  0  0  0
  150.9113  140.8038  154.2323 H   0  0  0  0  0  0  0  0  0  0  0  0
  148.7907  142.0175  153.8948 H   0  0  0  0  0  0  0  0  0  0  0  0
  148.0148  141.1606  155.2025 H   0  0  0  0  0  0  0  0  0  0  0  0
  149.0941  139.9960  152.7363 H   0  0  0  0  0  0  0  0  0  0  0  0
  1  2  1  0  0  0  0
  1 22  1  0  0  0  0
  1 23  1  0  0  0  0
  1 24  1  0  0  0  0
  2  3  1  0  0  0  0
  2 25  1  0  0  0  0
  2 26  1  0  0  0  0
  3 21  1  0  0  0  0
  3  4  1  0  0  0  0
  3 46  1  0  0  0  0
  4  5  1  0  0  0  0
  4 27  1  0  0  0  0
  4 28  1  0  0  0  0
  5  6  1  0  0  0  0
  5 29  1  0  0  0  0
  5 30  1  0  0  0  0
  6  7  1  0  0  0  0
  6 20  1  0  0  0  0
  7  8  1  0  0  0  0
  7  9  1  0  0  0  0
  7 31  1  0  0  0  0
  8 32  1  0  0  0  0
  8 33  1  0  0  0  0
  8 34  1  0  0  0  0
  9 10  1  0  0  0  0
  9 35  1  0  0  0  0
  9 36  1  0  0  0  0
 10 11  1  0  0  0  0
 10 37  1  0  0  0  0
 11 12  2  0  0  0  0
 11 13  1  0  0  0  0
 13 14  1  0  0  0  0
 14 19  2  0  0  0  0
 14 15  1  0  0  0  0
 15 16  2  0  0  0  0
 15 38  1  0  0  0  0
 16 17  1  0  0  0  0
 16 18  1  0  0  0  0
 17 39  1  0  0  0  0
 17 40  1  0  0  0  0
 17 41  1  0  0  0  0
 18 19  1  0  0  0  0
 20 21  1  0  0  0  0
 20 42  1  0  0  0  0
 20 43  1  0  0  0  0
 21 44  1  0  0  0  0
 21 45  1  0  0  0  0
M  CHG  1   3   1
M  CHG  1  13  -1
M  END
> <s_m_source_file>
AV-unprocessed.smi

> <i_m_source_file_index>
1586

> <i_lp_mmshare_version>
43012

> <i_f3d_flags>
0

> <s_epik_input>
W0NIM11bQ0gyXU4xW0NIMl1bQ0gyXU4oW0NIMl1bQ0gyXTEpW0NASF0oW0NIM10pW0NIMl1bTkhdQyg9TylbTkhdYzJbY0hdYyhbQ0gzXSlvbjI=

> <s_epik_cmdline>
J2VwaWtfcHl0aG9uJywgJy1waCcsICc3LjAnLCAnLXRuJywgJzgnLCAnLW1hJywgJzIwMCcsICctbWV0YWxfYmluZGluZycsICctaW1hZScsICc8aW5maWxlLm1hZT4nLCAnLW9tYWUnLCAnPG91dGZpbGUubWFlPic=

> <r_epik_Ionization_Penalty>
6.66134

> <r_epik_Ionization_Penalty_Charging>
6.66063

> <r_epik_Ionization_Penalty_Neutral>
0.000714131

> <r_epik_State_Penalty>
6.77843

> <r_epik_Charging_Adjusted_Penalty>
13.4391

> <i_epik_Tot_Q>
0

> <i_epik_Tot_abs_Q>
2

> <r_epik_Metal_State_Penalty>
2.70494

> <b_epik_Metal_Only>
1

> <s_lp_Force_Field>
OPLS_2005

> <r_lp_Energy>
11.4851

> <b_lp_Chiralities_Consistent>
1

> <s_lp_Variant>
AV-unprocessed.smi:1586-7

> <Gold.Version>
5.8.1

> <Gold.Id.Protein>
6NUR|6NUR_protein|mol2

> <Gold.PLP.Fitness>
49.8031

> <Gold.PLP.PLP>
-34.6593

> <Gold.PLP.part.hbond>
-4.5921

> <Gold.PLP.part.metal>
0.0000

> <Gold.PLP.part.buried>
-2.1124

> <Gold.PLP.part.nonpolar>
-28.5519

> <Gold.PLP.part.repulsive>
0.3543

> <Gold.PLP.ligand.clash>
0.0000

> <Gold.PLP.ligand.torsion>
0.6653

> <Gold.PLP.Chemscore.Hbond>
5.4412

> <Gold.PLP.Chemscore.CHOScore>
0.0000

> <Gold.PLP.Chemscore.Metal>
0.0000

> <Gold.Chemscore.Hbonds>
donor molecule, donor type, donor heavy atom, donor atom, acceptor molecule, acceptor atom, score
      L1  H     3    46       P1  7957  1.00
      P1  H  6896  6907       L1    12  0.88
      P1  H  6931  6943       L1    13  1.73
      P1  H  6934  6947       L1    13  1.73

> <Gold.PLP.Chemscore.Internal.Correction>
0.1509

> <Gold.Rescore>
     Score         DG    S(hbond)    S(metal)    S(lipo)     H(rot)  DE(clash)    DE(int)     intcor
     17.45     -19.26       3.00        0.00      69.94       1.73       0.19       1.62       ----

> <Gold.Chemscore.Fitness>
17.4502

> <Gold.Chemscore.DG>
-19.2605

> <Gold.Chemscore.ZeroCoef>
-5.4800

> <Gold.Chemscore.Hbond>
2.9982

> <Gold.Chemscore.Metal>
0.0000

> <Gold.Chemscore.Lipo>
69.9365

> <Gold.Chemscore.Internal_Hbond>
0.0000

> <Gold.Chemscore.DEClash>
0.1933

> <Gold.Chemscore.DEInternal>
1.6170

> <Gold.Chemscore.Rot>
1.7250

> <Gold.Chemscore.Internal.Correction>
   9.000000E+99

> <Gold.Chemscore.Hbonds>
donor molecule, donor type, donor heavy atom, donor atom, acceptor molecule, acceptor atom, score
      L1  H     3    46       P1  7957  0.98
      P1  H  6896  6907       L1    12  0.86
      P1  H  6931  6943       L1    13  0.21
      P1  H  6934  6947       L1    13  0.70

> <Gold.Chemscore.Hbond.Weighted>
-10.0141

> <Gold.Chemscore.Metal.Weighted>
-0.0000

> <Gold.Chemscore.Lipo.Weighted>
-8.1826

> <Gold.Chemscore.Internal_Hbond.Weighted>
0.0000

> <Gold.Chemscore.DEClash.Weighted>
0.1933

> <Gold.Chemscore.DEInternal.Weighted>
1.6170

> <Gold.Chemscore.Rot.Weighted>
4.4161

> <Gold.Chemscore.Internal.Correction.Weighted>
   9.000000E+99

> <Gold.Protein.RotatedTorsions>
[ 6907 6896 6895 6894 ] final  -62.78 input  -60.11 | X-H torsion
[ 7974 7965 7964 7962 ] final -176.50 input  175.53 | X-H torsion
[ 8008 7997 7996 7995 ] final    1.81 input   59.86 | X-H torsion
[ 10167 10162 10161 10158 ] final  124.73 input  -65.29 | X-H torsion
[ 10718 10713 10712 10709 ] final  120.16 input   66.30 | X-H torsion
[ 10763 10752 10751 10750 ] final -178.78 input  -60.55 | X-H torsion
[ 11005 11000 10999 10996 ] final -179.06 input  -57.11 | X-H torsion

> <Gold.Protein.ActiveResidues>
 VAL166  LYS551  ARG553  GLY616  TRP617  ASP618  TYR619  PRO620  LYS621  CYS622 
 ASP623  PHE694  ASN695  SER759  ASP760  ASP761  ALA762  ILE779  LEU786  VAL792 
 PHE793  MET794  SER795  GLU796  ALA797  LYS798  CYS799  TRP800  GLU811  SER814 

> <Gold.Protein.RotatedAtoms>
  150.7692  134.6523  159.6294 H   0  0  0  0  0  0  0  0  0  0  0  0  # atno 6907 bound_to 6896
  152.3737  134.6692  160.0176 H   0  0  0  0  0  0  0  0  0  0  0  0  # atno 6908 bound_to 6896
  151.7043  133.3275  159.3311 H   0  0  0  0  0  0  0  0  0  0  0  0  # atno 6909 bound_to 6896
  144.7127  140.1160  143.6408 H   0  0  0  0  0  0  0  0  0  0  0  0  # atno 7974 bound_to 7965
  154.6842  140.2639  155.6878 H   0  0  0  0  0  0  0  0  0  0  0  0  # atno 8008 bound_to 7997
  156.2708  140.2804  156.1320 H   0  0  0  0  0  0  0  0  0  0  0  0  # atno 8009 bound_to 7997
  155.0988  140.0374  157.2681 H   0  0  0  0  0  0  0  0  0  0  0  0  # atno 8010 bound_to 7997
  139.5725  144.6946  151.3741 H   0  0  0  0  0  0  0  0  0  0  0  0  # atno 10167 bound_to 10162
  157.5910  131.1064  150.7997 H   0  0  0  0  0  0  0  0  0  0  0  0  # atno 10718 bound_to 10713
  154.5434  135.2807  155.1075 H   0  0  0  0  0  0  0  0  0  0  0  0  # atno 10763 bound_to 10752
  154.2548  135.6332  153.5257 H   0  0  0  0  0  0  0  0  0  0  0  0  # atno 10764 bound_to 10752
  152.9984  135.5591  154.5980 H   0  0  0  0  0  0  0  0  0  0  0  0  # atno 10765 bound_to 10752
  140.4229  134.6589  157.4673 H   0  0  0  0  0  0  0  0  0  0  0  0  # atno 11005 bound_to 11000
  145.9413  139.2671  143.1267 LP  0  0  0  0  0  0  0  0  0  0  0  0  # atno 17320 bound_to 7965
  145.9421  140.8972  143.0302 LP  0  0  0  0  0  0  0  0  0  0  0  0  # atno 17321 bound_to 7965
  140.7009  143.7634  150.7401 LP  0  0  0  0  0  0  0  0  0  0  0  0  # atno 17342 bound_to 10162
  140.1145  143.4669  152.2350 LP  0  0  0  0  0  0  0  0  0  0  0  0  # atno 17343 bound_to 10162
  156.8419  130.5051  149.5320 LP  0  0  0  0  0  0  0  0  0  0  0  0  # atno 17370 bound_to 10713
  156.0965  130.5936  150.9822 LP  0  0  0  0  0  0  0  0  0  0  0  0  # atno 17371 bound_to 10713
  140.0188  134.6579  155.9270 LP  0  0  0  0  0  0  0  0  0  0  0  0  # atno 17394 bound_to 11000
  141.1777  133.6542  156.4893 LP  0  0  0  0  0  0  0  0  0  0  0  0  # atno 17395 bound_to 11000

$$$$
