AV-unprocessed.smi:2906|AV-procd|sdf|11163|dock2
  -GOLD-   2272016 53D 1   1.00000     0.00000
 Structure written by MMmdl.
 40 41  0  0  0  0  0  0  0  0  1 V2000
  150.7241  140.8588  157.7998 C   0  0  0  0  0  0  0  0  0  0  0  0
  150.2579  141.6896  156.5934 C   0  0  0  0  0  0  0  0  0  0  0  0
  150.1231  140.8754  155.2955 C   0  0  0  0  0  0  0  0  0  0  0  0
  151.0713  140.1983  154.8947 O   0  0  0  0  0  0  0  0  0  0  0  0
  148.9523  140.9312  154.6271 N   0  0  0  0  0  0  0  0  0  0  0  0
  147.8030  141.7115  155.0779 C   0  0  0  0  0  0  0  0  0  0  0  0
  146.6375  141.3030  154.1769 C   0  0  0  0  0  0  0  0  0  0  0  0
  147.2985  140.7880  152.9014 C   0  0  2  0  0  0  0  0  0  0  0  0
  146.4861  139.7676  152.2466 N   0  0  0  0  0  0  0  0  0  0  0  0
  146.3328  138.5122  152.6912 C   0  0  0  0  0  0  0  0  0  0  0  0
  146.8671  138.0868  153.7159 O   0  0  0  0  0  0  0  0  0  0  0  0
  145.5306  137.8018  151.8791 N   0  0  0  0  0  0  0  0  0  0  0  0
  145.1243  136.4483  152.0130 C   0  0  0  0  0  0  0  0  0  0  0  0
  145.2425  135.5273  151.0502 N   0  0  0  0  0  0  0  0  0  0  0  0
  144.7658  134.2760  151.4532 C   0  0  0  0  0  0  0  0  0  0  0  0
  144.8214  133.1160  150.5062 C   0  0  0  0  0  0  0  0  0  0  0  0
  146.2598  132.6989  150.1802 C   0  0  0  0  0  0  0  0  0  0  0  0
  144.2834  134.2680  152.7395 C   0  0  0  0  0  0  0  0  0  0  0  0
  144.4108  135.8335  153.4960 S   0  0  0  0  0  0  0  0  0  0  0  0
  148.6522  140.2401  153.3748 C   0  0  0  0  0  0  0  0  0  0  0  0
  150.8153  141.4865  158.6864 H   0  0  0  0  0  0  0  0  0  0  0  0
  151.6983  140.4036  157.6176 H   0  0  0  0  0  0  0  0  0  0  0  0
  150.0163  140.0625  158.0336 H   0  0  0  0  0  0  0  0  0  0  0  0
  149.2945  142.1457  156.8237 H   0  0  0  0  0  0  0  0  0  0  0  0
  150.9654  142.5034  156.4313 H   0  0  0  0  0  0  0  0  0  0  0  0
  147.5728  141.5336  156.1296 H   0  0  0  0  0  0  0  0  0  0  0  0
  148.0265  142.7723  154.9551 H   0  0  0  0  0  0  0  0  0  0  0  0
  146.0793  140.5009  154.6622 H   0  0  0  0  0  0  0  0  0  0  0  0
  145.9430  142.1226  153.9902 H   0  0  0  0  0  0  0  0  0  0  0  0
  147.4645  141.6314  152.2283 H   0  0  0  0  0  0  0  0  0  0  0  0
  146.0117  140.0367  151.3972 H   0  0  0  0  0  0  0  0  0  0  0  0
  145.1670  138.2852  151.0712 H   0  0  0  0  0  0  0  0  0  0  0  0
  144.2884  132.2633  150.9279 H   0  0  0  0  0  0  0  0  0  0  0  0
  144.3012  133.3653  149.5807 H   0  0  0  0  0  0  0  0  0  0  0  0
  146.2728  131.8524  149.4934 H   0  0  0  0  0  0  0  0  0  0  0  0
  146.7979  132.4052  151.0818 H   0  0  0  0  0  0  0  0  0  0  0  0
  146.8107  133.5152  149.7120 H   0  0  0  0  0  0  0  0  0  0  0  0
  143.8639  133.4371  153.2872 H   0  0  0  0  0  0  0  0  0  0  0  0
  149.4218  140.4036  152.6191 H   0  0  0  0  0  0  0  0  0  0  0  0
  148.5952  139.1683  153.5738 H   0  0  0  0  0  0  0  0  0  0  0  0
  1  2  1  0  0  0  0
  1 21  1  0  0  0  0
  1 22  1  0  0  0  0
  1 23  1  0  0  0  0
  2  3  1  0  0  0  0
  2 24  1  0  0  0  0
  2 25  1  0  0  0  0
  3  4  2  0  0  0  0
  3  5  1  0  0  0  0
  5 20  1  0  0  0  0
  5  6  1  0  0  0  0
  6  7  1  0  0  0  0
  6 26  1  0  0  0  0
  6 27  1  0  0  0  0
  7  8  1  0  0  0  0
  7 28  1  0  0  0  0
  7 29  1  0  0  0  0
  8  9  1  0  0  0  0
  8 20  1  0  0  0  0
  8 30  1  0  0  0  0
  9 10  1  0  0  0  0
  9 31  1  0  0  0  0
 10 11  2  0  0  0  0
 10 12  1  0  0  0  0
 12 13  1  0  0  0  0
 12 32  1  0  0  0  0
 13 19  1  0  0  0  0
 13 14  2  0  0  0  0
 14 15  1  0  0  0  0
 15 16  1  0  0  0  0
 15 18  2  0  0  0  0
 16 17  1  0  0  0  0
 16 33  1  0  0  0  0
 16 34  1  0  0  0  0
 17 35  1  0  0  0  0
 17 36  1  0  0  0  0
 17 37  1  0  0  0  0
 18 19  1  0  0  0  0
 18 38  1  0  0  0  0
 20 39  1  0  0  0  0
 20 40  1  0  0  0  0
M  END
> <s_m_source_file>
AV-unprocessed.smi

> <i_m_source_file_index>
2906

> <i_lp_mmshare_version>
43012

> <i_f3d_flags>
0

> <s_epik_input>
W0NIM11bQ0gyXUMoPU8pTjFbQ0gyXVtDSDJdW0NASF0oW0NIMl0xKVtOSF1DKD1PKVtOSF1jMm5jKFtjSF1zMilbQ0gyXVtDSDNd

> <s_epik_cmdline>
J2VwaWtfcHl0aG9uJywgJy1waCcsICc3LjAnLCAnLXRuJywgJzgnLCAnLW1hJywgJzIwMCcsICctbWV0YWxfYmluZGluZycsICctaW1hZScsICc8aW5maWxlLm1hZT4nLCAnLW9tYWUnLCAnPG91dGZpbGUubWFlPic=

> <r_lp_tautomer_probability>
1

> <r_epik_Ionization_Penalty>
0.000174744

> <r_epik_Ionization_Penalty_Charging>
0

> <r_epik_Ionization_Penalty_Neutral>
0.000174744

> <r_epik_State_Penalty>
-0

> <r_epik_Charging_Adjusted_Penalty>
0

> <i_epik_Tot_Q>
0

> <i_epik_Tot_abs_Q>
0

> <r_epik_Metal_State_Penalty>
0.0273865

> <b_epik_Metal_Only>
0

> <s_lp_Force_Field>
OPLS_2005

> <r_lp_Energy>
21.1229

> <b_lp_Chiralities_Consistent>
1

> <s_lp_Variant>
AV-unprocessed.smi:2906-2

> <Gold.Version>
5.8.1

> <Gold.Id.Protein>
6NUR|6NUR_protein|mol2

> <Gold.PLP.Fitness>
40.6295

> <Gold.PLP.PLP>
-33.0898

> <Gold.PLP.part.hbond>
-3.3689

> <Gold.PLP.part.metal>
0.0000

> <Gold.PLP.part.buried>
-0.1685

> <Gold.PLP.part.nonpolar>
-29.9786

> <Gold.PLP.part.repulsive>
0.5331

> <Gold.PLP.ligand.clash>
0.0000

> <Gold.PLP.ligand.torsion>
0.7359

> <Gold.PLP.Chemscore.Hbond>
2.0000

> <Gold.PLP.Chemscore.CHOScore>
1.0000

> <Gold.PLP.Chemscore.Metal>
0.0000

> <Gold.Chemscore.Hbonds>
donor molecule, donor type, donor heavy atom, donor atom, acceptor molecule, acceptor atom, score
      L1  H    12    32       P1 10171  1.00
      P1  H  7989  7998       L1     4  1.00
      L1  C    18    38       P1 10957  0.98

> <Gold.PLP.Chemscore.Internal.Correction>
0.0115

> <Gold.Rescore>
     Score         DG    S(hbond)    S(metal)    S(lipo)     H(rot)  DE(clash)    DE(int)     intcor
     12.71     -16.26       1.96        0.00      66.96       1.41       1.61       1.94       ----

> <Gold.Chemscore.Fitness>
12.7086

> <Gold.Chemscore.DG>
-16.2567

> <Gold.Chemscore.ZeroCoef>
-5.4800

> <Gold.Chemscore.Hbond>
1.9618

> <Gold.Chemscore.Metal>
0.0000

> <Gold.Chemscore.Lipo>
66.9599

> <Gold.Chemscore.Internal_Hbond>
0.0000

> <Gold.Chemscore.DEClash>
1.6092

> <Gold.Chemscore.DEInternal>
1.9389

> <Gold.Chemscore.Rot>
1.4102

> <Gold.Chemscore.Internal.Correction>
   9.000000E+99

> <Gold.Chemscore.Hbonds>
donor molecule, donor type, donor heavy atom, donor atom, acceptor molecule, acceptor atom, score
      L1  H    12    32       P1 10171  0.97
      P1  H  7989  7998       L1     4  0.65

> <Gold.Chemscore.Hbond.Weighted>
-6.5525

> <Gold.Chemscore.Metal.Weighted>
-0.0000

> <Gold.Chemscore.Lipo.Weighted>
-7.8343

> <Gold.Chemscore.Internal_Hbond.Weighted>
0.0000

> <Gold.Chemscore.DEClash.Weighted>
1.6092

> <Gold.Chemscore.DEInternal.Weighted>
1.9389

> <Gold.Chemscore.Rot.Weighted>
3.6101

> <Gold.Chemscore.Internal.Correction.Weighted>
   9.000000E+99

> <Gold.Protein.RotatedTorsions>
[ 6907 6896 6895 6894 ] final   86.30 input  -60.11 | X-H torsion
[ 7974 7965 7964 7962 ] final -136.00 input  175.53 | X-H torsion
[ 8008 7997 7996 7995 ] final  168.09 input   59.86 | X-H torsion
[ 10167 10162 10161 10158 ] final  167.75 input  -65.29 | X-H torsion
[ 10718 10713 10712 10709 ] final   22.36 input   66.30 | X-H torsion
[ 10763 10752 10751 10750 ] final -124.15 input  -60.55 | X-H torsion
[ 11005 11000 10999 10996 ] final   64.80 input  -57.11 | X-H torsion

> <Gold.Protein.ActiveResidues>
 VAL166  LYS551  ARG553  GLY616  TRP617  ASP618  TYR619  PRO620  LYS621  CYS622 
 ASP623  PHE694  ASN695  SER759  ASP760  ASP761  ALA762  ILE779  LEU786  VAL792 
 PHE793  MET794  SER795  GLU796  ALA797  LYS798  CYS799  TRP800  GLU811  SER814 

> <Gold.Protein.RotatedAtoms>
  152.5392  134.2453  159.8877 H   0  0  0  0  0  0  0  0  0  0  0  0  # atno 6907 bound_to 6896
  151.2418  133.4389  159.2615 H   0  0  0  0  0  0  0  0  0  0  0  0  # atno 6908 bound_to 6896
  151.0619  134.9756  159.8321 H   0  0  0  0  0  0  0  0  0  0  0  0  # atno 6909 bound_to 6896
  144.8965  140.6714  143.5112 H   0  0  0  0  0  0  0  0  0  0  0  0  # atno 7974 bound_to 7965
  156.1577  140.1600  156.8664 H   0  0  0  0  0  0  0  0  0  0  0  0  # atno 8008 bound_to 7997
  154.5131  140.0796  156.8064 H   0  0  0  0  0  0  0  0  0  0  0  0  # atno 8009 bound_to 7997
  155.3769  140.3403  155.4247 H   0  0  0  0  0  0  0  0  0  0  0  0  # atno 8010 bound_to 7997
  139.4952  144.3888  151.9540 H   0  0  0  0  0  0  0  0  0  0  0  0  # atno 10167 bound_to 10162
  157.1513  130.6675  149.6012 H   0  0  0  0  0  0  0  0  0  0  0  0  # atno 10718 bound_to 10713
  154.8719  135.4073  154.3059 H   0  0  0  0  0  0  0  0  0  0  0  0  # atno 10763 bound_to 10752
  153.3911  135.7015  153.6500 H   0  0  0  0  0  0  0  0  0  0  0  0  # atno 10764 bound_to 10752
  153.5282  135.3673  155.2635 H   0  0  0  0  0  0  0  0  0  0  0  0  # atno 10765 bound_to 10752
  139.9935  134.6553  156.0049 H   0  0  0  0  0  0  0  0  0  0  0  0  # atno 11005 bound_to 11000
  145.3691  139.1663  143.4342 LP  0  0  0  0  0  0  0  0  0  0  0  0  # atno 17320 bound_to 7965
  146.3084  140.3761  142.8679 LP  0  0  0  0  0  0  0  0  0  0  0  0  # atno 17321 bound_to 7965
  140.3325  144.3299  150.5984 LP  0  0  0  0  0  0  0  0  0  0  0  0  # atno 17342 bound_to 10162
  140.5633  143.2189  151.7727 LP  0  0  0  0  0  0  0  0  0  0  0  0  # atno 17343 bound_to 10162
  155.9770  130.4744  150.6565 LP  0  0  0  0  0  0  0  0  0  0  0  0  # atno 17370 bound_to 10713
  157.4218  131.0838  151.1123 LP  0  0  0  0  0  0  0  0  0  0  0  0  # atno 17371 bound_to 10713
  141.1586  133.6540  156.4242 LP  0  0  0  0  0  0  0  0  0  0  0  0  # atno 17394 bound_to 11000
  140.4862  134.6618  157.5192 LP  0  0  0  0  0  0  0  0  0  0  0  0  # atno 17395 bound_to 11000

$$$$
