AV-unprocessed.smi:1999|AV-procd|sdf|8099|dock3
  -GOLD-   2272010323D 1   1.00000     0.00000
 Structure written by MMmdl.
 38 39  0  0  0  0  0  0  0  0  3 V2000
  149.1220  141.0633  154.4463 C   0  0  0  0  0  0  0  0  0  0  0  0
  149.9049  139.8104  154.6432 C   0  0  0  0  0  0  0  0  0  0  0  0
  151.2187  139.8057  154.8829 N   0  0  0  0  0  0  0  0  0  0  0  0
  151.7179  138.5202  155.0315 N   0  0  0  0  0  0  0  0  0  0  0  0
  150.7754  137.5735  154.9144 C   0  0  0  0  0  0  0  0  0  0  0  0
  151.0520  136.2643  155.0310 N   0  5  0  0  0  0  0  0  0  0  0  0
  150.0504  135.3829  155.2415 C   0  0  0  0  0  0  0  0  0  0  0  0
  149.3123  135.3407  156.2281 O   0  0  0  0  0  0  0  0  0  0  0  0
  149.9201  134.4724  154.2645 N   0  0  0  0  0  0  0  0  0  0  0  0
  149.0132  133.3227  154.2557 C   0  0  1  0  0  0  0  0  0  0  0  0
  149.1881  132.5283  155.5570 C   0  0  0  0  0  0  0  0  0  0  0  0
  147.5505  133.7845  154.0653 C   0  0  0  0  0  0  0  0  0  0  0  0
  147.2162  134.0448  152.6426 N   0  3  0  0  0  0  0  0  0  0  0  0
  147.0281  132.8132  151.8403 C   0  0  0  0  0  0  0  0  0  0  0  0
  146.8070  133.1797  150.3639 C   0  0  0  0  0  0  0  0  0  0  0  0
  145.6813  134.0433  150.2532 O   0  0  0  0  0  0  0  0  0  0  0  0
  145.8712  135.2617  150.9636 C   0  0  0  0  0  0  0  0  0  0  0  0
  146.0703  134.9639  152.4596 C   0  0  0  0  0  0  0  0  0  0  0  0
  149.1680  138.2178  154.5850 S   0  0  0  0  0  0  0  0  0  0  0  0
  148.6017  141.3246  155.3678 H   0  0  0  0  0  0  0  0  0  0  0  0
  148.3857  140.9247  153.6545 H   0  0  0  0  0  0  0  0  0  0  0  0
  149.7805  141.8871  154.1689 H   0  0  0  0  0  0  0  0  0  0  0  0
  150.5406  134.5628  153.4729 H   0  0  0  0  0  0  0  0  0  0  0  0
  149.2831  132.6527  153.4383 H   0  0  0  0  0  0  0  0  0  0  0  0
  148.5432  131.6493  155.5691 H   0  0  0  0  0  0  0  0  0  0  0  0
  148.9416  133.1338  156.4301 H   0  0  0  0  0  0  0  0  0  0  0  0
  150.2164  132.1833  155.6708 H   0  0  0  0  0  0  0  0  0  0  0  0
  146.8527  133.0589  154.4861 H   0  0  0  0  0  0  0  0  0  0  0  0
  147.4117  134.7045  154.6353 H   0  0  0  0  0  0  0  0  0  0  0  0
  147.8998  132.1652  151.9297 H   0  0  0  0  0  0  0  0  0  0  0  0
  146.1727  132.2525  152.2199 H   0  0  0  0  0  0  0  0  0  0  0  0
  147.6937  133.6585  149.9447 H   0  0  0  0  0  0  0  0  0  0  0  0
  146.6223  132.2799  149.7769 H   0  0  0  0  0  0  0  0  0  0  0  0
  146.7280  135.8026  150.5580 H   0  0  0  0  0  0  0  0  0  0  0  0
  144.9966  135.8958  150.8191 H   0  0  0  0  0  0  0  0  0  0  0  0
  145.1684  134.5177  152.8815 H   0  0  0  0  0  0  0  0  0  0  0  0
  146.2523  135.8962  152.9955 H   0  0  0  0  0  0  0  0  0  0  0  0
  148.0190  134.5230  152.2564 H   0  0  0  0  0  0  0  0  0  0  0  0
  1  2  1  0  0  0  0
  1 20  1  0  0  0  0
  1 21  1  0  0  0  0
  1 22  1  0  0  0  0
  2 19  1  0  0  0  0
  2  3  2  0  0  0  0
  3  4  1  0  0  0  0
  4  5  2  0  0  0  0
  5  6  1  0  0  0  0
  5 19  1  0  0  0  0
  6  7  1  0  0  0  0
  7  8  2  0  0  0  0
  7  9  1  0  0  0  0
  9 10  1  0  0  0  0
  9 23  1  0  0  0  0
 10 11  1  0  0  0  0
 10 12  1  0  0  0  0
 10 24  1  0  0  0  0
 11 25  1  0  0  0  0
 11 26  1  0  0  0  0
 11 27  1  0  0  0  0
 12 13  1  0  0  0  0
 12 28  1  0  0  0  0
 12 29  1  0  0  0  0
 13 18  1  0  0  0  0
 13 14  1  0  0  0  0
 13 38  1  0  0  0  0
 14 15  1  0  0  0  0
 14 30  1  0  0  0  0
 14 31  1  0  0  0  0
 15 16  1  0  0  0  0
 15 32  1  0  0  0  0
 15 33  1  0  0  0  0
 16 17  1  0  0  0  0
 17 18  1  0  0  0  0
 17 34  1  0  0  0  0
 17 35  1  0  0  0  0
 18 36  1  0  0  0  0
 18 37  1  0  0  0  0
M  CHG  1   6  -1
M  CHG  1  13   1
M  END
> <s_m_source_file>
AV-unprocessed.smi

> <i_m_source_file_index>
1999

> <i_lp_mmshare_version>
43012

> <i_f3d_flags>
0

> <s_epik_input>
W0NIM11jMW5uYyhzMSlbTkhdQyg9TylbTkhdW0NASF0oW0NIM10pW0NIMl1OMltDSDJdW0NIMl1PW0NIMl1bQ0gyXTI=

> <s_epik_cmdline>
J2VwaWtfcHl0aG9uJywgJy1waCcsICc3LjAnLCAnLXRuJywgJzgnLCAnLW1hJywgJzIwMCcsICctbWV0YWxfYmluZGluZycsICctaW1hZScsICc8aW5maWxlLm1hZT4nLCAnLW9tYWUnLCAnPG91dGZpbGUubWFlPic=

> <r_lp_tautomer_probability>
1

> <r_epik_Ionization_Penalty>
3.39984

> <r_epik_Ionization_Penalty_Charging>
3.28696

> <r_epik_Ionization_Penalty_Neutral>
0.11288

> <r_epik_State_Penalty>
3.47917

> <r_epik_Charging_Adjusted_Penalty>
6.76613

> <i_epik_Tot_Q>
0

> <i_epik_Tot_abs_Q>
2

> <r_epik_Metal_State_Penalty>
1.13142

> <b_epik_Metal_Only>
1

> <s_lp_Force_Field>
OPLS_2005

> <r_lp_Energy>
12.2925

> <b_lp_Chiralities_Consistent>
1

> <s_lp_Variant>
AV-unprocessed.smi:1999-8

> <Gold.Version>
5.8.1

> <Gold.Id.Protein>
6NUR|6NUR_protein|mol2

> <Gold.PLP.Fitness>
43.8501

> <Gold.PLP.PLP>
-31.0231

> <Gold.PLP.part.hbond>
-4.6197

> <Gold.PLP.part.metal>
0.0000

> <Gold.PLP.part.buried>
-3.0055

> <Gold.PLP.part.nonpolar>
-24.4692

> <Gold.PLP.part.repulsive>
0.7968

> <Gold.PLP.ligand.clash>
0.0000

> <Gold.PLP.ligand.torsion>
1.1599

> <Gold.PLP.Chemscore.Hbond>
5.0000

> <Gold.PLP.Chemscore.CHOScore>
0.0000

> <Gold.PLP.Chemscore.Metal>
0.0000

> <Gold.Chemscore.Hbonds>
donor molecule, donor type, donor heavy atom, donor atom, acceptor molecule, acceptor atom, score
      L1  H    13    38       P1  7948  2.00
      P1  H  7989  7998       L1     3  0.75
      P1  H 10752 10764       L1     6  1.92

> <Gold.PLP.Chemscore.Internal.Correction>
0.1469

> <Gold.Rescore>
     Score         DG    S(hbond)    S(metal)    S(lipo)     H(rot)  DE(clash)    DE(int)     intcor
     14.07     -16.63       2.62        0.00      55.55       1.60       0.32       2.24       ----

> <Gold.Chemscore.Fitness>
14.0665

> <Gold.Chemscore.DG>
-16.6272

> <Gold.Chemscore.ZeroCoef>
-5.4800

> <Gold.Chemscore.Hbond>
2.6207

> <Gold.Chemscore.Metal>
0.0000

> <Gold.Chemscore.Lipo>
55.5498

> <Gold.Chemscore.Internal_Hbond>
0.0000

> <Gold.Chemscore.DEClash>
0.3211

> <Gold.Chemscore.DEInternal>
2.2395

> <Gold.Chemscore.Rot>
1.6036

> <Gold.Chemscore.Internal.Correction>
   9.000000E+99

> <Gold.Chemscore.Hbonds>
donor molecule, donor type, donor heavy atom, donor atom, acceptor molecule, acceptor atom, score
      L1  H    13    38       P1  7948  0.28
      P1  H  7989  7998       L1     3  0.09
      P1  H 10752 10764       L1     6  0.86

> <Gold.Chemscore.Hbond.Weighted>
-8.7531

> <Gold.Chemscore.Metal.Weighted>
-0.0000

> <Gold.Chemscore.Lipo.Weighted>
-6.4993

> <Gold.Chemscore.Internal_Hbond.Weighted>
0.0000

> <Gold.Chemscore.DEClash.Weighted>
0.3211

> <Gold.Chemscore.DEInternal.Weighted>
2.2395

> <Gold.Chemscore.Rot.Weighted>
4.1053

> <Gold.Chemscore.Internal.Correction.Weighted>
   9.000000E+99

> <Gold.Protein.RotatedTorsions>
[ 6907 6896 6895 6894 ] final   29.28 input  -60.11 | X-H torsion
[ 7974 7965 7964 7962 ] final  141.27 input  175.53 | X-H torsion
[ 8008 7997 7996 7995 ] final   84.76 input   59.86 | X-H torsion
[ 10167 10162 10161 10158 ] final   88.68 input  -65.29 | X-H torsion
[ 10718 10713 10712 10709 ] final  170.00 input   66.30 | X-H torsion
[ 10763 10752 10751 10750 ] final  -61.76 input  -60.55 | X-H torsion
[ 11005 11000 10999 10996 ] final -178.52 input  -57.11 | X-H torsion

> <Gold.Protein.ActiveResidues>
 VAL166  LYS551  ARG553  GLY616  TRP617  ASP618  TYR619  PRO620  LYS621  CYS622 
 ASP623  PHE694  ASN695  SER759  ASP760  ASP761  ALA762  ILE779  LEU786  VAL792 
 PHE793  MET794  SER795  GLU796  ALA797  LYS798  CYS799  TRP800  GLU811  SER814 

> <Gold.Protein.RotatedAtoms>
  152.0293  134.9777  160.0571 H   0  0  0  0  0  0  0  0  0  0  0  0  # atno 6907 bound_to 6896
  152.1260  133.4376  159.4706 H   0  0  0  0  0  0  0  0  0  0  0  0  # atno 6908 bound_to 6896
  150.6852  134.2396  159.4510 H   0  0  0  0  0  0  0  0  0  0  0  0  # atno 6909 bound_to 6896
  144.9111  139.5291  143.5708 H   0  0  0  0  0  0  0  0  0  0  0  0  # atno 7974 bound_to 7965
  155.9412  140.3408  155.6329 H   0  0  0  0  0  0  0  0  0  0  0  0  # atno 8008 bound_to 7997
  155.7037  140.0763  157.2418 H   0  0  0  0  0  0  0  0  0  0  0  0  # atno 8009 bound_to 7997
  154.4103  140.1635  156.2207 H   0  0  0  0  0  0  0  0  0  0  0  0  # atno 8010 bound_to 7997
  139.8648  144.6524  150.9016 H   0  0  0  0  0  0  0  0  0  0  0  0  # atno 10167 bound_to 10162
  157.0145  131.0214  151.2793 H   0  0  0  0  0  0  0  0  0  0  0  0  # atno 10718 bound_to 10713
  154.2896  135.6256  153.5380 H   0  0  0  0  0  0  0  0  0  0  0  0  # atno 10763 bound_to 10752
  152.9854  135.5652  154.5405 H   0  0  0  0  0  0  0  0  0  0  0  0  # atno 10764 bound_to 10752
  154.5013  135.2872  155.1394 H   0  0  0  0  0  0  0  0  0  0  0  0  # atno 10765 bound_to 10752
  140.4288  134.6538  157.4701 H   0  0  0  0  0  0  0  0  0  0  0  0  # atno 11005 bound_to 11000
  146.3159  139.7918  142.8984 LP  0  0  0  0  0  0  0  0  0  0  0  0  # atno 17320 bound_to 7965
  145.3452  141.0296  143.3370 LP  0  0  0  0  0  0  0  0  0  0  0  0  # atno 17321 bound_to 7965
  140.7769  143.3713  151.1644 LP  0  0  0  0  0  0  0  0  0  0  0  0  # atno 17342 bound_to 10162
  139.7339  143.9030  152.3028 LP  0  0  0  0  0  0  0  0  0  0  0  0  # atno 17343 bound_to 10162
  157.5295  130.8049  149.7901 LP  0  0  0  0  0  0  0  0  0  0  0  0  # atno 17370 bound_to 10713
  156.0124  130.3827  150.2221 LP  0  0  0  0  0  0  0  0  0  0  0  0  # atno 17371 bound_to 10713
  140.0148  134.6635  155.9325 LP  0  0  0  0  0  0  0  0  0  0  0  0  # atno 17394 bound_to 11000
  141.1754  133.6540  156.4809 LP  0  0  0  0  0  0  0  0  0  0  0  0  # atno 17395 bound_to 11000

$$$$
