AV-unprocessed.smi:2896|AV-procd|sdf|11136|dock5
  -GOLD-   2272016 13D 1   1.00000     0.00000
 Structure written by MMmdl.
 50 51  0  0  0  0  0  0  0  0  2 V2000
  149.3322  131.5811  153.9173 C   0  0  0  0  0  0  0  0  0  0  0  0
  149.1817  133.0251  153.4064 C   0  0  2  0  0  0  0  0  0  0  0  0
  149.8030  134.0035  154.4279 C   0  0  0  0  0  0  0  0  0  0  0  0
  149.1104  135.2886  154.4708 N   0  0  0  0  0  0  0  0  0  0  0  0
  148.9599  136.0658  155.5577 C   0  0  0  0  0  0  0  0  0  0  0  0
  149.4038  135.7415  156.6604 O   0  0  0  0  0  0  0  0  0  0  0  0
  148.2143  137.4149  155.3942 C   0  0  0  0  0  0  0  0  0  0  0  0
  147.5859  137.5723  153.9853 C   0  0  0  0  0  0  0  0  0  0  0  0
  147.0433  137.4422  156.4091 C   0  0  0  0  0  0  0  0  0  0  0  0
  149.2405  138.5396  155.6314 C   0  0  0  0  0  0  0  0  0  0  0  0
  149.8725  138.6793  156.8910 C   0  0  0  0  0  0  0  0  0  0  0  0
  150.8070  139.7121  157.0915 C   0  0  0  0  0  0  0  0  0  0  0  0
  151.0829  140.5806  156.0199 C   0  0  0  0  0  0  0  0  0  0  0  0
  150.4945  140.4699  154.8117 N   0  0  0  0  0  0  0  0  0  0  0  0
  149.5986  139.4761  154.6287 C   0  0  0  0  0  0  0  0  0  0  0  0
  147.7010  133.3597  153.0989 C   0  0  0  0  0  0  0  0  0  0  0  0
  147.1150  132.5196  152.0232 N   0  3  0  0  0  0  0  0  0  0  0  0
  146.1213  131.5513  152.5458 C   0  0  0  0  0  0  0  0  0  0  0  0
  145.5793  130.6670  151.4102 C   0  0  0  0  0  0  0  0  0  0  0  0
  145.0134  131.4879  150.3965 O   0  0  0  0  0  0  0  0  0  0  0  0
  145.9771  132.3610  149.8212 C   0  0  0  0  0  0  0  0  0  0  0  0
  146.5353  133.3019  150.9028 C   0  0  0  0  0  0  0  0  0  0  0  0
  148.7596  131.4228  154.8318 H   0  0  0  0  0  0  0  0  0  0  0  0
  150.3750  131.3486  154.1354 H   0  0  0  0  0  0  0  0  0  0  0  0
  148.9904  130.8549  153.1799 H   0  0  0  0  0  0  0  0  0  0  0  0
  149.7645  133.1133  152.4896 H   0  0  0  0  0  0  0  0  0  0  0  0
  149.8449  133.5462  155.4181 H   0  0  0  0  0  0  0  0  0  0  0  0
  150.8371  134.2120  154.1520 H   0  0  0  0  0  0  0  0  0  0  0  0
  148.7273  135.6256  153.5992 H   0  0  0  0  0  0  0  0  0  0  0  0
  148.3244  137.5453  153.1837 H   0  0  0  0  0  0  0  0  0  0  0  0
  147.0624  138.5252  153.8992 H   0  0  0  0  0  0  0  0  0  0  0  0
  146.8570  136.7862  153.7821 H   0  0  0  0  0  0  0  0  0  0  0  0
  147.3792  137.3316  157.4412 H   0  0  0  0  0  0  0  0  0  0  0  0
  146.3367  136.6332  156.2181 H   0  0  0  0  0  0  0  0  0  0  0  0
  146.4824  138.3753  156.3448 H   0  0  0  0  0  0  0  0  0  0  0  0
  149.6443  138.0059  157.7038 H   0  0  0  0  0  0  0  0  0  0  0  0
  151.2996  139.8356  158.0446 H   0  0  0  0  0  0  0  0  0  0  0  0
  151.7943  141.3847  156.1359 H   0  0  0  0  0  0  0  0  0  0  0  0
  149.1680  139.4473  153.6399 H   0  0  0  0  0  0  0  0  0  0  0  0
  147.1243  133.2264  154.0157 H   0  0  0  0  0  0  0  0  0  0  0  0
  147.5826  134.4056  152.8152 H   0  0  0  0  0  0  0  0  0  0  0  0
  146.5814  130.9234  153.3097 H   0  0  0  0  0  0  0  0  0  0  0  0
  145.3013  132.0901  153.0236 H   0  0  0  0  0  0  0  0  0  0  0  0
  146.3694  130.0415  150.9911 H   0  0  0  0  0  0  0  0  0  0  0  0
  144.8099  129.9954  151.7917 H   0  0  0  0  0  0  0  0  0  0  0  0
  146.7777  131.7838  149.3556 H   0  0  0  0  0  0  0  0  0  0  0  0
  145.5007  132.9398  149.0295 H   0  0  0  0  0  0  0  0  0  0  0  0
  145.7408  133.9484  151.2790 H   0  0  0  0  0  0  0  0  0  0  0  0
  147.2894  133.9488  150.4564 H   0  0  0  0  0  0  0  0  0  0  0  0
  147.8713  131.9694  151.6416 H   0  0  0  0  0  0  0  0  0  0  0  0
  1  2  1  0  0  0  0
  1 23  1  0  0  0  0
  1 24  1  0  0  0  0
  1 25  1  0  0  0  0
  2  3  1  0  0  0  0
  2 16  1  0  0  0  0
  2 26  1  0  0  0  0
  3  4  1  0  0  0  0
  3 27  1  0  0  0  0
  3 28  1  0  0  0  0
  4  5  1  0  0  0  0
  4 29  1  0  0  0  0
  5  6  2  0  0  0  0
  5  7  1  0  0  0  0
  7  8  1  0  0  0  0
  7  9  1  0  0  0  0
  7 10  1  0  0  0  0
  8 30  1  0  0  0  0
  8 31  1  0  0  0  0
  8 32  1  0  0  0  0
  9 33  1  0  0  0  0
  9 34  1  0  0  0  0
  9 35  1  0  0  0  0
 10 15  1  0  0  0  0
 10 11  2  0  0  0  0
 11 12  1  0  0  0  0
 11 36  1  0  0  0  0
 12 13  2  0  0  0  0
 12 37  1  0  0  0  0
 13 14  1  0  0  0  0
 13 38  1  0  0  0  0
 14 15  2  0  0  0  0
 15 39  1  0  0  0  0
 16 17  1  0  0  0  0
 16 40  1  0  0  0  0
 16 41  1  0  0  0  0
 17 22  1  0  0  0  0
 17 18  1  0  0  0  0
 17 50  1  0  0  0  0
 18 19  1  0  0  0  0
 18 42  1  0  0  0  0
 18 43  1  0  0  0  0
 19 20  1  0  0  0  0
 19 44  1  0  0  0  0
 19 45  1  0  0  0  0
 20 21  1  0  0  0  0
 21 22  1  0  0  0  0
 21 46  1  0  0  0  0
 21 47  1  0  0  0  0
 22 48  1  0  0  0  0
 22 49  1  0  0  0  0
M  CHG  1  17   1
M  END
> <s_m_source_file>
AV-unprocessed.smi

> <i_m_source_file_index>
2896

> <i_lp_mmshare_version>
43012

> <i_f3d_flags>
0

> <s_epik_input>
W0NIMl0xW0NIMl1PW0NIMl1bQ0gyXU4xW0NIMl1bQ0BIXShbQ0gzXSlbQ0gyXVtOSF1DKD1PKUMoW0NIM10pKFtDSDNdKWMyW2NIXVtjSF1bY0hdbltjSF0y

> <s_epik_cmdline>
J2VwaWtfcHl0aG9uJywgJy1waCcsICc3LjAnLCAnLXRuJywgJzgnLCAnLW1hJywgJzIwMCcsICctbWV0YWxfYmluZGluZycsICctaW1hZScsICc8aW5maWxlLm1hZT4nLCAnLW9tYWUnLCAnPG91dGZpbGUubWFlPic=

> <r_epik_Ionization_Penalty>
0.378644

> <r_epik_Ionization_Penalty_Charging>
0.372108

> <r_epik_Ionization_Penalty_Neutral>
0.0065361

> <r_epik_State_Penalty>
0.380038

> <r_epik_Charging_Adjusted_Penalty>
0.752147

> <i_epik_Tot_Q>
1

> <i_epik_Tot_abs_Q>
1

> <r_epik_Metal_State_Penalty>
0.375202

> <b_epik_Metal_Only>
0

> <s_lp_Force_Field>
OPLS_2005

> <r_lp_Energy>
28.248

> <b_lp_Chiralities_Consistent>
1

> <s_lp_Variant>
AV-unprocessed.smi:2896-1

> <Gold.Version>
5.8.1

> <Gold.Id.Protein>
6NUR|6NUR_protein|mol2

> <Gold.PLP.Fitness>
40.2034

> <Gold.PLP.PLP>
-31.3803

> <Gold.PLP.part.hbond>
-2.9742

> <Gold.PLP.part.metal>
0.0000

> <Gold.PLP.part.buried>
-1.9786

> <Gold.PLP.part.nonpolar>
-26.1741

> <Gold.PLP.part.repulsive>
0.2378

> <Gold.PLP.ligand.clash>
0.0000

> <Gold.PLP.ligand.torsion>
1.5331

> <Gold.PLP.Chemscore.Hbond>
2.9020

> <Gold.PLP.Chemscore.CHOScore>
1.0000

> <Gold.PLP.Chemscore.Metal>
0.0000

> <Gold.Chemscore.Hbonds>
donor molecule, donor type, donor heavy atom, donor atom, acceptor molecule, acceptor atom, score
      L1  H     4    29       P1  7948  0.99
      L1  H    17    50       P1 10747  0.88
      P1  H  7989  7998       L1    14  1.00
      L1  C    15    39       P1  7957  0.86

> <Gold.PLP.Chemscore.Internal.Correction>
0.1834

> <Gold.Rescore>
     Score         DG    S(hbond)    S(metal)    S(lipo)     H(rot)  DE(clash)    DE(int)     intcor
     17.25     -20.50       2.83        0.00      86.53       1.78       1.23       2.02       ----

> <Gold.Chemscore.Fitness>
17.2521

> <Gold.Chemscore.DG>
-20.5006

> <Gold.Chemscore.ZeroCoef>
-5.4800

> <Gold.Chemscore.Hbond>
2.8282

> <Gold.Chemscore.Metal>
0.0000

> <Gold.Chemscore.Lipo>
86.5290

> <Gold.Chemscore.Internal_Hbond>
0.0000

> <Gold.Chemscore.DEClash>
1.2289

> <Gold.Chemscore.DEInternal>
2.0196

> <Gold.Chemscore.Rot>
1.7771

> <Gold.Chemscore.Internal.Correction>
   9.000000E+99

> <Gold.Chemscore.Hbonds>
donor molecule, donor type, donor heavy atom, donor atom, acceptor molecule, acceptor atom, score
      L1  H     4    29       P1  7948  0.90
      L1  H    17    50       P1 10747  0.85
      P1  H  7989  7998       L1    14  0.73

> <Gold.Chemscore.Hbond.Weighted>
-9.4461

> <Gold.Chemscore.Metal.Weighted>
-0.0000

> <Gold.Chemscore.Lipo.Weighted>
-10.1239

> <Gold.Chemscore.Internal_Hbond.Weighted>
0.0000

> <Gold.Chemscore.DEClash.Weighted>
1.2289

> <Gold.Chemscore.DEInternal.Weighted>
2.0196

> <Gold.Chemscore.Rot.Weighted>
4.5494

> <Gold.Chemscore.Internal.Correction.Weighted>
   9.000000E+99

> <Gold.Protein.RotatedTorsions>
[ 6907 6896 6895 6894 ] final  -69.19 input  -60.11 | X-H torsion
[ 7974 7965 7964 7962 ] final  -89.52 input  175.53 | X-H torsion
[ 8008 7997 7996 7995 ] final  157.17 input   59.86 | X-H torsion
[ 10167 10162 10161 10158 ] final   43.38 input  -65.29 | X-H torsion
[ 10718 10713 10712 10709 ] final   95.01 input   66.30 | X-H torsion
[ 10763 10752 10751 10750 ] final  -99.95 input  -60.55 | X-H torsion
[ 11005 11000 10999 10996 ] final -167.35 input  -57.11 | X-H torsion

> <Gold.Protein.ActiveResidues>
 VAL166  LYS551  ARG553  GLY616  TRP617  ASP618  TYR619  PRO620  LYS621  CYS622 
 ASP623  PHE694  ASN695  SER759  ASP760  ASP761  ALA762  ILE779  LEU786  VAL792 
 PHE793  MET794  SER795  GLU796  ALA797  LYS798  CYS799  TRP800  GLU811  SER814 

> <Gold.Protein.RotatedAtoms>
  150.7318  134.5632  159.5852 H   0  0  0  0  0  0  0  0  0  0  0  0  # atno 6907 bound_to 6896
  152.3090  134.7517  160.0350 H   0  0  0  0  0  0  0  0  0  0  0  0  # atno 6908 bound_to 6896
  151.8071  133.3341  159.3581 H   0  0  0  0  0  0  0  0  0  0  0  0  # atno 6909 bound_to 6896
  145.4387  140.9558  143.2087 H   0  0  0  0  0  0  0  0  0  0  0  0  # atno 7974 bound_to 7965
  156.2380  140.1892  156.7067 H   0  0  0  0  0  0  0  0  0  0  0  0  # atno 8008 bound_to 7997
  154.6142  140.0617  156.9560 H   0  0  0  0  0  0  0  0  0  0  0  0  # atno 8009 bound_to 7997
  155.1966  140.3289  155.4352 H   0  0  0  0  0  0  0  0  0  0  0  0  # atno 8010 bound_to 7997
  140.3449  144.2423  150.6151 H   0  0  0  0  0  0  0  0  0  0  0  0  # atno 10167 bound_to 10162
  157.6943  131.0531  150.4274 H   0  0  0  0  0  0  0  0  0  0  0  0  # atno 10718 bound_to 10713
  154.7540  135.4953  153.9340 H   0  0  0  0  0  0  0  0  0  0  0  0  # atno 10763 bound_to 10752
  153.1175  135.6724  153.9401 H   0  0  0  0  0  0  0  0  0  0  0  0  # atno 10764 bound_to 10752
  153.9143  135.3095  155.3427 H   0  0  0  0  0  0  0  0  0  0  0  0  # atno 10765 bound_to 10752
  140.5542  134.5397  157.5129 H   0  0  0  0  0  0  0  0  0  0  0  0  # atno 11005 bound_to 11000
  144.8135  139.5918  143.7018 LP  0  0  0  0  0  0  0  0  0  0  0  0  # atno 17320 bound_to 7965
  146.2568  139.6320  142.9389 LP  0  0  0  0  0  0  0  0  0  0  0  0  # atno 17321 bound_to 7965
  140.5274  143.2251  151.8293 LP  0  0  0  0  0  0  0  0  0  0  0  0  # atno 17342 bound_to 10162
  139.4835  144.4763  151.9363 LP  0  0  0  0  0  0  0  0  0  0  0  0  # atno 17343 bound_to 10162
  156.4644  130.4039  149.6556 LP  0  0  0  0  0  0  0  0  0  0  0  0  # atno 17370 bound_to 10713
  156.3660  130.7506  151.2483 LP  0  0  0  0  0  0  0  0  0  0  0  0  # atno 17371 bound_to 10713
  139.9440  134.7736  156.0608 LP  0  0  0  0  0  0  0  0  0  0  0  0  # atno 17394 bound_to 11000
  141.1153  133.6630  156.3079 LP  0  0  0  0  0  0  0  0  0  0  0  0  # atno 17395 bound_to 11000

$$$$
