AV-unprocessed.smi:34|AV-procd|sdf|228|dock5
  -GOLD-   2262015553D 1   1.00000     0.00000
 Structure written by MMmdl.
 55 59  0  0  0  0  0  0  0  0  1 V2000
  147.3543  133.6375  154.4863 O   0  0  0  0  0  0  0  0  0  0  0  0
  147.7894  132.6187  153.9488 C   0  0  0  0  0  0  0  0  0  0  0  0
  149.1491  132.1548  154.1589 N   0  0  0  0  0  0  0  0  0  0  0  0
  150.0820  132.6525  155.0038 C   0  0  0  0  0  0  0  0  0  0  0  0
  151.0210  131.8706  155.5984 N   0  0  0  0  0  0  0  0  0  0  0  0
  151.9251  132.4132  156.4187 C   0  0  0  0  0  0  0  0  0  0  0  0
  152.0671  133.6920  156.7713 N   0  0  0  0  0  0  0  0  0  0  0  0
  151.1269  134.4848  156.1830 C   0  0  0  0  0  0  0  0  0  0  0  0
  150.1067  134.0411  155.2958 C   0  0  0  0  0  0  0  0  0  0  0  0
  149.3312  135.1200  154.8925 N   0  0  0  0  0  0  0  0  0  0  0  0
  149.8677  136.1398  155.5067 C   0  0  0  0  0  0  0  0  0  0  0  0
  150.9555  135.8499  156.3001 N   0  0  0  0  0  0  0  0  0  0  0  0
  151.7672  136.8165  157.1007 C   0  0  1  0  0  0  0  0  0  0  0  0
  152.3123  137.7696  156.2380 O   0  0  0  0  0  0  0  0  0  0  0  0
  152.2353  139.0781  156.8153 C   0  0  1  0  0  0  0  0  0  0  0  0
  151.2905  139.9560  155.9834 C   0  0  0  0  0  0  0  0  0  0  0  0
  151.3579  141.2921  156.4549 O   0  0  0  0  0  0  0  0  0  0  0  0
  150.4133  141.7653  157.2915 C   0  0  0  0  0  0  0  0  0  0  0  0
  149.3186  141.2248  157.4629 O   0  0  0  0  0  0  0  0  0  0  0  0
  150.8294  143.0170  157.9867 C   0  0  0  0  0  0  0  0  0  0  0  0
  149.9441  143.6249  158.9072 C   0  0  0  0  0  0  0  0  0  0  0  0
  150.3085  144.8082  159.5783 C   0  0  0  0  0  0  0  0  0  0  0  0
  151.5631  145.3979  159.3379 C   0  0  0  0  0  0  0  0  0  0  0  0
  152.4530  144.8030  158.4245 C   0  0  0  0  0  0  0  0  0  0  0  0
  152.0900  143.6199  157.7518 C   0  0  0  0  0  0  0  0  0  0  0  0
  151.7127  138.8548  158.2373 C   0  0  2  0  0  0  0  0  0  0  0  0
  152.7678  138.6576  159.0333 F   0  0  0  0  0  0  0  0  0  0  0  0
  150.8991  137.5790  158.0973 C   0  0  2  0  0  0  0  0  0  0  0  0
  150.7660  136.9369  159.3495 O   0  0  0  0  0  0  0  0  0  0  0  0
  146.9673  131.8283  152.9720 C   0  0  0  0  0  0  0  0  0  0  0  0
  147.2062  130.4460  152.8016 C   0  0  0  0  0  0  0  0  0  0  0  0
  146.4545  129.7018  151.8714 C   0  0  0  0  0  0  0  0  0  0  0  0
  145.4620  130.3343  151.0992 C   0  0  0  0  0  0  0  0  0  0  0  0
  145.2242  131.7128  151.2550 C   0  0  0  0  0  0  0  0  0  0  0  0
  145.9758  132.4584  152.1840 C   0  0  0  0  0  0  0  0  0  0  0  0
  149.4204  131.3344  153.6371 H   0  0  0  0  0  0  0  0  0  0  0  0
  152.6355  131.7259  156.8543 H   0  0  0  0  0  0  0  0  0  0  0  0
  149.4852  137.1434  155.3908 H   0  0  0  0  0  0  0  0  0  0  0  0
  152.5627  136.2302  157.5638 H   0  0  0  0  0  0  0  0  0  0  0  0
  153.2262  139.5339  156.8358 H   0  0  0  0  0  0  0  0  0  0  0  0
  151.5446  139.8905  154.9260 H   0  0  0  0  0  0  0  0  0  0  0  0
  150.2640  139.6029  156.0855 H   0  0  0  0  0  0  0  0  0  0  0  0
  148.9751  143.1910  159.1079 H   0  0  0  0  0  0  0  0  0  0  0  0
  149.6237  145.2640  160.2779 H   0  0  0  0  0  0  0  0  0  0  0  0
  151.8421  146.3053  159.8526 H   0  0  0  0  0  0  0  0  0  0  0  0
  153.4161  145.2550  158.2389 H   0  0  0  0  0  0  0  0  0  0  0  0
  152.7966  143.1894  157.0575 H   0  0  0  0  0  0  0  0  0  0  0  0
  151.1468  139.6952  158.6404 H   0  0  0  0  0  0  0  0  0  0  0  0
  149.9225  137.7903  157.6594 H   0  0  0  0  0  0  0  0  0  0  0  0
  149.8476  136.7814  159.5095 H   0  0  0  0  0  0  0  0  0  0  0  0
  147.9658  129.9455  153.3848 H   0  0  0  0  0  0  0  0  0  0  0  0
  146.6407  128.6449  151.7488 H   0  0  0  0  0  0  0  0  0  0  0  0
  144.8866  129.7637  150.3852 H   0  0  0  0  0  0  0  0  0  0  0  0
  144.4672  132.2005  150.6587 H   0  0  0  0  0  0  0  0  0  0  0  0
  145.7834  133.5173  152.2786 H   0  0  0  0  0  0  0  0  0  0  0  0
  1  2  2  0  0  0  0
  2  3  1  0  0  0  0
  2 30  1  0  0  0  0
  3  4  1  0  0  0  0
  3 36  1  0  0  0  0
  4  9  1  0  0  0  0
  4  5  2  0  0  0  0
  5  6  1  0  0  0  0
  6  7  2  0  0  0  0
  6 37  1  0  0  0  0
  7  8  1  0  0  0  0
  8 12  1  0  0  0  0
  8  9  2  0  0  0  0
  9 10  1  0  0  0  0
 10 11  2  0  0  0  0
 11 12  1  0  0  0  0
 11 38  1  0  0  0  0
 12 13  1  0  0  0  0
 13 28  1  0  0  0  0
 13 14  1  0  0  0  0
 13 39  1  0  0  0  0
 14 15  1  0  0  0  0
 15 16  1  0  0  0  0
 15 26  1  0  0  0  0
 15 40  1  0  0  0  0
 16 17  1  0  0  0  0
 16 41  1  0  0  0  0
 16 42  1  0  0  0  0
 17 18  1  0  0  0  0
 18 19  2  0  0  0  0
 18 20  1  0  0  0  0
 20 25  1  0  0  0  0
 20 21  2  0  0  0  0
 21 22  1  0  0  0  0
 21 43  1  0  0  0  0
 22 23  2  0  0  0  0
 22 44  1  0  0  0  0
 23 24  1  0  0  0  0
 23 45  1  0  0  0  0
 24 25  2  0  0  0  0
 24 46  1  0  0  0  0
 25 47  1  0  0  0  0
 26 27  1  0  0  0  0
 26 28  1  0  0  0  0
 26 48  1  0  0  0  0
 28 29  1  0  0  0  0
 28 49  1  0  0  0  0
 29 50  1  0  0  0  0
 30 35  1  0  0  0  0
 30 31  2  0  0  0  0
 31 32  1  0  0  0  0
 31 51  1  0  0  0  0
 32 33  2  0  0  0  0
 32 52  1  0  0  0  0
 33 34  1  0  0  0  0
 33 53  1  0  0  0  0
 34 35  2  0  0  0  0
 34 54  1  0  0  0  0
 35 55  1  0  0  0  0
M  END
> <s_m_source_file>
AV-unprocessed.smi

> <i_m_source_file_index>
34

> <i_lp_mmshare_version>
43012

> <i_f3d_flags>
0

> <s_epik_input>
W2NIXTFbY0hdW2NIXVtjSF1bY0hdYzFDKD1PKVtOSF1jKG5bY0hdbjIpYyhjMjMpbltjSF1uM1tDQEBIXTRPW0NASF0oW0NAQEhdKEYpW0NASF00W09IXSlbQ0gyXU9DKD1PKWM1W2NIXVtjSF1bY0hdW2NIXVtjSF01

> <s_epik_cmdline>
J2VwaWtfcHl0aG9uJywgJy1waCcsICc3LjAnLCAnLXRuJywgJzgnLCAnLW1hJywgJzIwMCcsICctbWV0YWxfYmluZGluZycsICctaW1hZScsICc8aW5maWxlLm1hZT4nLCAnLW9tYWUnLCAnPG91dGZpbGUubWFlPic=

> <r_lp_tautomer_probability>
1

> <r_epik_Ionization_Penalty>
0.00257489

> <r_epik_Ionization_Penalty_Charging>
0

> <r_epik_Ionization_Penalty_Neutral>
0.00257489

> <r_epik_State_Penalty>
0.00519398

> <r_epik_Charging_Adjusted_Penalty>
0.00519398

> <i_epik_Tot_Q>
0

> <i_epik_Tot_abs_Q>
0

> <r_epik_Metal_State_Penalty>
0.335891

> <b_epik_Metal_Only>
0

> <s_epik_Chemistry_Notes>
This compound has an ester and may undergo hydrolysis at high or low pH. This compound contains an acetal/aminal-like group ( X-CH(R)-Y where X, Y are N, S, or O) that may be acid/base labile, releasing an aldehyde.

> <s_lp_Force_Field>
OPLS_2005

> <r_lp_Energy>
45.4832

> <b_lp_Chiralities_Consistent>
1

> <s_lp_Variant>
AV-unprocessed.smi:34-14

> <Gold.Version>
5.8.1

> <Gold.Id.Protein>
6NUR|6NUR_protein|mol2

> <Gold.PLP.Fitness>
56.8783

> <Gold.PLP.PLP>
-54.6549

> <Gold.PLP.part.hbond>
-2.0000

> <Gold.PLP.part.metal>
0.0000

> <Gold.PLP.part.buried>
-10.2111

> <Gold.PLP.part.nonpolar>
-43.6375

> <Gold.PLP.part.repulsive>
0.2631

> <Gold.PLP.ligand.clash>
0.0000

> <Gold.PLP.ligand.torsion>
1.1190

> <Gold.PLP.Chemscore.Hbond>
1.3752

> <Gold.PLP.Chemscore.CHOScore>
0.0000

> <Gold.PLP.Chemscore.Metal>
0.0000

> <Gold.Chemscore.Hbonds>
donor molecule, donor type, donor heavy atom, donor atom, acceptor molecule, acceptor atom, score
      P1  H  6896  6908       L1    29  0.30

> <Gold.PLP.Chemscore.Internal.Correction>
0.3358

> <Gold.Rescore>
     Score         DG    S(hbond)    S(metal)    S(lipo)     H(rot)  DE(clash)    DE(int)     intcor
     14.07     -18.31       1.26        0.00     133.13       2.72       0.48       3.76       ----

> <Gold.Chemscore.Fitness>
14.0706

> <Gold.Chemscore.DG>
-18.3100

> <Gold.Chemscore.ZeroCoef>
-5.4800

> <Gold.Chemscore.Hbond>
1.2638

> <Gold.Chemscore.Metal>
0.0000

> <Gold.Chemscore.Lipo>
133.1269

> <Gold.Chemscore.Internal_Hbond>
0.0000

> <Gold.Chemscore.DEClash>
0.4804

> <Gold.Chemscore.DEInternal>
3.7590

> <Gold.Chemscore.Rot>
2.7215

> <Gold.Chemscore.Internal.Correction>
   9.000000E+99

> <Gold.Chemscore.Hbond.Weighted>
-4.2212

> <Gold.Chemscore.Metal.Weighted>
-0.0000

> <Gold.Chemscore.Lipo.Weighted>
-15.5759

> <Gold.Chemscore.Internal_Hbond.Weighted>
0.0000

> <Gold.Chemscore.DEClash.Weighted>
0.4804

> <Gold.Chemscore.DEInternal.Weighted>
3.7590

> <Gold.Chemscore.Rot.Weighted>
6.9670

> <Gold.Chemscore.Internal.Correction.Weighted>
   9.000000E+99

> <Gold.Protein.RotatedTorsions>
[ 6907 6896 6895 6894 ] final -155.29 input  -60.11 | X-H torsion
[ 7974 7965 7964 7962 ] final  148.12 input  175.53 | X-H torsion
[ 8008 7997 7996 7995 ] final -163.38 input   59.86 | X-H torsion
[ 10167 10162 10161 10158 ] final  -98.88 input  -65.29 | X-H torsion
[ 10718 10713 10712 10709 ] final -126.09 input   66.30 | X-H torsion
[ 10763 10752 10751 10750 ] final -148.11 input  -60.55 | X-H torsion
[ 11005 11000 10999 10996 ] final -125.09 input  -57.11 | X-H torsion

> <Gold.Protein.ActiveResidues>
 VAL166  LYS551  ARG553  GLY616  TRP617  ASP618  TYR619  PRO620  LYS621  CYS622 
 ASP623  PHE694  ASN695  SER759  ASP760  ASP761  ALA762  ILE779  LEU786  VAL792 
 PHE793  MET794  SER795  GLU796  ALA797  LYS798  CYS799  TRP800  GLU811  SER814 

> <Gold.Protein.RotatedAtoms>
  151.2703  133.4258  159.2620 H   0  0  0  0  0  0  0  0  0  0  0  0  # atno 6907 bound_to 6896
  151.0451  134.9634  159.8192 H   0  0  0  0  0  0  0  0  0  0  0  0  # atno 6908 bound_to 6896
  152.5372  134.2660  159.9006 H   0  0  0  0  0  0  0  0  0  0  0  0  # atno 6909 bound_to 6896
  144.8538  139.6114  143.5961 H   0  0  0  0  0  0  0  0  0  0  0  0  # atno 7974 bound_to 7965
  155.8204  140.0919  157.1852 H   0  0  0  0  0  0  0  0  0  0  0  0  # atno 8008 bound_to 7997
  154.3979  140.1438  156.3553 H   0  0  0  0  0  0  0  0  0  0  0  0  # atno 8009 bound_to 7997
  155.8272  140.3444  155.5552 H   0  0  0  0  0  0  0  0  0  0  0  0  # atno 8010 bound_to 7997
  140.2683  143.3361  152.0559 H   0  0  0  0  0  0  0  0  0  0  0  0  # atno 10167 bound_to 10162
  156.1734  130.6683  151.0210 H   0  0  0  0  0  0  0  0  0  0  0  0  # atno 10718 bound_to 10713
  154.8250  135.3343  154.6923 H   0  0  0  0  0  0  0  0  0  0  0  0  # atno 10763 bound_to 10752
  153.7551  135.6936  153.4942 H   0  0  0  0  0  0  0  0  0  0  0  0  # atno 10764 bound_to 10752
  153.2149  135.4469  155.0373 H   0  0  0  0  0  0  0  0  0  0  0  0  # atno 10765 bound_to 10752
  140.9789  134.0701  157.3787 H   0  0  0  0  0  0  0  0  0  0  0  0  # atno 11005 bound_to 11000
  146.2807  139.6869  142.9231 LP  0  0  0  0  0  0  0  0  0  0  0  0  # atno 17320 bound_to 7965
  145.4446  141.0424  143.2838 LP  0  0  0  0  0  0  0  0  0  0  0  0  # atno 17321 bound_to 7965
  139.4996  144.6673  151.6325 LP  0  0  0  0  0  0  0  0  0  0  0  0  # atno 17342 bound_to 10162
  140.5910  143.9779  150.6325 LP  0  0  0  0  0  0  0  0  0  0  0  0  # atno 17343 bound_to 10162
  157.6819  131.0836  150.7347 LP  0  0  0  0  0  0  0  0  0  0  0  0  # atno 17370 bound_to 10713
  156.7406  130.4738  149.5478 LP  0  0  0  0  0  0  0  0  0  0  0  0  # atno 17371 bound_to 10713
  139.8942  135.0134  156.6938 LP  0  0  0  0  0  0  0  0  0  0  0  0  # atno 17394 bound_to 11000
  140.7216  133.9135  155.8151 LP  0  0  0  0  0  0  0  0  0  0  0  0  # atno 17395 bound_to 11000

$$$$
