AV-unprocessed.smi:2695|AV-procd|sdf|10408|dock1
  -GOLD-   2272014443D 1   1.00000     0.00000
 Structure written by MMmdl.
 41 42  0  0  0  0  0  0  0  0  2 V2000
  148.6675  141.2682  154.6440 C   0  0  0  0  0  0  0  0  0  0  0  0
  149.7077  140.2136  155.0023 C   0  0  0  0  0  0  0  0  0  0  0  0
  150.8209  140.5555  155.6877 C   0  0  0  0  0  0  0  0  0  0  0  0
  151.7731  139.6129  156.0529 C   0  0  0  0  0  0  0  0  0  0  0  0
  152.8070  139.9248  156.6840 O   0  5  0  0  0  0  0  0  0  0  0  0
  151.5044  138.3030  155.6788 C   0  0  0  0  0  0  0  0  0  0  0  0
  150.3199  137.8720  154.9465 C   0  0  0  0  0  0  0  0  0  0  0  0
  150.1264  136.6912  154.6508 O   0  0  0  0  0  0  0  0  0  0  0  0
  149.4554  138.8712  154.6121 N   0  0  0  0  0  0  0  0  0  0  0  0
  148.2539  138.5266  153.8182 C   0  0  0  0  0  0  0  0  0  0  0  0
  147.4263  137.3886  154.4333 C   0  0  0  0  0  0  0  0  0  0  0  0
  146.8772  137.5266  155.5270 O   0  0  0  0  0  0  0  0  0  0  0  0
  147.3325  136.2705  153.6981 N   0  0  0  0  0  0  0  0  0  0  0  0
  146.5885  135.0637  154.0612 C   0  0  1  0  0  0  0  0  0  0  0  0
  145.4815  134.8251  153.0026 C   0  0  0  0  0  0  0  0  0  0  0  0
  145.9485  135.0276  151.5544 C   0  0  0  0  0  0  0  0  0  0  0  0
  144.6675  135.2116  150.7358 C   0  0  0  0  0  0  0  0  0  0  0  0
  143.5963  135.6978  151.7215 C   0  0  0  0  0  0  0  0  0  0  0  0
  144.2720  135.7633  153.0957 C   0  0  0  0  0  0  0  0  0  0  0  0
  147.5700  133.8770  154.2208 C   0  0  0  0  0  0  0  0  0  0  0  0
  146.9260  132.7973  154.6650 F   0  0  0  0  0  0  0  0  0  0  0  0
  148.1245  133.5587  153.0519 F   0  0  0  0  0  0  0  0  0  0  0  0
  148.5366  134.1829  155.0870 F   0  0  0  0  0  0  0  0  0  0  0  0
  148.8501  142.1923  155.1932 H   0  0  0  0  0  0  0  0  0  0  0  0
  147.6576  140.9469  154.8982 H   0  0  0  0  0  0  0  0  0  0  0  0
  148.7112  141.5043  153.5806 H   0  0  0  0  0  0  0  0  0  0  0  0
  150.9711  141.5903  155.9614 H   0  0  0  0  0  0  0  0  0  0  0  0
  152.2182  137.5363  155.9449 H   0  0  0  0  0  0  0  0  0  0  0  0
  147.6021  139.3826  153.6535 H   0  0  0  0  0  0  0  0  0  0  0  0
  148.5480  138.2411  152.8061 H   0  0  0  0  0  0  0  0  0  0  0  0
  147.8215  136.2487  152.8151 H   0  0  0  0  0  0  0  0  0  0  0  0
  146.0965  135.2270  155.0221 H   0  0  0  0  0  0  0  0  0  0  0  0
  145.1194  133.7996  153.0942 H   0  0  0  0  0  0  0  0  0  0  0  0
  146.5552  135.9319  151.4848 H   0  0  0  0  0  0  0  0  0  0  0  0
  146.5537  134.1980  151.1868 H   0  0  0  0  0  0  0  0  0  0  0  0
  144.8170  135.9132  149.9146 H   0  0  0  0  0  0  0  0  0  0  0  0
  144.3616  134.2597  150.2997 H   0  0  0  0  0  0  0  0  0  0  0  0
  143.1879  136.6672  151.4343 H   0  0  0  0  0  0  0  0  0  0  0  0
  142.7674  134.9889  151.7432 H   0  0  0  0  0  0  0  0  0  0  0  0
  143.5850  135.4849  153.8951 H   0  0  0  0  0  0  0  0  0  0  0  0
  144.6068  136.7839  153.2869 H   0  0  0  0  0  0  0  0  0  0  0  0
  1  2  1  0  0  0  0
  1 24  1  0  0  0  0
  1 25  1  0  0  0  0
  1 26  1  0  0  0  0
  2  9  1  0  0  0  0
  2  3  2  0  0  0  0
  3  4  1  0  0  0  0
  3 27  1  0  0  0  0
  4  5  1  0  0  0  0
  4  6  2  0  0  0  0
  6  7  1  0  0  0  0
  6 28  1  0  0  0  0
  7  8  2  0  0  0  0
  7  9  1  0  0  0  0
  9 10  1  0  0  0  0
 10 11  1  0  0  0  0
 10 29  1  0  0  0  0
 10 30  1  0  0  0  0
 11 12  2  0  0  0  0
 11 13  1  0  0  0  0
 13 14  1  0  0  0  0
 13 31  1  0  0  0  0
 14 15  1  0  0  0  0
 14 20  1  0  0  0  0
 14 32  1  0  0  0  0
 15 19  1  0  0  0  0
 15 16  1  0  0  0  0
 15 33  1  0  0  0  0
 16 17  1  0  0  0  0
 16 34  1  0  0  0  0
 16 35  1  0  0  0  0
 17 18  1  0  0  0  0
 17 36  1  0  0  0  0
 17 37  1  0  0  0  0
 18 19  1  0  0  0  0
 18 38  1  0  0  0  0
 18 39  1  0  0  0  0
 19 40  1  0  0  0  0
 19 41  1  0  0  0  0
 20 21  1  0  0  0  0
 20 22  1  0  0  0  0
 20 23  1  0  0  0  0
M  CHG  1   5  -1
M  END
> <s_m_source_file>
AV-unprocessed.smi

> <i_m_source_file_index>
2695

> <i_lp_mmshare_version>
43012

> <i_f3d_flags>
0

> <s_epik_input>
W0NIM11jMVtjSF1jKFtPSF0pW2NIXWMoPU8pbjFbQ0gyXUMoPU8pW05IXVtDQEBIXShDKEYpKEYpRilbQ0hdMltDSDJdW0NIMl1bQ0gyXVtDSDJdMg==

> <s_epik_cmdline>
J2VwaWtfcHl0aG9uJywgJy1waCcsICc3LjAnLCAnLXRuJywgJzgnLCAnLW1hJywgJzIwMCcsICctbWV0YWxfYmluZGluZycsICctaW1hZScsICc8aW5maWxlLm1hZT4nLCAnLW9tYWUnLCAnPG91dGZpbGUubWFlPic=

> <r_lp_tautomer_probability>
1

> <r_epik_Ionization_Penalty>
0.176977

> <r_epik_Ionization_Penalty_Charging>
0.176977

> <r_epik_Ionization_Penalty_Neutral>
1.44272e-07

> <r_epik_State_Penalty>
0.160849

> <r_epik_Charging_Adjusted_Penalty>
0.337826

> <i_epik_Tot_Q>
-1

> <i_epik_Tot_abs_Q>
1

> <r_epik_Metal_State_Penalty>
0.16085

> <b_epik_Metal_Only>
0

> <s_lp_Force_Field>
OPLS_2005

> <r_lp_Energy>
41.7446

> <b_lp_Chiralities_Consistent>
1

> <s_lp_Variant>
AV-unprocessed.smi:2695-2

> <Gold.Version>
5.8.1

> <Gold.Id.Protein>
6NUR|6NUR_protein|mol2

> <Gold.PLP.Fitness>
38.2231

> <Gold.PLP.PLP>
-29.7077

> <Gold.PLP.part.hbond>
-1.9047

> <Gold.PLP.part.metal>
0.0000

> <Gold.PLP.part.buried>
0.9248

> <Gold.PLP.part.nonpolar>
-27.8910

> <Gold.PLP.part.repulsive>
0.7112

> <Gold.PLP.ligand.clash>
0.0000

> <Gold.PLP.ligand.torsion>
0.3912

> <Gold.PLP.Chemscore.Hbond>
3.0000

> <Gold.PLP.Chemscore.CHOScore>
0.0000

> <Gold.PLP.Chemscore.Metal>
0.0000

> <Gold.Chemscore.Hbonds>
donor molecule, donor type, donor heavy atom, donor atom, acceptor molecule, acceptor atom, score
      L1  H    13    31       P1  7948  0.86
      P1  H  7997  8010       L1     5  2.00

> <Gold.PLP.Chemscore.Internal.Correction>
0.2979

> <Gold.Rescore>
     Score         DG    S(hbond)    S(metal)    S(lipo)     H(rot)  DE(clash)    DE(int)     intcor
     12.62     -14.81       1.98        0.00      61.70       1.75       0.56       1.63       ----

> <Gold.Chemscore.Fitness>
12.6181

> <Gold.Chemscore.DG>
-14.8101

> <Gold.Chemscore.ZeroCoef>
-5.4800

> <Gold.Chemscore.Hbond>
1.9764

> <Gold.Chemscore.Metal>
0.0000

> <Gold.Chemscore.Lipo>
61.7004

> <Gold.Chemscore.Internal_Hbond>
0.0000

> <Gold.Chemscore.DEClash>
0.5598

> <Gold.Chemscore.DEInternal>
1.6322

> <Gold.Chemscore.Rot>
1.7539

> <Gold.Chemscore.Internal.Correction>
   9.000000E+99

> <Gold.Chemscore.Hbonds>
donor molecule, donor type, donor heavy atom, donor atom, acceptor molecule, acceptor atom, score
      L1  H    13    31       P1  7948  0.84
      P1  H  7997  8010       L1     5  0.96

> <Gold.Chemscore.Hbond.Weighted>
-6.6010

> <Gold.Chemscore.Metal.Weighted>
-0.0000

> <Gold.Chemscore.Lipo.Weighted>
-7.2189

> <Gold.Chemscore.Internal_Hbond.Weighted>
0.0000

> <Gold.Chemscore.DEClash.Weighted>
0.5598

> <Gold.Chemscore.DEInternal.Weighted>
1.6322

> <Gold.Chemscore.Rot.Weighted>
4.4899

> <Gold.Chemscore.Internal.Correction.Weighted>
   9.000000E+99

> <Gold.Protein.RotatedTorsions>
[ 6907 6896 6895 6894 ] final   -7.33 input  -60.11 | X-H torsion
[ 7974 7965 7964 7962 ] final -137.53 input  175.53 | X-H torsion
[ 8008 7997 7996 7995 ] final   75.63 input   59.86 | X-H torsion
[ 10167 10162 10161 10158 ] final -129.49 input  -65.29 | X-H torsion
[ 10718 10713 10712 10709 ] final   91.29 input   66.30 | X-H torsion
[ 10763 10752 10751 10750 ] final   57.74 input  -60.55 | X-H torsion
[ 11005 11000 10999 10996 ] final  154.28 input  -57.11 | X-H torsion

> <Gold.Protein.ActiveResidues>
 VAL166  LYS551  ARG553  GLY616  TRP617  ASP618  TYR619  PRO620  LYS621  CYS622 
 ASP623  PHE694  ASN695  SER759  ASP760  ASP761  ALA762  ILE779  LEU786  VAL792 
 PHE793  MET794  SER795  GLU796  ALA797  LYS798  CYS799  TRP800  GLU811  SER814 

> <Gold.Protein.RotatedAtoms>
  151.4513  135.1030  159.9698 H   0  0  0  0  0  0  0  0  0  0  0  0  # atno 6907 bound_to 6896
  152.4887  133.8437  159.7176 H   0  0  0  0  0  0  0  0  0  0  0  0  # atno 6908 bound_to 6896
  150.9020  133.7047  159.2904 H   0  0  0  0  0  0  0  0  0  0  0  0  # atno 6909 bound_to 6896
  144.8834  140.6540  143.5191 H   0  0  0  0  0  0  0  0  0  0  0  0  # atno 7974 bound_to 7965
  155.8157  140.3471  155.5484 H   0  0  0  0  0  0  0  0  0  0  0  0  # atno 8008 bound_to 7997
  155.8395  140.0939  157.1763 H   0  0  0  0  0  0  0  0  0  0  0  0  # atno 8009 bound_to 7997
  154.4005  140.1397  156.3698 H   0  0  0  0  0  0  0  0  0  0  0  0  # atno 8010 bound_to 7997
  139.9392  143.6183  152.2508 H   0  0  0  0  0  0  0  0  0  0  0  0  # atno 10167 bound_to 10162
  157.6960  131.0402  150.3707 H   0  0  0  0  0  0  0  0  0  0  0  0  # atno 10718 bound_to 10713
  152.9856  135.5631  154.5439 H   0  0  0  0  0  0  0  0  0  0  0  0  # atno 10763 bound_to 10752
  154.4888  135.2792  155.1515 H   0  0  0  0  0  0  0  0  0  0  0  0  # atno 10764 bound_to 10752
  154.2993  135.6310  153.5471 H   0  0  0  0  0  0  0  0  0  0  0  0  # atno 10765 bound_to 10752
  140.1475  134.8697  157.2412 H   0  0  0  0  0  0  0  0  0  0  0  0  # atno 11005 bound_to 11000
  145.3912  139.1616  143.4228 LP  0  0  0  0  0  0  0  0  0  0  0  0  # atno 17320 bound_to 7965
  146.3009  140.4002  142.8704 LP  0  0  0  0  0  0  0  0  0  0  0  0  # atno 17321 bound_to 7965
  139.6718  144.7660  151.1768 LP  0  0  0  0  0  0  0  0  0  0  0  0  # atno 17342 bound_to 10162
  140.7616  143.5853  150.8852 LP  0  0  0  0  0  0  0  0  0  0  0  0  # atno 17343 bound_to 10162
  156.4132  130.3938  149.6877 LP  0  0  0  0  0  0  0  0  0  0  0  0  # atno 17370 bound_to 10713
  156.4153  130.7742  151.2757 LP  0  0  0  0  0  0  0  0  0  0  0  0  # atno 17371 bound_to 10713
  140.2645  134.3532  155.7394 LP  0  0  0  0  0  0  0  0  0  0  0  0  # atno 17394 bound_to 11000
  141.2194  133.7388  156.9131 LP  0  0  0  0  0  0  0  0  0  0  0  0  # atno 17395 bound_to 11000

$$$$
