AV-unprocessed.smi:1143|AV-procd|sdf|4875|dock8
  -GOLD-   22720 3443D 1   1.00000     0.00000
 Structure written by MMmdl.
 35 36  0  0  0  0  0  0  0  0  1 V2000
  145.8006  131.1669  151.1141 C   0  0  0  0  0  0  0  0  0  0  0  0
  145.3637  132.5451  150.8755 N   0  0  0  0  0  0  0  0  0  0  0  0
  146.0754  133.5798  151.5134 C   0  0  0  0  0  0  0  0  0  0  0  0
  145.7503  134.8817  151.3561 C   0  0  0  0  0  0  0  0  0  0  0  0
  146.4214  135.9641  151.9423 N   0  0  0  0  0  0  0  0  0  0  0  0
  145.9190  137.0464  152.5731 C   0  0  0  0  0  0  0  0  0  0  0  0
  144.7236  137.3071  152.6916 O   0  0  0  0  0  0  0  0  0  0  0  0
  146.8581  137.8783  153.0603 N   0  0  0  0  0  0  0  0  0  0  0  0
  146.6690  139.1330  153.7922 C   0  0  0  0  0  0  0  0  0  0  0  0
  147.1401  140.3123  152.9287 C   0  0  0  0  0  0  0  0  0  0  0  0
  147.0812  141.6267  153.7242 C   0  0  0  0  0  0  0  0  0  0  0  0
  147.8592  141.5137  154.9112 O   0  0  0  0  0  0  0  0  0  0  0  0
  147.3804  140.5060  155.7951 C   0  0  0  0  0  0  0  0  0  0  0  0
  147.4566  139.1294  155.1150 C   0  0  0  0  0  0  0  0  0  0  0  0
  144.6328  135.1772  150.4851 C   0  0  0  0  0  0  0  0  0  0  0  0
  143.9472  134.1937  149.8710 C   0  0  0  0  0  0  0  0  0  0  0  0
  144.3012  132.7841  150.0534 C   0  0  0  0  0  0  0  0  0  0  0  0
  143.6822  131.8746  149.5006 O   0  0  0  0  0  0  0  0  0  0  0  0
  146.6721  131.1047  151.7665 H   0  0  0  0  0  0  0  0  0  0  0  0
  146.0659  130.6810  150.1739 H   0  0  0  0  0  0  0  0  0  0  0  0
  145.0022  130.5888  151.5817 H   0  0  0  0  0  0  0  0  0  0  0  0
  146.8979  133.2296  152.1163 H   0  0  0  0  0  0  0  0  0  0  0  0
  147.4276  135.9218  151.8749 H   0  0  0  0  0  0  0  0  0  0  0  0
  147.8170  137.6339  152.8579 H   0  0  0  0  0  0  0  0  0  0  0  0
  145.6082  139.2797  154.0047 H   0  0  0  0  0  0  0  0  0  0  0  0
  148.1648  140.1429  152.5946 H   0  0  0  0  0  0  0  0  0  0  0  0
  146.5271  140.3926  152.0302 H   0  0  0  0  0  0  0  0  0  0  0  0
  147.4750  142.4458  153.1223 H   0  0  0  0  0  0  0  0  0  0  0  0
  146.0509  141.8841  153.9753 H   0  0  0  0  0  0  0  0  0  0  0  0
  147.9905  140.5106  156.6985 H   0  0  0  0  0  0  0  0  0  0  0  0
  146.3579  140.7315  156.1019 H   0  0  0  0  0  0  0  0  0  0  0  0
  147.0746  138.3631  155.7900 H   0  0  0  0  0  0  0  0  0  0  0  0
  148.5017  138.8822  154.9232 H   0  0  0  0  0  0  0  0  0  0  0  0
  144.3377  136.2039  150.3234 H   0  0  0  0  0  0  0  0  0  0  0  0
  143.1173  134.4489  149.2287 H   0  0  0  0  0  0  0  0  0  0  0  0
  1  2  1  0  0  0  0
  1 19  1  0  0  0  0
  1 20  1  0  0  0  0
  1 21  1  0  0  0  0
  2 17  1  0  0  0  0
  2  3  1  0  0  0  0
  3  4  2  0  0  0  0
  3 22  1  0  0  0  0
  4  5  1  0  0  0  0
  4 15  1  0  0  0  0
  5  6  1  0  0  0  0
  5 23  1  0  0  0  0
  6  7  2  0  0  0  0
  6  8  1  0  0  0  0
  8  9  1  0  0  0  0
  8 24  1  0  0  0  0
  9 14  1  0  0  0  0
  9 10  1  0  0  0  0
  9 25  1  0  0  0  0
 10 11  1  0  0  0  0
 10 26  1  0  0  0  0
 10 27  1  0  0  0  0
 11 12  1  0  0  0  0
 11 28  1  0  0  0  0
 11 29  1  0  0  0  0
 12 13  1  0  0  0  0
 13 14  1  0  0  0  0
 13 30  1  0  0  0  0
 13 31  1  0  0  0  0
 14 32  1  0  0  0  0
 14 33  1  0  0  0  0
 15 16  2  0  0  0  0
 15 34  1  0  0  0  0
 16 17  1  0  0  0  0
 16 35  1  0  0  0  0
 17 18  2  0  0  0  0
M  END
> <s_m_source_file>
AV-unprocessed.smi

> <i_m_source_file_index>
1143

> <i_lp_mmshare_version>
43012

> <i_f3d_flags>
0

> <s_epik_input>
Tz1jMVtjSF1bY0hdYyhbY0hdbjFbQ0gzXSlbTkhdQyg9TylbTkhdW0NIXTJbQ0gyXVtDSDJdT1tDSDJdW0NIMl0y

> <s_epik_cmdline>
J2VwaWtfcHl0aG9uJywgJy1waCcsICc3LjAnLCAnLXRuJywgJzgnLCAnLW1hJywgJzIwMCcsICctbWV0YWxfYmluZGluZycsICctaW1hZScsICc8aW5maWxlLm1hZT4nLCAnLW9tYWUnLCAnPG91dGZpbGUubWFlPic=

> <r_lp_tautomer_probability>
1

> <r_epik_Ionization_Penalty>
2.54991e-05

> <r_epik_Ionization_Penalty_Charging>
5.93057e-06

> <r_epik_Ionization_Penalty_Neutral>
1.95685e-05

> <r_epik_State_Penalty>
-0

> <r_epik_Charging_Adjusted_Penalty>
5.93057e-06

> <i_epik_Tot_Q>
0

> <i_epik_Tot_abs_Q>
0

> <r_epik_Metal_State_Penalty>
-0

> <b_epik_Metal_Only>
0

> <s_lp_Force_Field>
OPLS_2005

> <r_lp_Energy>
32.4408

> <b_lp_Chiralities_Consistent>
1

> <s_lp_Variant>
AV-unprocessed.smi:1143-1

> <Gold.Version>
5.8.1

> <Gold.Id.Protein>
6NUR|6NUR_protein|mol2

> <Gold.PLP.Fitness>
35.1735

> <Gold.PLP.PLP>
-27.9241

> <Gold.PLP.part.hbond>
-2.9649

> <Gold.PLP.part.metal>
0.0000

> <Gold.PLP.part.buried>
-2.3982

> <Gold.PLP.part.nonpolar>
-23.0646

> <Gold.PLP.part.repulsive>
0.6264

> <Gold.PLP.ligand.clash>
0.0000

> <Gold.PLP.ligand.torsion>
0.4501

> <Gold.PLP.Chemscore.Hbond>
2.7163

> <Gold.PLP.Chemscore.CHOScore>
0.0000

> <Gold.PLP.Chemscore.Metal>
0.0000

> <Gold.Chemscore.Hbonds>
donor molecule, donor type, donor heavy atom, donor atom, acceptor molecule, acceptor atom, score
      L1  H     5    23       P1  7948  0.99
      L1  H     8    24       P1  7948  0.80
      P1  H 10785 10796       L1    18  0.91

> <Gold.PLP.Chemscore.Internal.Correction>
0.0009

> <Gold.Rescore>
     Score         DG    S(hbond)    S(metal)    S(lipo)     H(rot)  DE(clash)    DE(int)     intcor
     17.66     -18.68       2.79        0.00      54.99       1.00       0.54       0.48       ----

> <Gold.Chemscore.Fitness>
17.6561

> <Gold.Chemscore.DG>
-18.6833

> <Gold.Chemscore.ZeroCoef>
-5.4800

> <Gold.Chemscore.Hbond>
2.7931

> <Gold.Chemscore.Metal>
0.0000

> <Gold.Chemscore.Lipo>
54.9934

> <Gold.Chemscore.Internal_Hbond>
0.0000

> <Gold.Chemscore.DEClash>
0.5448

> <Gold.Chemscore.DEInternal>
0.4823

> <Gold.Chemscore.Rot>
1.0000

> <Gold.Chemscore.Internal.Correction>
   9.000000E+99

> <Gold.Chemscore.Hbonds>
donor molecule, donor type, donor heavy atom, donor atom, acceptor molecule, acceptor atom, score
      L1  H     5    23       P1  7948  0.92
      L1  H     8    24       P1  7948  0.75
      P1  H 10785 10796       L1    18  0.87

> <Gold.Chemscore.Hbond.Weighted>
-9.3290

> <Gold.Chemscore.Metal.Weighted>
-0.0000

> <Gold.Chemscore.Lipo.Weighted>
-6.4342

> <Gold.Chemscore.Internal_Hbond.Weighted>
0.0000

> <Gold.Chemscore.DEClash.Weighted>
0.5448

> <Gold.Chemscore.DEInternal.Weighted>
0.4823

> <Gold.Chemscore.Rot.Weighted>
2.5600

> <Gold.Chemscore.Internal.Correction.Weighted>
   9.000000E+99

> <Gold.Protein.RotatedTorsions>
[ 6907 6896 6895 6894 ] final  -75.77 input  -60.11 | X-H torsion
[ 7974 7965 7964 7962 ] final -165.73 input  175.53 | X-H torsion
[ 8008 7997 7996 7995 ] final  174.19 input   59.86 | X-H torsion
[ 10167 10162 10161 10158 ] final  -49.88 input  -65.29 | X-H torsion
[ 10718 10713 10712 10709 ] final   33.73 input   66.30 | X-H torsion
[ 10763 10752 10751 10750 ] final   34.46 input  -60.55 | X-H torsion
[ 11005 11000 10999 10996 ] final  -20.97 input  -57.11 | X-H torsion

> <Gold.Protein.ActiveResidues>
 VAL166  LYS551  ARG553  GLY616  TRP617  ASP618  TYR619  PRO620  LYS621  CYS622 
 ASP623  PHE694  ASN695  SER759  ASP760  ASP761  ALA762  ILE779  LEU786  VAL792 
 PHE793  MET794  SER795  GLU796  ALA797  LYS798  CYS799  TRP800  GLU811  SER814 

> <Gold.Protein.RotatedAtoms>
  150.7048  134.4672  159.5408 H   0  0  0  0  0  0  0  0  0  0  0  0  # atno 6907 bound_to 6896
  152.2335  134.8296  160.0479 H   0  0  0  0  0  0  0  0  0  0  0  0  # atno 6908 bound_to 6896
  151.9103  133.3524  159.3898 H   0  0  0  0  0  0  0  0  0  0  0  0  # atno 6909 bound_to 6896
  144.7262  140.2771  143.6241 H   0  0  0  0  0  0  0  0  0  0  0  0  # atno 7974 bound_to 7965
  156.0999  140.1440  156.9481 H   0  0  0  0  0  0  0  0  0  0  0  0  # atno 8008 bound_to 7997
  154.4695  140.0914  156.7154 H   0  0  0  0  0  0  0  0  0  0  0  0  # atno 8009 bound_to 7997
  155.4778  140.3444  155.4337 H   0  0  0  0  0  0  0  0  0  0  0  0  # atno 8010 bound_to 7997
  140.6664  143.2679  151.4279 H   0  0  0  0  0  0  0  0  0  0  0  0  # atno 10167 bound_to 10162
  157.3015  130.7353  149.6669 H   0  0  0  0  0  0  0  0  0  0  0  0  # atno 10718 bound_to 10713
  153.0163  135.6360  154.1671 H   0  0  0  0  0  0  0  0  0  0  0  0  # atno 10763 bound_to 10752
  154.1410  135.2834  155.3162 H   0  0  0  0  0  0  0  0  0  0  0  0  # atno 10764 bound_to 10752
  154.6124  135.5552  153.7549 H   0  0  0  0  0  0  0  0  0  0  0  0  # atno 10765 bound_to 10752
  140.8516  133.7853  155.9972 H   0  0  0  0  0  0  0  0  0  0  0  0  # atno 11005 bound_to 11000
  145.7986  139.1955  143.2061 LP  0  0  0  0  0  0  0  0  0  0  0  0  # atno 17320 bound_to 7965
  146.0696  140.7884  142.9695 LP  0  0  0  0  0  0  0  0  0  0  0  0  # atno 17321 bound_to 7965
  139.5914  144.1490  152.2093 LP  0  0  0  0  0  0  0  0  0  0  0  0  # atno 17342 bound_to 10162
  140.0846  144.5672  150.7098 LP  0  0  0  0  0  0  0  0  0  0  0  0  # atno 17343 bound_to 10162
  155.9672  130.4278  150.4762 LP  0  0  0  0  0  0  0  0  0  0  0  0  # atno 17370 bound_to 10713
  157.2744  131.0594  151.2239 LP  0  0  0  0  0  0  0  0  0  0  0  0  # atno 17371 bound_to 10713
  140.8784  134.2642  157.5156 LP  0  0  0  0  0  0  0  0  0  0  0  0  # atno 17394 bound_to 11000
  139.8704  134.9602  156.4358 LP  0  0  0  0  0  0  0  0  0  0  0  0  # atno 17395 bound_to 11000

$$$$
