AV-unprocessed.smi:1350|AV-procd|sdf|5520|dock8
  -GOLD-   22720 5103D 1   1.00000     0.00000
 Structure written by MMmdl.
 43 45  0  0  0  0  0  0  0  0  1 V2000
  150.8028  144.1980  159.1497 C   0  0  0  0  0  0  0  0  0  0  0  0
  151.0245  142.9154  158.5815 O   0  0  0  0  0  0  0  0  0  0  0  0
  152.0331  142.1292  159.1011 C   0  0  0  0  0  0  0  0  0  0  0  0
  152.8124  142.5083  160.2250 C   0  0  0  0  0  0  0  0  0  0  0  0
  153.8292  141.6658  160.7129 C   0  0  0  0  0  0  0  0  0  0  0  0
  154.0833  140.4330  160.0877 C   0  0  0  0  0  0  0  0  0  0  0  0
  153.3186  140.0449  158.9737 C   0  0  0  0  0  0  0  0  0  0  0  0
  152.2996  140.8844  158.4762 C   0  0  0  0  0  0  0  0  0  0  0  0
  151.4970  140.4087  157.2760 C   0  0  0  0  0  0  0  0  0  0  0  0
  152.3279  139.7731  156.3191 O   0  0  0  0  0  0  0  0  0  0  0  0
  151.7008  139.6232  155.0561 C   0  0  0  0  0  0  0  0  0  0  0  0
  151.3007  138.1532  154.8678 C   0  0  2  0  0  0  0  0  0  0  0  0
  152.0616  137.6107  153.8062 O   0  0  0  0  0  0  0  0  0  0  0  0
  149.7979  137.9832  154.5728 C   0  0  0  0  0  0  0  0  0  0  0  0
  148.9722  138.2972  155.7245 N   0  0  0  0  0  0  0  0  0  0  0  0
  149.1202  137.8445  156.9845 C   0  0  0  0  0  0  0  0  0  0  0  0
  148.2435  138.2674  157.8911 N   0  0  0  0  0  0  0  0  0  0  0  0
  147.4312  139.0911  157.1306 C   0  0  0  0  0  0  0  0  0  0  0  0
  146.2999  139.8555  157.4959 C   0  0  0  0  0  0  0  0  0  0  0  0
  145.6208  140.6313  156.5333 C   0  0  0  0  0  0  0  0  0  0  0  0
  146.0606  140.6551  155.1937 C   0  0  0  0  0  0  0  0  0  0  0  0
  147.1858  139.9024  154.8060 C   0  0  0  0  0  0  0  0  0  0  0  0
  147.8601  139.1300  155.7697 C   0  0  0  0  0  0  0  0  0  0  0  0
  149.9843  144.6873  158.6220 H   0  0  0  0  0  0  0  0  0  0  0  0
  151.6830  144.8351  159.0534 H   0  0  0  0  0  0  0  0  0  0  0  0
  150.5201  144.1254  160.2007 H   0  0  0  0  0  0  0  0  0  0  0  0
  152.6503  143.4450  160.7357 H   0  0  0  0  0  0  0  0  0  0  0  0
  154.4144  141.9667  161.5693 H   0  0  0  0  0  0  0  0  0  0  0  0
  154.8625  139.7857  160.4624 H   0  0  0  0  0  0  0  0  0  0  0  0
  153.5162  139.0956  158.4974 H   0  0  0  0  0  0  0  0  0  0  0  0
  150.7430  139.7052  157.6321 H   0  0  0  0  0  0  0  0  0  0  0  0
  150.9616  141.2316  156.8027 H   0  0  0  0  0  0  0  0  0  0  0  0
  150.8259  140.2715  154.9835 H   0  0  0  0  0  0  0  0  0  0  0  0
  152.3981  139.9226  154.2717 H   0  0  0  0  0  0  0  0  0  0  0  0
  151.5606  137.5998  155.7713 H   0  0  0  0  0  0  0  0  0  0  0  0
  151.4758  137.3936  153.0972 H   0  0  0  0  0  0  0  0  0  0  0  0
  149.4965  138.6379  153.7542 H   0  0  0  0  0  0  0  0  0  0  0  0
  149.5812  136.9632  154.2515 H   0  0  0  0  0  0  0  0  0  0  0  0
  149.9192  137.1682  157.2520 H   0  0  0  0  0  0  0  0  0  0  0  0
  145.9544  139.8454  158.5190 H   0  0  0  0  0  0  0  0  0  0  0  0
  144.7576  141.2117  156.8243 H   0  0  0  0  0  0  0  0  0  0  0  0
  145.5342  141.2520  154.4635 H   0  0  0  0  0  0  0  0  0  0  0  0
  147.5275  139.9181  153.7817 H   0  0  0  0  0  0  0  0  0  0  0  0
  1  2  1  0  0  0  0
  1 24  1  0  0  0  0
  1 25  1  0  0  0  0
  1 26  1  0  0  0  0
  2  3  1  0  0  0  0
  3  8  1  0  0  0  0
  3  4  2  0  0  0  0
  4  5  1  0  0  0  0
  4 27  1  0  0  0  0
  5  6  2  0  0  0  0
  5 28  1  0  0  0  0
  6  7  1  0  0  0  0
  6 29  1  0  0  0  0
  7  8  2  0  0  0  0
  7 30  1  0  0  0  0
  8  9  1  0  0  0  0
  9 10  1  0  0  0  0
  9 31  1  0  0  0  0
  9 32  1  0  0  0  0
 10 11  1  0  0  0  0
 11 12  1  0  0  0  0
 11 33  1  0  0  0  0
 11 34  1  0  0  0  0
 12 13  1  0  0  0  0
 12 14  1  0  0  0  0
 12 35  1  0  0  0  0
 13 36  1  0  0  0  0
 14 15  1  0  0  0  0
 14 37  1  0  0  0  0
 14 38  1  0  0  0  0
 15 23  1  0  0  0  0
 15 16  1  0  0  0  0
 16 17  2  0  0  0  0
 16 39  1  0  0  0  0
 17 18  1  0  0  0  0
 18 23  2  0  0  0  0
 18 19  1  0  0  0  0
 19 20  2  0  0  0  0
 19 40  1  0  0  0  0
 20 21  1  0  0  0  0
 20 41  1  0  0  0  0
 21 22  2  0  0  0  0
 21 42  1  0  0  0  0
 22 23  1  0  0  0  0
 22 43  1  0  0  0  0
M  END
> <s_m_source_file>
AV-unprocessed.smi

> <i_m_source_file_index>
1350

> <i_lp_mmshare_version>
43012

> <i_f3d_flags>
0

> <s_epik_input>
W0NIM11PYzFbY0hdW2NIXVtjSF1bY0hdYzFbQ0gyXU9bQ0gyXVtDQEhdKFtPSF0pW0NIMl1uKFtjSF1uMiljKGMyMylbY0hdW2NIXVtjSF1bY0hdMw==

> <s_epik_cmdline>
J2VwaWtfcHl0aG9uJywgJy1waCcsICc3LjAnLCAnLXRuJywgJzgnLCAnLW1hJywgJzIwMCcsICctbWV0YWxfYmluZGluZycsICctaW1hZScsICc8aW5maWxlLm1hZT4nLCAnLW9tYWUnLCAnPG91dGZpbGUubWFlPic=

> <r_lp_tautomer_probability>
1

> <r_epik_Ionization_Penalty>
0.0713119

> <r_epik_Ionization_Penalty_Charging>
0

> <r_epik_Ionization_Penalty_Neutral>
0.0713119

> <r_epik_State_Penalty>
0.06259

> <r_epik_Charging_Adjusted_Penalty>
0.06259

> <i_epik_Tot_Q>
0

> <i_epik_Tot_abs_Q>
0

> <r_epik_Metal_State_Penalty>
6.60119e-05

> <b_epik_Metal_Only>
0

> <s_lp_Force_Field>
OPLS_2005

> <r_lp_Energy>
18.6906

> <b_lp_Chiralities_Consistent>
1

> <s_lp_Variant>
AV-unprocessed.smi:1350-1

> <Gold.Version>
5.8.1

> <Gold.Id.Protein>
6NUR|6NUR_protein|mol2

> <Gold.PLP.Fitness>
51.7076

> <Gold.PLP.PLP>
-46.3853

> <Gold.PLP.part.hbond>
-3.0000

> <Gold.PLP.part.metal>
0.0000

> <Gold.PLP.part.buried>
-4.5459

> <Gold.PLP.part.nonpolar>
-38.1624

> <Gold.PLP.part.repulsive>
0.0530

> <Gold.PLP.ligand.clash>
0.0000

> <Gold.PLP.ligand.torsion>
1.5666

> <Gold.PLP.Chemscore.Hbond>
2.7800

> <Gold.PLP.Chemscore.CHOScore>
0.0000

> <Gold.PLP.Chemscore.Metal>
0.0000

> <Gold.Chemscore.Hbonds>
donor molecule, donor type, donor heavy atom, donor atom, acceptor molecule, acceptor atom, score
      L1  H    13    36       P1  7949  0.60
      P1  H  7997  8010       L1    10  0.99
      P1  H 10752 10764       L1    13  0.64

> <Gold.PLP.Chemscore.Internal.Correction>
0.1155

> <Gold.Rescore>
     Score         DG    S(hbond)    S(metal)    S(lipo)     H(rot)  DE(clash)    DE(int)     intcor
     17.65     -19.54       2.20        0.00     114.98       2.63       0.03       1.86       ----

> <Gold.Chemscore.Fitness>
17.6481

> <Gold.Chemscore.DG>
-19.5366

> <Gold.Chemscore.ZeroCoef>
-5.4800

> <Gold.Chemscore.Hbond>
2.1974

> <Gold.Chemscore.Metal>
0.0000

> <Gold.Chemscore.Lipo>
114.9756

> <Gold.Chemscore.Internal_Hbond>
0.0000

> <Gold.Chemscore.DEClash>
0.0310

> <Gold.Chemscore.DEInternal>
1.8575

> <Gold.Chemscore.Rot>
2.6308

> <Gold.Chemscore.Internal.Correction>
   9.000000E+99

> <Gold.Chemscore.Hbonds>
donor molecule, donor type, donor heavy atom, donor atom, acceptor molecule, acceptor atom, score
      L1  H    13    36       P1  7949  0.50
      P1  H  7997  8010       L1    10  0.86
      P1  H 10752 10764       L1    13  0.15

> <Gold.Chemscore.Hbond.Weighted>
-7.3392

> <Gold.Chemscore.Metal.Weighted>
-0.0000

> <Gold.Chemscore.Lipo.Weighted>
-13.4521

> <Gold.Chemscore.Internal_Hbond.Weighted>
0.0000

> <Gold.Chemscore.DEClash.Weighted>
0.0310

> <Gold.Chemscore.DEInternal.Weighted>
1.8575

> <Gold.Chemscore.Rot.Weighted>
6.7347

> <Gold.Chemscore.Internal.Correction.Weighted>
   9.000000E+99

> <Gold.Protein.RotatedTorsions>
[ 6907 6896 6895 6894 ] final  137.66 input  -60.11 | X-H torsion
[ 7974 7965 7964 7962 ] final  -83.64 input  175.53 | X-H torsion
[ 8008 7997 7996 7995 ] final   75.38 input   59.86 | X-H torsion
[ 10167 10162 10161 10158 ] final   96.61 input  -65.29 | X-H torsion
[ 10718 10713 10712 10709 ] final  -17.30 input   66.30 | X-H torsion
[ 10763 10752 10751 10750 ] final  -86.37 input  -60.55 | X-H torsion
[ 11005 11000 10999 10996 ] final -101.87 input  -57.11 | X-H torsion

> <Gold.Protein.ActiveResidues>
 VAL166  LYS551  ARG553  GLY616  TRP617  ASP618  TYR619  PRO620  LYS621  CYS622 
 ASP623  PHE694  ASN695  SER759  ASP760  ASP761  ALA762  ILE779  LEU786  VAL792 
 PHE793  MET794  SER795  GLU796  ALA797  LYS798  CYS799  TRP800  GLU811  SER814 

> <Gold.Protein.RotatedAtoms>
  152.2755  133.5421  159.5465 H   0  0  0  0  0  0  0  0  0  0  0  0  # atno 6907 bound_to 6896
  150.7175  134.0638  159.3849 H   0  0  0  0  0  0  0  0  0  0  0  0  # atno 6908 bound_to 6896
  151.8551  135.0544  160.0514 H   0  0  0  0  0  0  0  0  0  0  0  0  # atno 6909 bound_to 6896
  145.5172  140.9534  143.1675 H   0  0  0  0  0  0  0  0  0  0  0  0  # atno 7974 bound_to 7965
  155.8121  140.3473  155.5464 H   0  0  0  0  0  0  0  0  0  0  0  0  # atno 8008 bound_to 7997
  155.8430  140.0944  157.1743 H   0  0  0  0  0  0  0  0  0  0  0  0  # atno 8009 bound_to 7997
  154.4005  140.1391  156.3739 H   0  0  0  0  0  0  0  0  0  0  0  0  # atno 8010 bound_to 7997
  139.7878  144.6864  150.9934 H   0  0  0  0  0  0  0  0  0  0  0  0  # atno 10167 bound_to 10162
  156.5755  130.4760  149.6343 H   0  0  0  0  0  0  0  0  0  0  0  0  # atno 10718 bound_to 10713
  154.6217  135.5451  153.7582 H   0  0  0  0  0  0  0  0  0  0  0  0  # atno 10763 bound_to 10752
  153.0241  135.6414  154.1431 H   0  0  0  0  0  0  0  0  0  0  0  0  # atno 10764 bound_to 10752
  154.1365  135.2911  155.3152 H   0  0  0  0  0  0  0  0  0  0  0  0  # atno 10765 bound_to 10752
  141.1213  133.8513  157.1287 H   0  0  0  0  0  0  0  0  0  0  0  0  # atno 11005 bound_to 11000
  144.7695  139.6767  143.7200 LP  0  0  0  0  0  0  0  0  0  0  0  0  # atno 17320 bound_to 7965
  146.2129  139.5497  142.9669 LP  0  0  0  0  0  0  0  0  0  0  0  0  # atno 17321 bound_to 7965
  140.7820  143.4414  151.0547 LP  0  0  0  0  0  0  0  0  0  0  0  0  # atno 17342 bound_to 10162
  139.8091  143.7975  152.3170 LP  0  0  0  0  0  0  0  0  0  0  0  0  # atno 17343 bound_to 10162
  156.2677  130.6999  151.1787 LP  0  0  0  0  0  0  0  0  0  0  0  0  # atno 17370 bound_to 10713
  157.7338  131.0587  150.5556 LP  0  0  0  0  0  0  0  0  0  0  0  0  # atno 17371 bound_to 10713
  140.0172  134.9962  157.0518 LP  0  0  0  0  0  0  0  0  0  0  0  0  # atno 17394 bound_to 11000
  140.4499  134.1593  155.7180 LP  0  0  0  0  0  0  0  0  0  0  0  0  # atno 17395 bound_to 11000

$$$$
