AV-unprocessed.smi:1464|AV-procd|sdf|5948|dock4
  -GOLD-   22720 6 33D 1   1.00000     0.00000
 Structure written by MMmdl.
 41 42  0  0  0  0  0  0  0  0  1 V2000
  151.9153  144.1119  159.7820 C   0  0  0  0  0  0  0  0  0  0  0  0
  152.3374  142.6726  160.1324 C   0  0  1  0  0  0  0  0  0  0  0  0
  152.8647  141.9689  158.8662 C   0  0  0  0  0  0  0  0  0  0  0  0
  153.2690  140.5176  159.1461 C   0  0  0  0  0  0  0  0  0  0  0  0
  154.3250  140.4565  160.2531 C   0  0  0  0  0  0  0  0  0  0  0  0
  153.8299  141.1402  161.5425 C   0  0  1  0  0  0  0  0  0  0  0  0
  154.8937  141.0978  162.5447 N   0  0  0  0  0  0  0  0  0  0  0  0
  155.4028  139.9855  163.0961 C   0  0  0  0  0  0  0  0  0  0  0  0
  155.0084  138.8519  162.8185 O   0  0  0  0  0  0  0  0  0  0  0  0
  156.5165  140.2016  164.1311 C   0  0  0  0  0  0  0  0  0  0  0  0
  156.1210  141.0763  165.2447 N   0  0  0  0  0  0  0  0  0  0  0  0
  156.0492  142.4205  164.9116 N   0  0  0  0  0  0  0  0  0  0  0  0
  155.7039  143.2879  165.8021 C   0  0  0  0  0  0  0  0  0  0  0  0
  155.6444  144.6080  165.4288 O   0  0  0  0  0  0  0  0  0  0  0  0
  155.3882  142.8865  167.1554 C   0  0  0  0  0  0  0  0  0  0  0  0
  155.4659  141.5753  167.4718 C   0  0  0  0  0  0  0  0  0  0  0  0
  155.8564  140.5651  166.4866 C   0  0  0  0  0  0  0  0  0  0  0  0
  155.9402  139.3652  166.7482 O   0  0  0  0  0  0  0  0  0  0  0  0
  153.3780  142.6041  161.2867 C   0  0  2  0  0  0  0  0  0  0  0  0
  152.8451  143.2533  162.5833 C   0  0  0  0  0  0  0  0  0  0  0  0
  156.1828  144.6742  164.6551 H   0  0  0  0  0  0  0  0  0  0  0  0
  152.7793  144.7307  159.5383 H   0  0  0  0  0  0  0  0  0  0  0  0
  151.3779  144.5896  160.6006 H   0  0  0  0  0  0  0  0  0  0  0  0
  151.2469  144.1245  158.9205 H   0  0  0  0  0  0  0  0  0  0  0  0
  151.4416  142.1393  160.4547 H   0  0  0  0  0  0  0  0  0  0  0  0
  152.1035  141.9846  158.0853 H   0  0  0  0  0  0  0  0  0  0  0  0
  153.7220  142.5154  158.4702 H   0  0  0  0  0  0  0  0  0  0  0  0
  152.3922  139.9379  159.4381 H   0  0  0  0  0  0  0  0  0  0  0  0
  153.6571  140.0576  158.2368 H   0  0  0  0  0  0  0  0  0  0  0  0
  154.5800  139.4149  160.4529 H   0  0  0  0  0  0  0  0  0  0  0  0
  155.2410  140.9370  159.9064 H   0  0  0  0  0  0  0  0  0  0  0  0
  152.9659  140.5864  161.9157 H   0  0  0  0  0  0  0  0  0  0  0  0
  155.2750  141.9861  162.8366 H   0  0  0  0  0  0  0  0  0  0  0  0
  156.8461  139.2358  164.5189 H   0  0  0  0  0  0  0  0  0  0  0  0
  157.3813  140.6186  163.6119 H   0  0  0  0  0  0  0  0  0  0  0  0
  155.0987  143.6251  167.8882 H   0  0  0  0  0  0  0  0  0  0  0  0
  155.2330  141.2613  168.4786 H   0  0  0  0  0  0  0  0  0  0  0  0
  154.2560  143.1721  160.9740 H   0  0  0  0  0  0  0  0  0  0  0  0
  151.9321  142.7634  162.9228 H   0  0  0  0  0  0  0  0  0  0  0  0
  152.6266  144.3116  162.4471 H   0  0  0  0  0  0  0  0  0  0  0  0
  153.5700  143.1964  163.3950 H   0  0  0  0  0  0  0  0  0  0  0  0
  1  2  1  0  0  0  0
  1 22  1  0  0  0  0
  1 23  1  0  0  0  0
  1 24  1  0  0  0  0
  2 19  1  0  0  0  0
  2  3  1  0  0  0  0
  2 25  1  0  0  0  0
  3  4  1  0  0  0  0
  3 26  1  0  0  0  0
  3 27  1  0  0  0  0
  4  5  1  0  0  0  0
  4 28  1  0  0  0  0
  4 29  1  0  0  0  0
  5  6  1  0  0  0  0
  5 30  1  0  0  0  0
  5 31  1  0  0  0  0
  6  7  1  0  0  0  0
  6 19  1  0  0  0  0
  6 32  1  0  0  0  0
  7  8  1  0  0  0  0
  7 33  1  0  0  0  0
  8  9  2  0  0  0  0
  8 10  1  0  0  0  0
 10 34  1  0  0  0  0
 10 35  1  0  0  0  0
 10 11  1  0  0  0  0
 11 12  1  0  0  0  0
 11 17  1  0  0  0  0
 12 13  2  0  0  0  0
 13 14  1  0  0  0  0
 13 15  1  0  0  0  0
 14 21  1  0  0  0  0
 15 36  1  0  0  0  0
 15 16  2  0  0  0  0
 16 37  1  0  0  0  0
 16 17  1  0  0  0  0
 17 18  2  0  0  0  0
 19 20  1  0  0  0  0
 19 38  1  0  0  0  0
 20 39  1  0  0  0  0
 20 40  1  0  0  0  0
 20 41  1  0  0  0  0
M  END
> <s_m_source_file>
AV-unprocessed.smi

> <i_m_source_file_index>
1464

> <i_lp_mmshare_version>
43012

> <i_f3d_flags>
0

> <s_epik_input>
W0NIM11bQ0BASF0xW0NIMl1bQ0gyXVtDSDJdW0NASF0oW0NASF0xW0NIM10pW05IXUMoPU8pW0NIMl1uMltuSF1jKD1PKVtjSF1bY0hdYzI9Tw==

> <s_epik_cmdline>
J2VwaWtfcHl0aG9uJywgJy1waCcsICc3LjAnLCAnLXRuJywgJzgnLCAnLW1hJywgJzIwMCcsICctbWV0YWxfYmluZGluZycsICctaW1hZScsICc8aW5maWxlLm1hZT4nLCAnLW9tYWUnLCAnPG91dGZpbGUubWFlPic=

> <r_lp_tautomer_probability>
0.9996

> <r_epik_Ionization_Penalty>
2.10335

> <r_epik_Ionization_Penalty_Charging>
3.98079e-08

> <r_epik_Ionization_Penalty_Neutral>
2.10335

> <r_epik_State_Penalty>
1.67957

> <r_epik_Charging_Adjusted_Penalty>
1.67957

> <i_epik_Tot_Q>
0

> <i_epik_Tot_abs_Q>
0

> <r_epik_Metal_State_Penalty>
1.67957

> <b_epik_Metal_Only>
0

> <s_lp_Force_Field>
OPLS_2005

> <r_lp_Energy>
24.139

> <b_lp_Chiralities_Consistent>
1

> <s_lp_Variant>
AV-unprocessed.smi:1464-14

> <Gold.Version>
5.8.1

> <Gold.Id.Protein>
6NUR|6NUR_protein|mol2

> <Gold.PLP.Fitness>
44.3858

> <Gold.PLP.PLP>
-44.8219

> <Gold.PLP.part.hbond>
-3.5144

> <Gold.PLP.part.metal>
0.0000

> <Gold.PLP.part.buried>
-6.6500

> <Gold.PLP.part.nonpolar>
-34.0943

> <Gold.PLP.part.repulsive>
0.0960

> <Gold.PLP.ligand.clash>
0.0000

> <Gold.PLP.ligand.torsion>
0.2218

> <Gold.PLP.Chemscore.Hbond>
0.0000

> <Gold.PLP.Chemscore.CHOScore>
0.0000

> <Gold.PLP.Chemscore.Metal>
0.0000

> <Gold.PLP.Chemscore.Internal.Correction>
0.0073

> <Gold.Rescore>
     Score         DG    S(hbond)    S(metal)    S(lipo)     H(rot)  DE(clash)    DE(int)     intcor
      8.62     -10.13       0.00        0.00      88.38       2.22       0.28       1.24       ----

> <Gold.Chemscore.Fitness>
8.6165

> <Gold.Chemscore.DG>
-10.1310

> <Gold.Chemscore.ZeroCoef>
-5.4800

> <Gold.Chemscore.Hbond>
0.0000

> <Gold.Chemscore.Metal>
0.0000

> <Gold.Chemscore.Lipo>
88.3794

> <Gold.Chemscore.Internal_Hbond>
0.0000

> <Gold.Chemscore.DEClash>
0.2757

> <Gold.Chemscore.DEInternal>
1.2389

> <Gold.Chemscore.Rot>
2.2224

> <Gold.Chemscore.Internal.Correction>
   9.000000E+99

> <Gold.Chemscore.Hbond.Weighted>
-0.0000

> <Gold.Chemscore.Metal.Weighted>
-0.0000

> <Gold.Chemscore.Lipo.Weighted>
-10.3404

> <Gold.Chemscore.Internal_Hbond.Weighted>
0.0000

> <Gold.Chemscore.DEClash.Weighted>
0.2757

> <Gold.Chemscore.DEInternal.Weighted>
1.2389

> <Gold.Chemscore.Rot.Weighted>
5.6893

> <Gold.Chemscore.Internal.Correction.Weighted>
   9.000000E+99

> <Gold.Protein.RotatedTorsions>
[ 6907 6896 6895 6894 ] final   33.72 input  -60.11 | X-H torsion
[ 7974 7965 7964 7962 ] final  -97.70 input  175.53 | X-H torsion
[ 8008 7997 7996 7995 ] final   28.72 input   59.86 | X-H torsion
[ 10167 10162 10161 10158 ] final  -81.40 input  -65.29 | X-H torsion
[ 10718 10713 10712 10709 ] final    6.48 input   66.30 | X-H torsion
[ 10763 10752 10751 10750 ] final    6.41 input  -60.55 | X-H torsion
[ 11005 11000 10999 10996 ] final   28.54 input  -57.11 | X-H torsion

> <Gold.Protein.ActiveResidues>
 VAL166  LYS551  ARG553  GLY616  TRP617  ASP618  TYR619  PRO620  LYS621  CYS622 
 ASP623  PHE694  ASN695  SER759  ASP760  ASP761  ALA762  ILE779  LEU786  VAL792 
 PHE793  MET794  SER795  GLU796  ALA797  LYS798  CYS799  TRP800  GLU811  SER814 

> <Gold.Protein.RotatedAtoms>
  152.0925  134.9397  160.0571 H   0  0  0  0  0  0  0  0  0  0  0  0  # atno 6907 bound_to 6896
  152.0643  133.4072  159.4440 H   0  0  0  0  0  0  0  0  0  0  0  0  # atno 6908 bound_to 6896
  150.6837  134.3084  159.4779 H   0  0  0  0  0  0  0  0  0  0  0  0  # atno 6909 bound_to 6896
  145.3303  140.9440  143.2665 H   0  0  0  0  0  0  0  0  0  0  0  0  # atno 7974 bound_to 7965
  155.0631  140.3192  155.4654 H   0  0  0  0  0  0  0  0  0  0  0  0  # atno 8008 bound_to 7997
  156.2808  140.2125  156.5702 H   0  0  0  0  0  0  0  0  0  0  0  0  # atno 8009 bound_to 7997
  154.7116  140.0497  157.0543 H   0  0  0  0  0  0  0  0  0  0  0  0  # atno 8010 bound_to 7997
  140.4416  143.2513  151.8618 H   0  0  0  0  0  0  0  0  0  0  0  0  # atno 10167 bound_to 10162
  156.9229  130.5797  149.5648 H   0  0  0  0  0  0  0  0  0  0  0  0  # atno 10718 bound_to 10713
  153.2480  135.6910  153.7710 H   0  0  0  0  0  0  0  0  0  0  0  0  # atno 10763 bound_to 10752
  153.6815  135.3327  155.3180 H   0  0  0  0  0  0  0  0  0  0  0  0  # atno 10764 bound_to 10752
  154.8383  135.4523  154.1427 H   0  0  0  0  0  0  0  0  0  0  0  0  # atno 10765 bound_to 10752
  140.3145  134.2612  155.7728 H   0  0  0  0  0  0  0  0  0  0  0  0  # atno 11005 bound_to 11000
  144.8869  139.4827  143.6696 LP  0  0  0  0  0  0  0  0  0  0  0  0  # atno 17320 bound_to 7965
  146.3048  139.7544  142.9064 LP  0  0  0  0  0  0  0  0  0  0  0  0  # atno 17321 bound_to 7965
  139.4790  144.5223  151.8784 LP  0  0  0  0  0  0  0  0  0  0  0  0  # atno 17342 bound_to 10162
  140.4312  144.2113  150.5888 LP  0  0  0  0  0  0  0  0  0  0  0  0  # atno 17343 bound_to 10162
  156.0483  130.5556  150.8931 LP  0  0  0  0  0  0  0  0  0  0  0  0  # atno 17370 bound_to 10713
  157.5896  131.0945  150.9140 LP  0  0  0  0  0  0  0  0  0  0  0  0  # atno 17371 bound_to 10713
  141.2101  133.7730  156.9956 LP  0  0  0  0  0  0  0  0  0  0  0  0  # atno 17394 bound_to 11000
  140.0995  134.9544  157.1902 LP  0  0  0  0  0  0  0  0  0  0  0  0  # atno 17395 bound_to 11000

$$$$
