AV-unprocessed.smi:1563|AV-procd|sdf|6290|dock4
  -GOLD-   22720 6493D 1   1.00000     0.00000
 Structure written by MMmdl.
 43 44  0  0  0  0  0  0  0  0  1 V2000
  148.3030  133.8874  154.2977 C   0  0  0  0  0  0  0  0  0  0  0  0
  149.0581  134.8995  155.1529 C   0  0  0  0  0  0  0  0  0  0  0  0
  149.4022  134.6038  156.2968 O   0  0  0  0  0  0  0  0  0  0  0  0
  149.3147  136.0870  154.5836 N   0  0  0  0  0  0  0  0  0  0  0  0
  150.0304  137.1869  155.2219 C   0  0  1  0  0  0  0  0  0  0  0  0
  151.3547  136.6892  155.8466 C   0  0  0  0  0  0  0  0  0  0  0  0
  152.2343  137.8533  156.3425 C   0  0  0  0  0  0  0  0  0  0  0  0
  152.3889  138.9321  155.2555 C   0  0  0  0  0  0  0  0  0  0  0  0
  151.0467  139.3812  154.8496 N   0  0  0  0  0  0  0  0  0  0  0  0
  150.4368  140.5313  155.2333 C   0  0  0  0  0  0  0  0  0  0  0  0
  149.4325  140.9797  154.6781 O   0  0  0  0  0  0  0  0  0  0  0  0
  151.0226  141.1624  156.2651 N   0  0  0  0  0  0  0  0  0  0  0  0
  150.5395  142.3930  156.8806 C   0  0  0  0  0  0  0  0  0  0  0  0
  151.6862  143.3896  157.1198 C   0  0  0  0  0  0  0  0  0  0  0  0
  151.7179  143.8979  158.5483 C   0  0  0  0  0  0  0  0  0  0  0  0
  151.3862  145.2378  158.8420 C   0  0  0  0  0  0  0  0  0  0  0  0
  151.4361  145.6625  160.1837 C   0  0  0  0  0  0  0  0  0  0  0  0
  151.8148  144.7365  161.1747 C   0  0  0  0  0  0  0  0  0  0  0  0
  152.1290  143.4213  160.7778 C   0  0  0  0  0  0  0  0  0  0  0  0
  152.0844  143.0035  159.4940 N   0  0  0  0  0  0  0  0  0  0  0  0
  150.3065  138.2988  154.1893 C   0  0  0  0  0  0  0  0  0  0  0  0
  147.5285  134.3773  153.7066 H   0  0  0  0  0  0  0  0  0  0  0  0
  147.8257  133.1339  154.9251 H   0  0  0  0  0  0  0  0  0  0  0  0
  148.9901  133.3825  153.6183 H   0  0  0  0  0  0  0  0  0  0  0  0
  148.9923  136.2395  153.6391 H   0  0  0  0  0  0  0  0  0  0  0  0
  149.4039  137.6083  156.0109 H   0  0  0  0  0  0  0  0  0  0  0  0
  151.1536  136.0002  156.6676 H   0  0  0  0  0  0  0  0  0  0  0  0
  151.9136  136.1229  155.1004 H   0  0  0  0  0  0  0  0  0  0  0  0
  151.7845  138.2962  157.2323 H   0  0  0  0  0  0  0  0  0  0  0  0
  153.2130  137.4790  156.6434 H   0  0  0  0  0  0  0  0  0  0  0  0
  153.0342  139.7335  155.6147 H   0  0  0  0  0  0  0  0  0  0  0  0
  152.9062  138.5151  154.3902 H   0  0  0  0  0  0  0  0  0  0  0  0
  151.8506  140.7461  156.6658 H   0  0  0  0  0  0  0  0  0  0  0  0
  149.7945  142.8331  156.2174 H   0  0  0  0  0  0  0  0  0  0  0  0
  150.0273  142.1669  157.8176 H   0  0  0  0  0  0  0  0  0  0  0  0
  152.6453  142.9237  156.8896 H   0  0  0  0  0  0  0  0  0  0  0  0
  151.5905  144.2401  156.4430 H   0  0  0  0  0  0  0  0  0  0  0  0
  151.1019  145.9255  158.0590 H   0  0  0  0  0  0  0  0  0  0  0  0
  151.1890  146.6801  160.4477 H   0  0  0  0  0  0  0  0  0  0  0  0
  151.8639  145.0270  162.2137 H   0  0  0  0  0  0  0  0  0  0  0  0
  152.4244  142.6857  161.5110 H   0  0  0  0  0  0  0  0  0  0  0  0
  150.8994  137.9095  153.3600 H   0  0  0  0  0  0  0  0  0  0  0  0
  149.3719  138.6446  153.7445 H   0  0  0  0  0  0  0  0  0  0  0  0
  1  2  1  0  0  0  0
  1 22  1  0  0  0  0
  1 23  1  0  0  0  0
  1 24  1  0  0  0  0
  2  3  2  0  0  0  0
  2  4  1  0  0  0  0
  4  5  1  0  0  0  0
  4 25  1  0  0  0  0
  5 21  1  0  0  0  0
  5  6  1  0  0  0  0
  5 26  1  0  0  0  0
  6  7  1  0  0  0  0
  6 27  1  0  0  0  0
  6 28  1  0  0  0  0
  7  8  1  0  0  0  0
  7 29  1  0  0  0  0
  7 30  1  0  0  0  0
  8  9  1  0  0  0  0
  8 31  1  0  0  0  0
  8 32  1  0  0  0  0
  9 10  1  0  0  0  0
  9 21  1  0  0  0  0
 10 11  2  0  0  0  0
 10 12  1  0  0  0  0
 12 13  1  0  0  0  0
 12 33  1  0  0  0  0
 13 14  1  0  0  0  0
 13 34  1  0  0  0  0
 13 35  1  0  0  0  0
 14 15  1  0  0  0  0
 14 36  1  0  0  0  0
 14 37  1  0  0  0  0
 15 20  1  0  0  0  0
 15 16  2  0  0  0  0
 16 17  1  0  0  0  0
 16 38  1  0  0  0  0
 17 18  2  0  0  0  0
 17 39  1  0  0  0  0
 18 19  1  0  0  0  0
 18 40  1  0  0  0  0
 19 20  2  0  0  0  0
 19 41  1  0  0  0  0
 21 42  1  0  0  0  0
 21 43  1  0  0  0  0
M  END
> <s_m_source_file>
AV-unprocessed.smi

> <i_m_source_file_index>
1563

> <i_lp_mmshare_version>
43012

> <i_f3d_flags>
0

> <s_epik_input>
W0NIM11DKD1PKVtOSF1bQ0BASF0xW0NIMl1bQ0gyXVtDSDJdTihbQ0gyXTEpQyg9TylbTkhdW0NIMl1bQ0gyXWMyW2NIXVtjSF1bY0hdW2NIXW4y

> <s_epik_cmdline>
J2VwaWtfcHl0aG9uJywgJy1waCcsICc3LjAnLCAnLXRuJywgJzgnLCAnLW1hJywgJzIwMCcsICctbWV0YWxfYmluZGluZycsICctaW1hZScsICc8aW5maWxlLm1hZT4nLCAnLW9tYWUnLCAnPG91dGZpbGUubWFlPic=

> <r_epik_Ionization_Penalty>
0.0442074

> <r_epik_Ionization_Penalty_Charging>
0

> <r_epik_Ionization_Penalty_Neutral>
0.0442074

> <r_epik_State_Penalty>
0.0374027

> <r_epik_Charging_Adjusted_Penalty>
0.0374027

> <i_epik_Tot_Q>
0

> <i_epik_Tot_abs_Q>
0

> <r_epik_Metal_State_Penalty>
0.0347963

> <b_epik_Metal_Only>
0

> <s_lp_Force_Field>
OPLS_2005

> <r_lp_Energy>
22.675

> <b_lp_Chiralities_Consistent>
1

> <s_lp_Variant>
AV-unprocessed.smi:1563-2

> <Gold.Version>
5.8.1

> <Gold.Id.Protein>
6NUR|6NUR_protein|mol2

> <Gold.PLP.Fitness>
44.3122

> <Gold.PLP.PLP>
-42.8949

> <Gold.PLP.part.hbond>
-1.0000

> <Gold.PLP.part.metal>
0.0000

> <Gold.PLP.part.buried>
-2.0539

> <Gold.PLP.part.nonpolar>
-40.2577

> <Gold.PLP.part.repulsive>
0.2799

> <Gold.PLP.ligand.clash>
0.0000

> <Gold.PLP.ligand.torsion>
0.8178

> <Gold.PLP.Chemscore.Hbond>
1.0000

> <Gold.PLP.Chemscore.CHOScore>
0.0000

> <Gold.PLP.Chemscore.Metal>
0.0000

> <Gold.Chemscore.Hbonds>
donor molecule, donor type, donor heavy atom, donor atom, acceptor molecule, acceptor atom, score
      L1  H     4    25       P1  7948  1.00

> <Gold.PLP.Chemscore.Internal.Correction>
0.0529

> <Gold.Rescore>
     Score         DG    S(hbond)    S(metal)    S(lipo)     H(rot)  DE(clash)    DE(int)     intcor
     15.34     -17.33       0.86        0.00     113.38       1.68       0.19       1.80       ----

> <Gold.Chemscore.Fitness>
15.3358

> <Gold.Chemscore.DG>
-17.3283

> <Gold.Chemscore.ZeroCoef>
-5.4800

> <Gold.Chemscore.Hbond>
0.8643

> <Gold.Chemscore.Metal>
0.0000

> <Gold.Chemscore.Lipo>
113.3826

> <Gold.Chemscore.Internal_Hbond>
0.0000

> <Gold.Chemscore.DEClash>
0.1921

> <Gold.Chemscore.DEInternal>
1.8004

> <Gold.Chemscore.Rot>
1.6813

> <Gold.Chemscore.Internal.Correction>
   9.000000E+99

> <Gold.Chemscore.Hbonds>
donor molecule, donor type, donor heavy atom, donor atom, acceptor molecule, acceptor atom, score
      L1  H     4    25       P1  7948  0.98

> <Gold.Chemscore.Hbond.Weighted>
-2.8868

> <Gold.Chemscore.Metal.Weighted>
-0.0000

> <Gold.Chemscore.Lipo.Weighted>
-13.2658

> <Gold.Chemscore.Internal_Hbond.Weighted>
0.0000

> <Gold.Chemscore.DEClash.Weighted>
0.1921

> <Gold.Chemscore.DEInternal.Weighted>
1.8004

> <Gold.Chemscore.Rot.Weighted>
4.3042

> <Gold.Chemscore.Internal.Correction.Weighted>
   9.000000E+99

> <Gold.Protein.RotatedTorsions>
[ 6907 6896 6895 6894 ] final  130.33 input  -60.11 | X-H torsion
[ 7974 7965 7964 7962 ] final  -90.64 input  175.53 | X-H torsion
[ 8008 7997 7996 7995 ] final -158.60 input   59.86 | X-H torsion
[ 10167 10162 10161 10158 ] final    6.14 input  -65.29 | X-H torsion
[ 10718 10713 10712 10709 ] final   52.95 input   66.30 | X-H torsion
[ 10763 10752 10751 10750 ] final   -2.22 input  -60.55 | X-H torsion
[ 11005 11000 10999 10996 ] final  -13.10 input  -57.11 | X-H torsion

> <Gold.Protein.ActiveResidues>
 VAL166  LYS551  ARG553  GLY616  TRP617  ASP618  TYR619  PRO620  LYS621  CYS622 
 ASP623  PHE694  ASN695  SER759  ASP760  ASP761  ALA762  ILE779  LEU786  VAL792 
 PHE793  MET794  SER795  GLU796  ALA797  LYS798  CYS799  TRP800  GLU811  SER814 

> <Gold.Protein.RotatedAtoms>
  152.3536  133.6210  159.5962 H   0  0  0  0  0  0  0  0  0  0  0  0  # atno 6907 bound_to 6896
  150.7554  133.9535  159.3502 H   0  0  0  0  0  0  0  0  0  0  0  0  # atno 6908 bound_to 6896
  151.7383  135.0861  160.0362 H   0  0  0  0  0  0  0  0  0  0  0  0  # atno 6909 bound_to 6896
  145.4238  140.9552  143.2166 H   0  0  0  0  0  0  0  0  0  0  0  0  # atno 7974 bound_to 7965
  155.7500  140.0825  157.2205 H   0  0  0  0  0  0  0  0  0  0  0  0  # atno 8008 bound_to 7997
  154.4013  140.1562  156.2769 H   0  0  0  0  0  0  0  0  0  0  0  0  # atno 8009 bound_to 7997
  155.8939  140.3413  155.5979 H   0  0  0  0  0  0  0  0  0  0  0  0  # atno 8010 bound_to 7997
  140.6444  143.7697  150.7476 H   0  0  0  0  0  0  0  0  0  0  0  0  # atno 10167 bound_to 10162
  157.5122  130.8509  149.8450 H   0  0  0  0  0  0  0  0  0  0  0  0  # atno 10718 bound_to 10713
  153.3552  135.6987  153.6756 H   0  0  0  0  0  0  0  0  0  0  0  0  # atno 10763 bound_to 10752
  153.5467  135.3562  155.2742 H   0  0  0  0  0  0  0  0  0  0  0  0  # atno 10764 bound_to 10752
  154.8659  135.4216  154.2797 H   0  0  0  0  0  0  0  0  0  0  0  0  # atno 10765 bound_to 10752
  140.7726  133.8426  155.9220 H   0  0  0  0  0  0  0  0  0  0  0  0  # atno 11005 bound_to 11000
  144.8228  139.5762  143.6979 LP  0  0  0  0  0  0  0  0  0  0  0  0  # atno 17320 bound_to 7965
  146.2643  139.6483  142.9340 LP  0  0  0  0  0  0  0  0  0  0  0  0  # atno 17321 bound_to 7965
  140.1335  143.4504  152.2239 LP  0  0  0  0  0  0  0  0  0  0  0  0  # atno 17342 bound_to 10162
  139.5654  144.7432  151.4037 LP  0  0  0  0  0  0  0  0  0  0  0  0  # atno 17343 bound_to 10162
  156.0297  130.3768  150.1723 LP  0  0  0  0  0  0  0  0  0  0  0  0  # atno 17370 bound_to 10713
  156.9912  130.9894  151.3414 LP  0  0  0  0  0  0  0  0  0  0  0  0  # atno 17371 bound_to 10713
  140.9559  134.1718  157.4692 LP  0  0  0  0  0  0  0  0  0  0  0  0  # atno 17394 bound_to 11000
  139.8753  134.9927  156.5608 LP  0  0  0  0  0  0  0  0  0  0  0  0  # atno 17395 bound_to 11000

$$$$
