AV-unprocessed.smi:2591|AV-procd|sdf|10158|dock2
  -GOLD-   2272014173D 1   1.00000     0.00000
 Structure written by MMmdl.
 34 35  0  0  0  0  0  0  0  0  1 V2000
  145.4198  141.6439  155.0843 C   0  0  0  0  0  0  0  0  0  0  0  0
  146.7144  141.3665  154.4809 N   0  0  0  0  0  0  0  0  0  0  0  0
  146.7981  139.9982  153.9891 C   0  0  0  0  0  0  0  0  0  0  0  0
  148.1692  139.7083  153.3558 C   0  0  0  0  0  0  0  0  0  0  0  0
  149.2000  139.9816  154.3004 O   0  0  0  0  0  0  0  0  0  0  0  0
  149.1844  141.3279  154.7782 C   0  0  2  0  0  0  0  0  0  0  0  0
  150.3491  141.5197  155.7604 C   0  0  0  0  0  0  0  0  0  0  0  0
  151.2343  140.6668  155.8433 O   0  0  0  0  0  0  0  0  0  0  0  0
  150.3047  142.6419  156.5040 N   0  0  0  0  0  0  0  0  0  0  0  0
  151.2232  143.0821  157.4934 C   0  0  0  0  0  0  0  0  0  0  0  0
  151.8542  142.0512  158.2248 C   0  0  0  0  0  0  0  0  0  0  0  0
  152.7935  142.3776  159.2270 C   0  0  0  0  0  0  0  0  0  0  0  0
  153.4855  141.2888  160.0325 C   0  0  0  0  0  0  0  0  0  0  0  0
  154.7968  141.2806  159.7908 F   0  0  0  0  0  0  0  0  0  0  0  0
  153.2894  141.5115  161.3313 F   0  0  0  0  0  0  0  0  0  0  0  0
  152.9961  140.0874  159.7234 F   0  0  0  0  0  0  0  0  0  0  0  0
  153.0602  143.7396  159.4739 C   0  0  0  0  0  0  0  0  0  0  0  0
  152.3856  144.7030  158.7029 C   0  0  0  0  0  0  0  0  0  0  0  0
  151.4953  144.3872  157.7401 N   0  0  0  0  0  0  0  0  0  0  0  0
  147.8053  141.6195  155.4135 C   0  0  0  0  0  0  0  0  0  0  0  0
  144.6157  141.4815  154.3659 H   0  0  0  0  0  0  0  0  0  0  0  0
  145.3637  142.6810  155.4165 H   0  0  0  0  0  0  0  0  0  0  0  0
  145.2409  141.0006  155.9470 H   0  0  0  0  0  0  0  0  0  0  0  0
  146.6240  139.2987  154.8083 H   0  0  0  0  0  0  0  0  0  0  0  0
  146.0129  139.8200  153.2536 H   0  0  0  0  0  0  0  0  0  0  0  0
  148.2329  138.6640  153.0503 H   0  0  0  0  0  0  0  0  0  0  0  0
  148.3171  140.3141  152.4606 H   0  0  0  0  0  0  0  0  0  0  0  0
  149.3490  142.0036  153.9368 H   0  0  0  0  0  0  0  0  0  0  0  0
  149.5178  143.2519  156.3371 H   0  0  0  0  0  0  0  0  0  0  0  0
  151.6205  141.0168  158.0176 H   0  0  0  0  0  0  0  0  0  0  0  0
  153.7625  144.0437  160.2362 H   0  0  0  0  0  0  0  0  0  0  0  0
  152.5640  145.7558  158.8641 H   0  0  0  0  0  0  0  0  0  0  0  0
  147.7655  142.6588  155.7429 H   0  0  0  0  0  0  0  0  0  0  0  0
  147.6759  141.0043  156.3059 H   0  0  0  0  0  0  0  0  0  0  0  0
  1  2  1  0  0  0  0
  1 21  1  0  0  0  0
  1 22  1  0  0  0  0
  1 23  1  0  0  0  0
  2 20  1  0  0  0  0
  2  3  1  0  0  0  0
  3  4  1  0  0  0  0
  3 24  1  0  0  0  0
  3 25  1  0  0  0  0
  4  5  1  0  0  0  0
  4 26  1  0  0  0  0
  4 27  1  0  0  0  0
  5  6  1  0  0  0  0
  6  7  1  0  0  0  0
  6 20  1  0  0  0  0
  6 28  1  0  0  0  0
  7  8  2  0  0  0  0
  7  9  1  0  0  0  0
  9 10  1  0  0  0  0
  9 29  1  0  0  0  0
 10 19  1  0  0  0  0
 10 11  2  0  0  0  0
 11 12  1  0  0  0  0
 11 30  1  0  0  0  0
 12 13  1  0  0  0  0
 12 17  2  0  0  0  0
 13 14  1  0  0  0  0
 13 15  1  0  0  0  0
 13 16  1  0  0  0  0
 17 18  1  0  0  0  0
 17 31  1  0  0  0  0
 18 19  2  0  0  0  0
 18 32  1  0  0  0  0
 20 33  1  0  0  0  0
 20 34  1  0  0  0  0
M  END
> <s_m_source_file>
AV-unprocessed.smi

> <i_m_source_file_index>
2591

> <i_lp_mmshare_version>
43012

> <i_f3d_flags>
0

> <s_epik_input>
W0NIM11OMVtDSDJdW0NIMl1PW0NASF0oW0NIMl0xKUMoPU8pW05IXWMyW2NIXWMoQyhGKShGKUYpW2NIXVtjSF1uMg==

> <s_epik_cmdline>
J2VwaWtfcHl0aG9uJywgJy1waCcsICc3LjAnLCAnLXRuJywgJzgnLCAnLW1hJywgJzIwMCcsICctbWV0YWxfYmluZGluZycsICctaW1hZScsICc8aW5maWxlLm1hZT4nLCAnLW9tYWUnLCAnPG91dGZpbGUubWFlPic=

> <r_epik_Ionization_Penalty>
0.526245

> <r_epik_Ionization_Penalty_Charging>
0

> <r_epik_Ionization_Penalty_Neutral>
0.526245

> <r_epik_State_Penalty>
0.534659

> <r_epik_Charging_Adjusted_Penalty>
0.534659

> <i_epik_Tot_Q>
0

> <i_epik_Tot_abs_Q>
0

> <r_epik_Metal_State_Penalty>
0.534657

> <b_epik_Metal_Only>
0

> <s_lp_Force_Field>
OPLS_2005

> <r_lp_Energy>
21.9247

> <b_lp_Chiralities_Consistent>
1

> <s_lp_Variant>
AV-unprocessed.smi:2591-6

> <Gold.Version>
5.8.1

> <Gold.Id.Protein>
6NUR|6NUR_protein|mol2

> <Gold.PLP.Fitness>
43.7107

> <Gold.PLP.PLP>
-41.7534

> <Gold.PLP.part.hbond>
-1.3983

> <Gold.PLP.part.metal>
0.0000

> <Gold.PLP.part.buried>
-2.9126

> <Gold.PLP.part.nonpolar>
-37.3929

> <Gold.PLP.part.repulsive>
0.5051

> <Gold.PLP.ligand.clash>
1.0316

> <Gold.PLP.ligand.torsion>
0.6115

> <Gold.PLP.Chemscore.Hbond>
1.0408

> <Gold.PLP.Chemscore.CHOScore>
0.0000

> <Gold.PLP.Chemscore.Metal>
0.0000

> <Gold.Chemscore.Hbonds>
donor molecule, donor type, donor heavy atom, donor atom, acceptor molecule, acceptor atom, score
      L1  H     9    29       P1  8028  0.99
      P1  H  7989  7998       L1     8  0.05

> <Gold.PLP.Chemscore.Internal.Correction>
1.0897

> <Gold.Rescore>
     Score         DG    S(hbond)    S(metal)    S(lipo)     H(rot)  DE(clash)    DE(int)     intcor
     13.67     -16.60       1.00        0.00      88.35       1.00       1.24       1.69       ----

> <Gold.Chemscore.Fitness>
13.6663

> <Gold.Chemscore.DG>
-16.5952

> <Gold.Chemscore.ZeroCoef>
-5.4800

> <Gold.Chemscore.Hbond>
0.9996

> <Gold.Chemscore.Metal>
0.0000

> <Gold.Chemscore.Lipo>
88.3458

> <Gold.Chemscore.Internal_Hbond>
0.0000

> <Gold.Chemscore.DEClash>
1.2378

> <Gold.Chemscore.DEInternal>
1.6911

> <Gold.Chemscore.Rot>
1.0000

> <Gold.Chemscore.Internal.Correction>
   9.000000E+99

> <Gold.Chemscore.Hbonds>
donor molecule, donor type, donor heavy atom, donor atom, acceptor molecule, acceptor atom, score
      L1  H     9    29       P1  8028  0.93

> <Gold.Chemscore.Hbond.Weighted>
-3.3388

> <Gold.Chemscore.Metal.Weighted>
-0.0000

> <Gold.Chemscore.Lipo.Weighted>
-10.3365

> <Gold.Chemscore.Internal_Hbond.Weighted>
0.0000

> <Gold.Chemscore.DEClash.Weighted>
1.2378

> <Gold.Chemscore.DEInternal.Weighted>
1.6911

> <Gold.Chemscore.Rot.Weighted>
2.5600

> <Gold.Chemscore.Internal.Correction.Weighted>
   9.000000E+99

> <Gold.Protein.RotatedTorsions>
[ 6907 6896 6895 6894 ] final  118.13 input  -60.11 | X-H torsion
[ 7974 7965 7964 7962 ] final  116.83 input  175.53 | X-H torsion
[ 8008 7997 7996 7995 ] final  -93.99 input   59.86 | X-H torsion
[ 10167 10162 10161 10158 ] final   68.52 input  -65.29 | X-H torsion
[ 10718 10713 10712 10709 ] final  -99.61 input   66.30 | X-H torsion
[ 10763 10752 10751 10750 ] final  163.87 input  -60.55 | X-H torsion
[ 11005 11000 10999 10996 ] final  133.85 input  -57.11 | X-H torsion

> <Gold.Protein.ActiveResidues>
 VAL166  LYS551  ARG553  GLY616  TRP617  ASP618  TYR619  PRO620  LYS621  CYS622 
 ASP623  PHE694  ASN695  SER759  ASP760  ASP761  ALA762  ILE779  LEU786  VAL792 
 PHE793  MET794  SER795  GLU796  ALA797  LYS798  CYS799  TRP800  GLU811  SER814 

> <Gold.Protein.RotatedAtoms>
  152.4564  133.7732  159.6810 H   0  0  0  0  0  0  0  0  0  0  0  0  # atno 6907 bound_to 6896
  150.8492  133.7803  159.3038 H   0  0  0  0  0  0  0  0  0  0  0  0  # atno 6908 bound_to 6896
  151.5404  135.1071  159.9976 H   0  0  0  0  0  0  0  0  0  0  0  0  # atno 6909 bound_to 6896
  145.1748  139.3081  143.4449 H   0  0  0  0  0  0  0  0  0  0  0  0  # atno 7974 bound_to 7965
  154.7427  140.0493  157.0825 H   0  0  0  0  0  0  0  0  0  0  0  0  # atno 8008 bound_to 7997
  155.0158  140.3141  155.4793 H   0  0  0  0  0  0  0  0  0  0  0  0  # atno 8009 bound_to 7997
  156.2868  140.2176  156.5274 H   0  0  0  0  0  0  0  0  0  0  0  0  # atno 8010 bound_to 7997
  140.0777  144.5098  150.7183 H   0  0  0  0  0  0  0  0  0  0  0  0  # atno 10167 bound_to 10162
  156.0139  130.5290  150.6696 H   0  0  0  0  0  0  0  0  0  0  0  0  # atno 10718 bound_to 10713
  154.3003  135.2759  155.2614 H   0  0  0  0  0  0  0  0  0  0  0  0  # atno 10763 bound_to 10752
  154.5054  135.5797  153.6567 H   0  0  0  0  0  0  0  0  0  0  0  0  # atno 10764 bound_to 10752
  152.9901  135.6168  154.3173 H   0  0  0  0  0  0  0  0  0  0  0  0  # atno 10765 bound_to 10752
  139.9877  134.9526  156.9783 H   0  0  0  0  0  0  0  0  0  0  0  0  # atno 11005 bound_to 11000
  146.3463  140.1907  142.8589 LP  0  0  0  0  0  0  0  0  0  0  0  0  # atno 17320 bound_to 7965
  145.0196  140.8782  143.5175 LP  0  0  0  0  0  0  0  0  0  0  0  0  # atno 17321 bound_to 7965
  140.7093  143.2492  151.4629 LP  0  0  0  0  0  0  0  0  0  0  0  0  # atno 17342 bound_to 10162
  139.5798  144.1736  152.1952 LP  0  0  0  0  0  0  0  0  0  0  0  0  # atno 17343 bound_to 10162
  157.4421  131.0862  151.0933 LP  0  0  0  0  0  0  0  0  0  0  0  0  # atno 17370 bound_to 10713
  157.1474  130.6169  149.5572 LP  0  0  0  0  0  0  0  0  0  0  0  0  # atno 17371 bound_to 10713
  140.4969  134.1137  155.7243 LP  0  0  0  0  0  0  0  0  0  0  0  0  # atno 17394 bound_to 11000
  141.1539  133.8918  157.2027 LP  0  0  0  0  0  0  0  0  0  0  0  0  # atno 17395 bound_to 11000

$$$$
