AV-unprocessed.smi:875|AV-procd|sdf|4018|dock4
  -GOLD-   22720 1503D 1   1.00000     0.00000
 Structure written by MMmdl.
 37 38  0  0  0  0  0  0  0  0  1 V2000
  147.3933  138.9924  151.9450 C   0  0  0  0  0  0  0  0  0  0  0  0
  148.5477  138.3722  152.5763 N   0  0  0  0  0  0  0  0  0  0  0  0
  149.2733  138.9417  153.5505 C   0  0  0  0  0  0  0  0  0  0  0  0
  149.0376  140.0635  153.9992 O   0  0  0  0  0  0  0  0  0  0  0  0
  150.4529  138.1326  154.0965 C   0  0  0  0  0  0  0  0  0  0  0  0
  151.2472  138.9342  155.0790 C   0  0  0  0  0  0  0  0  0  0  0  0
  152.4595  139.3890  154.7823 N   0  0  0  0  0  0  0  0  0  0  0  0
  152.8404  140.0772  155.9433 O   0  0  0  0  0  0  0  0  0  0  0  0
  151.8049  139.9499  156.8072 C   0  0  0  0  0  0  0  0  0  0  0  0
  151.9147  140.5792  158.1569 C   0  0  0  0  0  0  0  0  0  0  0  0
  152.3295  141.9247  157.9645 O   0  0  0  0  0  0  0  0  0  0  0  0
  151.6661  142.8710  158.7921 C   0  0  0  0  0  0  0  0  0  0  0  0
  151.6340  144.2661  158.1316 C   0  0  0  0  0  0  0  0  0  0  0  0
  151.0399  145.3213  159.0792 C   0  0  0  0  0  0  0  0  0  0  0  0
  151.7969  145.3636  160.4159 C   0  0  0  0  0  0  0  0  0  0  0  0
  151.8336  143.9765  161.0764 C   0  0  0  0  0  0  0  0  0  0  0  0
  152.4303  142.9250  160.1268 C   0  0  0  0  0  0  0  0  0  0  0  0
  150.7877  139.2387  156.3246 N   0  0  0  0  0  0  0  0  0  0  0  0
  146.9620  138.3129  151.2100 H   0  0  0  0  0  0  0  0  0  0  0  0
  147.6787  139.9127  151.4339 H   0  0  0  0  0  0  0  0  0  0  0  0
  146.6253  139.2271  152.6834 H   0  0  0  0  0  0  0  0  0  0  0  0
  148.8060  137.4474  152.2623 H   0  0  0  0  0  0  0  0  0  0  0  0
  150.0812  137.2252  154.5743 H   0  0  0  0  0  0  0  0  0  0  0  0
  151.0984  137.8165  153.2758 H   0  0  0  0  0  0  0  0  0  0  0  0
  150.9458  140.5203  158.6521 H   0  0  0  0  0  0  0  0  0  0  0  0
  152.6435  140.0304  158.7551 H   0  0  0  0  0  0  0  0  0  0  0  0
  150.6474  142.5340  158.9935 H   0  0  0  0  0  0  0  0  0  0  0  0
  152.6455  144.5601  157.8479 H   0  0  0  0  0  0  0  0  0  0  0  0
  151.0492  144.2457  157.2124 H   0  0  0  0  0  0  0  0  0  0  0  0
  151.0673  146.3032  158.6060 H   0  0  0  0  0  0  0  0  0  0  0  0
  149.9885  145.0960  159.2627 H   0  0  0  0  0  0  0  0  0  0  0  0
  152.8156  145.7161  160.2478 H   0  0  0  0  0  0  0  0  0  0  0  0
  151.3277  146.0834  161.0872 H   0  0  0  0  0  0  0  0  0  0  0  0
  152.4162  144.0193  161.9970 H   0  0  0  0  0  0  0  0  0  0  0  0
  150.8237  143.6801  161.3622 H   0  0  0  0  0  0  0  0  0  0  0  0
  152.4136  141.9449  160.6048 H   0  0  0  0  0  0  0  0  0  0  0  0
  153.4793  143.1590  159.9400 H   0  0  0  0  0  0  0  0  0  0  0  0
  1  2  1  0  0  0  0
  1 19  1  0  0  0  0
  1 20  1  0  0  0  0
  1 21  1  0  0  0  0
  2  3  1  0  0  0  0
  2 22  1  0  0  0  0
  3  4  2  0  0  0  0
  3  5  1  0  0  0  0
  5  6  1  0  0  0  0
  5 23  1  0  0  0  0
  5 24  1  0  0  0  0
  6 18  1  0  0  0  0
  6  7  2  0  0  0  0
  7  8  1  0  0  0  0
  8  9  1  0  0  0  0
  9 10  1  0  0  0  0
  9 18  2  0  0  0  0
 10 11  1  0  0  0  0
 10 25  1  0  0  0  0
 10 26  1  0  0  0  0
 11 12  1  0  0  0  0
 12 17  1  0  0  0  0
 12 13  1  0  0  0  0
 12 27  1  0  0  0  0
 13 14  1  0  0  0  0
 13 28  1  0  0  0  0
 13 29  1  0  0  0  0
 14 15  1  0  0  0  0
 14 30  1  0  0  0  0
 14 31  1  0  0  0  0
 15 16  1  0  0  0  0
 15 32  1  0  0  0  0
 15 33  1  0  0  0  0
 16 17  1  0  0  0  0
 16 34  1  0  0  0  0
 16 35  1  0  0  0  0
 17 36  1  0  0  0  0
 17 37  1  0  0  0  0
M  END
> <s_m_source_file>
AV-unprocessed.smi

> <i_m_source_file_index>
875

> <i_lp_mmshare_version>
43012

> <i_f3d_flags>
0

> <s_epik_input>
W0NIM11bTkhdQyg9TylbQ0gyXWMxbm9jKG4xKVtDSDJdT1tDSF0yW0NIMl1bQ0gyXVtDSDJdW0NIMl1bQ0gyXTI=

> <s_epik_cmdline>
J2VwaWtfcHl0aG9uJywgJy1waCcsICc3LjAnLCAnLXRuJywgJzgnLCAnLW1hJywgJzIwMCcsICctbWV0YWxfYmluZGluZycsICctaW1hZScsICc8aW5maWxlLm1hZT4nLCAnLW9tYWUnLCAnPG91dGZpbGUubWFlPic=

> <r_lp_tautomer_probability>
1

> <r_epik_Ionization_Penalty>
1.02915e-07

> <r_epik_Ionization_Penalty_Charging>
0

> <r_epik_Ionization_Penalty_Neutral>
1.02915e-07

> <r_epik_State_Penalty>
-0

> <r_epik_Charging_Adjusted_Penalty>
0

> <i_epik_Tot_Q>
0

> <i_epik_Tot_abs_Q>
0

> <r_epik_Metal_State_Penalty>
-0

> <b_epik_Metal_Only>
0

> <s_lp_Force_Field>
OPLS_2005

> <r_lp_Energy>
10.4582

> <b_lp_Chiralities_Consistent>
1

> <s_lp_Variant>
AV-unprocessed.smi:875-1

> <Gold.Version>
5.8.1

> <Gold.Id.Protein>
6NUR|6NUR_protein|mol2

> <Gold.PLP.Fitness>
44.7505

> <Gold.PLP.PLP>
-37.7115

> <Gold.PLP.part.hbond>
-4.0000

> <Gold.PLP.part.metal>
0.0000

> <Gold.PLP.part.buried>
0.1358

> <Gold.PLP.part.nonpolar>
-33.0942

> <Gold.PLP.part.repulsive>
0.2222

> <Gold.PLP.ligand.clash>
0.0000

> <Gold.PLP.ligand.torsion>
0.8492

> <Gold.PLP.Chemscore.Hbond>
2.9040

> <Gold.PLP.Chemscore.CHOScore>
0.0000

> <Gold.PLP.Chemscore.Metal>
0.0000

> <Gold.Chemscore.Hbonds>
donor molecule, donor type, donor heavy atom, donor atom, acceptor molecule, acceptor atom, score
      L1  H     2    22       P1  7948  0.31
      P1  H  7989  7998       L1     7  0.34
      P1  H  7997  8008       L1     8  1.00

> <Gold.PLP.Chemscore.Internal.Correction>
0.0254

> <Gold.Rescore>
     Score         DG    S(hbond)    S(metal)    S(lipo)     H(rot)  DE(clash)    DE(int)     intcor
     16.59     -19.17       2.60        0.00      90.37       2.18       1.13       1.45       ----

> <Gold.Chemscore.Fitness>
16.5913

> <Gold.Chemscore.DG>
-19.1695

> <Gold.Chemscore.ZeroCoef>
-5.4800

> <Gold.Chemscore.Hbond>
2.6009

> <Gold.Chemscore.Metal>
0.0000

> <Gold.Chemscore.Lipo>
90.3735

> <Gold.Chemscore.Internal_Hbond>
0.0000

> <Gold.Chemscore.DEClash>
1.1320

> <Gold.Chemscore.DEInternal>
1.4463

> <Gold.Chemscore.Rot>
2.1763

> <Gold.Chemscore.Internal.Correction>
   9.000000E+99

> <Gold.Chemscore.Hbonds>
donor molecule, donor type, donor heavy atom, donor atom, acceptor molecule, acceptor atom, score
      L1  H     2    22       P1  7948  0.31
      P1  H  7989  7998       L1     7  0.01
      P1  H  7997  8008       L1     8  0.76

> <Gold.Chemscore.Hbond.Weighted>
-8.6870

> <Gold.Chemscore.Metal.Weighted>
-0.0000

> <Gold.Chemscore.Lipo.Weighted>
-10.5737

> <Gold.Chemscore.Internal_Hbond.Weighted>
0.0000

> <Gold.Chemscore.DEClash.Weighted>
1.1320

> <Gold.Chemscore.DEInternal.Weighted>
1.4463

> <Gold.Chemscore.Rot.Weighted>
5.5712

> <Gold.Chemscore.Internal.Correction.Weighted>
   9.000000E+99

> <Gold.Protein.RotatedTorsions>
[ 6907 6896 6895 6894 ] final   33.57 input  -60.11 | X-H torsion
[ 7974 7965 7964 7962 ] final   87.15 input  175.53 | X-H torsion
[ 8008 7997 7996 7995 ] final  -27.64 input   59.86 | X-H torsion
[ 10167 10162 10161 10158 ] final   14.98 input  -65.29 | X-H torsion
[ 10718 10713 10712 10709 ] final  156.82 input   66.30 | X-H torsion
[ 10763 10752 10751 10750 ] final -121.07 input  -60.55 | X-H torsion
[ 11005 11000 10999 10996 ] final   76.78 input  -57.11 | X-H torsion

> <Gold.Protein.ActiveResidues>
 VAL166  LYS551  ARG553  GLY616  TRP617  ASP618  TYR619  PRO620  LYS621  CYS622 
 ASP623  PHE694  ASN695  SER759  ASP760  ASP761  ALA762  ILE779  LEU786  VAL792 
 PHE793  MET794  SER795  GLU796  ALA797  LYS798  CYS799  TRP800  GLU811  SER814 

> <Gold.Protein.RotatedAtoms>
  152.0903  134.9412  160.0571 H   0  0  0  0  0  0  0  0  0  0  0  0  # atno 6907 bound_to 6896
  152.0666  133.4082  159.4449 H   0  0  0  0  0  0  0  0  0  0  0  0  # atno 6908 bound_to 6896
  150.6837  134.3060  159.4769 H   0  0  0  0  0  0  0  0  0  0  0  0  # atno 6909 bound_to 6896
  145.5628  139.2305  143.2450 H   0  0  0  0  0  0  0  0  0  0  0  0  # atno 7974 bound_to 7965
  154.4368  140.1867  156.0964 H   0  0  0  0  0  0  0  0  0  0  0  0  # atno 8008 bound_to 7997
  156.0326  140.3329  155.7130 H   0  0  0  0  0  0  0  0  0  0  0  0  # atno 8009 bound_to 7997
  155.5817  140.0622  157.2772 H   0  0  0  0  0  0  0  0  0  0  0  0  # atno 8010 bound_to 7997
  140.5899  143.8816  150.6864 H   0  0  0  0  0  0  0  0  0  0  0  0  # atno 10167 bound_to 10162
  157.1998  131.0674  151.2031 H   0  0  0  0  0  0  0  0  0  0  0  0  # atno 10718 bound_to 10713
  154.8659  135.4181  154.2560 H   0  0  0  0  0  0  0  0  0  0  0  0  # atno 10763 bound_to 10752
  153.3498  135.6998  153.6804 H   0  0  0  0  0  0  0  0  0  0  0  0  # atno 10764 bound_to 10752
  153.5748  135.3584  155.2825 H   0  0  0  0  0  0  0  0  0  0  0  0  # atno 10765 bound_to 10752
  139.9283  134.7629  156.1439 H   0  0  0  0  0  0  0  0  0  0  0  0  # atno 11005 bound_to 11000
  146.1839  140.6453  142.9176 LP  0  0  0  0  0  0  0  0  0  0  0  0  # atno 17320 bound_to 7965
  144.7475  140.5105  143.6825 LP  0  0  0  0  0  0  0  0  0  0  0  0  # atno 17321 bound_to 7965
  140.2336  143.3717  152.1545 LP  0  0  0  0  0  0  0  0  0  0  0  0  # atno 17342 bound_to 10162
  139.5221  144.7054  151.5369 LP  0  0  0  0  0  0  0  0  0  0  0  0  # atno 17343 bound_to 10162
  157.3778  130.7215  149.6609 LP  0  0  0  0  0  0  0  0  0  0  0  0  # atno 17370 bound_to 10713
  155.9702  130.4181  150.4310 LP  0  0  0  0  0  0  0  0  0  0  0  0  # atno 17371 bound_to 10713
  141.0855  133.6736  156.2428 LP  0  0  0  0  0  0  0  0  0  0  0  0  # atno 17394 bound_to 11000
  140.6274  134.5299  157.5555 LP  0  0  0  0  0  0  0  0  0  0  0  0  # atno 17395 bound_to 11000

$$$$
