AV-unprocessed.smi:1867|AV-procd|sdf|7561|dock5
  -GOLD-   22720 9273D 1   1.00000     0.00000
 Structure written by MMmdl.
 52 55  0  0  0  0  0  0  0  0  2 V2000
  147.5577  140.0487  154.9793 O   0  0  0  0  0  0  0  0  0  0  0  0
  148.3735  139.3080  154.4361 C   0  0  0  0  0  0  0  0  0  0  0  0
  149.6654  139.1901  154.7998 N   0  0  0  0  0  0  0  0  0  0  0  0
  150.3750  139.9084  155.7987 C   0  0  0  0  0  0  0  0  0  0  0  0
  149.6638  140.8508  156.5660 C   0  0  0  0  0  0  0  0  0  0  0  0
  150.3349  141.5648  157.5762 C   0  0  0  0  0  0  0  0  0  0  0  0
  151.7091  141.3120  157.7986 C   0  0  0  0  0  0  0  0  0  0  0  0
  152.4201  142.0039  158.7993 N   0  0  0  0  0  0  0  0  0  0  0  0
  153.4705  141.3559  159.5733 C   0  0  0  0  0  0  0  0  0  0  0  0
  153.5186  142.0990  160.9136 C   0  0  0  0  0  0  0  0  0  0  0  0
  152.8448  143.4403  160.6239 C   0  0  0  0  0  0  0  0  0  0  0  0
  151.8096  143.0841  159.5589 C   0  0  0  0  0  0  0  0  0  0  0  0
  152.3883  140.3893  157.0765 N   0  0  0  0  0  0  0  0  0  0  0  0
  151.7414  139.7090  156.1072 C   0  0  0  0  0  0  0  0  0  0  0  0
  148.0149  138.5217  153.4045 N   0  0  0  0  0  0  0  0  0  0  0  0
  146.7043  138.3977  152.7587 C   0  0  1  0  0  0  0  0  0  0  0  0
  146.7390  138.7866  151.2679 C   0  0  0  0  0  0  0  0  0  0  0  0
  145.8417  137.7562  150.5759 C   0  0  0  0  0  0  0  0  0  0  0  0
  146.0600  136.5453  151.3744 N   0  3  2  0  0  0  0  0  0  0  0  0
  145.1727  135.3851  151.1553 C   0  0  0  0  0  0  0  0  0  0  0  0
  145.7229  134.1916  151.9653 C   0  0  0  0  0  0  0  0  0  0  0  0
  145.9545  134.5496  153.4510 C   0  0  0  0  0  0  0  0  0  0  0  0
  146.7799  135.8452  153.6088 C   0  0  0  0  0  0  0  0  0  0  0  0
  146.1164  136.9648  152.7857 C   0  0  1  0  0  0  0  0  0  0  0  0
  150.1952  138.4726  154.3275 H   0  0  0  0  0  0  0  0  0  0  0  0
  148.6138  141.0292  156.3842 H   0  0  0  0  0  0  0  0  0  0  0  0
  149.7895  142.2854  158.1671 H   0  0  0  0  0  0  0  0  0  0  0  0
  153.2740  140.2942  159.7258 H   0  0  0  0  0  0  0  0  0  0  0  0
  154.4160  141.4577  159.0400 H   0  0  0  0  0  0  0  0  0  0  0  0
  152.9348  141.5513  161.6544 H   0  0  0  0  0  0  0  0  0  0  0  0
  154.5322  142.2069  161.3005 H   0  0  0  0  0  0  0  0  0  0  0  0
  152.4027  143.8980  161.5092 H   0  0  0  0  0  0  0  0  0  0  0  0
  153.5753  144.1374  160.2112 H   0  0  0  0  0  0  0  0  0  0  0  0
  151.5719  143.9390  158.9249 H   0  0  0  0  0  0  0  0  0  0  0  0
  150.8878  142.7290  160.0218 H   0  0  0  0  0  0  0  0  0  0  0  0
  152.3444  138.9772  155.5931 H   0  0  0  0  0  0  0  0  0  0  0  0
  148.7477  137.9459  153.0155 H   0  0  0  0  0  0  0  0  0  0  0  0
  145.9963  139.0697  153.2471 H   0  0  0  0  0  0  0  0  0  0  0  0
  146.4089  139.8111  151.0921 H   0  0  0  0  0  0  0  0  0  0  0  0
  147.7539  138.6972  150.8764 H   0  0  0  0  0  0  0  0  0  0  0  0
  144.7940  138.0556  150.6359 H   0  0  0  0  0  0  0  0  0  0  0  0
  146.1014  137.6073  149.5274 H   0  0  0  0  0  0  0  0  0  0  0  0
  144.1535  135.6272  151.4602 H   0  0  0  0  0  0  0  0  0  0  0  0
  145.1443  135.1374  150.0937 H   0  0  0  0  0  0  0  0  0  0  0  0
  145.0441  133.3418  151.8865 H   0  0  0  0  0  0  0  0  0  0  0  0
  146.6681  133.8688  151.5269 H   0  0  0  0  0  0  0  0  0  0  0  0
  144.9891  134.6773  153.9426 H   0  0  0  0  0  0  0  0  0  0  0  0
  146.4511  133.7242  153.9621 H   0  0  0  0  0  0  0  0  0  0  0  0
  146.8304  136.1181  154.6629 H   0  0  0  0  0  0  0  0  0  0  0  0
  147.8044  135.6804  153.2723 H   0  0  0  0  0  0  0  0  0  0  0  0
  145.0869  137.0671  153.1366 H   0  0  0  0  0  0  0  0  0  0  0  0
  146.9932  136.2374  151.1404 H   0  0  0  0  0  0  0  0  0  0  0  0
  1  2  2  0  0  0  0
  2  3  1  0  0  0  0
  2 15  1  0  0  0  0
  3  4  1  0  0  0  0
  3 25  1  0  0  0  0
  4 14  1  0  0  0  0
  4  5  2  0  0  0  0
  5  6  1  0  0  0  0
  5 26  1  0  0  0  0
  6  7  2  0  0  0  0
  6 27  1  0  0  0  0
  7  8  1  0  0  0  0
  7 13  1  0  0  0  0
  8 12  1  0  0  0  0
  8  9  1  0  0  0  0
  9 10  1  0  0  0  0
  9 28  1  0  0  0  0
  9 29  1  0  0  0  0
 10 11  1  0  0  0  0
 10 30  1  0  0  0  0
 10 31  1  0  0  0  0
 11 12  1  0  0  0  0
 11 32  1  0  0  0  0
 11 33  1  0  0  0  0
 12 34  1  0  0  0  0
 12 35  1  0  0  0  0
 13 14  2  0  0  0  0
 14 36  1  0  0  0  0
 15 16  1  0  0  0  0
 15 37  1  0  0  0  0
 16 24  1  0  0  0  0
 16 17  1  0  0  0  0
 16 38  1  0  0  0  0
 17 18  1  0  0  0  0
 17 39  1  0  0  0  0
 17 40  1  0  0  0  0
 18 19  1  0  0  0  0
 18 41  1  0  0  0  0
 18 42  1  0  0  0  0
 19 24  1  0  0  0  0
 19 20  1  0  0  0  0
 19 52  1  0  0  0  0
 20 21  1  0  0  0  0
 20 43  1  0  0  0  0
 20 44  1  0  0  0  0
 21 22  1  0  0  0  0
 21 45  1  0  0  0  0
 21 46  1  0  0  0  0
 22 23  1  0  0  0  0
 22 47  1  0  0  0  0
 22 48  1  0  0  0  0
 23 24  1  0  0  0  0
 23 49  1  0  0  0  0
 23 50  1  0  0  0  0
 24 51  1  0  0  0  0
M  CHG  1  19   1
M  END
> <s_m_source_file>
AV-unprocessed.smi

> <i_m_source_file_index>
1867

> <i_lp_mmshare_version>
43012

> <i_f3d_flags>
0

> <s_epik_input>
W0NIMl0xW0NIMl1bQ0gyXVtDSDJdW0NASF0oTjEyKVtDQEBIXShbQ0gyXVtDSDJdMilbTkhdQyg9TylbTkhdYzNbY0hdW2NIXWMobltjSF0zKU40W0NIMl1bQ0gyXVtDSDJdW0NIMl00

> <s_epik_cmdline>
J2VwaWtfcHl0aG9uJywgJy1waCcsICc3LjAnLCAnLXRuJywgJzgnLCAnLW1hJywgJzIwMCcsICctbWV0YWxfYmluZGluZycsICctaW1hZScsICc8aW5maWxlLm1hZT4nLCAnLW9tYWUnLCAnPG91dGZpbGUubWFlPic=

> <r_lp_tautomer_probability>
1

> <r_epik_Ionization_Penalty>
0.0751123

> <r_epik_Ionization_Penalty_Charging>
0.000974069

> <r_epik_Ionization_Penalty_Neutral>
0.0741382

> <r_epik_State_Penalty>
0.0647261

> <r_epik_Charging_Adjusted_Penalty>
0.0657002

> <i_epik_Tot_Q>
1

> <i_epik_Tot_abs_Q>
1

> <r_epik_Metal_State_Penalty>
0.0580571

> <b_epik_Metal_Only>
0

> <s_lp_Force_Field>
OPLS_2005

> <r_lp_Energy>
77.0679

> <b_lp_Chiralities_Consistent>
1

> <s_lp_Variant>
AV-unprocessed.smi:1867-2

> <Gold.Version>
5.8.1

> <Gold.Id.Protein>
6NUR|6NUR_protein|mol2

> <Gold.PLP.Fitness>
47.5357

> <Gold.PLP.PLP>
-37.3332

> <Gold.PLP.part.hbond>
-3.6228

> <Gold.PLP.part.metal>
0.0000

> <Gold.PLP.part.buried>
8.7354

> <Gold.PLP.part.nonpolar>
-42.2434

> <Gold.PLP.part.repulsive>
0.2230

> <Gold.PLP.ligand.clash>
0.0000

> <Gold.PLP.ligand.torsion>
0.2577

> <Gold.PLP.Chemscore.Hbond>
3.5049

> <Gold.PLP.Chemscore.CHOScore>
0.0000

> <Gold.PLP.Chemscore.Metal>
0.0000

> <Gold.Chemscore.Hbonds>
donor molecule, donor type, donor heavy atom, donor atom, acceptor molecule, acceptor atom, score
      L1  H    15    37       P1  7948  0.75
      L1  H    19    52       P1  7948  1.72
      P1  H  7997  8009       L1    13  0.92

> <Gold.PLP.Chemscore.Internal.Correction>
0.2033

> <Gold.Rescore>
     Score         DG    S(hbond)    S(metal)    S(lipo)     H(rot)  DE(clash)    DE(int)     intcor
     18.79     -23.16       2.08        0.00     113.72       1.00       2.70       1.68       ----

> <Gold.Chemscore.Fitness>
18.7895

> <Gold.Chemscore.DG>
-23.1629

> <Gold.Chemscore.ZeroCoef>
-5.4800

> <Gold.Chemscore.Hbond>
2.0771

> <Gold.Chemscore.Metal>
0.0000

> <Gold.Chemscore.Lipo>
113.7214

> <Gold.Chemscore.Internal_Hbond>
0.0000

> <Gold.Chemscore.DEClash>
2.6965

> <Gold.Chemscore.DEInternal>
1.6769

> <Gold.Chemscore.Rot>
1.0000

> <Gold.Chemscore.Internal.Correction>
   9.000000E+99

> <Gold.Chemscore.Hbonds>
donor molecule, donor type, donor heavy atom, donor atom, acceptor molecule, acceptor atom, score
      L1  H    15    37       P1  7948  0.72
      L1  H    19    52       P1  7948  0.79
      P1  H  7997  8009       L1    13  0.33

> <Gold.Chemscore.Hbond.Weighted>
-6.9375

> <Gold.Chemscore.Metal.Weighted>
-0.0000

> <Gold.Chemscore.Lipo.Weighted>
-13.3054

> <Gold.Chemscore.Internal_Hbond.Weighted>
0.0000

> <Gold.Chemscore.DEClash.Weighted>
2.6965

> <Gold.Chemscore.DEInternal.Weighted>
1.6769

> <Gold.Chemscore.Rot.Weighted>
2.5600

> <Gold.Chemscore.Internal.Correction.Weighted>
   9.000000E+99

> <Gold.Protein.RotatedTorsions>
[ 6907 6896 6895 6894 ] final   23.45 input  -60.11 | X-H torsion
[ 7974 7965 7964 7962 ] final  -32.01 input  175.53 | X-H torsion
[ 8008 7997 7996 7995 ] final -177.47 input   59.86 | X-H torsion
[ 10167 10162 10161 10158 ] final  -27.17 input  -65.29 | X-H torsion
[ 10718 10713 10712 10709 ] final   74.85 input   66.30 | X-H torsion
[ 10763 10752 10751 10750 ] final -176.90 input  -60.55 | X-H torsion
[ 11005 11000 10999 10996 ] final  -31.62 input  -57.11 | X-H torsion

> <Gold.Protein.ActiveResidues>
 VAL166  LYS551  ARG553  GLY616  TRP617  ASP618  TYR619  PRO620  LYS621  CYS622 
 ASP623  PHE694  ASN695  SER759  ASP760  ASP761  ALA762  ILE779  LEU786  VAL792 
 PHE793  MET794  SER795  GLU796  ALA797  LYS798  CYS799  TRP800  GLU811  SER814 

> <Gold.Protein.RotatedAtoms>
  151.9426  135.0206  160.0536 H   0  0  0  0  0  0  0  0  0  0  0  0  # atno 6907 bound_to 6896
  152.2023  133.4845  159.5073 H   0  0  0  0  0  0  0  0  0  0  0  0  # atno 6908 bound_to 6896
  150.6957  134.1491  159.4176 H   0  0  0  0  0  0  0  0  0  0  0  0  # atno 6909 bound_to 6896
  146.1023  140.5739  142.8815 H   0  0  0  0  0  0  0  0  0  0  0  0  # atno 7974 bound_to 7965
  156.0074  140.1233  157.0488 H   0  0  0  0  0  0  0  0  0  0  0  0  # atno 8008 bound_to 7997
  154.4263  140.1094  156.5850 H   0  0  0  0  0  0  0  0  0  0  0  0  # atno 8009 bound_to 7997
  155.6128  140.3471  155.4630 H   0  0  0  0  0  0  0  0  0  0  0  0  # atno 8010 bound_to 7997
  140.7279  143.4116  151.1096 H   0  0  0  0  0  0  0  0  0  0  0  0  # atno 10167 bound_to 10162
  157.6609  130.9698  150.1269 H   0  0  0  0  0  0  0  0  0  0  0  0  # atno 10718 bound_to 10713
  154.5667  135.2824  155.0867 H   0  0  0  0  0  0  0  0  0  0  0  0  # atno 10763 bound_to 10752
  154.2255  135.6383  153.5162 H   0  0  0  0  0  0  0  0  0  0  0  0  # atno 10764 bound_to 10752
  153.0045  135.5524  154.6278 H   0  0  0  0  0  0  0  0  0  0  0  0  # atno 10765 bound_to 10752
  140.9483  133.7236  156.1181 H   0  0  0  0  0  0  0  0  0  0  0  0  # atno 11005 bound_to 11000
  144.7442  140.5025  143.6847 LP  0  0  0  0  0  0  0  0  0  0  0  0  # atno 17320 bound_to 7965
  145.5830  139.1490  143.3225 LP  0  0  0  0  0  0  0  0  0  0  0  0  # atno 17321 bound_to 7965
  139.7750  143.8438  152.3127 LP  0  0  0  0  0  0  0  0  0  0  0  0  # atno 17342 bound_to 10162
  139.8370  144.7227  150.9379 LP  0  0  0  0  0  0  0  0  0  0  0  0  # atno 17343 bound_to 10162
  156.2126  130.3668  149.8652 LP  0  0  0  0  0  0  0  0  0  0  0  0  # atno 17370 bound_to 10713
  156.6526  130.8750  151.3534 LP  0  0  0  0  0  0  0  0  0  0  0  0  # atno 17371 bound_to 10713
  140.7638  134.3909  157.5521 LP  0  0  0  0  0  0  0  0  0  0  0  0  # atno 17394 bound_to 11000
  139.8840  134.8978  156.2731 LP  0  0  0  0  0  0  0  0  0  0  0  0  # atno 17395 bound_to 11000

$$$$
