AV-unprocessed.smi:2025|AV-procd|sdf|8199|dock3
  -GOLD-   2272010453D 1   1.00000     0.00000
 Structure written by MMmdl.
 39 40  0  0  0  0  0  0  0  0  1 V2000
  145.0650  136.4609  151.8073 C   0  0  0  0  0  0  0  0  0  0  0  0
  145.0127  134.9848  152.2272 C   0  0  2  0  0  0  0  0  0  0  0  0
  146.3753  134.4567  152.2529 N   0  0  0  0  0  0  0  0  0  0  0  0
  146.7533  133.2761  152.7669 C   0  0  0  0  0  0  0  0  0  0  0  0
  145.9771  132.4952  153.3185 O   0  0  0  0  0  0  0  0  0  0  0  0
  148.2433  132.9337  152.6459 C   0  0  0  0  0  0  0  0  0  0  0  0
  148.9046  132.8399  153.9535 N   0  0  0  0  0  0  0  0  0  0  0  0
  149.1960  133.9934  154.6589 C   0  0  0  0  0  0  0  0  0  0  0  0
  149.7841  133.9939  155.8749 C   0  0  0  0  0  0  0  0  0  0  0  0
  150.1577  132.7439  156.5247 C   0  0  0  0  0  0  0  0  0  0  0  0
  150.6793  132.6910  157.6393 O   0  0  0  0  0  0  0  0  0  0  0  0
  149.8632  131.5805  155.7767 N   0  0  0  0  0  0  0  0  0  0  0  0
  150.2007  130.3080  156.3803 C   0  0  0  0  0  0  0  0  0  0  0  0
  149.2294  131.5844  154.5126 C   0  0  0  0  0  0  0  0  0  0  0  0
  148.9559  130.5438  153.9091 O   0  0  0  0  0  0  0  0  0  0  0  0
  144.1258  134.1500  151.2784 C   0  0  1  0  0  0  0  0  0  0  0  0
  144.6004  134.0889  149.8256 C   0  0  0  0  0  0  0  0  0  0  0  0
  143.8937  132.8494  149.3266 C   0  0  0  0  0  0  0  0  0  0  0  0
  143.9360  131.9348  150.5494 C   0  0  0  0  0  0  0  0  0  0  0  0
  144.1065  132.7844  151.6824 O   0  0  0  0  0  0  0  0  0  0  0  0
  144.0703  136.9071  151.8101 H   0  0  0  0  0  0  0  0  0  0  0  0
  145.4772  136.5751  150.8041 H   0  0  0  0  0  0  0  0  0  0  0  0
  145.6848  137.0420  152.4910 H   0  0  0  0  0  0  0  0  0  0  0  0
  144.5833  134.9440  153.2298 H   0  0  0  0  0  0  0  0  0  0  0  0
  147.0878  135.0300  151.8251 H   0  0  0  0  0  0  0  0  0  0  0  0
  148.3733  132.0007  152.0938 H   0  0  0  0  0  0  0  0  0  0  0  0
  148.7206  133.7038  152.0389 H   0  0  0  0  0  0  0  0  0  0  0  0
  148.9343  134.9454  154.2205 H   0  0  0  0  0  0  0  0  0  0  0  0
  149.9780  134.9314  156.3751 H   0  0  0  0  0  0  0  0  0  0  0  0
  150.2531  129.5256  155.6230 H   0  0  0  0  0  0  0  0  0  0  0  0
  149.4262  130.0918  157.1175 H   0  0  0  0  0  0  0  0  0  0  0  0
  151.1834  130.3961  156.8466 H   0  0  0  0  0  0  0  0  0  0  0  0
  143.0993  134.5208  151.3009 H   0  0  0  0  0  0  0  0  0  0  0  0
  144.3470  134.9822  149.2538 H   0  0  0  0  0  0  0  0  0  0  0  0
  145.6810  133.9460  149.7797 H   0  0  0  0  0  0  0  0  0  0  0  0
  142.8601  133.0888  149.0736 H   0  0  0  0  0  0  0  0  0  0  0  0
  144.3668  132.4099  148.4481 H   0  0  0  0  0  0  0  0  0  0  0  0
  143.0289  131.3367  150.6399 H   0  0  0  0  0  0  0  0  0  0  0  0
  144.7861  131.2539  150.4958 H   0  0  0  0  0  0  0  0  0  0  0  0
  1  2  1  0  0  0  0
  1 21  1  0  0  0  0
  1 22  1  0  0  0  0
  1 23  1  0  0  0  0
  2  3  1  0  0  0  0
  2 16  1  0  0  0  0
  2 24  1  0  0  0  0
  3  4  1  0  0  0  0
  3 25  1  0  0  0  0
  4  5  2  0  0  0  0
  4  6  1  0  0  0  0
  6  7  1  0  0  0  0
  6 26  1  0  0  0  0
  6 27  1  0  0  0  0
  7 14  1  0  0  0  0
  7  8  1  0  0  0  0
  8  9  2  0  0  0  0
  8 28  1  0  0  0  0
  9 10  1  0  0  0  0
  9 29  1  0  0  0  0
 10 11  2  0  0  0  0
 10 12  1  0  0  0  0
 12 13  1  0  0  0  0
 12 14  1  0  0  0  0
 13 30  1  0  0  0  0
 13 31  1  0  0  0  0
 13 32  1  0  0  0  0
 14 15  2  0  0  0  0
 16 20  1  0  0  0  0
 16 17  1  0  0  0  0
 16 33  1  0  0  0  0
 17 18  1  0  0  0  0
 17 34  1  0  0  0  0
 17 35  1  0  0  0  0
 18 19  1  0  0  0  0
 18 36  1  0  0  0  0
 18 37  1  0  0  0  0
 19 20  1  0  0  0  0
 19 38  1  0  0  0  0
 19 39  1  0  0  0  0
M  END
> <s_m_source_file>
AV-unprocessed.smi

> <i_m_source_file_index>
2025

> <i_lp_mmshare_version>
43012

> <i_f3d_flags>
0

> <s_epik_input>
TzFbQ0gyXVtDSDJdW0NIMl1bQ0BIXTFbQ0BIXShbQ0gzXSlbTkhdQyg9TylbQ0gyXW4yW2NIXVtjSF1jKD1PKW4oW0NIM10pYzI9Tw==

> <s_epik_cmdline>
J2VwaWtfcHl0aG9uJywgJy1waCcsICc3LjAnLCAnLXRuJywgJzgnLCAnLW1hJywgJzIwMCcsICctbWV0YWxfYmluZGluZycsICctaW1hZScsICc8aW5maWxlLm1hZT4nLCAnLW9tYWUnLCAnPG91dGZpbGUubWFlPic=

> <r_lp_tautomer_probability>
1

> <r_epik_Ionization_Penalty>
3.54787e-08

> <r_epik_Ionization_Penalty_Charging>
1.24654e-08

> <r_epik_Ionization_Penalty_Neutral>
2.30132e-08

> <r_epik_State_Penalty>
-0

> <r_epik_Charging_Adjusted_Penalty>
1.24654e-08

> <i_epik_Tot_Q>
0

> <i_epik_Tot_abs_Q>
0

> <r_epik_Metal_State_Penalty>
-0

> <b_epik_Metal_Only>
0

> <s_lp_Force_Field>
OPLS_2005

> <r_lp_Energy>
25.1152

> <b_lp_Chiralities_Consistent>
1

> <s_lp_Variant>
AV-unprocessed.smi:2025-3

> <Gold.Version>
5.8.1

> <Gold.Id.Protein>
6NUR|6NUR_protein|mol2

> <Gold.PLP.Fitness>
43.0952

> <Gold.PLP.PLP>
-34.8532

> <Gold.PLP.part.hbond>
-2.0000

> <Gold.PLP.part.metal>
0.0000

> <Gold.PLP.part.buried>
-2.2729

> <Gold.PLP.part.nonpolar>
-29.7073

> <Gold.PLP.part.repulsive>
0.3792

> <Gold.PLP.ligand.clash>
0.0000

> <Gold.PLP.ligand.torsion>
0.3007

> <Gold.PLP.Chemscore.Hbond>
1.9440

> <Gold.PLP.Chemscore.CHOScore>
1.0000

> <Gold.PLP.Chemscore.Metal>
0.0000

> <Gold.Chemscore.Hbonds>
donor molecule, donor type, donor heavy atom, donor atom, acceptor molecule, acceptor atom, score
      L1  H     3    25       P1  7948  0.63
      P1  H  6896  6908       L1    11  1.00
      L1  C     8    28       P1  7948  0.68

> <Gold.PLP.Chemscore.Internal.Correction>
0.0114

> <Gold.Rescore>
     Score         DG    S(hbond)    S(metal)    S(lipo)     H(rot)  DE(clash)    DE(int)     intcor
     10.11     -14.22       1.85        0.00      61.65       1.82       0.49       3.62       ----

> <Gold.Chemscore.Fitness>
10.1055

> <Gold.Chemscore.DG>
-14.2155

> <Gold.Chemscore.ZeroCoef>
-5.4800

> <Gold.Chemscore.Hbond>
1.8529

> <Gold.Chemscore.Metal>
0.0000

> <Gold.Chemscore.Lipo>
61.6518

> <Gold.Chemscore.Internal_Hbond>
0.0000

> <Gold.Chemscore.DEClash>
0.4876

> <Gold.Chemscore.DEInternal>
3.6225

> <Gold.Chemscore.Rot>
1.8228

> <Gold.Chemscore.Internal.Correction>
   9.000000E+99

> <Gold.Chemscore.Hbonds>
donor molecule, donor type, donor heavy atom, donor atom, acceptor molecule, acceptor atom, score
      L1  H     3    25       P1  7948  0.58
      P1  H  6896  6908       L1    11  0.98

> <Gold.Chemscore.Hbond.Weighted>
-6.1887

> <Gold.Chemscore.Metal.Weighted>
-0.0000

> <Gold.Chemscore.Lipo.Weighted>
-7.2133

> <Gold.Chemscore.Internal_Hbond.Weighted>
0.0000

> <Gold.Chemscore.DEClash.Weighted>
0.4876

> <Gold.Chemscore.DEInternal.Weighted>
3.6225

> <Gold.Chemscore.Rot.Weighted>
4.6665

> <Gold.Chemscore.Internal.Correction.Weighted>
   9.000000E+99

> <Gold.Protein.RotatedTorsions>
[ 6907 6896 6895 6894 ] final   77.85 input  -60.11 | X-H torsion
[ 7974 7965 7964 7962 ] final  -22.73 input  175.53 | X-H torsion
[ 8008 7997 7996 7995 ] final   30.65 input   59.86 | X-H torsion
[ 10167 10162 10161 10158 ] final  101.24 input  -65.29 | X-H torsion
[ 10718 10713 10712 10709 ] final  -49.83 input   66.30 | X-H torsion
[ 10763 10752 10751 10750 ] final   64.71 input  -60.55 | X-H torsion
[ 11005 11000 10999 10996 ] final  151.09 input  -57.11 | X-H torsion

> <Gold.Protein.ActiveResidues>
 VAL166  LYS551  ARG553  GLY616  TRP617  ASP618  TYR619  PRO620  LYS621  CYS622 
 ASP623  PHE694  ASN695  SER759  ASP760  ASP761  ALA762  ILE779  LEU786  VAL792 
 PHE793  MET794  SER795  GLU796  ALA797  LYS798  CYS799  TRP800  GLU811  SER814 

> <Gold.Protein.RotatedAtoms>
  152.5135  134.3754  159.9332 H   0  0  0  0  0  0  0  0  0  0  0  0  # atno 6907 bound_to 6896
  151.3709  133.3849  159.2707 H   0  0  0  0  0  0  0  0  0  0  0  0  # atno 6908 bound_to 6896
  150.9578  134.8990  159.7770 H   0  0  0  0  0  0  0  0  0  0  0  0  # atno 6909 bound_to 6896
  146.1658  140.4519  142.8552 H   0  0  0  0  0  0  0  0  0  0  0  0  # atno 7974 bound_to 7965
  155.0939  140.3223  155.4566 H   0  0  0  0  0  0  0  0  0  0  0  0  # atno 8008 bound_to 7997
  156.2735  140.2073  156.6012 H   0  0  0  0  0  0  0  0  0  0  0  0  # atno 8009 bound_to 7997
  154.6882  140.0519  157.0323 H   0  0  0  0  0  0  0  0  0  0  0  0  # atno 8010 bound_to 7997
  139.7455  144.6999  151.0510 H   0  0  0  0  0  0  0  0  0  0  0  0  # atno 10167 bound_to 10162
  156.1857  130.4151  149.9443 H   0  0  0  0  0  0  0  0  0  0  0  0  # atno 10718 bound_to 10713
  153.0067  135.5383  154.6553 H   0  0  0  0  0  0  0  0  0  0  0  0  # atno 10763 bound_to 10752
  154.5775  135.2847  155.0768 H   0  0  0  0  0  0  0  0  0  0  0  0  # atno 10764 bound_to 10752
  154.1909  135.6500  153.5112 H   0  0  0  0  0  0  0  0  0  0  0  0  # atno 10765 bound_to 10752
  140.1188  134.8877  157.2042 H   0  0  0  0  0  0  0  0  0  0  0  0  # atno 11005 bound_to 11000
  144.8091  140.6353  143.6427 LP  0  0  0  0  0  0  0  0  0  0  0  0  # atno 17320 bound_to 7965
  145.4470  139.1528  143.3939 LP  0  0  0  0  0  0  0  0  0  0  0  0  # atno 17321 bound_to 7965
  140.7791  143.4871  150.9941 LP  0  0  0  0  0  0  0  0  0  0  0  0  # atno 17342 bound_to 10162
  139.8560  143.7377  152.3176 LP  0  0  0  0  0  0  0  0  0  0  0  0  # atno 17343 bound_to 10162
  156.7200  130.9003  151.3617 LP  0  0  0  0  0  0  0  0  0  0  0  0  # atno 17370 bound_to 10713
  157.6897  130.9221  150.0480 LP  0  0  0  0  0  0  0  0  0  0  0  0  # atno 17371 bound_to 10713
  140.2993  134.3150  155.7294 LP  0  0  0  0  0  0  0  0  0  0  0  0  # atno 17394 bound_to 11000
  141.2147  133.7582  156.9617 LP  0  0  0  0  0  0  0  0  0  0  0  0  # atno 17395 bound_to 11000

$$$$
