AV-unprocessed.smi:281|AV-procd|sdf|2102|dock7
  -GOLD-   2262021393D 1   1.00000     0.00000
 Structure written by MMmdl.
 55 59  0  0  0  0  0  0  0  0  1 V2000
  148.1271  141.6260  153.7961 C   0  0  0  0  0  0  0  0  0  0  0  0
  148.5346  140.3988  154.6167 C   0  0  1  0  0  0  0  0  0  0  0  0
  147.7623  139.1396  154.1968 C   0  0  0  0  0  0  0  0  0  0  0  0
  148.2476  138.0017  154.9619 N   0  0  0  0  0  0  0  0  0  0  0  0
  147.5174  136.8752  154.8314 C   0  0  0  0  0  0  0  0  0  0  0  0
  147.7658  135.8768  155.7134 N   0  0  0  0  0  0  0  0  0  0  0  0
  147.0767  134.7340  155.6393 C   0  0  0  0  0  0  0  0  0  0  0  0
  146.1184  134.3908  154.7757 N   0  0  0  0  0  0  0  0  0  0  0  0
  145.8752  135.3909  153.8801 C   0  0  0  0  0  0  0  0  0  0  0  0
  146.5245  136.6566  153.8349 C   0  0  0  0  0  0  0  0  0  0  0  0
  146.0186  137.4114  152.7834 N   0  0  0  0  0  0  0  0  0  0  0  0
  145.1160  136.6389  152.2432 C   0  0  0  0  0  0  0  0  0  0  0  0
  144.9670  135.4052  152.8359 N   0  0  0  0  0  0  0  0  0  0  0  0
  144.0397  134.3562  152.4404 C   0  0  0  0  0  0  0  0  0  0  0  0
  144.2921  133.8192  151.0125 C   0  0  1  0  0  0  0  0  0  0  0  0
  143.9382  134.8216  150.0749 O   0  0  0  0  0  0  0  0  0  0  0  0
  145.7340  133.3958  150.7496 C   0  0  0  0  0  0  0  0  0  0  0  0
  145.5761  132.2682  149.7395 C   0  0  0  0  0  0  0  0  0  0  0  0
  144.4298  131.5839  150.2159 O   0  0  0  0  0  0  0  0  0  0  0  0
  143.4891  132.5440  150.6875 C   0  0  0  0  0  0  0  0  0  0  0  0
  149.6773  137.7874  154.7967 C   0  0  0  0  0  0  0  0  0  0  0  0
  150.4745  139.0695  155.1477 C   0  0  2  0  0  0  0  0  0  0  0  0
  151.9355  138.9094  154.7597 C   0  0  0  0  0  0  0  0  0  0  0  0
  152.5216  138.1562  155.9488 C   0  0  0  0  0  0  0  0  0  0  0  0
  151.7432  138.5458  157.0758 O   0  0  0  0  0  0  0  0  0  0  0  0
  150.6047  139.3046  156.6704 C   0  0  1  0  0  0  0  0  0  0  0  0
  150.8989  140.7599  157.0828 C   0  0  0  0  0  0  0  0  0  0  0  0
  149.9347  140.1830  154.4267 O   0  0  0  0  0  0  0  0  0  0  0  0
  147.0645  141.8406  153.9116 H   0  0  0  0  0  0  0  0  0  0  0  0
  148.3256  141.4739  152.7348 H   0  0  0  0  0  0  0  0  0  0  0  0
  148.6813  142.5085  154.1159 H   0  0  0  0  0  0  0  0  0  0  0  0
  148.3295  140.6031  155.6677 H   0  0  0  0  0  0  0  0  0  0  0  0
  146.6942  139.2759  154.3717 H   0  0  0  0  0  0  0  0  0  0  0  0
  147.8981  138.9620  153.1297 H   0  0  0  0  0  0  0  0  0  0  0  0
  147.3296  133.9875  156.3779 H   0  0  0  0  0  0  0  0  0  0  0  0
  144.5323  136.9478  151.3881 H   0  0  0  0  0  0  0  0  0  0  0  0
  144.1155  133.5439  153.1643 H   0  0  0  0  0  0  0  0  0  0  0  0
  143.0242  134.7453  152.5253 H   0  0  0  0  0  0  0  0  0  0  0  0
  143.0277  134.7095  149.8475 H   0  0  0  0  0  0  0  0  0  0  0  0
  146.3758  134.2051  150.3990 H   0  0  0  0  0  0  0  0  0  0  0  0
  146.1791  132.9889  151.6582 H   0  0  0  0  0  0  0  0  0  0  0  0
  145.3845  132.6593  148.7391 H   0  0  0  0  0  0  0  0  0  0  0  0
  146.4471  131.6142  149.6959 H   0  0  0  0  0  0  0  0  0  0  0  0
  142.9827  132.1393  151.5642 H   0  0  0  0  0  0  0  0  0  0  0  0
  142.7281  132.7188  149.9251 H   0  0  0  0  0  0  0  0  0  0  0  0
  150.0003  136.9511  155.4184 H   0  0  0  0  0  0  0  0  0  0  0  0
  149.8699  137.5048  153.7606 H   0  0  0  0  0  0  0  0  0  0  0  0
  152.0829  138.3910  153.8119 H   0  0  0  0  0  0  0  0  0  0  0  0
  152.4125  139.8866  154.6752 H   0  0  0  0  0  0  0  0  0  0  0  0
  152.4203  137.0794  155.8100 H   0  0  0  0  0  0  0  0  0  0  0  0
  153.5780  138.3788  156.0997 H   0  0  0  0  0  0  0  0  0  0  0  0
  149.7190  138.9573  157.2034 H   0  0  0  0  0  0  0  0  0  0  0  0
  150.0793  141.4313  156.8323 H   0  0  0  0  0  0  0  0  0  0  0  0
  151.7980  141.1435  156.6010 H   0  0  0  0  0  0  0  0  0  0  0  0
  151.0518  140.8283  158.1600 H   0  0  0  0  0  0  0  0  0  0  0  0
  1  2  1  0  0  0  0
  1 29  1  0  0  0  0
  1 30  1  0  0  0  0
  1 31  1  0  0  0  0
  2 28  1  0  0  0  0
  2  3  1  0  0  0  0
  2 32  1  0  0  0  0
  3  4  1  0  0  0  0
  3 33  1  0  0  0  0
  3 34  1  0  0  0  0
  4  5  1  0  0  0  0
  4 21  1  0  0  0  0
  5 10  1  0  0  0  0
  5  6  2  0  0  0  0
  6  7  1  0  0  0  0
  7  8  2  0  0  0  0
  7 35  1  0  0  0  0
  8  9  1  0  0  0  0
  9 13  1  0  0  0  0
  9 10  2  0  0  0  0
 10 11  1  0  0  0  0
 11 12  2  0  0  0  0
 12 13  1  0  0  0  0
 12 36  1  0  0  0  0
 13 14  1  0  0  0  0
 14 15  1  0  0  0  0
 14 37  1  0  0  0  0
 14 38  1  0  0  0  0
 15 20  1  0  0  0  0
 15 16  1  0  0  0  0
 15 17  1  0  0  0  0
 16 39  1  0  0  0  0
 17 18  1  0  0  0  0
 17 40  1  0  0  0  0
 17 41  1  0  0  0  0
 18 19  1  0  0  0  0
 18 42  1  0  0  0  0
 18 43  1  0  0  0  0
 19 20  1  0  0  0  0
 20 44  1  0  0  0  0
 20 45  1  0  0  0  0
 21 22  1  0  0  0  0
 21 46  1  0  0  0  0
 21 47  1  0  0  0  0
 22 26  1  0  0  0  0
 22 23  1  0  0  0  0
 22 28  1  0  0  0  0
 23 24  1  0  0  0  0
 23 48  1  0  0  0  0
 23 49  1  0  0  0  0
 24 25  1  0  0  0  0
 24 50  1  0  0  0  0
 24 51  1  0  0  0  0
 25 26  1  0  0  0  0
 26 27  1  0  0  0  0
 26 52  1  0  0  0  0
 27 53  1  0  0  0  0
 27 54  1  0  0  0  0
 27 55  1  0  0  0  0
M  END
> <s_m_source_file>
AV-unprocessed.smi

> <i_m_source_file_index>
281

> <i_lp_mmshare_version>
43012

> <i_f3d_flags>
0

> <s_epik_input>
W0NIM11bQ0BASF0xT1tDSDJdW0NIMl1bQ0BAXTEyW0NIMl1OKFtDSDJdW0NASF0oTzIpW0NIM10pYyhuW2NIXW4zKWMoYzM0KW5bY0hdbjRbQ0gyXVtDQEBdNShbT0hdKVtDSDJdW0NIMl1PW0NIMl01

> <s_epik_cmdline>
J2VwaWtfcHl0aG9uJywgJy1waCcsICc3LjAnLCAnLXRuJywgJzgnLCAnLW1hJywgJzIwMCcsICctbWV0YWxfYmluZGluZycsICctaW1hZScsICc8aW5maWxlLm1hZT4nLCAnLW9tYWUnLCAnPG91dGZpbGUubWFlPic=

> <r_lp_tautomer_probability>
1

> <r_epik_Ionization_Penalty>
0.00571331

> <r_epik_Ionization_Penalty_Charging>
0

> <r_epik_Ionization_Penalty_Neutral>
0.00571331

> <r_epik_State_Penalty>
0.00399586

> <r_epik_Charging_Adjusted_Penalty>
0.00399586

> <i_epik_Tot_Q>
0

> <i_epik_Tot_abs_Q>
0

> <r_epik_Metal_State_Penalty>
-0

> <b_epik_Metal_Only>
0

> <s_lp_Force_Field>
OPLS_2005

> <r_lp_Energy>
56.2514

> <b_lp_Chiralities_Consistent>
1

> <s_lp_Variant>
AV-unprocessed.smi:281-2

> <Gold.Version>
5.8.1

> <Gold.Id.Protein>
6NUR|6NUR_protein|mol2

> <Gold.PLP.Fitness>
44.7357

> <Gold.PLP.PLP>
-35.9046

> <Gold.PLP.part.hbond>
-2.9394

> <Gold.PLP.part.metal>
0.0000

> <Gold.PLP.part.buried>
-5.2587

> <Gold.PLP.part.nonpolar>
-29.4223

> <Gold.PLP.part.repulsive>
0.6806

> <Gold.PLP.ligand.clash>
0.0000

> <Gold.PLP.ligand.torsion>
0.2256

> <Gold.PLP.Chemscore.Hbond>
2.0484

> <Gold.PLP.Chemscore.CHOScore>
1.0000

> <Gold.PLP.Chemscore.Metal>
0.0000

> <Gold.Chemscore.Hbonds>
donor molecule, donor type, donor heavy atom, donor atom, acceptor molecule, acceptor atom, score
      L1  H    16    39       P1 10186  0.94
      P1  H  7989  7998       L1    28  0.92
      P1  H 10785 10796       L1    19  0.05
      L1  C    12    36       P1 10171  1.00

> <Gold.PLP.Chemscore.Internal.Correction>
0.1371

> <Gold.Rescore>
     Score         DG    S(hbond)    S(metal)    S(lipo)     H(rot)  DE(clash)    DE(int)     intcor
     14.75     -16.44       1.57        0.00      94.63       2.09       0.08       1.60       ----

> <Gold.Chemscore.Fitness>
14.7504

> <Gold.Chemscore.DG>
-16.4365

> <Gold.Chemscore.ZeroCoef>
-5.4800

> <Gold.Chemscore.Hbond>
1.5695

> <Gold.Chemscore.Metal>
0.0000

> <Gold.Chemscore.Lipo>
94.6310

> <Gold.Chemscore.Internal_Hbond>
0.0000

> <Gold.Chemscore.DEClash>
0.0827

> <Gold.Chemscore.DEInternal>
1.6035

> <Gold.Chemscore.Rot>
2.0927

> <Gold.Chemscore.Internal.Correction>
   9.000000E+99

> <Gold.Chemscore.Hbonds>
donor molecule, donor type, donor heavy atom, donor atom, acceptor molecule, acceptor atom, score
      L1  H    16    39       P1 10186  0.71
      P1  H  7989  7998       L1    28  0.25
      P1  H 10785 10796       L1    19  0.04

> <Gold.Chemscore.Hbond.Weighted>
-5.2420

> <Gold.Chemscore.Metal.Weighted>
-0.0000

> <Gold.Chemscore.Lipo.Weighted>
-11.0718

> <Gold.Chemscore.Internal_Hbond.Weighted>
0.0000

> <Gold.Chemscore.DEClash.Weighted>
0.0827

> <Gold.Chemscore.DEInternal.Weighted>
1.6035

> <Gold.Chemscore.Rot.Weighted>
5.3573

> <Gold.Chemscore.Internal.Correction.Weighted>
   9.000000E+99

> <Gold.Protein.RotatedTorsions>
[ 6907 6896 6895 6894 ] final  -53.55 input  -60.11 | X-H torsion
[ 7974 7965 7964 7962 ] final  138.08 input  175.53 | X-H torsion
[ 8008 7997 7996 7995 ] final   64.28 input   59.86 | X-H torsion
[ 10167 10162 10161 10158 ] final  -81.38 input  -65.29 | X-H torsion
[ 10718 10713 10712 10709 ] final -172.22 input   66.30 | X-H torsion
[ 10763 10752 10751 10750 ] final   10.32 input  -60.55 | X-H torsion
[ 11005 11000 10999 10996 ] final   -9.46 input  -57.11 | X-H torsion

> <Gold.Protein.ActiveResidues>
 VAL166  LYS551  ARG553  GLY616  TRP617  ASP618  TYR619  PRO620  LYS621  CYS622 
 ASP623  PHE694  ASN695  SER759  ASP760  ASP761  ALA762  ILE779  LEU786  VAL792 
 PHE793  MET794  SER795  GLU796  ALA797  LYS798  CYS799  TRP800  GLU811  SER814 

> <Gold.Protein.RotatedAtoms>
  150.8417  134.7711  159.6937 H   0  0  0  0  0  0  0  0  0  0  0  0  # atno 6907 bound_to 6896
  152.4503  134.5405  159.9847 H   0  0  0  0  0  0  0  0  0  0  0  0  # atno 6908 bound_to 6896
  151.5544  133.3374  159.2995 H   0  0  0  0  0  0  0  0  0  0  0  0  # atno 6909 bound_to 6896
  144.9406  139.4936  143.5574 H   0  0  0  0  0  0  0  0  0  0  0  0  # atno 7974 bound_to 7965
  155.6435  140.3497  155.4723 H   0  0  0  0  0  0  0  0  0  0  0  0  # atno 8008 bound_to 7997
  155.9906  140.1193  157.0665 H   0  0  0  0  0  0  0  0  0  0  0  0  # atno 8009 bound_to 7997
  154.4218  140.1120  156.5547 H   0  0  0  0  0  0  0  0  0  0  0  0  # atno 8010 bound_to 7997
  140.4417  143.2512  151.8616 H   0  0  0  0  0  0  0  0  0  0  0  0  # atno 10167 bound_to 10162
  156.7524  130.9383  151.3115 H   0  0  0  0  0  0  0  0  0  0  0  0  # atno 10718 bound_to 10713
  153.2045  135.6860  153.8190 H   0  0  0  0  0  0  0  0  0  0  0  0  # atno 10763 bound_to 10752
  153.7444  135.3233  155.3311 H   0  0  0  0  0  0  0  0  0  0  0  0  # atno 10764 bound_to 10752
  154.8189  135.4666  154.0826 H   0  0  0  0  0  0  0  0  0  0  0  0  # atno 10765 bound_to 10752
  140.7343  133.8723  155.8918 H   0  0  0  0  0  0  0  0  0  0  0  0  # atno 11005 bound_to 11000
  146.3284  139.8422  142.8888 LP  0  0  0  0  0  0  0  0  0  0  0  0  # atno 17320 bound_to 7965
  145.2997  141.0191  143.3615 LP  0  0  0  0  0  0  0  0  0  0  0  0  # atno 17321 bound_to 7965
  139.4790  144.5221  151.8786 LP  0  0  0  0  0  0  0  0  0  0  0  0  # atno 17342 bound_to 10162
  140.4310  144.2115  150.5888 LP  0  0  0  0  0  0  0  0  0  0  0  0  # atno 17343 bound_to 10162
  157.6771  130.9105  150.0177 LP  0  0  0  0  0  0  0  0  0  0  0  0  # atno 17370 bound_to 10713
  156.1392  130.3642  149.9608 LP  0  0  0  0  0  0  0  0  0  0  0  0  # atno 17371 bound_to 10713
  140.9893  134.1300  157.4423 LP  0  0  0  0  0  0  0  0  0  0  0  0  # atno 17394 bound_to 11000
  139.8819  135.0035  156.6193 LP  0  0  0  0  0  0  0  0  0  0  0  0  # atno 17395 bound_to 11000

$$$$
