AV-unprocessed.smi:21|AV-procd|sdf|136|dock6
  -GOLD-   2262015333D 1   1.00000     0.00000
 Structure written by MMmdl.
 62 65  0  0  0  0  0  0  0  0  2 V2000
  144.8321  132.6291  150.1375 C   0  0  0  0  0  0  0  0  0  0  0  0
  145.5440  132.1225  151.2555 O   0  0  0  0  0  0  0  0  0  0  0  0
  146.6279  132.9444  151.6618 C   0  0  2  0  0  0  0  0  0  0  0  0
  147.3560  132.4169  152.8925 C   0  0  0  0  0  0  0  0  0  0  0  0
  148.0240  133.6637  153.4958 C   0  0  2  0  0  0  0  0  0  0  0  0
  148.2866  133.5624  155.0227 C   0  0  0  0  0  0  0  0  0  0  0  0
  149.5305  134.2071  155.4494 N   0  0  0  0  0  0  0  0  0  0  0  0
  150.7051  133.3581  155.6290 C   0  0  0  0  0  0  0  0  0  0  0  0
  149.4403  135.3382  156.2001 C   0  0  0  0  0  0  0  0  0  0  0  0
  148.2095  135.8082  156.5393 N   0  0  0  0  0  0  0  0  0  0  0  0
  148.0815  136.9491  157.2212 C   0  0  0  0  0  0  0  0  0  0  0  0
  149.0373  137.7718  157.6527 N   0  0  0  0  0  0  0  0  0  0  0  0
  150.2768  137.3022  157.3340 C   0  0  0  0  0  0  0  0  0  0  0  0
  150.5675  136.0982  156.6305 C   0  0  0  0  0  0  0  0  0  0  0  0
  151.9449  135.9403  156.5258 N   0  0  0  0  0  0  0  0  0  0  0  0
  152.4375  136.9934  157.1171 C   0  0  0  0  0  0  0  0  0  0  0  0
  151.5050  137.8847  157.5963 N   0  0  0  0  0  0  0  0  0  0  0  0
  151.7758  139.1400  158.2765 C   0  0  0  0  0  0  0  0  0  0  0  0
  151.7553  140.3954  157.3587 C   0  0  1  0  0  0  0  0  0  0  0  0
  150.7106  140.1883  156.2358 C   0  0  0  0  0  0  0  0  0  0  0  0
  151.3342  139.9739  154.9863 O   0  0  0  0  0  0  0  0  0  0  0  0
  151.4826  141.7272  158.1190 C   0  0  1  0  0  0  0  0  0  0  0  0
  152.5847  142.2328  159.0386 C   0  0  0  0  0  0  0  0  0  0  0  0
  152.2170  143.6999  159.2030 C   0  0  0  0  0  0  0  0  0  0  0  0
  151.7564  144.0956  157.9216 O   0  0  0  0  0  0  0  0  0  0  0  0
  151.3079  142.9507  157.2020 C   0  0  0  0  0  0  0  0  0  0  0  0
  147.1768  134.8149  153.0602 N   0  3  2  0  0  0  0  0  0  0  0  0
  146.6528  135.7276  154.1035 C   0  0  0  0  0  0  0  0  0  0  0  0
  146.1226  134.2947  152.1602 C   0  0  0  0  0  0  0  0  0  0  0  0
  147.3305  133.0994  150.8408 H   0  0  0  0  0  0  0  0  0  0  0  0
  148.9794  133.8111  152.9906 H   0  0  0  0  0  0  0  0  0  0  0  0
  143.9891  131.9745  149.9163 H   0  0  0  0  0  0  0  0  0  0  0  0
  145.4604  132.6706  149.2473 H   0  0  0  0  0  0  0  0  0  0  0  0
  144.4394  133.6268  150.3373 H   0  0  0  0  0  0  0  0  0  0  0  0
  146.6278  132.0042  153.5926 H   0  0  0  0  0  0  0  0  0  0  0  0
  148.0718  131.6315  152.6493 H   0  0  0  0  0  0  0  0  0  0  0  0
  147.4842  134.0617  155.5654 H   0  0  0  0  0  0  0  0  0  0  0  0
  148.2502  132.5238  155.3428 H   0  0  0  0  0  0  0  0  0  0  0  0
  151.6211  133.9477  155.5719 H   0  0  0  0  0  0  0  0  0  0  0  0
  150.7529  132.5974  154.8495 H   0  0  0  0  0  0  0  0  0  0  0  0
  150.6778  132.8523  156.5948 H   0  0  0  0  0  0  0  0  0  0  0  0
  147.0685  137.2506  157.4440 H   0  0  0  0  0  0  0  0  0  0  0  0
  153.5017  137.1617  157.1979 H   0  0  0  0  0  0  0  0  0  0  0  0
  151.0284  139.2294  159.0650 H   0  0  0  0  0  0  0  0  0  0  0  0
  152.7397  139.0651  158.7813 H   0  0  0  0  0  0  0  0  0  0  0  0
  152.7273  140.4901  156.8739 H   0  0  0  0  0  0  0  0  0  0  0  0
  150.0585  139.3443  156.4639 H   0  0  0  0  0  0  0  0  0  0  0  0
  150.0697  141.0611  156.1184 H   0  0  0  0  0  0  0  0  0  0  0  0
  151.1002  139.1121  154.6764 H   0  0  0  0  0  0  0  0  0  0  0  0
  150.5749  141.6149  158.7144 H   0  0  0  0  0  0  0  0  0  0  0  0
  152.6138  141.7281  160.0024 H   0  0  0  0  0  0  0  0  0  0  0  0
  153.5622  142.1376  158.5634 H   0  0  0  0  0  0  0  0  0  0  0  0
  151.4025  143.8109  159.9204 H   0  0  0  0  0  0  0  0  0  0  0  0
  153.0519  144.3128  159.5400 H   0  0  0  0  0  0  0  0  0  0  0  0
  151.9221  142.8608  156.3049 H   0  0  0  0  0  0  0  0  0  0  0  0
  150.2719  143.0793  156.8871 H   0  0  0  0  0  0  0  0  0  0  0  0
  146.0096  135.2016  154.8099 H   0  0  0  0  0  0  0  0  0  0  0  0
  146.0637  136.5211  153.6424 H   0  0  0  0  0  0  0  0  0  0  0  0
  147.4639  136.2070  154.6515 H   0  0  0  0  0  0  0  0  0  0  0  0
  145.9071  134.9884  151.3471 H   0  0  0  0  0  0  0  0  0  0  0  0
  145.2010  134.1483  152.7270 H   0  0  0  0  0  0  0  0  0  0  0  0
  147.7811  135.3784  152.4787 H   0  0  0  0  0  0  0  0  0  0  0  0
  1  2  1  0  0  0  0
  1 32  1  0  0  0  0
  1 33  1  0  0  0  0
  1 34  1  0  0  0  0
  2  3  1  0  0  0  0
  3 30  1  0  0  0  0
  3 29  1  0  0  0  0
  3  4  1  0  0  0  0
  4  5  1  0  0  0  0
  4 35  1  0  0  0  0
  4 36  1  0  0  0  0
  5 31  1  0  0  0  0
  5  6  1  0  0  0  0
  5 27  1  0  0  0  0
  6  7  1  0  0  0  0
  6 37  1  0  0  0  0
  6 38  1  0  0  0  0
  7  8  1  0  0  0  0
  7  9  1  0  0  0  0
  8 39  1  0  0  0  0
  8 40  1  0  0  0  0
  8 41  1  0  0  0  0
  9 14  1  0  0  0  0
  9 10  2  0  0  0  0
 10 11  1  0  0  0  0
 11 12  2  0  0  0  0
 11 42  1  0  0  0  0
 12 13  1  0  0  0  0
 13 17  1  0  0  0  0
 13 14  2  0  0  0  0
 14 15  1  0  0  0  0
 15 16  2  0  0  0  0
 16 17  1  0  0  0  0
 16 43  1  0  0  0  0
 17 18  1  0  0  0  0
 18 19  1  0  0  0  0
 18 44  1  0  0  0  0
 18 45  1  0  0  0  0
 19 20  1  0  0  0  0
 19 22  1  0  0  0  0
 19 46  1  0  0  0  0
 20 21  1  0  0  0  0
 20 47  1  0  0  0  0
 20 48  1  0  0  0  0
 21 49  1  0  0  0  0
 22 26  1  0  0  0  0
 22 23  1  0  0  0  0
 22 50  1  0  0  0  0
 23 24  1  0  0  0  0
 23 51  1  0  0  0  0
 23 52  1  0  0  0  0
 24 25  1  0  0  0  0
 24 53  1  0  0  0  0
 24 54  1  0  0  0  0
 25 26  1  0  0  0  0
 26 55  1  0  0  0  0
 26 56  1  0  0  0  0
 27 28  1  0  0  0  0
 27 29  1  0  0  0  0
 27 62  1  0  0  0  0
 28 57  1  0  0  0  0
 28 58  1  0  0  0  0
 28 59  1  0  0  0  0
 29 60  1  0  0  0  0
 29 61  1  0  0  0  0
M  CHG  1  27   1
M  END
> <s_m_source_file>
AV-unprocessed.smi

> <i_m_source_file_index>
21

> <i_lp_mmshare_version>
43012

> <i_f3d_flags>
0

> <s_epik_input>
W0NIM11PW0NASF0xW0NIMl1bQ0BIXShOKFtDSDNdKVtDSDJdMSlbQ0gyXU4oW0NIM10pYyhuW2NIXW4yKWMoYzIzKW5bY0hdbjNbQ0gyXVtDQEhdKFtDSDJdW09IXSlbQ0BASF00W0NIMl1bQ0gyXU9bQ0gyXTQ=

> <s_epik_cmdline>
J2VwaWtfcHl0aG9uJywgJy1waCcsICc3LjAnLCAnLXRuJywgJzgnLCAnLW1hJywgJzIwMCcsICctbWV0YWxfYmluZGluZycsICctaW1hZScsICc8aW5maWxlLm1hZT4nLCAnLW9tYWUnLCAnPG91dGZpbGUubWFlPic=

> <r_lp_tautomer_probability>
1

> <r_epik_Ionization_Penalty>
0.0157465

> <r_epik_Ionization_Penalty_Charging>
0.015354

> <r_epik_Ionization_Penalty_Neutral>
0.000392529

> <r_epik_State_Penalty>
0.0120612

> <r_epik_Charging_Adjusted_Penalty>
0.0274152

> <i_epik_Tot_Q>
1

> <i_epik_Tot_abs_Q>
1

> <r_epik_Metal_State_Penalty>
0.0121253

> <b_epik_Metal_Only>
0

> <s_lp_Force_Field>
OPLS_2005

> <r_lp_Energy>
61.1925

> <b_lp_Chiralities_Consistent>
1

> <s_lp_Variant>
AV-unprocessed.smi:21-16

> <Gold.Version>
5.8.1

> <Gold.Id.Protein>
6NUR|6NUR_protein|mol2

> <Gold.PLP.Fitness>
48.8652

> <Gold.PLP.PLP>
-40.4092

> <Gold.PLP.part.hbond>
-3.0000

> <Gold.PLP.part.metal>
0.0000

> <Gold.PLP.part.buried>
-7.2985

> <Gold.PLP.part.nonpolar>
-30.0258

> <Gold.PLP.part.repulsive>
0.2286

> <Gold.PLP.ligand.clash>
0.0000

> <Gold.PLP.ligand.torsion>
2.3060

> <Gold.PLP.Chemscore.Hbond>
4.0000

> <Gold.PLP.Chemscore.CHOScore>
0.0000

> <Gold.PLP.Chemscore.Metal>
0.0000

> <Gold.Chemscore.Hbonds>
donor molecule, donor type, donor heavy atom, donor atom, acceptor molecule, acceptor atom, score
      L1  H    27    62       P1  7948  2.00
      P1  H  7989  7998       L1    21  1.00
      P1  H 10752 10764       L1    15  1.00

> <Gold.PLP.Chemscore.Internal.Correction>
1.0680

> <Gold.Rescore>
     Score         DG    S(hbond)    S(metal)    S(lipo)     H(rot)  DE(clash)    DE(int)     intcor
     14.46     -18.86       2.72        0.00     104.01       3.08       0.07       4.33       ----

> <Gold.Chemscore.Fitness>
14.4585

> <Gold.Chemscore.DG>
-18.8607

> <Gold.Chemscore.ZeroCoef>
-5.4800

> <Gold.Chemscore.Hbond>
2.7201

> <Gold.Chemscore.Metal>
0.0000

> <Gold.Chemscore.Lipo>
104.0139

> <Gold.Chemscore.Internal_Hbond>
0.0000

> <Gold.Chemscore.DEClash>
0.0679

> <Gold.Chemscore.DEInternal>
4.3343

> <Gold.Chemscore.Rot>
3.0758

> <Gold.Chemscore.Internal.Correction>
   9.000000E+99

> <Gold.Chemscore.Hbonds>
donor molecule, donor type, donor heavy atom, donor atom, acceptor molecule, acceptor atom, score
      L1  H    27    62       P1  7948  0.95
      P1  H  7989  7998       L1    21  0.39
      P1  H 10752 10764       L1    15  0.37

> <Gold.Chemscore.Hbond.Weighted>
-9.0852

> <Gold.Chemscore.Metal.Weighted>
-0.0000

> <Gold.Chemscore.Lipo.Weighted>
-12.1696

> <Gold.Chemscore.Internal_Hbond.Weighted>
0.0000

> <Gold.Chemscore.DEClash.Weighted>
0.0679

> <Gold.Chemscore.DEInternal.Weighted>
4.3343

> <Gold.Chemscore.Rot.Weighted>
7.8741

> <Gold.Chemscore.Internal.Correction.Weighted>
   9.000000E+99

> <Gold.Protein.RotatedTorsions>
[ 6907 6896 6895 6894 ] final   48.12 input  -60.11 | X-H torsion
[ 7974 7965 7964 7962 ] final  -99.94 input  175.53 | X-H torsion
[ 8008 7997 7996 7995 ] final  142.80 input   59.86 | X-H torsion
[ 10167 10162 10161 10158 ] final  -71.08 input  -65.29 | X-H torsion
[ 10718 10713 10712 10709 ] final  -22.86 input   66.30 | X-H torsion
[ 10763 10752 10751 10750 ] final   -6.99 input  -60.55 | X-H torsion
[ 11005 11000 10999 10996 ] final -170.41 input  -57.11 | X-H torsion

> <Gold.Protein.ActiveResidues>
 VAL166  LYS551  ARG553  GLY616  TRP617  ASP618  TYR619  PRO620  LYS621  CYS622 
 ASP623  PHE694  ASN695  SER759  ASP760  ASP761  ALA762  ILE779  LEU786  VAL792 
 PHE793  MET794  SER795  GLU796  ALA797  LYS798  CYS799  TRP800  GLU811  SER814 

> <Gold.Protein.RotatedAtoms>
  152.2759  134.7882  160.0405 H   0  0  0  0  0  0  0  0  0  0  0  0  # atno 6907 bound_to 6896
  151.8478  133.3429  159.3671 H   0  0  0  0  0  0  0  0  0  0  0  0  # atno 6908 bound_to 6896
  150.7170  134.5257  159.5719 H   0  0  0  0  0  0  0  0  0  0  0  0  # atno 6909 bound_to 6896
  145.3011  140.9377  143.2823 H   0  0  0  0  0  0  0  0  0  0  0  0  # atno 7974 bound_to 7965
  156.2942  140.2279  156.4787 H   0  0  0  0  0  0  0  0  0  0  0  0  # atno 8008 bound_to 7997
  154.7871  140.0456  157.1194 H   0  0  0  0  0  0  0  0  0  0  0  0  # atno 8009 bound_to 7997
  154.9689  140.3064  155.5000 H   0  0  0  0  0  0  0  0  0  0  0  0  # atno 8010 bound_to 7997
  140.5302  143.2322  151.7276 H   0  0  0  0  0  0  0  0  0  0  0  0  # atno 10167 bound_to 10162
  156.4988  130.4583  149.6713 H   0  0  0  0  0  0  0  0  0  0  0  0  # atno 10718 bound_to 10713
  153.4201  135.7010  153.6300 H   0  0  0  0  0  0  0  0  0  0  0  0  # atno 10763 bound_to 10752
  153.4758  135.3704  155.2416 H   0  0  0  0  0  0  0  0  0  0  0  0  # atno 10764 bound_to 10752
  154.8721  135.4054  154.3568 H   0  0  0  0  0  0  0  0  0  0  0  0  # atno 10765 bound_to 10752
  140.5198  134.5720  157.5044 H   0  0  0  0  0  0  0  0  0  0  0  0  # atno 11005 bound_to 11000
  144.9093  139.4549  143.6595 LP  0  0  0  0  0  0  0  0  0  0  0  0  # atno 17320 bound_to 7965
  146.3152  139.7892  142.8989 LP  0  0  0  0  0  0  0  0  0  0  0  0  # atno 17321 bound_to 7965
  139.4951  144.4126  152.0064 LP  0  0  0  0  0  0  0  0  0  0  0  0  # atno 17342 bound_to 10162
  140.3228  144.3408  150.6005 LP  0  0  0  0  0  0  0  0  0  0  0  0  # atno 17343 bound_to 10162
  156.3353  130.7353  151.2289 LP  0  0  0  0  0  0  0  0  0  0  0  0  # atno 17370 bound_to 10713
  157.7465  131.0418  150.4666 LP  0  0  0  0  0  0  0  0  0  0  0  0  # atno 17371 bound_to 10713
  139.9612  134.7449  156.0233 LP  0  0  0  0  0  0  0  0  0  0  0  0  # atno 17394 bound_to 11000
  141.1340  133.6579  156.3543 LP  0  0  0  0  0  0  0  0  0  0  0  0  # atno 17395 bound_to 11000

$$$$
