AV-unprocessed.smi:72|AV-procd|sdf|716|dock5
  -GOLD-   2262017 43D 1   1.00000     0.00000
 Structure written by MMmdl.
 28 29  0  0  0  0  0  0  0  0  2 V2000
  152.8818  139.5176  159.2540 N   0  0  0  0  0  0  0  0  0  0  0  0
  152.1408  139.5642  158.2354 C   0  0  0  0  0  0  0  0  0  0  0  0
  150.7031  139.6190  158.3850 N   0  0  0  0  0  0  0  0  0  0  0  0
  149.9840  139.6668  157.3060 C   0  0  0  0  0  0  0  0  0  0  0  0
  150.5861  139.6696  155.9784 N   0  0  0  0  0  0  0  0  0  0  0  0
  149.7511  139.7232  154.7088 C   0  0  1  0  0  0  0  0  0  0  0  0
  148.7186  138.7798  154.7735 O   0  0  0  0  0  0  0  0  0  0  0  0
  147.4654  139.4363  154.9273 C   0  0  2  0  0  0  0  0  0  0  0  0
  146.3066  138.5251  154.4863 C   0  0  0  0  0  0  0  0  0  0  0  0
  145.0813  139.2238  154.5477 O   0  0  0  0  0  0  0  0  0  0  0  0
  147.6517  140.7507  154.1595 C   0  0  2  0  0  0  0  0  0  0  0  0
  147.4612  140.5654  152.7688 O   0  0  0  0  0  0  0  0  0  0  0  0
  149.1023  141.1084  154.4567 C   0  0  1  0  0  0  0  0  0  0  0  0
  149.1574  141.9814  155.5721 O   0  0  0  0  0  0  0  0  0  0  0  0
  152.0011  139.6154  155.8634 C   0  0  0  0  0  0  0  0  0  0  0  0
  152.4915  139.6248  154.7339 O   0  0  0  0  0  0  0  0  0  0  0  0
  152.7501  139.5606  157.0004 N   0  5  0  0  0  0  0  0  0  0  0  0
  150.4209  139.4111  153.9058 H   0  0  0  0  0  0  0  0  0  0  0  0
  147.3455  139.6708  155.9863 H   0  0  0  0  0  0  0  0  0  0  0  0
  146.9519  141.5185  154.4926 H   0  0  0  0  0  0  0  0  0  0  0  0
  149.5923  141.5984  153.6141 H   0  0  0  0  0  0  0  0  0  0  0  0
  152.3513  139.5243  160.1131 H   0  0  0  0  0  0  0  0  0  0  0  0
  148.8956  139.7077  157.3320 H   0  0  0  0  0  0  0  0  0  0  0  0
  146.4597  138.1379  153.4788 H   0  0  0  0  0  0  0  0  0  0  0  0
  146.2425  137.6624  155.1496 H   0  0  0  0  0  0  0  0  0  0  0  0
  144.8784  139.5503  153.6843 H   0  0  0  0  0  0  0  0  0  0  0  0
  148.2744  140.2617  152.3951 H   0  0  0  0  0  0  0  0  0  0  0  0
  148.9547  142.8562  155.2785 H   0  0  0  0  0  0  0  0  0  0  0  0
  1  2  2  0  0  0  0
  1 22  1  0  0  0  0
  2 17  1  0  0  0  0
  2  3  1  0  0  0  0
  3  4  2  0  0  0  0
  4  5  1  0  0  0  0
  4 23  1  0  0  0  0
  5  6  1  0  0  0  0
  5 15  1  0  0  0  0
  6 18  1  0  0  0  0
  6 13  1  0  0  0  0
  6  7  1  0  0  0  0
  7  8  1  0  0  0  0
  8 19  1  0  0  0  0
  8  9  1  0  0  0  0
  8 11  1  0  0  0  0
  9 10  1  0  0  0  0
  9 24  1  0  0  0  0
  9 25  1  0  0  0  0
 10 26  1  0  0  0  0
 11 20  1  0  0  0  0
 11 12  1  0  0  0  0
 11 13  1  0  0  0  0
 12 27  1  0  0  0  0
 13 21  1  0  0  0  0
 13 14  1  0  0  0  0
 14 28  1  0  0  0  0
 15 16  2  0  0  0  0
 15 17  1  0  0  0  0
M  CHG  1  17  -1
M  END
> <s_m_source_file>
AV-unprocessed.smi

> <i_m_source_file_index>
72

> <i_lp_mmshare_version>
43012

> <i_f3d_flags>
0

> <s_epik_input>
W05IMl1jMW5bY0hdbihjKD1PKW4xKVtDQEBIXTJPW0NASF0oW0NIMl1bT0hdKVtDQEBIXShbT0hdKVtDQEhdMltPSF0=

> <s_epik_cmdline>
J2VwaWtfcHl0aG9uJywgJy1waCcsICc3LjAnLCAnLXRuJywgJzgnLCAnLW1hJywgJzIwMCcsICctbWV0YWxfYmluZGluZycsICctaW1hZScsICc8aW5maWxlLm1hZT4nLCAnLW9tYWUnLCAnPG91dGZpbGUubWFlPic=

> <r_lp_tautomer_probability>
7.17554e-07

> <r_epik_Ionization_Penalty>
12.8705

> <r_epik_Ionization_Penalty_Charging>
5.64144

> <r_epik_Ionization_Penalty_Neutral>
7.22905

> <r_epik_State_Penalty>
3.30104

> <r_epik_Charging_Adjusted_Penalty>
8.94249

> <i_epik_Tot_Q>
-1

> <i_epik_Tot_abs_Q>
1

> <r_epik_Metal_State_Penalty>
0.529074

> <b_epik_Metal_Only>
1

> <s_epik_Chemistry_Notes>
This compound contains an acetal/aminal-like group ( X-CH(R)-Y where X, Y are N, S, or O) that may be acid/base labile, releasing an aldehyde.

> <s_lp_Force_Field>
OPLS_2005

> <r_lp_Energy>
37.2706

> <b_lp_Chiralities_Consistent>
1

> <s_lp_Variant>
AV-unprocessed.smi:72-54

> <Gold.Version>
5.8.1

> <Gold.Id.Protein>
6NUR|6NUR_protein|mol2

> <Gold.PLP.Fitness>
38.7864

> <Gold.PLP.PLP>
-22.6847

> <Gold.PLP.part.hbond>
-5.0000

> <Gold.PLP.part.metal>
0.0000

> <Gold.PLP.part.buried>
-4.9030

> <Gold.PLP.part.nonpolar>
-13.3799

> <Gold.PLP.part.repulsive>
0.1527

> <Gold.PLP.ligand.clash>
0.0000

> <Gold.PLP.ligand.torsion>
0.2706

> <Gold.PLP.Chemscore.Hbond>
5.5360

> <Gold.PLP.Chemscore.CHOScore>
0.0000

> <Gold.PLP.Chemscore.Metal>
0.0000

> <Gold.Chemscore.Hbonds>
donor molecule, donor type, donor heavy atom, donor atom, acceptor molecule, acceptor atom, score
      L1  H    10    26       P1 10175  0.99
      L1  H    12    27       P1  7957  1.00
      L1  H    14    28       P1  8028  0.99
      P1  H  7989  7998       L1    16  0.62
      P1  H  7997  8010       L1    17  2.00

> <Gold.PLP.Chemscore.Internal.Correction>
0.0348

> <Gold.Rescore>
     Score         DG    S(hbond)    S(metal)    S(lipo)     H(rot)  DE(clash)    DE(int)     intcor
     11.91     -12.45       4.56        0.00      17.96       4.04       0.04       0.51       ----

> <Gold.Chemscore.Fitness>
11.9121

> <Gold.Chemscore.DG>
-12.4527

> <Gold.Chemscore.ZeroCoef>
-5.4800

> <Gold.Chemscore.Hbond>
4.5554

> <Gold.Chemscore.Metal>
0.0000

> <Gold.Chemscore.Lipo>
17.9560

> <Gold.Chemscore.Internal_Hbond>
0.0000

> <Gold.Chemscore.DEClash>
0.0354

> <Gold.Chemscore.DEInternal>
0.5051

> <Gold.Chemscore.Rot>
4.0403

> <Gold.Chemscore.Internal.Correction>
   9.000000E+99

> <Gold.Chemscore.Hbonds>
donor molecule, donor type, donor heavy atom, donor atom, acceptor molecule, acceptor atom, score
      L1  H    10    26       P1 10175  0.94
      L1  H    12    27       P1  7957  0.99
      L1  H    14    28       P1  8028  0.93
      P1  H  7989  7998       L1    16  0.57
      P1  H  7997  8010       L1    17  0.90

> <Gold.Chemscore.Hbond.Weighted>
-15.2149

> <Gold.Chemscore.Metal.Weighted>
-0.0000

> <Gold.Chemscore.Lipo.Weighted>
-2.1008

> <Gold.Chemscore.Internal_Hbond.Weighted>
0.0000

> <Gold.Chemscore.DEClash.Weighted>
0.0354

> <Gold.Chemscore.DEInternal.Weighted>
0.5051

> <Gold.Chemscore.Rot.Weighted>
10.3431

> <Gold.Chemscore.Internal.Correction.Weighted>
   9.000000E+99

> <Gold.Protein.RotatedTorsions>
[ 6907 6896 6895 6894 ] final    5.09 input  -60.11 | X-H torsion
[ 7974 7965 7964 7962 ] final  151.60 input  175.53 | X-H torsion
[ 8008 7997 7996 7995 ] final   45.82 input   59.86 | X-H torsion
[ 10167 10162 10161 10158 ] final   53.02 input  -65.29 | X-H torsion
[ 10718 10713 10712 10709 ] final -128.67 input   66.30 | X-H torsion
[ 10763 10752 10751 10750 ] final   24.92 input  -60.55 | X-H torsion
[ 11005 11000 10999 10996 ] final -154.14 input  -57.11 | X-H torsion

> <Gold.Protein.ActiveResidues>
 VAL166  LYS551  ARG553  GLY616  TRP617  ASP618  TYR619  PRO620  LYS621  CYS622 
 ASP623  PHE694  ASN695  SER759  ASP760  ASP761  ALA762  ILE779  LEU786  VAL792 
 PHE793  MET794  SER795  GLU796  ALA797  LYS798  CYS799  TRP800  GLU811  SER814 

> <Gold.Protein.RotatedAtoms>
  151.6518  135.1000  160.0161 H   0  0  0  0  0  0  0  0  0  0  0  0  # atno 6907 bound_to 6896
  152.3996  133.6794  159.6314 H   0  0  0  0  0  0  0  0  0  0  0  0  # atno 6908 bound_to 6896
  150.7898  133.8731  159.3305 H   0  0  0  0  0  0  0  0  0  0  0  0  # atno 6909 bound_to 6896
  144.8281  139.6559  143.6071 H   0  0  0  0  0  0  0  0  0  0  0  0  # atno 7974 bound_to 7965
  155.3422  140.3408  155.4239 H   0  0  0  0  0  0  0  0  0  0  0  0  # atno 8008 bound_to 7997
  156.1807  140.1663  156.8314 H   0  0  0  0  0  0  0  0  0  0  0  0  # atno 8009 bound_to 7997
  154.5331  140.0741  156.8363 H   0  0  0  0  0  0  0  0  0  0  0  0  # atno 8010 bound_to 7997
  140.2452  144.3540  150.6366 H   0  0  0  0  0  0  0  0  0  0  0  0  # atno 10167 bound_to 10162
  156.1973  130.6834  151.0497 H   0  0  0  0  0  0  0  0  0  0  0  0  # atno 10718 bound_to 10713
  153.0729  135.6594  154.0209 H   0  0  0  0  0  0  0  0  0  0  0  0  # atno 10763 bound_to 10752
  153.9850  135.2951  155.3418 H   0  0  0  0  0  0  0  0  0  0  0  0  # atno 10764 bound_to 10752
  154.7109  135.5206  153.8734 H   0  0  0  0  0  0  0  0  0  0  0  0  # atno 10765 bound_to 10752
  140.7006  134.3942  157.5210 H   0  0  0  0  0  0  0  0  0  0  0  0  # atno 11005 bound_to 11000
  146.2585  139.6356  142.9378 LP  0  0  0  0  0  0  0  0  0  0  0  0  # atno 17320 bound_to 7965
  145.4956  141.0438  143.2569 LP  0  0  0  0  0  0  0  0  0  0  0  0  # atno 17321 bound_to 7965
  140.6083  143.2168  151.6936 LP  0  0  0  0  0  0  0  0  0  0  0  0  # atno 17342 bound_to 10162
  139.5064  144.3682  152.0496 LP  0  0  0  0  0  0  0  0  0  0  0  0  # atno 17343 bound_to 10162
  157.6965  131.0792  150.6953 LP  0  0  0  0  0  0  0  0  0  0  0  0  # atno 17370 bound_to 10713
  156.7010  130.4623  149.5573 LP  0  0  0  0  0  0  0  0  0  0  0  0  # atno 17371 bound_to 10713
  139.8898  134.8821  156.2403 LP  0  0  0  0  0  0  0  0  0  0  0  0  # atno 17394 bound_to 11000
  141.0167  133.7064  156.1200 LP  0  0  0  0  0  0  0  0  0  0  0  0  # atno 17395 bound_to 11000

$$$$
