AV-unprocessed.smi:2457|AV-procd|sdf|9707|dock7
  -GOLD-   2272013343D 1   1.00000     0.00000
 Structure written by MMmdl.
 40 41  0  0  0  0  0  0  0  0  1 V2000
  144.9973  144.9100  152.9019 C   0  0  0  0  0  0  0  0  0  0  0  0
  145.3365  143.8023  153.8481 C   0  0  0  0  0  0  0  0  0  0  0  0
  144.8489  143.6216  155.1182 C   0  0  0  0  0  0  0  0  0  0  0  0
  145.5237  142.2066  155.8768 S   0  0  0  0  0  0  0  0  0  0  0  0
  146.4624  141.9071  154.4173 C   0  0  0  0  0  0  0  0  0  0  0  0
  147.4447  140.7813  154.2901 C   0  0  1  0  0  0  0  0  0  0  0  0
  147.1032  139.8476  153.1201 C   0  0  0  0  0  0  0  0  0  0  0  0
  148.9163  141.2527  154.2738 C   0  0  0  0  0  0  0  0  0  0  0  0
  149.2240  142.1357  155.3980 N   0  0  0  0  0  0  0  0  0  0  0  0
  150.2295  141.9606  156.2678 C   0  0  0  0  0  0  0  0  0  0  0  0
  150.9639  140.9727  156.2885 O   0  0  0  0  0  0  0  0  0  0  0  0
  150.3689  143.0143  157.0837 N   0  0  0  0  0  0  0  0  0  0  0  0
  151.4456  143.1813  158.0551 C   0  0  1  0  0  0  0  0  0  0  0  0
  151.1692  144.4119  158.9454 C   0  0  0  0  0  0  0  0  0  0  0  0
  152.3009  144.6772  159.9509 C   0  0  0  0  0  0  0  0  0  0  0  0
  152.5112  143.5039  160.9188 C   0  0  0  0  0  0  0  0  0  0  0  0
  152.9902  141.9964  160.0317 S   0  0  0  0  0  0  0  0  0  0  0  0
  151.5856  141.8956  158.8879 C   0  0  0  0  0  0  0  0  0  0  0  0
  146.2471  142.8157  153.4609 N   0  0  0  0  0  0  0  0  0  0  0  0
  144.1578  145.5025  153.2664 H   0  0  0  0  0  0  0  0  0  0  0  0
  144.7250  144.5214  151.9204 H   0  0  0  0  0  0  0  0  0  0  0  0
  145.8440  145.5839  152.7687 H   0  0  0  0  0  0  0  0  0  0  0  0
  144.1396  144.2352  155.6537 H   0  0  0  0  0  0  0  0  0  0  0  0
  147.3283  140.1817  155.1940 H   0  0  0  0  0  0  0  0  0  0  0  0
  146.0904  139.4547  153.2143 H   0  0  0  0  0  0  0  0  0  0  0  0
  147.7857  138.9984  153.0833 H   0  0  0  0  0  0  0  0  0  0  0  0
  147.1711  140.3689  152.1646 H   0  0  0  0  0  0  0  0  0  0  0  0
  149.5817  140.3907  154.3272 H   0  0  0  0  0  0  0  0  0  0  0  0
  149.1387  141.7477  153.3268 H   0  0  0  0  0  0  0  0  0  0  0  0
  148.6783  142.9816  155.4710 H   0  0  0  0  0  0  0  0  0  0  0  0
  149.7171  143.7793  156.9900 H   0  0  0  0  0  0  0  0  0  0  0  0
  152.3817  143.3371  157.5152 H   0  0  0  0  0  0  0  0  0  0  0  0
  151.0415  145.2980  158.3220 H   0  0  0  0  0  0  0  0  0  0  0  0
  150.2276  144.2807  159.4804 H   0  0  0  0  0  0  0  0  0  0  0  0
  153.2286  144.8851  159.4160 H   0  0  0  0  0  0  0  0  0  0  0  0
  152.0693  145.5766  160.5224 H   0  0  0  0  0  0  0  0  0  0  0  0
  153.2908  143.7455  161.6416 H   0  0  0  0  0  0  0  0  0  0  0  0
  151.5996  143.3093  161.4847 H   0  0  0  0  0  0  0  0  0  0  0  0
  150.6768  141.7077  159.4609 H   0  0  0  0  0  0  0  0  0  0  0  0
  151.7378  141.0342  158.2368 H   0  0  0  0  0  0  0  0  0  0  0  0
  1  2  1  0  0  0  0
  1 20  1  0  0  0  0
  1 21  1  0  0  0  0
  1 22  1  0  0  0  0
  2 19  1  0  0  0  0
  2  3  2  0  0  0  0
  3  4  1  0  0  0  0
  3 23  1  0  0  0  0
  4  5  1  0  0  0  0
  5  6  1  0  0  0  0
  5 19  2  0  0  0  0
  6  7  1  0  0  0  0
  6  8  1  0  0  0  0
  6 24  1  0  0  0  0
  7 25  1  0  0  0  0
  7 26  1  0  0  0  0
  7 27  1  0  0  0  0
  8  9  1  0  0  0  0
  8 28  1  0  0  0  0
  8 29  1  0  0  0  0
  9 10  1  0  0  0  0
  9 30  1  0  0  0  0
 10 11  2  0  0  0  0
 10 12  1  0  0  0  0
 12 13  1  0  0  0  0
 12 31  1  0  0  0  0
 13 18  1  0  0  0  0
 13 14  1  0  0  0  0
 13 32  1  0  0  0  0
 14 15  1  0  0  0  0
 14 33  1  0  0  0  0
 14 34  1  0  0  0  0
 15 16  1  0  0  0  0
 15 35  1  0  0  0  0
 15 36  1  0  0  0  0
 16 17  1  0  0  0  0
 16 37  1  0  0  0  0
 16 38  1  0  0  0  0
 17 18  1  0  0  0  0
 18 39  1  0  0  0  0
 18 40  1  0  0  0  0
M  END
> <s_m_source_file>
AV-unprocessed.smi

> <i_m_source_file_index>
2457

> <i_lp_mmshare_version>
43012

> <i_f3d_flags>
0

> <s_epik_input>
W0NIM11jMVtjSF1zYyhuMSlbQ0BIXShbQ0gzXSlbQ0gyXVtOSF1DKD1PKVtOSF1bQ0BASF0yW0NIMl1bQ0gyXVtDSDJdU1tDSDJdMg==

> <s_epik_cmdline>
J2VwaWtfcHl0aG9uJywgJy1waCcsICc3LjAnLCAnLXRuJywgJzgnLCAnLW1hJywgJzIwMCcsICctbWV0YWxfYmluZGluZycsICctaW1hZScsICc8aW5maWxlLm1hZT4nLCAnLW9tYWUnLCAnPG91dGZpbGUubWFlPic=

> <r_epik_Ionization_Penalty>
0.00154805

> <r_epik_Ionization_Penalty_Charging>
0

> <r_epik_Ionization_Penalty_Neutral>
0.00154805

> <r_epik_State_Penalty>
0.00100357

> <r_epik_Charging_Adjusted_Penalty>
0.00100357

> <i_epik_Tot_Q>
0

> <i_epik_Tot_abs_Q>
0

> <r_epik_Metal_State_Penalty>
-0

> <b_epik_Metal_Only>
0

> <s_lp_Force_Field>
OPLS_2005

> <r_lp_Energy>
-7.34104

> <b_lp_Chiralities_Consistent>
1

> <s_lp_Variant>
AV-unprocessed.smi:2457-4

> <Gold.Version>
5.8.1

> <Gold.Id.Protein>
6NUR|6NUR_protein|mol2

> <Gold.PLP.Fitness>
49.7833

> <Gold.PLP.PLP>
-45.2012

> <Gold.PLP.part.hbond>
-2.0000

> <Gold.PLP.part.metal>
0.0000

> <Gold.PLP.part.buried>
-4.8411

> <Gold.PLP.part.nonpolar>
-38.8367

> <Gold.PLP.part.repulsive>
0.4181

> <Gold.PLP.ligand.clash>
0.0000

> <Gold.PLP.ligand.torsion>
0.2187

> <Gold.PLP.Chemscore.Hbond>
1.6320

> <Gold.PLP.Chemscore.CHOScore>
0.0000

> <Gold.PLP.Chemscore.Metal>
0.0000

> <Gold.Chemscore.Hbonds>
donor molecule, donor type, donor heavy atom, donor atom, acceptor molecule, acceptor atom, score
      L1  H     9    30       P1  8028  0.83
      L1  H    12    31       P1  8028  0.80

> <Gold.PLP.Chemscore.Internal.Correction>
0.1235

> <Gold.Rescore>
     Score         DG    S(hbond)    S(metal)    S(lipo)     H(rot)  DE(clash)    DE(int)     intcor
     19.77     -21.33       1.78        0.00     116.54       1.46       0.07       1.49       ----

> <Gold.Chemscore.Fitness>
19.7738

> <Gold.Chemscore.DG>
-21.3336

> <Gold.Chemscore.ZeroCoef>
-5.4800

> <Gold.Chemscore.Hbond>
1.7843

> <Gold.Chemscore.Metal>
0.0000

> <Gold.Chemscore.Lipo>
116.5434

> <Gold.Chemscore.Internal_Hbond>
0.0000

> <Gold.Chemscore.DEClash>
0.0657

> <Gold.Chemscore.DEInternal>
1.4940

> <Gold.Chemscore.Rot>
1.4616

> <Gold.Chemscore.Internal.Correction>
   9.000000E+99

> <Gold.Chemscore.Hbonds>
donor molecule, donor type, donor heavy atom, donor atom, acceptor molecule, acceptor atom, score
      L1  H     9    30       P1  8028  0.81
      L1  H    12    31       P1  8028  0.74

> <Gold.Chemscore.Hbond.Weighted>
-5.9596

> <Gold.Chemscore.Metal.Weighted>
-0.0000

> <Gold.Chemscore.Lipo.Weighted>
-13.6356

> <Gold.Chemscore.Internal_Hbond.Weighted>
0.0000

> <Gold.Chemscore.DEClash.Weighted>
0.0657

> <Gold.Chemscore.DEInternal.Weighted>
1.4940

> <Gold.Chemscore.Rot.Weighted>
3.7416

> <Gold.Chemscore.Internal.Correction.Weighted>
   9.000000E+99

> <Gold.Protein.RotatedTorsions>
[ 6907 6896 6895 6894 ] final  -59.10 input  -60.11 | X-H torsion
[ 7974 7965 7964 7962 ] final  160.03 input  175.53 | X-H torsion
[ 8008 7997 7996 7995 ] final   14.13 input   59.86 | X-H torsion
[ 10167 10162 10161 10158 ] final   63.24 input  -65.29 | X-H torsion
[ 10718 10713 10712 10709 ] final -125.26 input   66.30 | X-H torsion
[ 10763 10752 10751 10750 ] final  -67.13 input  -60.55 | X-H torsion
[ 11005 11000 10999 10996 ] final  -95.42 input  -57.11 | X-H torsion

> <Gold.Protein.ActiveResidues>
 VAL166  LYS551  ARG553  GLY616  TRP617  ASP618  TYR619  PRO620  LYS621  CYS622 
 ASP623  PHE694  ASN695  SER759  ASP760  ASP761  ALA762  ILE779  LEU786  VAL792 
 PHE793  MET794  SER795  GLU796  ALA797  LYS798  CYS799  TRP800  GLU811  SER814 

> <Gold.Protein.RotatedAtoms>
  150.7956  134.7012  159.6550 H   0  0  0  0  0  0  0  0  0  0  0  0  # atno 6907 bound_to 6896
  152.4067  134.6191  160.0056 H   0  0  0  0  0  0  0  0  0  0  0  0  # atno 6908 bound_to 6896
  151.6446  133.3287  159.3174 H   0  0  0  0  0  0  0  0  0  0  0  0  # atno 6909 bound_to 6896
  144.7759  139.7700  143.6279 H   0  0  0  0  0  0  0  0  0  0  0  0  # atno 7974 bound_to 7965
  154.8442  140.2919  155.5639 H   0  0  0  0  0  0  0  0  0  0  0  0  # atno 8008 bound_to 7997
  156.3013  140.2508  156.3322 H   0  0  0  0  0  0  0  0  0  0  0  0  # atno 8009 bound_to 7997
  154.9092  140.0389  157.1926 H   0  0  0  0  0  0  0  0  0  0  0  0  # atno 8010 bound_to 7997
  140.1352  144.4606  150.6842 H   0  0  0  0  0  0  0  0  0  0  0  0  # atno 10167 bound_to 10162
  156.1660  130.6634  151.0115 H   0  0  0  0  0  0  0  0  0  0  0  0  # atno 10718 bound_to 10713
  154.3700  135.6097  153.5735 H   0  0  0  0  0  0  0  0  0  0  0  0  # atno 10763 bound_to 10752
  152.9790  135.5836  154.4532 H   0  0  0  0  0  0  0  0  0  0  0  0  # atno 10764 bound_to 10752
  154.4285  135.2847  155.1906 H   0  0  0  0  0  0  0  0  0  0  0  0  # atno 10765 bound_to 10752
  141.1442  133.8025  157.0433 H   0  0  0  0  0  0  0  0  0  0  0  0  # atno 11005 bound_to 11000
  146.1937  139.5191  142.9788 LP  0  0  0  0  0  0  0  0  0  0  0  0  # atno 17320 bound_to 7965
  145.6189  141.0326  143.1926 LP  0  0  0  0  0  0  0  0  0  0  0  0  # atno 17321 bound_to 7965
  140.6794  143.2319  151.5424 LP  0  0  0  0  0  0  0  0  0  0  0  0  # atno 17342 bound_to 10162
  139.5500  144.2421  152.1512 LP  0  0  0  0  0  0  0  0  0  0  0  0  # atno 17343 bound_to 10162
  157.6768  131.0848  150.7474 LP  0  0  0  0  0  0  0  0  0  0  0  0  # atno 17370 bound_to 10713
  156.7535  130.4776  149.5451 LP  0  0  0  0  0  0  0  0  0  0  0  0  # atno 17371 bound_to 10713
  140.0678  134.9719  157.1416 LP  0  0  0  0  0  0  0  0  0  0  0  0  # atno 17394 bound_to 11000
  140.3754  134.2345  155.7174 LP  0  0  0  0  0  0  0  0  0  0  0  0  # atno 17395 bound_to 11000

$$$$
