AV-unprocessed.smi:718|AV-procd|sdf|3491|dock5
  -GOLD-   22720 0483D 1   1.00000     0.00000
 Structure written by MMmdl.
 27 28  0  0  0  0  0  0  0  0  1 V2000
  151.2570  140.4942  155.2881 O   0  0  0  0  0  0  0  0  0  0  0  0
  151.4596  139.7407  156.2410 C   0  0  0  0  0  0  0  0  0  0  0  0
  151.6589  140.1566  157.5068 N   0  0  0  0  0  0  0  0  0  0  0  0
  151.6543  141.4835  158.0123 C   0  0  0  0  0  0  0  0  0  0  0  0
  152.1547  141.6244  159.3260 C   0  0  0  0  0  0  0  0  0  0  0  0
  152.1933  142.9004  159.9219 C   0  0  0  0  0  0  0  0  0  0  0  0
  152.8037  143.0829  161.5277 Cl  0  0  0  0  0  0  0  0  0  0  0  0
  151.7280  144.0072  159.1835 C   0  0  0  0  0  0  0  0  0  0  0  0
  151.7401  145.6053  159.8391 Cl  0  0  0  0  0  0  0  0  0  0  0  0
  151.2461  143.7780  157.8814 C   0  0  0  0  0  0  0  0  0  0  0  0
  151.2091  142.5555  157.3107 N   0  0  0  0  0  0  0  0  0  0  0  0
  151.5259  138.2220  156.0170 C   0  0  2  0  0  0  0  0  0  0  0  0
  151.5438  137.8358  154.5195 C   0  0  0  0  0  0  0  0  0  0  0  0
  151.5679  136.4195  154.3986 O   0  0  0  0  0  0  0  0  0  0  0  0
  150.4302  135.8273  155.0092 C   0  0  0  0  0  0  0  0  0  0  0  0
  150.4164  136.1977  156.5010 C   0  0  0  0  0  0  0  0  0  0  0  0
  150.3887  137.6132  156.6257 O   0  0  0  0  0  0  0  0  0  0  0  0
  151.8209  139.4303  158.1890 H   0  0  0  0  0  0  0  0  0  0  0  0
  152.5071  140.7637  159.8759 H   0  0  0  0  0  0  0  0  0  0  0  0
  150.8803  144.5968  157.2796 H   0  0  0  0  0  0  0  0  0  0  0  0
  152.4324  137.8567  156.5027 H   0  0  0  0  0  0  0  0  0  0  0  0
  150.6758  138.2403  153.9957 H   0  0  0  0  0  0  0  0  0  0  0  0
  152.4312  138.2351  154.0273 H   0  0  0  0  0  0  0  0  0  0  0  0
  149.5174  136.1639  154.5152 H   0  0  0  0  0  0  0  0  0  0  0  0
  150.4826  134.7456  154.8868 H   0  0  0  0  0  0  0  0  0  0  0  0
  149.5343  135.7800  156.9868 H   0  0  0  0  0  0  0  0  0  0  0  0
  151.2898  135.7903  157.0126 H   0  0  0  0  0  0  0  0  0  0  0  0
  1  2  2  0  0  0  0
  2  3  1  0  0  0  0
  2 12  1  0  0  0  0
  3  4  1  0  0  0  0
  3 18  1  0  0  0  0
  4 11  1  0  0  0  0
  4  5  2  0  0  0  0
  5  6  1  0  0  0  0
  5 19  1  0  0  0  0
  6  7  1  0  0  0  0
  6  8  2  0  0  0  0
  8  9  1  0  0  0  0
  8 10  1  0  0  0  0
 10 11  2  0  0  0  0
 10 20  1  0  0  0  0
 12 17  1  0  0  0  0
 12 13  1  0  0  0  0
 12 21  1  0  0  0  0
 13 14  1  0  0  0  0
 13 22  1  0  0  0  0
 13 23  1  0  0  0  0
 14 15  1  0  0  0  0
 15 16  1  0  0  0  0
 15 24  1  0  0  0  0
 15 25  1  0  0  0  0
 16 17  1  0  0  0  0
 16 26  1  0  0  0  0
 16 27  1  0  0  0  0
M  END
> <s_m_source_file>
AV-unprocessed.smi

> <i_m_source_file_index>
718

> <i_lp_mmshare_version>
43012

> <i_f3d_flags>
0

> <s_epik_input>
TzFbQ0gyXVtDSDJdT1tDSDJdW0NASF0xQyg9TylbTkhdYzJbY0hdYyhDbCljKENsKVtjSF1uMg==

> <s_epik_cmdline>
J2VwaWtfcHl0aG9uJywgJy1waCcsICc3LjAnLCAnLXRuJywgJzgnLCAnLW1hJywgJzIwMCcsICctbWV0YWxfYmluZGluZycsICctaW1hZScsICc8aW5maWxlLm1hZT4nLCAnLW9tYWUnLCAnPG91dGZpbGUubWFlPic=

> <r_lp_tautomer_probability>
1

> <r_epik_Ionization_Penalty>
4.81693e-06

> <r_epik_Ionization_Penalty_Charging>
0

> <r_epik_Ionization_Penalty_Neutral>
4.81693e-06

> <r_epik_State_Penalty>
-0

> <r_epik_Charging_Adjusted_Penalty>
0

> <i_epik_Tot_Q>
0

> <i_epik_Tot_abs_Q>
0

> <r_epik_Metal_State_Penalty>
-0

> <b_epik_Metal_Only>
0

> <s_lp_Force_Field>
OPLS_2005

> <r_lp_Energy>
11.6855

> <b_lp_Chiralities_Consistent>
1

> <s_lp_Variant>
AV-unprocessed.smi:718-1

> <Gold.Version>
5.8.1

> <Gold.Id.Protein>
6NUR|6NUR_protein|mol2

> <Gold.PLP.Fitness>
42.8963

> <Gold.PLP.PLP>
-34.5367

> <Gold.PLP.part.hbond>
-2.0000

> <Gold.PLP.part.metal>
0.0000

> <Gold.PLP.part.buried>
-5.5486

> <Gold.PLP.part.nonpolar>
-28.9703

> <Gold.PLP.part.repulsive>
1.4141

> <Gold.PLP.ligand.clash>
0.0000

> <Gold.PLP.ligand.torsion>
0.2031

> <Gold.PLP.Chemscore.Hbond>
1.9280

> <Gold.PLP.Chemscore.CHOScore>
0.9934

> <Gold.PLP.Chemscore.Metal>
0.0000

> <Gold.Chemscore.Hbonds>
donor molecule, donor type, donor heavy atom, donor atom, acceptor molecule, acceptor atom, score
      P1  H  7989  7998       L1     1  0.93
      P1  H 10752 10765       L1    14  1.00
      L1  C    10    20       P1  8028  0.99

> <Gold.PLP.Chemscore.Internal.Correction>
0.0018

> <Gold.Rescore>
     Score         DG    S(hbond)    S(metal)    S(lipo)     H(rot)  DE(clash)    DE(int)     intcor
     17.60     -19.75       1.85        0.00      91.05       1.00       0.65       1.50       ----

> <Gold.Chemscore.Fitness>
17.5960

> <Gold.Chemscore.DG>
-19.7483

> <Gold.Chemscore.ZeroCoef>
-5.4800

> <Gold.Chemscore.Hbond>
1.8489

> <Gold.Chemscore.Metal>
0.0000

> <Gold.Chemscore.Lipo>
91.0526

> <Gold.Chemscore.Internal_Hbond>
0.0000

> <Gold.Chemscore.DEClash>
0.6500

> <Gold.Chemscore.DEInternal>
1.5023

> <Gold.Chemscore.Rot>
1.0000

> <Gold.Chemscore.Internal.Correction>
   9.000000E+99

> <Gold.Chemscore.Hbonds>
donor molecule, donor type, donor heavy atom, donor atom, acceptor molecule, acceptor atom, score
      P1  H  7989  7998       L1     1  0.90
      P1  H 10752 10765       L1    14  0.87

> <Gold.Chemscore.Hbond.Weighted>
-6.1752

> <Gold.Chemscore.Metal.Weighted>
-0.0000

> <Gold.Chemscore.Lipo.Weighted>
-10.6532

> <Gold.Chemscore.Internal_Hbond.Weighted>
0.0000

> <Gold.Chemscore.DEClash.Weighted>
0.6500

> <Gold.Chemscore.DEInternal.Weighted>
1.5023

> <Gold.Chemscore.Rot.Weighted>
2.5600

> <Gold.Chemscore.Internal.Correction.Weighted>
   9.000000E+99

> <Gold.Protein.RotatedTorsions>
[ 6907 6896 6895 6894 ] final  112.14 input  -60.11 | X-H torsion
[ 7974 7965 7964 7962 ] final   91.21 input  175.53 | X-H torsion
[ 8008 7997 7996 7995 ] final  143.44 input   59.86 | X-H torsion
[ 10167 10162 10161 10158 ] final -166.38 input  -65.29 | X-H torsion
[ 10718 10713 10712 10709 ] final -174.24 input   66.30 | X-H torsion
[ 10763 10752 10751 10750 ] final -179.18 input  -60.55 | X-H torsion
[ 11005 11000 10999 10996 ] final  -87.55 input  -57.11 | X-H torsion

> <Gold.Protein.ActiveResidues>
 VAL166  LYS551  ARG553  GLY616  TRP617  ASP618  TYR619  PRO620  LYS621  CYS622 
 ASP623  PHE694  ASN695  SER759  ASP760  ASP761  ALA762  ILE779  LEU786  VAL792 
 PHE793  MET794  SER795  GLU796  ALA797  LYS798  CYS799  TRP800  GLU811  SER814 

> <Gold.Protein.RotatedAtoms>
  152.4932  133.8557  159.7224 H   0  0  0  0  0  0  0  0  0  0  0  0  # atno 6907 bound_to 6896
  150.9082  133.7021  159.2868 H   0  0  0  0  0  0  0  0  0  0  0  0  # atno 6908 bound_to 6896
  151.4440  135.1027  159.9731 H   0  0  0  0  0  0  0  0  0  0  0  0  # atno 6909 bound_to 6896
  145.5086  139.2276  143.2737 H   0  0  0  0  0  0  0  0  0  0  0  0  # atno 7974 bound_to 7965
  156.2930  140.2262  156.4891 H   0  0  0  0  0  0  0  0  0  0  0  0  # atno 8008 bound_to 7997
  154.7786  140.0462  157.1130 H   0  0  0  0  0  0  0  0  0  0  0  0  # atno 8009 bound_to 7997
  154.9786  140.3075  155.4959 H   0  0  0  0  0  0  0  0  0  0  0  0  # atno 8010 bound_to 7997
  139.6119  144.0798  152.1850 H   0  0  0  0  0  0  0  0  0  0  0  0  # atno 10167 bound_to 10162
  156.7822  130.9487  151.3120 H   0  0  0  0  0  0  0  0  0  0  0  0  # atno 10718 bound_to 10713
  154.5383  135.2804  155.1119 H   0  0  0  0  0  0  0  0  0  0  0  0  # atno 10763 bound_to 10752
  154.2611  135.6321  153.5279 H   0  0  0  0  0  0  0  0  0  0  0  0  # atno 10764 bound_to 10752
  152.9973  135.5606  154.5915 H   0  0  0  0  0  0  0  0  0  0  0  0  # atno 10765 bound_to 10752
  141.1615  133.7518  156.9323 H   0  0  0  0  0  0  0  0  0  0  0  0  # atno 11005 bound_to 11000
  146.2181  140.5892  142.9029 LP  0  0  0  0  0  0  0  0  0  0  0  0  # atno 17320 bound_to 7965
  144.7740  140.5699  143.6651 LP  0  0  0  0  0  0  0  0  0  0  0  0  # atno 17321 bound_to 7965
  140.0419  144.6001  150.7404 LP  0  0  0  0  0  0  0  0  0  0  0  0  # atno 17342 bound_to 10162
  140.7324  143.2706  151.3902 LP  0  0  0  0  0  0  0  0  0  0  0  0  # atno 17343 bound_to 10162
  157.6641  130.8992  149.9893 LP  0  0  0  0  0  0  0  0  0  0  0  0  # atno 17370 bound_to 10713
  156.1211  130.3646  149.9886 LP  0  0  0  0  0  0  0  0  0  0  0  0  # atno 17371 bound_to 10713
  140.1378  134.9314  157.2425 LP  0  0  0  0  0  0  0  0  0  0  0  0  # atno 17394 bound_to 11000
  140.2874  134.3280  155.7325 LP  0  0  0  0  0  0  0  0  0  0  0  0  # atno 17395 bound_to 11000

$$$$
