AV-unprocessed.smi:1389|AV-procd|sdf|5653|dock8
  -GOLD-   22720 5273D 1   1.00000     0.00000
 Structure written by MMmdl.
 53 55  0  0  0  0  0  0  0  0  3 V2000
  147.7992  135.8086  155.4277 C   0  0  0  0  0  0  0  0  0  0  0  0
  149.3377  135.9212  155.3539 C   0  0  1  0  0  0  0  0  0  0  0  0
  149.9323  134.6193  154.7533 C   0  0  0  0  0  0  0  0  0  0  0  0
  149.0199  133.9158  153.8514 N   0  0  0  0  0  0  0  0  0  0  0  0
  148.6603  132.6289  153.9650 C   0  0  0  0  0  0  0  0  0  0  0  0
  149.0175  131.9019  154.8912 O   0  0  0  0  0  0  0  0  0  0  0  0
  147.8892  132.2407  152.9351 N   0  0  0  0  0  0  0  0  0  0  0  0
  147.3842  130.9350  152.6724 C   0  0  0  0  0  0  0  0  0  0  0  0
  148.0416  129.7815  153.1727 C   0  0  0  0  0  0  0  0  0  0  0  0
  147.5369  128.5008  152.8788 C   0  0  0  0  0  0  0  0  0  0  0  0
  146.3780  128.3912  152.0919 C   0  0  0  0  0  0  0  0  0  0  0  0
  145.7635  129.5070  151.6481 N   0  3  0  0  0  0  0  0  0  0  0  0
  146.1917  130.7676  151.9091 C   0  0  0  0  0  0  0  0  0  0  0  0
  145.4366  131.8418  151.3855 N   0  0  0  0  0  0  0  0  0  0  0  0
  145.3120  132.0227  149.9437 C   0  0  0  0  0  0  0  0  0  0  0  0
  144.1727  133.0228  149.7675 C   0  0  0  0  0  0  0  0  0  0  0  0
  143.2319  132.6512  150.9095 C   0  0  0  0  0  0  0  0  0  0  0  0
  144.1779  132.2039  152.0294 C   0  0  0  0  0  0  0  0  0  0  0  0
  149.7875  137.1597  154.6377 N   0  3  0  0  0  0  0  0  0  0  0  0
  149.0559  138.3901  155.0494 C   0  0  0  0  0  0  0  0  0  0  0  0
  149.5553  139.6252  154.2811 C   0  0  0  0  0  0  0  0  0  0  0  0
  150.9526  139.7796  154.4749 O   0  0  0  0  0  0  0  0  0  0  0  0
  151.6708  138.6637  153.9723 C   0  0  0  0  0  0  0  0  0  0  0  0
  151.2549  137.3948  154.7350 C   0  0  0  0  0  0  0  0  0  0  0  0
  147.4953  134.8414  155.8290 H   0  0  0  0  0  0  0  0  0  0  0  0
  147.3401  135.9155  154.4445 H   0  0  0  0  0  0  0  0  0  0  0  0
  147.3642  136.5588  156.0879 H   0  0  0  0  0  0  0  0  0  0  0  0
  149.6971  135.9906  156.3819 H   0  0  0  0  0  0  0  0  0  0  0  0
  150.8388  134.8451  154.1922 H   0  0  0  0  0  0  0  0  0  0  0  0
  150.2684  133.9546  155.5511 H   0  0  0  0  0  0  0  0  0  0  0  0
  148.6847  134.4334  153.0520 H   0  0  0  0  0  0  0  0  0  0  0  0
  147.7599  132.9157  152.1958 H   0  0  0  0  0  0  0  0  0  0  0  0
  148.9284  129.8605  153.7835 H   0  0  0  0  0  0  0  0  0  0  0  0
  148.0338  127.6163  153.2501 H   0  0  0  0  0  0  0  0  0  0  0  0
  145.9211  127.4527  151.8123 H   0  0  0  0  0  0  0  0  0  0  0  0
  146.2416  132.3864  149.5049 H   0  0  0  0  0  0  0  0  0  0  0  0
  145.0486  131.0802  149.4617 H   0  0  0  0  0  0  0  0  0  0  0  0
  144.5425  134.0398  149.9053 H   0  0  0  0  0  0  0  0  0  0  0  0
  143.7009  132.9619  148.7865 H   0  0  0  0  0  0  0  0  0  0  0  0
  142.5789  133.4718  151.2081 H   0  0  0  0  0  0  0  0  0  0  0  0
  142.6011  131.8149  150.6046 H   0  0  0  0  0  0  0  0  0  0  0  0
  143.7537  131.3766  152.6000 H   0  0  0  0  0  0  0  0  0  0  0  0
  144.3611  133.0324  152.7141 H   0  0  0  0  0  0  0  0  0  0  0  0
  147.9888  138.2931  154.8551 H   0  0  0  0  0  0  0  0  0  0  0  0
  149.1774  138.5451  156.1225 H   0  0  0  0  0  0  0  0  0  0  0  0
  149.3284  139.5413  153.2170 H   0  0  0  0  0  0  0  0  0  0  0  0
  149.0496  140.5205  154.6432 H   0  0  0  0  0  0  0  0  0  0  0  0
  151.4953  138.5513  152.9010 H   0  0  0  0  0  0  0  0  0  0  0  0
  152.7380  138.8454  154.1016 H   0  0  0  0  0  0  0  0  0  0  0  0
  151.5417  137.4819  155.7842 H   0  0  0  0  0  0  0  0  0  0  0  0
  151.8130  136.5581  154.3185 H   0  0  0  0  0  0  0  0  0  0  0  0
  149.5800  137.0185  153.6594 H   0  0  0  0  0  0  0  0  0  0  0  0
  144.9190  129.3944  151.0871 H   0  0  0  0  0  0  0  0  0  0  0  0
  1  2  1  0  0  0  0
  1 25  1  0  0  0  0
  1 26  1  0  0  0  0
  1 27  1  0  0  0  0
  2  3  1  0  0  0  0
  2 19  1  0  0  0  0
  2 28  1  0  0  0  0
  3  4  1  0  0  0  0
  3 29  1  0  0  0  0
  3 30  1  0  0  0  0
  4  5  1  0  0  0  0
  4 31  1  0  0  0  0
  5  6  2  0  0  0  0
  5  7  1  0  0  0  0
  7  8  1  0  0  0  0
  7 32  1  0  0  0  0
  8 13  1  0  0  0  0
  8  9  2  0  0  0  0
  9 10  1  0  0  0  0
  9 33  1  0  0  0  0
 10 11  2  0  0  0  0
 10 34  1  0  0  0  0
 11 12  1  0  0  0  0
 11 35  1  0  0  0  0
 12 13  2  0  0  0  0
 12 53  1  0  0  0  0
 13 14  1  0  0  0  0
 14 18  1  0  0  0  0
 14 15  1  0  0  0  0
 15 16  1  0  0  0  0
 15 36  1  0  0  0  0
 15 37  1  0  0  0  0
 16 17  1  0  0  0  0
 16 38  1  0  0  0  0
 16 39  1  0  0  0  0
 17 18  1  0  0  0  0
 17 40  1  0  0  0  0
 17 41  1  0  0  0  0
 18 42  1  0  0  0  0
 18 43  1  0  0  0  0
 19 24  1  0  0  0  0
 19 20  1  0  0  0  0
 19 52  1  0  0  0  0
 20 21  1  0  0  0  0
 20 44  1  0  0  0  0
 20 45  1  0  0  0  0
 21 22  1  0  0  0  0
 21 46  1  0  0  0  0
 21 47  1  0  0  0  0
 22 23  1  0  0  0  0
 23 24  1  0  0  0  0
 23 48  1  0  0  0  0
 23 49  1  0  0  0  0
 24 50  1  0  0  0  0
 24 51  1  0  0  0  0
M  CHG  1  12   1
M  CHG  1  19   1
M  END
> <s_m_source_file>
AV-unprocessed.smi

> <i_m_source_file_index>
1389

> <i_lp_mmshare_version>
43012

> <i_f3d_flags>
0

> <s_epik_input>
W0NIMl0xW0NIMl1PW0NIMl1bQ0gyXU4xW0NASF0oW0NIM10pW0NIMl1bTkhdQyg9TylbTkhdYzJbY0hdW2NIXVtjSF1uYzJOM1tDSDJdW0NIMl1bQ0gyXVtDSDJdMw==

> <s_epik_cmdline>
J2VwaWtfcHl0aG9uJywgJy1waCcsICc3LjAnLCAnLXRuJywgJzgnLCAnLW1hJywgJzIwMCcsICctbWV0YWxfYmluZGluZycsICctaW1hZScsICc8aW5maWxlLm1hZT4nLCAnLW9tYWUnLCAnPG91dGZpbGUubWFlPic=

> <r_lp_tautomer_probability>
0.999994

> <r_epik_Ionization_Penalty>
1.80872

> <r_epik_Ionization_Penalty_Charging>
1.8087

> <r_epik_Ionization_Penalty_Neutral>
2.02981e-05

> <r_epik_State_Penalty>
1.84892

> <r_epik_Charging_Adjusted_Penalty>
3.65762

> <i_epik_Tot_Q>
2

> <i_epik_Tot_abs_Q>
2

> <r_epik_Metal_State_Penalty>
1.9311

> <b_epik_Metal_Only>
0

> <s_lp_Force_Field>
OPLS_2005

> <r_lp_Energy>
68.1678

> <b_lp_Chiralities_Consistent>
1

> <s_lp_Variant>
AV-unprocessed.smi:1389-8

> <Gold.Version>
5.8.1

> <Gold.Id.Protein>
6NUR|6NUR_protein|mol2

> <Gold.PLP.Fitness>
45.3376

> <Gold.PLP.PLP>
-36.2060

> <Gold.PLP.part.hbond>
-3.5005

> <Gold.PLP.part.metal>
0.0000

> <Gold.PLP.part.buried>
0.7753

> <Gold.PLP.part.nonpolar>
-32.5172

> <Gold.PLP.part.repulsive>
0.2989

> <Gold.PLP.ligand.clash>
0.0337

> <Gold.PLP.ligand.torsion>
0.9574

> <Gold.PLP.Chemscore.Hbond>
3.5441

> <Gold.PLP.Chemscore.CHOScore>
0.0000

> <Gold.PLP.Chemscore.Metal>
0.0000

> <Gold.Chemscore.Hbonds>
donor molecule, donor type, donor heavy atom, donor atom, acceptor molecule, acceptor atom, score
      L1  H     4    31       P1  7948  0.55
      L1  H    19    52       P1  7948  2.00
      P1  H  7989  7998       L1    22  0.75

> <Gold.PLP.Chemscore.Internal.Correction>
0.4478

> <Gold.Rescore>
     Score         DG    S(hbond)    S(metal)    S(lipo)     H(rot)  DE(clash)    DE(int)     intcor
     14.50     -17.23       1.17        0.00     103.37       1.66       0.50       2.22       ----

> <Gold.Chemscore.Fitness>
14.5008

> <Gold.Chemscore.DG>
-17.2284

> <Gold.Chemscore.ZeroCoef>
-5.4800

> <Gold.Chemscore.Hbond>
1.1703

> <Gold.Chemscore.Metal>
0.0000

> <Gold.Chemscore.Lipo>
103.3687

> <Gold.Chemscore.Internal_Hbond>
0.0000

> <Gold.Chemscore.DEClash>
0.5027

> <Gold.Chemscore.DEInternal>
2.2248

> <Gold.Chemscore.Rot>
1.6620

> <Gold.Chemscore.Internal.Correction>
   9.000000E+99

> <Gold.Chemscore.Hbonds>
donor molecule, donor type, donor heavy atom, donor atom, acceptor molecule, acceptor atom, score
      L1  H     4    31       P1  7948  0.08
      L1  H    19    52       P1  7948  0.77
      P1  H  7989  7998       L1    22  0.08

> <Gold.Chemscore.Hbond.Weighted>
-3.9089

> <Gold.Chemscore.Metal.Weighted>
-0.0000

> <Gold.Chemscore.Lipo.Weighted>
-12.0941

> <Gold.Chemscore.Internal_Hbond.Weighted>
0.0000

> <Gold.Chemscore.DEClash.Weighted>
0.5027

> <Gold.Chemscore.DEInternal.Weighted>
2.2248

> <Gold.Chemscore.Rot.Weighted>
4.2547

> <Gold.Chemscore.Internal.Correction.Weighted>
   9.000000E+99

> <Gold.Protein.RotatedTorsions>
[ 6907 6896 6895 6894 ] final  128.76 input  -60.11 | X-H torsion
[ 7974 7965 7964 7962 ] final   73.07 input  175.53 | X-H torsion
[ 8008 7997 7996 7995 ] final  -60.49 input   59.86 | X-H torsion
[ 10167 10162 10161 10158 ] final -108.56 input  -65.29 | X-H torsion
[ 10718 10713 10712 10709 ] final -153.15 input   66.30 | X-H torsion
[ 10763 10752 10751 10750 ] final   95.33 input  -60.55 | X-H torsion
[ 11005 11000 10999 10996 ] final  136.03 input  -57.11 | X-H torsion

> <Gold.Protein.ActiveResidues>
 VAL166  LYS551  ARG553  GLY616  TRP617  ASP618  TYR619  PRO620  LYS621  CYS622 
 ASP623  PHE694  ASN695  SER759  ASP760  ASP761  ALA762  ILE779  LEU786  VAL792 
 PHE793  MET794  SER795  GLU796  ALA797  LYS798  CYS799  TRP800  GLU811  SER814 

> <Gold.Protein.RotatedAtoms>
  152.3688  133.6392  159.6071 H   0  0  0  0  0  0  0  0  0  0  0  0  # atno 6907 bound_to 6896
  150.7654  133.9304  159.3434 H   0  0  0  0  0  0  0  0  0  0  0  0  # atno 6908 bound_to 6896
  151.7130  135.0910  160.0322 H   0  0  0  0  0  0  0  0  0  0  0  0  # atno 6909 bound_to 6896
  145.7454  139.2738  143.1462 H   0  0  0  0  0  0  0  0  0  0  0  0  # atno 7974 bound_to 7965
  154.4401  140.1038  156.6281 H   0  0  0  0  0  0  0  0  0  0  0  0  # atno 8008 bound_to 7997
  155.5634  140.3488  155.4478 H   0  0  0  0  0  0  0  0  0  0  0  0  # atno 8009 bound_to 7997
  156.0443  140.1289  157.0111 H   0  0  0  0  0  0  0  0  0  0  0  0  # atno 8010 bound_to 7997
  140.1648  143.4090  152.1398 H   0  0  0  0  0  0  0  0  0  0  0  0  # atno 10167 bound_to 10162
  156.4820  130.8308  151.2534 H   0  0  0  0  0  0  0  0  0  0  0  0  # atno 10718 bound_to 10713
  153.2519  135.4258  155.0806 H   0  0  0  0  0  0  0  0  0  0  0  0  # atno 10763 bound_to 10752
  154.8385  135.3428  154.6500 H   0  0  0  0  0  0  0  0  0  0  0  0  # atno 10764 bound_to 10752
  153.6921  135.7033  153.5144 H   0  0  0  0  0  0  0  0  0  0  0  0  # atno 10765 bound_to 10752
  140.0019  134.9475  157.0090 H   0  0  0  0  0  0  0  0  0  0  0  0  # atno 11005 bound_to 11000
  146.0407  140.8167  142.9830 LP  0  0  0  0  0  0  0  0  0  0  0  0  # atno 17320 bound_to 7965
  144.6861  140.2906  143.7278 LP  0  0  0  0  0  0  0  0  0  0  0  0  # atno 17321 bound_to 7965
  139.5364  144.7214  151.4878 LP  0  0  0  0  0  0  0  0  0  0  0  0  # atno 17342 bound_to 10162
  140.6620  143.8479  150.6898 LP  0  0  0  0  0  0  0  0  0  0  0  0  # atno 17343 bound_to 10162
  157.7482  131.0042  150.3065 LP  0  0  0  0  0  0  0  0  0  0  0  0  # atno 17370 bound_to 10713
  156.3512  130.3831  149.7328 LP  0  0  0  0  0  0  0  0  0  0  0  0  # atno 17371 bound_to 10713
  140.4713  134.1384  155.7203 LP  0  0  0  0  0  0  0  0  0  0  0  0  # atno 17394 bound_to 11000
  141.1648  133.8724  157.1746 LP  0  0  0  0  0  0  0  0  0  0  0  0  # atno 17395 bound_to 11000

$$$$
