AV-unprocessed.smi:2084|AV-procd|sdf|8514|dock3
  -GOLD-   2272011233D 1   1.00000     0.00000
 Structure written by MMmdl.
 39 40  0  0  0  0  0  0  0  0  2 V2000
  149.5891  136.9904  155.0405 C   0  0  0  0  0  0  0  0  0  0  0  0
  149.3225  138.0674  154.0467 N   0  3  0  0  0  0  0  0  0  0  0  0
  150.4519  139.0327  154.0249 C   0  0  0  0  0  0  0  0  0  0  0  0
  147.9491  138.6911  154.0920 C   0  0  0  0  0  0  0  0  0  0  0  0
  146.8668  137.5745  154.2424 C   0  0  0  0  0  0  0  0  0  0  0  0
  146.8954  136.5756  153.1726 N   0  0  0  0  0  0  0  0  0  0  0  0
  145.9291  135.6850  152.9063 C   0  0  0  0  0  0  0  0  0  0  0  0
  144.8810  135.6075  153.5464 O   0  0  0  0  0  0  0  0  0  0  0  0
  146.2582  134.9128  151.8585 N   0  0  0  0  0  0  0  0  0  0  0  0
  145.5006  133.8626  151.2833 C   0  0  0  0  0  0  0  0  0  0  0  0
  146.0970  133.0337  150.4245 N   0  0  0  0  0  0  0  0  0  0  0  0
  145.2212  132.0542  149.9469 C   0  0  0  0  0  0  0  0  0  0  0  0
  143.9513  132.1520  150.4593 C   0  0  0  0  0  0  0  0  0  0  0  0
  143.7993  133.4876  151.5686 S   0  0  0  0  0  0  0  0  0  0  0  0
  147.8378  139.6867  155.2875 C   0  0  0  0  0  0  0  0  0  0  0  0
  147.7482  141.0910  154.6857 C   0  0  0  0  0  0  0  0  0  0  0  0
  147.0717  140.8772  153.3370 C   0  0  0  0  0  0  0  0  0  0  0  0
  147.6575  139.5575  152.8319 C   0  0  0  0  0  0  0  0  0  0  0  0
  149.7033  137.3820  156.0506 H   0  0  0  0  0  0  0  0  0  0  0  0
  150.5209  136.4825  154.7894 H   0  0  0  0  0  0  0  0  0  0  0  0
  148.8225  136.2190  155.0629 H   0  0  0  0  0  0  0  0  0  0  0  0
  150.4021  139.7246  154.8660 H   0  0  0  0  0  0  0  0  0  0  0  0
  150.4781  139.6064  153.0997 H   0  0  0  0  0  0  0  0  0  0  0  0
  151.4085  138.5118  154.0813 H   0  0  0  0  0  0  0  0  0  0  0  0
  147.0234  137.0007  155.1548 H   0  0  0  0  0  0  0  0  0  0  0  0
  145.8789  138.0291  154.3352 H   0  0  0  0  0  0  0  0  0  0  0  0
  147.7192  136.5631  152.5888 H   0  0  0  0  0  0  0  0  0  0  0  0
  147.1497  135.0943  151.4217 H   0  0  0  0  0  0  0  0  0  0  0  0
  145.5871  131.3228  149.2416 H   0  0  0  0  0  0  0  0  0  0  0  0
  143.0993  131.5218  150.2515 H   0  0  0  0  0  0  0  0  0  0  0  0
  146.9323  139.5168  155.8680 H   0  0  0  0  0  0  0  0  0  0  0  0
  148.6430  139.5979  156.0163 H   0  0  0  0  0  0  0  0  0  0  0  0
  147.2010  141.7857  155.3236 H   0  0  0  0  0  0  0  0  0  0  0  0
  148.7483  141.4987  154.5343 H   0  0  0  0  0  0  0  0  0  0  0  0
  145.9944  140.7798  153.4767 H   0  0  0  0  0  0  0  0  0  0  0  0
  147.2430  141.7033  152.6462 H   0  0  0  0  0  0  0  0  0  0  0  0
  148.5616  139.7810  152.2689 H   0  0  0  0  0  0  0  0  0  0  0  0
  146.9863  139.0661  152.1264 H   0  0  0  0  0  0  0  0  0  0  0  0
  149.3599  137.6002  153.1516 H   0  0  0  0  0  0  0  0  0  0  0  0
  1  2  1  0  0  0  0
  1 19  1  0  0  0  0
  1 20  1  0  0  0  0
  1 21  1  0  0  0  0
  2  3  1  0  0  0  0
  2  4  1  0  0  0  0
  2 39  1  0  0  0  0
  3 22  1  0  0  0  0
  3 23  1  0  0  0  0
  3 24  1  0  0  0  0
  4 18  1  0  0  0  0
  4  5  1  0  0  0  0
  4 15  1  0  0  0  0
  5  6  1  0  0  0  0
  5 25  1  0  0  0  0
  5 26  1  0  0  0  0
  6  7  1  0  0  0  0
  6 27  1  0  0  0  0
  7  8  2  0  0  0  0
  7  9  1  0  0  0  0
  9 10  1  0  0  0  0
  9 28  1  0  0  0  0
 10 14  1  0  0  0  0
 10 11  2  0  0  0  0
 11 12  1  0  0  0  0
 12 13  2  0  0  0  0
 12 29  1  0  0  0  0
 13 14  1  0  0  0  0
 13 30  1  0  0  0  0
 15 16  1  0  0  0  0
 15 31  1  0  0  0  0
 15 32  1  0  0  0  0
 16 17  1  0  0  0  0
 16 33  1  0  0  0  0
 16 34  1  0  0  0  0
 17 18  1  0  0  0  0
 17 35  1  0  0  0  0
 17 36  1  0  0  0  0
 18 37  1  0  0  0  0
 18 38  1  0  0  0  0
M  CHG  1   2   1
M  END
> <s_m_source_file>
AV-unprocessed.smi

> <i_m_source_file_index>
2084

> <i_lp_mmshare_version>
43012

> <i_f3d_flags>
0

> <s_epik_input>
W0NIMl0xW0NIMl1bQ0gyXVtDSDJdQzEoTihbQ0gzXSlbQ0gzXSlbQ0gyXVtOSF1DKD1PKVtOSF1jMm5bY0hdW2NIXXMy

> <s_epik_cmdline>
J2VwaWtfcHl0aG9uJywgJy1waCcsICc3LjAnLCAnLXRuJywgJzgnLCAnLW1hJywgJzIwMCcsICctbWV0YWxfYmluZGluZycsICctaW1hZScsICc8aW5maWxlLm1hZT4nLCAnLW9tYWUnLCAnPG91dGZpbGUubWFlPic=

> <r_lp_tautomer_probability>
1

> <r_epik_Ionization_Penalty>
0.0027968

> <r_epik_Ionization_Penalty_Charging>
0.00256589

> <r_epik_Ionization_Penalty_Neutral>
0.000230907

> <r_epik_State_Penalty>
-0

> <r_epik_Charging_Adjusted_Penalty>
0.00256589

> <i_epik_Tot_Q>
1

> <i_epik_Tot_abs_Q>
1

> <r_epik_Metal_State_Penalty>
0.0129581

> <b_epik_Metal_Only>
0

> <s_lp_Force_Field>
OPLS_2005

> <r_lp_Energy>
35.9551

> <b_lp_Chiralities_Consistent>
1

> <s_lp_Variant>
AV-unprocessed.smi:2084-1

> <Gold.Version>
5.8.1

> <Gold.Id.Protein>
6NUR|6NUR_protein|mol2

> <Gold.PLP.Fitness>
38.7050

> <Gold.PLP.PLP>
-25.9851

> <Gold.PLP.part.hbond>
-2.9823

> <Gold.PLP.part.metal>
0.0000

> <Gold.PLP.part.buried>
-1.6199

> <Gold.PLP.part.nonpolar>
-21.8174

> <Gold.PLP.part.repulsive>
0.2936

> <Gold.PLP.ligand.clash>
0.0000

> <Gold.PLP.ligand.torsion>
0.3276

> <Gold.PLP.Chemscore.Hbond>
3.4906

> <Gold.PLP.Chemscore.CHOScore>
0.9281

> <Gold.PLP.Chemscore.Metal>
0.0000

> <Gold.Chemscore.Hbonds>
donor molecule, donor type, donor heavy atom, donor atom, acceptor molecule, acceptor atom, score
      L1  H     2    39       P1  7948  2.00
      L1  H     6    27       P1  7948  0.84
      L1  H     9    28       P1  7948  0.60
      L1  C    13    30       P1 10952  0.69

> <Gold.PLP.Chemscore.Internal.Correction>
0.1191

> <Gold.Rescore>
     Score         DG    S(hbond)    S(metal)    S(lipo)     H(rot)  DE(clash)    DE(int)     intcor
     16.90     -17.19       2.56        0.00      61.73       1.59       0.02       0.26       ----

> <Gold.Chemscore.Fitness>
16.9026

> <Gold.Chemscore.DG>
-17.1897

> <Gold.Chemscore.ZeroCoef>
-5.4800

> <Gold.Chemscore.Hbond>
2.5582

> <Gold.Chemscore.Metal>
0.0000

> <Gold.Chemscore.Lipo>
61.7348

> <Gold.Chemscore.Internal_Hbond>
0.0000

> <Gold.Chemscore.DEClash>
0.0234

> <Gold.Chemscore.DEInternal>
0.2636

> <Gold.Chemscore.Rot>
1.5850

> <Gold.Chemscore.Internal.Correction>
   9.000000E+99

> <Gold.Chemscore.Hbonds>
donor molecule, donor type, donor heavy atom, donor atom, acceptor molecule, acceptor atom, score
      L1  H     2    39       P1  7948  0.95
      L1  H     6    27       P1  7948  0.82
      L1  H     9    28       P1  7948  0.48

> <Gold.Chemscore.Hbond.Weighted>
-8.5444

> <Gold.Chemscore.Metal.Weighted>
-0.0000

> <Gold.Chemscore.Lipo.Weighted>
-7.2230

> <Gold.Chemscore.Internal_Hbond.Weighted>
0.0000

> <Gold.Chemscore.DEClash.Weighted>
0.0234

> <Gold.Chemscore.DEInternal.Weighted>
0.2636

> <Gold.Chemscore.Rot.Weighted>
4.0577

> <Gold.Chemscore.Internal.Correction.Weighted>
   9.000000E+99

> <Gold.Protein.RotatedTorsions>
[ 6907 6896 6895 6894 ] final   35.92 input  -60.11 | X-H torsion
[ 7974 7965 7964 7962 ] final  146.81 input  175.53 | X-H torsion
[ 8008 7997 7996 7995 ] final   90.70 input   59.86 | X-H torsion
[ 10167 10162 10161 10158 ] final -173.64 input  -65.29 | X-H torsion
[ 10718 10713 10712 10709 ] final  -40.22 input   66.30 | X-H torsion
[ 10763 10752 10751 10750 ] final  134.37 input  -60.55 | X-H torsion
[ 11005 11000 10999 10996 ] final  -75.82 input  -57.11 | X-H torsion

> <Gold.Protein.ActiveResidues>
 VAL166  LYS551  ARG553  GLY616  TRP617  ASP618  TYR619  PRO620  LYS621  CYS622 
 ASP623  PHE694  ASN695  SER759  ASP760  ASP761  ALA762  ILE779  LEU786  VAL792 
 PHE793  MET794  SER795  GLU796  ALA797  LYS798  CYS799  TRP800  GLU811  SER814 

> <Gold.Protein.RotatedAtoms>
  152.1227  134.9193  160.0562 H   0  0  0  0  0  0  0  0  0  0  0  0  # atno 6907 bound_to 6896
  152.0328  133.3939  159.4312 H   0  0  0  0  0  0  0  0  0  0  0  0  # atno 6908 bound_to 6896
  150.6850  134.3423  159.4917 H   0  0  0  0  0  0  0  0  0  0  0  0  # atno 6909 bound_to 6896
  144.8641  139.5951  143.5917 H   0  0  0  0  0  0  0  0  0  0  0  0  # atno 7974 bound_to 7965
  156.0151  140.3346  155.6980 H   0  0  0  0  0  0  0  0  0  0  0  0  # atno 8008 bound_to 7997
  155.6103  140.0664  157.2726 H   0  0  0  0  0  0  0  0  0  0  0  0  # atno 8009 bound_to 7997
  154.4295  140.1794  156.1253 H   0  0  0  0  0  0  0  0  0  0  0  0  # atno 8010 bound_to 7997
  139.5677  144.1715  152.1338 H   0  0  0  0  0  0  0  0  0  0  0  0  # atno 10167 bound_to 10162
  156.2838  130.4220  149.8309 H   0  0  0  0  0  0  0  0  0  0  0  0  # atno 10718 bound_to 10713
  153.8225  135.3114  155.3411 H   0  0  0  0  0  0  0  0  0  0  0  0  # atno 10763 bound_to 10752
  154.8007  135.4728  154.0271 H   0  0  0  0  0  0  0  0  0  0  0  0  # atno 10764 bound_to 10752
  153.1684  135.6873  153.8732 H   0  0  0  0  0  0  0  0  0  0  0  0  # atno 10765 bound_to 10752
  141.1649  133.6961  156.7575 H   0  0  0  0  0  0  0  0  0  0  0  0  # atno 11005 bound_to 11000
  146.2882  139.7065  142.9180 LP  0  0  0  0  0  0  0  0  0  0  0  0  # atno 17320 bound_to 7965
  145.4256  141.0410  143.2939 LP  0  0  0  0  0  0  0  0  0  0  0  0  # atno 17321 bound_to 7965
  140.1241  144.5347  150.6844 LP  0  0  0  0  0  0  0  0  0  0  0  0  # atno 17342 bound_to 10162
  140.6961  143.2405  151.4996 LP  0  0  0  0  0  0  0  0  0  0  0  0  # atno 17343 bound_to 10162
  156.5747  130.8440  151.3366 LP  0  0  0  0  0  0  0  0  0  0  0  0  # atno 17370 bound_to 10713
  157.7322  130.9712  150.1918 LP  0  0  0  0  0  0  0  0  0  0  0  0  # atno 17371 bound_to 10713
  140.2558  134.8505  157.3711 LP  0  0  0  0  0  0  0  0  0  0  0  0  # atno 17394 bound_to 11000
  140.1658  134.4670  155.7864 LP  0  0  0  0  0  0  0  0  0  0  0  0  # atno 17395 bound_to 11000

$$$$
