AV-unprocessed.smi:102|AV-procd|sdf|971|dock9
  -GOLD-   2262017523D 1   1.00000     0.00000
 Structure written by MMmdl.
 43 44  0  0  0  0  0  0  0  0  2 V2000
  145.2018  135.6456  150.9603 C   0  0  0  0  0  0  0  0  0  0  0  0
  145.8184  134.6104  151.8920 C   0  0  0  0  0  0  0  0  0  0  0  0
  146.0841  133.4725  151.5038 O   0  0  0  0  0  0  0  0  0  0  0  0
  146.0176  135.0886  153.1292 O   0  0  0  0  0  0  0  0  0  0  0  0
  146.6771  134.2835  154.0924 C   0  0  0  0  0  0  0  0  0  0  0  0
  147.0581  135.1437  155.3050 C   0  0  2  0  0  0  0  0  0  0  0  0
  147.8017  136.2871  154.9148 O   0  0  0  0  0  0  0  0  0  0  0  0
  148.4466  136.7850  156.0428 C   0  0  2  0  0  0  0  0  0  0  0  0
  149.7388  137.4301  155.5908 N   0  0  0  0  0  0  0  0  0  0  0  0
  149.9963  138.7554  155.9012 C   0  0  0  0  0  0  0  0  0  0  0  0
  151.1688  139.3388  155.5814 C   0  0  0  0  0  0  0  0  0  0  0  0
  151.3830  140.6280  155.8960 F   0  0  0  0  0  0  0  0  0  0  0  0
  152.2051  138.5560  154.9126 C   0  0  0  0  0  0  0  0  0  0  0  0
  153.2610  139.0999  154.5927 O   0  0  0  0  0  0  0  0  0  0  0  0
  151.9525  137.2361  154.6780 N   0  5  0  0  0  0  0  0  0  0  0  0
  150.7725  136.6374  155.0165 C   0  0  0  0  0  0  0  0  0  0  0  0
  150.5628  135.4373  154.8413 O   0  0  0  0  0  0  0  0  0  0  0  0
  148.6637  135.6173  157.0269 C   0  0  1  0  0  0  0  0  0  0  0  0
  148.0277  135.8748  158.2719 O   0  0  0  0  0  0  0  0  0  0  0  0
  148.7655  136.1775  159.3545 C   0  0  0  0  0  0  0  0  0  0  0  0
  147.9684  136.0729  160.6477 C   0  0  0  0  0  0  0  0  0  0  0  0
  149.9508  136.5103  159.3546 O   0  0  0  0  0  0  0  0  0  0  0  0
  147.9688  134.4531  156.3272 C   0  0  2  0  0  0  0  0  0  0  0  0
  148.9263  133.6171  155.6849 O   0  0  0  0  0  0  0  0  0  0  0  0
  149.8781  132.9958  156.4025 C   0  0  0  0  0  0  0  0  0  0  0  0
  150.7758  132.1207  155.5381 C   0  0  0  0  0  0  0  0  0  0  0  0
  150.0509  133.0945  157.6174 O   0  0  0  0  0  0  0  0  0  0  0  0
  145.7410  136.5906  151.0318 H   0  0  0  0  0  0  0  0  0  0  0  0
  144.1589  135.8194  151.2257 H   0  0  0  0  0  0  0  0  0  0  0  0
  145.2429  135.3028  149.9262 H   0  0  0  0  0  0  0  0  0  0  0  0
  146.0007  133.4865  154.4042 H   0  0  0  0  0  0  0  0  0  0  0  0
  147.5628  133.8143  153.6616 H   0  0  0  0  0  0  0  0  0  0  0  0
  146.1560  135.4799  155.8199 H   0  0  0  0  0  0  0  0  0  0  0  0
  147.8286  137.5605  156.4958 H   0  0  0  0  0  0  0  0  0  0  0  0
  149.2554  139.3421  156.4221 H   0  0  0  0  0  0  0  0  0  0  0  0
  149.7215  135.4076  157.1863 H   0  0  0  0  0  0  0  0  0  0  0  0
  147.5649  135.0669  160.7638 H   0  0  0  0  0  0  0  0  0  0  0  0
  147.1400  136.7812  160.6393 H   0  0  0  0  0  0  0  0  0  0  0  0
  148.6025  136.2924  161.5069 H   0  0  0  0  0  0  0  0  0  0  0  0
  147.3720  133.8562  157.0192 H   0  0  0  0  0  0  0  0  0  0  0  0
  150.1899  131.3386  155.0551 H   0  0  0  0  0  0  0  0  0  0  0  0
  151.5505  131.6493  156.1432 H   0  0  0  0  0  0  0  0  0  0  0  0
  151.2575  132.7209  154.7659 H   0  0  0  0  0  0  0  0  0  0  0  0
  1  2  1  0  0  0  0
  1 28  1  0  0  0  0
  1 29  1  0  0  0  0
  1 30  1  0  0  0  0
  2  3  2  0  0  0  0
  2  4  1  0  0  0  0
  4  5  1  0  0  0  0
  5  6  1  0  0  0  0
  5 31  1  0  0  0  0
  5 32  1  0  0  0  0
  6 23  1  0  0  0  0
  6  7  1  0  0  0  0
  6 33  1  0  0  0  0
  7  8  1  0  0  0  0
  8  9  1  0  0  0  0
  8 18  1  0  0  0  0
  8 34  1  0  0  0  0
  9 16  1  0  0  0  0
  9 10  1  0  0  0  0
 10 11  2  0  0  0  0
 10 35  1  0  0  0  0
 11 12  1  0  0  0  0
 11 13  1  0  0  0  0
 13 14  2  0  0  0  0
 13 15  1  0  0  0  0
 15 16  1  0  0  0  0
 16 17  2  0  0  0  0
 18 19  1  0  0  0  0
 18 23  1  0  0  0  0
 18 36  1  0  0  0  0
 19 20  1  0  0  0  0
 20 21  1  0  0  0  0
 20 22  2  0  0  0  0
 21 37  1  0  0  0  0
 21 38  1  0  0  0  0
 21 39  1  0  0  0  0
 23 24  1  0  0  0  0
 23 40  1  0  0  0  0
 24 25  1  0  0  0  0
 25 26  1  0  0  0  0
 25 27  2  0  0  0  0
 26 41  1  0  0  0  0
 26 42  1  0  0  0  0
 26 43  1  0  0  0  0
M  CHG  1  15  -1
M  END
> <s_m_source_file>
AV-unprocessed.smi

> <i_m_source_file_index>
102

> <i_lp_mmshare_version>
43012

> <i_f3d_flags>
0

> <s_epik_input>
W0NIM11DKD1PKU9bQ0gyXVtDQEBIXTFPW0NASF0oW0NAQEhdKE9DKD1PKVtDSDNdKVtDQEhdMU9DKD1PKVtDSDNdKW4yW2NIXWMoRiljKD1PKVtuSF1jMj1P

> <s_epik_cmdline>
J2VwaWtfcHl0aG9uJywgJy1waCcsICc3LjAnLCAnLXRuJywgJzgnLCAnLW1hJywgJzIwMCcsICctbWV0YWxfYmluZGluZycsICctaW1hZScsICc8aW5maWxlLm1hZT4nLCAnLW9tYWUnLCAnPG91dGZpbGUubWFlPic=

> <r_epik_Ionization_Penalty>
1.40304

> <r_epik_Ionization_Penalty_Charging>
1.43915e-08

> <r_epik_Ionization_Penalty_Neutral>
1.40304

> <r_epik_State_Penalty>
1.48536

> <r_epik_Charging_Adjusted_Penalty>
1.48536

> <i_epik_Tot_Q>
-1

> <i_epik_Tot_abs_Q>
1

> <r_epik_Metal_State_Penalty>
0.00663881

> <b_epik_Metal_Only>
0

> <s_epik_Chemistry_Notes>
This compound has an ester and may undergo hydrolysis at high or low pH. This compound contains an acetal/aminal-like group ( X-CH(R)-Y where X, Y are N, S, or O) that may be acid/base labile, releasing an aldehyde.

> <s_lp_Force_Field>
OPLS_2005

> <r_lp_Energy>
22.9576

> <b_lp_Chiralities_Consistent>
1

> <s_lp_Variant>
AV-unprocessed.smi:102-27

> <Gold.Version>
5.8.1

> <Gold.Id.Protein>
6NUR|6NUR_protein|mol2

> <Gold.PLP.Fitness>
43.9199

> <Gold.PLP.PLP>
-30.8558

> <Gold.PLP.part.hbond>
-4.1835

> <Gold.PLP.part.metal>
0.0000

> <Gold.PLP.part.buried>
-7.2082

> <Gold.PLP.part.nonpolar>
-21.9497

> <Gold.PLP.part.repulsive>
0.6648

> <Gold.PLP.ligand.clash>
0.0000

> <Gold.PLP.ligand.torsion>
0.9451

> <Gold.PLP.Chemscore.Hbond>
4.9200

> <Gold.PLP.Chemscore.CHOScore>
0.0000

> <Gold.PLP.Chemscore.Metal>
0.0000

> <Gold.Chemscore.Hbonds>
donor molecule, donor type, donor heavy atom, donor atom, acceptor molecule, acceptor atom, score
      P1  H  6896  6907       L1    22  1.00
      P1  H  6896  6909       L1    27  1.00
      P1  H  7997  8009       L1    14  0.93
      P1  H 10752 10765       L1    15  1.70

> <Gold.PLP.Chemscore.Internal.Correction>
0.1944

> <Gold.Rescore>
     Score         DG    S(hbond)    S(metal)    S(lipo)     H(rot)  DE(clash)    DE(int)     intcor
      5.08     -10.09       3.25        0.00      33.91       4.00       0.00       5.01       ----

> <Gold.Chemscore.Fitness>
5.0814

> <Gold.Chemscore.DG>
-10.0891

> <Gold.Chemscore.ZeroCoef>
-5.4800

> <Gold.Chemscore.Hbond>
3.2540

> <Gold.Chemscore.Metal>
0.0000

> <Gold.Chemscore.Lipo>
33.9141

> <Gold.Chemscore.Internal_Hbond>
0.0000

> <Gold.Chemscore.DEClash>
0.0000

> <Gold.Chemscore.DEInternal>
5.0076

> <Gold.Chemscore.Rot>
3.9951

> <Gold.Chemscore.Internal.Correction>
   9.000000E+99

> <Gold.Chemscore.Hbonds>
donor molecule, donor type, donor heavy atom, donor atom, acceptor molecule, acceptor atom, score
      P1  H  6896  6907       L1    22  0.82
      P1  H  6896  6909       L1    27  0.97
      P1  H  7997  8009       L1    14  0.88
      P1  H 10752 10765       L1    15  0.16

> <Gold.Chemscore.Hbond.Weighted>
-10.8685

> <Gold.Chemscore.Metal.Weighted>
-0.0000

> <Gold.Chemscore.Lipo.Weighted>
-3.9680

> <Gold.Chemscore.Internal_Hbond.Weighted>
0.0000

> <Gold.Chemscore.DEClash.Weighted>
0.0000

> <Gold.Chemscore.DEInternal.Weighted>
5.0076

> <Gold.Chemscore.Rot.Weighted>
10.2274

> <Gold.Chemscore.Internal.Correction.Weighted>
   9.000000E+99

> <Gold.Protein.RotatedTorsions>
[ 6907 6896 6895 6894 ] final  -27.39 input  -60.11 | X-H torsion
[ 7974 7965 7964 7962 ] final  130.53 input  175.53 | X-H torsion
[ 8008 7997 7996 7995 ] final -133.66 input   59.86 | X-H torsion
[ 10167 10162 10161 10158 ] final   91.74 input  -65.29 | X-H torsion
[ 10718 10713 10712 10709 ] final  -15.86 input   66.30 | X-H torsion
[ 10763 10752 10751 10750 ] final  165.70 input  -60.55 | X-H torsion
[ 11005 11000 10999 10996 ] final   73.47 input  -57.11 | X-H torsion

> <Gold.Protein.ActiveResidues>
 VAL166  LYS551  ARG553  GLY616  TRP617  ASP618  TYR619  PRO620  LYS621  CYS622 
 ASP623  PHE694  ASN695  SER759  ASP760  ASP761  ALA762  ILE779  LEU786  VAL792 
 PHE793  MET794  SER795  GLU796  ALA797  LYS798  CYS799  TRP800  GLU811  SER814 

> <Gold.Protein.RotatedAtoms>
  151.1476  135.0211  159.8653 H   0  0  0  0  0  0  0  0  0  0  0  0  # atno 6907 bound_to 6896
  152.5453  134.1426  159.8495 H   0  0  0  0  0  0  0  0  0  0  0  0  # atno 6908 bound_to 6896
  151.1508  133.4863  159.2628 H   0  0  0  0  0  0  0  0  0  0  0  0  # atno 6909 bound_to 6896
  145.0169  139.4167  143.5216 H   0  0  0  0  0  0  0  0  0  0  0  0  # atno 7974 bound_to 7965
  155.3492  140.0476  157.3046 H   0  0  0  0  0  0  0  0  0  0  0  0  # atno 8008 bound_to 7997
  154.5236  140.2233  155.8895 H   0  0  0  0  0  0  0  0  0  0  0  0  # atno 8009 bound_to 7997
  156.1716  140.3094  155.8989 H   0  0  0  0  0  0  0  0  0  0  0  0  # atno 8010 bound_to 7997
  139.8345  144.6671  150.9359 H   0  0  0  0  0  0  0  0  0  0  0  0  # atno 10167 bound_to 10162
  156.5957  130.4811  149.6260 H   0  0  0  0  0  0  0  0  0  0  0  0  # atno 10718 bound_to 10713
  154.3279  135.2755  155.2487 H   0  0  0  0  0  0  0  0  0  0  0  0  # atno 10763 bound_to 10752
  154.4811  135.5858  153.6394 H   0  0  0  0  0  0  0  0  0  0  0  0  # atno 10764 bound_to 10752
  152.9869  135.6111  154.3469 H   0  0  0  0  0  0  0  0  0  0  0  0  # atno 10765 bound_to 10752
  139.9438  134.7350  156.1031 H   0  0  0  0  0  0  0  0  0  0  0  0  # atno 11005 bound_to 11000
  146.3479  139.9645  142.8713 LP  0  0  0  0  0  0  0  0  0  0  0  0  # atno 17320 bound_to 7965
  145.1947  140.9827  143.4190 LP  0  0  0  0  0  0  0  0  0  0  0  0  # atno 17321 bound_to 7965
  140.7804  143.3970  151.1213 LP  0  0  0  0  0  0  0  0  0  0  0  0  # atno 17342 bound_to 10162
  139.7621  143.8620  152.3102 LP  0  0  0  0  0  0  0  0  0  0  0  0  # atno 17343 bound_to 10162
  156.2512  130.6908  151.1646 LP  0  0  0  0  0  0  0  0  0  0  0  0  # atno 17370 bound_to 10713
  157.7292  131.0626  150.5783 LP  0  0  0  0  0  0  0  0  0  0  0  0  # atno 17371 bound_to 10713
  141.1082  133.6652  156.2914 LP  0  0  0  0  0  0  0  0  0  0  0  0  # atno 17394 bound_to 11000
  140.5885  134.5674  157.5494 LP  0  0  0  0  0  0  0  0  0  0  0  0  # atno 17395 bound_to 11000

$$$$
