AV-unprocessed.smi:1722|AV-procd|sdf|6943|dock5
  -GOLD-   22720 8153D 1   1.00000     0.00000
 Structure written by MMmdl.
 39 40  0  0  0  0  0  0  0  0  1 V2000
  152.8346  136.7875  160.0941 O   0  0  0  0  0  0  0  0  0  0  0  0
  153.0172  137.9663  160.3954 C   0  0  0  0  0  0  0  0  0  0  0  0
  152.7044  139.0540  159.3694 C   0  0  0  0  0  0  0  0  0  0  0  0
  152.7721  140.3221  160.0083 O   0  0  0  0  0  0  0  0  0  0  0  0
  152.7884  141.4316  159.1201 C   0  0  0  0  0  0  0  0  0  0  0  0
  152.7369  142.7056  159.9819 C   0  0  0  0  0  0  0  0  0  0  0  0
  152.6748  143.9720  159.1128 C   0  0  0  0  0  0  0  0  0  0  0  0
  151.4816  143.9226  158.1458 C   0  0  0  0  0  0  0  0  0  0  0  0
  151.5198  142.6521  157.2822 C   0  0  0  0  0  0  0  0  0  0  0  0
  151.5877  141.3856  158.1511 C   0  0  0  0  0  0  0  0  0  0  0  0
  153.5126  138.4032  161.5705 N   0  0  0  0  0  0  0  0  0  0  0  0
  153.8733  137.6736  162.7156 C   0  0  0  0  0  0  0  0  0  0  0  0
  153.7499  136.3271  162.8500 C   0  0  0  0  0  0  0  0  0  0  0  0
  154.1333  135.6349  164.0692 C   0  0  0  0  0  0  0  0  0  0  0  0
  153.9367  134.1351  164.2274 C   0  0  0  0  0  0  0  0  0  0  0  0
  153.0158  133.8956  165.1599 F   0  0  0  0  0  0  0  0  0  0  0  0
  153.5290  133.5758  163.0872 F   0  0  0  0  0  0  0  0  0  0  0  0
  155.0704  133.5419  164.6021 F   0  0  0  0  0  0  0  0  0  0  0  0
  154.5916  136.4015  165.0759 C   0  0  0  0  0  0  0  0  0  0  0  0
  154.7218  137.7861  164.9460 N   0  0  0  0  0  0  0  0  0  0  0  0
  154.3906  138.4798  163.8339 C   0  0  0  0  0  0  0  0  0  0  0  0
  154.5285  139.7021  163.8008 O   0  0  0  0  0  0  0  0  0  0  0  0
  155.0825  138.2900  165.7434 H   0  0  0  0  0  0  0  0  0  0  0  0
  153.4310  138.9937  158.5580 H   0  0  0  0  0  0  0  0  0  0  0  0
  151.7149  138.8806  158.9460 H   0  0  0  0  0  0  0  0  0  0  0  0
  153.7213  141.4389  158.5534 H   0  0  0  0  0  0  0  0  0  0  0  0
  151.8645  142.6716  160.6360 H   0  0  0  0  0  0  0  0  0  0  0  0
  153.6096  142.7480  160.6344 H   0  0  0  0  0  0  0  0  0  0  0  0
  152.6021  144.8555  159.7476 H   0  0  0  0  0  0  0  0  0  0  0  0
  153.6015  144.0730  158.5466 H   0  0  0  0  0  0  0  0  0  0  0  0
  150.5500  143.9508  158.7127 H   0  0  0  0  0  0  0  0  0  0  0  0
  151.4822  144.8069  157.5079 H   0  0  0  0  0  0  0  0  0  0  0  0
  150.6405  142.6142  156.6387 H   0  0  0  0  0  0  0  0  0  0  0  0
  152.3862  142.6867  156.6205 H   0  0  0  0  0  0  0  0  0  0  0  0
  151.6482  140.5123  157.5024 H   0  0  0  0  0  0  0  0  0  0  0  0
  150.6623  141.2847  158.7197 H   0  0  0  0  0  0  0  0  0  0  0  0
  153.6746  139.3980  161.6388 H   0  0  0  0  0  0  0  0  0  0  0  0
  153.3465  135.7240  162.0534 H   0  0  0  0  0  0  0  0  0  0  0  0
  154.8845  136.0235  166.0443 H   0  0  0  0  0  0  0  0  0  0  0  0
  1  2  2  0  0  0  0
  2  3  1  0  0  0  0
  2 11  1  0  0  0  0
  3  4  1  0  0  0  0
  3 24  1  0  0  0  0
  3 25  1  0  0  0  0
  4  5  1  0  0  0  0
  5 10  1  0  0  0  0
  5  6  1  0  0  0  0
  5 26  1  0  0  0  0
  6  7  1  0  0  0  0
  6 27  1  0  0  0  0
  6 28  1  0  0  0  0
  7  8  1  0  0  0  0
  7 29  1  0  0  0  0
  7 30  1  0  0  0  0
  8  9  1  0  0  0  0
  8 31  1  0  0  0  0
  8 32  1  0  0  0  0
  9 10  1  0  0  0  0
  9 33  1  0  0  0  0
  9 34  1  0  0  0  0
 10 35  1  0  0  0  0
 10 36  1  0  0  0  0
 11 12  1  0  0  0  0
 11 37  1  0  0  0  0
 12 21  1  0  0  0  0
 12 13  2  0  0  0  0
 13 14  1  0  0  0  0
 13 38  1  0  0  0  0
 14 15  1  0  0  0  0
 14 19  2  0  0  0  0
 15 16  1  0  0  0  0
 15 17  1  0  0  0  0
 15 18  1  0  0  0  0
 19 20  1  0  0  0  0
 19 39  1  0  0  0  0
 20 23  1  0  0  0  0
 20 21  1  0  0  0  0
 21 22  2  0  0  0  0
M  END
> <s_m_source_file>
AV-unprocessed.smi

> <i_m_source_file_index>
1722

> <i_lp_mmshare_version>
43012

> <i_f3d_flags>
0

> <s_epik_input>
Tz1jMVtuSF1bY0hdYyhDKEYpKEYpRilbY0hdYzFbTkhdQyg9TylbQ0gyXU9bQ0hdMltDSDJdW0NIMl1bQ0gyXVtDSDJdW0NIMl0y

> <s_epik_cmdline>
J2VwaWtfcHl0aG9uJywgJy1waCcsICc3LjAnLCAnLXRuJywgJzgnLCAnLW1hJywgJzIwMCcsICctbWV0YWxfYmluZGluZycsICctaW1hZScsICc8aW5maWxlLm1hZT4nLCAnLW9tYWUnLCAnPG91dGZpbGUubWFlPic=

> <r_lp_tautomer_probability>
0.999

> <r_epik_Ionization_Penalty>
0.008897

> <r_epik_Ionization_Penalty_Charging>
0.00889691

> <r_epik_Ionization_Penalty_Neutral>
9.17026e-08

> <r_epik_State_Penalty>
0.00672877

> <r_epik_Charging_Adjusted_Penalty>
0.0156257

> <i_epik_Tot_Q>
0

> <i_epik_Tot_abs_Q>
0

> <r_epik_Metal_State_Penalty>
0.320955

> <b_epik_Metal_Only>
0

> <s_lp_Force_Field>
OPLS_2005

> <r_lp_Energy>
24.9811

> <b_lp_Chiralities_Consistent>
1

> <s_lp_Variant>
AV-unprocessed.smi:1722-1

> <Gold.Version>
5.8.1

> <Gold.Id.Protein>
6NUR|6NUR_protein|mol2

> <Gold.PLP.Fitness>
40.9805

> <Gold.PLP.PLP>
-38.4635

> <Gold.PLP.part.hbond>
-0.9666

> <Gold.PLP.part.metal>
0.0000

> <Gold.PLP.part.buried>
-5.2209

> <Gold.PLP.part.nonpolar>
-32.6376

> <Gold.PLP.part.repulsive>
0.0393

> <Gold.PLP.ligand.clash>
0.0000

> <Gold.PLP.ligand.torsion>
0.2459

> <Gold.PLP.Chemscore.Hbond>
0.9913

> <Gold.PLP.Chemscore.CHOScore>
0.0000

> <Gold.PLP.Chemscore.Metal>
0.0000

> <Gold.Chemscore.Hbonds>
donor molecule, donor type, donor heavy atom, donor atom, acceptor molecule, acceptor atom, score
      P1  H  6896  6909       L1     1  1.00

> <Gold.PLP.Chemscore.Internal.Correction>
0.0350

> <Gold.Rescore>
     Score         DG    S(hbond)    S(metal)    S(lipo)     H(rot)  DE(clash)    DE(int)     intcor
     15.01     -16.48       0.98        0.00     100.82       1.59       0.00       1.46       ----

> <Gold.Chemscore.Fitness>
15.0135

> <Gold.Chemscore.DG>
-16.4766

> <Gold.Chemscore.ZeroCoef>
-5.4800

> <Gold.Chemscore.Hbond>
0.9827

> <Gold.Chemscore.Metal>
0.0000

> <Gold.Chemscore.Lipo>
100.8228

> <Gold.Chemscore.Internal_Hbond>
0.0000

> <Gold.Chemscore.DEClash>
0.0000

> <Gold.Chemscore.DEInternal>
1.4631

> <Gold.Chemscore.Rot>
1.5945

> <Gold.Chemscore.Internal.Correction>
   9.000000E+99

> <Gold.Chemscore.Hbonds>
donor molecule, donor type, donor heavy atom, donor atom, acceptor molecule, acceptor atom, score
      P1  H  6896  6909       L1     1  1.00

> <Gold.Chemscore.Hbond.Weighted>
-3.2823

> <Gold.Chemscore.Metal.Weighted>
-0.0000

> <Gold.Chemscore.Lipo.Weighted>
-11.7963

> <Gold.Chemscore.Internal_Hbond.Weighted>
0.0000

> <Gold.Chemscore.DEClash.Weighted>
0.0000

> <Gold.Chemscore.DEInternal.Weighted>
1.4631

> <Gold.Chemscore.Rot.Weighted>
4.0820

> <Gold.Chemscore.Internal.Correction.Weighted>
   9.000000E+99

> <Gold.Protein.RotatedTorsions>
[ 6907 6896 6895 6894 ] final  147.05 input  -60.11 | X-H torsion
[ 7974 7965 7964 7962 ] final  -95.75 input  175.53 | X-H torsion
[ 8008 7997 7996 7995 ] final  -69.61 input   59.86 | X-H torsion
[ 10167 10162 10161 10158 ] final    3.09 input  -65.29 | X-H torsion
[ 10718 10713 10712 10709 ] final  153.78 input   66.30 | X-H torsion
[ 10763 10752 10751 10750 ] final   21.88 input  -60.55 | X-H torsion
[ 11005 11000 10999 10996 ] final   44.67 input  -57.11 | X-H torsion

> <Gold.Protein.ActiveResidues>
 VAL166  LYS551  ARG553  GLY616  TRP617  ASP618  TYR619  PRO620  LYS621  CYS622 
 ASP623  PHE694  ASN695  SER759  ASP760  ASP761  ALA762  ILE779  LEU786  VAL792 
 PHE793  MET794  SER795  GLU796  ALA797  LYS798  CYS799  TRP800  GLU811  SER814 

> <Gold.Protein.RotatedAtoms>
  152.1599  133.4575  159.4855 H   0  0  0  0  0  0  0  0  0  0  0  0  # atno 6907 bound_to 6896
  150.6905  134.2085  159.4359 H   0  0  0  0  0  0  0  0  0  0  0  0  # atno 6908 bound_to 6896
  151.9986  134.9940  160.0615 H   0  0  0  0  0  0  0  0  0  0  0  0  # atno 6909 bound_to 6896
  145.3559  140.9484  143.2528 H   0  0  0  0  0  0  0  0  0  0  0  0  # atno 7974 bound_to 7965
  154.4951  140.0850  156.7680 H   0  0  0  0  0  0  0  0  0  0  0  0  # atno 8008 bound_to 7997
  155.4135  140.3442  155.4247 H   0  0  0  0  0  0  0  0  0  0  0  0  # atno 8009 bound_to 7997
  156.1383  140.1522  156.8948 H   0  0  0  0  0  0  0  0  0  0  0  0  # atno 8010 bound_to 7997
  140.6603  143.7321  150.7727 H   0  0  0  0  0  0  0  0  0  0  0  0  # atno 10167 bound_to 10162
  157.2403  131.0758  151.1796 H   0  0  0  0  0  0  0  0  0  0  0  0  # atno 10718 bound_to 10713
  153.0960  135.6660  153.9763 H   0  0  0  0  0  0  0  0  0  0  0  0  # atno 10763 bound_to 10752
  153.9347  135.3000  155.3446 H   0  0  0  0  0  0  0  0  0  0  0  0  # atno 10764 bound_to 10752
  154.7378  135.5093  153.9146 H   0  0  0  0  0  0  0  0  0  0  0  0  # atno 10765 bound_to 10752
  140.1531  134.4437  155.8368 H   0  0  0  0  0  0  0  0  0  0  0  0  # atno 11005 bound_to 11000
  144.8683  139.5076  143.6780 LP  0  0  0  0  0  0  0  0  0  0  0  0  # atno 17320 bound_to 7965
  146.2948  139.7246  142.9134 LP  0  0  0  0  0  0  0  0  0  0  0  0  # atno 17321 bound_to 7965
  140.0988  143.4807  152.2437 LP  0  0  0  0  0  0  0  0  0  0  0  0  # atno 17342 bound_to 10162
  139.5835  144.7521  151.3579 LP  0  0  0  0  0  0  0  0  0  0  0  0  # atno 17343 bound_to 10162
  157.3385  130.7021  149.6367 LP  0  0  0  0  0  0  0  0  0  0  0  0  # atno 17370 bound_to 10713
  155.9670  130.4286  150.4798 LP  0  0  0  0  0  0  0  0  0  0  0  0  # atno 17371 bound_to 10713
  141.2201  133.6880  156.7457 LP  0  0  0  0  0  0  0  0  0  0  0  0  # atno 17394 bound_to 11000
  140.2581  134.8488  157.3732 LP  0  0  0  0  0  0  0  0  0  0  0  0  # atno 17395 bound_to 11000

$$$$
