AV-unprocessed.smi:1008|AV-procd|sdf|4411|dock4
  -GOLD-   22720 2353D 1   1.00000     0.00000
 Structure written by MMmdl.
 23 23  0  0  0  0  0  0  0  0  1 V2000
  146.8167  139.1987  153.0392 C   0  0  0  0  0  0  0  0  0  0  0  0
  148.1549  139.5030  153.6897 C   0  0  0  0  0  0  0  0  0  0  0  0
  149.1199  138.5295  153.5012 N   0  0  0  0  0  0  0  0  0  0  0  0
  150.3747  138.7148  154.0612 C   0  0  0  0  0  0  0  0  0  0  0  0
  151.2643  137.6901  153.8150 N   0  0  0  0  0  0  0  0  0  0  0  0
  150.7078  139.7561  154.7625 N   0  0  0  0  0  0  0  0  0  0  0  0
  149.7708  140.7762  154.9902 C   0  0  0  0  0  0  0  0  0  0  0  0
  150.0744  141.7650  155.6559 O   0  0  0  0  0  0  0  0  0  0  0  0
  148.4188  140.6186  154.4123 C   0  0  0  0  0  0  0  0  0  0  0  0
  147.3948  141.7262  154.6436 C   0  0  0  0  0  0  0  0  0  0  0  0
  146.0959  141.1933  155.2655 C   0  0  0  0  0  0  0  0  0  0  0  0
  144.9876  141.8626  154.7047 O   0  0  0  0  0  0  0  0  0  0  0  0
  152.2154  137.6764  154.1532 H   0  0  0  0  0  0  0  0  0  0  0  0
  146.0186  139.2223  153.7818 H   0  0  0  0  0  0  0  0  0  0  0  0
  146.8104  138.2131  152.5721 H   0  0  0  0  0  0  0  0  0  0  0  0
  146.5929  139.9356  152.2674 H   0  0  0  0  0  0  0  0  0  0  0  0
  151.0264  136.8716  153.2730 H   0  0  0  0  0  0  0  0  0  0  0  0
  148.8723  137.7156  152.9579 H   0  0  0  0  0  0  0  0  0  0  0  0
  147.1682  142.2288  153.7037 H   0  0  0  0  0  0  0  0  0  0  0  0
  147.8300  142.4961  155.2827 H   0  0  0  0  0  0  0  0  0  0  0  0
  145.9927  140.1230  155.0849 H   0  0  0  0  0  0  0  0  0  0  0  0
  146.0911  141.3451  156.3454 H   0  0  0  0  0  0  0  0  0  0  0  0
  144.7352  141.4137  153.9121 H   0  0  0  0  0  0  0  0  0  0  0  0
  1 14  1  0  0  0  0
  1 15  1  0  0  0  0
  1 16  1  0  0  0  0
  1  2  1  0  0  0  0
  2  9  2  0  0  0  0
  2  3  1  0  0  0  0
  3 18  1  0  0  0  0
  3  4  1  0  0  0  0
  4  5  1  0  0  0  0
  4  6  2  0  0  0  0
  5 17  1  0  0  0  0
  5 13  1  0  0  0  0
  6  7  1  0  0  0  0
  7  8  2  0  0  0  0
  7  9  1  0  0  0  0
  9 10  1  0  0  0  0
 10 11  1  0  0  0  0
 10 19  1  0  0  0  0
 10 20  1  0  0  0  0
 11 12  1  0  0  0  0
 11 21  1  0  0  0  0
 11 22  1  0  0  0  0
 12 23  1  0  0  0  0
M  END
> <s_m_source_file>
AV-unprocessed.smi

> <i_m_source_file_index>
1008

> <i_lp_mmshare_version>
43012

> <i_f3d_flags>
0

> <s_epik_input>
W0NIM11jMW5jKFtOSDJdKVtuSF1jKD1PKWMxW0NIMl1bQ0gyXVtPSF0=

> <s_epik_cmdline>
J2VwaWtfcHl0aG9uJywgJy1waCcsICc3LjAnLCAnLXRuJywgJzgnLCAnLW1hJywgJzIwMCcsICctbWV0YWxfYmluZGluZycsICctaW1hZScsICc8aW5maWxlLm1hZT4nLCAnLW9tYWUnLCAnPG91dGZpbGUubWFlPic=

> <r_lp_tautomer_probability>
0.108277

> <r_epik_Ionization_Penalty>
0.666207

> <r_epik_Ionization_Penalty_Charging>
0.00797854

> <r_epik_Ionization_Penalty_Neutral>
0.658229

> <r_epik_State_Penalty>
1.38976

> <r_epik_Charging_Adjusted_Penalty>
1.39774

> <i_epik_Tot_Q>
0

> <i_epik_Tot_abs_Q>
0

> <r_epik_Metal_State_Penalty>
0.86313

> <b_epik_Metal_Only>
0

> <s_lp_Force_Field>
OPLS_2005

> <r_lp_Energy>
8.84659

> <b_lp_Chiralities_Consistent>
1

> <s_lp_Variant>
AV-unprocessed.smi:1008-2

> <Gold.Version>
5.8.1

> <Gold.Id.Protein>
6NUR|6NUR_protein|mol2

> <Gold.PLP.Fitness>
31.5790

> <Gold.PLP.PLP>
-21.7788

> <Gold.PLP.part.hbond>
-5.1074

> <Gold.PLP.part.metal>
0.0000

> <Gold.PLP.part.buried>
-1.7977

> <Gold.PLP.part.nonpolar>
-15.1965

> <Gold.PLP.part.repulsive>
0.3633

> <Gold.PLP.ligand.clash>
0.0000

> <Gold.PLP.ligand.torsion>
0.2932

> <Gold.PLP.Chemscore.Hbond>
3.4620

> <Gold.PLP.Chemscore.CHOScore>
0.0000

> <Gold.PLP.Chemscore.Metal>
0.0000

> <Gold.Chemscore.Hbonds>
donor molecule, donor type, donor heavy atom, donor atom, acceptor molecule, acceptor atom, score
      L1  H     3    18       P1  7948  1.00
      L1  H     5    17       P1  7949  0.91
      L1  H    12    23       P1 10175  1.00
      P1  H  7989  7998       L1     6  0.55

> <Gold.PLP.Chemscore.Internal.Correction>
0.0006

> <Gold.Rescore>
     Score         DG    S(hbond)    S(metal)    S(lipo)     H(rot)  DE(clash)    DE(int)     intcor
     11.16     -12.28       2.65        0.00      27.51       2.06       0.82       0.30       ----

> <Gold.Chemscore.Fitness>
11.1577

> <Gold.Chemscore.DG>
-12.2792

> <Gold.Chemscore.ZeroCoef>
-5.4800

> <Gold.Chemscore.Hbond>
2.6505

> <Gold.Chemscore.Metal>
0.0000

> <Gold.Chemscore.Lipo>
27.5119

> <Gold.Chemscore.Internal_Hbond>
0.0000

> <Gold.Chemscore.DEClash>
0.8199

> <Gold.Chemscore.DEInternal>
0.3016

> <Gold.Chemscore.Rot>
2.0595

> <Gold.Chemscore.Internal.Correction>
   9.000000E+99

> <Gold.Chemscore.Hbonds>
donor molecule, donor type, donor heavy atom, donor atom, acceptor molecule, acceptor atom, score
      L1  H     3    18       P1  7948  1.00
      L1  H     5    17       P1  7949  0.26
      L1  H    12    23       P1 10175  0.29
      P1  H  7989  7998       L1     6  0.01

> <Gold.Chemscore.Hbond.Weighted>
-8.8526

> <Gold.Chemscore.Metal.Weighted>
-0.0000

> <Gold.Chemscore.Lipo.Weighted>
-3.2189

> <Gold.Chemscore.Internal_Hbond.Weighted>
0.0000

> <Gold.Chemscore.DEClash.Weighted>
0.8199

> <Gold.Chemscore.DEInternal.Weighted>
0.3016

> <Gold.Chemscore.Rot.Weighted>
5.2724

> <Gold.Chemscore.Internal.Correction.Weighted>
   9.000000E+99

> <Gold.Protein.RotatedTorsions>
[ 6907 6896 6895 6894 ] final -119.96 input  -60.11 | X-H torsion
[ 7974 7965 7964 7962 ] final -127.57 input  175.53 | X-H torsion
[ 8008 7997 7996 7995 ] final  -96.90 input   59.86 | X-H torsion
[ 10167 10162 10161 10158 ] final  -19.29 input  -65.29 | X-H torsion
[ 10718 10713 10712 10709 ] final -121.47 input   66.30 | X-H torsion
[ 10763 10752 10751 10750 ] final    6.01 input  -60.55 | X-H torsion
[ 11005 11000 10999 10996 ] final -177.49 input  -57.11 | X-H torsion

> <Gold.Protein.ActiveResidues>
 VAL166  LYS551  ARG553  GLY616  TRP617  ASP618  TYR619  PRO620  LYS621  CYS622 
 ASP623  PHE694  ASN695  SER759  ASP760  ASP761  ALA762  ILE779  LEU786  VAL792 
 PHE793  MET794  SER795  GLU796  ALA797  LYS798  CYS799  TRP800  GLU811  SER814 

> <Gold.Protein.RotatedAtoms>
  150.8351  133.8027  159.3082 H   0  0  0  0  0  0  0  0  0  0  0  0  # atno 6907 bound_to 6896
  151.5746  135.1059  160.0012 H   0  0  0  0  0  0  0  0  0  0  0  0  # atno 6908 bound_to 6896
  152.4424  133.7431  159.6708 H   0  0  0  0  0  0  0  0  0  0  0  0  # atno 6909 bound_to 6896
  144.9758  140.7591  143.4643 H   0  0  0  0  0  0  0  0  0  0  0  0  # atno 7974 bound_to 7965
  154.7806  140.0467  157.1124 H   0  0  0  0  0  0  0  0  0  0  0  0  # atno 8008 bound_to 7997
  154.9710  140.3089  155.4968 H   0  0  0  0  0  0  0  0  0  0  0  0  # atno 8009 bound_to 7997
  156.2936  140.2253  156.4802 H   0  0  0  0  0  0  0  0  0  0  0  0  # atno 8010 bound_to 7997
  140.7267  143.4833  151.0088 H   0  0  0  0  0  0  0  0  0  0  0  0  # atno 10167 bound_to 10162
  156.1340  130.6417  150.9667 H   0  0  0  0  0  0  0  0  0  0  0  0  # atno 10718 bound_to 10713
  153.2527  135.6915  153.7661 H   0  0  0  0  0  0  0  0  0  0  0  0  # atno 10763 bound_to 10752
  153.6750  135.3338  155.3164 H   0  0  0  0  0  0  0  0  0  0  0  0  # atno 10764 bound_to 10752
  154.8400  135.4509  154.1490 H   0  0  0  0  0  0  0  0  0  0  0  0  # atno 10765 bound_to 10752
  140.4403  134.6437  157.4754 H   0  0  0  0  0  0  0  0  0  0  0  0  # atno 11005 bound_to 11000
  145.2493  139.2038  143.4951 LP  0  0  0  0  0  0  0  0  0  0  0  0  # atno 17320 bound_to 7965
  146.3395  140.2403  142.8595 LP  0  0  0  0  0  0  0  0  0  0  0  0  # atno 17321 bound_to 7965
  139.8533  143.7409  152.3177 LP  0  0  0  0  0  0  0  0  0  0  0  0  # atno 17342 bound_to 10162
  139.7599  144.7509  151.0379 LP  0  0  0  0  0  0  0  0  0  0  0  0  # atno 17343 bound_to 10162
  157.6515  131.0896  150.8040 LP  0  0  0  0  0  0  0  0  0  0  0  0  # atno 17370 bound_to 10713
  156.8122  130.4956  149.5354 LP  0  0  0  0  0  0  0  0  0  0  0  0  # atno 17371 bound_to 10713
  140.0074  134.6742  155.9433 LP  0  0  0  0  0  0  0  0  0  0  0  0  # atno 17394 bound_to 11000
  141.1708  133.6537  156.4646 LP  0  0  0  0  0  0  0  0  0  0  0  0  # atno 17395 bound_to 11000

$$$$
