AV-unprocessed.smi:173|AV-procd|sdf|1423|dock2
  -GOLD-   2262019193D 1   1.00000     0.00000
 Structure written by MMmdl.
 60 64  0  0  0  0  0  0  0  0  1 V2000
  148.6418  133.9829  156.2869 O   0  0  0  0  0  0  0  0  0  0  0  0
  149.8678  133.6532  155.6569 C   0  0  0  0  0  0  0  0  0  0  0  0
  151.0161  134.2798  156.4876 C   0  0  0  0  0  0  0  0  0  0  0  0
  150.9544  135.7302  156.5764 N   0  0  0  0  0  0  0  0  0  0  0  0
  151.5280  136.6358  155.7116 C   0  0  0  0  0  0  0  0  0  0  0  0
  151.3125  137.8917  155.9951 N   0  0  0  0  0  0  0  0  0  0  0  0
  150.5419  137.8454  157.1495 C   0  0  0  0  0  0  0  0  0  0  0  0
  149.9456  138.8317  157.9762 C   0  0  0  0  0  0  0  0  0  0  0  0
  150.0530  140.1519  157.7045 N   0  0  0  0  0  0  0  0  0  0  0  0
  148.8505  140.7672  157.1347 C   0  0  0  0  0  0  0  0  0  0  0  0
  148.8680  140.7957  155.5942 C   0  0  2  0  0  0  0  0  0  0  0  0
  147.9212  141.8301  154.9927 C   0  0  0  0  0  0  0  0  0  0  0  0
  147.6894  141.3122  153.5826 C   0  0  0  0  0  0  0  0  0  0  0  0
  148.0801  139.8333  153.6637 C   0  0  0  0  0  0  0  0  0  0  0  0
  148.3578  139.5941  155.0363 O   0  0  0  0  0  0  0  0  0  0  0  0
  150.8596  140.8627  158.7007 C   0  0  0  0  0  0  0  0  0  0  0  0
  151.2565  142.2929  158.3170 C   0  0  0  0  0  0  0  0  0  0  0  0
  152.4369  142.6285  159.2390 C   0  0  0  0  0  0  0  0  0  0  0  0
  152.9734  141.2891  159.7739 C   0  0  0  0  0  0  0  0  0  0  0  0
  152.1910  140.1917  159.0465 C   0  0  0  0  0  0  0  0  0  0  0  0
  149.2425  138.4154  159.0622 N   0  0  0  0  0  0  0  0  0  0  0  0
  149.1214  137.1088  159.3154 C   0  0  0  0  0  0  0  0  0  0  0  0
  149.6112  136.0754  158.6260 N   0  0  0  0  0  0  0  0  0  0  0  0
  150.3185  136.4959  157.5377 C   0  0  0  0  0  0  0  0  0  0  0  0
  150.0019  132.1175  155.6272 C   0  0  0  0  0  0  0  0  0  0  0  0
  148.9869  131.4645  154.6720 C   0  0  0  0  0  0  0  0  0  0  0  0
  149.1199  132.0189  153.3691 O   0  0  0  0  0  0  0  0  0  0  0  0
  148.8244  133.4098  153.3333 C   0  0  0  0  0  0  0  0  0  0  0  0
  149.8243  134.1868  154.2080 C   0  0  0  0  0  0  0  0  0  0  0  0
  147.9637  133.4246  155.9379 H   0  0  0  0  0  0  0  0  0  0  0  0
  151.0179  133.8745  157.5005 H   0  0  0  0  0  0  0  0  0  0  0  0
  151.9801  134.0114  156.0529 H   0  0  0  0  0  0  0  0  0  0  0  0
  152.1042  136.3325  154.8495 H   0  0  0  0  0  0  0  0  0  0  0  0
  147.9544  140.2586  157.4927 H   0  0  0  0  0  0  0  0  0  0  0  0
  148.7744  141.7919  157.4934 H   0  0  0  0  0  0  0  0  0  0  0  0
  149.8816  140.9687  155.2260 H   0  0  0  0  0  0  0  0  0  0  0  0
  146.9773  141.8355  155.5395 H   0  0  0  0  0  0  0  0  0  0  0  0
  148.3289  142.8410  155.0137 H   0  0  0  0  0  0  0  0  0  0  0  0
  146.6517  141.4474  153.2760 H   0  0  0  0  0  0  0  0  0  0  0  0
  148.3232  141.8327  152.8638 H   0  0  0  0  0  0  0  0  0  0  0  0
  147.2895  139.1717  153.3091 H   0  0  0  0  0  0  0  0  0  0  0  0
  148.9775  139.6386  153.0747 H   0  0  0  0  0  0  0  0  0  0  0  0
  150.2870  140.9186  159.6291 H   0  0  0  0  0  0  0  0  0  0  0  0
  151.5933  142.3351  157.2808 H   0  0  0  0  0  0  0  0  0  0  0  0
  150.4312  142.9976  158.4237 H   0  0  0  0  0  0  0  0  0  0  0  0
  153.2059  143.1815  158.6988 H   0  0  0  0  0  0  0  0  0  0  0  0
  152.1083  143.2557  160.0684 H   0  0  0  0  0  0  0  0  0  0  0  0
  154.0484  141.1862  159.6236 H   0  0  0  0  0  0  0  0  0  0  0  0
  152.7872  141.2243  160.8466 H   0  0  0  0  0  0  0  0  0  0  0  0
  152.0611  139.2969  159.6562 H   0  0  0  0  0  0  0  0  0  0  0  0
  152.7388  139.9039  158.1500 H   0  0  0  0  0  0  0  0  0  0  0  0
  148.5462  136.8549  160.1934 H   0  0  0  0  0  0  0  0  0  0  0  0
  151.0062  131.8497  155.2963 H   0  0  0  0  0  0  0  0  0  0  0  0
  149.8911  131.7036  156.6303 H   0  0  0  0  0  0  0  0  0  0  0  0
  149.1671  130.3909  154.6151 H   0  0  0  0  0  0  0  0  0  0  0  0
  147.9656  131.5936  155.0332 H   0  0  0  0  0  0  0  0  0  0  0  0
  148.8882  133.7544  152.3012 H   0  0  0  0  0  0  0  0  0  0  0  0
  147.7980  133.5845  153.6599 H   0  0  0  0  0  0  0  0  0  0  0  0
  149.5728  135.2480  154.1907 H   0  0  0  0  0  0  0  0  0  0  0  0
  150.8162  134.0988  153.7631 H   0  0  0  0  0  0  0  0  0  0  0  0
  1  2  1  0  0  0  0
  1 30  1  0  0  0  0
  2 29  1  0  0  0  0
  2  3  1  0  0  0  0
  2 25  1  0  0  0  0
  3  4  1  0  0  0  0
  3 31  1  0  0  0  0
  3 32  1  0  0  0  0
  4 24  1  0  0  0  0
  4  5  1  0  0  0  0
  5  6  2  0  0  0  0
  5 33  1  0  0  0  0
  6  7  1  0  0  0  0
  7 24  2  0  0  0  0
  7  8  1  0  0  0  0
  8  9  1  0  0  0  0
  8 21  2  0  0  0  0
  9 10  1  0  0  0  0
  9 16  1  0  0  0  0
 10 11  1  0  0  0  0
 10 34  1  0  0  0  0
 10 35  1  0  0  0  0
 11 15  1  0  0  0  0
 11 12  1  0  0  0  0
 11 36  1  0  0  0  0
 12 13  1  0  0  0  0
 12 37  1  0  0  0  0
 12 38  1  0  0  0  0
 13 14  1  0  0  0  0
 13 39  1  0  0  0  0
 13 40  1  0  0  0  0
 14 15  1  0  0  0  0
 14 41  1  0  0  0  0
 14 42  1  0  0  0  0
 16 20  1  0  0  0  0
 16 17  1  0  0  0  0
 16 43  1  0  0  0  0
 17 18  1  0  0  0  0
 17 44  1  0  0  0  0
 17 45  1  0  0  0  0
 18 19  1  0  0  0  0
 18 46  1  0  0  0  0
 18 47  1  0  0  0  0
 19 20  1  0  0  0  0
 19 48  1  0  0  0  0
 19 49  1  0  0  0  0
 20 50  1  0  0  0  0
 20 51  1  0  0  0  0
 21 22  1  0  0  0  0
 22 23  2  0  0  0  0
 22 52  1  0  0  0  0
 23 24  1  0  0  0  0
 25 26  1  0  0  0  0
 25 53  1  0  0  0  0
 25 54  1  0  0  0  0
 26 27  1  0  0  0  0
 26 55  1  0  0  0  0
 26 56  1  0  0  0  0
 27 28  1  0  0  0  0
 28 29  1  0  0  0  0
 28 57  1  0  0  0  0
 28 58  1  0  0  0  0
 29 59  1  0  0  0  0
 29 60  1  0  0  0  0
M  END
> <s_m_source_file>
AV-unprocessed.smi

> <i_m_source_file_index>
173

> <i_lp_mmshare_version>
43012

> <i_f3d_flags>
0

> <s_epik_input>
W0NIMl0xW0NIMl1PW0NIMl1bQ0gyXUMxKFtPSF0pW0NIMl1uKFtjSF1uMiljKGMyMyluW2NIXW5jM04oW0NIMl1bQ0BASF00W0NIMl1bQ0gyXVtDSDJdTzQpW0NIXTVbQ0gyXVtDSDJdW0NIMl1bQ0gyXTU=

> <s_epik_cmdline>
J2VwaWtfcHl0aG9uJywgJy1waCcsICc3LjAnLCAnLXRuJywgJzgnLCAnLW1hJywgJzIwMCcsICctbWV0YWxfYmluZGluZycsICctaW1hZScsICc8aW5maWxlLm1hZT4nLCAnLW9tYWUnLCAnPG91dGZpbGUubWFlPic=

> <r_lp_tautomer_probability>
1

> <r_epik_Ionization_Penalty>
0.0053129

> <r_epik_Ionization_Penalty_Charging>
0

> <r_epik_Ionization_Penalty_Neutral>
0.0053129

> <r_epik_State_Penalty>
0.00367355

> <r_epik_Charging_Adjusted_Penalty>
0.00367355

> <i_epik_Tot_Q>
0

> <i_epik_Tot_abs_Q>
0

> <r_epik_Metal_State_Penalty>
-0

> <b_epik_Metal_Only>
0

> <s_lp_Force_Field>
OPLS_2005

> <r_lp_Energy>
56.2303

> <b_lp_Chiralities_Consistent>
1

> <s_lp_Variant>
AV-unprocessed.smi:173-1

> <Gold.Version>
5.8.1

> <Gold.Id.Protein>
6NUR|6NUR_protein|mol2

> <Gold.PLP.Fitness>
39.5904

> <Gold.PLP.PLP>
-38.5698

> <Gold.PLP.part.hbond>
-2.3028

> <Gold.PLP.part.metal>
0.0000

> <Gold.PLP.part.buried>
-2.3213

> <Gold.PLP.part.nonpolar>
-33.7883

> <Gold.PLP.part.repulsive>
0.2016

> <Gold.PLP.ligand.clash>
0.0000

> <Gold.PLP.ligand.torsion>
1.5883

> <Gold.PLP.Chemscore.Hbond>
1.0000

> <Gold.PLP.Chemscore.CHOScore>
0.0000

> <Gold.PLP.Chemscore.Metal>
0.0000

> <Gold.Chemscore.Hbonds>
donor molecule, donor type, donor heavy atom, donor atom, acceptor molecule, acceptor atom, score
      P1  H  6896  6907       L1    23  0.85

> <Gold.PLP.Chemscore.Internal.Correction>
1.1971

> <Gold.Rescore>
     Score         DG    S(hbond)    S(metal)    S(lipo)     H(rot)  DE(clash)    DE(int)     intcor
     11.22     -13.24       0.86        0.00      98.42       2.59       0.30       1.72       ----

> <Gold.Chemscore.Fitness>
11.2212

> <Gold.Chemscore.DG>
-13.2436

> <Gold.Chemscore.ZeroCoef>
-5.4800

> <Gold.Chemscore.Hbond>
0.8631

> <Gold.Chemscore.Metal>
0.0000

> <Gold.Chemscore.Lipo>
98.4231

> <Gold.Chemscore.Internal_Hbond>
0.0000

> <Gold.Chemscore.DEClash>
0.2975

> <Gold.Chemscore.DEInternal>
1.7249

> <Gold.Chemscore.Rot>
2.5916

> <Gold.Chemscore.Internal.Correction>
   9.000000E+99

> <Gold.Chemscore.Hbonds>
donor molecule, donor type, donor heavy atom, donor atom, acceptor molecule, acceptor atom, score
      P1  H  6896  6907       L1    23  0.52

> <Gold.Chemscore.Hbond.Weighted>
-2.8826

> <Gold.Chemscore.Metal.Weighted>
-0.0000

> <Gold.Chemscore.Lipo.Weighted>
-11.5155

> <Gold.Chemscore.Internal_Hbond.Weighted>
0.0000

> <Gold.Chemscore.DEClash.Weighted>
0.2975

> <Gold.Chemscore.DEInternal.Weighted>
1.7249

> <Gold.Chemscore.Rot.Weighted>
6.6346

> <Gold.Chemscore.Internal.Correction.Weighted>
   9.000000E+99

> <Gold.Protein.RotatedTorsions>
[ 6907 6896 6895 6894 ] final  -77.06 input  -60.11 | X-H torsion
[ 7974 7965 7964 7962 ] final  -53.90 input  175.53 | X-H torsion
[ 8008 7997 7996 7995 ] final  -14.17 input   59.86 | X-H torsion
[ 10167 10162 10161 10158 ] final   23.81 input  -65.29 | X-H torsion
[ 10718 10713 10712 10709 ] final   19.51 input   66.30 | X-H torsion
[ 10763 10752 10751 10750 ] final   49.12 input  -60.55 | X-H torsion
[ 11005 11000 10999 10996 ] final  -88.95 input  -57.11 | X-H torsion

> <Gold.Protein.ActiveResidues>
 VAL166  LYS551  ARG553  GLY616  TRP617  ASP618  TYR619  PRO620  LYS621  CYS622 
 ASP623  PHE694  ASN695  SER759  ASP760  ASP761  ALA762  ILE779  LEU786  VAL792 
 PHE793  MET794  SER795  GLU796  ALA797  LYS798  CYS799  TRP800  GLU811  SER814 

> <Gold.Protein.RotatedAtoms>
  150.7009  134.4478  159.5321 H   0  0  0  0  0  0  0  0  0  0  0  0  # atno 6907 bound_to 6896
  152.2176  134.8440  160.0499 H   0  0  0  0  0  0  0  0  0  0  0  0  # atno 6908 bound_to 6896
  151.9302  133.3574  159.3965 H   0  0  0  0  0  0  0  0  0  0  0  0  # atno 6909 bound_to 6896
  145.8916  140.8066  142.9788 H   0  0  0  0  0  0  0  0  0  0  0  0  # atno 7974 bound_to 7965
  154.5232  140.2230  155.8937 H   0  0  0  0  0  0  0  0  0  0  0  0  # atno 8008 bound_to 7997
  156.1685  140.3127  155.8896 H   0  0  0  0  0  0  0  0  0  0  0  0  # atno 8009 bound_to 7997
  155.3607  140.0461  157.3037 H   0  0  0  0  0  0  0  0  0  0  0  0  # atno 8010 bound_to 7997
  140.5239  143.9956  150.6430 H   0  0  0  0  0  0  0  0  0  0  0  0  # atno 10167 bound_to 10162
  157.1114  130.6510  149.5898 H   0  0  0  0  0  0  0  0  0  0  0  0  # atno 10718 bound_to 10713
  152.9788  135.5922  154.4038 H   0  0  0  0  0  0  0  0  0  0  0  0  # atno 10763 bound_to 10752
  154.3680  135.2767  155.2284 H   0  0  0  0  0  0  0  0  0  0  0  0  # atno 10764 bound_to 10752
  154.4252  135.6049  153.6089 H   0  0  0  0  0  0  0  0  0  0  0  0  # atno 10765 bound_to 10752
  141.1593  133.7600  156.9524 H   0  0  0  0  0  0  0  0  0  0  0  0  # atno 11005 bound_to 11000
  144.6731  140.1538  143.7428 LP  0  0  0  0  0  0  0  0  0  0  0  0  # atno 17320 bound_to 7965
  145.8901  139.2371  143.1554 LP  0  0  0  0  0  0  0  0  0  0  0  0  # atno 17321 bound_to 7965
  140.3312  143.3076  152.0685 LP  0  0  0  0  0  0  0  0  0  0  0  0  # atno 17342 bound_to 10162
  139.4932  144.6507  151.6681 LP  0  0  0  0  0  0  0  0  0  0  0  0  # atno 17343 bound_to 10162
  155.9849  130.4877  150.7008 LP  0  0  0  0  0  0  0  0  0  0  0  0  # atno 17370 bound_to 10713
  157.4556  131.0877  151.0800 LP  0  0  0  0  0  0  0  0  0  0  0  0  # atno 17371 bound_to 10713
  140.1248  134.9394  157.2254 LP  0  0  0  0  0  0  0  0  0  0  0  0  # atno 17394 bound_to 11000
  140.3027  134.3114  155.7286 LP  0  0  0  0  0  0  0  0  0  0  0  0  # atno 17395 bound_to 11000

$$$$
