AV-unprocessed.smi:1870|AV-procd|sdf|7594|dock6
  -GOLD-   22720 9303D 1   1.00000     0.00000
 Structure written by MMmdl.
 48 50  0  0  0  0  0  0  0  0  2 V2000
  146.8090  137.3529  163.0706 C   0  0  0  0  0  0  0  0  0  0  0  0
  147.3490  136.5586  161.9120 C   0  0  0  0  0  0  0  0  0  0  0  0
  148.2865  137.1131  161.2160 N   0  0  0  0  0  0  0  0  0  0  0  0
  148.8514  136.4740  160.1294 N   0  0  0  0  0  0  0  0  0  0  0  0
  149.9101  137.2453  159.4643 C   0  0  0  0  0  0  0  0  0  0  0  0
  149.5835  137.5727  157.9895 C   0  0  1  0  0  0  0  0  0  0  0  0
  148.3828  138.3192  157.9800 O   0  0  0  0  0  0  0  0  0  0  0  0
  150.6921  138.3916  157.2899 C   0  0  0  0  0  0  0  0  0  0  0  0
  151.1127  139.5917  158.0587 N   0  3  1  0  0  0  0  0  0  0  0  0
  152.4191  139.3982  158.7307 C   0  0  0  0  0  0  0  0  0  0  0  0
  152.6486  140.5052  159.7670 C   0  0  0  0  0  0  0  0  0  0  0  0
  152.4160  141.8897  159.1910 C   0  0  0  0  0  0  0  0  0  0  0  0
  152.9282  143.0213  159.8586 C   0  0  0  0  0  0  0  0  0  0  0  0
  152.6873  144.3117  159.3499 C   0  0  0  0  0  0  0  0  0  0  0  0
  151.9318  144.4745  158.1735 C   0  0  0  0  0  0  0  0  0  0  0  0
  151.4172  143.3471  157.5048 C   0  0  0  0  0  0  0  0  0  0  0  0
  151.6542  142.0509  158.0084 C   0  0  0  0  0  0  0  0  0  0  0  0
  151.1029  140.8448  157.2558 C   0  0  0  0  0  0  0  0  0  0  0  0
  148.4808  135.2429  159.6749 C   0  0  0  0  0  0  0  0  0  0  0  0
  148.9995  134.7181  158.6888 O   0  0  0  0  0  0  0  0  0  0  0  0
  147.4254  134.6157  160.4733 C   0  0  0  0  0  0  0  0  0  0  0  0
  147.0175  133.3181  160.0403 C   0  0  0  0  0  0  0  0  0  0  0  0
  146.6930  132.2582  159.7069 N   0  0  0  0  0  0  0  0  0  0  0  0
  146.8744  135.2263  161.5520 C   0  0  0  0  0  0  0  0  0  0  0  0
  145.7745  134.6167  162.4105 C   0  0  0  0  0  0  0  0  0  0  0  0
  145.7221  137.4234  163.0206 H   0  0  0  0  0  0  0  0  0  0  0  0
  147.2017  138.3709  163.0840 H   0  0  0  0  0  0  0  0  0  0  0  0
  147.0752  136.8833  164.0178 H   0  0  0  0  0  0  0  0  0  0  0  0
  150.0849  138.1686  160.0203 H   0  0  0  0  0  0  0  0  0  0  0  0
  150.8541  136.6982  159.5141 H   0  0  0  0  0  0  0  0  0  0  0  0
  149.3989  136.6402  157.4586 H   0  0  0  0  0  0  0  0  0  0  0  0
  148.5249  139.1256  157.5084 H   0  0  0  0  0  0  0  0  0  0  0  0
  151.5508  137.7374  157.1310 H   0  0  0  0  0  0  0  0  0  0  0  0
  150.3698  138.7150  156.2994 H   0  0  0  0  0  0  0  0  0  0  0  0
  152.4574  138.4305  159.2326 H   0  0  0  0  0  0  0  0  0  0  0  0
  153.2143  139.4002  157.9832 H   0  0  0  0  0  0  0  0  0  0  0  0
  151.9693  140.3704  160.6095 H   0  0  0  0  0  0  0  0  0  0  0  0
  153.6622  140.4380  160.1644 H   0  0  0  0  0  0  0  0  0  0  0  0
  153.5024  142.9030  160.7662 H   0  0  0  0  0  0  0  0  0  0  0  0
  153.0800  145.1769  159.8639 H   0  0  0  0  0  0  0  0  0  0  0  0
  151.7474  145.4650  157.7836 H   0  0  0  0  0  0  0  0  0  0  0  0
  150.8418  143.4809  156.6001 H   0  0  0  0  0  0  0  0  0  0  0  0
  151.6979  140.7079  156.3516 H   0  0  0  0  0  0  0  0  0  0  0  0
  150.0866  141.0778  156.9398 H   0  0  0  0  0  0  0  0  0  0  0  0
  145.6014  133.5674  162.1731 H   0  0  0  0  0  0  0  0  0  0  0  0
  144.8365  135.1512  162.2584 H   0  0  0  0  0  0  0  0  0  0  0  0
  146.0326  134.6680  163.4687 H   0  0  0  0  0  0  0  0  0  0  0  0
  150.4369  139.7083  158.8001 H   0  0  0  0  0  0  0  0  0  0  0  0
  1  2  1  0  0  0  0
  1 26  1  0  0  0  0
  1 27  1  0  0  0  0
  1 28  1  0  0  0  0
  2 24  1  0  0  0  0
  2  3  2  0  0  0  0
  3  4  1  0  0  0  0
  4  5  1  0  0  0  0
  4 19  1  0  0  0  0
  5  6  1  0  0  0  0
  5 29  1  0  0  0  0
  5 30  1  0  0  0  0
  6  7  1  0  0  0  0
  6  8  1  0  0  0  0
  6 31  1  0  0  0  0
  7 32  1  0  0  0  0
  8  9  1  0  0  0  0
  8 33  1  0  0  0  0
  8 34  1  0  0  0  0
  9 18  1  0  0  0  0
  9 10  1  0  0  0  0
  9 48  1  0  0  0  0
 10 11  1  0  0  0  0
 10 35  1  0  0  0  0
 10 36  1  0  0  0  0
 11 12  1  0  0  0  0
 11 37  1  0  0  0  0
 11 38  1  0  0  0  0
 12 17  2  0  0  0  0
 12 13  1  0  0  0  0
 13 14  2  0  0  0  0
 13 39  1  0  0  0  0
 14 15  1  0  0  0  0
 14 40  1  0  0  0  0
 15 16  2  0  0  0  0
 15 41  1  0  0  0  0
 16 17  1  0  0  0  0
 16 42  1  0  0  0  0
 17 18  1  0  0  0  0
 18 43  1  0  0  0  0
 18 44  1  0  0  0  0
 19 20  2  0  0  0  0
 19 21  1  0  0  0  0
 21 22  1  0  0  0  0
 21 24  2  0  0  0  0
 22 23  3  0  0  0  0
 24 25  1  0  0  0  0
 25 45  1  0  0  0  0
 25 46  1  0  0  0  0
 25 47  1  0  0  0  0
M  CHG  1   9   1
M  END
> <s_m_source_file>
AV-unprocessed.smi

> <i_m_source_file_index>
1870

> <i_lp_mmshare_version>
43012

> <i_f3d_flags>
0

> <s_epik_input>
TiNDYyhjMVtDSDNdKWMoPU8pbihuYzFbQ0gzXSlbQ0gyXVtDQEhdKFtPSF0pW0NIMl1OKFtDSDJdW0NIMl0yKVtDSDJdYyhjMjMpW2NIXVtjSF1bY0hdW2NIXTM=

> <s_epik_cmdline>
J2VwaWtfcHl0aG9uJywgJy1waCcsICc3LjAnLCAnLXRuJywgJzgnLCAnLW1hJywgJzIwMCcsICctbWV0YWxfYmluZGluZycsICctaW1hZScsICc8aW5maWxlLm1hZT4nLCAnLW9tYWUnLCAnPG91dGZpbGUubWFlPic=

> <r_epik_Ionization_Penalty>
0.0122865

> <r_epik_Ionization_Penalty_Charging>
0.0122864

> <r_epik_Ionization_Penalty_Neutral>
1.48087e-07

> <r_epik_State_Penalty>
0.00950248

> <r_epik_Charging_Adjusted_Penalty>
0.0217889

> <i_epik_Tot_Q>
1

> <i_epik_Tot_abs_Q>
1

> <r_epik_Metal_State_Penalty>
0.00950248

> <b_epik_Metal_Only>
0

> <s_lp_Force_Field>
OPLS_2005

> <r_lp_Energy>
36.9803

> <b_lp_Chiralities_Consistent>
1

> <s_lp_Variant>
AV-unprocessed.smi:1870-2

> <Gold.Version>
5.8.1

> <Gold.Id.Protein>
6NUR|6NUR_protein|mol2

> <Gold.PLP.Fitness>
52.0362

> <Gold.PLP.PLP>
-46.7138

> <Gold.PLP.part.hbond>
-2.8275

> <Gold.PLP.part.metal>
0.0000

> <Gold.PLP.part.buried>
-2.6396

> <Gold.PLP.part.nonpolar>
-41.5120

> <Gold.PLP.part.repulsive>
0.0834

> <Gold.PLP.ligand.clash>
0.0000

> <Gold.PLP.ligand.torsion>
0.7120

> <Gold.PLP.Chemscore.Hbond>
2.2290

> <Gold.PLP.Chemscore.CHOScore>
0.0000

> <Gold.PLP.Chemscore.Metal>
0.0000

> <Gold.Chemscore.Hbonds>
donor molecule, donor type, donor heavy atom, donor atom, acceptor molecule, acceptor atom, score
      P1  H  6896  6907       L1    20  1.00
      P1  H  6931  6943       L1     3  0.98
      P1  H  6934  6947       L1     3  0.24

> <Gold.PLP.Chemscore.Internal.Correction>
0.0596

> <Gold.Rescore>
     Score         DG    S(hbond)    S(metal)    S(lipo)     H(rot)  DE(clash)    DE(int)     intcor
     18.98     -20.96       1.64        0.00     132.80       2.16       0.43       1.55       ----

> <Gold.Chemscore.Fitness>
18.9794

> <Gold.Chemscore.DG>
-20.9648

> <Gold.Chemscore.ZeroCoef>
-5.4800

> <Gold.Chemscore.Hbond>
1.6419

> <Gold.Chemscore.Metal>
0.0000

> <Gold.Chemscore.Lipo>
132.8004

> <Gold.Chemscore.Internal_Hbond>
0.0000

> <Gold.Chemscore.DEClash>
0.4315

> <Gold.Chemscore.DEInternal>
1.5539

> <Gold.Chemscore.Rot>
2.1628

> <Gold.Chemscore.Internal.Correction>
   9.000000E+99

> <Gold.Chemscore.Hbonds>
donor molecule, donor type, donor heavy atom, donor atom, acceptor molecule, acceptor atom, score
      P1  H  6896  6907       L1    20  0.43
      P1  H  6931  6943       L1     3  0.82
      P1  H  6934  6947       L1     3  0.03

> <Gold.Chemscore.Hbond.Weighted>
-5.4838

> <Gold.Chemscore.Metal.Weighted>
-0.0000

> <Gold.Chemscore.Lipo.Weighted>
-15.5376

> <Gold.Chemscore.Internal_Hbond.Weighted>
0.0000

> <Gold.Chemscore.DEClash.Weighted>
0.4315

> <Gold.Chemscore.DEInternal.Weighted>
1.5539

> <Gold.Chemscore.Rot.Weighted>
5.5367

> <Gold.Chemscore.Internal.Correction.Weighted>
   9.000000E+99

> <Gold.Protein.RotatedTorsions>
[ 6907 6896 6895 6894 ] final -103.46 input  -60.11 | X-H torsion
[ 7974 7965 7964 7962 ] final -121.97 input  175.53 | X-H torsion
[ 8008 7997 7996 7995 ] final -179.36 input   59.86 | X-H torsion
[ 10167 10162 10161 10158 ] final  -59.84 input  -65.29 | X-H torsion
[ 10718 10713 10712 10709 ] final   20.76 input   66.30 | X-H torsion
[ 10763 10752 10751 10750 ] final   67.96 input  -60.55 | X-H torsion
[ 11005 11000 10999 10996 ] final   19.64 input  -57.11 | X-H torsion

> <Gold.Protein.ActiveResidues>
 VAL166  LYS551  ARG553  GLY616  TRP617  ASP618  TYR619  PRO620  LYS621  CYS622 
 ASP623  PHE694  ASN695  SER759  ASP760  ASP761  ALA762  ILE779  LEU786  VAL792 
 PHE793  MET794  SER795  GLU796  ALA797  LYS798  CYS799  TRP800  GLU811  SER814 

> <Gold.Protein.RotatedAtoms>
  150.7241  134.0425  159.3770 H   0  0  0  0  0  0  0  0  0  0  0  0  # atno 6907 bound_to 6896
  151.8399  135.0591  160.0456 H   0  0  0  0  0  0  0  0  0  0  0  0  # atno 6908 bound_to 6896
  152.2870  133.5489  159.5570 H   0  0  0  0  0  0  0  0  0  0  0  0  # atno 6909 bound_to 6896
  145.0345  140.8095  143.4303 H   0  0  0  0  0  0  0  0  0  0  0  0  # atno 7974 bound_to 7965
  156.0296  140.1279  157.0272 H   0  0  0  0  0  0  0  0  0  0  0  0  # atno 8008 bound_to 7997
  154.4344  140.1052  156.6151 H   0  0  0  0  0  0  0  0  0  0  0  0  # atno 8009 bound_to 7997
  155.5826  140.3468  155.4546 H   0  0  0  0  0  0  0  0  0  0  0  0  # atno 8010 bound_to 7997
  140.6109  143.2387  151.5711 H   0  0  0  0  0  0  0  0  0  0  0  0  # atno 10167 bound_to 10162
  157.1290  130.6583  149.5946 H   0  0  0  0  0  0  0  0  0  0  0  0  # atno 10718 bound_to 10713
  153.0212  135.5265  154.7061 H   0  0  0  0  0  0  0  0  0  0  0  0  # atno 10763 bound_to 10752
  154.6156  135.2883  155.0385 H   0  0  0  0  0  0  0  0  0  0  0  0  # atno 10764 bound_to 10752
  154.1391  135.6581  153.4991 H   0  0  0  0  0  0  0  0  0  0  0  0  # atno 10765 bound_to 10752
  140.4115  134.1613  155.7667 H   0  0  0  0  0  0  0  0  0  0  0  0  # atno 11005 bound_to 11000
  145.1727  139.2395  143.5333 LP  0  0  0  0  0  0  0  0  0  0  0  0  # atno 17320 bound_to 7965
  146.3502  140.1482  142.8593 LP  0  0  0  0  0  0  0  0  0  0  0  0  # atno 17321 bound_to 7965
  139.5361  144.2778  152.1253 LP  0  0  0  0  0  0  0  0  0  0  0  0  # atno 17342 bound_to 10162
  140.1977  144.4688  150.6447 LP  0  0  0  0  0  0  0  0  0  0  0  0  # atno 17343 bound_to 10162
  155.9812  130.4817  150.6814 LP  0  0  0  0  0  0  0  0  0  0  0  0  # atno 17370 bound_to 10713
  157.4409  131.0861  151.0944 LP  0  0  0  0  0  0  0  0  0  0  0  0  # atno 17371 bound_to 10713
  141.1819  133.8395  157.1226 LP  0  0  0  0  0  0  0  0  0  0  0  0  # atno 17394 bound_to 11000
  140.0264  134.9922  157.0695 LP  0  0  0  0  0  0  0  0  0  0  0  0  # atno 17395 bound_to 11000

$$$$
