AV-unprocessed.smi:3298|AV-procd|sdf|12640|dock8
  -GOLD-   2272018573D 1   1.00000     0.00000
 Structure written by MMmdl.
 35 36  0  0  0  0  0  0  0  0  1 V2000
  153.2370  141.7300  160.9416 C   0  0  0  0  0  0  0  0  0  0  0  0
  152.4559  142.7712  160.1674 C   0  0  0  0  0  0  0  0  0  0  0  0
  151.6988  142.4090  159.0337 C   0  0  0  0  0  0  0  0  0  0  0  0
  150.9910  143.4117  158.3390 C   0  0  0  0  0  0  0  0  0  0  0  0
  150.2267  143.0156  157.2080 N   0  0  0  0  0  0  0  0  0  0  0  0
  150.0049  141.7781  156.7314 C   0  0  0  0  0  0  0  0  0  0  0  0
  150.4352  140.7343  157.2218 O   0  0  0  0  0  0  0  0  0  0  0  0
  149.2221  141.8124  155.6435 N   0  0  0  0  0  0  0  0  0  0  0  0
  148.7742  140.6387  154.9024 C   0  0  2  0  0  0  0  0  0  0  0  0
  148.3728  139.5401  155.8480 C   0  0  0  0  0  0  0  0  0  0  0  0
  149.0269  138.4032  155.6225 C   0  0  0  0  0  0  0  0  0  0  0  0
  150.0076  138.5081  154.4824 C   0  0  2  0  0  0  0  0  0  0  0  0
  151.4343  138.0908  154.8794 C   0  0  0  0  0  0  0  0  0  0  0  0
  151.9018  137.0562  154.0394 O   0  0  0  0  0  0  0  0  0  0  0  0
  149.9042  139.9948  154.0558 C   0  0  0  0  0  0  0  0  0  0  0  0
  151.0566  144.7370  158.8324 C   0  0  0  0  0  0  0  0  0  0  0  0
  151.8404  144.9923  159.9753 C   0  0  0  0  0  0  0  0  0  0  0  0
  152.5300  144.0365  160.6332 N   0  0  0  0  0  0  0  0  0  0  0  0
  147.9133  140.8885  154.2799 H   0  0  0  0  0  0  0  0  0  0  0  0
  149.6498  137.8714  153.6721 H   0  0  0  0  0  0  0  0  0  0  0  0
  153.4118  140.8410  160.3351 H   0  0  0  0  0  0  0  0  0  0  0  0
  152.6859  141.4332  161.8342 H   0  0  0  0  0  0  0  0  0  0  0  0
  154.2062  142.1234  161.2501 H   0  0  0  0  0  0  0  0  0  0  0  0
  151.6667  141.3816  158.7012 H   0  0  0  0  0  0  0  0  0  0  0  0
  149.7414  143.7635  156.7346 H   0  0  0  0  0  0  0  0  0  0  0  0
  148.9072  142.7108  155.3081 H   0  0  0  0  0  0  0  0  0  0  0  0
  147.6193  139.6815  156.6089 H   0  0  0  0  0  0  0  0  0  0  0  0
  148.8837  137.4858  156.1743 H   0  0  0  0  0  0  0  0  0  0  0  0
  152.1140  138.9390  154.7929 H   0  0  0  0  0  0  0  0  0  0  0  0
  151.4673  137.7540  155.9163 H   0  0  0  0  0  0  0  0  0  0  0  0
  151.2769  136.9291  153.3419 H   0  0  0  0  0  0  0  0  0  0  0  0
  149.6855  140.0797  152.9907 H   0  0  0  0  0  0  0  0  0  0  0  0
  150.8543  140.5066  154.2185 H   0  0  0  0  0  0  0  0  0  0  0  0
  150.5199  145.5523  158.3730 H   0  0  0  0  0  0  0  0  0  0  0  0
  151.9100  145.9927  160.3758 H   0  0  0  0  0  0  0  0  0  0  0  0
  1  2  1  0  0  0  0
  1 21  1  0  0  0  0
  1 22  1  0  0  0  0
  1 23  1  0  0  0  0
  2 18  1  0  0  0  0
  2  3  2  0  0  0  0
  3  4  1  0  0  0  0
  3 24  1  0  0  0  0
  4  5  1  0  0  0  0
  4 16  2  0  0  0  0
  5  6  1  0  0  0  0
  5 25  1  0  0  0  0
  6  7  2  0  0  0  0
  6  8  1  0  0  0  0
  8  9  1  0  0  0  0
  8 26  1  0  0  0  0
  9 19  1  0  0  0  0
  9 15  1  0  0  0  0
  9 10  1  0  0  0  0
 10 11  2  0  0  0  0
 10 27  1  0  0  0  0
 11 12  1  0  0  0  0
 11 28  1  0  0  0  0
 12 20  1  0  0  0  0
 12 13  1  0  0  0  0
 12 15  1  0  0  0  0
 13 14  1  0  0  0  0
 13 29  1  0  0  0  0
 13 30  1  0  0  0  0
 14 31  1  0  0  0  0
 15 32  1  0  0  0  0
 15 33  1  0  0  0  0
 16 17  1  0  0  0  0
 16 34  1  0  0  0  0
 17 18  2  0  0  0  0
 17 35  1  0  0  0  0
M  END
> <s_m_source_file>
AV-unprocessed.smi

> <i_m_source_file_index>
3298

> <i_lp_mmshare_version>
43012

> <i_f3d_flags>
0

> <s_epik_input>
W0NIM11jMVtjSF1jKFtjSF1bY0hdbjEpW05IXUMoPU8pW05IXVtDQEBIXTJbQ0hdPVtDSF1bQ0BASF0oW0NIMl0yKVtDSDJdW09IXQ==

> <s_epik_cmdline>
J2VwaWtfcHl0aG9uJywgJy1waCcsICc3LjAnLCAnLXRuJywgJzgnLCAnLW1hJywgJzIwMCcsICctbWV0YWxfYmluZGluZycsICctaW1hZScsICc8aW5maWxlLm1hZT4nLCAnLW9tYWUnLCAnPG91dGZpbGUubWFlPic=

> <r_epik_Ionization_Penalty>
0.379275

> <r_epik_Ionization_Penalty_Charging>
0

> <r_epik_Ionization_Penalty_Neutral>
0.379275

> <r_epik_State_Penalty>
0.377195

> <r_epik_Charging_Adjusted_Penalty>
0.377195

> <i_epik_Tot_Q>
0

> <i_epik_Tot_abs_Q>
0

> <r_epik_Metal_State_Penalty>
0.22815

> <b_epik_Metal_Only>
0

> <s_lp_Force_Field>
OPLS_2005

> <r_lp_Energy>
20.8901

> <b_lp_Chiralities_Consistent>
1

> <s_lp_Variant>
AV-unprocessed.smi:3298-1

> <Gold.Version>
5.8.1

> <Gold.Id.Protein>
6NUR|6NUR_protein|mol2

> <Gold.PLP.Fitness>
44.4356

> <Gold.PLP.PLP>
-34.9401

> <Gold.PLP.part.hbond>
-4.0000

> <Gold.PLP.part.metal>
0.0000

> <Gold.PLP.part.buried>
-0.3888

> <Gold.PLP.part.nonpolar>
-31.3255

> <Gold.PLP.part.repulsive>
0.2326

> <Gold.PLP.ligand.clash>
0.0000

> <Gold.PLP.ligand.torsion>
0.9594

> <Gold.PLP.Chemscore.Hbond>
3.8000

> <Gold.PLP.Chemscore.CHOScore>
0.0000

> <Gold.PLP.Chemscore.Metal>
0.0000

> <Gold.Chemscore.Hbonds>
donor molecule, donor type, donor heavy atom, donor atom, acceptor molecule, acceptor atom, score
      L1  H     5    25       P1  8028  1.00
      L1  H     8    26       P1  8028  0.92
      L1  H    14    31       P1  7949  0.67
      P1  H 10752 10764       L1    14  1.00

> <Gold.PLP.Chemscore.Internal.Correction>
0.0142

> <Gold.Rescore>
     Score         DG    S(hbond)    S(metal)    S(lipo)     H(rot)  DE(clash)    DE(int)     intcor
     17.93     -24.40       3.48        0.00     101.23       1.78       2.64       3.82       ----

> <Gold.Chemscore.Fitness>
17.9341

> <Gold.Chemscore.DG>
-24.3997

> <Gold.Chemscore.ZeroCoef>
-5.4800

> <Gold.Chemscore.Hbond>
3.4824

> <Gold.Chemscore.Metal>
0.0000

> <Gold.Chemscore.Lipo>
101.2334

> <Gold.Chemscore.Internal_Hbond>
0.0000

> <Gold.Chemscore.DEClash>
2.6436

> <Gold.Chemscore.DEInternal>
3.8220

> <Gold.Chemscore.Rot>
1.7796

> <Gold.Chemscore.Internal.Correction>
   9.000000E+99

> <Gold.Chemscore.Hbonds>
donor molecule, donor type, donor heavy atom, donor atom, acceptor molecule, acceptor atom, score
      L1  H     5    25       P1  8028  0.99
      L1  H     8    26       P1  8028  0.84
      L1  H    14    31       P1  7949  0.43
      P1  H 10752 10764       L1    14  0.64

> <Gold.Chemscore.Hbond.Weighted>
-11.6312

> <Gold.Chemscore.Metal.Weighted>
-0.0000

> <Gold.Chemscore.Lipo.Weighted>
-11.8443

> <Gold.Chemscore.Internal_Hbond.Weighted>
0.0000

> <Gold.Chemscore.DEClash.Weighted>
2.6436

> <Gold.Chemscore.DEInternal.Weighted>
3.8220

> <Gold.Chemscore.Rot.Weighted>
4.5558

> <Gold.Chemscore.Internal.Correction.Weighted>
   9.000000E+99

> <Gold.Protein.RotatedTorsions>
[ 6907 6896 6895 6894 ] final   30.51 input  -60.11 | X-H torsion
[ 7974 7965 7964 7962 ] final  -31.38 input  175.53 | X-H torsion
[ 8008 7997 7996 7995 ] final   -3.84 input   59.86 | X-H torsion
[ 10167 10162 10161 10158 ] final  101.69 input  -65.29 | X-H torsion
[ 10718 10713 10712 10709 ] final    3.61 input   66.30 | X-H torsion
[ 10763 10752 10751 10750 ] final  -93.91 input  -60.55 | X-H torsion
[ 11005 11000 10999 10996 ] final   26.69 input  -57.11 | X-H torsion

> <Gold.Protein.ActiveResidues>
 VAL166  LYS551  ARG553  GLY616  TRP617  ASP618  TYR619  PRO620  LYS621  CYS622 
 ASP623  PHE694  ASN695  SER759  ASP760  ASP761  ALA762  ILE779  LEU786  VAL792 
 PHE793  MET794  SER795  GLU796  ALA797  LYS798  CYS799  TRP800  GLU811  SER814 

> <Gold.Protein.RotatedAtoms>
  152.0470  134.9677  160.0574 H   0  0  0  0  0  0  0  0  0  0  0  0  # atno 6907 bound_to 6896
  152.1093  133.4287  159.4631 H   0  0  0  0  0  0  0  0  0  0  0  0  # atno 6908 bound_to 6896
  150.6842  134.2587  159.4583 H   0  0  0  0  0  0  0  0  0  0  0  0  # atno 6909 bound_to 6896
  146.1071  140.5660  142.8794 H   0  0  0  0  0  0  0  0  0  0  0  0  # atno 7974 bound_to 7965
  154.6207  140.2499  155.7553 H   0  0  0  0  0  0  0  0  0  0  0  0  # atno 8008 bound_to 7997
  156.2425  140.2927  156.0432 H   0  0  0  0  0  0  0  0  0  0  0  0  # atno 8009 bound_to 7997
  155.1902  140.0391  157.2889 H   0  0  0  0  0  0  0  0  0  0  0  0  # atno 8010 bound_to 7997
  139.7416  144.7010  151.0567 H   0  0  0  0  0  0  0  0  0  0  0  0  # atno 10167 bound_to 10162
  156.8804  130.5651  149.5653 H   0  0  0  0  0  0  0  0  0  0  0  0  # atno 10718 bound_to 10713
  154.7004  135.5177  153.8519 H   0  0  0  0  0  0  0  0  0  0  0  0  # atno 10763 bound_to 10752
  153.0700  135.6598  154.0279 H   0  0  0  0  0  0  0  0  0  0  0  0  # atno 10764 bound_to 10752
  154.0138  135.2999  155.3369 H   0  0  0  0  0  0  0  0  0  0  0  0  # atno 10765 bound_to 10752
  140.3343  134.2403  155.7698 H   0  0  0  0  0  0  0  0  0  0  0  0  # atno 11005 bound_to 11000
  144.7480  140.5118  143.6822 LP  0  0  0  0  0  0  0  0  0  0  0  0  # atno 17320 bound_to 7965
  145.5738  139.1485  143.3273 LP  0  0  0  0  0  0  0  0  0  0  0  0  # atno 17321 bound_to 7965
  140.7786  143.4918  150.9883 LP  0  0  0  0  0  0  0  0  0  0  0  0  # atno 17342 bound_to 10162
  139.8606  143.7319  152.3173 LP  0  0  0  0  0  0  0  0  0  0  0  0  # atno 17343 bound_to 10162
  156.0680  130.5719  150.9327 LP  0  0  0  0  0  0  0  0  0  0  0  0  # atno 17370 bound_to 10713
  157.6144  131.0934  150.8738 LP  0  0  0  0  0  0  0  0  0  0  0  0  # atno 17371 bound_to 10713
  141.2055  133.7857  157.0227 LP  0  0  0  0  0  0  0  0  0  0  0  0  # atno 17394 bound_to 11000
  140.0834  134.9634  157.1662 LP  0  0  0  0  0  0  0  0  0  0  0  0  # atno 17395 bound_to 11000

$$$$
