AV-unprocessed.smi:1683|AV-procd|sdf|6750|dock8
  -GOLD-   22720 7503D 1   1.00000     0.00000
 Structure written by MMmdl.
 37 38  0  0  0  0  0  0  0  0  2 V2000
  146.5676  140.2186  153.7554 O   0  0  0  0  0  0  0  0  0  0  0  0
  147.4609  139.4198  153.4724 C   0  0  0  0  0  0  0  0  0  0  0  0
  148.7661  139.6903  153.6164 N   0  0  0  0  0  0  0  0  0  0  0  0
  149.3057  140.9539  154.1075 C   0  0  0  0  0  0  0  0  0  0  0  0
  149.9541  140.8058  155.4971 C   0  0  1  0  0  0  0  0  0  0  0  0
  151.2628  140.0203  155.5142 C   0  0  0  0  0  0  0  0  0  0  0  0
  151.8918  140.4556  156.8349 C   0  0  0  0  0  0  0  0  0  0  0  0
  151.5233  141.8799  157.0022 N   0  3  2  0  0  0  0  0  0  0  0  0
  151.3719  142.3317  158.4079 C   0  0  0  0  0  0  0  0  0  0  0  0
  152.4315  143.3687  158.8220 C   0  0  0  0  0  0  0  0  0  0  0  0
  152.0480  143.9507  159.9572 F   0  0  0  0  0  0  0  0  0  0  0  0
  153.6179  142.7960  159.0230 F   0  0  0  0  0  0  0  0  0  0  0  0
  152.5482  144.3047  157.8801 F   0  0  0  0  0  0  0  0  0  0  0  0
  150.3381  142.1406  156.1489 C   0  0  0  0  0  0  0  0  0  0  0  0
  147.2664  138.1803  152.9927 N   0  0  0  0  0  0  0  0  0  0  0  0
  146.0276  137.5612  152.6882 C   0  0  0  0  0  0  0  0  0  0  0  0
  145.8796  136.3981  151.8846 C   0  0  0  0  0  0  0  0  0  0  0  0
  144.6063  136.0495  151.7678 N   0  0  0  0  0  0  0  0  0  0  0  0
  143.9398  136.9800  152.4875 N   0  0  0  0  0  0  0  0  0  0  0  0
  144.7639  137.9205  153.0649 C   0  0  0  0  0  0  0  0  0  0  0  0
  142.9333  136.9613  152.5732 H   0  0  0  0  0  0  0  0  0  0  0  0
  149.4327  138.9769  153.3588 H   0  0  0  0  0  0  0  0  0  0  0  0
  150.0412  141.3110  153.3860 H   0  0  0  0  0  0  0  0  0  0  0  0
  148.5157  141.7064  154.1376 H   0  0  0  0  0  0  0  0  0  0  0  0
  149.2537  140.3025  156.1663 H   0  0  0  0  0  0  0  0  0  0  0  0
  151.1126  138.9419  155.4544 H   0  0  0  0  0  0  0  0  0  0  0  0
  151.8986  140.3212  154.6801 H   0  0  0  0  0  0  0  0  0  0  0  0
  151.4691  139.8619  157.6472 H   0  0  0  0  0  0  0  0  0  0  0  0
  152.9732  140.3164  156.8435 H   0  0  0  0  0  0  0  0  0  0  0  0
  150.3891  142.7941  158.5117 H   0  0  0  0  0  0  0  0  0  0  0  0
  151.3834  141.4743  159.0829 H   0  0  0  0  0  0  0  0  0  0  0  0
  150.6264  142.8734  155.3943 H   0  0  0  0  0  0  0  0  0  0  0  0
  149.4975  142.5589  156.7051 H   0  0  0  0  0  0  0  0  0  0  0  0
  148.0897  137.6224  152.8201 H   0  0  0  0  0  0  0  0  0  0  0  0
  146.6381  135.8072  151.3923 H   0  0  0  0  0  0  0  0  0  0  0  0
  144.3823  138.7307  153.6685 H   0  0  0  0  0  0  0  0  0  0  0  0
  152.2735  142.4239  156.6002 H   0  0  0  0  0  0  0  0  0  0  0  0
  1  2  2  0  0  0  0
  2  3  1  0  0  0  0
  2 15  1  0  0  0  0
  3  4  1  0  0  0  0
  3 22  1  0  0  0  0
  4  5  1  0  0  0  0
  4 23  1  0  0  0  0
  4 24  1  0  0  0  0
  5 14  1  0  0  0  0
  5  6  1  0  0  0  0
  5 25  1  0  0  0  0
  6  7  1  0  0  0  0
  6 26  1  0  0  0  0
  6 27  1  0  0  0  0
  7  8  1  0  0  0  0
  7 28  1  0  0  0  0
  7 29  1  0  0  0  0
  8  9  1  0  0  0  0
  8 14  1  0  0  0  0
  8 37  1  0  0  0  0
  9 10  1  0  0  0  0
  9 30  1  0  0  0  0
  9 31  1  0  0  0  0
 10 11  1  0  0  0  0
 10 12  1  0  0  0  0
 10 13  1  0  0  0  0
 14 32  1  0  0  0  0
 14 33  1  0  0  0  0
 15 16  1  0  0  0  0
 15 34  1  0  0  0  0
 16 20  2  0  0  0  0
 16 17  1  0  0  0  0
 17 18  2  0  0  0  0
 17 35  1  0  0  0  0
 18 19  1  0  0  0  0
 19 21  1  0  0  0  0
 19 20  1  0  0  0  0
 20 36  1  0  0  0  0
M  CHG  1   8   1
M  END
> <s_m_source_file>
AV-unprocessed.smi

> <i_m_source_file_index>
1683

> <i_lp_mmshare_version>
43012

> <i_f3d_flags>
0

> <s_epik_input>
W2NIXTFbbkhdbltjSF1jMVtOSF1DKD1PKVtOSF1bQ0gyXVtDQEBIXTJbQ0gyXVtDSDJdTihbQ0gyXTIpW0NIMl1DKEYpKEYpRg==

> <s_epik_cmdline>
J2VwaWtfcHl0aG9uJywgJy1waCcsICc3LjAnLCAnLXRuJywgJzgnLCAnLW1hJywgJzIwMCcsICctbWV0YWxfYmluZGluZycsICctaW1hZScsICc8aW5maWxlLm1hZT4nLCAnLW9tYWUnLCAnPG91dGZpbGUubWFlPic=

> <r_lp_tautomer_probability>
0.5

> <r_epik_Ionization_Penalty>
0.641865

> <r_epik_Ionization_Penalty_Charging>
0.64182

> <r_epik_Ionization_Penalty_Neutral>
4.50685e-05

> <r_epik_State_Penalty>
0.65957

> <r_epik_Charging_Adjusted_Penalty>
1.30139

> <i_epik_Tot_Q>
1

> <i_epik_Tot_abs_Q>
1

> <r_epik_Metal_State_Penalty>
0.659571

> <b_epik_Metal_Only>
0

> <s_lp_Force_Field>
OPLS_2005

> <r_lp_Energy>
31.4735

> <b_lp_Chiralities_Consistent>
1

> <s_lp_Variant>
AV-unprocessed.smi:1683-4

> <Gold.Version>
5.8.1

> <Gold.Id.Protein>
6NUR|6NUR_protein|mol2

> <Gold.PLP.Fitness>
40.5748

> <Gold.PLP.PLP>
-34.5891

> <Gold.PLP.part.hbond>
-3.0000

> <Gold.PLP.part.metal>
0.0000

> <Gold.PLP.part.buried>
3.6352

> <Gold.PLP.part.nonpolar>
-35.2112

> <Gold.PLP.part.repulsive>
1.0619

> <Gold.PLP.ligand.clash>
0.0000

> <Gold.PLP.ligand.torsion>
1.0397

> <Gold.PLP.Chemscore.Hbond>
0.9920

> <Gold.PLP.Chemscore.CHOScore>
1.5458

> <Gold.PLP.Chemscore.Metal>
0.0000

> <Gold.Chemscore.Hbonds>
donor molecule, donor type, donor heavy atom, donor atom, acceptor molecule, acceptor atom, score
      L1  H    15    34       P1  7948  0.99
      L1  C    17    35       P1  7948  0.82
      L1  C    20    36       P1 10175  0.67

> <Gold.PLP.Chemscore.Internal.Correction>
0.4517

> <Gold.Rescore>
     Score         DG    S(hbond)    S(metal)    S(lipo)     H(rot)  DE(clash)    DE(int)     intcor
      8.94     -11.08       0.96        0.00      60.00       1.81       0.33       1.81       ----

> <Gold.Chemscore.Fitness>
8.9365

> <Gold.Chemscore.DG>
-11.0752

> <Gold.Chemscore.ZeroCoef>
-5.4800

> <Gold.Chemscore.Hbond>
0.9621

> <Gold.Chemscore.Metal>
0.0000

> <Gold.Chemscore.Lipo>
59.9977

> <Gold.Chemscore.Internal_Hbond>
0.0000

> <Gold.Chemscore.DEClash>
0.3304

> <Gold.Chemscore.DEInternal>
1.8083

> <Gold.Chemscore.Rot>
1.8116

> <Gold.Chemscore.Internal.Correction>
   9.000000E+99

> <Gold.Chemscore.Hbonds>
donor molecule, donor type, donor heavy atom, donor atom, acceptor molecule, acceptor atom, score
      L1  H    15    34       P1  7948  0.94

> <Gold.Chemscore.Hbond.Weighted>
-3.2133

> <Gold.Chemscore.Metal.Weighted>
-0.0000

> <Gold.Chemscore.Lipo.Weighted>
-7.0197

> <Gold.Chemscore.Internal_Hbond.Weighted>
0.0000

> <Gold.Chemscore.DEClash.Weighted>
0.3304

> <Gold.Chemscore.DEInternal.Weighted>
1.8083

> <Gold.Chemscore.Rot.Weighted>
4.6378

> <Gold.Chemscore.Internal.Correction.Weighted>
   9.000000E+99

> <Gold.Protein.RotatedTorsions>
[ 6907 6896 6895 6894 ] final  -24.93 input  -60.11 | X-H torsion
[ 7974 7965 7964 7962 ] final   77.71 input  175.53 | X-H torsion
[ 8008 7997 7996 7995 ] final   75.65 input   59.86 | X-H torsion
[ 10167 10162 10161 10158 ] final -114.70 input  -65.29 | X-H torsion
[ 10718 10713 10712 10709 ] final  136.34 input   66.30 | X-H torsion
[ 10763 10752 10751 10750 ] final  -25.14 input  -60.55 | X-H torsion
[ 11005 11000 10999 10996 ] final -151.36 input  -57.11 | X-H torsion

> <Gold.Protein.ActiveResidues>
 VAL166  LYS551  ARG553  GLY616  TRP617  ASP618  TYR619  PRO620  LYS621  CYS622 
 ASP623  PHE694  ASN695  SER759  ASP760  ASP761  ALA762  ILE779  LEU786  VAL792 
 PHE793  MET794  SER795  GLU796  ALA797  LYS798  CYS799  TRP800  GLU811  SER814 

> <Gold.Protein.RotatedAtoms>
  151.1824  135.0367  159.8797 H   0  0  0  0  0  0  0  0  0  0  0  0  # atno 6907 bound_to 6896
  152.5444  134.1048  159.8343 H   0  0  0  0  0  0  0  0  0  0  0  0  # atno 6908 bound_to 6896
  151.1166  133.5087  159.2636 H   0  0  0  0  0  0  0  0  0  0  0  0  # atno 6909 bound_to 6896
  145.6865  139.2539  143.1784 H   0  0  0  0  0  0  0  0  0  0  0  0  # atno 7974 bound_to 7965
  155.8160  140.3471  155.5485 H   0  0  0  0  0  0  0  0  0  0  0  0  # atno 8008 bound_to 7997
  155.8392  140.0939  157.1765 H   0  0  0  0  0  0  0  0  0  0  0  0  # atno 8009 bound_to 7997
  154.4005  140.1397  156.3695 H   0  0  0  0  0  0  0  0  0  0  0  0  # atno 8010 bound_to 7997
  140.0981  143.4638  152.1829 H   0  0  0  0  0  0  0  0  0  0  0  0  # atno 10167 bound_to 10162
  157.4477  131.1063  151.0070 H   0  0  0  0  0  0  0  0  0  0  0  0  # atno 10718 bound_to 10713
  153.6950  135.6959  153.5079 H   0  0  0  0  0  0  0  0  0  0  0  0  # atno 10763 bound_to 10752
  153.2385  135.4314  155.0671 H   0  0  0  0  0  0  0  0  0  0  0  0  # atno 10764 bound_to 10752
  154.8361  135.3502  154.6491 H   0  0  0  0  0  0  0  0  0  0  0  0  # atno 10765 bound_to 10752
  140.7304  134.3627  157.5167 H   0  0  0  0  0  0  0  0  0  0  0  0  # atno 11005 bound_to 11000
  146.0919  140.7645  142.9591 LP  0  0  0  0  0  0  0  0  0  0  0  0  # atno 17320 bound_to 7965
  144.7010  140.3651  143.7156 LP  0  0  0  0  0  0  0  0  0  0  0  0  # atno 17321 bound_to 7965
  139.5686  144.7450  151.3952 LP  0  0  0  0  0  0  0  0  0  0  0  0  # atno 17342 bound_to 10162
  140.6992  143.7672  150.7376 LP  0  0  0  0  0  0  0  0  0  0  0  0  # atno 17343 bound_to 10162
  157.0911  130.5942  149.5440 LP  0  0  0  0  0  0  0  0  0  0  0  0  # atno 17370 bound_to 10713
  155.9974  130.5046  150.7533 LP  0  0  0  0  0  0  0  0  0  0  0  0  # atno 17371 bound_to 10713
  139.8827  134.9014  156.2810 LP  0  0  0  0  0  0  0  0  0  0  0  0  # atno 17394 bound_to 11000
  140.9926  133.7199  156.0837 LP  0  0  0  0  0  0  0  0  0  0  0  0  # atno 17395 bound_to 11000

$$$$
