AV-unprocessed.smi:2662|AV-procd|sdf|10320|dock2
  -GOLD-   2272014333D 1   1.00000     0.00000
 Structure written by MMmdl.
 37 39  0  0  0  0  0  0  0  0  2 V2000
  152.2199  137.2008  153.7154 O   0  0  0  0  0  0  0  0  0  0  0  0
  151.5549  137.6697  154.8671 C   0  0  0  0  0  0  0  0  0  0  0  0
  150.4226  138.5863  154.5348 C   0  0  0  0  0  0  0  0  0  0  0  0
  149.3806  138.2828  153.7099 N   0  3  0  0  0  0  0  0  0  0  0  0
  148.5177  139.3746  153.6142 C   0  0  0  0  0  0  0  0  0  0  0  0
  147.3356  139.5430  152.8995 C   0  0  0  0  0  0  0  0  0  0  0  0
  146.6965  140.7945  153.0197 C   0  0  0  0  0  0  0  0  0  0  0  0
  147.2341  141.8193  153.8255 C   0  0  0  0  0  0  0  0  0  0  0  0
  148.4337  141.6370  154.5448 C   0  0  0  0  0  0  0  0  0  0  0  0
  149.0589  140.3964  154.4203 C   0  0  0  0  0  0  0  0  0  0  0  0
  150.2340  139.8685  154.9667 N   0  0  0  0  0  0  0  0  0  0  0  0
  151.0449  140.7168  155.8557 C   0  0  0  0  0  0  0  0  0  0  0  0
  150.8011  140.4273  157.3503 C   0  0  2  0  0  0  0  0  0  0  0  0
  149.4198  140.5345  157.6393 O   0  0  0  0  0  0  0  0  0  0  0  0
  151.6616  141.3255  158.2288 C   0  0  0  0  0  0  0  0  0  0  0  0
  151.5551  142.7327  158.1471 C   0  0  0  0  0  0  0  0  0  0  0  0
  152.3639  143.5560  158.9540 C   0  0  0  0  0  0  0  0  0  0  0  0
  152.2538  144.9029  158.8706 F   0  0  0  0  0  0  0  0  0  0  0  0
  153.2891  142.9796  159.8444 C   0  0  0  0  0  0  0  0  0  0  0  0
  153.4065  141.5791  159.9257 C   0  0  0  0  0  0  0  0  0  0  0  0
  152.5979  140.7536  159.1201 C   0  0  0  0  0  0  0  0  0  0  0  0
  152.7309  139.4077  159.2023 F   0  0  0  0  0  0  0  0  0  0  0  0
  151.5717  136.9427  153.0779 H   0  0  0  0  0  0  0  0  0  0  0  0
  151.1717  136.8156  155.4257 H   0  0  0  0  0  0  0  0  0  0  0  0
  152.2724  138.1722  155.5142 H   0  0  0  0  0  0  0  0  0  0  0  0
  146.9226  138.7597  152.2808 H   0  0  0  0  0  0  0  0  0  0  0  0
  145.7763  140.9724  152.4822 H   0  0  0  0  0  0  0  0  0  0  0  0
  146.7165  142.7653  153.8925 H   0  0  0  0  0  0  0  0  0  0  0  0
  148.8387  142.4292  155.1573 H   0  0  0  0  0  0  0  0  0  0  0  0
  152.0955  140.5736  155.5993 H   0  0  0  0  0  0  0  0  0  0  0  0
  150.8217  141.7593  155.6303 H   0  0  0  0  0  0  0  0  0  0  0  0
  151.0703  139.3918  157.5609 H   0  0  0  0  0  0  0  0  0  0  0  0
  148.9741  140.8448  156.8657 H   0  0  0  0  0  0  0  0  0  0  0  0
  150.8555  143.1901  157.4629 H   0  0  0  0  0  0  0  0  0  0  0  0
  153.9114  143.6111  160.4614 H   0  0  0  0  0  0  0  0  0  0  0  0
  154.1206  141.1369  160.6045 H   0  0  0  0  0  0  0  0  0  0  0  0
  149.2760  137.3925  153.2405 H   0  0  0  0  0  0  0  0  0  0  0  0
  1  2  1  0  0  0  0
  1 23  1  0  0  0  0
  2  3  1  0  0  0  0
  2 24  1  0  0  0  0
  2 25  1  0  0  0  0
  3 11  1  0  0  0  0
  3  4  2  0  0  0  0
  4  5  1  0  0  0  0
  4 37  1  0  0  0  0
  5 10  2  0  0  0  0
  5  6  1  0  0  0  0
  6  7  2  0  0  0  0
  6 26  1  0  0  0  0
  7  8  1  0  0  0  0
  7 27  1  0  0  0  0
  8  9  2  0  0  0  0
  8 28  1  0  0  0  0
  9 10  1  0  0  0  0
  9 29  1  0  0  0  0
 10 11  1  0  0  0  0
 11 12  1  0  0  0  0
 12 13  1  0  0  0  0
 12 30  1  0  0  0  0
 12 31  1  0  0  0  0
 13 14  1  0  0  0  0
 13 15  1  0  0  0  0
 13 32  1  0  0  0  0
 14 33  1  0  0  0  0
 15 21  1  0  0  0  0
 15 16  2  0  0  0  0
 16 17  1  0  0  0  0
 16 34  1  0  0  0  0
 17 18  1  0  0  0  0
 17 19  2  0  0  0  0
 19 20  1  0  0  0  0
 19 35  1  0  0  0  0
 20 21  2  0  0  0  0
 20 36  1  0  0  0  0
 21 22  1  0  0  0  0
M  CHG  1   4   1
M  END
> <s_m_source_file>
AV-unprocessed.smi

> <i_m_source_file_index>
2662

> <i_lp_mmshare_version>
43012

> <i_f3d_flags>
0

> <s_epik_input>
W2NIXTFbY0hdW2NIXVtjSF1jKGMxMiluKGMobjIpW0NIMl1bT0hdKVtDSDJdW0NASF0oW09IXSljM1tjSF1jKEYpW2NIXVtjSF1jM0Y=

> <s_epik_cmdline>
J2VwaWtfcHl0aG9uJywgJy1waCcsICc3LjAnLCAnLXRuJywgJzgnLCAnLW1hJywgJzIwMCcsICctbWV0YWxfYmluZGluZycsICctaW1hZScsICc8aW5maWxlLm1hZT4nLCAnLW9tYWUnLCAnPG91dGZpbGUubWFlPic=

> <r_epik_Ionization_Penalty>
1.35643

> <r_epik_Ionization_Penalty_Charging>
1.35557

> <r_epik_Ionization_Penalty_Neutral>
0.000859316

> <r_epik_State_Penalty>
1.43401

> <r_epik_Charging_Adjusted_Penalty>
2.78958

> <i_epik_Tot_Q>
1

> <i_epik_Tot_abs_Q>
1

> <r_epik_Metal_State_Penalty>
5.47166

> <b_epik_Metal_Only>
0

> <s_lp_Force_Field>
OPLS_2005

> <r_lp_Energy>
14.5058

> <b_lp_Chiralities_Consistent>
1

> <s_lp_Variant>
AV-unprocessed.smi:2662-3

> <Gold.Version>
5.8.1

> <Gold.Id.Protein>
6NUR|6NUR_protein|mol2

> <Gold.PLP.Fitness>
64.3343

> <Gold.PLP.PLP>
-53.0795

> <Gold.PLP.part.hbond>
-3.6853

> <Gold.PLP.part.metal>
0.0000

> <Gold.PLP.part.buried>
-0.1532

> <Gold.PLP.part.nonpolar>
-49.9649

> <Gold.PLP.part.repulsive>
0.0488

> <Gold.PLP.ligand.clash>
0.0000

> <Gold.PLP.ligand.torsion>
0.3436

> <Gold.PLP.Chemscore.Hbond>
3.9520

> <Gold.PLP.Chemscore.CHOScore>
0.0000

> <Gold.PLP.Chemscore.Metal>
0.0000

> <Gold.Chemscore.Hbonds>
donor molecule, donor type, donor heavy atom, donor atom, acceptor molecule, acceptor atom, score
      L1  H     1    23       P1  7949  0.96
      L1  H     4    37       P1  7948  2.00
      P1  H 10752 10764       L1     1  0.99

> <Gold.PLP.Chemscore.Internal.Correction>
0.0860

> <Gold.Rescore>
     Score         DG    S(hbond)    S(metal)    S(lipo)     H(rot)  DE(clash)    DE(int)     intcor
     18.13     -19.84       2.27        0.00     122.48       2.95       1.43       0.28       ----

> <Gold.Chemscore.Fitness>
18.1289

> <Gold.Chemscore.DG>
-19.8352

> <Gold.Chemscore.ZeroCoef>
-5.4800

> <Gold.Chemscore.Hbond>
2.2668

> <Gold.Chemscore.Metal>
0.0000

> <Gold.Chemscore.Lipo>
122.4758

> <Gold.Chemscore.Internal_Hbond>
0.0000

> <Gold.Chemscore.DEClash>
1.4262

> <Gold.Chemscore.DEInternal>
0.2801

> <Gold.Chemscore.Rot>
2.9475

> <Gold.Chemscore.Internal.Correction>
   9.000000E+99

> <Gold.Chemscore.Hbonds>
donor molecule, donor type, donor heavy atom, donor atom, acceptor molecule, acceptor atom, score
      L1  H     1    23       P1  7949  0.87
      L1  H     4    37       P1  7948  0.97
      P1  H 10752 10764       L1     1  0.27

> <Gold.Chemscore.Hbond.Weighted>
-7.5712

> <Gold.Chemscore.Metal.Weighted>
-0.0000

> <Gold.Chemscore.Lipo.Weighted>
-14.3297

> <Gold.Chemscore.Internal_Hbond.Weighted>
0.0000

> <Gold.Chemscore.DEClash.Weighted>
1.4262

> <Gold.Chemscore.DEInternal.Weighted>
0.2801

> <Gold.Chemscore.Rot.Weighted>
7.5457

> <Gold.Chemscore.Internal.Correction.Weighted>
   9.000000E+99

> <Gold.Protein.RotatedTorsions>
[ 6907 6896 6895 6894 ] final   61.42 input  -60.11 | X-H torsion
[ 7974 7965 7964 7962 ] final -126.14 input  175.53 | X-H torsion
[ 8008 7997 7996 7995 ] final  -11.05 input   59.86 | X-H torsion
[ 10167 10162 10161 10158 ] final -102.11 input  -65.29 | X-H torsion
[ 10718 10713 10712 10709 ] final -133.40 input   66.30 | X-H torsion
[ 10763 10752 10751 10750 ] final  -94.44 input  -60.55 | X-H torsion
[ 11005 11000 10999 10996 ] final -141.66 input  -57.11 | X-H torsion

> <Gold.Protein.ActiveResidues>
 VAL166  LYS551  ARG553  GLY616  TRP617  ASP618  TYR619  PRO620  LYS621  CYS622 
 ASP623  PHE694  ASN695  SER759  ASP760  ASP761  ALA762  ILE779  LEU786  VAL792 
 PHE793  MET794  SER795  GLU796  ALA797  LYS798  CYS799  TRP800  GLU811  SER814 

> <Gold.Protein.RotatedAtoms>
  152.4087  134.6162  160.0038 H   0  0  0  0  0  0  0  0  0  0  0  0  # atno 6907 bound_to 6896
  151.6346  133.3324  159.3124 H   0  0  0  0  0  0  0  0  0  0  0  0  # atno 6908 bound_to 6896
  150.7980  134.7094  159.6640 H   0  0  0  0  0  0  0  0  0  0  0  0  # atno 6909 bound_to 6896
  144.9904  140.7726  143.4558 H   0  0  0  0  0  0  0  0  0  0  0  0  # atno 7974 bound_to 7965
  154.5499  140.2312  155.8502 H   0  0  0  0  0  0  0  0  0  0  0  0  # atno 8008 bound_to 7997
  156.1937  140.3070  155.9345 H   0  0  0  0  0  0  0  0  0  0  0  0  # atno 8009 bound_to 7997
  155.3091  140.0435  157.3024 H   0  0  0  0  0  0  0  0  0  0  0  0  # atno 8010 bound_to 7997
  140.2341  143.3585  152.0860 H   0  0  0  0  0  0  0  0  0  0  0  0  # atno 10167 bound_to 10162
  156.2445  130.7116  151.0990 H   0  0  0  0  0  0  0  0  0  0  0  0  # atno 10718 bound_to 10713
  154.7055  135.5157  153.8589 H   0  0  0  0  0  0  0  0  0  0  0  0  # atno 10763 bound_to 10752
  153.0738  135.6609  154.0199 H   0  0  0  0  0  0  0  0  0  0  0  0  # atno 10764 bound_to 10752
  154.0051  135.3007  155.3378 H   0  0  0  0  0  0  0  0  0  0  0  0  # atno 10765 bound_to 10752
  140.8303  134.2525  157.4860 H   0  0  0  0  0  0  0  0  0  0  0  0  # atno 11005 bound_to 11000
  145.2294  139.2122  143.5051 LP  0  0  0  0  0  0  0  0  0  0  0  0  # atno 17320 bound_to 7965
  146.3430  140.2168  142.8591 LP  0  0  0  0  0  0  0  0  0  0  0  0  # atno 17321 bound_to 7965
  139.5100  144.6876  151.5846 LP  0  0  0  0  0  0  0  0  0  0  0  0  # atno 17342 bound_to 10162
  140.6163  143.9343  150.6491 LP  0  0  0  0  0  0  0  0  0  0  0  0  # atno 17343 bound_to 10162
  157.7189  131.0693  150.6216 LP  0  0  0  0  0  0  0  0  0  0  0  0  # atno 17370 bound_to 10713
  156.6291  130.4427  149.5793 LP  0  0  0  0  0  0  0  0  0  0  0  0  # atno 17371 bound_to 10713
  139.8705  134.9582  156.4293 LP  0  0  0  0  0  0  0  0  0  0  0  0  # atno 17394 bound_to 11000
  140.9006  133.7782  155.9675 LP  0  0  0  0  0  0  0  0  0  0  0  0  # atno 17395 bound_to 11000

$$$$
