AV-unprocessed.smi:738|AV-procd|sdf|3539|dock10
  -GOLD-   22720 0533D 1   1.00000     0.00000
 Structure written by MMmdl.
 35 37  0  0  0  0  0  0  0  0  1 V2000
  145.5920  140.8579  154.5255 N   0  0  0  0  0  0  0  0  0  0  0  0
  146.8406  140.6661  154.0889 C   0  0  0  0  0  0  0  0  0  0  0  0
  147.1053  140.5057  152.8991 O   0  0  0  0  0  0  0  0  0  0  0  0
  147.9231  140.7241  155.1277 C   0  0  0  0  0  0  0  0  0  0  0  0
  147.6212  141.0803  156.4603 C   0  0  0  0  0  0  0  0  0  0  0  0
  148.5488  141.1704  157.4367 N   0  0  0  0  0  0  0  0  0  0  0  0
  149.8429  140.9177  157.1257 C   0  0  0  0  0  0  0  0  0  0  0  0
  150.7974  141.0126  158.1520 N   0  0  0  0  0  0  0  0  0  0  0  0
  151.5211  139.7605  158.3771 C   0  0  0  0  0  0  0  0  0  0  0  0
  152.5266  139.8969  159.5471 C   0  0  0  0  0  0  0  0  0  0  0  0
  153.3870  141.0254  159.3594 O   0  0  0  0  0  0  0  0  0  0  0  0
  152.6134  142.2116  159.2420 C   0  0  1  0  0  0  0  0  0  0  0  0
  153.3824  143.5072  158.9991 C   0  0  0  0  0  0  0  0  0  0  0  0
  152.3559  144.4251  158.3008 C   0  0  0  0  0  0  0  0  0  0  0  0
  151.1788  143.5238  157.8727 C   0  0  0  0  0  0  0  0  0  0  0  0
  151.7455  142.1080  157.9970 C   0  0  2  0  0  0  0  0  0  0  0  0
  150.2512  140.5653  155.8182 C   0  0  0  0  0  0  0  0  0  0  0  0
  151.9086  140.2474  155.4427 Cl  0  0  0  0  0  0  0  0  0  0  0  0
  149.2758  140.4722  154.8066 C   0  0  0  0  0  0  0  0  0  0  0  0
  144.8246  140.8354  153.8696 H   0  0  0  0  0  0  0  0  0  0  0  0
  145.4184  141.0300  155.5048 H   0  0  0  0  0  0  0  0  0  0  0  0
  146.6062  141.2957  156.7610 H   0  0  0  0  0  0  0  0  0  0  0  0
  150.8120  138.9584  158.5858 H   0  0  0  0  0  0  0  0  0  0  0  0
  152.0604  139.4814  157.4705 H   0  0  0  0  0  0  0  0  0  0  0  0
  151.9950  139.9959  160.4948 H   0  0  0  0  0  0  0  0  0  0  0  0
  153.1357  138.9962  159.6235 H   0  0  0  0  0  0  0  0  0  0  0  0
  151.9921  142.3371  160.1323 H   0  0  0  0  0  0  0  0  0  0  0  0
  153.7765  143.9369  159.9203 H   0  0  0  0  0  0  0  0  0  0  0  0
  154.2242  143.3203  158.3309 H   0  0  0  0  0  0  0  0  0  0  0  0
  152.0072  145.2095  158.9732 H   0  0  0  0  0  0  0  0  0  0  0  0
  152.8107  144.9139  157.4386 H   0  0  0  0  0  0  0  0  0  0  0  0
  150.3420  143.6582  158.5600 H   0  0  0  0  0  0  0  0  0  0  0  0
  150.8245  143.7459  156.8658 H   0  0  0  0  0  0  0  0  0  0  0  0
  152.3847  141.9081  157.1345 H   0  0  0  0  0  0  0  0  0  0  0  0
  149.5725  140.2131  153.8008 H   0  0  0  0  0  0  0  0  0  0  0  0
  1  2  1  0  0  0  0
  1 20  1  0  0  0  0
  1 21  1  0  0  0  0
  2  3  2  0  0  0  0
  2  4  1  0  0  0  0
  4 19  1  0  0  0  0
  4  5  2  0  0  0  0
  5  6  1  0  0  0  0
  5 22  1  0  0  0  0
  6  7  2  0  0  0  0
  7  8  1  0  0  0  0
  7 17  1  0  0  0  0
  8 16  1  0  0  0  0
  8  9  1  0  0  0  0
  9 10  1  0  0  0  0
  9 23  1  0  0  0  0
  9 24  1  0  0  0  0
 10 11  1  0  0  0  0
 10 25  1  0  0  0  0
 10 26  1  0  0  0  0
 11 12  1  0  0  0  0
 12 16  1  0  0  0  0
 12 13  1  0  0  0  0
 12 27  1  0  0  0  0
 13 14  1  0  0  0  0
 13 28  1  0  0  0  0
 13 29  1  0  0  0  0
 14 15  1  0  0  0  0
 14 30  1  0  0  0  0
 14 31  1  0  0  0  0
 15 16  1  0  0  0  0
 15 32  1  0  0  0  0
 15 33  1  0  0  0  0
 16 34  1  0  0  0  0
 17 18  1  0  0  0  0
 17 19  2  0  0  0  0
 19 35  1  0  0  0  0
M  END
> <s_m_source_file>
AV-unprocessed.smi

> <i_m_source_file_index>
738

> <i_lp_mmshare_version>
43012

> <i_f3d_flags>
0

> <s_epik_input>
W05IMl1DKD1PKWMxW2NIXW5jKGMoQ2wpW2NIXTEpTihbQ0gyXVtDSDJdTzIpW0NASF0oW0NASF0yMylbQ0gyXVtDSDJdW0NIMl0z

> <s_epik_cmdline>
J2VwaWtfcHl0aG9uJywgJy1waCcsICc3LjAnLCAnLXRuJywgJzgnLCAnLW1hJywgJzIwMCcsICctbWV0YWxfYmluZGluZycsICctaW1hZScsICc8aW5maWxlLm1hZT4nLCAnLW9tYWUnLCAnPG91dGZpbGUubWFlPic=

> <r_lp_tautomer_probability>
1

> <r_epik_Ionization_Penalty>
6.75978e-06

> <r_epik_Ionization_Penalty_Charging>
0

> <r_epik_Ionization_Penalty_Neutral>
6.75978e-06

> <r_epik_State_Penalty>
-0

> <r_epik_Charging_Adjusted_Penalty>
0

> <i_epik_Tot_Q>
0

> <i_epik_Tot_abs_Q>
0

> <r_epik_Metal_State_Penalty>
-0

> <b_epik_Metal_Only>
0

> <s_lp_Force_Field>
OPLS_2005

> <r_lp_Energy>
40.6009

> <b_lp_Chiralities_Consistent>
1

> <s_lp_Variant>
AV-unprocessed.smi:738-2

> <Gold.Version>
5.8.1

> <Gold.Id.Protein>
6NUR|6NUR_protein|mol2

> <Gold.PLP.Fitness>
34.4216

> <Gold.PLP.PLP>
-31.5263

> <Gold.PLP.part.hbond>
-1.0000

> <Gold.PLP.part.metal>
0.0000

> <Gold.PLP.part.buried>
-3.8453

> <Gold.PLP.part.nonpolar>
-27.3565

> <Gold.PLP.part.repulsive>
0.6677

> <Gold.PLP.ligand.clash>
0.0144

> <Gold.PLP.ligand.torsion>
0.0693

> <Gold.PLP.Chemscore.Hbond>
1.0000

> <Gold.PLP.Chemscore.CHOScore>
0.0000

> <Gold.PLP.Chemscore.Metal>
0.0000

> <Gold.Chemscore.Hbonds>
donor molecule, donor type, donor heavy atom, donor atom, acceptor molecule, acceptor atom, score
      L1  H     1    20       P1 10175  1.00

> <Gold.PLP.Chemscore.Internal.Correction>
0.0482

> <Gold.Rescore>
     Score         DG    S(hbond)    S(metal)    S(lipo)     H(rot)  DE(clash)    DE(int)     intcor
     16.74     -17.66       1.00        0.00      97.51       1.00       0.11       0.80       ----

> <Gold.Chemscore.Fitness>
16.7421

> <Gold.Chemscore.DG>
-17.6562

> <Gold.Chemscore.ZeroCoef>
-5.4800

> <Gold.Chemscore.Hbond>
0.9964

> <Gold.Chemscore.Metal>
0.0000

> <Gold.Chemscore.Lipo>
97.5052

> <Gold.Chemscore.Internal_Hbond>
0.0000

> <Gold.Chemscore.DEClash>
0.1144

> <Gold.Chemscore.DEInternal>
0.7998

> <Gold.Chemscore.Rot>
1.0000

> <Gold.Chemscore.Internal.Correction>
   9.000000E+99

> <Gold.Chemscore.Hbonds>
donor molecule, donor type, donor heavy atom, donor atom, acceptor molecule, acceptor atom, score
      L1  H     1    20       P1 10175  0.94

> <Gold.Chemscore.Hbond.Weighted>
-3.3281

> <Gold.Chemscore.Metal.Weighted>
-0.0000

> <Gold.Chemscore.Lipo.Weighted>
-11.4081

> <Gold.Chemscore.Internal_Hbond.Weighted>
0.0000

> <Gold.Chemscore.DEClash.Weighted>
0.1144

> <Gold.Chemscore.DEInternal.Weighted>
0.7998

> <Gold.Chemscore.Rot.Weighted>
2.5600

> <Gold.Chemscore.Internal.Correction.Weighted>
   9.000000E+99

> <Gold.Protein.RotatedTorsions>
[ 6907 6896 6895 6894 ] final   73.85 input  -60.11 | X-H torsion
[ 7974 7965 7964 7962 ] final  101.30 input  175.53 | X-H torsion
[ 8008 7997 7996 7995 ] final   77.69 input   59.86 | X-H torsion
[ 10167 10162 10161 10158 ] final  140.52 input  -65.29 | X-H torsion
[ 10718 10713 10712 10709 ] final   76.47 input   66.30 | X-H torsion
[ 10763 10752 10751 10750 ] final   37.25 input  -60.55 | X-H torsion
[ 11005 11000 10999 10996 ] final  -64.92 input  -57.11 | X-H torsion

> <Gold.Protein.ActiveResidues>
 VAL166  LYS551  ARG553  GLY616  TRP617  ASP618  TYR619  PRO620  LYS621  CYS622 
 ASP623  PHE694  ASN695  SER759  ASP760  ASP761  ALA762  ILE779  LEU786  VAL792 
 PHE793  MET794  SER795  GLU796  ALA797  LYS798  CYS799  TRP800  GLU811  SER814 

> <Gold.Protein.RotatedAtoms>
  152.4945  134.4359  159.9527 H   0  0  0  0  0  0  0  0  0  0  0  0  # atno 6907 bound_to 6896
  151.4341  133.3656  159.2780 H   0  0  0  0  0  0  0  0  0  0  0  0  # atno 6908 bound_to 6896
  150.9134  134.8574  159.7500 H   0  0  0  0  0  0  0  0  0  0  0  0  # atno 6909 bound_to 6896
  145.3741  139.2392  143.3439 H   0  0  0  0  0  0  0  0  0  0  0  0  # atno 7974 bound_to 7965
  155.8451  140.3460  155.5657 H   0  0  0  0  0  0  0  0  0  0  0  0  # atno 8008 bound_to 7997
  155.8098  140.0897  157.1930 H   0  0  0  0  0  0  0  0  0  0  0  0  # atno 8009 bound_to 7997
  154.4006  140.1450  156.3361 H   0  0  0  0  0  0  0  0  0  0  0  0  # atno 8010 bound_to 7997
  139.5046  144.6229  151.6008 H   0  0  0  0  0  0  0  0  0  0  0  0  # atno 10167 bound_to 10162
  157.6674  130.9776  150.1501 H   0  0  0  0  0  0  0  0  0  0  0  0  # atno 10718 bound_to 10713
  153.0045  135.6283  154.2115 H   0  0  0  0  0  0  0  0  0  0  0  0  # atno 10763 bound_to 10752
  154.1859  135.2811  155.3039 H   0  0  0  0  0  0  0  0  0  0  0  0  # atno 10764 bound_to 10752
  154.5798  135.5651  153.7234 H   0  0  0  0  0  0  0  0  0  0  0  0  # atno 10765 bound_to 10752
  141.1439  133.6673  156.5907 H   0  0  0  0  0  0  0  0  0  0  0  0  # atno 11005 bound_to 11000
  146.2872  140.4397  142.8753 LP  0  0  0  0  0  0  0  0  0  0  0  0  # atno 17320 bound_to 7965
  144.8555  140.7064  143.6141 LP  0  0  0  0  0  0  0  0  0  0  0  0  # atno 17321 bound_to 7965
  140.5937  143.9735  150.6340 LP  0  0  0  0  0  0  0  0  0  0  0  0  # atno 17342 bound_to 10162
  140.2923  143.3315  152.1050 LP  0  0  0  0  0  0  0  0  0  0  0  0  # atno 17343 bound_to 10162
  156.2302  130.3681  149.8453 LP  0  0  0  0  0  0  0  0  0  0  0  0  # atno 17370 bound_to 10713
  156.6282  130.8654  151.3490 LP  0  0  0  0  0  0  0  0  0  0  0  0  # atno 17371 bound_to 10713
  140.3765  134.7560  157.4633 LP  0  0  0  0  0  0  0  0  0  0  0  0  # atno 17394 bound_to 11000
  140.0670  134.5915  155.8684 LP  0  0  0  0  0  0  0  0  0  0  0  0  # atno 17395 bound_to 11000

$$$$
