AV-unprocessed.smi:1102|AV-procd|sdf|4770|dock4
  -GOLD-   22720 3313D 1   1.00000     0.00000
 Structure written by MMmdl.
 39 40  0  0  0  0  0  0  0  0  1 V2000
  151.9697  145.2285  160.0489 C   0  0  0  0  0  0  0  0  0  0  0  0
  152.0889  144.1587  159.0659 N   0  0  0  0  0  0  0  0  0  0  0  0
  151.5701  144.3520  157.7157 C   0  0  0  0  0  0  0  0  0  0  0  0
  152.6285  142.9066  159.4397 C   0  0  0  0  0  0  0  0  0  0  0  0
  152.3016  141.7207  158.7362 C   0  0  0  0  0  0  0  0  0  0  0  0
  152.8656  140.4969  159.1450 C   0  0  0  0  0  0  0  0  0  0  0  0
  153.7527  140.4836  160.2455 C   0  0  0  0  0  0  0  0  0  0  0  0
  154.3710  139.3142  160.7650 N   0  0  0  0  0  0  0  0  0  0  0  0
  153.8839  138.0628  160.8196 C   0  0  0  0  0  0  0  0  0  0  0  0
  152.7884  137.7041  160.3878 O   0  0  0  0  0  0  0  0  0  0  0  0
  154.7591  137.2279  161.3969 N   0  0  0  0  0  0  0  0  0  0  0  0
  154.5400  135.8019  161.6109 C   0  0  0  0  0  0  0  0  0  0  0  0
  154.8852  135.3860  163.0505 C   0  0  1  0  0  0  0  0  0  0  0  0
  154.1218  136.1647  164.1200 C   0  0  0  0  0  0  0  0  0  0  0  0
  154.0874  135.2092  165.3035 C   0  0  0  0  0  0  0  0  0  0  0  0
  154.5078  133.8612  164.7103 C   0  0  0  0  0  0  0  0  0  0  0  0
  154.4775  134.0507  163.3031 O   0  0  0  0  0  0  0  0  0  0  0  0
  154.0059  141.7086  160.8921 C   0  0  0  0  0  0  0  0  0  0  0  0
  153.4685  142.8833  160.5033 N   0  0  0  0  0  0  0  0  0  0  0  0
  152.9539  145.5294  160.4089 H   0  0  0  0  0  0  0  0  0  0  0  0
  151.3697  144.9036  160.8995 H   0  0  0  0  0  0  0  0  0  0  0  0
  151.4894  146.1088  159.6215 H   0  0  0  0  0  0  0  0  0  0  0  0
  152.3448  144.1532  156.9743 H   0  0  0  0  0  0  0  0  0  0  0  0
  151.2219  145.3737  157.5652 H   0  0  0  0  0  0  0  0  0  0  0  0
  150.7311  143.6811  157.5289 H   0  0  0  0  0  0  0  0  0  0  0  0
  151.6255  141.7224  157.8948 H   0  0  0  0  0  0  0  0  0  0  0  0
  152.5943  139.5973  158.6155 H   0  0  0  0  0  0  0  0  0  0  0  0
  155.3196  139.4348  161.0884 H   0  0  0  0  0  0  0  0  0  0  0  0
  155.6365  137.6062  161.7226 H   0  0  0  0  0  0  0  0  0  0  0  0
  153.5029  135.5501  161.3834 H   0  0  0  0  0  0  0  0  0  0  0  0
  155.1558  135.2489  160.9014 H   0  0  0  0  0  0  0  0  0  0  0  0
  155.9583  135.4722  163.2326 H   0  0  0  0  0  0  0  0  0  0  0  0
  154.5919  137.1194  164.3577 H   0  0  0  0  0  0  0  0  0  0  0  0
  153.1029  136.3663  163.7864 H   0  0  0  0  0  0  0  0  0  0  0  0
  154.7781  135.5170  166.0892 H   0  0  0  0  0  0  0  0  0  0  0  0
  153.0870  135.1642  165.7348 H   0  0  0  0  0  0  0  0  0  0  0  0
  155.5244  133.6085  165.0152 H   0  0  0  0  0  0  0  0  0  0  0  0
  153.8497  133.0460  165.0120 H   0  0  0  0  0  0  0  0  0  0  0  0
  154.6647  141.7519  161.7473 H   0  0  0  0  0  0  0  0  0  0  0  0
  1  2  1  0  0  0  0
  1 20  1  0  0  0  0
  1 21  1  0  0  0  0
  1 22  1  0  0  0  0
  2  3  1  0  0  0  0
  2  4  1  0  0  0  0
  3 23  1  0  0  0  0
  3 24  1  0  0  0  0
  3 25  1  0  0  0  0
  4 19  1  0  0  0  0
  4  5  2  0  0  0  0
  5  6  1  0  0  0  0
  5 26  1  0  0  0  0
  6  7  2  0  0  0  0
  6 27  1  0  0  0  0
  7  8  1  0  0  0  0
  7 18  1  0  0  0  0
  8  9  1  0  0  0  0
  8 28  1  0  0  0  0
  9 10  2  0  0  0  0
  9 11  1  0  0  0  0
 11 12  1  0  0  0  0
 11 29  1  0  0  0  0
 12 13  1  0  0  0  0
 12 30  1  0  0  0  0
 12 31  1  0  0  0  0
 13 17  1  0  0  0  0
 13 14  1  0  0  0  0
 13 32  1  0  0  0  0
 14 15  1  0  0  0  0
 14 33  1  0  0  0  0
 14 34  1  0  0  0  0
 15 16  1  0  0  0  0
 15 35  1  0  0  0  0
 15 36  1  0  0  0  0
 16 17  1  0  0  0  0
 16 37  1  0  0  0  0
 16 38  1  0  0  0  0
 18 19  2  0  0  0  0
 18 39  1  0  0  0  0
M  END
> <s_m_source_file>
AV-unprocessed.smi

> <i_m_source_file_index>
1102

> <i_lp_mmshare_version>
43012

> <i_f3d_flags>
0

> <s_epik_input>
W0NIM11OKFtDSDNdKWMxW2NIXVtjSF1jKFtjSF1uMSlbTkhdQyg9TylbTkhdW0NIMl1bQ0BASF0yW0NIMl1bQ0gyXVtDSDJdTzI=

> <s_epik_cmdline>
J2VwaWtfcHl0aG9uJywgJy1waCcsICc3LjAnLCAnLXRuJywgJzgnLCAnLW1hJywgJzIwMCcsICctbWV0YWxfYmluZGluZycsICctaW1hZScsICc8aW5maWxlLm1hZT4nLCAnLW9tYWUnLCAnPG91dGZpbGUubWFlPic=

> <r_lp_tautomer_probability>
1

> <r_epik_Ionization_Penalty>
0.605145

> <r_epik_Ionization_Penalty_Charging>
0

> <r_epik_Ionization_Penalty_Neutral>
0.605145

> <r_epik_State_Penalty>
0.618734

> <r_epik_Charging_Adjusted_Penalty>
0.618734

> <i_epik_Tot_Q>
0

> <i_epik_Tot_abs_Q>
0

> <r_epik_Metal_State_Penalty>
0.302184

> <b_epik_Metal_Only>
0

> <s_lp_Force_Field>
OPLS_2005

> <r_lp_Energy>
20.895

> <b_lp_Chiralities_Consistent>
1

> <s_lp_Variant>
AV-unprocessed.smi:1102-4

> <Gold.Version>
5.8.1

> <Gold.Id.Protein>
6NUR|6NUR_protein|mol2

> <Gold.PLP.Fitness>
39.7608

> <Gold.PLP.PLP>
-40.8264

> <Gold.PLP.part.hbond>
0.0000

> <Gold.PLP.part.metal>
0.0000

> <Gold.PLP.part.buried>
-1.1477

> <Gold.PLP.part.nonpolar>
-38.8103

> <Gold.PLP.part.repulsive>
0.0389

> <Gold.PLP.ligand.clash>
0.0000

> <Gold.PLP.ligand.torsion>
0.5526

> <Gold.PLP.Chemscore.Hbond>
0.0000

> <Gold.PLP.Chemscore.CHOScore>
0.0000

> <Gold.PLP.Chemscore.Metal>
0.0000

> <Gold.PLP.Chemscore.Internal.Correction>
0.0395

> <Gold.Rescore>
     Score         DG    S(hbond)    S(metal)    S(lipo)     H(rot)  DE(clash)    DE(int)     intcor
     12.09     -13.54       0.00        0.00      95.48       1.21       0.03       1.42       ----

> <Gold.Chemscore.Fitness>
12.0941

> <Gold.Chemscore.DG>
-13.5418

> <Gold.Chemscore.ZeroCoef>
-5.4800

> <Gold.Chemscore.Hbond>
0.0000

> <Gold.Chemscore.Metal>
0.0000

> <Gold.Chemscore.Lipo>
95.4798

> <Gold.Chemscore.Internal_Hbond>
0.0000

> <Gold.Chemscore.DEClash>
0.0322

> <Gold.Chemscore.DEInternal>
1.4155

> <Gold.Chemscore.Rot>
1.2146

> <Gold.Chemscore.Internal.Correction>
   9.000000E+99

> <Gold.Chemscore.Hbond.Weighted>
-0.0000

> <Gold.Chemscore.Metal.Weighted>
-0.0000

> <Gold.Chemscore.Lipo.Weighted>
-11.1711

> <Gold.Chemscore.Internal_Hbond.Weighted>
0.0000

> <Gold.Chemscore.DEClash.Weighted>
0.0322

> <Gold.Chemscore.DEInternal.Weighted>
1.4155

> <Gold.Chemscore.Rot.Weighted>
3.1093

> <Gold.Chemscore.Internal.Correction.Weighted>
   9.000000E+99

> <Gold.Protein.RotatedTorsions>
[ 6907 6896 6895 6894 ] final   96.75 input  -60.11 | X-H torsion
[ 7974 7965 7964 7962 ] final    6.17 input  175.53 | X-H torsion
[ 8008 7997 7996 7995 ] final  -42.57 input   59.86 | X-H torsion
[ 10167 10162 10161 10158 ] final   48.73 input  -65.29 | X-H torsion
[ 10718 10713 10712 10709 ] final -174.67 input   66.30 | X-H torsion
[ 10763 10752 10751 10750 ] final   62.36 input  -60.55 | X-H torsion
[ 11005 11000 10999 10996 ] final   43.25 input  -57.11 | X-H torsion

> <Gold.Protein.ActiveResidues>
 VAL166  LYS551  ARG553  GLY616  TRP617  ASP618  TYR619  PRO620  LYS621  CYS622 
 ASP623  PHE694  ASN695  SER759  ASP760  ASP761  ALA762  ILE779  LEU786  VAL792 
 PHE793  MET794  SER795  GLU796  ALA797  LYS798  CYS799  TRP800  GLU811  SER814 

> <Gold.Protein.RotatedAtoms>
  152.5431  134.0838  159.8246 H   0  0  0  0  0  0  0  0  0  0  0  0  # atno 6907 bound_to 6896
  151.0936  133.5289  159.2621 H   0  0  0  0  0  0  0  0  0  0  0  0  # atno 6908 bound_to 6896
  151.2071  135.0475  159.8950 H   0  0  0  0  0  0  0  0  0  0  0  0  # atno 6909 bound_to 6896
  146.2436  140.0274  142.8392 H   0  0  0  0  0  0  0  0  0  0  0  0  # atno 7974 bound_to 7965
  154.3998  140.1470  156.3376 H   0  0  0  0  0  0  0  0  0  0  0  0  # atno 8008 bound_to 7997
  155.8385  140.3463  155.5596 H   0  0  0  0  0  0  0  0  0  0  0  0  # atno 8009 bound_to 7997
  155.8112  140.0884  157.1893 H   0  0  0  0  0  0  0  0  0  0  0  0  # atno 8010 bound_to 7997
  140.2903  144.3054  150.6242 H   0  0  0  0  0  0  0  0  0  0  0  0  # atno 10167 bound_to 10162
  156.7885  130.9509  151.3120 H   0  0  0  0  0  0  0  0  0  0  0  0  # atno 10718 bound_to 10713
  152.9980  135.5468  154.6180 H   0  0  0  0  0  0  0  0  0  0  0  0  # atno 10763 bound_to 10752
  154.5486  135.2825  155.1032 H   0  0  0  0  0  0  0  0  0  0  0  0  # atno 10764 bound_to 10752
  154.2281  135.6438  153.5219 H   0  0  0  0  0  0  0  0  0  0  0  0  # atno 10765 bound_to 10752
  140.1662  134.4279  155.8285 H   0  0  0  0  0  0  0  0  0  0  0  0  # atno 11005 bound_to 11000
  145.1186  140.9449  143.4614 LP  0  0  0  0  0  0  0  0  0  0  0  0  # atno 17320 bound_to 7965
  145.0504  139.3186  143.5931 LP  0  0  0  0  0  0  0  0  0  0  0  0  # atno 17321 bound_to 7965
  140.5738  143.2178  151.7552 LP  0  0  0  0  0  0  0  0  0  0  0  0  # atno 17342 bound_to 10162
  139.4940  144.4179  152.0010 LP  0  0  0  0  0  0  0  0  0  0  0  0  # atno 17343 bound_to 10162
  157.6612  130.8968  149.9834 LP  0  0  0  0  0  0  0  0  0  0  0  0  # atno 17370 bound_to 10713
  156.1174  130.3647  149.9945 LP  0  0  0  0  0  0  0  0  0  0  0  0  # atno 17371 bound_to 10713
  141.2214  133.6935  156.7683 LP  0  0  0  0  0  0  0  0  0  0  0  0  # atno 17394 bound_to 11000
  140.2431  134.8598  157.3593 LP  0  0  0  0  0  0  0  0  0  0  0  0  # atno 17395 bound_to 11000

$$$$
