AV-unprocessed.smi:1533|AV-procd|sdf|6164|dock6
  -GOLD-   22720 6313D 1   1.00000     0.00000
 Structure written by MMmdl.
 37 39  0  0  0  0  0  0  0  0  1 V2000
  153.3181  138.4582  154.3577 C   0  0  0  0  0  0  0  0  0  0  0  0
  152.0971  138.8066  155.1387 C   0  0  0  0  0  0  0  0  0  0  0  0
  151.0872  139.4680  154.5860 N   0  0  0  0  0  0  0  0  0  0  0  0
  150.1624  139.5809  155.6342 O   0  0  0  0  0  0  0  0  0  0  0  0
  150.7423  138.9854  156.7040 C   0  0  0  0  0  0  0  0  0  0  0  0
  149.9780  138.9002  157.9823 C   0  0  0  0  0  0  0  0  0  0  0  0
  148.6980  138.0608  157.8444 C   0  0  0  0  0  0  0  0  0  0  0  0
  148.6375  137.0023  158.8458 N   0  0  0  0  0  0  0  0  0  0  0  0
  147.6571  136.8493  159.7491 C   0  0  0  0  0  0  0  0  0  0  0  0
  146.6842  137.6017  159.8153 O   0  0  0  0  0  0  0  0  0  0  0  0
  147.7959  135.6452  160.6977 C   0  0  2  0  0  0  0  0  0  0  0  0
  146.6866  134.5743  160.5520 C   0  0  0  0  0  0  0  0  0  0  0  0
  146.1715  134.4113  161.9944 C   0  0  2  0  0  0  0  0  0  0  0  0
  145.3430  135.6488  162.3878 C   0  0  0  0  0  0  0  0  0  0  0  0
  146.4221  136.7270  162.5950 C   0  0  0  0  0  0  0  0  0  0  0  0
  147.7220  135.9863  162.2101 C   0  0  1  0  0  0  0  0  0  0  0  0
  147.4463  134.6093  162.8070 C   0  0  0  0  0  0  0  0  0  0  0  0
  151.9420  138.4690  156.4483 N   0  0  0  0  0  0  0  0  0  0  0  0
  153.2152  138.7620  153.3153 H   0  0  0  0  0  0  0  0  0  0  0  0
  153.4892  137.3819  154.3870 H   0  0  0  0  0  0  0  0  0  0  0  0
  154.1897  138.9593  154.7789 H   0  0  0  0  0  0  0  0  0  0  0  0
  150.6307  138.4776  158.7474 H   0  0  0  0  0  0  0  0  0  0  0  0
  149.7313  139.9120  158.3065 H   0  0  0  0  0  0  0  0  0  0  0  0
  147.8219  138.6970  157.9744 H   0  0  0  0  0  0  0  0  0  0  0  0
  148.6259  137.6345  156.8421 H   0  0  0  0  0  0  0  0  0  0  0  0
  149.3973  136.3370  158.8538 H   0  0  0  0  0  0  0  0  0  0  0  0
  148.7567  135.1661  160.4988 H   0  0  0  0  0  0  0  0  0  0  0  0
  145.8852  134.8444  159.8628 H   0  0  0  0  0  0  0  0  0  0  0  0
  147.1151  133.6376  160.1933 H   0  0  0  0  0  0  0  0  0  0  0  0
  145.6551  133.4669  162.1686 H   0  0  0  0  0  0  0  0  0  0  0  0
  144.6239  135.9245  161.6155 H   0  0  0  0  0  0  0  0  0  0  0  0
  144.7918  135.4749  163.3128 H   0  0  0  0  0  0  0  0  0  0  0  0
  146.2380  137.6311  162.0159 H   0  0  0  0  0  0  0  0  0  0  0  0
  146.4561  137.0245  163.6440 H   0  0  0  0  0  0  0  0  0  0  0  0
  148.6249  136.4646  162.5908 H   0  0  0  0  0  0  0  0  0  0  0  0
  147.2736  134.6279  163.8847 H   0  0  0  0  0  0  0  0  0  0  0  0
  148.2216  133.8741  162.5835 H   0  0  0  0  0  0  0  0  0  0  0  0
  1  2  1  0  0  0  0
  1 19  1  0  0  0  0
  1 20  1  0  0  0  0
  1 21  1  0  0  0  0
  2 18  1  0  0  0  0
  2  3  2  0  0  0  0
  3  4  1  0  0  0  0
  4  5  1  0  0  0  0
  5  6  1  0  0  0  0
  5 18  2  0  0  0  0
  6  7  1  0  0  0  0
  6 22  1  0  0  0  0
  6 23  1  0  0  0  0
  7  8  1  0  0  0  0
  7 24  1  0  0  0  0
  7 25  1  0  0  0  0
  8  9  1  0  0  0  0
  8 26  1  0  0  0  0
  9 10  2  0  0  0  0
  9 11  1  0  0  0  0
 11 16  1  0  0  0  0
 11 12  1  0  0  0  0
 11 27  1  0  0  0  0
 12 13  1  0  0  0  0
 12 28  1  0  0  0  0
 12 29  1  0  0  0  0
 13 17  1  0  0  0  0
 13 14  1  0  0  0  0
 13 30  1  0  0  0  0
 14 15  1  0  0  0  0
 14 31  1  0  0  0  0
 14 32  1  0  0  0  0
 15 16  1  0  0  0  0
 15 33  1  0  0  0  0
 15 34  1  0  0  0  0
 16 17  1  0  0  0  0
 16 35  1  0  0  0  0
 17 36  1  0  0  0  0
 17 37  1  0  0  0  0
M  END
> <s_m_source_file>
AV-unprocessed.smi

> <i_m_source_file_index>
1533

> <i_lp_mmshare_version>
43012

> <i_f3d_flags>
0

> <s_epik_input>
W0NIM11jMW5vYyhuMSlbQ0gyXVtDSDJdW05IXUMoPU8pW0NASF0oW0NIMl1bQ0BASF0yMylbQ0BASF0oW0NIMl0zKVtDSDJdW0NIMl0y

> <s_epik_cmdline>
J2VwaWtfcHl0aG9uJywgJy1waCcsICc3LjAnLCAnLXRuJywgJzgnLCAnLW1hJywgJzIwMCcsICctbWV0YWxfYmluZGluZycsICctaW1hZScsICc8aW5maWxlLm1hZT4nLCAnLW9tYWUnLCAnPG91dGZpbGUubWFlPic=

> <r_lp_tautomer_probability>
1

> <r_epik_Ionization_Penalty>
1.90116e-08

> <r_epik_Ionization_Penalty_Charging>
0

> <r_epik_Ionization_Penalty_Neutral>
1.90116e-08

> <r_epik_State_Penalty>
-0

> <r_epik_Charging_Adjusted_Penalty>
0

> <i_epik_Tot_Q>
0

> <i_epik_Tot_abs_Q>
0

> <r_epik_Metal_State_Penalty>
-0

> <b_epik_Metal_Only>
0

> <s_lp_Force_Field>
OPLS_2005

> <r_lp_Energy>
42.9891

> <b_lp_Chiralities_Consistent>
1

> <s_lp_Variant>
AV-unprocessed.smi:1533-3

> <Gold.Version>
5.8.1

> <Gold.Id.Protein>
6NUR|6NUR_protein|mol2

> <Gold.PLP.Fitness>
36.2532

> <Gold.PLP.PLP>
-31.0999

> <Gold.PLP.part.hbond>
-2.0000

> <Gold.PLP.part.metal>
0.0000

> <Gold.PLP.part.buried>
-5.1130

> <Gold.PLP.part.nonpolar>
-24.4666

> <Gold.PLP.part.repulsive>
0.2599

> <Gold.PLP.ligand.clash>
0.0000

> <Gold.PLP.ligand.torsion>
0.4339

> <Gold.PLP.Chemscore.Hbond>
2.0000

> <Gold.PLP.Chemscore.CHOScore>
0.0000

> <Gold.PLP.Chemscore.Metal>
0.0000

> <Gold.Chemscore.Hbonds>
donor molecule, donor type, donor heavy atom, donor atom, acceptor molecule, acceptor atom, score
      P1  H  6934  6947       L1    10  1.00
      P1  H  7989  7998       L1     3  1.00

> <Gold.PLP.Chemscore.Internal.Correction>
0.0210

> <Gold.Rescore>
     Score         DG    S(hbond)    S(metal)    S(lipo)     H(rot)  DE(clash)    DE(int)     intcor
     14.14     -15.78       1.96        0.00      72.48       1.85       0.11       1.53       ----

> <Gold.Chemscore.Fitness>
14.1447

> <Gold.Chemscore.DG>
-15.7758

> <Gold.Chemscore.ZeroCoef>
-5.4800

> <Gold.Chemscore.Hbond>
1.9607

> <Gold.Chemscore.Metal>
0.0000

> <Gold.Chemscore.Lipo>
72.4821

> <Gold.Chemscore.Internal_Hbond>
0.0000

> <Gold.Chemscore.DEClash>
0.1052

> <Gold.Chemscore.DEInternal>
1.5259

> <Gold.Chemscore.Rot>
1.8490

> <Gold.Chemscore.Internal.Correction>
   9.000000E+99

> <Gold.Chemscore.Hbonds>
donor molecule, donor type, donor heavy atom, donor atom, acceptor molecule, acceptor atom, score
      P1  H  6934  6947       L1    10  0.58
      P1  H  7989  7998       L1     3  0.85

> <Gold.Chemscore.Hbond.Weighted>
-6.5488

> <Gold.Chemscore.Metal.Weighted>
-0.0000

> <Gold.Chemscore.Lipo.Weighted>
-8.4804

> <Gold.Chemscore.Internal_Hbond.Weighted>
0.0000

> <Gold.Chemscore.DEClash.Weighted>
0.1052

> <Gold.Chemscore.DEInternal.Weighted>
1.5259

> <Gold.Chemscore.Rot.Weighted>
4.7334

> <Gold.Chemscore.Internal.Correction.Weighted>
   9.000000E+99

> <Gold.Protein.RotatedTorsions>
[ 6907 6896 6895 6894 ] final   67.25 input  -60.11 | X-H torsion
[ 7974 7965 7964 7962 ] final -178.89 input  175.53 | X-H torsion
[ 8008 7997 7996 7995 ] final   84.50 input   59.86 | X-H torsion
[ 10167 10162 10161 10158 ] final  -42.32 input  -65.29 | X-H torsion
[ 10718 10713 10712 10709 ] final  124.69 input   66.30 | X-H torsion
[ 10763 10752 10751 10750 ] final   68.64 input  -60.55 | X-H torsion
[ 11005 11000 10999 10996 ] final -174.12 input  -57.11 | X-H torsion

> <Gold.Protein.ActiveResidues>
 VAL166  LYS551  ARG553  GLY616  TRP617  ASP618  TYR619  PRO620  LYS621  CYS622 
 ASP623  PHE694  ASN695  SER759  ASP760  ASP761  ALA762  ILE779  LEU786  VAL792 
 PHE793  MET794  SER795  GLU796  ALA797  LYS798  CYS799  TRP800  GLU811  SER814 

> <Gold.Protein.RotatedAtoms>
  152.4539  134.5334  159.9817 H   0  0  0  0  0  0  0  0  0  0  0  0  # atno 6907 bound_to 6896
  151.5400  133.3428  159.2941 H   0  0  0  0  0  0  0  0  0  0  0  0  # atno 6908 bound_to 6896
  150.8477  134.7822  159.7046 H   0  0  0  0  0  0  0  0  0  0  0  0  # atno 6909 bound_to 6896
  144.7133  140.0800  143.6426 H   0  0  0  0  0  0  0  0  0  0  0  0  # atno 7974 bound_to 7965
  155.9379  140.3410  155.6303 H   0  0  0  0  0  0  0  0  0  0  0  0  # atno 8008 bound_to 7997
  155.7076  140.0768  157.2403 H   0  0  0  0  0  0  0  0  0  0  0  0  # atno 8009 bound_to 7997
  154.4097  140.1628  156.2248 H   0  0  0  0  0  0  0  0  0  0  0  0  # atno 8010 bound_to 7997
  140.6973  143.3044  151.3192 H   0  0  0  0  0  0  0  0  0  0  0  0  # atno 10167 bound_to 10162
  157.5565  131.1092  150.8613 H   0  0  0  0  0  0  0  0  0  0  0  0  # atno 10718 bound_to 10713
  153.0245  135.5240  154.7165 H   0  0  0  0  0  0  0  0  0  0  0  0  # atno 10763 bound_to 10752
  154.6232  135.2891  155.0304 H   0  0  0  0  0  0  0  0  0  0  0  0  # atno 10764 bound_to 10752
  154.1283  135.6597  153.4969 H   0  0  0  0  0  0  0  0  0  0  0  0  # atno 10765 bound_to 10752
  140.4781  134.6102  157.4908 H   0  0  0  0  0  0  0  0  0  0  0  0  # atno 11005 bound_to 11000
  145.9710  139.2870  143.1098 LP  0  0  0  0  0  0  0  0  0  0  0  0  # atno 17320 bound_to 7965
  145.9116  140.9176  143.0451 LP  0  0  0  0  0  0  0  0  0  0  0  0  # atno 17321 bound_to 7965
  139.6445  144.0477  152.2580 LP  0  0  0  0  0  0  0  0  0  0  0  0  # atno 17342 bound_to 10162
  139.9993  144.6305  150.7744 LP  0  0  0  0  0  0  0  0  0  0  0  0  # atno 17343 bound_to 10162
  156.9123  130.5285  149.5280 LP  0  0  0  0  0  0  0  0  0  0  0  0  # atno 17370 bound_to 10713
  156.0623  130.5673  150.9217 LP  0  0  0  0  0  0  0  0  0  0  0  0  # atno 17371 bound_to 10713
  139.9843  134.7086  155.9802 LP  0  0  0  0  0  0  0  0  0  0  0  0  # atno 17394 bound_to 11000
  141.1545  133.6544  156.4116 LP  0  0  0  0  0  0  0  0  0  0  0  0  # atno 17395 bound_to 11000

$$$$
