AV-unprocessed.smi:701|AV-procd|sdf|3411|dock10
  -GOLD-   22720 0393D 1   1.00000     0.00000
 Structure written by MMmdl.
 49 51  0  0  0  0  0  0  0  0  1 V2000
  153.8493  139.0382  154.4516 C   0  0  0  0  0  0  0  0  0  0  0  0
  152.4995  138.3684  154.7174 C   0  0  0  0  0  0  0  0  0  0  0  0
  151.4678  139.3152  154.4957 O   0  0  0  0  0  0  0  0  0  0  0  0
  150.2270  138.7110  154.1656 C   0  0  1  0  0  0  0  0  0  0  0  0
  149.6788  137.7558  155.2296 C   0  0  0  0  0  0  0  0  0  0  0  0
  148.2988  138.3675  154.9673 C   0  0  2  0  0  0  0  0  0  0  0  0
  147.5726  137.5976  153.9563 N   0  0  0  0  0  0  0  0  0  0  0  0
  146.2986  137.8064  153.5949 C   0  0  0  0  0  0  0  0  0  0  0  0
  145.5926  138.6900  154.0819 O   0  0  0  0  0  0  0  0  0  0  0  0
  145.7507  136.8955  152.4884 C   0  0  0  0  0  0  0  0  0  0  0  0
  144.4480  136.3106  152.8347 N   0  0  0  0  0  0  0  0  0  0  0  0
  143.2803  137.0368  152.6492 C   0  0  0  0  0  0  0  0  0  0  0  0
  142.0499  136.5597  152.9527 C   0  0  0  0  0  0  0  0  0  0  0  0
  141.8932  135.2186  153.5055 C   0  0  0  0  0  0  0  0  0  0  0  0
  140.8225  134.6969  153.8084 O   0  0  0  0  0  0  0  0  0  0  0  0
  143.0914  134.5215  153.6814 N   0  0  0  0  0  0  0  0  0  0  0  0
  144.3627  135.0085  153.3737 C   0  0  0  0  0  0  0  0  0  0  0  0
  145.3570  134.3115  153.5730 O   0  0  0  0  0  0  0  0  0  0  0  0
  149.0075  139.6348  154.4035 C   0  0  0  0  0  0  0  0  0  0  0  0
  149.2189  140.7599  155.4401 C   0  0  0  0  0  0  0  0  0  0  0  0
  147.9259  141.5314  155.7586 C   0  0  0  0  0  0  0  0  0  0  0  0
  147.3048  142.1272  154.4888 C   0  0  0  0  0  0  0  0  0  0  0  0
  147.1148  141.0550  153.4088 C   0  0  0  0  0  0  0  0  0  0  0  0
  148.4292  140.3028  153.1394 C   0  0  0  0  0  0  0  0  0  0  0  0
  143.0322  133.5893  154.0647 H   0  0  0  0  0  0  0  0  0  0  0  0
  154.6705  138.3411  154.6191 H   0  0  0  0  0  0  0  0  0  0  0  0
  153.9969  139.8942  155.1105 H   0  0  0  0  0  0  0  0  0  0  0  0
  153.9143  139.3912  153.4222 H   0  0  0  0  0  0  0  0  0  0  0  0
  152.3716  137.5112  154.0548 H   0  0  0  0  0  0  0  0  0  0  0  0
  152.4641  138.0010  155.7438 H   0  0  0  0  0  0  0  0  0  0  0  0
  150.2202  138.2717  153.1656 H   0  0  0  0  0  0  0  0  0  0  0  0
  149.7767  136.6972  154.9859 H   0  0  0  0  0  0  0  0  0  0  0  0
  150.0535  137.9710  156.2314 H   0  0  0  0  0  0  0  0  0  0  0  0
  147.7426  138.5445  155.8891 H   0  0  0  0  0  0  0  0  0  0  0  0
  148.0789  136.8533  153.4991 H   0  0  0  0  0  0  0  0  0  0  0  0
  145.6699  137.4880  151.5758 H   0  0  0  0  0  0  0  0  0  0  0  0
  146.4686  136.1062  152.2554 H   0  0  0  0  0  0  0  0  0  0  0  0
  143.3489  138.0371  152.2460 H   0  0  0  0  0  0  0  0  0  0  0  0
  141.1768  137.1740  152.7860 H   0  0  0  0  0  0  0  0  0  0  0  0
  149.6228  140.3573  156.3694 H   0  0  0  0  0  0  0  0  0  0  0  0
  149.9695  141.4641  155.0787 H   0  0  0  0  0  0  0  0  0  0  0  0
  147.2071  140.8659  156.2378 H   0  0  0  0  0  0  0  0  0  0  0  0
  148.1343  142.3257  156.4759 H   0  0  0  0  0  0  0  0  0  0  0  0
  146.3499  142.5985  154.7227 H   0  0  0  0  0  0  0  0  0  0  0  0
  147.9534  142.9158  154.1050 H   0  0  0  0  0  0  0  0  0  0  0  0
  146.3439  140.3516  153.7241 H   0  0  0  0  0  0  0  0  0  0  0  0
  146.7534  141.5155  152.4890 H   0  0  0  0  0  0  0  0  0  0  0  0
  149.1583  141.0030  152.7293 H   0  0  0  0  0  0  0  0  0  0  0  0
  148.2663  139.5706  152.3484 H   0  0  0  0  0  0  0  0  0  0  0  0
  1  2  1  0  0  0  0
  1 26  1  0  0  0  0
  1 27  1  0  0  0  0
  1 28  1  0  0  0  0
  2  3  1  0  0  0  0
  2 29  1  0  0  0  0
  2 30  1  0  0  0  0
  3  4  1  0  0  0  0
  4 19  1  0  0  0  0
  4  5  1  0  0  0  0
  4 31  1  0  0  0  0
  5  6  1  0  0  0  0
  5 32  1  0  0  0  0
  5 33  1  0  0  0  0
  6  7  1  0  0  0  0
  6 19  1  0  0  0  0
  6 34  1  0  0  0  0
  7  8  1  0  0  0  0
  7 35  1  0  0  0  0
  8  9  2  0  0  0  0
  8 10  1  0  0  0  0
 10 11  1  0  0  0  0
 10 36  1  0  0  0  0
 10 37  1  0  0  0  0
 11 17  1  0  0  0  0
 11 12  1  0  0  0  0
 12 13  2  0  0  0  0
 12 38  1  0  0  0  0
 13 14  1  0  0  0  0
 13 39  1  0  0  0  0
 14 15  2  0  0  0  0
 14 16  1  0  0  0  0
 16 25  1  0  0  0  0
 16 17  1  0  0  0  0
 17 18  2  0  0  0  0
 19 24  1  0  0  0  0
 19 20  1  0  0  0  0
 20 21  1  0  0  0  0
 20 40  1  0  0  0  0
 20 41  1  0  0  0  0
 21 22  1  0  0  0  0
 21 42  1  0  0  0  0
 21 43  1  0  0  0  0
 22 23  1  0  0  0  0
 22 44  1  0  0  0  0
 22 45  1  0  0  0  0
 23 24  1  0  0  0  0
 23 46  1  0  0  0  0
 23 47  1  0  0  0  0
 24 48  1  0  0  0  0
 24 49  1  0  0  0  0
M  END
> <s_m_source_file>
AV-unprocessed.smi

> <i_m_source_file_index>
701

> <i_lp_mmshare_version>
43012

> <i_f3d_flags>
0

> <s_epik_input>
W0NIMl0xW0NIMl1bQ0gyXVtDSDJdW0NIMl1DMTJbQ0BIXShPW0NIMl1bQ0gzXSlbQ0gyXVtDQEhdMltOSF1DKD1PKVtDSDJdbjNbY0hdW2NIXWMoPU8pW25IXWMzPU8=

> <s_epik_cmdline>
J2VwaWtfcHl0aG9uJywgJy1waCcsICc3LjAnLCAnLXRuJywgJzgnLCAnLW1hJywgJzIwMCcsICctbWV0YWxfYmluZGluZycsICctaW1hZScsICc8aW5maWxlLm1hZT4nLCAnLW9tYWUnLCAnPG91dGZpbGUubWFlPic=

> <r_lp_tautomer_probability>
0.999537

> <r_epik_Ionization_Penalty>
0.00304597

> <r_epik_Ionization_Penalty_Charging>
0.00304595

> <r_epik_Ionization_Penalty_Neutral>
1.88422e-08

> <r_epik_State_Penalty>
0.00214084

> <r_epik_Charging_Adjusted_Penalty>
0.00518679

> <i_epik_Tot_Q>
0

> <i_epik_Tot_abs_Q>
0

> <r_epik_Metal_State_Penalty>
0.361872

> <b_epik_Metal_Only>
0

> <s_lp_Force_Field>
OPLS_2005

> <r_lp_Energy>
29.1408

> <b_lp_Chiralities_Consistent>
1

> <s_lp_Variant>
AV-unprocessed.smi:701-4

> <Gold.Version>
5.8.1

> <Gold.Id.Protein>
6NUR|6NUR_protein|mol2

> <Gold.PLP.Fitness>
49.5384

> <Gold.PLP.PLP>
-33.3861

> <Gold.PLP.part.hbond>
-5.0000

> <Gold.PLP.part.metal>
0.0000

> <Gold.PLP.part.buried>
1.2880

> <Gold.PLP.part.nonpolar>
-30.8260

> <Gold.PLP.part.repulsive>
1.0064

> <Gold.PLP.ligand.clash>
0.0000

> <Gold.PLP.ligand.torsion>
0.8599

> <Gold.PLP.Chemscore.Hbond>
3.9440

> <Gold.PLP.Chemscore.CHOScore>
1.8979

> <Gold.PLP.Chemscore.Metal>
0.0000

> <Gold.Chemscore.Hbonds>
donor molecule, donor type, donor heavy atom, donor atom, acceptor molecule, acceptor atom, score
      L1  H     7    35       P1  7948  0.93
      L1  H    16    25       P1 10957  1.00
      P1  H  7989  7998       L1     3  1.00
      P1  H 11000 11005       L1    15  1.00
      L1  C    12    38       P1 10171  0.91
      L1  C    12    38       P1 10175  1.00

> <Gold.PLP.Chemscore.Internal.Correction>
0.3464

> <Gold.Rescore>
     Score         DG    S(hbond)    S(metal)    S(lipo)     H(rot)  DE(clash)    DE(int)     intcor
     17.77     -22.50       3.71        0.00      85.45       2.09       2.84       1.90       ----

> <Gold.Chemscore.Fitness>
17.7656

> <Gold.Chemscore.DG>
-22.5018

> <Gold.Chemscore.ZeroCoef>
-5.4800

> <Gold.Chemscore.Hbond>
3.7073

> <Gold.Chemscore.Metal>
0.0000

> <Gold.Chemscore.Lipo>
85.4537

> <Gold.Chemscore.Internal_Hbond>
0.0000

> <Gold.Chemscore.DEClash>
2.8396

> <Gold.Chemscore.DEInternal>
1.8966

> <Gold.Chemscore.Rot>
2.0933

> <Gold.Chemscore.Internal.Correction>
   9.000000E+99

> <Gold.Chemscore.Hbonds>
donor molecule, donor type, donor heavy atom, donor atom, acceptor molecule, acceptor atom, score
      L1  H     7    35       P1  7948  0.90
      L1  H    16    25       P1 10957  0.97
      P1  H  7989  7998       L1     3  0.65
      P1  H 11000 11005       L1    15  0.95

> <Gold.Chemscore.Hbond.Weighted>
-12.3825

> <Gold.Chemscore.Metal.Weighted>
-0.0000

> <Gold.Chemscore.Lipo.Weighted>
-9.9981

> <Gold.Chemscore.Internal_Hbond.Weighted>
0.0000

> <Gold.Chemscore.DEClash.Weighted>
2.8396

> <Gold.Chemscore.DEInternal.Weighted>
1.8966

> <Gold.Chemscore.Rot.Weighted>
5.3588

> <Gold.Chemscore.Internal.Correction.Weighted>
   9.000000E+99

> <Gold.Protein.RotatedTorsions>
[ 6907 6896 6895 6894 ] final  -88.54 input  -60.11 | X-H torsion
[ 7974 7965 7964 7962 ] final  178.35 input  175.53 | X-H torsion
[ 8008 7997 7996 7995 ] final  -85.05 input   59.86 | X-H torsion
[ 10167 10162 10161 10158 ] final   39.43 input  -65.29 | X-H torsion
[ 10718 10713 10712 10709 ] final  -70.05 input   66.30 | X-H torsion
[ 10763 10752 10751 10750 ] final -144.49 input  -60.55 | X-H torsion
[ 11005 11000 10999 10996 ] final   22.25 input  -57.11 | X-H torsion

> <Gold.Protein.ActiveResidues>
 VAL166  LYS551  ARG553  GLY616  TRP617  ASP618  TYR619  PRO620  LYS621  CYS622 
 ASP623  PHE694  ASN695  SER759  ASP760  ASP761  ALA762  ILE779  LEU786  VAL792 
 PHE793  MET794  SER795  GLU796  ALA797  LYS798  CYS799  TRP800  GLU811  SER814 

> <Gold.Protein.RotatedAtoms>
  150.6869  134.2725  159.4593 H   0  0  0  0  0  0  0  0  0  0  0  0  # atno 6907 bound_to 6896
  152.0646  134.9570  160.0584 H   0  0  0  0  0  0  0  0  0  0  0  0  # atno 6908 bound_to 6896
  152.0983  133.4201  159.4612 H   0  0  0  0  0  0  0  0  0  0  0  0  # atno 6909 bound_to 6896
  144.7157  140.0385  143.6438 H   0  0  0  0  0  0  0  0  0  0  0  0  # atno 7974 bound_to 7965
  154.6365  140.0597  156.9794 H   0  0  0  0  0  0  0  0  0  0  0  0  # atno 8008 bound_to 7997
  155.1584  140.3280  155.4398 H   0  0  0  0  0  0  0  0  0  0  0  0  # atno 8009 bound_to 7997
  156.2509  140.1935  156.6692 H   0  0  0  0  0  0  0  0  0  0  0  0  # atno 8010 bound_to 7997
  140.3840  144.1941  150.6130 H   0  0  0  0  0  0  0  0  0  0  0  0  # atno 10167 bound_to 10162
  156.0426  130.4324  150.2238 H   0  0  0  0  0  0  0  0  0  0  0  0  # atno 10718 bound_to 10713
  154.8425  135.3439  154.6355 H   0  0  0  0  0  0  0  0  0  0  0  0  # atno 10763 bound_to 10752
  153.6965  135.6972  153.5079 H   0  0  0  0  0  0  0  0  0  0  0  0  # atno 10764 bound_to 10752
  153.2555  135.4339  155.0796 H   0  0  0  0  0  0  0  0  0  0  0  0  # atno 10765 bound_to 10752
  140.3826  134.1904  155.7663 H   0  0  0  0  0  0  0  0  0  0  0  0  # atno 11005 bound_to 11000
  146.0043  139.3117  143.0908 LP  0  0  0  0  0  0  0  0  0  0  0  0  # atno 17320 bound_to 7965
  145.8756  140.9394  143.0628 LP  0  0  0  0  0  0  0  0  0  0  0  0  # atno 17321 bound_to 7965
  140.4908  143.2348  151.8821 LP  0  0  0  0  0  0  0  0  0  0  0  0  # atno 17342 bound_to 10162
  139.4793  144.5168  151.8857 LP  0  0  0  0  0  0  0  0  0  0  0  0  # atno 17343 bound_to 10162
  157.0331  131.0013  151.3306 LP  0  0  0  0  0  0  0  0  0  0  0  0  # atno 17370 bound_to 10713
  157.5263  130.8030  149.7866 LP  0  0  0  0  0  0  0  0  0  0  0  0  # atno 17371 bound_to 10713
  141.1918  133.8187  157.0865 LP  0  0  0  0  0  0  0  0  0  0  0  0  # atno 17394 bound_to 11000
  140.0466  134.9827  157.1061 LP  0  0  0  0  0  0  0  0  0  0  0  0  # atno 17395 bound_to 11000

$$$$
