AV-unprocessed.smi:36|AV-procd|sdf|296|dock4
  -GOLD-   2262016 93D 1   1.00000     0.00000
 Structure written by MMmdl.
 63 66  0  0  0  0  0  0  0  0  2 V2000
  147.2470  131.8265  161.2041 C   0  0  0  0  0  0  0  0  0  0  0  0
  146.5536  133.1965  161.1161 C   0  0  0  0  0  0  0  0  0  0  0  0
  145.4121  133.2712  162.1434 C   0  0  0  0  0  0  0  0  0  0  0  0
  147.5717  134.3159  161.3904 C   0  0  0  0  0  0  0  0  0  0  0  0
  145.8310  133.4318  159.3629 Si  0  0  0  0  0  0  0  0  0  0  0  0
  144.5526  132.0820  158.9693 C   0  0  0  0  0  0  0  0  0  0  0  0
  145.0313  135.1451  159.1752 C   0  0  0  0  0  0  0  0  0  0  0  0
  147.1063  133.3233  158.2541 O   0  0  0  0  0  0  0  0  0  0  0  0
  147.0979  133.9261  156.9759 C   0  0  0  0  0  0  0  0  0  0  0  0
  148.4629  133.7104  156.3028 C   0  0  1  0  0  0  0  0  0  0  0  0
  148.7694  134.7580  155.3836 O   0  0  0  0  0  0  0  0  0  0  0  0
  150.1296  135.0741  155.4191 C   0  0  1  0  0  0  0  0  0  0  0  0
  150.2754  136.4585  155.9678 N   0  0  0  0  0  0  0  0  0  0  0  0
  149.5712  137.0770  156.9390 C   0  0  0  0  0  0  0  0  0  0  0  0
  149.9076  138.3306  157.2379 N   0  0  0  0  0  0  0  0  0  0  0  0
  150.9564  138.5564  156.3586 C   0  0  0  0  0  0  0  0  0  0  0  0
  151.7932  139.6835  156.1304 C   0  0  0  0  0  0  0  0  0  0  0  0
  151.6645  140.8344  156.8080 N   0  5  0  0  0  0  0  0  0  0  0  0
  152.0934  140.9164  158.0930 C   0  0  0  0  0  0  0  0  0  0  0  0
  152.5342  140.0101  158.8032 O   0  0  0  0  0  0  0  0  0  0  0  0
  152.0684  142.3193  158.6392 C   0  0  0  0  0  0  0  0  0  0  0  0
  152.4815  142.5600  159.9697 C   0  0  0  0  0  0  0  0  0  0  0  0
  152.4459  143.8615  160.5070 C   0  0  0  0  0  0  0  0  0  0  0  0
  151.9870  144.9361  159.7223 C   0  0  0  0  0  0  0  0  0  0  0  0
  151.5591  144.7070  158.4012 C   0  0  0  0  0  0  0  0  0  0  0  0
  151.5945  143.4057  157.8632 C   0  0  0  0  0  0  0  0  0  0  0  0
  152.7370  139.5619  155.1619 N   0  0  0  0  0  0  0  0  0  0  0  0
  152.8619  138.4183  154.4781 C   0  0  0  0  0  0  0  0  0  0  0  0
  152.1565  137.2887  154.5925 N   0  0  0  0  0  0  0  0  0  0  0  0
  151.1987  137.4030  155.5579 C   0  0  0  0  0  0  0  0  0  0  0  0
  150.8089  134.0658  156.3501 C   0  0  0  0  0  0  0  0  0  0  0  0
  149.6712  133.6117  157.2449 C   0  0  1  0  0  0  0  0  0  0  0  0
  149.5495  134.4436  158.3837 O   0  0  0  0  0  0  0  0  0  0  0  0
  147.6721  131.6608  162.1946 H   0  0  0  0  0  0  0  0  0  0  0  0
  148.0588  131.7442  160.4811 H   0  0  0  0  0  0  0  0  0  0  0  0
  146.5473  131.0139  161.0074 H   0  0  0  0  0  0  0  0  0  0  0  0
  144.6743  132.4861  161.9763 H   0  0  0  0  0  0  0  0  0  0  0  0
  144.8920  134.2282  162.0883 H   0  0  0  0  0  0  0  0  0  0  0  0
  145.7863  133.1580  163.1614 H   0  0  0  0  0  0  0  0  0  0  0  0
  147.9949  134.2313  162.3919 H   0  0  0  0  0  0  0  0  0  0  0  0
  147.1086  135.3001  161.3102 H   0  0  0  0  0  0  0  0  0  0  0  0
  148.3993  134.2835  160.6813 H   0  0  0  0  0  0  0  0  0  0  0  0
  143.7279  132.0906  159.6812 H   0  0  0  0  0  0  0  0  0  0  0  0
  144.9969  131.0874  158.9977 H   0  0  0  0  0  0  0  0  0  0  0  0
  144.1226  132.2154  157.9774 H   0  0  0  0  0  0  0  0  0  0  0  0
  144.2159  135.2869  159.8842 H   0  0  0  0  0  0  0  0  0  0  0  0
  144.6197  135.2861  158.1761 H   0  0  0  0  0  0  0  0  0  0  0  0
  145.7523  135.9445  159.3438 H   0  0  0  0  0  0  0  0  0  0  0  0
  146.2850  133.5367  156.3623 H   0  0  0  0  0  0  0  0  0  0  0  0
  146.9132  134.9912  157.1166 H   0  0  0  0  0  0  0  0  0  0  0  0
  148.4284  132.7872  155.7219 H   0  0  0  0  0  0  0  0  0  0  0  0
  150.5631  135.1255  154.4196 H   0  0  0  0  0  0  0  0  0  0  0  0
  148.7680  136.5813  157.4622 H   0  0  0  0  0  0  0  0  0  0  0  0
  152.8355  141.7459  160.5860 H   0  0  0  0  0  0  0  0  0  0  0  0
  152.7701  144.0342  161.5226 H   0  0  0  0  0  0  0  0  0  0  0  0
  151.9593  145.9340  160.1343 H   0  0  0  0  0  0  0  0  0  0  0  0
  151.2008  145.5292  157.7995 H   0  0  0  0  0  0  0  0  0  0  0  0
  151.2520  143.2501  156.8501 H   0  0  0  0  0  0  0  0  0  0  0  0
  153.6396  138.4077  153.7292 H   0  0  0  0  0  0  0  0  0  0  0  0
  151.1604  133.2313  155.7421 H   0  0  0  0  0  0  0  0  0  0  0  0
  151.6631  134.4929  156.8779 H   0  0  0  0  0  0  0  0  0  0  0  0
  149.8208  132.5894  157.5936 H   0  0  0  0  0  0  0  0  0  0  0  0
  148.6361  134.5011  158.6191 H   0  0  0  0  0  0  0  0  0  0  0  0
  1  2  1  0  0  0  0
  1 34  1  0  0  0  0
  1 35  1  0  0  0  0
  1 36  1  0  0  0  0
  2  3  1  0  0  0  0
  2  4  1  0  0  0  0
  2  5  1  0  0  0  0
  3 37  1  0  0  0  0
  3 38  1  0  0  0  0
  3 39  1  0  0  0  0
  4 40  1  0  0  0  0
  4 41  1  0  0  0  0
  4 42  1  0  0  0  0
  5  6  1  0  0  0  0
  5  7  1  0  0  0  0
  5  8  1  0  0  0  0
  6 43  1  0  0  0  0
  6 44  1  0  0  0  0
  6 45  1  0  0  0  0
  7 46  1  0  0  0  0
  7 47  1  0  0  0  0
  7 48  1  0  0  0  0
  8  9  1  0  0  0  0
  9 10  1  0  0  0  0
  9 49  1  0  0  0  0
  9 50  1  0  0  0  0
 10 32  1  0  0  0  0
 10 11  1  0  0  0  0
 10 51  1  0  0  0  0
 11 12  1  0  0  0  0
 12 13  1  0  0  0  0
 12 31  1  0  0  0  0
 12 52  1  0  0  0  0
 13 30  1  0  0  0  0
 13 14  1  0  0  0  0
 14 15  2  0  0  0  0
 14 53  1  0  0  0  0
 15 16  1  0  0  0  0
 16 30  2  0  0  0  0
 16 17  1  0  0  0  0
 17 18  1  0  0  0  0
 17 27  2  0  0  0  0
 18 19  1  0  0  0  0
 19 20  2  0  0  0  0
 19 21  1  0  0  0  0
 21 26  1  0  0  0  0
 21 22  2  0  0  0  0
 22 23  1  0  0  0  0
 22 54  1  0  0  0  0
 23 24  2  0  0  0  0
 23 55  1  0  0  0  0
 24 25  1  0  0  0  0
 24 56  1  0  0  0  0
 25 26  2  0  0  0  0
 25 57  1  0  0  0  0
 26 58  1  0  0  0  0
 27 28  1  0  0  0  0
 28 29  2  0  0  0  0
 28 59  1  0  0  0  0
 29 30  1  0  0  0  0
 31 32  1  0  0  0  0
 31 60  1  0  0  0  0
 31 61  1  0  0  0  0
 32 33  1  0  0  0  0
 32 62  1  0  0  0  0
 33 63  1  0  0  0  0
M  CHG  1  18  -1
M  END
> <s_m_source_file>
AV-unprocessed.smi

> <i_m_source_file_index>
36

> <i_lp_mmshare_version>
43012

> <i_f3d_flags>
0

> <s_epik_input>
W0NIM11DKFtDSDNdKShbQ0gzXSlbU2ldKFtDSDNdKShbQ0gzXSlPW0NIMl1bQ0BASF0xT1tDQEhdKFtDSDJdW0NASF0xW09IXSluKFtjSF1uMiljKGMyMyluW2NIXW5jM1tOSF1DKD1PKWM0W2NIXVtjSF1bY0hdW2NIXVtjSF00

> <s_epik_cmdline>
J2VwaWtfcHl0aG9uJywgJy1waCcsICc3LjAnLCAnLXRuJywgJzgnLCAnLW1hJywgJzIwMCcsICctbWV0YWxfYmluZGluZycsICctaW1hZScsICc8aW5maWxlLm1hZT4nLCAnLW9tYWUnLCAnPG91dGZpbGUubWFlPic=

> <r_lp_tautomer_probability>
1

> <r_epik_Ionization_Penalty>
4.75685

> <r_epik_Ionization_Penalty_Charging>
3.55822

> <r_epik_Ionization_Penalty_Neutral>
1.19863

> <r_epik_State_Penalty>
3.564

> <r_epik_Charging_Adjusted_Penalty>
7.12222

> <i_epik_Tot_Q>
-1

> <i_epik_Tot_abs_Q>
1

> <r_epik_Metal_State_Penalty>
0.523258

> <b_epik_Metal_Only>
1

> <s_epik_Chemistry_Notes>
This compound contains an acetal/aminal-like group ( X-CH(R)-Y where X, Y are N, S, or O) that may be acid/base labile, releasing an aldehyde.

> <s_lp_Force_Field>
OPLS_2005

> <r_lp_Energy>
35.5948

> <b_lp_Chiralities_Consistent>
1

> <s_lp_Variant>
AV-unprocessed.smi:36-18

> <Gold.Version>
5.8.1

> <Gold.Id.Protein>
6NUR|6NUR_protein|mol2

> <Gold.PLP.Fitness>
54.5388

> <Gold.PLP.PLP>
-49.1591

> <Gold.PLP.part.hbond>
-3.9602

> <Gold.PLP.part.metal>
0.0000

> <Gold.PLP.part.buried>
-7.8232

> <Gold.PLP.part.nonpolar>
-37.8041

> <Gold.PLP.part.repulsive>
0.2218

> <Gold.PLP.ligand.clash>
0.0000

> <Gold.PLP.ligand.torsion>
2.1155

> <Gold.PLP.Chemscore.Hbond>
3.1174

> <Gold.PLP.Chemscore.CHOScore>
0.0000

> <Gold.PLP.Chemscore.Metal>
0.0000

> <Gold.Chemscore.Hbonds>
donor molecule, donor type, donor heavy atom, donor atom, acceptor molecule, acceptor atom, score
      P1  H  6896  6908       L1    33  1.00
      P1  H  7989  7998       L1    27  0.09
      P1  H  7997  8009       L1    27  1.00
      P1  H 10752 10765       L1    29  0.83

> <Gold.PLP.Chemscore.Internal.Correction>
0.2585

> <Gold.Rescore>
     Score         DG    S(hbond)    S(metal)    S(lipo)     H(rot)  DE(clash)    DE(int)     intcor
     14.73     -19.33       2.26        0.00     112.30       2.67       0.11       4.49       ----

> <Gold.Chemscore.Fitness>
14.7270

> <Gold.Chemscore.DG>
-19.3308

> <Gold.Chemscore.ZeroCoef>
-5.4800

> <Gold.Chemscore.Hbond>
2.2596

> <Gold.Chemscore.Metal>
0.0000

> <Gold.Chemscore.Lipo>
112.3022

> <Gold.Chemscore.Internal_Hbond>
0.0000

> <Gold.Chemscore.DEClash>
0.1093

> <Gold.Chemscore.DEInternal>
4.4944

> <Gold.Chemscore.Rot>
2.6702

> <Gold.Chemscore.Internal.Correction>
   9.000000E+99

> <Gold.Chemscore.Hbonds>
donor molecule, donor type, donor heavy atom, donor atom, acceptor molecule, acceptor atom, score
      P1  H  6896  6908       L1    33  0.37
      P1  H  7997  8009       L1    27  0.60
      P1  H 10752 10765       L1    29  0.79

> <Gold.Chemscore.Hbond.Weighted>
-7.5472

> <Gold.Chemscore.Metal.Weighted>
-0.0000

> <Gold.Chemscore.Lipo.Weighted>
-13.1394

> <Gold.Chemscore.Internal_Hbond.Weighted>
0.0000

> <Gold.Chemscore.DEClash.Weighted>
0.1093

> <Gold.Chemscore.DEInternal.Weighted>
4.4944

> <Gold.Chemscore.Rot.Weighted>
6.8358

> <Gold.Chemscore.Internal.Correction.Weighted>
   9.000000E+99

> <Gold.Protein.RotatedTorsions>
[ 6907 6896 6895 6894 ] final  129.82 input  -60.11 | X-H torsion
[ 7974 7965 7964 7962 ] final  136.87 input  175.53 | X-H torsion
[ 8008 7997 7996 7995 ] final -131.26 input   59.86 | X-H torsion
[ 10167 10162 10161 10158 ] final  151.63 input  -65.29 | X-H torsion
[ 10718 10713 10712 10709 ] final  126.69 input   66.30 | X-H torsion
[ 10763 10752 10751 10750 ] final  162.32 input  -60.55 | X-H torsion
[ 11005 11000 10999 10996 ] final   84.84 input  -57.11 | X-H torsion

> <Gold.Protein.ActiveResidues>
 VAL166  LYS551  ARG553  GLY616  TRP617  ASP618  TYR619  PRO620  LYS621  CYS622 
 ASP623  PHE694  ASN695  SER759  ASP760  ASP761  ALA762  ILE779  LEU786  VAL792 
 PHE793  MET794  SER795  GLU796  ALA797  LYS798  CYS799  TRP800  GLU811  SER814 

> <Gold.Protein.RotatedAtoms>
  152.3587  133.6269  159.5998 H   0  0  0  0  0  0  0  0  0  0  0  0  # atno 6907 bound_to 6896
  150.7586  133.9458  159.3479 H   0  0  0  0  0  0  0  0  0  0  0  0  # atno 6908 bound_to 6896
  151.7300  135.0878  160.0349 H   0  0  0  0  0  0  0  0  0  0  0  0  # atno 6909 bound_to 6896
  144.9523  139.4804  143.5520 H   0  0  0  0  0  0  0  0  0  0  0  0  # atno 7974 bound_to 7965
  155.3094  140.0456  157.3034 H   0  0  0  0  0  0  0  0  0  0  0  0  # atno 8008 bound_to 7997
  154.5442  140.2297  155.8558 H   0  0  0  0  0  0  0  0  0  0  0  0  # atno 8009 bound_to 7997
  156.1908  140.3051  155.9336 H   0  0  0  0  0  0  0  0  0  0  0  0  # atno 8010 bound_to 7997
  139.4839  144.5425  151.7540 H   0  0  0  0  0  0  0  0  0  0  0  0  # atno 10167 bound_to 10162
  157.5397  131.1097  150.8878 H   0  0  0  0  0  0  0  0  0  0  0  0  # atno 10718 bound_to 10713
  154.2766  135.2764  155.2715 H   0  0  0  0  0  0  0  0  0  0  0  0  # atno 10763 bound_to 10752
  154.5255  135.5744  153.6719 H   0  0  0  0  0  0  0  0  0  0  0  0  # atno 10764 bound_to 10752
  152.9936  135.6215  154.2923 H   0  0  0  0  0  0  0  0  0  0  0  0  # atno 10765 bound_to 10752
  139.8988  134.8245  156.2501 H   0  0  0  0  0  0  0  0  0  0  0  0  # atno 11005 bound_to 11000
  146.3325  139.8617  142.8855 LP  0  0  0  0  0  0  0  0  0  0  0  0  # atno 17320 bound_to 7965
  145.2825  141.0143  143.3709 LP  0  0  0  0  0  0  0  0  0  0  0  0  # atno 17321 bound_to 7965
  140.4967  144.1230  150.5961 LP  0  0  0  0  0  0  0  0  0  0  0  0  # atno 17342 bound_to 10162
  140.4110  143.2657  151.9833 LP  0  0  0  0  0  0  0  0  0  0  0  0  # atno 17343 bound_to 10162
  156.9434  130.5393  149.5280 LP  0  0  0  0  0  0  0  0  0  0  0  0  # atno 17370 bound_to 10713
  156.0487  130.5560  150.8940 LP  0  0  0  0  0  0  0  0  0  0  0  0  # atno 17371 bound_to 10713
  141.0229  133.7031  156.1299 LP  0  0  0  0  0  0  0  0  0  0  0  0  # atno 17394 bound_to 11000
  140.7207  134.4361  157.5575 LP  0  0  0  0  0  0  0  0  0  0  0  0  # atno 17395 bound_to 11000

$$$$
