AV-unprocessed.smi:3282|AV-procd|sdf|12567|dock4
  -GOLD-   2272018483D 1   1.00000     0.00000
 Structure written by MMmdl.
 33 34  0  0  0  0  0  0  0  0  2 V2000
  154.2291  141.1460  162.2366 C   0  0  0  0  0  0  0  0  0  0  0  0
  153.7028  142.0951  161.1478 C   0  0  0  0  0  0  0  0  0  0  0  0
  152.9918  141.3753  159.9895 C   0  0  0  0  0  0  0  0  0  0  0  0
  152.9103  140.1459  159.9904 O   0  0  0  0  0  0  0  0  0  0  0  0
  152.4739  142.1265  158.9955 N   0  0  0  0  0  0  0  0  0  0  0  0
  152.5179  143.5851  158.9169 C   0  0  0  0  0  0  0  0  0  0  0  0
  151.6209  143.9708  157.7404 C   0  0  0  0  0  0  0  0  0  0  0  0
  151.5839  142.7281  156.8551 C   0  0  2  0  0  0  0  0  0  0  0  0
  150.3224  142.6225  156.1278 N   0  0  0  0  0  0  0  0  0  0  0  0
  149.9178  141.5619  155.4144 C   0  0  0  0  0  0  0  0  0  0  0  0
  150.6414  140.5670  155.3291 O   0  0  0  0  0  0  0  0  0  0  0  0
  148.7000  141.7189  154.8481 N   0  5  0  0  0  0  0  0  0  0  0  0
  148.1062  140.6787  154.2411 C   0  0  0  0  0  0  0  0  0  0  0  0
  148.4551  139.3957  154.3501 N   0  0  0  0  0  0  0  0  0  0  0  0
  147.5711  138.6927  153.5461 C   0  0  0  0  0  0  0  0  0  0  0  0
  146.7176  139.5947  152.9720 C   0  0  0  0  0  0  0  0  0  0  0  0
  147.0480  140.8511  153.3989 O   0  0  0  0  0  0  0  0  0  0  0  0
  151.7888  141.5643  157.8345 C   0  0  0  0  0  0  0  0  0  0  0  0
  154.7257  141.7072  163.0284 H   0  0  0  0  0  0  0  0  0  0  0  0
  154.9530  140.4380  161.8314 H   0  0  0  0  0  0  0  0  0  0  0  0
  153.4197  140.5770  162.6961 H   0  0  0  0  0  0  0  0  0  0  0  0
  153.0090  142.8055  161.5985 H   0  0  0  0  0  0  0  0  0  0  0  0
  154.5368  142.6734  160.7486 H   0  0  0  0  0  0  0  0  0  0  0  0
  152.1779  144.0607  159.8376 H   0  0  0  0  0  0  0  0  0  0  0  0
  153.5451  143.9003  158.7283 H   0  0  0  0  0  0  0  0  0  0  0  0
  150.6210  144.1951  158.1155 H   0  0  0  0  0  0  0  0  0  0  0  0
  151.9795  144.8536  157.2103 H   0  0  0  0  0  0  0  0  0  0  0  0
  152.4232  142.7700  156.1584 H   0  0  0  0  0  0  0  0  0  0  0  0
  149.7013  143.4171  156.1708 H   0  0  0  0  0  0  0  0  0  0  0  0
  147.6198  137.6188  153.4461 H   0  0  0  0  0  0  0  0  0  0  0  0
  145.8863  139.5149  152.2880 H   0  0  0  0  0  0  0  0  0  0  0  0
  152.3617  140.7587  157.3725 H   0  0  0  0  0  0  0  0  0  0  0  0
  150.8337  141.1506  158.1635 H   0  0  0  0  0  0  0  0  0  0  0  0
  1  2  1  0  0  0  0
  1 19  1  0  0  0  0
  1 20  1  0  0  0  0
  1 21  1  0  0  0  0
  2  3  1  0  0  0  0
  2 22  1  0  0  0  0
  2 23  1  0  0  0  0
  3  4  2  0  0  0  0
  3  5  1  0  0  0  0
  5 18  1  0  0  0  0
  5  6  1  0  0  0  0
  6  7  1  0  0  0  0
  6 24  1  0  0  0  0
  6 25  1  0  0  0  0
  7  8  1  0  0  0  0
  7 26  1  0  0  0  0
  7 27  1  0  0  0  0
  8  9  1  0  0  0  0
  8 18  1  0  0  0  0
  8 28  1  0  0  0  0
  9 10  1  0  0  0  0
  9 29  1  0  0  0  0
 10 11  2  0  0  0  0
 10 12  1  0  0  0  0
 12 13  1  0  0  0  0
 13 17  1  0  0  0  0
 13 14  2  0  0  0  0
 14 15  1  0  0  0  0
 15 16  2  0  0  0  0
 15 30  1  0  0  0  0
 16 17  1  0  0  0  0
 16 31  1  0  0  0  0
 18 32  1  0  0  0  0
 18 33  1  0  0  0  0
M  CHG  1  12  -1
M  END
> <s_m_source_file>
AV-unprocessed.smi

> <i_m_source_file_index>
3282

> <i_lp_mmshare_version>
43012

> <i_f3d_flags>
0

> <s_epik_input>
W0NIM11bQ0gyXUMoPU8pTjFbQ0gyXVtDSDJdW0NASF0oW0NIMl0xKVtOSF1DKD1PKVtOSF1jMm5bY0hdW2NIXW8y

> <s_epik_cmdline>
J2VwaWtfcHl0aG9uJywgJy1waCcsICc3LjAnLCAnLXRuJywgJzgnLCAnLW1hJywgJzIwMCcsICctbWV0YWxfYmluZGluZycsICctaW1hZScsICc8aW5maWxlLm1hZT4nLCAnLW9tYWUnLCAnPG91dGZpbGUubWFlPic=

> <r_lp_tautomer_probability>
0.785861

> <r_epik_Ionization_Penalty>
9.30511

> <r_epik_Ionization_Penalty_Charging>
6.7516

> <r_epik_Ionization_Penalty_Neutral>
2.55351

> <r_epik_State_Penalty>
6.77285

> <r_epik_Charging_Adjusted_Penalty>
13.5244

> <i_epik_Tot_Q>
-1

> <i_epik_Tot_abs_Q>
1

> <r_epik_Metal_State_Penalty>
2.67327

> <b_epik_Metal_Only>
1

> <s_lp_Force_Field>
OPLS_2005

> <r_lp_Energy>
20.6417

> <b_lp_Chiralities_Consistent>
1

> <s_lp_Variant>
AV-unprocessed.smi:3282-8

> <Gold.Version>
5.8.1

> <Gold.Id.Protein>
6NUR|6NUR_protein|mol2

> <Gold.PLP.Fitness>
44.9325

> <Gold.PLP.PLP>
-33.4809

> <Gold.PLP.part.hbond>
-2.0000

> <Gold.PLP.part.metal>
0.0000

> <Gold.PLP.part.buried>
-4.1913

> <Gold.PLP.part.nonpolar>
-28.5098

> <Gold.PLP.part.repulsive>
0.8233

> <Gold.PLP.ligand.clash>
0.0000

> <Gold.PLP.ligand.torsion>
0.1238

> <Gold.PLP.Chemscore.Hbond>
1.9280

> <Gold.PLP.Chemscore.CHOScore>
1.9673

> <Gold.PLP.Chemscore.Metal>
0.0000

> <Gold.Chemscore.Hbonds>
donor molecule, donor type, donor heavy atom, donor atom, acceptor molecule, acceptor atom, score
      L1  H     9    29       P1  8028  1.00
      P1  H  7989  7998       L1    11  0.78
      L1  C    15    30       P1  7948  0.98
      L1  C    16    31       P1 10175  0.99

> <Gold.PLP.Chemscore.Internal.Correction>
0.0133

> <Gold.Rescore>
     Score         DG    S(hbond)    S(metal)    S(lipo)     H(rot)  DE(clash)    DE(int)     intcor
     10.70     -14.25       0.97        0.00      76.00       1.31       0.36       3.19       ----

> <Gold.Chemscore.Fitness>
10.7045

> <Gold.Chemscore.DG>
-14.2537

> <Gold.Chemscore.ZeroCoef>
-5.4800

> <Gold.Chemscore.Hbond>
0.9671

> <Gold.Chemscore.Metal>
0.0000

> <Gold.Chemscore.Lipo>
76.0049

> <Gold.Chemscore.Internal_Hbond>
0.0000

> <Gold.Chemscore.DEClash>
0.3556

> <Gold.Chemscore.DEInternal>
3.1935

> <Gold.Chemscore.Rot>
1.3082

> <Gold.Chemscore.Internal.Correction>
   9.000000E+99

> <Gold.Chemscore.Hbonds>
donor molecule, donor type, donor heavy atom, donor atom, acceptor molecule, acceptor atom, score
      L1  H     9    29       P1  8028  0.98
      P1  H  7989  7998       L1    11  0.26

> <Gold.Chemscore.Hbond.Weighted>
-3.2300

> <Gold.Chemscore.Metal.Weighted>
-0.0000

> <Gold.Chemscore.Lipo.Weighted>
-8.8926

> <Gold.Chemscore.Internal_Hbond.Weighted>
0.0000

> <Gold.Chemscore.DEClash.Weighted>
0.3556

> <Gold.Chemscore.DEInternal.Weighted>
3.1935

> <Gold.Chemscore.Rot.Weighted>
3.3489

> <Gold.Chemscore.Internal.Correction.Weighted>
   9.000000E+99

> <Gold.Protein.RotatedTorsions>
[ 6907 6896 6895 6894 ] final -174.30 input  -60.11 | X-H torsion
[ 7974 7965 7964 7962 ] final   33.92 input  175.53 | X-H torsion
[ 8008 7997 7996 7995 ] final  -15.75 input   59.86 | X-H torsion
[ 10167 10162 10161 10158 ] final   34.31 input  -65.29 | X-H torsion
[ 10718 10713 10712 10709 ] final  113.60 input   66.30 | X-H torsion
[ 10763 10752 10751 10750 ] final -178.05 input  -60.55 | X-H torsion
[ 11005 11000 10999 10996 ] final -126.76 input  -57.11 | X-H torsion

> <Gold.Protein.ActiveResidues>
 VAL166  LYS551  ARG553  GLY616  TRP617  ASP618  TYR619  PRO620  LYS621  CYS622 
 ASP623  PHE694  ASN695  SER759  ASP760  ASP761  ALA762  ILE779  LEU786  VAL792 
 PHE793  MET794  SER795  GLU796  ALA797  LYS798  CYS799  TRP800  GLU811  SER814 

> <Gold.Protein.RotatedAtoms>
  151.5701  133.3391  159.2987 H   0  0  0  0  0  0  0  0  0  0  0  0  # atno 6907 bound_to 6896
  150.8372  134.7653  159.6914 H   0  0  0  0  0  0  0  0  0  0  0  0  # atno 6908 bound_to 6896
  152.4447  134.5527  159.9923 H   0  0  0  0  0  0  0  0  0  0  0  0  # atno 6909 bound_to 6896
  146.1388  139.6335  142.9177 H   0  0  0  0  0  0  0  0  0  0  0  0  # atno 7974 bound_to 7965
  154.5106  140.2188  155.9164 H   0  0  0  0  0  0  0  0  0  0  0  0  # atno 8008 bound_to 7997
  156.1547  140.3154  155.8673 H   0  0  0  0  0  0  0  0  0  0  0  0  # atno 8009 bound_to 7997
  155.3870  140.0476  157.3032 H   0  0  0  0  0  0  0  0  0  0  0  0  # atno 8010 bound_to 7997
  140.4327  144.1302  150.6162 H   0  0  0  0  0  0  0  0  0  0  0  0  # atno 10167 bound_to 10162
  157.6329  131.0986  150.7064 H   0  0  0  0  0  0  0  0  0  0  0  0  # atno 10718 bound_to 10713
  154.5525  135.2814  155.0995 H   0  0  0  0  0  0  0  0  0  0  0  0  # atno 10763 bound_to 10752
  154.2435  135.6352  153.5219 H   0  0  0  0  0  0  0  0  0  0  0  0  # atno 10764 bound_to 10752
  153.0007  135.5566  154.6095 H   0  0  0  0  0  0  0  0  0  0  0  0  # atno 10765 bound_to 10752
  140.9655  134.0877  157.3924 H   0  0  0  0  0  0  0  0  0  0  0  0  # atno 11005 bound_to 11000
  145.5095  141.0436  143.2496 LP  0  0  0  0  0  0  0  0  0  0  0  0  # atno 17320 bound_to 7965
  144.7769  139.6610  143.7171 LP  0  0  0  0  0  0  0  0  0  0  0  0  # atno 17321 bound_to 7965
  140.4409  143.2527  151.9474 LP  0  0  0  0  0  0  0  0  0  0  0  0  # atno 17342 bound_to 10162
  139.4785  144.5655  151.8172 LP  0  0  0  0  0  0  0  0  0  0  0  0  # atno 17343 bound_to 10162
  156.7400  130.4736  149.5479 LP  0  0  0  0  0  0  0  0  0  0  0  0  # atno 17370 bound_to 10713
  156.1546  130.6333  151.0640 LP  0  0  0  0  0  0  0  0  0  0  0  0  # atno 17371 bound_to 10713
  139.8893  135.0104  156.6671 LP  0  0  0  0  0  0  0  0  0  0  0  0  # atno 17394 bound_to 11000
  140.7405  133.8981  155.8275 LP  0  0  0  0  0  0  0  0  0  0  0  0  # atno 17395 bound_to 11000

$$$$
