AV-unprocessed.smi:895|AV-procd|sdf|4075|dock4
  -GOLD-   22720 1563D 1   1.00000     0.00000
 Structure written by MMmdl.
 44 45  0  0  0  0  0  0  0  0  1 V2000
  152.4681  145.1620  158.4174 C   0  0  0  0  0  0  0  0  0  0  0  0
  151.7457  145.4275  159.7521 C   0  0  0  0  0  0  0  0  0  0  0  0
  152.3315  144.5367  160.8604 C   0  0  0  0  0  0  0  0  0  0  0  0
  152.0073  146.7623  160.1393 O   0  0  0  0  0  0  0  0  0  0  0  0
  150.2103  145.2430  159.6824 C   0  0  0  0  0  0  0  0  0  0  0  0
  149.7714  144.4806  158.5148 N   0  0  0  0  0  0  0  0  0  0  0  0
  149.9414  143.1635  158.3345 C   0  0  0  0  0  0  0  0  0  0  0  0
  150.5092  142.4221  159.1367 O   0  0  0  0  0  0  0  0  0  0  0  0
  149.4137  142.7503  157.1742 N   0  0  0  0  0  0  0  0  0  0  0  0
  149.4077  141.3696  156.6938 C   0  0  2  0  0  0  0  0  0  0  0  0
  150.3189  141.2407  155.4566 C   0  0  0  0  0  0  0  0  0  0  0  0
  150.3371  139.7994  154.9251 C   0  0  0  0  0  0  0  0  0  0  0  0
  148.9211  139.3004  154.6005 C   0  0  0  0  0  0  0  0  0  0  0  0
  147.9854  139.4297  155.8168 C   0  0  0  0  0  0  0  0  0  0  0  0
  147.9648  140.8443  156.4424 C   0  0  2  0  0  0  0  0  0  0  0  0
  147.1113  141.7782  155.7048 N   0  0  0  0  0  0  0  0  0  0  0  0
  147.1834  142.0928  154.3620 C   0  0  0  0  0  0  0  0  0  0  0  0
  146.1926  142.9922  154.0921 C   0  0  0  0  0  0  0  0  0  0  0  0
  145.5522  143.1726  155.3485 C   0  0  0  0  0  0  0  0  0  0  0  0
  146.1010  142.4460  156.3069 N   0  0  0  0  0  0  0  0  0  0  0  0
  152.2626  144.1543  158.0550 H   0  0  0  0  0  0  0  0  0  0  0  0
  153.5488  145.2578  158.5269 H   0  0  0  0  0  0  0  0  0  0  0  0
  152.1622  145.8626  157.6398 H   0  0  0  0  0  0  0  0  0  0  0  0
  152.1766  143.4802  160.6390 H   0  0  0  0  0  0  0  0  0  0  0  0
  151.8655  144.7421  161.8251 H   0  0  0  0  0  0  0  0  0  0  0  0
  153.4050  144.6939  160.9741 H   0  0  0  0  0  0  0  0  0  0  0  0
  151.6699  146.8916  161.0124 H   0  0  0  0  0  0  0  0  0  0  0  0
  149.8585  144.7575  160.5945 H   0  0  0  0  0  0  0  0  0  0  0  0
  149.7148  146.2144  159.6594 H   0  0  0  0  0  0  0  0  0  0  0  0
  149.2881  144.9975  157.7948 H   0  0  0  0  0  0  0  0  0  0  0  0
  148.9644  143.4359  156.5848 H   0  0  0  0  0  0  0  0  0  0  0  0
  149.8527  140.7465  157.4724 H   0  0  0  0  0  0  0  0  0  0  0  0
  149.9981  141.9200  154.6671 H   0  0  0  0  0  0  0  0  0  0  0  0
  151.3348  141.5414  155.7152 H   0  0  0  0  0  0  0  0  0  0  0  0
  150.9646  139.7400  154.0353 H   0  0  0  0  0  0  0  0  0  0  0  0
  150.7927  139.1436  155.6679 H   0  0  0  0  0  0  0  0  0  0  0  0
  148.5218  139.8523  153.7504 H   0  0  0  0  0  0  0  0  0  0  0  0
  148.9647  138.2579  154.2838 H   0  0  0  0  0  0  0  0  0  0  0  0
  146.9745  139.1229  155.5458 H   0  0  0  0  0  0  0  0  0  0  0  0
  148.3168  138.7221  156.5778 H   0  0  0  0  0  0  0  0  0  0  0  0
  147.4939  140.7334  157.4205 H   0  0  0  0  0  0  0  0  0  0  0  0
  147.9266  141.6517  153.7137 H   0  0  0  0  0  0  0  0  0  0  0  0
  145.9603  143.4498  153.1420 H   0  0  0  0  0  0  0  0  0  0  0  0
  144.7100  143.8038  155.5910 H   0  0  0  0  0  0  0  0  0  0  0  0
  1  2  1  0  0  0  0
  1 21  1  0  0  0  0
  1 22  1  0  0  0  0
  1 23  1  0  0  0  0
  2  3  1  0  0  0  0
  2  4  1  0  0  0  0
  2  5  1  0  0  0  0
  3 24  1  0  0  0  0
  3 25  1  0  0  0  0
  3 26  1  0  0  0  0
  4 27  1  0  0  0  0
  5  6  1  0  0  0  0
  5 28  1  0  0  0  0
  5 29  1  0  0  0  0
  6  7  1  0  0  0  0
  6 30  1  0  0  0  0
  7  8  2  0  0  0  0
  7  9  1  0  0  0  0
  9 10  1  0  0  0  0
  9 31  1  0  0  0  0
 10 15  1  0  0  0  0
 10 11  1  0  0  0  0
 10 32  1  0  0  0  0
 11 12  1  0  0  0  0
 11 33  1  0  0  0  0
 11 34  1  0  0  0  0
 12 13  1  0  0  0  0
 12 35  1  0  0  0  0
 12 36  1  0  0  0  0
 13 14  1  0  0  0  0
 13 37  1  0  0  0  0
 13 38  1  0  0  0  0
 14 15  1  0  0  0  0
 14 39  1  0  0  0  0
 14 40  1  0  0  0  0
 15 16  1  0  0  0  0
 15 41  1  0  0  0  0
 16 20  1  0  0  0  0
 16 17  1  0  0  0  0
 17 18  2  0  0  0  0
 17 42  1  0  0  0  0
 18 19  1  0  0  0  0
 18 43  1  0  0  0  0
 19 20  2  0  0  0  0
 19 44  1  0  0  0  0
M  END
> <s_m_source_file>
AV-unprocessed.smi

> <i_m_source_file_index>
895

> <i_lp_mmshare_version>
43012

> <i_f3d_flags>
0

> <s_epik_input>
W0NIM11DKFtDSDNdKShbT0hdKVtDSDJdW05IXUMoPU8pW05IXVtDQEBIXTFbQ0gyXVtDSDJdW0NIMl1bQ0gyXVtDQEhdMW4yW2NIXVtjSF1bY0hdbjI=

> <s_epik_cmdline>
J2VwaWtfcHl0aG9uJywgJy1waCcsICc3LjAnLCAnLXRuJywgJzgnLCAnLW1hJywgJzIwMCcsICctbWV0YWxfYmluZGluZycsICctaW1hZScsICc8aW5maWxlLm1hZT4nLCAnLW9tYWUnLCAnPG91dGZpbGUubWFlPic=

> <r_lp_tautomer_probability>
1

> <r_epik_Ionization_Penalty>
0.000440451

> <r_epik_Ionization_Penalty_Charging>
0

> <r_epik_Ionization_Penalty_Neutral>
0.000440451

> <r_epik_State_Penalty>
-0

> <r_epik_Charging_Adjusted_Penalty>
0

> <i_epik_Tot_Q>
0

> <i_epik_Tot_abs_Q>
0

> <r_epik_Metal_State_Penalty>
-0

> <b_epik_Metal_Only>
0

> <s_lp_Force_Field>
OPLS_2005

> <r_lp_Energy>
14.0773

> <b_lp_Chiralities_Consistent>
1

> <s_lp_Variant>
AV-unprocessed.smi:895-3

> <Gold.Version>
5.8.1

> <Gold.Id.Protein>
6NUR|6NUR_protein|mol2

> <Gold.PLP.Fitness>
47.3139

> <Gold.PLP.PLP>
-44.3359

> <Gold.PLP.part.hbond>
-7.4555

> <Gold.PLP.part.metal>
0.0000

> <Gold.PLP.part.buried>
-4.4160

> <Gold.PLP.part.nonpolar>
-32.1219

> <Gold.PLP.part.repulsive>
0.2917

> <Gold.PLP.ligand.clash>
0.0000

> <Gold.PLP.ligand.torsion>
1.1873

> <Gold.PLP.Chemscore.Hbond>
1.7500

> <Gold.PLP.Chemscore.CHOScore>
0.0000

> <Gold.PLP.Chemscore.Metal>
0.0000

> <Gold.Chemscore.Hbonds>
donor molecule, donor type, donor heavy atom, donor atom, acceptor molecule, acceptor atom, score
      L1  H     6    30       P1  8029  0.60
      L1  H     9    31       P1  8028  1.00

> <Gold.PLP.Chemscore.Internal.Correction>
0.1026

> <Gold.Rescore>
     Score         DG    S(hbond)    S(metal)    S(lipo)     H(rot)  DE(clash)    DE(int)     intcor
     12.37     -14.17       1.03        0.00      92.75       2.19       0.56       1.24       ----

> <Gold.Chemscore.Fitness>
12.3665

> <Gold.Chemscore.DG>
-14.1676

> <Gold.Chemscore.ZeroCoef>
-5.4800

> <Gold.Chemscore.Hbond>
1.0322

> <Gold.Chemscore.Metal>
0.0000

> <Gold.Chemscore.Lipo>
92.7483

> <Gold.Chemscore.Internal_Hbond>
0.0000

> <Gold.Chemscore.DEClash>
0.5585

> <Gold.Chemscore.DEInternal>
1.2426

> <Gold.Chemscore.Rot>
2.1919

> <Gold.Chemscore.Internal.Correction>
   9.000000E+99

> <Gold.Chemscore.Hbonds>
donor molecule, donor type, donor heavy atom, donor atom, acceptor molecule, acceptor atom, score
      L1  H     6    30       P1  8029  0.04
      L1  H     9    31       P1  8028  0.89

> <Gold.Chemscore.Hbond.Weighted>
-3.4474

> <Gold.Chemscore.Metal.Weighted>
-0.0000

> <Gold.Chemscore.Lipo.Weighted>
-10.8515

> <Gold.Chemscore.Internal_Hbond.Weighted>
0.0000

> <Gold.Chemscore.DEClash.Weighted>
0.5585

> <Gold.Chemscore.DEInternal.Weighted>
1.2426

> <Gold.Chemscore.Rot.Weighted>
5.6113

> <Gold.Chemscore.Internal.Correction.Weighted>
   9.000000E+99

> <Gold.Protein.RotatedTorsions>
[ 6907 6896 6895 6894 ] final -165.04 input  -60.11 | X-H torsion
[ 7974 7965 7964 7962 ] final   56.76 input  175.53 | X-H torsion
[ 8008 7997 7996 7995 ] final  -99.12 input   59.86 | X-H torsion
[ 10167 10162 10161 10158 ] final  102.72 input  -65.29 | X-H torsion
[ 10718 10713 10712 10709 ] final -154.27 input   66.30 | X-H torsion
[ 10763 10752 10751 10750 ] final  -87.48 input  -60.55 | X-H torsion
[ 11005 11000 10999 10996 ] final -122.67 input  -57.11 | X-H torsion

> <Gold.Protein.ActiveResidues>
 VAL166  LYS551  ARG553  GLY616  TRP617  ASP618  TYR619  PRO620  LYS621  CYS622 
 ASP623  PHE694  ASN695  SER759  ASP760  ASP761  ALA762  ILE779  LEU786  VAL792 
 PHE793  MET794  SER795  GLU796  ALA797  LYS798  CYS799  TRP800  GLU811  SER814 

> <Gold.Protein.RotatedAtoms>
  151.4214  133.3697  159.2756 H   0  0  0  0  0  0  0  0  0  0  0  0  # atno 6907 bound_to 6896
  150.9291  134.8708  159.7550 H   0  0  0  0  0  0  0  0  0  0  0  0  # atno 6908 bound_to 6896
  152.5019  134.4157  159.9516 H   0  0  0  0  0  0  0  0  0  0  0  0  # atno 6909 bound_to 6896
  145.9363  139.3850  143.0390 H   0  0  0  0  0  0  0  0  0  0  0  0  # atno 7974 bound_to 7965
  154.8105  140.0450  157.1339 H   0  0  0  0  0  0  0  0  0  0  0  0  # atno 8008 bound_to 7997
  154.9374  140.3048  155.5117 H   0  0  0  0  0  0  0  0  0  0  0  0  # atno 8009 bound_to 7997
  156.2971  140.2312  156.4440 H   0  0  0  0  0  0  0  0  0  0  0  0  # atno 8010 bound_to 7997
  139.7325  144.7032  151.0700 H   0  0  0  0  0  0  0  0  0  0  0  0  # atno 10167 bound_to 10162
  156.4970  130.8374  151.2594 H   0  0  0  0  0  0  0  0  0  0  0  0  # atno 10718 bound_to 10713
  154.6341  135.5412  153.7713 H   0  0  0  0  0  0  0  0  0  0  0  0  # atno 10763 bound_to 10752
  153.0299  135.6443  154.1258 H   0  0  0  0  0  0  0  0  0  0  0  0  # atno 10764 bound_to 10752
  154.1186  135.2922  155.3193 H   0  0  0  0  0  0  0  0  0  0  0  0  # atno 10765 bound_to 10752
  140.9977  134.0447  157.3576 H   0  0  0  0  0  0  0  0  0  0  0  0  # atno 11005 bound_to 11000
  145.8359  140.9606  143.0824 LP  0  0  0  0  0  0  0  0  0  0  0  0  # atno 17320 bound_to 7965
  144.6772  140.0222  143.7483 LP  0  0  0  0  0  0  0  0  0  0  0  0  # atno 17321 bound_to 7965
  140.7773  143.5026  150.9753 LP  0  0  0  0  0  0  0  0  0  0  0  0  # atno 17342 bound_to 10162
  139.8714  143.7188  152.3166 LP  0  0  0  0  0  0  0  0  0  0  0  0  # atno 17343 bound_to 10162
  157.7467  130.9994  150.2889 LP  0  0  0  0  0  0  0  0  0  0  0  0  # atno 17370 bound_to 10713
  156.3370  130.3809  149.7441 LP  0  0  0  0  0  0  0  0  0  0  0  0  # atno 17371 bound_to 10713
  139.9023  135.0169  156.7326 LP  0  0  0  0  0  0  0  0  0  0  0  0  # atno 17394 bound_to 11000
  140.6939  133.9366  155.7983 LP  0  0  0  0  0  0  0  0  0  0  0  0  # atno 17395 bound_to 11000

$$$$
