AV-unprocessed.smi:194|AV-procd|sdf|1521|dock7
  -GOLD-   2262019363D 1   1.00000     0.00000
 Structure written by MMmdl.
 53 55  0  0  0  0  0  0  0  0  1 V2000
  146.7620  133.8524  158.7492 C   0  0  0  0  0  0  0  0  0  0  0  0
  146.5342  135.3272  159.1654 C   0  0  1  0  0  0  0  0  0  0  0  0
  147.5631  135.7418  160.2451 C   0  0  0  0  0  0  0  0  0  0  0  0
  146.7474  136.8632  161.4805 S   0  0  1  0  0  0  0  0  0  0  0  0
  145.7867  135.5464  162.3633 C   0  0  0  0  0  0  0  0  0  0  0  0
  147.8414  137.3335  162.4407 O   0  0  0  0  0  0  0  0  0  0  0  0
  146.5824  136.2391  158.0094 N   0  0  0  0  0  0  0  0  0  0  0  0
  146.7520  137.6649  158.2774 C   0  0  0  0  0  0  0  0  0  0  0  0
  145.6182  136.0557  157.0793 C   0  0  0  0  0  0  0  0  0  0  0  0
  144.3311  136.0727  157.5049 N   0  0  0  0  0  0  0  0  0  0  0  0
  143.3375  135.9041  156.6273 C   0  0  0  0  0  0  0  0  0  0  0  0
  143.4119  135.7022  155.3097 N   0  0  0  0  0  0  0  0  0  0  0  0
  144.7073  135.6701  154.8823 C   0  0  0  0  0  0  0  0  0  0  0  0
  145.8635  135.8413  155.6939 C   0  0  0  0  0  0  0  0  0  0  0  0
  147.0096  135.7608  154.9132 N   0  0  0  0  0  0  0  0  0  0  0  0
  146.5558  135.5607  153.7064 C   0  0  0  0  0  0  0  0  0  0  0  0
  145.1854  135.4729  153.5977 N   0  0  0  0  0  0  0  0  0  0  0  0
  144.4223  135.2633  152.3755 C   0  0  0  0  0  0  0  0  0  0  0  0
  144.8490  134.0411  151.5060 C   0  0  0  0  0  0  0  0  0  0  0  0
  146.1741  134.3364  150.7405 C   0  0  0  0  0  0  0  0  0  0  0  0
  146.0760  135.4061  149.8220 O   0  0  0  0  0  0  0  0  0  0  0  0
  144.9536  132.7536  152.3638 C   0  0  0  0  0  0  0  0  0  0  0  0
  145.0498  131.4784  151.5090 C   0  0  0  0  0  0  0  0  0  0  0  0
  143.9147  131.3842  150.6584 O   0  0  0  0  0  0  0  0  0  0  0  0
  143.8300  132.4587  149.7319 C   0  0  0  0  0  0  0  0  0  0  0  0
  143.7105  133.8008  150.4809 C   0  0  0  0  0  0  0  0  0  0  0  0
  146.7434  133.1785  159.6048 H   0  0  0  0  0  0  0  0  0  0  0  0
  147.7257  133.7278  158.2543 H   0  0  0  0  0  0  0  0  0  0  0  0
  145.9906  133.4930  158.0679 H   0  0  0  0  0  0  0  0  0  0  0  0
  145.5398  135.4106  159.6054 H   0  0  0  0  0  0  0  0  0  0  0  0
  147.9807  134.8688  160.7476 H   0  0  0  0  0  0  0  0  0  0  0  0
  148.3943  136.3017  159.8181 H   0  0  0  0  0  0  0  0  0  0  0  0
  145.1258  135.0263  161.6698 H   0  0  0  0  0  0  0  0  0  0  0  0
  145.1806  135.9901  163.1530 H   0  0  0  0  0  0  0  0  0  0  0  0
  146.4628  134.8196  162.8133 H   0  0  0  0  0  0  0  0  0  0  0  0
  146.4432  138.2842  157.4332 H   0  0  0  0  0  0  0  0  0  0  0  0
  147.8009  137.8885  158.4720 H   0  0  0  0  0  0  0  0  0  0  0  0
  146.1691  137.9663  159.1484 H   0  0  0  0  0  0  0  0  0  0  0  0
  142.3398  135.9361  157.0396 H   0  0  0  0  0  0  0  0  0  0  0  0
  147.2138  135.4584  152.8559 H   0  0  0  0  0  0  0  0  0  0  0  0
  143.3740  135.1699  152.6624 H   0  0  0  0  0  0  0  0  0  0  0  0
  144.4835  136.1775  151.7835 H   0  0  0  0  0  0  0  0  0  0  0  0
  146.9809  134.5946  151.4235 H   0  0  0  0  0  0  0  0  0  0  0  0
  146.5070  133.4473  150.2039 H   0  0  0  0  0  0  0  0  0  0  0  0
  146.1479  135.0592  148.9459 H   0  0  0  0  0  0  0  0  0  0  0  0
  145.8008  132.8012  153.0481 H   0  0  0  0  0  0  0  0  0  0  0  0
  144.0671  132.6685  152.9935 H   0  0  0  0  0  0  0  0  0  0  0  0
  145.9688  131.4582  150.9220 H   0  0  0  0  0  0  0  0  0  0  0  0
  145.0719  130.6009  152.1554 H   0  0  0  0  0  0  0  0  0  0  0  0
  144.6871  132.4425  149.0589 H   0  0  0  0  0  0  0  0  0  0  0  0
  142.9494  132.3070  149.1073 H   0  0  0  0  0  0  0  0  0  0  0  0
  142.7492  133.8036  150.9971 H   0  0  0  0  0  0  0  0  0  0  0  0
  143.6661  134.6208  149.7629 H   0  0  0  0  0  0  0  0  0  0  0  0
  1  2  1  0  0  0  0
  1 27  1  0  0  0  0
  1 28  1  0  0  0  0
  1 29  1  0  0  0  0
  2  3  1  0  0  0  0
  2  7  1  0  0  0  0
  2 30  1  0  0  0  0
  3  4  1  0  0  0  0
  3 31  1  0  0  0  0
  3 32  1  0  0  0  0
  4  5  1  0  0  0  0
  4  6  2  0  0  0  0
  5 33  1  0  0  0  0
  5 34  1  0  0  0  0
  5 35  1  0  0  0  0
  7  8  1  0  0  0  0
  7  9  1  0  0  0  0
  8 36  1  0  0  0  0
  8 37  1  0  0  0  0
  8 38  1  0  0  0  0
  9 14  1  0  0  0  0
  9 10  2  0  0  0  0
 10 11  1  0  0  0  0
 11 12  2  0  0  0  0
 11 39  1  0  0  0  0
 12 13  1  0  0  0  0
 13 17  1  0  0  0  0
 13 14  2  0  0  0  0
 14 15  1  0  0  0  0
 15 16  2  0  0  0  0
 16 17  1  0  0  0  0
 16 40  1  0  0  0  0
 17 18  1  0  0  0  0
 18 19  1  0  0  0  0
 18 41  1  0  0  0  0
 18 42  1  0  0  0  0
 19 26  1  0  0  0  0
 19 20  1  0  0  0  0
 19 22  1  0  0  0  0
 20 21  1  0  0  0  0
 20 43  1  0  0  0  0
 20 44  1  0  0  0  0
 21 45  1  0  0  0  0
 22 23  1  0  0  0  0
 22 46  1  0  0  0  0
 22 47  1  0  0  0  0
 23 24  1  0  0  0  0
 23 48  1  0  0  0  0
 23 49  1  0  0  0  0
 24 25  1  0  0  0  0
 25 26  1  0  0  0  0
 25 50  1  0  0  0  0
 25 51  1  0  0  0  0
 26 52  1  0  0  0  0
 26 53  1  0  0  0  0
M  END
> <s_m_source_file>
AV-unprocessed.smi

> <i_m_source_file_index>
194

> <i_lp_mmshare_version>
43012

> <i_f3d_flags>
0

> <s_epik_input>
W0NIM11bU0BAXSg9TylbQ0gyXVtDQEBIXShbQ0gzXSlOKFtDSDNdKWMobltjSF1uMSljKGMxMiluW2NIXW4yW0NIMl1DMyhbQ0gyXVtPSF0pW0NIMl1bQ0gyXU9bQ0gyXVtDSDJdMw==

> <s_epik_cmdline>
J2VwaWtfcHl0aG9uJywgJy1waCcsICc3LjAnLCAnLXRuJywgJzgnLCAnLW1hJywgJzIwMCcsICctbWV0YWxfYmluZGluZycsICctaW1hZScsICc8aW5maWxlLm1hZT4nLCAnLW9tYWUnLCAnPG91dGZpbGUubWFlPic=

> <r_lp_tautomer_probability>
1

> <r_epik_Ionization_Penalty>
0.00101625

> <r_epik_Ionization_Penalty_Charging>
0

> <r_epik_Ionization_Penalty_Neutral>
0.00101625

> <r_epik_State_Penalty>
0.000568005

> <r_epik_Charging_Adjusted_Penalty>
0.000568005

> <i_epik_Tot_Q>
0

> <i_epik_Tot_abs_Q>
0

> <r_epik_Metal_State_Penalty>
-0

> <b_epik_Metal_Only>
0

> <s_lp_Force_Field>
OPLS_2005

> <r_lp_Energy>
31.1686

> <b_lp_Chiralities_Consistent>
1

> <s_lp_Variant>
AV-unprocessed.smi:194-2

> <Gold.Version>
5.8.1

> <Gold.Id.Protein>
6NUR|6NUR_protein|mol2

> <Gold.PLP.Fitness>
40.9830

> <Gold.PLP.PLP>
-31.0799

> <Gold.PLP.part.hbond>
-3.3400

> <Gold.PLP.part.metal>
0.0000

> <Gold.PLP.part.buried>
-4.3792

> <Gold.PLP.part.nonpolar>
-23.4084

> <Gold.PLP.part.repulsive>
0.2772

> <Gold.PLP.ligand.clash>
0.0000

> <Gold.PLP.ligand.torsion>
1.3182

> <Gold.PLP.Chemscore.Hbond>
2.0000

> <Gold.PLP.Chemscore.CHOScore>
1.9669

> <Gold.PLP.Chemscore.Metal>
0.0000

> <Gold.Chemscore.Hbonds>
donor molecule, donor type, donor heavy atom, donor atom, acceptor molecule, acceptor atom, score
      L1  H    21    45       P1  7921  0.47
      P1  H  6931  6943       L1     6  0.85
      P1  H 10785 10796       L1    24  0.01
      L1  C    11    39       P1 11000  0.30
      L1  C    16    40       P1  7948  1.00

> <Gold.PLP.Chemscore.Internal.Correction>
0.6388

> <Gold.Rescore>
     Score         DG    S(hbond)    S(metal)    S(lipo)     H(rot)  DE(clash)    DE(int)     intcor
      9.33     -10.92       1.83        0.00      66.50       3.31       0.16       1.42       ----

> <Gold.Chemscore.Fitness>
9.3296

> <Gold.Chemscore.DG>
-10.9162

> <Gold.Chemscore.ZeroCoef>
-5.4800

> <Gold.Chemscore.Hbond>
1.8348

> <Gold.Chemscore.Metal>
0.0000

> <Gold.Chemscore.Lipo>
66.5039

> <Gold.Chemscore.Internal_Hbond>
0.0000

> <Gold.Chemscore.DEClash>
0.1623

> <Gold.Chemscore.DEInternal>
1.4243

> <Gold.Chemscore.Rot>
3.3098

> <Gold.Chemscore.Internal.Correction>
   9.000000E+99

> <Gold.Chemscore.Hbonds>
donor molecule, donor type, donor heavy atom, donor atom, acceptor molecule, acceptor atom, score
      L1  H    21    45       P1  7921  0.36
      P1  H  6931  6943       L1     6  0.80

> <Gold.Chemscore.Hbond.Weighted>
-6.1282

> <Gold.Chemscore.Metal.Weighted>
-0.0000

> <Gold.Chemscore.Lipo.Weighted>
-7.7810

> <Gold.Chemscore.Internal_Hbond.Weighted>
0.0000

> <Gold.Chemscore.DEClash.Weighted>
0.1623

> <Gold.Chemscore.DEInternal.Weighted>
1.4243

> <Gold.Chemscore.Rot.Weighted>
8.4730

> <Gold.Chemscore.Internal.Correction.Weighted>
   9.000000E+99

> <Gold.Protein.RotatedTorsions>
[ 6907 6896 6895 6894 ] final  102.64 input  -60.11 | X-H torsion
[ 7974 7965 7964 7962 ] final  151.90 input  175.53 | X-H torsion
[ 8008 7997 7996 7995 ] final  -14.33 input   59.86 | X-H torsion
[ 10167 10162 10161 10158 ] final   29.71 input  -65.29 | X-H torsion
[ 10718 10713 10712 10709 ] final  148.27 input   66.30 | X-H torsion
[ 10763 10752 10751 10750 ] final   35.85 input  -60.55 | X-H torsion
[ 11005 11000 10999 10996 ] final   20.17 input  -57.11 | X-H torsion

> <Gold.Protein.ActiveResidues>
 VAL166  LYS551  ARG553  GLY616  TRP617  ASP618  TYR619  PRO620  LYS621  CYS622 
 ASP623  PHE694  ASN695  SER759  ASP760  ASP761  ALA762  ILE779  LEU786  VAL792 
 PHE793  MET794  SER795  GLU796  ALA797  LYS798  CYS799  TRP800  GLU811  SER814 

> <Gold.Protein.RotatedAtoms>
  152.5318  133.9944  159.7865 H   0  0  0  0  0  0  0  0  0  0  0  0  # atno 6907 bound_to 6896
  151.0174  133.5900  159.2682 H   0  0  0  0  0  0  0  0  0  0  0  0  # atno 6908 bound_to 6896
  151.2952  135.0760  159.9272 H   0  0  0  0  0  0  0  0  0  0  0  0  # atno 6909 bound_to 6896
  144.8260  139.6598  143.6080 H   0  0  0  0  0  0  0  0  0  0  0  0  # atno 7974 bound_to 7965
  154.5219  140.2226  155.8960 H   0  0  0  0  0  0  0  0  0  0  0  0  # atno 8008 bound_to 7997
  156.1671  140.3130  155.8873 H   0  0  0  0  0  0  0  0  0  0  0  0  # atno 8009 bound_to 7997
  155.3634  140.0462  157.3037 H   0  0  0  0  0  0  0  0  0  0  0  0  # atno 8010 bound_to 7997
  140.4742  144.0716  150.6246 H   0  0  0  0  0  0  0  0  0  0  0  0  # atno 10167 bound_to 10162
  157.3107  131.0887  151.1319 H   0  0  0  0  0  0  0  0  0  0  0  0  # atno 10718 bound_to 10713
  153.0102  135.6322  154.1891 H   0  0  0  0  0  0  0  0  0  0  0  0  # atno 10763 bound_to 10752
  154.1634  135.2822  155.3104 H   0  0  0  0  0  0  0  0  0  0  0  0  # atno 10764 bound_to 10752
  154.5964  135.5601  153.7390 H   0  0  0  0  0  0  0  0  0  0  0  0  # atno 10765 bound_to 10752
  140.4056  134.1672  155.7665 H   0  0  0  0  0  0  0  0  0  0  0  0  # atno 11005 bound_to 11000
  146.2565  139.6314  142.9391 LP  0  0  0  0  0  0  0  0  0  0  0  0  # atno 17320 bound_to 7965
  145.5000  141.0437  143.2546 LP  0  0  0  0  0  0  0  0  0  0  0  0  # atno 17321 bound_to 7965
  140.3939  143.2738  152.0027 LP  0  0  0  0  0  0  0  0  0  0  0  0  # atno 17342 bound_to 10162
  139.4823  144.6054  151.7531 LP  0  0  0  0  0  0  0  0  0  0  0  0  # atno 17343 bound_to 10162
  157.2642  130.6673  149.5989 LP  0  0  0  0  0  0  0  0  0  0  0  0  # atno 17370 bound_to 10713
  155.9677  130.4499  150.5677 LP  0  0  0  0  0  0  0  0  0  0  0  0  # atno 17371 bound_to 10713
  141.1840  133.8352  157.1154 LP  0  0  0  0  0  0  0  0  0  0  0  0  # atno 17394 bound_to 11000
  140.0304  134.9904  157.0769 LP  0  0  0  0  0  0  0  0  0  0  0  0  # atno 17395 bound_to 11000

$$$$
