AV-unprocessed.smi:505|AV-procd|sdf|2748|dock9
  -GOLD-   2262023213D 1   1.00000     0.00000
 Structure written by MMmdl.
 37 38  0  0  0  0  0  0  0  0  1 V2000
  148.8272  136.5052  159.5502 C   0  0  0  0  0  0  0  0  0  0  0  0
  150.1554  136.4864  159.0593 O   0  0  0  0  0  0  0  0  0  0  0  0
  150.2762  137.1060  157.7890 C   0  0  0  0  0  0  0  0  0  0  0  0
  151.7213  137.5798  157.5816 C   0  0  0  0  0  0  0  0  0  0  0  0
  151.9226  138.9498  158.0435 N   0  0  0  0  0  0  0  0  0  0  0  0
  151.4336  140.0933  157.5028 C   0  0  0  0  0  0  0  0  0  0  0  0
  150.6501  140.0506  156.3575 N   0  0  0  0  0  0  0  0  0  0  0  0
  150.0100  141.0957  155.5825 C   0  0  0  0  0  0  0  0  0  0  0  0
  148.9918  140.5227  154.5886 C   0  0  0  0  0  0  0  0  0  0  0  0
  149.1482  141.1380  153.3275 O   0  0  0  0  0  0  0  0  0  0  0  0
  151.7761  141.2133  158.1445 N   0  0  0  0  0  0  0  0  0  0  0  0
  152.5669  140.7401  159.1830 C   0  0  0  0  0  0  0  0  0  0  0  0
  152.6728  139.3871  159.1337 C   0  0  0  0  0  0  0  0  0  0  0  0
  153.4675  138.6201  160.1001 C   0  0  0  0  0  0  0  0  0  0  0  0
  153.5806  137.3965  160.0638 O   0  0  0  0  0  0  0  0  0  0  0  0
  154.0676  139.4008  161.0312 N   0  0  0  0  0  0  0  0  0  0  0  0
  154.0016  140.7633  161.1413 C   0  0  0  0  0  0  0  0  0  0  0  0
  154.6091  141.3370  162.0451 O   0  0  0  0  0  0  0  0  0  0  0  0
  153.2457  141.4424  160.2196 N   0  0  0  0  0  0  0  0  0  0  0  0
  153.1372  142.9007  160.2930 C   0  0  0  0  0  0  0  0  0  0  0  0
  154.6300  138.9234  161.7204 H   0  0  0  0  0  0  0  0  0  0  0  0
  148.7912  136.0212  160.5262 H   0  0  0  0  0  0  0  0  0  0  0  0
  148.1528  135.9677  158.8824 H   0  0  0  0  0  0  0  0  0  0  0  0
  148.4644  137.5272  159.6673 H   0  0  0  0  0  0  0  0  0  0  0  0
  150.0039  136.4003  157.0029 H   0  0  0  0  0  0  0  0  0  0  0  0
  149.5910  137.9522  157.7191 H   0  0  0  0  0  0  0  0  0  0  0  0
  152.4106  136.9168  158.1049 H   0  0  0  0  0  0  0  0  0  0  0  0
  151.9959  137.5157  156.5292 H   0  0  0  0  0  0  0  0  0  0  0  0
  150.5490  139.1309  155.9531 H   0  0  0  0  0  0  0  0  0  0  0  0
  149.4980  141.7535  156.2851 H   0  0  0  0  0  0  0  0  0  0  0  0
  150.7608  141.7009  155.0730 H   0  0  0  0  0  0  0  0  0  0  0  0
  149.0788  139.4391  154.4996 H   0  0  0  0  0  0  0  0  0  0  0  0
  147.9809  140.7365  154.9364 H   0  0  0  0  0  0  0  0  0  0  0  0
  149.0816  140.4741  152.6582 H   0  0  0  0  0  0  0  0  0  0  0  0
  152.7779  143.2113  161.2753 H   0  0  0  0  0  0  0  0  0  0  0  0
  152.4462  143.3068  159.5543 H   0  0  0  0  0  0  0  0  0  0  0  0
  154.1099  143.3640  160.1224 H   0  0  0  0  0  0  0  0  0  0  0  0
  1  2  1  0  0  0  0
  1 22  1  0  0  0  0
  1 23  1  0  0  0  0
  1 24  1  0  0  0  0
  2  3  1  0  0  0  0
  3  4  1  0  0  0  0
  3 25  1  0  0  0  0
  3 26  1  0  0  0  0
  4  5  1  0  0  0  0
  4 27  1  0  0  0  0
  4 28  1  0  0  0  0
  5 13  1  0  0  0  0
  5  6  1  0  0  0  0
  6  7  1  0  0  0  0
  6 11  2  0  0  0  0
  7  8  1  0  0  0  0
  7 29  1  0  0  0  0
  8  9  1  0  0  0  0
  8 30  1  0  0  0  0
  8 31  1  0  0  0  0
  9 10  1  0  0  0  0
  9 32  1  0  0  0  0
  9 33  1  0  0  0  0
 10 34  1  0  0  0  0
 11 12  1  0  0  0  0
 12 19  1  0  0  0  0
 12 13  2  0  0  0  0
 13 14  1  0  0  0  0
 14 15  2  0  0  0  0
 14 16  1  0  0  0  0
 16 21  1  0  0  0  0
 16 17  1  0  0  0  0
 17 18  2  0  0  0  0
 17 19  1  0  0  0  0
 19 20  1  0  0  0  0
 20 35  1  0  0  0  0
 20 36  1  0  0  0  0
 20 37  1  0  0  0  0
M  END
> <s_m_source_file>
AV-unprocessed.smi

> <i_m_source_file_index>
505

> <i_lp_mmshare_version>
43012

> <i_f3d_flags>
0

> <s_epik_input>
W09IXVtDSDJdW0NIMl1bTkhdYyhuMSluKFtDSDJdW0NIMl1PW0NIM10pYyhjMTIpYyg9TylbbkhdYyg9TyluMltDSDNd

> <s_epik_cmdline>
J2VwaWtfcHl0aG9uJywgJy1waCcsICc3LjAnLCAnLXRuJywgJzgnLCAnLW1hJywgJzIwMCcsICctbWV0YWxfYmluZGluZycsICctaW1hZScsICc8aW5maWxlLm1hZT4nLCAnLW9tYWUnLCAnPG91dGZpbGUubWFlPic=

> <r_lp_tautomer_probability>
1

> <r_epik_Ionization_Penalty>
7.89905e-05

> <r_epik_Ionization_Penalty_Charging>
2.6983e-05

> <r_epik_Ionization_Penalty_Neutral>
5.20075e-05

> <r_epik_State_Penalty>
-0

> <r_epik_Charging_Adjusted_Penalty>
2.6983e-05

> <i_epik_Tot_Q>
0

> <i_epik_Tot_abs_Q>
0

> <r_epik_Metal_State_Penalty>
0.02526

> <b_epik_Metal_Only>
0

> <s_lp_Force_Field>
OPLS_2005

> <r_lp_Energy>
22.7063

> <b_lp_Chiralities_Consistent>
1

> <s_lp_Variant>
AV-unprocessed.smi:505-1

> <Gold.Version>
5.8.1

> <Gold.Id.Protein>
6NUR|6NUR_protein|mol2

> <Gold.PLP.Fitness>
41.8647

> <Gold.PLP.PLP>
-34.7678

> <Gold.PLP.part.hbond>
-4.4613

> <Gold.PLP.part.metal>
0.0000

> <Gold.PLP.part.buried>
-6.7396

> <Gold.PLP.part.nonpolar>
-24.0304

> <Gold.PLP.part.repulsive>
0.0936

> <Gold.PLP.ligand.clash>
0.0000

> <Gold.PLP.ligand.torsion>
0.7929

> <Gold.PLP.Chemscore.Hbond>
2.8895

> <Gold.PLP.Chemscore.CHOScore>
0.0000

> <Gold.PLP.Chemscore.Metal>
0.0000

> <Gold.Chemscore.Hbonds>
donor molecule, donor type, donor heavy atom, donor atom, acceptor molecule, acceptor atom, score
      L1  H    10    34       P1  7957  0.86
      P1  H  6896  6907       L1     2  0.94
      P1  H  8011  8017       L1    10  0.90

> <Gold.PLP.Chemscore.Internal.Correction>
0.0140

> <Gold.Rescore>
     Score         DG    S(hbond)    S(metal)    S(lipo)     H(rot)  DE(clash)    DE(int)     intcor
      8.70      -9.72       2.20        0.00      40.31       3.06       0.01       1.00       ----

> <Gold.Chemscore.Fitness>
8.7046

> <Gold.Chemscore.DG>
-9.7177

> <Gold.Chemscore.ZeroCoef>
-5.4800

> <Gold.Chemscore.Hbond>
2.2039

> <Gold.Chemscore.Metal>
0.0000

> <Gold.Chemscore.Lipo>
40.3055

> <Gold.Chemscore.Internal_Hbond>
0.0000

> <Gold.Chemscore.DEClash>
0.0098

> <Gold.Chemscore.DEInternal>
1.0034

> <Gold.Chemscore.Rot>
3.0621

> <Gold.Chemscore.Internal.Correction>
   9.000000E+99

> <Gold.Chemscore.Hbonds>
donor molecule, donor type, donor heavy atom, donor atom, acceptor molecule, acceptor atom, score
      L1  H    10    34       P1  7957  0.85
      P1  H  6896  6907       L1     2  0.31
      P1  H  8011  8017       L1    10  0.18

> <Gold.Chemscore.Hbond.Weighted>
-7.3610

> <Gold.Chemscore.Metal.Weighted>
-0.0000

> <Gold.Chemscore.Lipo.Weighted>
-4.7157

> <Gold.Chemscore.Internal_Hbond.Weighted>
0.0000

> <Gold.Chemscore.DEClash.Weighted>
0.0098

> <Gold.Chemscore.DEInternal.Weighted>
1.0034

> <Gold.Chemscore.Rot.Weighted>
7.8390

> <Gold.Chemscore.Internal.Correction.Weighted>
   9.000000E+99

> <Gold.Protein.RotatedTorsions>
[ 6907 6896 6895 6894 ] final  -61.50 input  -60.11 | X-H torsion
[ 7974 7965 7964 7962 ] final -147.09 input  175.53 | X-H torsion
[ 8008 7997 7996 7995 ] final -178.58 input   59.86 | X-H torsion
[ 10167 10162 10161 10158 ] final -175.09 input  -65.29 | X-H torsion
[ 10718 10713 10712 10709 ] final  138.94 input   66.30 | X-H torsion
[ 10763 10752 10751 10750 ] final   24.26 input  -60.55 | X-H torsion
[ 11005 11000 10999 10996 ] final   92.47 input  -57.11 | X-H torsion

> <Gold.Protein.ActiveResidues>
 VAL166  LYS551  ARG553  GLY616  TRP617  ASP618  TYR619  PRO620  LYS621  CYS622 
 ASP623  PHE694  ASN695  SER759  ASP760  ASP761  ALA762  ILE779  LEU786  VAL792 
 PHE793  MET794  SER795  GLU796  ALA797  LYS798  CYS799  TRP800  GLU811  SER814 

> <Gold.Protein.RotatedAtoms>
  150.7781  134.6697  159.6384 H   0  0  0  0  0  0  0  0  0  0  0  0  # atno 6907 bound_to 6896
  152.3857  134.6518  160.0135 H   0  0  0  0  0  0  0  0  0  0  0  0  # atno 6908 bound_to 6896
  151.6834  133.3275  159.3261 H   0  0  0  0  0  0  0  0  0  0  0  0  # atno 6909 bound_to 6896
  144.8116  140.5372  143.5638 H   0  0  0  0  0  0  0  0  0  0  0  0  # atno 7974 bound_to 7965
  156.0205  140.1260  157.0362 H   0  0  0  0  0  0  0  0  0  0  0  0  # atno 8008 bound_to 7997
  154.4310  140.1069  156.6027 H   0  0  0  0  0  0  0  0  0  0  0  0  # atno 8009 bound_to 7997
  155.5951  140.3470  155.4580 H   0  0  0  0  0  0  0  0  0  0  0  0  # atno 8010 bound_to 7997
  139.5599  144.1896  152.1221 H   0  0  0  0  0  0  0  0  0  0  0  0  # atno 10167 bound_to 10162
  157.4198  131.1037  151.0365 H   0  0  0  0  0  0  0  0  0  0  0  0  # atno 10718 bound_to 10713
  153.0777  135.6609  154.0112 H   0  0  0  0  0  0  0  0  0  0  0  0  # atno 10763 bound_to 10752
  153.9741  135.2961  155.3426 H   0  0  0  0  0  0  0  0  0  0  0  0  # atno 10764 bound_to 10752
  154.7169  135.5181  153.8822 H   0  0  0  0  0  0  0  0  0  0  0  0  # atno 10765 bound_to 10752
  139.8823  134.8735  156.3577 H   0  0  0  0  0  0  0  0  0  0  0  0  # atno 11005 bound_to 11000
  145.5310  139.1475  143.3499 LP  0  0  0  0  0  0  0  0  0  0  0  0  # atno 17320 bound_to 7965
  146.2415  140.5451  142.8932 LP  0  0  0  0  0  0  0  0  0  0  0  0  # atno 17321 bound_to 7965
  140.1407  144.5204  150.6746 LP  0  0  0  0  0  0  0  0  0  0  0  0  # atno 17342 bound_to 10162
  140.6877  143.2359  151.5215 LP  0  0  0  0  0  0  0  0  0  0  0  0  # atno 17343 bound_to 10162
  157.1299  130.6098  149.5527 LP  0  0  0  0  0  0  0  0  0  0  0  0  # atno 17370 bound_to 10713
  155.9877  130.4917  150.7137 LP  0  0  0  0  0  0  0  0  0  0  0  0  # atno 17371 bound_to 10713
  140.9550  133.7426  156.0324 LP  0  0  0  0  0  0  0  0  0  0  0  0  # atno 17394 bound_to 11000
  140.8059  134.3455  157.5426 LP  0  0  0  0  0  0  0  0  0  0  0  0  # atno 17395 bound_to 11000

$$$$
