AV-unprocessed.smi:718|AV-procd|sdf|3492|dock3
  -GOLD-   22720 0483D 1   1.00000     0.00000
 Structure written by MMmdl.
 27 28  0  0  0  0  0  0  0  0  1 V2000
  150.9923  143.6587  157.6253 O   0  0  0  0  0  0  0  0  0  0  0  0
  151.1644  142.4507  157.4572 C   0  0  0  0  0  0  0  0  0  0  0  0
  151.6574  141.6170  158.3931 N   0  0  0  0  0  0  0  0  0  0  0  0
  152.0990  141.9266  159.7067 C   0  0  0  0  0  0  0  0  0  0  0  0
  153.2480  141.2232  160.1322 C   0  0  0  0  0  0  0  0  0  0  0  0
  153.7699  141.4589  161.4193 C   0  0  0  0  0  0  0  0  0  0  0  0
  155.1746  140.6041  161.9483 Cl  0  0  0  0  0  0  0  0  0  0  0  0
  153.1253  142.3970  162.2504 C   0  0  0  0  0  0  0  0  0  0  0  0
  153.7008  142.7458  163.8414 Cl  0  0  0  0  0  0  0  0  0  0  0  0
  151.9863  143.0532  161.7478 C   0  0  0  0  0  0  0  0  0  0  0  0
  151.4862  142.8273  160.5148 N   0  0  0  0  0  0  0  0  0  0  0  0
  150.7829  141.7947  156.1222 C   0  0  1  0  0  0  0  0  0  0  0  0
  151.5080  140.4511  155.8755 C   0  0  0  0  0  0  0  0  0  0  0  0
  151.0666  139.8983  154.6422 O   0  0  0  0  0  0  0  0  0  0  0  0
  149.6651  139.6656  154.6511 C   0  0  0  0  0  0  0  0  0  0  0  0
  148.9402  141.0012  154.8835 C   0  0  0  0  0  0  0  0  0  0  0  0
  149.3770  141.5571  156.1164 O   0  0  0  0  0  0  0  0  0  0  0  0
  151.7330  140.6467  158.1248 H   0  0  0  0  0  0  0  0  0  0  0  0
  153.7280  140.5078  159.4800 H   0  0  0  0  0  0  0  0  0  0  0  0
  151.4609  143.7799  162.3500 H   0  0  0  0  0  0  0  0  0  0  0  0
  151.0327  142.4979  155.3257 H   0  0  0  0  0  0  0  0  0  0  0  0
  152.5868  140.6004  155.8176 H   0  0  0  0  0  0  0  0  0  0  0  0
  151.3234  139.7449  156.6872 H   0  0  0  0  0  0  0  0  0  0  0  0
  149.3690  139.2348  153.6944 H   0  0  0  0  0  0  0  0  0  0  0  0
  149.4065  138.9411  155.4248 H   0  0  0  0  0  0  0  0  0  0  0  0
  149.1340  141.6972  154.0659 H   0  0  0  0  0  0  0  0  0  0  0  0
  147.8621  140.8453  154.9253 H   0  0  0  0  0  0  0  0  0  0  0  0
  1  2  2  0  0  0  0
  2  3  1  0  0  0  0
  2 12  1  0  0  0  0
  3  4  1  0  0  0  0
  3 18  1  0  0  0  0
  4 11  1  0  0  0  0
  4  5  2  0  0  0  0
  5  6  1  0  0  0  0
  5 19  1  0  0  0  0
  6  7  1  0  0  0  0
  6  8  2  0  0  0  0
  8  9  1  0  0  0  0
  8 10  1  0  0  0  0
 10 11  2  0  0  0  0
 10 20  1  0  0  0  0
 12 17  1  0  0  0  0
 12 13  1  0  0  0  0
 12 21  1  0  0  0  0
 13 14  1  0  0  0  0
 13 22  1  0  0  0  0
 13 23  1  0  0  0  0
 14 15  1  0  0  0  0
 15 16  1  0  0  0  0
 15 24  1  0  0  0  0
 15 25  1  0  0  0  0
 16 17  1  0  0  0  0
 16 26  1  0  0  0  0
 16 27  1  0  0  0  0
M  END
> <s_m_source_file>
AV-unprocessed.smi

> <i_m_source_file_index>
718

> <i_lp_mmshare_version>
43012

> <i_f3d_flags>
0

> <s_epik_input>
TzFbQ0gyXVtDSDJdT1tDSDJdW0NASF0xQyg9TylbTkhdYzJbY0hdYyhDbCljKENsKVtjSF1uMg==

> <s_epik_cmdline>
J2VwaWtfcHl0aG9uJywgJy1waCcsICc3LjAnLCAnLXRuJywgJzgnLCAnLW1hJywgJzIwMCcsICctbWV0YWxfYmluZGluZycsICctaW1hZScsICc8aW5maWxlLm1hZT4nLCAnLW9tYWUnLCAnPG91dGZpbGUubWFlPic=

> <r_lp_tautomer_probability>
1

> <r_epik_Ionization_Penalty>
4.81693e-06

> <r_epik_Ionization_Penalty_Charging>
0

> <r_epik_Ionization_Penalty_Neutral>
4.81693e-06

> <r_epik_State_Penalty>
-0

> <r_epik_Charging_Adjusted_Penalty>
0

> <i_epik_Tot_Q>
0

> <i_epik_Tot_abs_Q>
0

> <r_epik_Metal_State_Penalty>
-0

> <b_epik_Metal_Only>
0

> <s_lp_Force_Field>
OPLS_2005

> <r_lp_Energy>
11.7042

> <b_lp_Chiralities_Consistent>
1

> <s_lp_Variant>
AV-unprocessed.smi:718-2

> <Gold.Version>
5.8.1

> <Gold.Id.Protein>
6NUR|6NUR_protein|mol2

> <Gold.PLP.Fitness>
41.6954

> <Gold.PLP.PLP>
-40.4984

> <Gold.PLP.part.hbond>
-1.3136

> <Gold.PLP.part.metal>
0.0000

> <Gold.PLP.part.buried>
-5.9843

> <Gold.PLP.part.nonpolar>
-32.7944

> <Gold.PLP.part.repulsive>
1.1332

> <Gold.PLP.ligand.clash>
0.0000

> <Gold.PLP.ligand.torsion>
0.9024

> <Gold.PLP.Chemscore.Hbond>
1.0000

> <Gold.PLP.Chemscore.CHOScore>
0.0000

> <Gold.PLP.Chemscore.Metal>
0.0000

> <Gold.Chemscore.Hbonds>
donor molecule, donor type, donor heavy atom, donor atom, acceptor molecule, acceptor atom, score
      P1  H  7989  7998       L1    14  1.00

> <Gold.PLP.Chemscore.Internal.Correction>
0.0017

> <Gold.Rescore>
     Score         DG    S(hbond)    S(metal)    S(lipo)     H(rot)  DE(clash)    DE(int)     intcor
     14.34     -16.29       0.90        0.00      88.54       1.00       0.09       1.85       ----

> <Gold.Chemscore.Fitness>
14.3448

> <Gold.Chemscore.DG>
-16.2895

> <Gold.Chemscore.ZeroCoef>
-5.4800

> <Gold.Chemscore.Hbond>
0.9014

> <Gold.Chemscore.Metal>
0.0000

> <Gold.Chemscore.Lipo>
88.5361

> <Gold.Chemscore.Internal_Hbond>
0.0000

> <Gold.Chemscore.DEClash>
0.0927

> <Gold.Chemscore.DEInternal>
1.8520

> <Gold.Chemscore.Rot>
1.0000

> <Gold.Chemscore.Internal.Correction>
   9.000000E+99

> <Gold.Chemscore.Hbonds>
donor molecule, donor type, donor heavy atom, donor atom, acceptor molecule, acceptor atom, score
      P1  H  7989  7998       L1    14  0.51

> <Gold.Chemscore.Hbond.Weighted>
-3.0108

> <Gold.Chemscore.Metal.Weighted>
-0.0000

> <Gold.Chemscore.Lipo.Weighted>
-10.3587

> <Gold.Chemscore.Internal_Hbond.Weighted>
0.0000

> <Gold.Chemscore.DEClash.Weighted>
0.0927

> <Gold.Chemscore.DEInternal.Weighted>
1.8520

> <Gold.Chemscore.Rot.Weighted>
2.5600

> <Gold.Chemscore.Internal.Correction.Weighted>
   9.000000E+99

> <Gold.Protein.RotatedTorsions>
[ 6907 6896 6895 6894 ] final -102.57 input  -60.11 | X-H torsion
[ 7974 7965 7964 7962 ] final  -49.86 input  175.53 | X-H torsion
[ 8008 7997 7996 7995 ] final   85.85 input   59.86 | X-H torsion
[ 10167 10162 10161 10158 ] final   62.55 input  -65.29 | X-H torsion
[ 10718 10713 10712 10709 ] final  170.59 input   66.30 | X-H torsion
[ 10763 10752 10751 10750 ] final -128.80 input  -60.55 | X-H torsion
[ 11005 11000 10999 10996 ] final  -45.65 input  -57.11 | X-H torsion

> <Gold.Protein.ActiveResidues>
 VAL166  LYS551  ARG553  GLY616  TRP617  ASP618  TYR619  PRO620  LYS621  CYS622 
 ASP623  PHE694  ASN695  SER759  ASP760  ASP761  ALA762  ILE779  LEU786  VAL792 
 PHE793  MET794  SER795  GLU796  ALA797  LYS798  CYS799  TRP800  GLU811  SER814 

> <Gold.Protein.RotatedAtoms>
  150.7202  134.0561  159.3814 H   0  0  0  0  0  0  0  0  0  0  0  0  # atno 6907 bound_to 6896
  151.8540  135.0545  160.0471 H   0  0  0  0  0  0  0  0  0  0  0  0  # atno 6908 bound_to 6896
  152.2769  133.5398  159.5510 H   0  0  0  0  0  0  0  0  0  0  0  0  # atno 6909 bound_to 6896
  145.9360  140.7706  142.9576 H   0  0  0  0  0  0  0  0  0  0  0  0  # atno 7974 bound_to 7965
  155.9553  140.3398  155.6443 H   0  0  0  0  0  0  0  0  0  0  0  0  # atno 8008 bound_to 7997
  155.6868  140.0744  157.2482 H   0  0  0  0  0  0  0  0  0  0  0  0  # atno 8009 bound_to 7997
  154.4131  140.1664  156.2030 H   0  0  0  0  0  0  0  0  0  0  0  0  # atno 8010 bound_to 7997
  140.1427  144.4538  150.6802 H   0  0  0  0  0  0  0  0  0  0  0  0  # atno 10167 bound_to 10162
  157.0059  131.0190  151.2817 H   0  0  0  0  0  0  0  0  0  0  0  0  # atno 10718 bound_to 10713
  154.8757  135.3916  154.3816 H   0  0  0  0  0  0  0  0  0  0  0  0  # atno 10763 bound_to 10752
  153.4563  135.7029  153.6083 H   0  0  0  0  0  0  0  0  0  0  0  0  # atno 10764 bound_to 10752
  153.4601  135.3814  155.2302 H   0  0  0  0  0  0  0  0  0  0  0  0  # atno 10765 bound_to 10752
  141.0529  133.6736  156.3043 H   0  0  0  0  0  0  0  0  0  0  0  0  # atno 11005 bound_to 11000
  144.6772  140.2203  143.7367 LP  0  0  0  0  0  0  0  0  0  0  0  0  # atno 17320 bound_to 7965
  145.8363  139.2109  143.1853 LP  0  0  0  0  0  0  0  0  0  0  0  0  # atno 17321 bound_to 7965
  140.6750  143.2301  151.5529 LP  0  0  0  0  0  0  0  0  0  0  0  0  # atno 17342 bound_to 10162
  139.5464  144.2510  152.1450 LP  0  0  0  0  0  0  0  0  0  0  0  0  # atno 17343 bound_to 10162
  157.5356  130.8086  149.7968 LP  0  0  0  0  0  0  0  0  0  0  0  0  # atno 17370 bound_to 10713
  156.0154  130.3816  150.2129 LP  0  0  0  0  0  0  0  0  0  0  0  0  # atno 17371 bound_to 10713
  140.6021  134.5544  157.5519 LP  0  0  0  0  0  0  0  0  0  0  0  0  # atno 17394 bound_to 11000
  139.9365  134.7865  156.0789 LP  0  0  0  0  0  0  0  0  0  0  0  0  # atno 17395 bound_to 11000

$$$$
