AV-unprocessed.smi:3143|AV-procd|sdf|11977|dock5
  -GOLD-   2272017373D 1   1.00000     0.00000
 Structure written by MMmdl.
 37 38  0  0  0  0  0  0  0  0  1 V2000
  151.3574  142.0825  157.1438 C   0  0  0  0  0  0  0  0  0  0  0  0
  151.3328  140.7049  157.8237 C   0  0  1  0  0  0  0  0  0  0  0  0
  151.2175  139.6501  156.7993 N   0  0  0  0  0  0  0  0  0  0  0  0
  149.9061  139.6004  156.1618 C   0  0  0  0  0  0  0  0  0  0  0  0
  149.9098  140.5033  154.9199 C   0  0  0  0  0  0  0  0  0  0  0  0
  148.5658  140.7479  154.4336 N   0  0  0  0  0  0  0  0  0  0  0  0
  147.8747  141.9405  154.3873 C   0  0  0  0  0  0  0  0  0  0  0  0
  146.6461  141.6773  153.8529 C   0  0  0  0  0  0  0  0  0  0  0  0
  146.6802  140.2771  153.6008 C   0  0  0  0  0  0  0  0  0  0  0  0
  147.8308  139.7240  153.9489 N   0  0  0  0  0  0  0  0  0  0  0  0
  152.5750  140.5478  158.7304 C   0  0  0  0  0  0  0  0  0  0  0  0
  153.3856  139.6557  158.4739 O   0  0  0  0  0  0  0  0  0  0  0  0
  152.7465  141.3825  159.7790 N   0  0  0  0  0  0  0  0  0  0  0  0
  151.8197  142.4689  160.0935 C   0  0  0  0  0  0  0  0  0  0  0  0
  152.5074  143.3049  161.1724 C   0  0  0  0  0  0  0  0  0  0  0  0
  153.4428  142.3217  161.8606 C   0  0  0  0  0  0  0  0  0  0  0  0
  153.8369  141.3436  160.7535 C   0  0  0  0  0  0  0  0  0  0  0  0
  151.4024  142.8871  157.8790 H   0  0  0  0  0  0  0  0  0  0  0  0
  150.4598  142.2398  156.5451 H   0  0  0  0  0  0  0  0  0  0  0  0
  152.2186  142.1883  156.4824 H   0  0  0  0  0  0  0  0  0  0  0  0
  150.4232  140.6576  158.4206 H   0  0  0  0  0  0  0  0  0  0  0  0
  151.9285  139.7498  156.0893 H   0  0  0  0  0  0  0  0  0  0  0  0
  149.6510  138.5806  155.8719 H   0  0  0  0  0  0  0  0  0  0  0  0
  149.1444  139.9408  156.8649 H   0  0  0  0  0  0  0  0  0  0  0  0
  150.3746  141.4640  155.1465 H   0  0  0  0  0  0  0  0  0  0  0  0
  150.4934  140.0499  154.1168 H   0  0  0  0  0  0  0  0  0  0  0  0
  148.3094  142.8661  154.7350 H   0  0  0  0  0  0  0  0  0  0  0  0
  145.8451  142.3779  153.6699 H   0  0  0  0  0  0  0  0  0  0  0  0
  145.9090  139.6507  153.1772 H   0  0  0  0  0  0  0  0  0  0  0  0
  151.5816  143.0736  159.2167 H   0  0  0  0  0  0  0  0  0  0  0  0
  150.8902  142.0426  160.4738 H   0  0  0  0  0  0  0  0  0  0  0  0
  153.0921  144.0975  160.7037 H   0  0  0  0  0  0  0  0  0  0  0  0
  151.8017  143.7717  161.8602 H   0  0  0  0  0  0  0  0  0  0  0  0
  154.3027  142.8074  162.3226 H   0  0  0  0  0  0  0  0  0  0  0  0
  152.9000  141.7895  162.6429 H   0  0  0  0  0  0  0  0  0  0  0  0
  153.9944  140.3423  161.1570 H   0  0  0  0  0  0  0  0  0  0  0  0
  154.7591  141.6696  160.2701 H   0  0  0  0  0  0  0  0  0  0  0  0
  1  2  1  0  0  0  0
  1 18  1  0  0  0  0
  1 19  1  0  0  0  0
  1 20  1  0  0  0  0
  2  3  1  0  0  0  0
  2 11  1  0  0  0  0
  2 21  1  0  0  0  0
  3  4  1  0  0  0  0
  3 22  1  0  0  0  0
  4  5  1  0  0  0  0
  4 23  1  0  0  0  0
  4 24  1  0  0  0  0
  5  6  1  0  0  0  0
  5 25  1  0  0  0  0
  5 26  1  0  0  0  0
  6 10  1  0  0  0  0
  6  7  1  0  0  0  0
  7  8  2  0  0  0  0
  7 27  1  0  0  0  0
  8  9  1  0  0  0  0
  8 28  1  0  0  0  0
  9 10  2  0  0  0  0
  9 29  1  0  0  0  0
 11 12  2  0  0  0  0
 11 13  1  0  0  0  0
 13 17  1  0  0  0  0
 13 14  1  0  0  0  0
 14 15  1  0  0  0  0
 14 30  1  0  0  0  0
 14 31  1  0  0  0  0
 15 16  1  0  0  0  0
 15 32  1  0  0  0  0
 15 33  1  0  0  0  0
 16 17  1  0  0  0  0
 16 34  1  0  0  0  0
 16 35  1  0  0  0  0
 17 36  1  0  0  0  0
 17 37  1  0  0  0  0
M  END
> <s_m_source_file>
AV-unprocessed.smi

> <i_m_source_file_index>
3143

> <i_lp_mmshare_version>
43012

> <i_f3d_flags>
0

> <s_epik_input>
W0NIMl0xW0NIMl1bQ0gyXVtDSDJdTjFDKD1PKVtDQEhdKFtDSDNdKVtOSF1bQ0gyXVtDSDJdbjJbY0hdW2NIXVtjSF1uMg==

> <s_epik_cmdline>
J2VwaWtfcHl0aG9uJywgJy1waCcsICc3LjAnLCAnLXRuJywgJzgnLCAnLW1hJywgJzIwMCcsICctbWV0YWxfYmluZGluZycsICctaW1hZScsICc8aW5maWxlLm1hZT4nLCAnLW9tYWUnLCAnPG91dGZpbGUubWFlPic=

> <r_lp_tautomer_probability>
1

> <r_epik_Ionization_Penalty>
0.733724

> <r_epik_Ionization_Penalty_Charging>
0

> <r_epik_Ionization_Penalty_Neutral>
0.733724

> <r_epik_State_Penalty>
0.75825

> <r_epik_Charging_Adjusted_Penalty>
0.75825

> <i_epik_Tot_Q>
0

> <i_epik_Tot_abs_Q>
0

> <r_epik_Metal_State_Penalty>
0.757598

> <b_epik_Metal_Only>
0

> <s_lp_Force_Field>
OPLS_2005

> <r_lp_Energy>
31.5048

> <b_lp_Chiralities_Consistent>
1

> <s_lp_Variant>
AV-unprocessed.smi:3143-4

> <Gold.Version>
5.8.1

> <Gold.Id.Protein>
6NUR|6NUR_protein|mol2

> <Gold.PLP.Fitness>
43.3856

> <Gold.PLP.PLP>
-35.3706

> <Gold.PLP.part.hbond>
-1.0000

> <Gold.PLP.part.metal>
0.0000

> <Gold.PLP.part.buried>
-2.0218

> <Gold.PLP.part.nonpolar>
-32.6151

> <Gold.PLP.part.repulsive>
0.1651

> <Gold.PLP.ligand.clash>
0.0000

> <Gold.PLP.ligand.torsion>
0.3789

> <Gold.PLP.Chemscore.Hbond>
1.0000

> <Gold.PLP.Chemscore.CHOScore>
1.9089

> <Gold.PLP.Chemscore.Metal>
0.0000

> <Gold.Chemscore.Hbonds>
donor molecule, donor type, donor heavy atom, donor atom, acceptor molecule, acceptor atom, score
      P1  H  7997  8008       L1    12  1.00
      L1  C     7    27       P1  8028  1.00
      L1  C     9    29       P1 10175  0.88

> <Gold.PLP.Chemscore.Internal.Correction>
0.0460

> <Gold.Rescore>
     Score         DG    S(hbond)    S(metal)    S(lipo)     H(rot)  DE(clash)    DE(int)     intcor
     13.88     -14.63       0.99        0.00      88.85       1.77       0.16       0.59       ----

> <Gold.Chemscore.Fitness>
13.8787

> <Gold.Chemscore.DG>
-14.6299

> <Gold.Chemscore.ZeroCoef>
-5.4800

> <Gold.Chemscore.Hbond>
0.9859

> <Gold.Chemscore.Metal>
0.0000

> <Gold.Chemscore.Lipo>
88.8464

> <Gold.Chemscore.Internal_Hbond>
0.0000

> <Gold.Chemscore.DEClash>
0.1623

> <Gold.Chemscore.DEInternal>
0.5890

> <Gold.Chemscore.Rot>
1.7726

> <Gold.Chemscore.Internal.Correction>
   9.000000E+99

> <Gold.Chemscore.Hbonds>
donor molecule, donor type, donor heavy atom, donor atom, acceptor molecule, acceptor atom, score
      P1  H  7997  8008       L1    12  0.94

> <Gold.Chemscore.Hbond.Weighted>
-3.2927

> <Gold.Chemscore.Metal.Weighted>
-0.0000

> <Gold.Chemscore.Lipo.Weighted>
-10.3950

> <Gold.Chemscore.Internal_Hbond.Weighted>
0.0000

> <Gold.Chemscore.DEClash.Weighted>
0.1623

> <Gold.Chemscore.DEInternal.Weighted>
0.5890

> <Gold.Chemscore.Rot.Weighted>
4.5378

> <Gold.Chemscore.Internal.Correction.Weighted>
   9.000000E+99

> <Gold.Protein.RotatedTorsions>
[ 6907 6896 6895 6894 ] final  155.05 input  -60.11 | X-H torsion
[ 7974 7965 7964 7962 ] final   76.33 input  175.53 | X-H torsion
[ 8008 7997 7996 7995 ] final  -95.30 input   59.86 | X-H torsion
[ 10167 10162 10161 10158 ] final  -10.34 input  -65.29 | X-H torsion
[ 10718 10713 10712 10709 ] final   77.33 input   66.30 | X-H torsion
[ 10763 10752 10751 10750 ] final  -72.72 input  -60.55 | X-H torsion
[ 11005 11000 10999 10996 ] final  104.87 input  -57.11 | X-H torsion

> <Gold.Protein.ActiveResidues>
 VAL166  LYS551  ARG553  GLY616  TRP617  ASP618  TYR619  PRO620  LYS621  CYS622 
 ASP623  PHE694  ASN695  SER759  ASP760  ASP761  ALA762  ILE779  LEU786  VAL792 
 PHE793  MET794  SER795  GLU796  ALA797  LYS798  CYS799  TRP800  GLU811  SER814 

> <Gold.Protein.RotatedAtoms>
  152.0497  133.4014  159.4371 H   0  0  0  0  0  0  0  0  0  0  0  0  # atno 6907 bound_to 6896
  150.6871  134.3321  159.4841 H   0  0  0  0  0  0  0  0  0  0  0  0  # atno 6908 bound_to 6896
  152.1130  134.9260  160.0616 H   0  0  0  0  0  0  0  0  0  0  0  0  # atno 6909 bound_to 6896
  145.7042  139.2593  143.1688 H   0  0  0  0  0  0  0  0  0  0  0  0  # atno 7974 bound_to 7965
  154.7596  140.0481  157.0962 H   0  0  0  0  0  0  0  0  0  0  0  0  # atno 8008 bound_to 7997
  154.9955  140.3118  155.4869 H   0  0  0  0  0  0  0  0  0  0  0  0  # atno 8009 bound_to 7997
  156.2901  140.2211  156.5062 H   0  0  0  0  0  0  0  0  0  0  0  0  # atno 8010 bound_to 7997
  140.7111  143.5758  150.9044 H   0  0  0  0  0  0  0  0  0  0  0  0  # atno 10167 bound_to 10162
  157.6706  130.9816  150.1625 H   0  0  0  0  0  0  0  0  0  0  0  0  # atno 10718 bound_to 10713
  154.4495  135.5921  153.6182 H   0  0  0  0  0  0  0  0  0  0  0  0  # atno 10763 bound_to 10752
  152.9812  135.6017  154.3622 H   0  0  0  0  0  0  0  0  0  0  0  0  # atno 10764 bound_to 10752
  154.3482  135.2841  155.2365 H   0  0  0  0  0  0  0  0  0  0  0  0  # atno 10765 bound_to 10752
  139.8796  134.9316  156.5427 H   0  0  0  0  0  0  0  0  0  0  0  0  # atno 11005 bound_to 11000
  146.0771  140.7806  142.9660 LP  0  0  0  0  0  0  0  0  0  0  0  0  # atno 17320 bound_to 7965
  144.6960  140.3431  143.7195 LP  0  0  0  0  0  0  0  0  0  0  0  0  # atno 17321 bound_to 7965
  139.9484  143.6300  152.3035 LP  0  0  0  0  0  0  0  0  0  0  0  0  # atno 17342 bound_to 10162
  139.6810  144.7655  151.1609 LP  0  0  0  0  0  0  0  0  0  0  0  0  # atno 17343 bound_to 10162
  156.2398  130.3690  149.8350 LP  0  0  0  0  0  0  0  0  0  0  0  0  # atno 17370 bound_to 10713
  156.6153  130.8604  151.3463 LP  0  0  0  0  0  0  0  0  0  0  0  0  # atno 17371 bound_to 10713
  140.8298  133.8287  155.8974 LP  0  0  0  0  0  0  0  0  0  0  0  0  # atno 17394 bound_to 11000
  140.9339  134.1987  157.4845 LP  0  0  0  0  0  0  0  0  0  0  0  0  # atno 17395 bound_to 11000

$$$$
