AV-unprocessed.smi:1725|AV-procd|sdf|6954|dock3
  -GOLD-   22720 8163D 1   1.00000     0.00000
 Structure written by MMmdl.
 36 37  0  0  0  0  0  0  0  0  1 V2000
  152.3553  140.4911  157.9458 C   0  0  0  0  0  0  0  0  0  0  0  0
  151.4304  141.4407  158.7219 C   0  0  1  0  0  0  0  0  0  0  0  0
  152.1630  142.6354  158.9777 O   0  0  0  0  0  0  0  0  0  0  0  0
  153.2271  142.5143  159.9165 C   0  0  0  0  0  0  0  0  0  0  0  0
  152.6954  142.2485  161.3130 C   0  0  0  0  0  0  0  0  0  0  0  0
  152.5616  143.3715  162.3208 C   0  0  0  0  0  0  0  0  0  0  0  0
  153.6074  142.3082  162.5215 C   0  0  0  0  0  0  0  0  0  0  0  0
  150.1537  141.7578  157.9258 C   0  0  0  0  0  0  0  0  0  0  0  0
  149.2721  142.4419  158.4449 O   0  0  0  0  0  0  0  0  0  0  0  0
  150.1072  141.2433  156.6808 N   0  0  0  0  0  0  0  0  0  0  0  0
  149.0861  141.3147  155.7178 C   0  0  0  0  0  0  0  0  0  0  0  0
  147.8814  141.9168  155.9001 C   0  0  0  0  0  0  0  0  0  0  0  0
  146.8678  141.9469  154.8590 C   0  0  0  0  0  0  0  0  0  0  0  0
  145.5041  142.5769  155.0966 C   0  0  0  0  0  0  0  0  0  0  0  0
  144.5694  141.6287  155.1411 F   0  0  0  0  0  0  0  0  0  0  0  0
  145.4721  143.2469  156.2493 F   0  0  0  0  0  0  0  0  0  0  0  0
  145.1911  143.4212  154.1134 F   0  0  0  0  0  0  0  0  0  0  0  0
  147.1711  141.3196  153.7076 C   0  0  0  0  0  0  0  0  0  0  0  0
  148.4066  140.6990  153.5112 N   0  0  0  0  0  0  0  0  0  0  0  0
  149.3879  140.6487  154.4397 C   0  0  0  0  0  0  0  0  0  0  0  0
  150.4476  140.0739  154.1923 O   0  0  0  0  0  0  0  0  0  0  0  0
  148.5620  140.2588  152.6158 H   0  0  0  0  0  0  0  0  0  0  0  0
  151.8480  139.5580  157.6982 H   0  0  0  0  0  0  0  0  0  0  0  0
  153.2349  140.2400  158.5389 H   0  0  0  0  0  0  0  0  0  0  0  0
  152.7054  140.9410  157.0159 H   0  0  0  0  0  0  0  0  0  0  0  0
  151.1708  140.9645  159.6696 H   0  0  0  0  0  0  0  0  0  0  0  0
  153.8999  141.7001  159.6460 H   0  0  0  0  0  0  0  0  0  0  0  0
  153.8131  143.4339  159.9373 H   0  0  0  0  0  0  0  0  0  0  0  0
  151.9167  141.4889  161.3441 H   0  0  0  0  0  0  0  0  0  0  0  0
  152.9038  144.3635  162.0318 H   0  0  0  0  0  0  0  0  0  0  0  0
  151.6953  143.3537  162.9787 H   0  0  0  0  0  0  0  0  0  0  0  0
  153.4376  141.5817  163.3135 H   0  0  0  0  0  0  0  0  0  0  0  0
  154.6468  142.5913  162.3674 H   0  0  0  0  0  0  0  0  0  0  0  0
  150.9352  140.7526  156.3746 H   0  0  0  0  0  0  0  0  0  0  0  0
  147.6289  142.3880  156.8354 H   0  0  0  0  0  0  0  0  0  0  0  0
  146.5028  141.2405  152.8628 H   0  0  0  0  0  0  0  0  0  0  0  0
  1  2  1  0  0  0  0
  1 23  1  0  0  0  0
  1 24  1  0  0  0  0
  1 25  1  0  0  0  0
  2  3  1  0  0  0  0
  2  8  1  0  0  0  0
  2 26  1  0  0  0  0
  3  4  1  0  0  0  0
  4  5  1  0  0  0  0
  4 27  1  0  0  0  0
  4 28  1  0  0  0  0
  5  7  1  0  0  0  0
  5  6  1  0  0  0  0
  5 29  1  0  0  0  0
  6  7  1  0  0  0  0
  6 30  1  0  0  0  0
  6 31  1  0  0  0  0
  7 32  1  0  0  0  0
  7 33  1  0  0  0  0
  8  9  2  0  0  0  0
  8 10  1  0  0  0  0
 10 11  1  0  0  0  0
 10 34  1  0  0  0  0
 11 20  1  0  0  0  0
 11 12  2  0  0  0  0
 12 13  1  0  0  0  0
 12 35  1  0  0  0  0
 13 14  1  0  0  0  0
 13 18  2  0  0  0  0
 14 15  1  0  0  0  0
 14 16  1  0  0  0  0
 14 17  1  0  0  0  0
 18 19  1  0  0  0  0
 18 36  1  0  0  0  0
 19 22  1  0  0  0  0
 19 20  1  0  0  0  0
 20 21  2  0  0  0  0
M  END
> <s_m_source_file>
AV-unprocessed.smi

> <i_m_source_file_index>
1725

> <i_lp_mmshare_version>
43012

> <i_f3d_flags>
0

> <s_epik_input>
W0NIMl0xW0NIMl1bQ0hdMVtDSDJdT1tDQEBIXShbQ0gzXSlDKD1PKVtOSF1jMltjSF1jKEMoRikoRilGKVtjSF1bbkhdYzI9Tw==

> <s_epik_cmdline>
J2VwaWtfcHl0aG9uJywgJy1waCcsICc3LjAnLCAnLXRuJywgJzgnLCAnLW1hJywgJzIwMCcsICctbWV0YWxfYmluZGluZycsICctaW1hZScsICc8aW5maWxlLm1hZT4nLCAnLW9tYWUnLCAnPG91dGZpbGUubWFlPic=

> <r_lp_tautomer_probability>
0.999

> <r_epik_Ionization_Penalty>
0.00763408

> <r_epik_Ionization_Penalty_Charging>
0.00763398

> <r_epik_Ionization_Penalty_Neutral>
9.25705e-08

> <r_epik_State_Penalty>
0.00571302

> <r_epik_Charging_Adjusted_Penalty>
0.013347

> <i_epik_Tot_Q>
0

> <i_epik_Tot_abs_Q>
0

> <r_epik_Metal_State_Penalty>
0.392814

> <b_epik_Metal_Only>
0

> <s_lp_Force_Field>
OPLS_2005

> <r_lp_Energy>
26.7151

> <b_lp_Chiralities_Consistent>
1

> <s_lp_Variant>
AV-unprocessed.smi:1725-2

> <Gold.Version>
5.8.1

> <Gold.Id.Protein>
6NUR|6NUR_protein|mol2

> <Gold.PLP.Fitness>
44.4871

> <Gold.PLP.PLP>
-41.5077

> <Gold.PLP.part.hbond>
-2.0000

> <Gold.PLP.part.metal>
0.0000

> <Gold.PLP.part.buried>
-3.4703

> <Gold.PLP.part.nonpolar>
-35.2049

> <Gold.PLP.part.repulsive>
0.4517

> <Gold.PLP.ligand.clash>
2.2650

> <Gold.PLP.ligand.torsion>
0.6173

> <Gold.PLP.Chemscore.Hbond>
1.9600

> <Gold.PLP.Chemscore.CHOScore>
0.0000

> <Gold.PLP.Chemscore.Metal>
0.0000

> <Gold.Chemscore.Hbonds>
donor molecule, donor type, donor heavy atom, donor atom, acceptor molecule, acceptor atom, score
      L1  H    19    22       P1  7957  0.99
      P1  H  7989  7998       L1    21  1.00

> <Gold.PLP.Chemscore.Internal.Correction>
0.5989

> <Gold.Rescore>
     Score         DG    S(hbond)    S(metal)    S(lipo)     H(rot)  DE(clash)    DE(int)     intcor
     14.56     -17.51       1.91        0.00      87.60       1.79       1.35       1.60       ----

> <Gold.Chemscore.Fitness>
14.5587

> <Gold.Chemscore.DG>
-17.5103

> <Gold.Chemscore.ZeroCoef>
-5.4800

> <Gold.Chemscore.Hbond>
1.9083

> <Gold.Chemscore.Metal>
0.0000

> <Gold.Chemscore.Lipo>
87.5951

> <Gold.Chemscore.Internal_Hbond>
0.0000

> <Gold.Chemscore.DEClash>
1.3473

> <Gold.Chemscore.DEInternal>
1.6043

> <Gold.Chemscore.Rot>
1.7938

> <Gold.Chemscore.Internal.Correction>
   9.000000E+99

> <Gold.Chemscore.Hbonds>
donor molecule, donor type, donor heavy atom, donor atom, acceptor molecule, acceptor atom, score
      L1  H    19    22       P1  7957  0.93
      P1  H  7989  7998       L1    21  0.94

> <Gold.Chemscore.Hbond.Weighted>
-6.3739

> <Gold.Chemscore.Metal.Weighted>
-0.0000

> <Gold.Chemscore.Lipo.Weighted>
-10.2486

> <Gold.Chemscore.Internal_Hbond.Weighted>
0.0000

> <Gold.Chemscore.DEClash.Weighted>
1.3473

> <Gold.Chemscore.DEInternal.Weighted>
1.6043

> <Gold.Chemscore.Rot.Weighted>
4.5922

> <Gold.Chemscore.Internal.Correction.Weighted>
   9.000000E+99

> <Gold.Protein.RotatedTorsions>
[ 6907 6896 6895 6894 ] final   92.18 input  -60.11 | X-H torsion
[ 7974 7965 7964 7962 ] final  171.53 input  175.53 | X-H torsion
[ 8008 7997 7996 7995 ] final   21.01 input   59.86 | X-H torsion
[ 10167 10162 10161 10158 ] final  -59.94 input  -65.29 | X-H torsion
[ 10718 10713 10712 10709 ] final -119.15 input   66.30 | X-H torsion
[ 10763 10752 10751 10750 ] final  168.32 input  -60.55 | X-H torsion
[ 11005 11000 10999 10996 ] final -106.64 input  -57.11 | X-H torsion

> <Gold.Protein.ActiveResidues>
 VAL166  LYS551  ARG553  GLY616  TRP617  ASP618  TYR619  PRO620  LYS621  CYS622 
 ASP623  PHE694  ASN695  SER759  ASP760  ASP761  ALA762  ILE779  LEU786  VAL792 
 PHE793  MET794  SER795  GLU796  ALA797  LYS798  CYS799  TRP800  GLU811  SER814 

> <Gold.Protein.RotatedAtoms>
  152.5452  134.1542  159.8530 H   0  0  0  0  0  0  0  0  0  0  0  0  # atno 6907 bound_to 6896
  151.1566  133.4865  159.2602 H   0  0  0  0  0  0  0  0  0  0  0  0  # atno 6908 bound_to 6896
  151.1416  135.0193  159.8683 H   0  0  0  0  0  0  0  0  0  0  0  0  # atno 6909 bound_to 6896
  144.7292  139.9364  143.6427 H   0  0  0  0  0  0  0  0  0  0  0  0  # atno 7974 bound_to 7965
  154.9442  140.3057  155.5106 H   0  0  0  0  0  0  0  0  0  0  0  0  # atno 8008 bound_to 7997
  156.2993  140.2331  156.4451 H   0  0  0  0  0  0  0  0  0  0  0  0  # atno 8009 bound_to 7997
  154.8116  140.0428  157.1335 H   0  0  0  0  0  0  0  0  0  0  0  0  # atno 8010 bound_to 7997
  140.6103  143.2385  151.5725 H   0  0  0  0  0  0  0  0  0  0  0  0  # atno 10167 bound_to 10162
  156.1160  130.6286  150.9381 H   0  0  0  0  0  0  0  0  0  0  0  0  # atno 10718 bound_to 10713
  154.3668  135.2753  155.2289 H   0  0  0  0  0  0  0  0  0  0  0  0  # atno 10763 bound_to 10752
  154.4454  135.5944  153.6160 H   0  0  0  0  0  0  0  0  0  0  0  0  # atno 10764 bound_to 10752
  152.9840  135.6029  154.3894 H   0  0  0  0  0  0  0  0  0  0  0  0  # atno 10765 bound_to 10752
  141.0995  133.8911  157.1880 H   0  0  0  0  0  0  0  0  0  0  0  0  # atno 11005 bound_to 11000
  146.0818  139.3806  143.0459 LP  0  0  0  0  0  0  0  0  0  0  0  0  # atno 17320 bound_to 7965
  145.7830  140.9848  143.1089 LP  0  0  0  0  0  0  0  0  0  0  0  0  # atno 17321 bound_to 7965
  139.5356  144.2790  152.1244 LP  0  0  0  0  0  0  0  0  0  0  0  0  # atno 17342 bound_to 10162
  140.1988  144.4678  150.6441 LP  0  0  0  0  0  0  0  0  0  0  0  0  # atno 17343 bound_to 10162
  157.6343  131.0918  150.8380 LP  0  0  0  0  0  0  0  0  0  0  0  0  # atno 17370 bound_to 10713
  156.8484  130.5072  149.5314 LP  0  0  0  0  0  0  0  0  0  0  0  0  # atno 17371 bound_to 10713
  139.9841  135.0088  156.9821 LP  0  0  0  0  0  0  0  0  0  0  0  0  # atno 17394 bound_to 11000
  140.5058  134.1051  155.7260 LP  0  0  0  0  0  0  0  0  0  0  0  0  # atno 17395 bound_to 11000

$$$$
