AV-unprocessed.smi:943|AV-procd|sdf|4229|dock1
  -GOLD-   22720 2133D 1   1.00000     0.00000
 Structure written by MMmdl.
 43 44  0  0  0  0  0  0  0  0  1 V2000
  150.2896  140.4842  158.2241 C   0  0  0  0  0  0  0  0  0  0  0  0
  151.1105  141.2735  157.1897 C   0  0  2  0  0  0  0  0  0  0  0  0
  150.9960  142.7963  157.4413 C   0  0  0  0  0  0  0  0  0  0  0  0
  151.8414  143.3683  158.6059 C   0  0  0  0  0  0  0  0  0  0  0  0
  152.1750  142.3081  159.6795 C   0  0  0  0  0  0  0  0  0  0  0  0
  152.9705  142.9086  160.8498 C   0  0  0  0  0  0  0  0  0  0  0  0
  152.2348  144.1000  161.4778 C   0  0  0  0  0  0  0  0  0  0  0  0
  151.9201  145.1661  160.4191 C   0  0  0  0  0  0  0  0  0  0  0  0
  151.1177  144.5684  159.2526 C   0  0  0  0  0  0  0  0  0  0  0  0
  150.6756  140.8920  155.7675 C   0  0  0  0  0  0  0  0  0  0  0  0
  151.4065  140.2015  155.0566 O   0  0  0  0  0  0  0  0  0  0  0  0
  149.4751  141.3375  155.3725 N   0  0  0  0  0  0  0  0  0  0  0  0
  148.8655  141.0384  154.0834 C   0  0  0  0  0  0  0  0  0  0  0  0
  147.4141  140.5575  154.2449 C   0  0  0  0  0  0  0  0  0  0  0  0
  146.4506  141.6666  154.5550 C   0  0  0  0  0  0  0  0  0  0  0  0
  146.2040  142.7817  153.7897 C   0  0  0  0  0  0  0  0  0  0  0  0
  145.0070  143.8217  154.5135 S   0  0  0  0  0  0  0  0  0  0  0  0
  144.8928  142.6834  155.8449 C   0  0  0  0  0  0  0  0  0  0  0  0
  145.6941  141.6239  155.7311 N   0  0  0  0  0  0  0  0  0  0  0  0
  150.3524  139.4097  158.0461 H   0  0  0  0  0  0  0  0  0  0  0  0
  149.2355  140.7645  158.2004 H   0  0  0  0  0  0  0  0  0  0  0  0
  150.6564  140.6675  159.2343 H   0  0  0  0  0  0  0  0  0  0  0  0
  152.1518  140.9772  157.3221 H   0  0  0  0  0  0  0  0  0  0  0  0
  151.2644  143.3219  156.5234 H   0  0  0  0  0  0  0  0  0  0  0  0
  149.9481  143.0419  157.6190 H   0  0  0  0  0  0  0  0  0  0  0  0
  152.7826  143.7443  158.2026 H   0  0  0  0  0  0  0  0  0  0  0  0
  151.2538  141.8613  160.0558 H   0  0  0  0  0  0  0  0  0  0  0  0
  152.7586  141.4965  159.2453 H   0  0  0  0  0  0  0  0  0  0  0  0
  153.1524  142.1444  161.6058 H   0  0  0  0  0  0  0  0  0  0  0  0
  153.9491  143.2330  160.4949 H   0  0  0  0  0  0  0  0  0  0  0  0
  151.3088  143.7572  161.9410 H   0  0  0  0  0  0  0  0  0  0  0  0
  152.8395  144.5329  162.2751 H   0  0  0  0  0  0  0  0  0  0  0  0
  151.3620  145.9858  160.8722 H   0  0  0  0  0  0  0  0  0  0  0  0
  152.8500  145.5950  160.0431 H   0  0  0  0  0  0  0  0  0  0  0  0
  150.9385  145.3420  158.5050 H   0  0  0  0  0  0  0  0  0  0  0  0
  150.1364  144.2564  159.6124 H   0  0  0  0  0  0  0  0  0  0  0  0
  148.9359  141.8953  156.0185 H   0  0  0  0  0  0  0  0  0  0  0  0
  148.8960  141.9259  153.4499 H   0  0  0  0  0  0  0  0  0  0  0  0
  149.4535  140.2676  153.5822 H   0  0  0  0  0  0  0  0  0  0  0  0
  147.1061  140.0478  153.3312 H   0  0  0  0  0  0  0  0  0  0  0  0
  147.3747  139.8009  155.0295 H   0  0  0  0  0  0  0  0  0  0  0  0
  146.6524  143.0528  152.8456 H   0  0  0  0  0  0  0  0  0  0  0  0
  144.2447  142.7946  156.7015 H   0  0  0  0  0  0  0  0  0  0  0  0
  1  2  1  0  0  0  0
  1 20  1  0  0  0  0
  1 21  1  0  0  0  0
  1 22  1  0  0  0  0
  2  3  1  0  0  0  0
  2 10  1  0  0  0  0
  2 23  1  0  0  0  0
  3  4  1  0  0  0  0
  3 24  1  0  0  0  0
  3 25  1  0  0  0  0
  4  9  1  0  0  0  0
  4  5  1  0  0  0  0
  4 26  1  0  0  0  0
  5  6  1  0  0  0  0
  5 27  1  0  0  0  0
  5 28  1  0  0  0  0
  6  7  1  0  0  0  0
  6 29  1  0  0  0  0
  6 30  1  0  0  0  0
  7  8  1  0  0  0  0
  7 31  1  0  0  0  0
  7 32  1  0  0  0  0
  8  9  1  0  0  0  0
  8 33  1  0  0  0  0
  8 34  1  0  0  0  0
  9 35  1  0  0  0  0
  9 36  1  0  0  0  0
 10 11  2  0  0  0  0
 10 12  1  0  0  0  0
 12 13  1  0  0  0  0
 12 37  1  0  0  0  0
 13 14  1  0  0  0  0
 13 38  1  0  0  0  0
 13 39  1  0  0  0  0
 14 15  1  0  0  0  0
 14 40  1  0  0  0  0
 14 41  1  0  0  0  0
 15 19  1  0  0  0  0
 15 16  2  0  0  0  0
 16 17  1  0  0  0  0
 16 42  1  0  0  0  0
 17 18  1  0  0  0  0
 18 19  2  0  0  0  0
 18 43  1  0  0  0  0
M  END
> <s_m_source_file>
AV-unprocessed.smi

> <i_m_source_file_index>
943

> <i_lp_mmshare_version>
43012

> <i_f3d_flags>
0

> <s_epik_input>
W0NIMl0xW0NIMl1bQ0gyXVtDSDJdW0NIMl1bQ0hdMVtDSDJdW0NAQEhdKFtDSDNdKUMoPU8pW05IXVtDSDJdW0NIMl1jMltjSF1zW2NIXW4y

> <s_epik_cmdline>
J2VwaWtfcHl0aG9uJywgJy1waCcsICc3LjAnLCAnLXRuJywgJzgnLCAnLW1hJywgJzIwMCcsICctbWV0YWxfYmluZGluZycsICctaW1hZScsICc8aW5maWxlLm1hZT4nLCAnLW9tYWUnLCAnPG91dGZpbGUubWFlPic=

> <r_lp_tautomer_probability>
1

> <r_epik_Ionization_Penalty>
0.000194757

> <r_epik_Ionization_Penalty_Charging>
0

> <r_epik_Ionization_Penalty_Neutral>
0.000194757

> <r_epik_State_Penalty>
-0

> <r_epik_Charging_Adjusted_Penalty>
0

> <i_epik_Tot_Q>
0

> <i_epik_Tot_abs_Q>
0

> <r_epik_Metal_State_Penalty>
-0

> <b_epik_Metal_Only>
0

> <s_lp_Force_Field>
OPLS_2005

> <r_lp_Energy>
6.00362

> <b_lp_Chiralities_Consistent>
1

> <s_lp_Variant>
AV-unprocessed.smi:943-1

> <Gold.Version>
5.8.1

> <Gold.Id.Protein>
6NUR|6NUR_protein|mol2

> <Gold.PLP.Fitness>
48.6023

> <Gold.PLP.PLP>
-47.3086

> <Gold.PLP.part.hbond>
-1.0000

> <Gold.PLP.part.metal>
0.0000

> <Gold.PLP.part.buried>
-6.7299

> <Gold.PLP.part.nonpolar>
-40.1212

> <Gold.PLP.part.repulsive>
0.2671

> <Gold.PLP.ligand.clash>
0.0014

> <Gold.PLP.ligand.torsion>
0.9308

> <Gold.PLP.Chemscore.Hbond>
1.0000

> <Gold.PLP.Chemscore.CHOScore>
0.0000

> <Gold.PLP.Chemscore.Metal>
0.0000

> <Gold.Chemscore.Hbonds>
donor molecule, donor type, donor heavy atom, donor atom, acceptor molecule, acceptor atom, score
      P1  H  7989  7998       L1    11  1.00

> <Gold.PLP.Chemscore.Internal.Correction>
0.1565

> <Gold.Rescore>
     Score         DG    S(hbond)    S(metal)    S(lipo)     H(rot)  DE(clash)    DE(int)     intcor
     16.82     -18.89       0.92        0.00     122.89       1.58       0.09       1.98       ----

> <Gold.Chemscore.Fitness>
16.8198

> <Gold.Chemscore.DG>
-18.8853

> <Gold.Chemscore.ZeroCoef>
-5.4800

> <Gold.Chemscore.Hbond>
0.9190

> <Gold.Chemscore.Metal>
0.0000

> <Gold.Chemscore.Lipo>
122.8851

> <Gold.Chemscore.Internal_Hbond>
0.0000

> <Gold.Chemscore.DEClash>
0.0896

> <Gold.Chemscore.DEInternal>
1.9759

> <Gold.Chemscore.Rot>
1.5789

> <Gold.Chemscore.Internal.Correction>
   9.000000E+99

> <Gold.Chemscore.Hbonds>
donor molecule, donor type, donor heavy atom, donor atom, acceptor molecule, acceptor atom, score
      P1  H  7989  7998       L1    11  0.83

> <Gold.Chemscore.Hbond.Weighted>
-3.0696

> <Gold.Chemscore.Metal.Weighted>
-0.0000

> <Gold.Chemscore.Lipo.Weighted>
-14.3776

> <Gold.Chemscore.Internal_Hbond.Weighted>
0.0000

> <Gold.Chemscore.DEClash.Weighted>
0.0896

> <Gold.Chemscore.DEInternal.Weighted>
1.9759

> <Gold.Chemscore.Rot.Weighted>
4.0419

> <Gold.Chemscore.Internal.Correction.Weighted>
   9.000000E+99

> <Gold.Protein.RotatedTorsions>
[ 6907 6896 6895 6894 ] final  -24.92 input  -60.11 | X-H torsion
[ 7974 7965 7964 7962 ] final  -77.40 input  175.53 | X-H torsion
[ 8008 7997 7996 7995 ] final    8.29 input   59.86 | X-H torsion
[ 10167 10162 10161 10158 ] final  140.60 input  -65.29 | X-H torsion
[ 10718 10713 10712 10709 ] final  148.23 input   66.30 | X-H torsion
[ 10763 10752 10751 10750 ] final   84.42 input  -60.55 | X-H torsion
[ 11005 11000 10999 10996 ] final    0.45 input  -57.11 | X-H torsion

> <Gold.Protein.ActiveResidues>
 VAL166  LYS551  ARG553  GLY616  TRP617  ASP618  TYR619  PRO620  LYS621  CYS622 
 ASP623  PHE694  ASN695  SER759  ASP760  ASP761  ALA762  ILE779  LEU786  VAL792 
 PHE793  MET794  SER795  GLU796  ALA797  LYS798  CYS799  TRP800  GLU811  SER814 

> <Gold.Protein.RotatedAtoms>
  151.1827  135.0368  159.8798 H   0  0  0  0  0  0  0  0  0  0  0  0  # atno 6907 bound_to 6896
  152.5444  134.1045  159.8342 H   0  0  0  0  0  0  0  0  0  0  0  0  # atno 6908 bound_to 6896
  151.1164  133.5089  159.2636 H   0  0  0  0  0  0  0  0  0  0  0  0  # atno 6909 bound_to 6896
  145.6002  140.9410  143.1245 H   0  0  0  0  0  0  0  0  0  0  0  0  # atno 7974 bound_to 7965
  154.7649  140.2791  155.6184 H   0  0  0  0  0  0  0  0  0  0  0  0  # atno 8008 bound_to 7997
  156.2923  140.2652  156.2364 H   0  0  0  0  0  0  0  0  0  0  0  0  # atno 8009 bound_to 7997
  154.9971  140.0373  157.2334 H   0  0  0  0  0  0  0  0  0  0  0  0  # atno 8010 bound_to 7997
  139.5044  144.6224  151.6019 H   0  0  0  0  0  0  0  0  0  0  0  0  # atno 10167 bound_to 10162
  157.3112  131.0888  151.1314 H   0  0  0  0  0  0  0  0  0  0  0  0  # atno 10718 bound_to 10713
  153.1380  135.4655  154.9453 H   0  0  0  0  0  0  0  0  0  0  0  0  # atno 10763 bound_to 10752
  154.7723  135.3162  154.8167 H   0  0  0  0  0  0  0  0  0  0  0  0  # atno 10764 bound_to 10752
  153.8695  135.6905  153.4829 H   0  0  0  0  0  0  0  0  0  0  0  0  # atno 10765 bound_to 10752
  140.6265  133.9614  155.8251 H   0  0  0  0  0  0  0  0  0  0  0  0  # atno 11005 bound_to 11000
  144.7313  139.7717  143.7346 LP  0  0  0  0  0  0  0  0  0  0  0  0  # atno 17320 bound_to 7965
  146.1582  139.4687  143.0005 LP  0  0  0  0  0  0  0  0  0  0  0  0  # atno 17321 bound_to 7965
  140.5930  143.9745  150.6337 LP  0  0  0  0  0  0  0  0  0  0  0  0  # atno 17342 bound_to 10162
  140.2932  143.3310  152.1042 LP  0  0  0  0  0  0  0  0  0  0  0  0  # atno 17343 bound_to 10162
  157.2635  130.6670  149.5986 LP  0  0  0  0  0  0  0  0  0  0  0  0  # atno 17370 bound_to 10713
  155.9678  130.4501  150.5684 LP  0  0  0  0  0  0  0  0  0  0  0  0  # atno 17371 bound_to 10713
  141.0706  134.0211  157.3532 LP  0  0  0  0  0  0  0  0  0  0  0  0  # atno 17394 bound_to 11000
  139.9133  135.0193  156.7779 LP  0  0  0  0  0  0  0  0  0  0  0  0  # atno 17395 bound_to 11000

$$$$
