AV-unprocessed.smi:2416|AV-procd|sdf|9544|dock6
  -GOLD-   2272013173D 1   1.00000     0.00000
 Structure written by MMmdl.
 40 41  0  0  0  0  0  0  0  0  1 V2000
  151.2461  138.8479  154.9631 C   0  0  0  0  0  0  0  0  0  0  0  0
  150.3590  139.7381  154.2970 O   0  0  0  0  0  0  0  0  0  0  0  0
  149.8124  140.8214  155.0614 C   0  0  1  0  0  0  0  0  0  0  0  0
  150.8911  141.4303  155.9670 C   0  0  0  0  0  0  0  0  0  0  0  0
  148.9803  141.7457  154.1522 C   0  0  0  0  0  0  0  0  0  0  0  0
  147.7599  140.8613  154.4178 C   0  0  1  0  0  0  0  0  0  0  0  0
  147.5983  139.8520  153.3707 N   0  0  0  0  0  0  0  0  0  0  0  0
  146.7009  138.8576  153.4029 C   0  0  0  0  0  0  0  0  0  0  0  0
  145.8945  138.7024  154.3206 O   0  0  0  0  0  0  0  0  0  0  0  0
  146.8110  138.0680  152.3202 N   0  0  0  0  0  0  0  0  0  0  0  0
  146.0770  136.8914  152.0135 C   0  0  0  0  0  0  0  0  0  0  0  0
  145.4941  136.2427  153.1259 C   0  0  0  0  0  0  0  0  0  0  0  0
  144.7395  135.0699  152.9279 C   0  0  0  0  0  0  0  0  0  0  0  0
  144.5882  134.5771  151.6198 C   0  0  0  0  0  0  0  0  0  0  0  0
  143.8700  133.4544  151.3797 F   0  0  0  0  0  0  0  0  0  0  0  0
  145.2019  135.2808  150.5673 C   0  0  0  0  0  0  0  0  0  0  0  0
  145.9253  136.4049  150.7559 N   0  0  0  0  0  0  0  0  0  0  0  0
  148.4672  140.3461  155.7012 C   0  0  0  0  0  0  0  0  0  0  0  0
  148.3536  138.8537  156.0552 C   0  0  0  0  0  0  0  0  0  0  0  0
  148.0301  141.0940  156.9696 C   0  0  0  0  0  0  0  0  0  0  0  0
  151.6973  138.1818  154.2279 H   0  0  0  0  0  0  0  0  0  0  0  0
  150.7215  138.2211  155.6839 H   0  0  0  0  0  0  0  0  0  0  0  0
  152.0542  139.3695  155.4748 H   0  0  0  0  0  0  0  0  0  0  0  0
  150.4822  142.1887  156.6337 H   0  0  0  0  0  0  0  0  0  0  0  0
  151.6737  141.9260  155.3933 H   0  0  0  0  0  0  0  0  0  0  0  0
  151.3621  140.6684  156.5887 H   0  0  0  0  0  0  0  0  0  0  0  0
  148.8632  142.7464  154.5706 H   0  0  0  0  0  0  0  0  0  0  0  0
  149.2876  141.8010  153.1081 H   0  0  0  0  0  0  0  0  0  0  0  0
  146.8572  141.4429  154.6135 H   0  0  0  0  0  0  0  0  0  0  0  0
  148.2316  139.9044  152.5864 H   0  0  0  0  0  0  0  0  0  0  0  0
  147.5157  138.3282  151.6462 H   0  0  0  0  0  0  0  0  0  0  0  0
  145.6197  136.6371  154.1240 H   0  0  0  0  0  0  0  0  0  0  0  0
  144.2851  134.5600  153.7645 H   0  0  0  0  0  0  0  0  0  0  0  0
  145.1095  134.9351  149.5481 H   0  0  0  0  0  0  0  0  0  0  0  0
  147.3344  138.5880  156.3377 H   0  0  0  0  0  0  0  0  0  0  0  0
  149.0042  138.5925  156.8900 H   0  0  0  0  0  0  0  0  0  0  0  0
  148.6292  138.2014  155.2270 H   0  0  0  0  0  0  0  0  0  0  0  0
  147.0048  140.8440  157.2450 H   0  0  0  0  0  0  0  0  0  0  0  0
  148.0655  142.1757  156.8386 H   0  0  0  0  0  0  0  0  0  0  0  0
  148.6652  140.8502  157.8220 H   0  0  0  0  0  0  0  0  0  0  0  0
  1  2  1  0  0  0  0
  1 21  1  0  0  0  0
  1 22  1  0  0  0  0
  1 23  1  0  0  0  0
  2  3  1  0  0  0  0
  3 18  1  0  0  0  0
  3  4  1  0  0  0  0
  3  5  1  0  0  0  0
  4 24  1  0  0  0  0
  4 25  1  0  0  0  0
  4 26  1  0  0  0  0
  5  6  1  0  0  0  0
  5 27  1  0  0  0  0
  5 28  1  0  0  0  0
  6  7  1  0  0  0  0
  6 18  1  0  0  0  0
  6 29  1  0  0  0  0
  7  8  1  0  0  0  0
  7 30  1  0  0  0  0
  8  9  2  0  0  0  0
  8 10  1  0  0  0  0
 10 11  1  0  0  0  0
 10 31  1  0  0  0  0
 11 17  1  0  0  0  0
 11 12  2  0  0  0  0
 12 13  1  0  0  0  0
 12 32  1  0  0  0  0
 13 14  2  0  0  0  0
 13 33  1  0  0  0  0
 14 15  1  0  0  0  0
 14 16  1  0  0  0  0
 16 17  2  0  0  0  0
 16 34  1  0  0  0  0
 18 19  1  0  0  0  0
 18 20  1  0  0  0  0
 19 35  1  0  0  0  0
 19 36  1  0  0  0  0
 19 37  1  0  0  0  0
 20 38  1  0  0  0  0
 20 39  1  0  0  0  0
 20 40  1  0  0  0  0
M  END
> <s_m_source_file>
AV-unprocessed.smi

> <i_m_source_file_index>
2416

> <i_lp_mmshare_version>
43012

> <i_f3d_flags>
0

> <s_epik_input>
W0NIM11PW0NAQF0xKFtDSDNdKVtDSDJdW0NASF0oQzEoW0NIM10pW0NIM10pW05IXUMoPU8pW05IXWMyW2NIXVtjSF1jKEYpW2NIXW4y

> <s_epik_cmdline>
J2VwaWtfcHl0aG9uJywgJy1waCcsICc3LjAnLCAnLXRuJywgJzgnLCAnLW1hJywgJzIwMCcsICctbWV0YWxfYmluZGluZycsICctaW1hZScsICc8aW5maWxlLm1hZT4nLCAnLW9tYWUnLCAnPG91dGZpbGUubWFlPic=

> <r_lp_tautomer_probability>
1

> <r_epik_Ionization_Penalty>
3.67756e-05

> <r_epik_Ionization_Penalty_Charging>
0

> <r_epik_Ionization_Penalty_Neutral>
3.67756e-05

> <r_epik_State_Penalty>
-0

> <r_epik_Charging_Adjusted_Penalty>
0

> <i_epik_Tot_Q>
0

> <i_epik_Tot_abs_Q>
0

> <r_epik_Metal_State_Penalty>
-0

> <b_epik_Metal_Only>
0

> <s_lp_Force_Field>
OPLS_2005

> <r_lp_Energy>
27.553

> <b_lp_Chiralities_Consistent>
1

> <s_lp_Variant>
AV-unprocessed.smi:2416-1

> <Gold.Version>
5.8.1

> <Gold.Id.Protein>
6NUR|6NUR_protein|mol2

> <Gold.PLP.Fitness>
35.1240

> <Gold.PLP.PLP>
-27.9535

> <Gold.PLP.part.hbond>
-3.0000

> <Gold.PLP.part.metal>
0.0000

> <Gold.PLP.part.buried>
-1.2462

> <Gold.PLP.part.nonpolar>
-24.8366

> <Gold.PLP.part.repulsive>
1.1815

> <Gold.PLP.ligand.clash>
0.0000

> <Gold.PLP.ligand.torsion>
0.5061

> <Gold.PLP.Chemscore.Hbond>
1.6000

> <Gold.PLP.Chemscore.CHOScore>
1.0000

> <Gold.PLP.Chemscore.Metal>
0.0000

> <Gold.Chemscore.Hbonds>
donor molecule, donor type, donor heavy atom, donor atom, acceptor molecule, acceptor atom, score
      L1  H     7    30       P1  7957  1.00
      P1  H  7989  7998       L1     2  0.57
      L1  C    16    34       P1  7921  1.00

> <Gold.PLP.Chemscore.Internal.Correction>
0.3828

> <Gold.Rescore>
     Score         DG    S(hbond)    S(metal)    S(lipo)     H(rot)  DE(clash)    DE(int)     intcor
      8.88     -12.90       1.00        0.00      62.52       1.27       2.01       2.00       ----

> <Gold.Chemscore.Fitness>
8.8801

> <Gold.Chemscore.DG>
-12.8972

> <Gold.Chemscore.ZeroCoef>
-5.4800

> <Gold.Chemscore.Hbond>
1.0005

> <Gold.Chemscore.Metal>
0.0000

> <Gold.Chemscore.Lipo>
62.5184

> <Gold.Chemscore.Internal_Hbond>
0.0000

> <Gold.Chemscore.DEClash>
2.0147

> <Gold.Chemscore.DEInternal>
2.0024

> <Gold.Chemscore.Rot>
1.2653

> <Gold.Chemscore.Internal.Correction>
   9.000000E+99

> <Gold.Chemscore.Hbonds>
donor molecule, donor type, donor heavy atom, donor atom, acceptor molecule, acceptor atom, score
      L1  H     7    30       P1  7957  0.98
      P1  H  7989  7998       L1     2  0.01

> <Gold.Chemscore.Hbond.Weighted>
-3.3418

> <Gold.Chemscore.Metal.Weighted>
-0.0000

> <Gold.Chemscore.Lipo.Weighted>
-7.3147

> <Gold.Chemscore.Internal_Hbond.Weighted>
0.0000

> <Gold.Chemscore.DEClash.Weighted>
2.0147

> <Gold.Chemscore.DEInternal.Weighted>
2.0024

> <Gold.Chemscore.Rot.Weighted>
3.2392

> <Gold.Chemscore.Internal.Correction.Weighted>
   9.000000E+99

> <Gold.Protein.RotatedTorsions>
[ 6907 6896 6895 6894 ] final  153.29 input  -60.11 | X-H torsion
[ 7974 7965 7964 7962 ] final -175.04 input  175.53 | X-H torsion
[ 8008 7997 7996 7995 ] final  133.90 input   59.86 | X-H torsion
[ 10167 10162 10161 10158 ] final   75.11 input  -65.29 | X-H torsion
[ 10718 10713 10712 10709 ] final  107.99 input   66.30 | X-H torsion
[ 10763 10752 10751 10750 ] final  -37.83 input  -60.55 | X-H torsion
[ 11005 11000 10999 10996 ] final  -40.80 input  -57.11 | X-H torsion

> <Gold.Protein.ActiveResidues>
 VAL166  LYS551  ARG553  GLY616  TRP617  ASP618  TYR619  PRO620  LYS621  CYS622 
 ASP623  PHE694  ASN695  SER759  ASP760  ASP761  ALA762  ILE779  LEU786  VAL792 
 PHE793  MET794  SER795  GLU796  ALA797  LYS798  CYS799  TRP800  GLU811  SER814 

> <Gold.Protein.RotatedAtoms>
  152.0748  133.4124  159.4474 H   0  0  0  0  0  0  0  0  0  0  0  0  # atno 6907 bound_to 6896
  150.6863  134.3051  159.4732 H   0  0  0  0  0  0  0  0  0  0  0  0  # atno 6908 bound_to 6896
  152.0886  134.9422  160.0623 H   0  0  0  0  0  0  0  0  0  0  0  0  # atno 6909 bound_to 6896
  144.7129  140.1381  143.6394 H   0  0  0  0  0  0  0  0  0  0  0  0  # atno 7974 bound_to 7965
  156.2995  140.2510  156.3328 H   0  0  0  0  0  0  0  0  0  0  0  0  # atno 8008 bound_to 7997
  154.9128  140.0403  157.1975 H   0  0  0  0  0  0  0  0  0  0  0  0  # atno 8009 bound_to 7997
  154.8388  140.2887  155.5677 H   0  0  0  0  0  0  0  0  0  0  0  0  # atno 8010 bound_to 7997
  140.0065  144.5647  150.7694 H   0  0  0  0  0  0  0  0  0  0  0  0  # atno 10167 bound_to 10162
  157.6605  131.0884  150.6239 H   0  0  0  0  0  0  0  0  0  0  0  0  # atno 10718 bound_to 10713
  153.9027  135.6800  153.4754 H   0  0  0  0  0  0  0  0  0  0  0  0  # atno 10763 bound_to 10752
  153.1120  135.4778  154.9049 H   0  0  0  0  0  0  0  0  0  0  0  0  # atno 10764 bound_to 10752
  154.7567  135.3199  154.8411 H   0  0  0  0  0  0  0  0  0  0  0  0  # atno 10765 bound_to 10752
  141.0201  133.6867  156.2371 H   0  0  0  0  0  0  0  0  0  0  0  0  # atno 11005 bound_to 11000
  145.9227  139.2556  143.1372 LP  0  0  0  0  0  0  0  0  0  0  0  0  # atno 17320 bound_to 7965
  145.9604  140.8840  143.0214 LP  0  0  0  0  0  0  0  0  0  0  0  0  # atno 17321 bound_to 7965
  140.7398  143.2796  151.3637 LP  0  0  0  0  0  0  0  0  0  0  0  0  # atno 17342 bound_to 10162
  139.6235  144.0860  152.2413 LP  0  0  0  0  0  0  0  0  0  0  0  0  # atno 17343 bound_to 10162
  156.6542  130.4493  149.5709 LP  0  0  0  0  0  0  0  0  0  0  0  0  # atno 17370 bound_to 10713
  156.2115  130.6682  151.1274 LP  0  0  0  0  0  0  0  0  0  0  0  0  # atno 17371 bound_to 10713
  140.6588  134.4989  157.5582 LP  0  0  0  0  0  0  0  0  0  0  0  0  # atno 17394 bound_to 11000
  139.9140  134.8284  156.1428 LP  0  0  0  0  0  0  0  0  0  0  0  0  # atno 17395 bound_to 11000

$$$$
