AV-unprocessed.smi:856|AV-procd|sdf|3959|dock5
  -GOLD-   22720 1433D 1   1.00000     0.00000
 Structure written by MMmdl.
 42 44  0  0  0  0  0  0  0  0  1 V2000
  151.6782  141.7907  158.8578 C   0  0  0  0  0  0  0  0  0  0  0  0
  151.6312  140.8350  157.7354 N   0  0  0  0  0  0  0  0  0  0  0  0
  150.6627  141.0012  156.7805 C   0  0  0  0  0  0  0  0  0  0  0  0
  149.8161  141.8953  156.7874 O   0  0  0  0  0  0  0  0  0  0  0  0
  150.7080  140.0010  155.7072 C   0  0  0  0  0  0  0  0  0  0  0  0
  151.6250  139.0028  155.6672 C   0  0  0  0  0  0  0  0  0  0  0  0
  151.4488  138.2006  154.5449 N   0  0  0  0  0  0  0  0  0  0  0  0
  150.4051  138.7778  153.9497 C   0  0  0  0  0  0  0  0  0  0  0  0
  149.9023  139.8601  154.5770 N   0  0  0  0  0  0  0  0  0  0  0  0
  148.7740  140.6611  154.1243 C   0  0  0  0  0  0  0  0  0  0  0  0
  147.5853  139.8004  153.6508 C   0  0  2  0  0  0  0  0  0  0  0  0
  146.7163  140.5879  152.8605 O   0  0  0  0  0  0  0  0  0  0  0  0
  146.7821  139.2389  154.8332 C   0  0  0  0  0  0  0  0  0  0  0  0
  145.7110  138.4514  154.3294 O   0  0  0  0  0  0  0  0  0  0  0  0
  145.3078  137.3954  155.1913 C   0  0  0  0  0  0  0  0  0  0  0  0
  144.2355  136.6124  154.5038 C   0  0  0  0  0  0  0  0  0  0  0  0
  143.6282  136.7204  153.2832 C   0  0  0  0  0  0  0  0  0  0  0  0
  142.6703  135.6711  153.2178 C   0  0  0  0  0  0  0  0  0  0  0  0
  142.7654  135.0003  154.4038 C   0  0  0  0  0  0  0  0  0  0  0  0
  143.7167  135.5610  155.1993 O   0  0  0  0  0  0  0  0  0  0  0  0
  152.5826  138.9219  156.7110 N   0  0  0  0  0  0  0  0  0  0  0  0
  153.5787  137.8472  156.6844 C   0  0  0  0  0  0  0  0  0  0  0  0
  152.5885  139.8353  157.7352 C   0  0  0  0  0  0  0  0  0  0  0  0
  153.4328  139.7595  158.6327 O   0  0  0  0  0  0  0  0  0  0  0  0
  150.8852  142.5393  158.8572 H   0  0  0  0  0  0  0  0  0  0  0  0
  152.6230  142.3367  158.8501 H   0  0  0  0  0  0  0  0  0  0  0  0
  151.6024  141.2657  159.8116 H   0  0  0  0  0  0  0  0  0  0  0  0
  149.9936  138.4027  153.0241 H   0  0  0  0  0  0  0  0  0  0  0  0
  148.4593  141.2927  154.9561 H   0  0  0  0  0  0  0  0  0  0  0  0
  149.0999  141.3450  153.3419 H   0  0  0  0  0  0  0  0  0  0  0  0
  147.9650  138.9782  153.0425 H   0  0  0  0  0  0  0  0  0  0  0  0
  145.8261  140.3382  153.0568 H   0  0  0  0  0  0  0  0  0  0  0  0
  147.4219  138.5946  155.4380 H   0  0  0  0  0  0  0  0  0  0  0  0
  146.4337  140.0447  155.4814 H   0  0  0  0  0  0  0  0  0  0  0  0
  146.1672  136.7513  155.3780 H   0  0  0  0  0  0  0  0  0  0  0  0
  144.9740  137.7743  156.1586 H   0  0  0  0  0  0  0  0  0  0  0  0
  143.8456  137.4652  152.5319 H   0  0  0  0  0  0  0  0  0  0  0  0
  141.9967  135.4369  152.4066 H   0  0  0  0  0  0  0  0  0  0  0  0
  142.2575  134.1452  154.8249 H   0  0  0  0  0  0  0  0  0  0  0  0
  153.4970  137.2284  157.5792 H   0  0  0  0  0  0  0  0  0  0  0  0
  154.5875  138.2611  156.6467 H   0  0  0  0  0  0  0  0  0  0  0  0
  153.4663  137.1871  155.8243 H   0  0  0  0  0  0  0  0  0  0  0  0
  1  2  1  0  0  0  0
  1 25  1  0  0  0  0
  1 26  1  0  0  0  0
  1 27  1  0  0  0  0
  2 23  1  0  0  0  0
  2  3  1  0  0  0  0
  3  4  2  0  0  0  0
  3  5  1  0  0  0  0
  5  9  1  0  0  0  0
  5  6  2  0  0  0  0
  6  7  1  0  0  0  0
  6 21  1  0  0  0  0
  7  8  2  0  0  0  0
  8  9  1  0  0  0  0
  8 28  1  0  0  0  0
  9 10  1  0  0  0  0
 10 11  1  0  0  0  0
 10 29  1  0  0  0  0
 10 30  1  0  0  0  0
 11 12  1  0  0  0  0
 11 13  1  0  0  0  0
 11 31  1  0  0  0  0
 12 32  1  0  0  0  0
 13 14  1  0  0  0  0
 13 33  1  0  0  0  0
 13 34  1  0  0  0  0
 14 15  1  0  0  0  0
 15 16  1  0  0  0  0
 15 35  1  0  0  0  0
 15 36  1  0  0  0  0
 16 20  1  0  0  0  0
 16 17  2  0  0  0  0
 17 18  1  0  0  0  0
 17 37  1  0  0  0  0
 18 19  2  0  0  0  0
 18 38  1  0  0  0  0
 19 20  1  0  0  0  0
 19 39  1  0  0  0  0
 21 22  1  0  0  0  0
 21 23  1  0  0  0  0
 22 40  1  0  0  0  0
 22 41  1  0  0  0  0
 22 42  1  0  0  0  0
 23 24  2  0  0  0  0
M  END
> <s_m_source_file>
AV-unprocessed.smi

> <i_m_source_file_index>
856

> <i_lp_mmshare_version>
43012

> <i_f3d_flags>
0

> <s_epik_input>
Tz1jMW4oW0NIM10pYyg9TyluKFtDSDNdKWMoYzEyKW5bY0hdbjJbQ0gyXVtDQEhdKFtPSF0pW0NIMl1PW0NIMl1jM1tjSF1bY0hdW2NIXW8z

> <s_epik_cmdline>
J2VwaWtfcHl0aG9uJywgJy1waCcsICc3LjAnLCAnLXRuJywgJzgnLCAnLW1hJywgJzIwMCcsICctbWV0YWxfYmluZGluZycsICctaW1hZScsICc8aW5maWxlLm1hZT4nLCAnLW9tYWUnLCAnPG91dGZpbGUubWFlPic=

> <r_lp_tautomer_probability>
1

> <r_epik_Ionization_Penalty>
1.33189e-06

> <r_epik_Ionization_Penalty_Charging>
3.64616e-09

> <r_epik_Ionization_Penalty_Neutral>
1.32824e-06

> <r_epik_State_Penalty>
-0

> <r_epik_Charging_Adjusted_Penalty>
3.64616e-09

> <i_epik_Tot_Q>
0

> <i_epik_Tot_abs_Q>
0

> <r_epik_Metal_State_Penalty>
-0

> <b_epik_Metal_Only>
0

> <s_lp_Force_Field>
OPLS_2005

> <r_lp_Energy>
33.5677

> <b_lp_Chiralities_Consistent>
1

> <s_lp_Variant>
AV-unprocessed.smi:856-1

> <Gold.Version>
5.8.1

> <Gold.Id.Protein>
6NUR|6NUR_protein|mol2

> <Gold.PLP.Fitness>
44.4854

> <Gold.PLP.PLP>
-29.6113

> <Gold.PLP.part.hbond>
-2.0000

> <Gold.PLP.part.metal>
0.0000

> <Gold.PLP.part.buried>
-0.8012

> <Gold.PLP.part.nonpolar>
-27.7312

> <Gold.PLP.part.repulsive>
0.8403

> <Gold.PLP.ligand.clash>
0.0000

> <Gold.PLP.ligand.torsion>
0.5258

> <Gold.PLP.Chemscore.Hbond>
1.6760

> <Gold.PLP.Chemscore.CHOScore>
3.6119

> <Gold.PLP.Chemscore.Metal>
0.0000

> <Gold.Chemscore.Hbonds>
donor molecule, donor type, donor heavy atom, donor atom, acceptor molecule, acceptor atom, score
      L1  H    12    32       P1 10175  0.48
      P1  H  7997  8010       L1    24  0.35
      L1  C     8    28       P1  7948  0.77
      L1  C     8    28       P1  7957  0.77
      L1  C    19    39       P1 10957  1.00
      L1  C    19    39       P1 11000  0.71

> <Gold.PLP.Chemscore.Internal.Correction>
0.0621

> <Gold.Rescore>
     Score         DG    S(hbond)    S(metal)    S(lipo)     H(rot)  DE(clash)    DE(int)     intcor
      5.42      -5.95       0.87        0.00      48.30       3.16       0.09       0.44       ----

> <Gold.Chemscore.Fitness>
5.4214

> <Gold.Chemscore.DG>
-5.9540

> <Gold.Chemscore.ZeroCoef>
-5.4800

> <Gold.Chemscore.Hbond>
0.8721

> <Gold.Chemscore.Metal>
0.0000

> <Gold.Chemscore.Lipo>
48.2962

> <Gold.Chemscore.Internal_Hbond>
0.0000

> <Gold.Chemscore.DEClash>
0.0902

> <Gold.Chemscore.DEInternal>
0.4424

> <Gold.Chemscore.Rot>
3.1599

> <Gold.Chemscore.Internal.Correction>
   9.000000E+99

> <Gold.Chemscore.Hbonds>
donor molecule, donor type, donor heavy atom, donor atom, acceptor molecule, acceptor atom, score
      L1  H    12    32       P1 10175  0.43
      P1  H  7997  8010       L1    24  0.01

> <Gold.Chemscore.Hbond.Weighted>
-2.9127

> <Gold.Chemscore.Metal.Weighted>
-0.0000

> <Gold.Chemscore.Lipo.Weighted>
-5.6507

> <Gold.Chemscore.Internal_Hbond.Weighted>
0.0000

> <Gold.Chemscore.DEClash.Weighted>
0.0902

> <Gold.Chemscore.DEInternal.Weighted>
0.4424

> <Gold.Chemscore.Rot.Weighted>
8.0893

> <Gold.Chemscore.Internal.Correction.Weighted>
   9.000000E+99

> <Gold.Protein.RotatedTorsions>
[ 6907 6896 6895 6894 ] final   24.44 input  -60.11 | X-H torsion
[ 7974 7965 7964 7962 ] final -155.88 input  175.53 | X-H torsion
[ 8008 7997 7996 7995 ] final   16.78 input   59.86 | X-H torsion
[ 10167 10162 10161 10158 ] final   20.79 input  -65.29 | X-H torsion
[ 10718 10713 10712 10709 ] final  -65.77 input   66.30 | X-H torsion
[ 10763 10752 10751 10750 ] final   69.09 input  -60.55 | X-H torsion
[ 11005 11000 10999 10996 ] final  146.68 input  -57.11 | X-H torsion

> <Gold.Protein.ActiveResidues>
 VAL166  LYS551  ARG553  GLY616  TRP617  ASP618  TYR619  PRO620  LYS621  CYS622 
 ASP623  PHE694  ASN695  SER759  ASP760  ASP761  ALA762  ILE779  LEU786  VAL792 
 PHE793  MET794  SER795  GLU796  ALA797  LYS798  CYS799  TRP800  GLU811  SER814 

> <Gold.Protein.RotatedAtoms>
  151.9575  135.0139  160.0545 H   0  0  0  0  0  0  0  0  0  0  0  0  # atno 6907 bound_to 6896
  152.1898  133.4760  159.5010 H   0  0  0  0  0  0  0  0  0  0  0  0  # atno 6908 bound_to 6896
  150.6933  134.1644  159.4231 H   0  0  0  0  0  0  0  0  0  0  0  0  # atno 6909 bound_to 6896
  144.7619  140.4188  143.5970 H   0  0  0  0  0  0  0  0  0  0  0  0  # atno 7974 bound_to 7965
  154.8818  140.2974  155.5420 H   0  0  0  0  0  0  0  0  0  0  0  0  # atno 8008 bound_to 7997
  156.3022  140.2441  156.3756 H   0  0  0  0  0  0  0  0  0  0  0  0  # atno 8009 bound_to 7997
  154.8709  140.0401  157.1713 H   0  0  0  0  0  0  0  0  0  0  0  0  # atno 8010 bound_to 7997
  140.5477  143.9565  150.6558 H   0  0  0  0  0  0  0  0  0  0  0  0  # atno 10167 bound_to 10162
  156.0650  130.4252  150.1612 H   0  0  0  0  0  0  0  0  0  0  0  0  # atno 10718 bound_to 10713
  153.0268  135.5223  154.7234 H   0  0  0  0  0  0  0  0  0  0  0  0  # atno 10763 bound_to 10752
  154.6283  135.2897  155.0249 H   0  0  0  0  0  0  0  0  0  0  0  0  # atno 10764 bound_to 10752
  154.1210  135.6607  153.4955 H   0  0  0  0  0  0  0  0  0  0  0  0  # atno 10765 bound_to 10752
  140.0813  134.9095  157.1505 H   0  0  0  0  0  0  0  0  0  0  0  0  # atno 11005 bound_to 11000
  145.6592  139.1578  143.2818 LP  0  0  0  0  0  0  0  0  0  0  0  0  # atno 17320 bound_to 7965
  146.1690  140.6674  142.9242 LP  0  0  0  0  0  0  0  0  0  0  0  0  # atno 17321 bound_to 7965
  140.2983  143.3278  152.0997 LP  0  0  0  0  0  0  0  0  0  0  0  0  # atno 17342 bound_to 10162
  139.5014  144.6713  151.6236 LP  0  0  0  0  0  0  0  0  0  0  0  0  # atno 17343 bound_to 10162
  156.9673  130.9824  151.3466 LP  0  0  0  0  0  0  0  0  0  0  0  0  # atno 17370 bound_to 10713
  157.5686  130.8295  149.8361 LP  0  0  0  0  0  0  0  0  0  0  0  0  # atno 17371 bound_to 10713
  140.3483  134.2626  155.7202 LP  0  0  0  0  0  0  0  0  0  0  0  0  # atno 17394 bound_to 11000
  141.2047  133.7878  157.0270 LP  0  0  0  0  0  0  0  0  0  0  0  0  # atno 17395 bound_to 11000

$$$$
