AV-unprocessed.smi:1947|AV-procd|sdf|7871|dock7
  -GOLD-   2272010 23D 1   1.00000     0.00000
 Structure written by MMmdl.
 38 39  0  0  0  0  0  0  0  0  2 V2000
  151.2474  142.5897  157.3896 C   0  0  0  0  0  0  0  0  0  0  0  0
  150.9647  141.6615  156.1982 C   0  0  2  0  0  0  0  0  0  0  0  0
  149.4562  141.5623  155.8928 C   0  0  0  0  0  0  0  0  0  0  0  0
  149.1833  140.6607  154.6781 C   0  0  0  0  0  0  0  0  0  0  0  0
  149.8038  139.2680  154.8652 C   0  0  0  0  0  0  0  0  0  0  0  0
  151.3086  139.3658  155.1667 C   0  0  0  0  0  0  0  0  0  0  0  0
  151.5863  140.2605  156.3944 C   0  0  2  0  0  0  0  0  0  0  0  0
  151.0185  139.6749  157.5596 O   0  0  0  0  0  0  0  0  0  0  0  0
  151.5367  138.3967  157.8965 C   0  0  0  0  0  0  0  0  0  0  0  0
  150.3843  137.3883  157.8929 C   0  0  0  0  0  0  0  0  0  0  0  0
  149.5035  137.6313  159.0278 N   0  0  0  0  0  0  0  0  0  0  0  0
  148.7824  136.7005  159.6646 C   0  0  0  0  0  0  0  0  0  0  0  0
  148.8292  135.5260  159.2921 O   0  0  0  0  0  0  0  0  0  0  0  0
  148.0543  137.1887  160.6947 N   0  5  0  0  0  0  0  0  0  0  0  0
  147.1957  136.3911  161.3508 C   0  0  0  0  0  0  0  0  0  0  0  0
  145.9312  136.2050  160.9391 N   0  0  0  0  0  0  0  0  0  0  0  0
  145.2084  135.3530  161.7633 N   0  0  0  0  0  0  0  0  0  0  0  0
  145.9483  134.9216  162.7843 C   0  0  0  0  0  0  0  0  0  0  0  0
  147.5937  135.5181  162.8330 S   0  0  0  0  0  0  0  0  0  0  0  0
  150.7832  142.2190  158.3041 H   0  0  0  0  0  0  0  0  0  0  0  0
  150.8605  143.5921  157.2051 H   0  0  0  0  0  0  0  0  0  0  0  0
  152.3186  142.6783  157.5725 H   0  0  0  0  0  0  0  0  0  0  0  0
  151.4442  142.1110  155.3273 H   0  0  0  0  0  0  0  0  0  0  0  0
  148.9262  141.1709  156.7625 H   0  0  0  0  0  0  0  0  0  0  0  0
  149.0471  142.5558  155.7066 H   0  0  0  0  0  0  0  0  0  0  0  0
  148.1087  140.5702  154.5164 H   0  0  0  0  0  0  0  0  0  0  0  0
  149.5929  141.1251  153.7802 H   0  0  0  0  0  0  0  0  0  0  0  0
  149.2987  138.7482  155.6806 H   0  0  0  0  0  0  0  0  0  0  0  0
  149.6425  138.6661  153.9706 H   0  0  0  0  0  0  0  0  0  0  0  0
  151.7216  138.3677  155.3084 H   0  0  0  0  0  0  0  0  0  0  0  0
  151.8215  139.7804  154.2981 H   0  0  0  0  0  0  0  0  0  0  0  0
  152.6638  140.3751  156.5282 H   0  0  0  0  0  0  0  0  0  0  0  0
  152.3088  138.0761  157.1969 H   0  0  0  0  0  0  0  0  0  0  0  0
  151.9945  138.4434  158.8853 H   0  0  0  0  0  0  0  0  0  0  0  0
  149.8123  137.4838  156.9690 H   0  0  0  0  0  0  0  0  0  0  0  0
  150.7724  136.3692  157.9317 H   0  0  0  0  0  0  0  0  0  0  0  0
  149.4429  138.5810  159.3647 H   0  0  0  0  0  0  0  0  0  0  0  0
  145.5219  134.2506  163.5147 H   0  0  0  0  0  0  0  0  0  0  0  0
  1  2  1  0  0  0  0
  1 20  1  0  0  0  0
  1 21  1  0  0  0  0
  1 22  1  0  0  0  0
  2  7  1  0  0  0  0
  2  3  1  0  0  0  0
  2 23  1  0  0  0  0
  3  4  1  0  0  0  0
  3 24  1  0  0  0  0
  3 25  1  0  0  0  0
  4  5  1  0  0  0  0
  4 26  1  0  0  0  0
  4 27  1  0  0  0  0
  5  6  1  0  0  0  0
  5 28  1  0  0  0  0
  5 29  1  0  0  0  0
  6  7  1  0  0  0  0
  6 30  1  0  0  0  0
  6 31  1  0  0  0  0
  7  8  1  0  0  0  0
  7 32  1  0  0  0  0
  8  9  1  0  0  0  0
  9 10  1  0  0  0  0
  9 33  1  0  0  0  0
  9 34  1  0  0  0  0
 10 11  1  0  0  0  0
 10 35  1  0  0  0  0
 10 36  1  0  0  0  0
 11 12  1  0  0  0  0
 11 37  1  0  0  0  0
 12 13  2  0  0  0  0
 12 14  1  0  0  0  0
 14 15  1  0  0  0  0
 15 19  1  0  0  0  0
 15 16  2  0  0  0  0
 16 17  1  0  0  0  0
 17 18  2  0  0  0  0
 18 19  1  0  0  0  0
 18 38  1  0  0  0  0
M  CHG  1  14  -1
M  END
> <s_m_source_file>
AV-unprocessed.smi

> <i_m_source_file_index>
1947

> <i_lp_mmshare_version>
43012

> <i_f3d_flags>
0

> <s_epik_input>
W0NIM11bQ0BASF0xW0NIMl1bQ0gyXVtDSDJdW0NIMl1bQ0BIXTFPW0NIMl1bQ0gyXVtOSF1DKD1PKVtOSF1jMm5uW2NIXXMy

> <s_epik_cmdline>
J2VwaWtfcHl0aG9uJywgJy1waCcsICc3LjAnLCAnLXRuJywgJzgnLCAnLW1hJywgJzIwMCcsICctbWV0YWxfYmluZGluZycsICctaW1hZScsICc8aW5maWxlLm1hZT4nLCAnLW9tYWUnLCAnPG91dGZpbGUubWFlPic=

> <r_lp_tautomer_probability>
1

> <r_epik_Ionization_Penalty>
3.35961

> <r_epik_Ionization_Penalty_Charging>
3.31977

> <r_epik_Ionization_Penalty_Neutral>
0.0398394

> <r_epik_State_Penalty>
3.31759

> <r_epik_Charging_Adjusted_Penalty>
6.63736

> <i_epik_Tot_Q>
-1

> <i_epik_Tot_abs_Q>
1

> <r_epik_Metal_State_Penalty>
0.484557

> <b_epik_Metal_Only>
1

> <s_lp_Force_Field>
OPLS_2005

> <r_lp_Energy>
9.4778

> <b_lp_Chiralities_Consistent>
1

> <s_lp_Variant>
AV-unprocessed.smi:1947-7

> <Gold.Version>
5.8.1

> <Gold.Id.Protein>
6NUR|6NUR_protein|mol2

> <Gold.PLP.Fitness>
45.6066

> <Gold.PLP.PLP>
-35.4859

> <Gold.PLP.part.hbond>
-3.0000

> <Gold.PLP.part.metal>
0.0000

> <Gold.PLP.part.buried>
-5.5467

> <Gold.PLP.part.nonpolar>
-28.8455

> <Gold.PLP.part.repulsive>
0.2171

> <Gold.PLP.ligand.clash>
0.0000

> <Gold.PLP.ligand.torsion>
1.3468

> <Gold.PLP.Chemscore.Hbond>
4.2640

> <Gold.PLP.Chemscore.CHOScore>
0.0000

> <Gold.PLP.Chemscore.Metal>
0.0000

> <Gold.Chemscore.Hbonds>
donor molecule, donor type, donor heavy atom, donor atom, acceptor molecule, acceptor atom, score
      P1  H  6896  6908       L1    13  0.78
      P1  H  6931  6943       L1    14  1.66
      P1  H  6934  6947       L1    14  1.46

> <Gold.PLP.Chemscore.Internal.Correction>
0.0223

> <Gold.Rescore>
     Score         DG    S(hbond)    S(metal)    S(lipo)     H(rot)  DE(clash)    DE(int)     intcor
     14.52     -15.84       1.88        0.00      76.41       1.90       0.07       1.24       ----

> <Gold.Chemscore.Fitness>
14.5235

> <Gold.Chemscore.DG>
-15.8351

> <Gold.Chemscore.ZeroCoef>
-5.4800

> <Gold.Chemscore.Hbond>
1.8786

> <Gold.Chemscore.Metal>
0.0000

> <Gold.Chemscore.Lipo>
76.4138

> <Gold.Chemscore.Internal_Hbond>
0.0000

> <Gold.Chemscore.DEClash>
0.0710

> <Gold.Chemscore.DEInternal>
1.2406

> <Gold.Chemscore.Rot>
1.8984

> <Gold.Chemscore.Internal.Correction>
   9.000000E+99

> <Gold.Chemscore.Hbonds>
donor molecule, donor type, donor heavy atom, donor atom, acceptor molecule, acceptor atom, score
      P1  H  6896  6908       L1    13  0.74
      P1  H  6931  6943       L1    14  0.57
      P1  H  6934  6947       L1    14  0.24

> <Gold.Chemscore.Hbond.Weighted>
-6.2745

> <Gold.Chemscore.Metal.Weighted>
-0.0000

> <Gold.Chemscore.Lipo.Weighted>
-8.9404

> <Gold.Chemscore.Internal_Hbond.Weighted>
0.0000

> <Gold.Chemscore.DEClash.Weighted>
0.0710

> <Gold.Chemscore.DEInternal.Weighted>
1.2406

> <Gold.Chemscore.Rot.Weighted>
4.8598

> <Gold.Chemscore.Internal.Correction.Weighted>
   9.000000E+99

> <Gold.Protein.RotatedTorsions>
[ 6907 6896 6895 6894 ] final  159.40 input  -60.11 | X-H torsion
[ 7974 7965 7964 7962 ] final  -68.34 input  175.53 | X-H torsion
[ 8008 7997 7996 7995 ] final   87.85 input   59.86 | X-H torsion
[ 10167 10162 10161 10158 ] final   52.67 input  -65.29 | X-H torsion
[ 10718 10713 10712 10709 ] final   57.96 input   66.30 | X-H torsion
[ 10763 10752 10751 10750 ] final -112.50 input  -60.55 | X-H torsion
[ 11005 11000 10999 10996 ] final  126.09 input  -57.11 | X-H torsion

> <Gold.Protein.ActiveResidues>
 VAL166  LYS551  ARG553  GLY616  TRP617  ASP618  TYR619  PRO620  LYS621  CYS622 
 ASP623  PHE694  ASN695  SER759  ASP760  ASP761  ALA762  ILE779  LEU786  VAL792 
 PHE793  MET794  SER795  GLU796  ALA797  LYS798  CYS799  TRP800  GLU811  SER814 

> <Gold.Protein.RotatedAtoms>
  151.9861  133.3774  159.4126 H   0  0  0  0  0  0  0  0  0  0  0  0  # atno 6907 bound_to 6896
  150.6928  134.3986  159.5118 H   0  0  0  0  0  0  0  0  0  0  0  0  # atno 6908 bound_to 6896
  152.1713  134.8832  160.0585 H   0  0  0  0  0  0  0  0  0  0  0  0  # atno 6909 bound_to 6896
  145.7177  140.9052  143.0647 H   0  0  0  0  0  0  0  0  0  0  0  0  # atno 7974 bound_to 7965
  155.9805  140.3378  155.6658 H   0  0  0  0  0  0  0  0  0  0  0  0  # atno 8008 bound_to 7997
  155.6555  140.0710  157.2590 H   0  0  0  0  0  0  0  0  0  0  0  0  # atno 8009 bound_to 7997
  154.4190  140.1718  156.1708 H   0  0  0  0  0  0  0  0  0  0  0  0  # atno 8010 bound_to 7997
  140.2489  144.3502  150.6355 H   0  0  0  0  0  0  0  0  0  0  0  0  # atno 10167 bound_to 10162
  157.5557  130.8798  149.9032 H   0  0  0  0  0  0  0  0  0  0  0  0  # atno 10718 bound_to 10713
  154.8352  135.4488  154.1203 H   0  0  0  0  0  0  0  0  0  0  0  0  # atno 10763 bound_to 10752
  153.2441  135.6919  153.7757 H   0  0  0  0  0  0  0  0  0  0  0  0  # atno 10764 bound_to 10752
  153.7094  135.3359  155.3218 H   0  0  0  0  0  0  0  0  0  0  0  0  # atno 10765 bound_to 10752
  139.9438  134.9632  156.8655 H   0  0  0  0  0  0  0  0  0  0  0  0  # atno 11005 bound_to 11000
  144.6925  139.9160  143.7465 LP  0  0  0  0  0  0  0  0  0  0  0  0  # atno 17320 bound_to 7965
  146.0654  139.3645  143.0555 LP  0  0  0  0  0  0  0  0  0  0  0  0  # atno 17321 bound_to 7965
  140.6056  143.2167  151.6987 LP  0  0  0  0  0  0  0  0  0  0  0  0  # atno 17342 bound_to 10162
  139.5053  144.3723  152.0458 LP  0  0  0  0  0  0  0  0  0  0  0  0  # atno 17343 bound_to 10162
  156.0616  130.3699  150.0969 LP  0  0  0  0  0  0  0  0  0  0  0  0  # atno 17370 bound_to 10713
  156.9138  130.9660  151.3559 LP  0  0  0  0  0  0  0  0  0  0  0  0  # atno 17371 bound_to 10713
  140.5884  134.0285  155.7490 LP  0  0  0  0  0  0  0  0  0  0  0  0  # atno 17394 bound_to 11000
  141.1082  133.9659  157.2958 LP  0  0  0  0  0  0  0  0  0  0  0  0  # atno 17395 bound_to 11000

$$$$
