AV-unprocessed.smi:2675|AV-procd|sdf|10362|dock6
  -GOLD-   2272014393D 1   1.00000     0.00000
 Structure written by MMmdl.
 36 37  0  0  0  0  0  0  0  0  1 V2000
  153.3166  143.1720  162.4256 C   0  0  0  0  0  0  0  0  0  0  0  0
  153.0106  142.9040  160.9847 C   0  0  0  0  0  0  0  0  0  0  0  0
  153.6982  141.9272  160.2685 N   0  0  0  0  0  0  0  0  0  0  0  0
  153.1628  141.9876  159.0575 C   0  0  0  0  0  0  0  0  0  0  0  0
  152.2015  142.9113  158.9184 N   0  0  0  0  0  0  0  0  0  0  0  0
  151.4622  143.2152  157.7027 C   0  0  0  0  0  0  0  0  0  0  0  0
  150.7795  141.9640  157.1483 C   0  0  0  0  0  0  0  0  0  0  0  0
  151.0173  140.8664  157.6498 O   0  0  0  0  0  0  0  0  0  0  0  0
  149.9177  142.1593  156.1346 N   0  0  0  0  0  0  0  0  0  0  0  0
  149.0338  141.1874  155.4805 C   0  0  1  0  0  0  0  0  0  0  0  0
  149.9499  140.0758  154.9425 C   0  0  0  0  0  0  0  0  0  0  0  0
  148.0895  140.5704  156.4330 C   0  0  0  0  0  0  0  0  0  0  0  0
  147.3491  140.0836  157.1779 N   0  0  0  0  0  0  0  0  0  0  0  0
  148.2169  141.7499  154.3145 C   0  0  0  0  0  0  0  0  0  0  0  0
  146.8247  142.3139  154.5009 C   0  0  0  0  0  0  0  0  0  0  0  0
  147.0264  141.0484  153.6975 C   0  0  0  0  0  0  0  0  0  0  0  0
  152.0844  143.5177  160.1682 C   0  0  0  0  0  0  0  0  0  0  0  0
  151.1163  144.6178  160.4642 C   0  0  0  0  0  0  0  0  0  0  0  0
  152.4092  143.1599  163.0293 H   0  0  0  0  0  0  0  0  0  0  0  0
  153.7851  144.1484  162.5506 H   0  0  0  0  0  0  0  0  0  0  0  0
  153.9950  142.4247  162.8383 H   0  0  0  0  0  0  0  0  0  0  0  0
  153.4861  141.3502  158.2474 H   0  0  0  0  0  0  0  0  0  0  0  0
  150.7133  143.9787  157.9171 H   0  0  0  0  0  0  0  0  0  0  0  0
  152.1465  143.6347  156.9643 H   0  0  0  0  0  0  0  0  0  0  0  0
  149.8205  143.1106  155.8107 H   0  0  0  0  0  0  0  0  0  0  0  0
  149.3732  139.2854  154.4603 H   0  0  0  0  0  0  0  0  0  0  0  0
  150.5269  139.6137  155.7446 H   0  0  0  0  0  0  0  0  0  0  0  0
  150.6561  140.4629  154.2066 H   0  0  0  0  0  0  0  0  0  0  0  0
  148.8381  142.2821  153.5958 H   0  0  0  0  0  0  0  0  0  0  0  0
  146.3489  142.2146  155.4745 H   0  0  0  0  0  0  0  0  0  0  0  0
  146.5752  143.2212  153.9547 H   0  0  0  0  0  0  0  0  0  0  0  0
  146.9106  141.1184  152.6180 H   0  0  0  0  0  0  0  0  0  0  0  0
  146.6713  140.1204  154.1364 H   0  0  0  0  0  0  0  0  0  0  0  0
  151.1722  144.9207  161.5099 H   0  0  0  0  0  0  0  0  0  0  0  0
  150.0931  144.2998  160.2635 H   0  0  0  0  0  0  0  0  0  0  0  0
  151.3248  145.4954  159.8524 H   0  0  0  0  0  0  0  0  0  0  0  0
  1  2  1  0  0  0  0
  1 19  1  0  0  0  0
  1 20  1  0  0  0  0
  1 21  1  0  0  0  0
  2 17  2  0  0  0  0
  2  3  1  0  0  0  0
  3  4  2  0  0  0  0
  4  5  1  0  0  0  0
  4 22  1  0  0  0  0
  5  6  1  0  0  0  0
  5 17  1  0  0  0  0
  6  7  1  0  0  0  0
  6 23  1  0  0  0  0
  6 24  1  0  0  0  0
  7  8  2  0  0  0  0
  7  9  1  0  0  0  0
  9 10  1  0  0  0  0
  9 25  1  0  0  0  0
 10 11  1  0  0  0  0
 10 12  1  0  0  0  0
 10 14  1  0  0  0  0
 11 26  1  0  0  0  0
 11 27  1  0  0  0  0
 11 28  1  0  0  0  0
 12 13  3  0  0  0  0
 14 16  1  0  0  0  0
 14 15  1  0  0  0  0
 14 29  1  0  0  0  0
 15 16  1  0  0  0  0
 15 30  1  0  0  0  0
 15 31  1  0  0  0  0
 16 32  1  0  0  0  0
 16 33  1  0  0  0  0
 17 18  1  0  0  0  0
 18 34  1  0  0  0  0
 18 35  1  0  0  0  0
 18 36  1  0  0  0  0
M  END
> <s_m_source_file>
AV-unprocessed.smi

> <i_m_source_file_index>
2675

> <i_lp_mmshare_version>
43012

> <i_f3d_flags>
0

> <s_epik_input>
W0NIM11jMW5bY0hdbihjMVtDSDNdKVtDSDJdQyg9TylbTkhdW0NAQF0oW0NIM10pKEMjTilbQ0hdMltDSDJdW0NIMl0y

> <s_epik_cmdline>
J2VwaWtfcHl0aG9uJywgJy1waCcsICc3LjAnLCAnLXRuJywgJzgnLCAnLW1hJywgJzIwMCcsICctbWV0YWxfYmluZGluZycsICctaW1hZScsICc8aW5maWxlLm1hZT4nLCAnLW9tYWUnLCAnPG91dGZpbGUubWFlPic=

> <r_lp_tautomer_probability>
1

> <r_epik_Ionization_Penalty>
0.876174

> <r_epik_Ionization_Penalty_Charging>
0.876172

> <r_epik_Ionization_Penalty_Neutral>
2.64295e-06

> <r_epik_State_Penalty>
0.913958

> <r_epik_Charging_Adjusted_Penalty>
1.79013

> <i_epik_Tot_Q>
0

> <i_epik_Tot_abs_Q>
0

> <r_epik_Metal_State_Penalty>
0.359336

> <b_epik_Metal_Only>
0

> <s_lp_Force_Field>
OPLS_2005

> <r_lp_Energy>
14.5701

> <b_lp_Chiralities_Consistent>
1

> <s_lp_Variant>
AV-unprocessed.smi:2675-3

> <Gold.Version>
5.8.1

> <Gold.Id.Protein>
6NUR|6NUR_protein|mol2

> <Gold.PLP.Fitness>
45.1305

> <Gold.PLP.PLP>
-42.5470

> <Gold.PLP.part.hbond>
-1.0000

> <Gold.PLP.part.metal>
0.0000

> <Gold.PLP.part.buried>
-5.4177

> <Gold.PLP.part.nonpolar>
-36.3002

> <Gold.PLP.part.repulsive>
0.1162

> <Gold.PLP.ligand.clash>
0.0000

> <Gold.PLP.ligand.torsion>
0.8570

> <Gold.PLP.Chemscore.Hbond>
0.9280

> <Gold.PLP.Chemscore.CHOScore>
0.0000

> <Gold.PLP.Chemscore.Metal>
0.0000

> <Gold.Chemscore.Hbonds>
donor molecule, donor type, donor heavy atom, donor atom, acceptor molecule, acceptor atom, score
      L1  H     9    25       P1  8028  1.00

> <Gold.PLP.Chemscore.Internal.Correction>
1.5135

> <Gold.Rescore>
     Score         DG    S(hbond)    S(metal)    S(lipo)     H(rot)  DE(clash)    DE(int)     intcor
     12.48     -14.80       0.97        0.00      90.11       1.74       0.02       2.30       ----

> <Gold.Chemscore.Fitness>
12.4774

> <Gold.Chemscore.DG>
-14.7989

> <Gold.Chemscore.ZeroCoef>
-5.4800

> <Gold.Chemscore.Hbond>
0.9693

> <Gold.Chemscore.Metal>
0.0000

> <Gold.Chemscore.Lipo>
90.1137

> <Gold.Chemscore.Internal_Hbond>
0.0000

> <Gold.Chemscore.DEClash>
0.0241

> <Gold.Chemscore.DEInternal>
2.2974

> <Gold.Chemscore.Rot>
1.7429

> <Gold.Chemscore.Internal.Correction>
   9.000000E+99

> <Gold.Chemscore.Hbonds>
donor molecule, donor type, donor heavy atom, donor atom, acceptor molecule, acceptor atom, score
      L1  H     9    25       P1  8028  0.97

> <Gold.Chemscore.Hbond.Weighted>
-3.2373

> <Gold.Chemscore.Metal.Weighted>
-0.0000

> <Gold.Chemscore.Lipo.Weighted>
-10.5433

> <Gold.Chemscore.Internal_Hbond.Weighted>
0.0000

> <Gold.Chemscore.DEClash.Weighted>
0.0241

> <Gold.Chemscore.DEInternal.Weighted>
2.2974

> <Gold.Chemscore.Rot.Weighted>
4.4617

> <Gold.Chemscore.Internal.Correction.Weighted>
   9.000000E+99

> <Gold.Protein.RotatedTorsions>
[ 6907 6896 6895 6894 ] final   62.42 input  -60.11 | X-H torsion
[ 7974 7965 7964 7962 ] final   71.20 input  175.53 | X-H torsion
[ 8008 7997 7996 7995 ] final   36.17 input   59.86 | X-H torsion
[ 10167 10162 10161 10158 ] final  174.47 input  -65.29 | X-H torsion
[ 10718 10713 10712 10709 ] final  -58.88 input   66.30 | X-H torsion
[ 10763 10752 10751 10750 ] final -114.15 input  -60.55 | X-H torsion
[ 11005 11000 10999 10996 ] final  -71.57 input  -57.11 | X-H torsion

> <Gold.Protein.ActiveResidues>
 VAL166  LYS551  ARG553  GLY616  TRP617  ASP618  TYR619  PRO620  LYS621  CYS622 
 ASP623  PHE694  ASN695  SER759  ASP760  ASP761  ALA762  ILE779  LEU786  VAL792 
 PHE793  MET794  SER795  GLU796  ALA797  LYS798  CYS799  TRP800  GLU811  SER814 

> <Gold.Protein.RotatedAtoms>
  152.4170  134.6023  160.0003 H   0  0  0  0  0  0  0  0  0  0  0  0  # atno 6907 bound_to 6896
  151.6183  133.3335  159.3090 H   0  0  0  0  0  0  0  0  0  0  0  0  # atno 6908 bound_to 6896
  150.8059  134.7222  159.6709 H   0  0  0  0  0  0  0  0  0  0  0  0  # atno 6909 bound_to 6896
  145.7687  139.2833  143.1333 H   0  0  0  0  0  0  0  0  0  0  0  0  # atno 7974 bound_to 7965
  155.1831  140.3301  155.4371 H   0  0  0  0  0  0  0  0  0  0  0  0  # atno 8008 bound_to 7997
  156.2469  140.1923  156.6878 H   0  0  0  0  0  0  0  0  0  0  0  0  # atno 8009 bound_to 7997
  154.6258  140.0589  156.9657 H   0  0  0  0  0  0  0  0  0  0  0  0  # atno 8010 bound_to 7997
  139.5143  144.3142  152.0263 H   0  0  0  0  0  0  0  0  0  0  0  0  # atno 10167 bound_to 10162
  156.1102  130.4176  150.0639 H   0  0  0  0  0  0  0  0  0  0  0  0  # atno 10718 bound_to 10713
  154.8428  135.4428  154.1461 H   0  0  0  0  0  0  0  0  0  0  0  0  # atno 10763 bound_to 10752
  153.2634  135.6938  153.7561 H   0  0  0  0  0  0  0  0  0  0  0  0  # atno 10764 bound_to 10752
  153.6829  135.3400  155.3158 H   0  0  0  0  0  0  0  0  0  0  0  0  # atno 10765 bound_to 10752
  141.1594  133.6821  156.6926 H   0  0  0  0  0  0  0  0  0  0  0  0  # atno 11005 bound_to 11000
  146.0191  140.8364  142.9932 LP  0  0  0  0  0  0  0  0  0  0  0  0  # atno 17320 bound_to 7965
  144.6816  140.2603  143.7320 LP  0  0  0  0  0  0  0  0  0  0  0  0  # atno 17321 bound_to 7965
  140.2586  144.4092  150.6194 LP  0  0  0  0  0  0  0  0  0  0  0  0  # atno 17342 bound_to 10162
  140.6173  143.2173  151.6765 LP  0  0  0  0  0  0  0  0  0  0  0  0  # atno 17343 bound_to 10162
  156.8604  130.9490  151.3618 LP  0  0  0  0  0  0  0  0  0  0  0  0  # atno 17370 bound_to 10713
  157.6282  130.8708  149.9227 LP  0  0  0  0  0  0  0  0  0  0  0  0  # atno 17371 bound_to 10713
  140.3019  134.8157  157.4105 LP  0  0  0  0  0  0  0  0  0  0  0  0  # atno 17394 bound_to 11000
  140.1254  134.5164  155.8149 LP  0  0  0  0  0  0  0  0  0  0  0  0  # atno 17395 bound_to 11000

$$$$
