AV-unprocessed.smi:1145|AV-procd|sdf|4883|dock6
  -GOLD-   22720 3453D 1   1.00000     0.00000
 Structure written by MMmdl.
 36 37  0  0  0  0  0  0  0  0  1 V2000
  151.1462  140.6964  158.0248 C   0  0  0  0  0  0  0  0  0  0  0  0
  150.3653  141.7958  157.2921 C   0  0  1  0  0  0  0  0  0  0  0  0
  151.2398  143.0471  157.0618 C   0  0  0  0  0  0  0  0  0  0  0  0
  151.5185  143.7738  158.2880 N   0  0  0  0  0  0  0  0  0  0  0  0
  150.9192  144.9238  158.7576 C   0  0  0  0  0  0  0  0  0  0  0  0
  151.4983  145.2228  159.9572 C   0  0  0  0  0  0  0  0  0  0  0  0
  152.4571  144.1868  160.1367 C   0  0  0  0  0  0  0  0  0  0  0  0
  152.4699  143.3234  159.1340 N   0  0  0  0  0  0  0  0  0  0  0  0
  149.8768  141.2635  156.0203 N   0  0  0  0  0  0  0  0  0  0  0  0
  148.6182  141.3576  155.5617 C   0  0  0  0  0  0  0  0  0  0  0  0
  147.7046  141.8887  156.1939 O   0  0  0  0  0  0  0  0  0  0  0  0
  148.3579  140.7821  154.1637 C   0  0  2  0  0  0  0  0  0  0  0  0
  146.8890  140.9836  153.7574 C   0  0  0  0  0  0  0  0  0  0  0  0
  146.6343  140.4653  152.3329 C   0  0  0  0  0  0  0  0  0  0  0  0
  147.2418  139.0793  152.0695 C   0  0  0  0  0  0  0  0  0  0  0  0
  146.8510  138.4212  151.1081 O   0  0  0  0  0  0  0  0  0  0  0  0
  148.2179  138.6304  152.8781 N   0  0  0  0  0  0  0  0  0  0  0  0
  148.7040  139.2792  154.0961 C   0  0  0  0  0  0  0  0  0  0  0  0
  151.5018  141.0477  158.9939 H   0  0  0  0  0  0  0  0  0  0  0  0
  152.0147  140.3736  157.4495 H   0  0  0  0  0  0  0  0  0  0  0  0
  150.5197  139.8218  158.2028 H   0  0  0  0  0  0  0  0  0  0  0  0
  149.5220  142.0686  157.9293 H   0  0  0  0  0  0  0  0  0  0  0  0
  152.1939  142.7616  156.6160 H   0  0  0  0  0  0  0  0  0  0  0  0
  150.7585  143.7254  156.3558 H   0  0  0  0  0  0  0  0  0  0  0  0
  150.1338  145.4225  158.2091 H   0  0  0  0  0  0  0  0  0  0  0  0
  151.2709  146.0538  160.6084 H   0  0  0  0  0  0  0  0  0  0  0  0
  153.1399  144.0375  160.9602 H   0  0  0  0  0  0  0  0  0  0  0  0
  150.5582  140.8089  155.4300 H   0  0  0  0  0  0  0  0  0  0  0  0
  148.9854  141.3128  153.4448 H   0  0  0  0  0  0  0  0  0  0  0  0
  146.2296  140.4642  154.4549 H   0  0  0  0  0  0  0  0  0  0  0  0
  146.6219  142.0399  153.8120 H   0  0  0  0  0  0  0  0  0  0  0  0
  145.5630  140.4380  152.1315 H   0  0  0  0  0  0  0  0  0  0  0  0
  147.0697  141.1571  151.6114 H   0  0  0  0  0  0  0  0  0  0  0  0
  148.6187  137.7293  152.6606 H   0  0  0  0  0  0  0  0  0  0  0  0
  149.7836  139.1390  154.1578 H   0  0  0  0  0  0  0  0  0  0  0  0
  148.2712  138.7428  154.9420 H   0  0  0  0  0  0  0  0  0  0  0  0
  1  2  1  0  0  0  0
  1 19  1  0  0  0  0
  1 20  1  0  0  0  0
  1 21  1  0  0  0  0
  2  3  1  0  0  0  0
  2  9  1  0  0  0  0
  2 22  1  0  0  0  0
  3  4  1  0  0  0  0
  3 23  1  0  0  0  0
  3 24  1  0  0  0  0
  4  8  1  0  0  0  0
  4  5  1  0  0  0  0
  5  6  2  0  0  0  0
  5 25  1  0  0  0  0
  6  7  1  0  0  0  0
  6 26  1  0  0  0  0
  7  8  2  0  0  0  0
  7 27  1  0  0  0  0
  9 10  1  0  0  0  0
  9 28  1  0  0  0  0
 10 11  2  0  0  0  0
 10 12  1  0  0  0  0
 12 18  1  0  0  0  0
 12 13  1  0  0  0  0
 12 29  1  0  0  0  0
 13 14  1  0  0  0  0
 13 30  1  0  0  0  0
 13 31  1  0  0  0  0
 14 15  1  0  0  0  0
 14 32  1  0  0  0  0
 14 33  1  0  0  0  0
 15 16  2  0  0  0  0
 15 17  1  0  0  0  0
 17 18  1  0  0  0  0
 17 34  1  0  0  0  0
 18 35  1  0  0  0  0
 18 36  1  0  0  0  0
M  END
> <s_m_source_file>
AV-unprocessed.smi

> <i_m_source_file_index>
1145

> <i_lp_mmshare_version>
43012

> <i_f3d_flags>
0

> <s_epik_input>
bjFbY0hdW2NIXVtjSF1uMVtDSDJdW0NAQEhdKFtDSDNdKVtOSF1DKD1PKVtDQEBIXTJbQ0gyXVtDSDJdQyg9TylbTkhdW0NIMl0y

> <s_epik_cmdline>
J2VwaWtfcHl0aG9uJywgJy1waCcsICc3LjAnLCAnLXRuJywgJzgnLCAnLW1hJywgJzIwMCcsICctbWV0YWxfYmluZGluZycsICctaW1hZScsICc8aW5maWxlLm1hZT4nLCAnLW9tYWUnLCAnPG91dGZpbGUubWFlPic=

> <r_lp_tautomer_probability>
1

> <r_epik_Ionization_Penalty>
0.000314064

> <r_epik_Ionization_Penalty_Charging>
0

> <r_epik_Ionization_Penalty_Neutral>
0.000314064

> <r_epik_State_Penalty>
-0

> <r_epik_Charging_Adjusted_Penalty>
0

> <i_epik_Tot_Q>
0

> <i_epik_Tot_abs_Q>
0

> <r_epik_Metal_State_Penalty>
-0

> <b_epik_Metal_Only>
0

> <s_lp_Force_Field>
OPLS_2005

> <r_lp_Energy>
11.8785

> <b_lp_Chiralities_Consistent>
1

> <s_lp_Variant>
AV-unprocessed.smi:1145-2

> <Gold.Version>
5.8.1

> <Gold.Id.Protein>
6NUR|6NUR_protein|mol2

> <Gold.PLP.Fitness>
43.7331

> <Gold.PLP.PLP>
-35.7780

> <Gold.PLP.part.hbond>
-3.0000

> <Gold.PLP.part.metal>
0.0000

> <Gold.PLP.part.buried>
-1.3109

> <Gold.PLP.part.nonpolar>
-33.2349

> <Gold.PLP.part.repulsive>
1.3647

> <Gold.PLP.ligand.clash>
0.0000

> <Gold.PLP.ligand.torsion>
0.4599

> <Gold.PLP.Chemscore.Hbond>
2.0000

> <Gold.PLP.Chemscore.CHOScore>
0.9537

> <Gold.PLP.Chemscore.Metal>
0.0000

> <Gold.Chemscore.Hbonds>
donor molecule, donor type, donor heavy atom, donor atom, acceptor molecule, acceptor atom, score
      L1  H    17    34       P1  7948  1.00
      P1  H  7954  7966       L1    16  1.00
      L1  C     5    25       P1  8028  0.01
      L1  C     5    25       P1  8029  1.00

> <Gold.PLP.Chemscore.Internal.Correction>
0.0137

> <Gold.Rescore>
     Score         DG    S(hbond)    S(metal)    S(lipo)     H(rot)  DE(clash)    DE(int)     intcor
     14.33     -17.43       1.91        0.00      86.97       1.80       2.76       0.34       ----

> <Gold.Chemscore.Fitness>
14.3343

> <Gold.Chemscore.DG>
-17.4295

> <Gold.Chemscore.ZeroCoef>
-5.4800

> <Gold.Chemscore.Hbond>
1.9096

> <Gold.Chemscore.Metal>
0.0000

> <Gold.Chemscore.Lipo>
86.9656

> <Gold.Chemscore.Internal_Hbond>
0.0000

> <Gold.Chemscore.DEClash>
2.7563

> <Gold.Chemscore.DEInternal>
0.3389

> <Gold.Chemscore.Rot>
1.7982

> <Gold.Chemscore.Internal.Correction>
   9.000000E+99

> <Gold.Chemscore.Hbonds>
donor molecule, donor type, donor heavy atom, donor atom, acceptor molecule, acceptor atom, score
      L1  H    17    34       P1  7948  1.00
      P1  H  7954  7966       L1    16  0.91

> <Gold.Chemscore.Hbond.Weighted>
-6.3780

> <Gold.Chemscore.Metal.Weighted>
-0.0000

> <Gold.Chemscore.Lipo.Weighted>
-10.1750

> <Gold.Chemscore.Internal_Hbond.Weighted>
0.0000

> <Gold.Chemscore.DEClash.Weighted>
2.7563

> <Gold.Chemscore.DEInternal.Weighted>
0.3389

> <Gold.Chemscore.Rot.Weighted>
4.6035

> <Gold.Chemscore.Internal.Correction.Weighted>
   9.000000E+99

> <Gold.Protein.RotatedTorsions>
[ 6907 6896 6895 6894 ] final -142.10 input  -60.11 | X-H torsion
[ 7974 7965 7964 7962 ] final  -49.06 input  175.53 | X-H torsion
[ 8008 7997 7996 7995 ] final   33.93 input   59.86 | X-H torsion
[ 10167 10162 10161 10158 ] final  -91.42 input  -65.29 | X-H torsion
[ 10718 10713 10712 10709 ] final -177.98 input   66.30 | X-H torsion
[ 10763 10752 10751 10750 ] final   60.71 input  -60.55 | X-H torsion
[ 11005 11000 10999 10996 ] final -156.05 input  -57.11 | X-H torsion

> <Gold.Protein.ActiveResidues>
 VAL166  LYS551  ARG553  GLY616  TRP617  ASP618  TYR619  PRO620  LYS621  CYS622 
 ASP623  PHE694  ASN695  SER759  ASP760  ASP761  ALA762  ILE779  LEU786  VAL792 
 PHE793  MET794  SER795  GLU796  ALA797  LYS798  CYS799  TRP800  GLU811  SER814 

> <Gold.Protein.RotatedAtoms>
  151.0826  133.5378  159.2619 H   0  0  0  0  0  0  0  0  0  0  0  0  # atno 6907 bound_to 6896
  151.2275  135.0541  159.8984 H   0  0  0  0  0  0  0  0  0  0  0  0  # atno 6908 bound_to 6896
  152.5425  134.0620  159.8210 H   0  0  0  0  0  0  0  0  0  0  0  0  # atno 6909 bound_to 6896
  145.9446  140.7630  142.9535 H   0  0  0  0  0  0  0  0  0  0  0  0  # atno 7974 bound_to 7965
  155.1466  140.3271  155.4440 H   0  0  0  0  0  0  0  0  0  0  0  0  # atno 8008 bound_to 7997
  156.2588  140.1984  156.6529 H   0  0  0  0  0  0  0  0  0  0  0  0  # atno 8009 bound_to 7997
  154.6504  140.0559  156.9935 H   0  0  0  0  0  0  0  0  0  0  0  0  # atno 8010 bound_to 7997
  140.3451  143.2921  151.9791 H   0  0  0  0  0  0  0  0  0  0  0  0  # atno 10167 bound_to 10162
  156.8374  130.9674  151.3102 H   0  0  0  0  0  0  0  0  0  0  0  0  # atno 10718 bound_to 10713
  152.9929  135.5526  154.5918 H   0  0  0  0  0  0  0  0  0  0  0  0  # atno 10763 bound_to 10752
  154.5278  135.2811  155.1209 H   0  0  0  0  0  0  0  0  0  0  0  0  # atno 10764 bound_to 10752
  154.2537  135.6394  153.5302 H   0  0  0  0  0  0  0  0  0  0  0  0  # atno 10765 bound_to 10752
  140.6798  134.4157  157.5227 H   0  0  0  0  0  0  0  0  0  0  0  0  # atno 11005 bound_to 11000
  144.6785  140.2336  143.7352 LP  0  0  0  0  0  0  0  0  0  0  0  0  # atno 17320 bound_to 7965
  145.8253  139.2062  143.1914 LP  0  0  0  0  0  0  0  0  0  0  0  0  # atno 17321 bound_to 7965
  139.4834  144.6124  151.7409 LP  0  0  0  0  0  0  0  0  0  0  0  0  # atno 17342 bound_to 10162
  140.5272  144.0787  150.6041 LP  0  0  0  0  0  0  0  0  0  0  0  0  # atno 17343 bound_to 10162
  157.6374  130.8778  149.9384 LP  0  0  0  0  0  0  0  0  0  0  0  0  # atno 17370 bound_to 10713
  156.0899  130.3664  150.0414 LP  0  0  0  0  0  0  0  0  0  0  0  0  # atno 17371 bound_to 10713
  139.8955  134.8680  156.2127 LP  0  0  0  0  0  0  0  0  0  0  0  0  # atno 17394 bound_to 11000
  141.0327  133.6980  156.1458 LP  0  0  0  0  0  0  0  0  0  0  0  0  # atno 17395 bound_to 11000

$$$$
