AV-unprocessed.smi:2999|AV-procd|sdf|11425|dock9
  -GOLD-   2272016353D 1   1.00000     0.00000
 Structure written by MMmdl.
 37 39  0  0  0  0  0  0  0  0  3 V2000
  149.4224  135.7752  158.9838 O   0  0  0  0  0  0  0  0  0  0  0  0
  149.0881  136.8991  159.3650 C   0  0  0  0  0  0  0  0  0  0  0  0
  149.6993  137.9813  158.8686 N   0  0  0  0  0  0  0  0  0  0  0  0
  150.7564  137.9684  157.8656 C   0  0  0  0  0  0  0  0  0  0  0  0
  151.1245  139.3965  157.4370 C   0  0  2  0  0  0  0  0  0  0  0  0
  151.3613  140.3405  158.6356 C   0  0  0  0  0  0  0  0  0  0  0  0
  151.6389  141.7153  158.1629 N   0  3  2  0  0  0  0  0  0  0  0  0
  151.9150  142.6495  159.2753 C   0  0  0  0  0  0  0  0  0  0  0  0
  152.9871  143.6670  158.9619 C   0  0  0  0  0  0  0  0  0  0  0  0
  153.2962  142.4954  159.8677 C   0  0  0  0  0  0  0  0  0  0  0  0
  150.5511  142.1921  157.2797 C   0  0  0  0  0  0  0  0  0  0  0  0
  150.3317  141.2009  156.1255 C   0  0  0  0  0  0  0  0  0  0  0  0
  150.0514  139.9098  156.6532 O   0  0  0  0  0  0  0  0  0  0  0  0
  148.1277  137.1903  160.2707 N   0  5  0  0  0  0  0  0  0  0  0  0
  147.5355  136.2039  160.9637 C   0  0  0  0  0  0  0  0  0  0  0  0
  147.0615  135.0925  160.3889 N   0  0  0  0  0  0  0  0  0  0  0  0
  146.4774  134.2051  161.2949 C   0  0  0  0  0  0  0  0  0  0  0  0
  146.4996  134.6552  162.5883 C   0  0  0  0  0  0  0  0  0  0  0  0
  147.2609  136.2156  162.7083 S   0  0  0  0  0  0  0  0  0  0  0  0
  149.3992  138.8814  159.2131 H   0  0  0  0  0  0  0  0  0  0  0  0
  151.6296  137.4668  158.2848 H   0  0  0  0  0  0  0  0  0  0  0  0
  150.4413  137.3896  156.9957 H   0  0  0  0  0  0  0  0  0  0  0  0
  152.0238  139.3547  156.8189 H   0  0  0  0  0  0  0  0  0  0  0  0
  150.4867  140.3483  159.2885 H   0  0  0  0  0  0  0  0  0  0  0  0
  152.2031  139.9902  159.2342 H   0  0  0  0  0  0  0  0  0  0  0  0
  151.0694  142.9128  159.9085 H   0  0  0  0  0  0  0  0  0  0  0  0
  153.4288  143.6619  157.9670 H   0  0  0  0  0  0  0  0  0  0  0  0
  152.9004  144.6468  159.4270 H   0  0  0  0  0  0  0  0  0  0  0  0
  153.4122  142.7028  160.9296 H   0  0  0  0  0  0  0  0  0  0  0  0
  153.9413  141.7117  159.4745 H   0  0  0  0  0  0  0  0  0  0  0  0
  149.6319  142.3027  157.8572 H   0  0  0  0  0  0  0  0  0  0  0  0
  150.8014  143.1762  156.8824 H   0  0  0  0  0  0  0  0  0  0  0  0
  149.4913  141.5208  155.5096 H   0  0  0  0  0  0  0  0  0  0  0  0
  151.2064  141.1598  155.4744 H   0  0  0  0  0  0  0  0  0  0  0  0
  146.0677  133.2751  160.9301 H   0  0  0  0  0  0  0  0  0  0  0  0
  146.1158  134.1687  163.4723 H   0  0  0  0  0  0  0  0  0  0  0  0
  152.4772  141.6688  157.6015 H   0  0  0  0  0  0  0  0  0  0  0  0
  1  2  2  0  0  0  0
  2  3  1  0  0  0  0
  2 14  1  0  0  0  0
  3  4  1  0  0  0  0
  3 20  1  0  0  0  0
  4  5  1  0  0  0  0
  4 21  1  0  0  0  0
  4 22  1  0  0  0  0
  5 13  1  0  0  0  0
  5  6  1  0  0  0  0
  5 23  1  0  0  0  0
  6  7  1  0  0  0  0
  6 24  1  0  0  0  0
  6 25  1  0  0  0  0
  7  8  1  0  0  0  0
  7 11  1  0  0  0  0
  7 37  1  0  0  0  0
  8 10  1  0  0  0  0
  8  9  1  0  0  0  0
  8 26  1  0  0  0  0
  9 10  1  0  0  0  0
  9 27  1  0  0  0  0
  9 28  1  0  0  0  0
 10 29  1  0  0  0  0
 10 30  1  0  0  0  0
 11 12  1  0  0  0  0
 11 31  1  0  0  0  0
 11 32  1  0  0  0  0
 12 13  1  0  0  0  0
 12 33  1  0  0  0  0
 12 34  1  0  0  0  0
 14 15  1  0  0  0  0
 15 19  1  0  0  0  0
 15 16  2  0  0  0  0
 16 17  1  0  0  0  0
 17 18  2  0  0  0  0
 17 35  1  0  0  0  0
 18 19  1  0  0  0  0
 18 36  1  0  0  0  0
M  CHG  1   7   1
M  CHG  1  14  -1
M  END
> <s_m_source_file>
AV-unprocessed.smi

> <i_m_source_file_index>
2999

> <i_lp_mmshare_version>
43012

> <i_f3d_flags>
0

> <s_epik_input>
czFbY0hdW2NIXW5jMVtOSF1DKD1PKVtOSF1bQ0gyXVtDQEBIXTJbQ0gyXU4oW0NIMl1bQ0gyXU8yKVtDSF0zW0NIMl1bQ0gyXTM=

> <s_epik_cmdline>
J2VwaWtfcHl0aG9uJywgJy1waCcsICc3LjAnLCAnLXRuJywgJzgnLCAnLW1hJywgJzIwMCcsICctbWV0YWxfYmluZGluZycsICctaW1hZScsICc8aW5maWxlLm1hZT4nLCAnLW9tYWUnLCAnPG91dGZpbGUubWFlPic=

> <r_lp_tautomer_probability>
0.999

> <r_epik_Ionization_Penalty>
7.79196

> <r_epik_Ionization_Penalty_Charging>
6.93299

> <r_epik_Ionization_Penalty_Neutral>
0.858963

> <r_epik_State_Penalty>
7.05108

> <r_epik_Charging_Adjusted_Penalty>
13.9841

> <i_epik_Tot_Q>
0

> <i_epik_Tot_abs_Q>
2

> <r_epik_Metal_State_Penalty>
3.05936

> <b_epik_Metal_Only>
1

> <s_lp_Force_Field>
OPLS_2005

> <r_lp_Energy>
14.1159

> <b_lp_Chiralities_Consistent>
1

> <s_lp_Variant>
AV-unprocessed.smi:2999-9

> <Gold.Version>
5.8.1

> <Gold.Id.Protein>
6NUR|6NUR_protein|mol2

> <Gold.PLP.Fitness>
47.3229

> <Gold.PLP.PLP>
-38.1279

> <Gold.PLP.part.hbond>
-3.0000

> <Gold.PLP.part.metal>
0.0000

> <Gold.PLP.part.buried>
-5.1586

> <Gold.PLP.part.nonpolar>
-31.8045

> <Gold.PLP.part.repulsive>
0.2948

> <Gold.PLP.ligand.clash>
0.0000

> <Gold.PLP.ligand.torsion>
1.1360

> <Gold.PLP.Chemscore.Hbond>
3.3994

> <Gold.PLP.Chemscore.CHOScore>
0.0000

> <Gold.PLP.Chemscore.Metal>
0.0000

> <Gold.Chemscore.Hbonds>
donor molecule, donor type, donor heavy atom, donor atom, acceptor molecule, acceptor atom, score
      P1  H  6896  6909       L1     1  1.00
      P1  H  6931  6943       L1    14  1.01
      P1  H  6934  6947       L1    14  0.94

> <Gold.PLP.Chemscore.Internal.Correction>
1.2687

> <Gold.Rescore>
     Score         DG    S(hbond)    S(metal)    S(lipo)     H(rot)  DE(clash)    DE(int)     intcor
     14.67     -17.13       1.58        0.00      88.27       1.55       0.01       2.45       ----

> <Gold.Chemscore.Fitness>
14.6701

> <Gold.Chemscore.DG>
-17.1295

> <Gold.Chemscore.ZeroCoef>
-5.4800

> <Gold.Chemscore.Hbond>
1.5842

> <Gold.Chemscore.Metal>
0.0000

> <Gold.Chemscore.Lipo>
88.2677

> <Gold.Chemscore.Internal_Hbond>
0.0000

> <Gold.Chemscore.DEClash>
0.0050

> <Gold.Chemscore.DEInternal>
2.4543

> <Gold.Chemscore.Rot>
1.5504

> <Gold.Chemscore.Internal.Correction>
   9.000000E+99

> <Gold.Chemscore.Hbonds>
donor molecule, donor type, donor heavy atom, donor atom, acceptor molecule, acceptor atom, score
      P1  H  6896  6909       L1     1  1.00
      P1  H  6931  6943       L1    14  0.08
      P1  H  6934  6947       L1    14  0.29

> <Gold.Chemscore.Hbond.Weighted>
-5.2912

> <Gold.Chemscore.Metal.Weighted>
-0.0000

> <Gold.Chemscore.Lipo.Weighted>
-10.3273

> <Gold.Chemscore.Internal_Hbond.Weighted>
0.0000

> <Gold.Chemscore.DEClash.Weighted>
0.0050

> <Gold.Chemscore.DEInternal.Weighted>
2.4543

> <Gold.Chemscore.Rot.Weighted>
3.9690

> <Gold.Chemscore.Internal.Correction.Weighted>
   9.000000E+99

> <Gold.Protein.RotatedTorsions>
[ 6907 6896 6895 6894 ] final   64.37 input  -60.11 | X-H torsion
[ 7974 7965 7964 7962 ] final  140.84 input  175.53 | X-H torsion
[ 8008 7997 7996 7995 ] final  119.74 input   59.86 | X-H torsion
[ 10167 10162 10161 10158 ] final  -60.03 input  -65.29 | X-H torsion
[ 10718 10713 10712 10709 ] final -125.99 input   66.30 | X-H torsion
[ 10763 10752 10751 10750 ] final   15.43 input  -60.55 | X-H torsion
[ 11005 11000 10999 10996 ] final -108.58 input  -57.11 | X-H torsion

> <Gold.Protein.ActiveResidues>
 VAL166  LYS551  ARG553  GLY616  TRP617  ASP618  TYR619  PRO620  LYS621  CYS622 
 ASP623  PHE694  ASN695  SER759  ASP760  ASP761  ALA762  ILE779  LEU786  VAL792 
 PHE793  MET794  SER795  GLU796  ALA797  LYS798  CYS799  TRP800  GLU811  SER814 

> <Gold.Protein.RotatedAtoms>
  152.4326  134.5748  159.9931 H   0  0  0  0  0  0  0  0  0  0  0  0  # atno 6907 bound_to 6896
  151.5867  133.3365  159.3027 H   0  0  0  0  0  0  0  0  0  0  0  0  # atno 6908 bound_to 6896
  150.8220  134.7469  159.6845 H   0  0  0  0  0  0  0  0  0  0  0  0  # atno 6909 bound_to 6896
  144.9150  139.5243  143.5690 H   0  0  0  0  0  0  0  0  0  0  0  0  # atno 7974 bound_to 7965
  156.2610  140.2846  156.1040 H   0  0  0  0  0  0  0  0  0  0  0  0  # atno 8008 bound_to 7997
  155.1329  140.0394  157.2797 H   0  0  0  0  0  0  0  0  0  0  0  0  # atno 8009 bound_to 7997
  154.6586  140.2561  155.7140 H   0  0  0  0  0  0  0  0  0  0  0  0  # atno 8010 bound_to 7997
  140.6098  143.2384  151.5737 H   0  0  0  0  0  0  0  0  0  0  0  0  # atno 10167 bound_to 10162
  156.1725  130.6677  151.0199 H   0  0  0  0  0  0  0  0  0  0  0  0  # atno 10718 bound_to 10713
  153.1526  135.6781  153.8859 H   0  0  0  0  0  0  0  0  0  0  0  0  # atno 10763 bound_to 10752
  153.8280  135.3121  155.3417 H   0  0  0  0  0  0  0  0  0  0  0  0  # atno 10764 bound_to 10752
  154.7874  135.4854  154.0063 H   0  0  0  0  0  0  0  0  0  0  0  0  # atno 10765 bound_to 10752
  141.0894  133.9082  157.2111 H   0  0  0  0  0  0  0  0  0  0  0  0  # atno 11005 bound_to 11000
  146.3177  139.7985  142.8970 LP  0  0  0  0  0  0  0  0  0  0  0  0  # atno 17320 bound_to 7965
  145.3391  141.0283  143.3403 LP  0  0  0  0  0  0  0  0  0  0  0  0  # atno 17321 bound_to 7965
  139.5352  144.2801  152.1236 LP  0  0  0  0  0  0  0  0  0  0  0  0  # atno 17342 bound_to 10162
  140.1998  144.4669  150.6437 LP  0  0  0  0  0  0  0  0  0  0  0  0  # atno 17343 bound_to 10162
  157.6813  131.0837  150.7363 LP  0  0  0  0  0  0  0  0  0  0  0  0  # atno 17370 bound_to 10713
  156.7421  130.4742  149.5475 LP  0  0  0  0  0  0  0  0  0  0  0  0  # atno 17371 bound_to 10713
  139.9717  135.0126  156.9529 LP  0  0  0  0  0  0  0  0  0  0  0  0  # atno 17394 bound_to 11000
  140.5288  134.0834  155.7310 LP  0  0  0  0  0  0  0  0  0  0  0  0  # atno 17395 bound_to 11000

$$$$
