AV-unprocessed.smi:159|AV-procd|sdf|1341|dock6
  -GOLD-   2262019 43D 1   1.00000     0.00000
 Structure written by MMmdl.
 28 29  0  0  0  0  0  0  0  0  1 V2000
  151.4250  139.6771  154.7811 N   0  0  0  0  0  0  0  0  0  0  0  0
  151.4990  140.5077  155.8303 C   0  0  0  0  0  0  0  0  0  0  0  0
  150.7539  141.7456  155.8336 C   0  0  0  0  0  0  0  0  0  0  0  0
  150.8790  142.5317  156.9254 C   0  0  0  0  0  0  0  0  0  0  0  0
  151.6910  142.1850  157.9993 N   0  0  0  0  0  0  0  0  0  0  0  0
  151.8200  143.0528  159.2375 C   0  0  1  0  0  0  0  0  0  0  0  0
  152.4227  144.4268  158.8867 C   0  0  0  0  0  0  0  0  0  0  0  0
  151.4083  145.3914  159.4694 C   0  0  0  0  0  0  0  0  0  0  0  0
  150.1141  144.5919  159.3706 C   0  0  2  0  0  0  0  0  0  0  0  0
  149.0019  145.0974  160.2991 C   0  0  0  0  0  0  0  0  0  0  0  0
  148.0137  144.1008  160.4476 O   0  0  0  0  0  0  0  0  0  0  0  0
  150.5555  143.3027  159.7800 O   0  0  0  0  0  0  0  0  0  0  0  0
  152.3958  140.9570  157.9706 C   0  0  0  0  0  0  0  0  0  0  0  0
  153.1069  140.5982  158.9087 O   0  0  0  0  0  0  0  0  0  0  0  0
  152.2581  140.1745  156.8557 N   0  0  0  0  0  0  0  0  0  0  0  0
  152.4121  142.4691  159.9451 H   0  0  0  0  0  0  0  0  0  0  0  0
  149.7806  144.5726  158.3310 H   0  0  0  0  0  0  0  0  0  0  0  0
  151.9449  138.8116  154.7827 H   0  0  0  0  0  0  0  0  0  0  0  0
  150.8495  139.9213  153.9881 H   0  0  0  0  0  0  0  0  0  0  0  0
  150.1163  142.0577  155.0187 H   0  0  0  0  0  0  0  0  0  0  0  0
  150.3157  143.4524  156.9296 H   0  0  0  0  0  0  0  0  0  0  0  0
  153.4180  144.5400  159.3171 H   0  0  0  0  0  0  0  0  0  0  0  0
  152.4868  144.5500  157.8045 H   0  0  0  0  0  0  0  0  0  0  0  0
  151.6486  145.5990  160.5132 H   0  0  0  0  0  0  0  0  0  0  0  0
  151.3666  146.3395  158.9327 H   0  0  0  0  0  0  0  0  0  0  0  0
  149.3977  145.3898  161.2722 H   0  0  0  0  0  0  0  0  0  0  0  0
  148.5213  145.9747  159.8653 H   0  0  0  0  0  0  0  0  0  0  0  0
  147.2397  144.3727  159.9786 H   0  0  0  0  0  0  0  0  0  0  0  0
  1  2  1  0  0  0  0
  1 18  1  0  0  0  0
  1 19  1  0  0  0  0
  2 15  2  0  0  0  0
  2  3  1  0  0  0  0
  3  4  2  0  0  0  0
  3 20  1  0  0  0  0
  4  5  1  0  0  0  0
  4 21  1  0  0  0  0
  5  6  1  0  0  0  0
  5 13  1  0  0  0  0
  6 16  1  0  0  0  0
  6 12  1  0  0  0  0
  6  7  1  0  0  0  0
  7  8  1  0  0  0  0
  7 22  1  0  0  0  0
  7 23  1  0  0  0  0
  8  9  1  0  0  0  0
  8 24  1  0  0  0  0
  8 25  1  0  0  0  0
  9 17  1  0  0  0  0
  9 10  1  0  0  0  0
  9 12  1  0  0  0  0
 10 11  1  0  0  0  0
 10 26  1  0  0  0  0
 10 27  1  0  0  0  0
 11 28  1  0  0  0  0
 13 14  2  0  0  0  0
 13 15  1  0  0  0  0
M  END
> <s_m_source_file>
AV-unprocessed.smi

> <i_m_source_file_index>
159

> <i_lp_mmshare_version>
43012

> <i_f3d_flags>
0

> <s_epik_input>
W05IMl1jMVtjSF1bY0hdbihjKD1PKW4xKVtDQEhdMltDSDJdW0NIMl1bQ0BIXShPMilbQ0gyXVtPSF0=

> <s_epik_cmdline>
J2VwaWtfcHl0aG9uJywgJy1waCcsICc3LjAnLCAnLXRuJywgJzgnLCAnLW1hJywgJzIwMCcsICctbWV0YWxfYmluZGluZycsICctaW1hZScsICc8aW5maWxlLm1hZT4nLCAnLW9tYWUnLCAnPG91dGZpbGUubWFlPic=

> <r_lp_tautomer_probability>
0.99996

> <r_epik_Ionization_Penalty>
0.00126102

> <r_epik_Ionization_Penalty_Charging>
4.46248e-08

> <r_epik_Ionization_Penalty_Neutral>
0.00126097

> <r_epik_State_Penalty>
1.15523e-05

> <r_epik_Charging_Adjusted_Penalty>
1.1597e-05

> <i_epik_Tot_Q>
0

> <i_epik_Tot_abs_Q>
0

> <r_epik_Metal_State_Penalty>
-0

> <b_epik_Metal_Only>
0

> <s_epik_Chemistry_Notes>
This compound contains an acetal/aminal-like group ( X-CH(R)-Y where X, Y are N, S, or O) that may be acid/base labile, releasing an aldehyde.

> <s_lp_Force_Field>
OPLS_2005

> <r_lp_Energy>
23.8036

> <b_lp_Chiralities_Consistent>
1

> <s_lp_Variant>
AV-unprocessed.smi:159-3

> <Gold.Version>
5.8.1

> <Gold.Id.Protein>
6NUR|6NUR_protein|mol2

> <Gold.PLP.Fitness>
41.7342

> <Gold.PLP.PLP>
-32.9628

> <Gold.PLP.part.hbond>
-3.0000

> <Gold.PLP.part.metal>
0.0000

> <Gold.PLP.part.buried>
-6.2443

> <Gold.PLP.part.nonpolar>
-23.5809

> <Gold.PLP.part.repulsive>
0.8276

> <Gold.PLP.ligand.clash>
0.0000

> <Gold.PLP.ligand.torsion>
0.1204

> <Gold.PLP.Chemscore.Hbond>
2.0000

> <Gold.PLP.Chemscore.CHOScore>
0.9961

> <Gold.PLP.Chemscore.Metal>
0.0000

> <Gold.Chemscore.Hbonds>
donor molecule, donor type, donor heavy atom, donor atom, acceptor molecule, acceptor atom, score
      P1  H  6933  6944       L1    11  0.93
      P1  H  7997  8009       L1    15  0.48
      L1  C     4    21       P1  8028  1.00

> <Gold.PLP.Chemscore.Internal.Correction>
0.0241

> <Gold.Rescore>
     Score         DG    S(hbond)    S(metal)    S(lipo)     H(rot)  DE(clash)    DE(int)     intcor
     10.37     -10.63       1.17        0.00      56.34       2.09       0.14       0.13       ----

> <Gold.Chemscore.Fitness>
10.3676

> <Gold.Chemscore.DG>
-10.6345

> <Gold.Chemscore.ZeroCoef>
-5.4800

> <Gold.Chemscore.Hbond>
1.1743

> <Gold.Chemscore.Metal>
0.0000

> <Gold.Chemscore.Lipo>
56.3401

> <Gold.Chemscore.Internal_Hbond>
0.0000

> <Gold.Chemscore.DEClash>
0.1415

> <Gold.Chemscore.DEInternal>
0.1254

> <Gold.Chemscore.Rot>
2.0935

> <Gold.Chemscore.Internal.Correction>
   9.000000E+99

> <Gold.Chemscore.Hbonds>
donor molecule, donor type, donor heavy atom, donor atom, acceptor molecule, acceptor atom, score
      P1  H  6933  6944       L1    11  0.84
      P1  H  7997  8009       L1    15  0.03

> <Gold.Chemscore.Hbond.Weighted>
-3.9221

> <Gold.Chemscore.Metal.Weighted>
-0.0000

> <Gold.Chemscore.Lipo.Weighted>
-6.5918

> <Gold.Chemscore.Internal_Hbond.Weighted>
0.0000

> <Gold.Chemscore.DEClash.Weighted>
0.1415

> <Gold.Chemscore.DEInternal.Weighted>
0.1254

> <Gold.Chemscore.Rot.Weighted>
5.3594

> <Gold.Chemscore.Internal.Correction.Weighted>
   9.000000E+99

> <Gold.Protein.RotatedTorsions>
[ 6907 6896 6895 6894 ] final  152.66 input  -60.11 | X-H torsion
[ 7974 7965 7964 7962 ] final  -39.69 input  175.53 | X-H torsion
[ 8008 7997 7996 7995 ] final -174.62 input   59.86 | X-H torsion
[ 10167 10162 10161 10158 ] final -103.51 input  -65.29 | X-H torsion
[ 10718 10713 10712 10709 ] final  165.33 input   66.30 | X-H torsion
[ 10763 10752 10751 10750 ] final  175.87 input  -60.55 | X-H torsion
[ 11005 11000 10999 10996 ] final  127.17 input  -57.11 | X-H torsion

> <Gold.Protein.ActiveResidues>
 VAL166  LYS551  ARG553  GLY616  TRP617  ASP618  TYR619  PRO620  LYS621  CYS622 
 ASP623  PHE694  ASN695  SER759  ASP760  ASP761  ALA762  ILE779  LEU786  VAL792 
 PHE793  MET794  SER795  GLU796  ALA797  LYS798  CYS799  TRP800  GLU811  SER814 

> <Gold.Protein.RotatedAtoms>
  152.0837  133.4165  159.4512 H   0  0  0  0  0  0  0  0  0  0  0  0  # atno 6907 bound_to 6896
  150.6862  134.2953  159.4693 H   0  0  0  0  0  0  0  0  0  0  0  0  # atno 6908 bound_to 6896
  152.0797  134.9479  160.0624 H   0  0  0  0  0  0  0  0  0  0  0  0  # atno 6909 bound_to 6896
  146.0373  140.6655  142.9104 H   0  0  0  0  0  0  0  0  0  0  0  0  # atno 7974 bound_to 7965
  155.9724  140.1165  157.0800 H   0  0  0  0  0  0  0  0  0  0  0  0  # atno 8008 bound_to 7997
  154.4160  140.1160  156.5392 H   0  0  0  0  0  0  0  0  0  0  0  0  # atno 8009 bound_to 7997
  155.6579  140.3473  155.4774 H   0  0  0  0  0  0  0  0  0  0  0  0  # atno 8010 bound_to 7997
  140.2193  143.3688  152.0984 H   0  0  0  0  0  0  0  0  0  0  0  0  # atno 10167 bound_to 10162
  157.0816  131.0393  151.2573 H   0  0  0  0  0  0  0  0  0  0  0  0  # atno 10718 bound_to 10713
  154.4735  135.2772  155.1625 H   0  0  0  0  0  0  0  0  0  0  0  0  # atno 10763 bound_to 10752
  154.3364  135.6179  153.5579 H   0  0  0  0  0  0  0  0  0  0  0  0  # atno 10764 bound_to 10752
  152.9867  135.5778  154.5121 H   0  0  0  0  0  0  0  0  0  0  0  0  # atno 10765 bound_to 10752
  139.9494  134.9624  156.8816 H   0  0  0  0  0  0  0  0  0  0  0  0  # atno 11005 bound_to 11000
  144.7058  140.3844  143.7119 LP  0  0  0  0  0  0  0  0  0  0  0  0  # atno 17320 bound_to 7965
  145.6943  139.1646  143.2629 LP  0  0  0  0  0  0  0  0  0  0  0  0  # atno 17321 bound_to 7965
  139.5150  144.6957  151.5638 LP  0  0  0  0  0  0  0  0  0  0  0  0  # atno 17342 bound_to 10162
  140.6267  143.9155  150.6570 LP  0  0  0  0  0  0  0  0  0  0  0  0  # atno 17343 bound_to 10162
  157.4795  130.7756  149.7400 LP  0  0  0  0  0  0  0  0  0  0  0  0  # atno 17370 bound_to 10713
  155.9922  130.3932  150.2952 LP  0  0  0  0  0  0  0  0  0  0  0  0  # atno 17371 bound_to 10713
  140.5756  134.0401  155.7446 LP  0  0  0  0  0  0  0  0  0  0  0  0  # atno 17394 bound_to 11000
  141.1153  133.9550  157.2834 LP  0  0  0  0  0  0  0  0  0  0  0  0  # atno 17395 bound_to 11000

$$$$
