AV-unprocessed.smi:171|AV-procd|sdf|1418|dock1
  -GOLD-   2262019183D 1   1.00000     0.00000
 Structure written by MMmdl.
 56 59  0  0  0  0  0  0  0  0  1 V2000
  145.6281  135.5459  162.3516 C   0  0  0  0  0  0  0  0  0  0  0  0
  144.9953  136.0107  161.0293 C   0  0  0  0  0  0  0  0  0  0  0  0
  143.7523  136.8697  161.3111 C   0  0  0  0  0  0  0  0  0  0  0  0
  144.6461  134.8310  160.0825 C   0  0  0  0  0  0  0  0  0  0  0  0
  144.8324  135.0839  158.5576 C   0  0  2  0  0  0  0  0  0  0  0  0
  143.8163  134.3070  157.6896 C   0  0  0  0  0  0  0  0  0  0  0  0
  142.6251  134.3075  157.9946 O   0  0  0  0  0  0  0  0  0  0  0  0
  144.2500  133.6641  156.5916 N   0  0  0  0  0  0  0  0  0  0  0  0
  145.6377  133.5955  156.1429 C   0  0  0  0  0  0  0  0  0  0  0  0
  146.4939  134.7307  156.7208 C   0  0  0  0  0  0  0  0  0  0  0  0
  146.2304  134.8710  158.1465 N   0  0  0  0  0  0  0  0  0  0  0  0
  147.1698  135.6079  158.7803 C   0  0  0  0  0  0  0  0  0  0  0  0
  147.4883  135.3420  160.0737 N   0  0  0  0  0  0  0  0  0  0  0  0
  148.4354  136.0605  160.6853 C   0  0  0  0  0  0  0  0  0  0  0  0
  149.1707  137.0624  160.1966 N   0  0  0  0  0  0  0  0  0  0  0  0
  148.8462  137.3292  158.8985 C   0  0  0  0  0  0  0  0  0  0  0  0
  147.8566  136.6621  158.1260 C   0  0  0  0  0  0  0  0  0  0  0  0
  147.7961  137.2050  156.8496 N   0  0  0  0  0  0  0  0  0  0  0  0
  148.7097  138.1366  156.8617 C   0  0  0  0  0  0  0  0  0  0  0  0
  149.3966  138.2716  158.0476 N   0  0  0  0  0  0  0  0  0  0  0  0
  150.4705  139.2103  158.3272 C   0  0  0  0  0  0  0  0  0  0  0  0
  151.4863  139.3382  157.1669 C   0  0  1  0  0  0  0  0  0  0  0  0
  152.6234  140.0437  157.6376 O   0  0  0  0  0  0  0  0  0  0  0  0
  151.9494  138.0073  156.5933 C   0  0  0  0  0  0  0  0  0  0  0  0
  152.4061  138.3916  155.1911 C   0  0  0  0  0  0  0  0  0  0  0  0
  151.5143  139.4212  154.7821 O   0  0  0  0  0  0  0  0  0  0  0  0
  150.8945  140.0242  155.9174 C   0  0  2  0  0  0  0  0  0  0  0  0
  151.0022  141.5561  155.8580 C   0  0  0  0  0  0  0  0  0  0  0  0
  144.9727  134.8578  162.8863 H   0  0  0  0  0  0  0  0  0  0  0  0
  145.8249  136.3928  163.0095 H   0  0  0  0  0  0  0  0  0  0  0  0
  146.5805  135.0434  162.1898 H   0  0  0  0  0  0  0  0  0  0  0  0
  145.7147  136.6660  160.5395 H   0  0  0  0  0  0  0  0  0  0  0  0
  142.9722  136.2890  161.8042 H   0  0  0  0  0  0  0  0  0  0  0  0
  143.3361  137.2746  160.3878 H   0  0  0  0  0  0  0  0  0  0  0  0
  143.9961  137.7158  161.9543 H   0  0  0  0  0  0  0  0  0  0  0  0
  145.2008  133.9425  160.3875 H   0  0  0  0  0  0  0  0  0  0  0  0
  143.6041  134.5510  160.2417 H   0  0  0  0  0  0  0  0  0  0  0  0
  144.5937  136.1323  158.3713 H   0  0  0  0  0  0  0  0  0  0  0  0
  143.5663  133.1731  156.0338 H   0  0  0  0  0  0  0  0  0  0  0  0
  146.0415  132.6331  156.4596 H   0  0  0  0  0  0  0  0  0  0  0  0
  145.6705  133.6096  155.0534 H   0  0  0  0  0  0  0  0  0  0  0  0
  147.5502  134.5276  156.5351 H   0  0  0  0  0  0  0  0  0  0  0  0
  146.2558  135.6708  156.2202 H   0  0  0  0  0  0  0  0  0  0  0  0
  148.6370  135.7905  161.7114 H   0  0  0  0  0  0  0  0  0  0  0  0
  148.9167  138.7483  155.9956 H   0  0  0  0  0  0  0  0  0  0  0  0
  150.0181  140.1793  158.5417 H   0  0  0  0  0  0  0  0  0  0  0  0
  150.9756  138.9004  159.2430 H   0  0  0  0  0  0  0  0  0  0  0  0
  152.3269  140.7815  158.1484 H   0  0  0  0  0  0  0  0  0  0  0  0
  152.7303  137.5213  157.1804 H   0  0  0  0  0  0  0  0  0  0  0  0
  151.1076  137.3176  156.5190 H   0  0  0  0  0  0  0  0  0  0  0  0
  153.4202  138.7924  155.2151 H   0  0  0  0  0  0  0  0  0  0  0  0
  152.3906  137.5499  154.4982 H   0  0  0  0  0  0  0  0  0  0  0  0
  149.8397  139.7562  155.8435 H   0  0  0  0  0  0  0  0  0  0  0  0
  150.5340  142.0154  156.7288 H   0  0  0  0  0  0  0  0  0  0  0  0
  150.5013  141.9426  154.9702 H   0  0  0  0  0  0  0  0  0  0  0  0
  152.0400  141.8873  155.8178 H   0  0  0  0  0  0  0  0  0  0  0  0
  1  2  1  0  0  0  0
  1 29  1  0  0  0  0
  1 30  1  0  0  0  0
  1 31  1  0  0  0  0
  2  3  1  0  0  0  0
  2  4  1  0  0  0  0
  2 32  1  0  0  0  0
  3 33  1  0  0  0  0
  3 34  1  0  0  0  0
  3 35  1  0  0  0  0
  4  5  1  0  0  0  0
  4 36  1  0  0  0  0
  4 37  1  0  0  0  0
  5 11  1  0  0  0  0
  5  6  1  0  0  0  0
  5 38  1  0  0  0  0
  6  7  2  0  0  0  0
  6  8  1  0  0  0  0
  8  9  1  0  0  0  0
  8 39  1  0  0  0  0
  9 10  1  0  0  0  0
  9 40  1  0  0  0  0
  9 41  1  0  0  0  0
 10 11  1  0  0  0  0
 10 42  1  0  0  0  0
 10 43  1  0  0  0  0
 11 12  1  0  0  0  0
 12 17  1  0  0  0  0
 12 13  2  0  0  0  0
 13 14  1  0  0  0  0
 14 15  2  0  0  0  0
 14 44  1  0  0  0  0
 15 16  1  0  0  0  0
 16 20  1  0  0  0  0
 16 17  2  0  0  0  0
 17 18  1  0  0  0  0
 18 19  2  0  0  0  0
 19 20  1  0  0  0  0
 19 45  1  0  0  0  0
 20 21  1  0  0  0  0
 21 22  1  0  0  0  0
 21 46  1  0  0  0  0
 21 47  1  0  0  0  0
 22 27  1  0  0  0  0
 22 23  1  0  0  0  0
 22 24  1  0  0  0  0
 23 48  1  0  0  0  0
 24 25  1  0  0  0  0
 24 49  1  0  0  0  0
 24 50  1  0  0  0  0
 25 26  1  0  0  0  0
 25 51  1  0  0  0  0
 25 52  1  0  0  0  0
 26 27  1  0  0  0  0
 27 28  1  0  0  0  0
 27 53  1  0  0  0  0
 28 54  1  0  0  0  0
 28 55  1  0  0  0  0
 28 56  1  0  0  0  0
M  END
> <s_m_source_file>
AV-unprocessed.smi

> <i_m_source_file_index>
171

> <i_lp_mmshare_version>
43012

> <i_f3d_flags>
0

> <s_epik_input>
W0NIM11bQ0hdKFtDSDNdKVtDSDJdW0NAQEhdMUMoPU8pW05IXVtDSDJdW0NIMl1OMWMobltjSF1uMiljKGMyMyluW2NIXW4zW0NIMl1bQ0BAXTQoW09IXSlbQ0gyXVtDSDJdT1tDQEhdNFtDSDNd

> <s_epik_cmdline>
J2VwaWtfcHl0aG9uJywgJy1waCcsICc3LjAnLCAnLXRuJywgJzgnLCAnLW1hJywgJzIwMCcsICctbWV0YWxfYmluZGluZycsICctaW1hZScsICc8aW5maWxlLm1hZT4nLCAnLW9tYWUnLCAnPG91dGZpbGUubWFlPic=

> <r_lp_tautomer_probability>
1

> <r_epik_Ionization_Penalty>
0.000670584

> <r_epik_Ionization_Penalty_Charging>
0

> <r_epik_Ionization_Penalty_Neutral>
0.000670584

> <r_epik_State_Penalty>
0.000304767

> <r_epik_Charging_Adjusted_Penalty>
0.000304767

> <i_epik_Tot_Q>
0

> <i_epik_Tot_abs_Q>
0

> <r_epik_Metal_State_Penalty>
-0

> <b_epik_Metal_Only>
0

> <s_lp_Force_Field>
OPLS_2005

> <r_lp_Energy>
41.3949

> <b_lp_Chiralities_Consistent>
1

> <s_lp_Variant>
AV-unprocessed.smi:171-5

> <Gold.Version>
5.8.1

> <Gold.Id.Protein>
6NUR|6NUR_protein|mol2

> <Gold.PLP.Fitness>
37.4526

> <Gold.PLP.PLP>
-27.7026

> <Gold.PLP.part.hbond>
-5.0000

> <Gold.PLP.part.metal>
0.0000

> <Gold.PLP.part.buried>
-6.4992

> <Gold.PLP.part.nonpolar>
-16.4674

> <Gold.PLP.part.repulsive>
0.1214

> <Gold.PLP.ligand.clash>
0.0041

> <Gold.PLP.ligand.torsion>
1.6157

> <Gold.PLP.Chemscore.Hbond>
4.1834

> <Gold.PLP.Chemscore.CHOScore>
0.0000

> <Gold.PLP.Chemscore.Metal>
0.0000

> <Gold.Chemscore.Hbonds>
donor molecule, donor type, donor heavy atom, donor atom, acceptor molecule, acceptor atom, score
      L1  H     8    39       P1 10957  0.93
      P1  H  6931  6943       L1    15  0.42
      P1  H  7989  7998       L1    26  1.00
      P1  H  7997  8009       L1    23  1.00
      P1  H 11000 11005       L1     7  0.98

> <Gold.PLP.Chemscore.Internal.Correction>
0.4354

> <Gold.Rescore>
     Score         DG    S(hbond)    S(metal)    S(lipo)     H(rot)  DE(clash)    DE(int)     intcor
     13.22     -17.81       3.83        0.00      53.03       2.61       0.02       4.57       ----

> <Gold.Chemscore.Fitness>
13.2160

> <Gold.Chemscore.DG>
-17.8060

> <Gold.Chemscore.ZeroCoef>
-5.4800

> <Gold.Chemscore.Hbond>
3.8312

> <Gold.Chemscore.Metal>
0.0000

> <Gold.Chemscore.Lipo>
53.0310

> <Gold.Chemscore.Internal_Hbond>
0.0000

> <Gold.Chemscore.DEClash>
0.0153

> <Gold.Chemscore.DEInternal>
4.5748

> <Gold.Chemscore.Rot>
2.6074

> <Gold.Chemscore.Internal.Correction>
   9.000000E+99

> <Gold.Chemscore.Hbonds>
donor molecule, donor type, donor heavy atom, donor atom, acceptor molecule, acceptor atom, score
      L1  H     8    39       P1 10957  0.88
      P1  H  6931  6943       L1    15  0.07
      P1  H  7989  7998       L1    26  0.44
      P1  H  7997  8009       L1    23  0.92
      P1  H 11000 11005       L1     7  0.93

> <Gold.Chemscore.Hbond.Weighted>
-12.7962

> <Gold.Chemscore.Metal.Weighted>
-0.0000

> <Gold.Chemscore.Lipo.Weighted>
-6.2046

> <Gold.Chemscore.Internal_Hbond.Weighted>
0.0000

> <Gold.Chemscore.DEClash.Weighted>
0.0153

> <Gold.Chemscore.DEInternal.Weighted>
4.5748

> <Gold.Chemscore.Rot.Weighted>
6.6748

> <Gold.Chemscore.Internal.Correction.Weighted>
   9.000000E+99

> <Gold.Protein.RotatedTorsions>
[ 6907 6896 6895 6894 ] final  -93.54 input  -60.11 | X-H torsion
[ 7974 7965 7964 7962 ] final  -27.54 input  175.53 | X-H torsion
[ 8008 7997 7996 7995 ] final  177.43 input   59.86 | X-H torsion
[ 10167 10162 10161 10158 ] final  -42.23 input  -65.29 | X-H torsion
[ 10718 10713 10712 10709 ] final  -88.11 input   66.30 | X-H torsion
[ 10763 10752 10751 10750 ] final   35.92 input  -60.55 | X-H torsion
[ 11005 11000 10999 10996 ] final -100.61 input  -57.11 | X-H torsion

> <Gold.Protein.ActiveResidues>
 VAL166  LYS551  ARG553  GLY616  TRP617  ASP618  TYR619  PRO620  LYS621  CYS622 
 ASP623  PHE694  ASN695  SER759  ASP760  ASP761  ALA762  ILE779  LEU786  VAL792 
 PHE793  MET794  SER795  GLU796  ALA797  LYS798  CYS799  TRP800  GLU811  SER814 

> <Gold.Protein.RotatedAtoms>
  150.6924  134.1952  159.4300 H   0  0  0  0  0  0  0  0  0  0  0  0  # atno 6907 bound_to 6896
  151.9921  134.9971  160.0571 H   0  0  0  0  0  0  0  0  0  0  0  0  # atno 6908 bound_to 6896
  152.1658  133.4576  159.4921 H   0  0  0  0  0  0  0  0  0  0  0  0  # atno 6909 bound_to 6896
  146.1351  140.5165  142.8676 H   0  0  0  0  0  0  0  0  0  0  0  0  # atno 7974 bound_to 7965
  156.0657  140.1358  156.9888 H   0  0  0  0  0  0  0  0  0  0  0  0  # atno 8008 bound_to 7997
  154.4505  140.0982  156.6655 H   0  0  0  0  0  0  0  0  0  0  0  0  # atno 8009 bound_to 7997
  155.5307  140.3458  155.4428 H   0  0  0  0  0  0  0  0  0  0  0  0  # atno 8010 bound_to 7997
  140.6976  143.3049  151.3179 H   0  0  0  0  0  0  0  0  0  0  0  0  # atno 10167 bound_to 10162
  155.9984  130.4824  150.4969 H   0  0  0  0  0  0  0  0  0  0  0  0  # atno 10718 bound_to 10713
  153.0098  135.6320  154.1903 H   0  0  0  0  0  0  0  0  0  0  0  0  # atno 10763 bound_to 10752
  154.1645  135.2821  155.3100 H   0  0  0  0  0  0  0  0  0  0  0  0  # atno 10764 bound_to 10752
  154.5956  135.5604  153.7382 H   0  0  0  0  0  0  0  0  0  0  0  0  # atno 10765 bound_to 10752
  141.1264  133.8412  157.1125 H   0  0  0  0  0  0  0  0  0  0  0  0  # atno 11005 bound_to 11000
  144.7731  140.5680  143.6657 LP  0  0  0  0  0  0  0  0  0  0  0  0  # atno 17320 bound_to 7965
  145.5175  139.1477  143.3571 LP  0  0  0  0  0  0  0  0  0  0  0  0  # atno 17321 bound_to 7965
  139.6452  144.0465  152.2585 LP  0  0  0  0  0  0  0  0  0  0  0  0  # atno 17342 bound_to 10162
  139.9983  144.6311  150.7752 LP  0  0  0  0  0  0  0  0  0  0  0  0  # atno 17343 bound_to 10162
  157.2958  131.0635  151.2102 LP  0  0  0  0  0  0  0  0  0  0  0  0  # atno 17370 bound_to 10713
  157.3099  130.6884  149.6210 LP  0  0  0  0  0  0  0  0  0  0  0  0  # atno 17371 bound_to 10713
  140.0266  134.9921  157.0699 LP  0  0  0  0  0  0  0  0  0  0  0  0  # atno 17394 bound_to 11000
  140.4352  134.1739  155.7170 LP  0  0  0  0  0  0  0  0  0  0  0  0  # atno 17395 bound_to 11000

$$$$
