AV-unprocessed.smi:2119|AV-procd|sdf|8631|dock9
  -GOLD-   2272011373D 1   1.00000     0.00000
 Structure written by MMmdl.
 47 49  0  0  0  0  0  0  0  0  1 V2000
  144.5419  136.8765  152.6308 O   0  0  0  0  0  0  0  0  0  0  0  0
  145.7147  136.5573  152.4392 C   0  0  0  0  0  0  0  0  0  0  0  0
  146.7524  137.3345  152.7741 N   0  0  0  0  0  0  0  0  0  0  0  0
  146.6344  138.6403  153.4122 C   0  0  0  0  0  0  0  0  0  0  0  0
  148.0199  139.3125  153.6039 C   0  0  1  0  0  0  0  0  0  0  0  0
  147.9173  140.6750  154.3594 C   0  0  2  0  0  0  0  0  0  0  0  0
  147.5247  140.6221  155.8392 C   0  0  0  0  0  0  0  0  0  0  0  0
  146.4067  141.6572  155.9606 C   0  0  0  0  0  0  0  0  0  0  0  0
  146.6376  142.5469  154.8805 O   0  0  0  0  0  0  0  0  0  0  0  0
  146.9973  141.7524  153.7620 C   0  0  0  0  0  0  0  0  0  0  0  0
  149.0884  138.4082  154.0759 N   0  0  0  0  0  0  0  0  0  0  0  0
  148.7119  137.6315  155.2554 C   0  0  0  0  0  0  0  0  0  0  0  0
  149.7890  136.5993  155.6257 C   0  0  0  0  0  0  0  0  0  0  0  0
  151.0271  137.2679  155.8391 O   0  0  0  0  0  0  0  0  0  0  0  0
  151.4610  137.9935  154.6938 C   0  0  0  0  0  0  0  0  0  0  0  0
  150.3954  139.0274  154.2877 C   0  0  0  0  0  0  0  0  0  0  0  0
  146.1314  135.4156  151.8649 N   0  0  0  0  0  0  0  0  0  0  0  0
  145.3603  134.3193  151.3899 C   0  0  0  0  0  0  0  0  0  0  0  0
  145.8456  133.3099  150.5226 C   0  0  0  0  0  0  0  0  0  0  0  0
  144.9695  132.2860  150.1136 C   0  0  0  0  0  0  0  0  0  0  0  0
  143.6406  132.3113  150.5785 C   0  0  0  0  0  0  0  0  0  0  0  0
  143.1611  133.2721  151.3958 N   0  0  0  0  0  0  0  0  0  0  0  0
  144.0070  134.2500  151.7844 C   0  0  0  0  0  0  0  0  0  0  0  0
  147.6852  137.0027  152.5771 H   0  0  0  0  0  0  0  0  0  0  0  0
  145.9799  139.2778  152.8161 H   0  0  0  0  0  0  0  0  0  0  0  0
  146.1356  138.4874  154.3686 H   0  0  0  0  0  0  0  0  0  0  0  0
  148.3295  139.6077  152.6001 H   0  0  0  0  0  0  0  0  0  0  0  0
  148.9167  141.1128  154.3417 H   0  0  0  0  0  0  0  0  0  0  0  0
  147.1954  139.6450  156.1915 H   0  0  0  0  0  0  0  0  0  0  0  0
  148.3760  140.9137  156.4557 H   0  0  0  0  0  0  0  0  0  0  0  0
  145.4301  141.1867  155.8373 H   0  0  0  0  0  0  0  0  0  0  0  0
  146.4160  142.1765  156.9190 H   0  0  0  0  0  0  0  0  0  0  0  0
  147.5008  142.3541  153.0051 H   0  0  0  0  0  0  0  0  0  0  0  0
  146.0985  141.3422  153.3061 H   0  0  0  0  0  0  0  0  0  0  0  0
  148.5589  138.2891  156.1108 H   0  0  0  0  0  0  0  0  0  0  0  0
  147.7667  137.1176  155.0779 H   0  0  0  0  0  0  0  0  0  0  0  0
  149.5086  136.0682  156.5354 H   0  0  0  0  0  0  0  0  0  0  0  0
  149.8982  135.8529  154.8375 H   0  0  0  0  0  0  0  0  0  0  0  0
  152.4032  138.4916  154.9228 H   0  0  0  0  0  0  0  0  0  0  0  0
  151.6571  137.3022  153.8727 H   0  0  0  0  0  0  0  0  0  0  0  0
  150.7388  139.5094  153.3762 H   0  0  0  0  0  0  0  0  0  0  0  0
  150.3272  139.7971  155.0573 H   0  0  0  0  0  0  0  0  0  0  0  0
  147.1269  135.3348  151.7171 H   0  0  0  0  0  0  0  0  0  0  0  0
  146.8583  133.3025  150.1520 H   0  0  0  0  0  0  0  0  0  0  0  0
  145.3076  131.5012  149.4535 H   0  0  0  0  0  0  0  0  0  0  0  0
  142.9431  131.5418  150.2821 H   0  0  0  0  0  0  0  0  0  0  0  0
  143.5875  135.0030  152.4356 H   0  0  0  0  0  0  0  0  0  0  0  0
  1  2  2  0  0  0  0
  2  3  1  0  0  0  0
  2 17  1  0  0  0  0
  3  4  1  0  0  0  0
  3 24  1  0  0  0  0
  4  5  1  0  0  0  0
  4 25  1  0  0  0  0
  4 26  1  0  0  0  0
  5  6  1  0  0  0  0
  5 11  1  0  0  0  0
  5 27  1  0  0  0  0
  6 10  1  0  0  0  0
  6  7  1  0  0  0  0
  6 28  1  0  0  0  0
  7  8  1  0  0  0  0
  7 29  1  0  0  0  0
  7 30  1  0  0  0  0
  8  9  1  0  0  0  0
  8 31  1  0  0  0  0
  8 32  1  0  0  0  0
  9 10  1  0  0  0  0
 10 33  1  0  0  0  0
 10 34  1  0  0  0  0
 11 16  1  0  0  0  0
 11 12  1  0  0  0  0
 12 13  1  0  0  0  0
 12 35  1  0  0  0  0
 12 36  1  0  0  0  0
 13 14  1  0  0  0  0
 13 37  1  0  0  0  0
 13 38  1  0  0  0  0
 14 15  1  0  0  0  0
 15 16  1  0  0  0  0
 15 39  1  0  0  0  0
 15 40  1  0  0  0  0
 16 41  1  0  0  0  0
 16 42  1  0  0  0  0
 17 18  1  0  0  0  0
 17 43  1  0  0  0  0
 18 23  1  0  0  0  0
 18 19  2  0  0  0  0
 19 20  1  0  0  0  0
 19 44  1  0  0  0  0
 20 21  2  0  0  0  0
 20 45  1  0  0  0  0
 21 22  1  0  0  0  0
 21 46  1  0  0  0  0
 22 23  2  0  0  0  0
 23 47  1  0  0  0  0
M  END
> <s_m_source_file>
AV-unprocessed.smi

> <i_m_source_file_index>
2119

> <i_lp_mmshare_version>
43012

> <i_f3d_flags>
0

> <s_epik_input>
W2NIXTFuW2NIXVtjSF1bY0hdYzFbTkhdQyg9TylbTkhdW0NIMl1bQ0BIXShbQ0BASF0yW0NIMl1bQ0gyXU9bQ0gyXTIpTjNbQ0gyXVtDSDJdT1tDSDJdW0NIMl0z

> <s_epik_cmdline>
J2VwaWtfcHl0aG9uJywgJy1waCcsICc3LjAnLCAnLXRuJywgJzgnLCAnLW1hJywgJzIwMCcsICctbWV0YWxfYmluZGluZycsICctaW1hZScsICc8aW5maWxlLm1hZT4nLCAnLW9tYWUnLCAnPG91dGZpbGUubWFlPic=

> <r_epik_Ionization_Penalty>
0.129787

> <r_epik_Ionization_Penalty_Charging>
0

> <r_epik_Ionization_Penalty_Neutral>
0.129787

> <r_epik_State_Penalty>
0.121311

> <r_epik_Charging_Adjusted_Penalty>
0.121311

> <i_epik_Tot_Q>
0

> <i_epik_Tot_abs_Q>
0

> <r_epik_Metal_State_Penalty>
0.117931

> <b_epik_Metal_Only>
0

> <s_lp_Force_Field>
OPLS_2005

> <r_lp_Energy>
56.2921

> <b_lp_Chiralities_Consistent>
1

> <s_lp_Variant>
AV-unprocessed.smi:2119-2

> <Gold.Version>
5.8.1

> <Gold.Id.Protein>
6NUR|6NUR_protein|mol2

> <Gold.PLP.Fitness>
42.0664

> <Gold.PLP.PLP>
-33.5701

> <Gold.PLP.part.hbond>
-2.0000

> <Gold.PLP.part.metal>
0.0000

> <Gold.PLP.part.buried>
-7.4066

> <Gold.PLP.part.nonpolar>
-26.4752

> <Gold.PLP.part.repulsive>
1.6995

> <Gold.PLP.ligand.clash>
0.0000

> <Gold.PLP.ligand.torsion>
0.3709

> <Gold.PLP.Chemscore.Hbond>
1.9760

> <Gold.PLP.Chemscore.CHOScore>
0.9957

> <Gold.PLP.Chemscore.Metal>
0.0000

> <Gold.Chemscore.Hbonds>
donor molecule, donor type, donor heavy atom, donor atom, acceptor molecule, acceptor atom, score
      L1  H     3    24       P1  7948  1.00
      L1  H    17    43       P1  7948  0.96
      L1  C    21    46       P1 10952  0.98

> <Gold.PLP.Chemscore.Internal.Correction>
0.3231

> <Gold.Rescore>
     Score         DG    S(hbond)    S(metal)    S(lipo)     H(rot)  DE(clash)    DE(int)     intcor
     16.15     -18.07       1.92        0.00      88.92       1.65       0.20       1.72       ----

> <Gold.Chemscore.Fitness>
16.1502

> <Gold.Chemscore.DG>
-18.0679

> <Gold.Chemscore.ZeroCoef>
-5.4800

> <Gold.Chemscore.Hbond>
1.9193

> <Gold.Chemscore.Metal>
0.0000

> <Gold.Chemscore.Lipo>
88.9190

> <Gold.Chemscore.Internal_Hbond>
0.0000

> <Gold.Chemscore.DEClash>
0.1958

> <Gold.Chemscore.DEInternal>
1.7219

> <Gold.Chemscore.Rot>
1.6508

> <Gold.Chemscore.Internal.Correction>
   9.000000E+99

> <Gold.Chemscore.Hbonds>
donor molecule, donor type, donor heavy atom, donor atom, acceptor molecule, acceptor atom, score
      L1  H     3    24       P1  7948  0.99
      L1  H    17    43       P1  7948  0.87

> <Gold.Chemscore.Hbond.Weighted>
-6.4106

> <Gold.Chemscore.Metal.Weighted>
-0.0000

> <Gold.Chemscore.Lipo.Weighted>
-10.4035

> <Gold.Chemscore.Internal_Hbond.Weighted>
0.0000

> <Gold.Chemscore.DEClash.Weighted>
0.1958

> <Gold.Chemscore.DEInternal.Weighted>
1.7219

> <Gold.Chemscore.Rot.Weighted>
4.2262

> <Gold.Chemscore.Internal.Correction.Weighted>
   9.000000E+99

> <Gold.Protein.RotatedTorsions>
[ 6907 6896 6895 6894 ] final -175.10 input  -60.11 | X-H torsion
[ 7974 7965 7964 7962 ] final  106.40 input  175.53 | X-H torsion
[ 8008 7997 7996 7995 ] final  129.93 input   59.86 | X-H torsion
[ 10167 10162 10161 10158 ] final -126.93 input  -65.29 | X-H torsion
[ 10718 10713 10712 10709 ] final  150.05 input   66.30 | X-H torsion
[ 10763 10752 10751 10750 ] final  117.52 input  -60.55 | X-H torsion
[ 11005 11000 10999 10996 ] final  138.16 input  -57.11 | X-H torsion

> <Gold.Protein.ActiveResidues>
 VAL166  LYS551  ARG553  GLY616  TRP617  ASP618  TYR619  PRO620  LYS621  CYS622 
 ASP623  PHE694  ASN695  SER759  ASP760  ASP761  ALA762  ILE779  LEU786  VAL792 
 PHE793  MET794  SER795  GLU796  ALA797  LYS798  CYS799  TRP800  GLU811  SER814 

> <Gold.Protein.RotatedAtoms>
  151.5831  133.3375  159.3012 H   0  0  0  0  0  0  0  0  0  0  0  0  # atno 6907 bound_to 6896
  150.8302  134.7555  159.6858 H   0  0  0  0  0  0  0  0  0  0  0  0  # atno 6908 bound_to 6896
  152.4387  134.5641  159.9954 H   0  0  0  0  0  0  0  0  0  0  0  0  # atno 6909 bound_to 6896
  145.3072  139.2551  143.3782 H   0  0  0  0  0  0  0  0  0  0  0  0  # atno 7974 bound_to 7965
  156.2945  140.2608  156.2680 H   0  0  0  0  0  0  0  0  0  0  0  0  # atno 8008 bound_to 7997
  154.9723  140.0391  157.2259 H   0  0  0  0  0  0  0  0  0  0  0  0  # atno 8009 bound_to 7997
  154.7847  140.2801  155.6041 H   0  0  0  0  0  0  0  0  0  0  0  0  # atno 8010 bound_to 7997
  139.9662  143.5895  152.2428 H   0  0  0  0  0  0  0  0  0  0  0  0  # atno 10167 bound_to 10162
  157.2884  131.0849  151.1480 H   0  0  0  0  0  0  0  0  0  0  0  0  # atno 10718 bound_to 10713
  153.5536  135.3535  155.2770 H   0  0  0  0  0  0  0  0  0  0  0  0  # atno 10763 bound_to 10752
  154.8704  135.4119  154.2910 H   0  0  0  0  0  0  0  0  0  0  0  0  # atno 10764 bound_to 10752
  153.3641  135.7061  153.6758 H   0  0  0  0  0  0  0  0  0  0  0  0  # atno 10765 bound_to 10752
  140.0164  134.9416  157.0384 H   0  0  0  0  0  0  0  0  0  0  0  0  # atno 11005 bound_to 11000
  146.3131  140.3599  142.8664 LP  0  0  0  0  0  0  0  0  0  0  0  0  # atno 17320 bound_to 7965
  144.9045  140.7683  143.5846 LP  0  0  0  0  0  0  0  0  0  0  0  0  # atno 17321 bound_to 7965
  139.6516  144.7661  151.2138 LP  0  0  0  0  0  0  0  0  0  0  0  0  # atno 17342 bound_to 10162
  140.7537  143.6152  150.8566 LP  0  0  0  0  0  0  0  0  0  0  0  0  # atno 17343 bound_to 10162
  157.2886  130.6785  149.6102 LP  0  0  0  0  0  0  0  0  0  0  0  0  # atno 17370 bound_to 10713
  155.9666  130.4428  150.5394 LP  0  0  0  0  0  0  0  0  0  0  0  0  # atno 17371 bound_to 10713
  140.4464  134.1628  155.7178 LP  0  0  0  0  0  0  0  0  0  0  0  0  # atno 17394 bound_to 11000
  141.1745  133.8541  157.1464 LP  0  0  0  0  0  0  0  0  0  0  0  0  # atno 17395 bound_to 11000

$$$$
