AV-unprocessed.smi:2387|AV-procd|sdf|9469|dock8
  -GOLD-   2272013 93D 1   1.00000     0.00000
 Structure written by MMmdl.
 47 49  0  0  0  0  0  0  0  0  1 V2000
  154.1273  141.6046  160.8936 C   0  0  0  0  0  0  0  0  0  0  0  0
  153.0299  141.9575  159.9113 C   0  0  0  0  0  0  0  0  0  0  0  0
  152.7898  143.2974  159.5438 C   0  0  0  0  0  0  0  0  0  0  0  0
  151.7552  143.5696  158.6280 C   0  0  0  0  0  0  0  0  0  0  0  0
  150.9917  142.4916  158.1183 C   0  0  0  0  0  0  0  0  0  0  0  0
  149.9358  142.6316  157.1776 N   0  0  0  0  0  0  0  0  0  0  0  0
  148.9299  141.7802  156.9149 C   0  0  0  0  0  0  0  0  0  0  0  0
  148.7648  140.6863  157.4538 O   0  0  0  0  0  0  0  0  0  0  0  0
  148.1165  142.2734  155.9644 N   0  0  0  0  0  0  0  0  0  0  0  0
  146.9259  141.6338  155.3754 C   0  0  0  0  0  0  0  0  0  0  0  0
  145.6021  142.0644  156.0664 C   0  0  0  0  0  0  0  0  0  0  0  0
  144.8842  141.2157  156.5973 O   0  0  0  0  0  0  0  0  0  0  0  0
  145.2688  143.3663  156.0413 N   0  0  0  0  0  0  0  0  0  0  0  0
  144.0601  143.9377  156.6196 C   0  0  0  0  0  0  0  0  0  0  0  0
  143.2695  144.8359  155.6874 C   0  0  0  0  0  0  0  0  0  0  0  0
  143.8541  145.3014  154.3747 C   0  0  0  0  0  0  0  0  0  0  0  0
  143.6590  146.2838  155.5050 C   0  0  0  0  0  0  0  0  0  0  0  0
  146.8617  142.0116  153.8676 C   0  0  0  0  0  0  0  0  0  0  0  0
  147.0590  140.7249  153.0601 C   0  0  0  0  0  0  0  0  0  0  0  0
  146.6082  139.6103  153.9927 C   0  0  0  0  0  0  0  0  0  0  0  0
  147.0775  140.0849  155.3662 C   0  0  0  0  0  0  0  0  0  0  0  0
  151.3281  141.1892  158.5437 C   0  0  0  0  0  0  0  0  0  0  0  0
  152.3177  140.9199  159.4215 N   0  0  0  0  0  0  0  0  0  0  0  0
  154.6801  142.4913  161.2051 H   0  0  0  0  0  0  0  0  0  0  0  0
  154.8322  140.9064  160.4415 H   0  0  0  0  0  0  0  0  0  0  0  0
  153.7035  141.1380  161.7832 H   0  0  0  0  0  0  0  0  0  0  0  0
  153.3860  144.1016  159.9492 H   0  0  0  0  0  0  0  0  0  0  0  0
  151.5802  144.5911  158.3281 H   0  0  0  0  0  0  0  0  0  0  0  0
  149.9841  143.4546  156.5949 H   0  0  0  0  0  0  0  0  0  0  0  0
  148.3485  143.1827  155.5927 H   0  0  0  0  0  0  0  0  0  0  0  0
  145.9042  144.0068  155.5885 H   0  0  0  0  0  0  0  0  0  0  0  0
  143.4081  143.1358  156.9696 H   0  0  0  0  0  0  0  0  0  0  0  0
  144.3468  144.5048  157.5059 H   0  0  0  0  0  0  0  0  0  0  0  0
  142.1987  144.6405  155.6932 H   0  0  0  0  0  0  0  0  0  0  0  0
  144.8737  145.0033  154.1389 H   0  0  0  0  0  0  0  0  0  0  0  0
  143.1802  145.3727  153.5232 H   0  0  0  0  0  0  0  0  0  0  0  0
  142.8556  147.0111  155.4064 H   0  0  0  0  0  0  0  0  0  0  0  0
  144.5494  146.6391  156.0198 H   0  0  0  0  0  0  0  0  0  0  0  0
  145.8957  142.4452  153.6014 H   0  0  0  0  0  0  0  0  0  0  0  0
  147.6084  142.7562  153.5870 H   0  0  0  0  0  0  0  0  0  0  0  0
  146.5097  140.7315  152.1182 H   0  0  0  0  0  0  0  0  0  0  0  0
  148.1169  140.5977  152.8266 H   0  0  0  0  0  0  0  0  0  0  0  0
  145.5208  139.5276  153.9765 H   0  0  0  0  0  0  0  0  0  0  0  0
  147.0225  138.6396  153.7192 H   0  0  0  0  0  0  0  0  0  0  0  0
  148.1241  139.7995  155.4842 H   0  0  0  0  0  0  0  0  0  0  0  0
  146.5320  139.5893  156.1710 H   0  0  0  0  0  0  0  0  0  0  0  0
  150.7831  140.3337  158.1721 H   0  0  0  0  0  0  0  0  0  0  0  0
  1  2  1  0  0  0  0
  1 24  1  0  0  0  0
  1 25  1  0  0  0  0
  1 26  1  0  0  0  0
  2 23  1  0  0  0  0
  2  3  2  0  0  0  0
  3  4  1  0  0  0  0
  3 27  1  0  0  0  0
  4  5  2  0  0  0  0
  4 28  1  0  0  0  0
  5  6  1  0  0  0  0
  5 22  1  0  0  0  0
  6  7  1  0  0  0  0
  6 29  1  0  0  0  0
  7  8  2  0  0  0  0
  7  9  1  0  0  0  0
  9 10  1  0  0  0  0
  9 30  1  0  0  0  0
 10 21  1  0  0  0  0
 10 11  1  0  0  0  0
 10 18  1  0  0  0  0
 11 12  2  0  0  0  0
 11 13  1  0  0  0  0
 13 14  1  0  0  0  0
 13 31  1  0  0  0  0
 14 15  1  0  0  0  0
 14 32  1  0  0  0  0
 14 33  1  0  0  0  0
 15 17  1  0  0  0  0
 15 16  1  0  0  0  0
 15 34  1  0  0  0  0
 16 17  1  0  0  0  0
 16 35  1  0  0  0  0
 16 36  1  0  0  0  0
 17 37  1  0  0  0  0
 17 38  1  0  0  0  0
 18 19  1  0  0  0  0
 18 39  1  0  0  0  0
 18 40  1  0  0  0  0
 19 20  1  0  0  0  0
 19 41  1  0  0  0  0
 19 42  1  0  0  0  0
 20 21  1  0  0  0  0
 20 43  1  0  0  0  0
 20 44  1  0  0  0  0
 21 45  1  0  0  0  0
 21 46  1  0  0  0  0
 22 23  2  0  0  0  0
 22 47  1  0  0  0  0
M  END
> <s_m_source_file>
AV-unprocessed.smi

> <i_m_source_file_index>
2387

> <i_lp_mmshare_version>
43012

> <i_f3d_flags>
0

> <s_epik_input>
W0NIM11jMVtjSF1bY0hdYyhbY0hdbjEpW05IXUMoPU8pW05IXUMyKFtDSDJdW0NIMl1bQ0gyXVtDSDJdMilDKD1PKVtOSF1bQ0gyXVtDSF0zW0NIMl1bQ0gyXTM=

> <s_epik_cmdline>
J2VwaWtfcHl0aG9uJywgJy1waCcsICc3LjAnLCAnLXRuJywgJzgnLCAnLW1hJywgJzIwMCcsICctbWV0YWxfYmluZGluZycsICctaW1hZScsICc8aW5maWxlLm1hZT4nLCAnLW9tYWUnLCAnPG91dGZpbGUubWFlPic=

> <r_epik_Ionization_Penalty>
0.0173464

> <r_epik_Ionization_Penalty_Charging>
0

> <r_epik_Ionization_Penalty_Neutral>
0.0173464

> <r_epik_State_Penalty>
0.0137159

> <r_epik_Charging_Adjusted_Penalty>
0.0137159

> <i_epik_Tot_Q>
0

> <i_epik_Tot_abs_Q>
0

> <r_epik_Metal_State_Penalty>
0.0133255

> <b_epik_Metal_Only>
0

> <s_lp_Force_Field>
OPLS_2005

> <r_lp_Energy>
29.6161

> <b_lp_Chiralities_Consistent>
1

> <s_lp_Variant>
AV-unprocessed.smi:2387-1

> <Gold.Version>
5.8.1

> <Gold.Id.Protein>
6NUR|6NUR_protein|mol2

> <Gold.PLP.Fitness>
43.6645

> <Gold.PLP.PLP>
-39.8755

> <Gold.PLP.part.hbond>
-2.0000

> <Gold.PLP.part.metal>
0.0000

> <Gold.PLP.part.buried>
-5.2912

> <Gold.PLP.part.nonpolar>
-32.6329

> <Gold.PLP.part.repulsive>
0.1467

> <Gold.PLP.ligand.clash>
0.0000

> <Gold.PLP.ligand.torsion>
1.1646

> <Gold.PLP.Chemscore.Hbond>
1.8320

> <Gold.PLP.Chemscore.CHOScore>
0.0000

> <Gold.PLP.Chemscore.Metal>
0.0000

> <Gold.Chemscore.Hbonds>
donor molecule, donor type, donor heavy atom, donor atom, acceptor molecule, acceptor atom, score
      L1  H     6    29       P1  8028  0.86
      L1  H     9    30       P1  8028  1.00

> <Gold.PLP.Chemscore.Internal.Correction>
0.6222

> <Gold.Rescore>
     Score         DG    S(hbond)    S(metal)    S(lipo)     H(rot)  DE(clash)    DE(int)     intcor
     15.95     -19.98       1.82        0.00     106.75       1.59       0.07       3.96       ----

> <Gold.Chemscore.Fitness>
15.9469

> <Gold.Chemscore.DG>
-19.9782

> <Gold.Chemscore.ZeroCoef>
-5.4800

> <Gold.Chemscore.Hbond>
1.8233

> <Gold.Chemscore.Metal>
0.0000

> <Gold.Chemscore.Lipo>
106.7458

> <Gold.Chemscore.Internal_Hbond>
0.0000

> <Gold.Chemscore.DEClash>
0.0697

> <Gold.Chemscore.DEInternal>
3.9616

> <Gold.Chemscore.Rot>
1.5941

> <Gold.Chemscore.Internal.Correction>
   9.000000E+99

> <Gold.Chemscore.Hbonds>
donor molecule, donor type, donor heavy atom, donor atom, acceptor molecule, acceptor atom, score
      L1  H     6    29       P1  8028  0.85
      L1  H     9    30       P1  8028  0.94

> <Gold.Chemscore.Hbond.Weighted>
-6.0899

> <Gold.Chemscore.Metal.Weighted>
-0.0000

> <Gold.Chemscore.Lipo.Weighted>
-12.4893

> <Gold.Chemscore.Internal_Hbond.Weighted>
0.0000

> <Gold.Chemscore.DEClash.Weighted>
0.0697

> <Gold.Chemscore.DEInternal.Weighted>
3.9616

> <Gold.Chemscore.Rot.Weighted>
4.0809

> <Gold.Chemscore.Internal.Correction.Weighted>
   9.000000E+99

> <Gold.Protein.RotatedTorsions>
[ 6907 6896 6895 6894 ] final   54.38 input  -60.11 | X-H torsion
[ 7974 7965 7964 7962 ] final  141.63 input  175.53 | X-H torsion
[ 8008 7997 7996 7995 ] final   11.22 input   59.86 | X-H torsion
[ 10167 10162 10161 10158 ] final   32.34 input  -65.29 | X-H torsion
[ 10718 10713 10712 10709 ] final  119.78 input   66.30 | X-H torsion
[ 10763 10752 10751 10750 ] final -165.23 input  -60.55 | X-H torsion
[ 11005 11000 10999 10996 ] final  -80.20 input  -57.11 | X-H torsion

> <Gold.Protein.ActiveResidues>
 VAL166  LYS551  ARG553  GLY616  TRP617  ASP618  TYR619  PRO620  LYS621  CYS622 
 ASP623  PHE694  ASN695  SER759  ASP760  ASP761  ALA762  ILE779  LEU786  VAL792 
 PHE793  MET794  SER795  GLU796  ALA797  LYS798  CYS799  TRP800  GLU811  SER814 

> <Gold.Protein.RotatedAtoms>
  152.3433  134.7105  160.0257 H   0  0  0  0  0  0  0  0  0  0  0  0  # atno 6907 bound_to 6896
  151.7483  133.3320  159.3392 H   0  0  0  0  0  0  0  0  0  0  0  0  # atno 6908 bound_to 6896
  150.7493  134.6149  159.6150 H   0  0  0  0  0  0  0  0  0  0  0  0  # atno 6909 bound_to 6896
  144.9079  139.5333  143.5723 H   0  0  0  0  0  0  0  0  0  0  0  0  # atno 7974 bound_to 7965
  154.8040  140.2857  155.5901 H   0  0  0  0  0  0  0  0  0  0  0  0  # atno 8008 bound_to 7997
  156.2980  140.2581  156.2844 H   0  0  0  0  0  0  0  0  0  0  0  0  # atno 8009 bound_to 7997
  154.9524  140.0379  157.2140 H   0  0  0  0  0  0  0  0  0  0  0  0  # atno 8010 bound_to 7997
  140.4507  144.1052  150.6191 H   0  0  0  0  0  0  0  0  0  0  0  0  # atno 10167 bound_to 10162
  157.5938  131.1061  150.7944 H   0  0  0  0  0  0  0  0  0  0  0  0  # atno 10718 bound_to 10713
  154.6952  135.2978  154.9422 H   0  0  0  0  0  0  0  0  0  0  0  0  # atno 10763 bound_to 10752
  154.0372  135.6662  153.4790 H   0  0  0  0  0  0  0  0  0  0  0  0  # atno 10764 bound_to 10752
  153.0640  135.5099  154.8066 H   0  0  0  0  0  0  0  0  0  0  0  0  # atno 10765 bound_to 10752
  141.1668  133.7140  156.8237 H   0  0  0  0  0  0  0  0  0  0  0  0  # atno 11005 bound_to 11000
  146.3143  139.7861  142.8995 LP  0  0  0  0  0  0  0  0  0  0  0  0  # atno 17320 bound_to 7965
  145.3505  141.0306  143.3341 LP  0  0  0  0  0  0  0  0  0  0  0  0  # atno 17321 bound_to 7965
  140.4211  143.2611  151.9715 LP  0  0  0  0  0  0  0  0  0  0  0  0  # atno 17342 bound_to 10162
  139.4796  144.5830  151.7900 LP  0  0  0  0  0  0  0  0  0  0  0  0  # atno 17343 bound_to 10162
  156.8359  130.5031  149.5326 LP  0  0  0  0  0  0  0  0  0  0  0  0  # atno 17370 bound_to 10713
  156.0996  130.5959  150.9872 LP  0  0  0  0  0  0  0  0  0  0  0  0  # atno 17371 bound_to 10713
  140.2100  134.8834  157.3264 LP  0  0  0  0  0  0  0  0  0  0  0  0  # atno 17394 bound_to 11000
  140.2096  134.4154  155.7619 LP  0  0  0  0  0  0  0  0  0  0  0  0  # atno 17395 bound_to 11000

$$$$
