AV-unprocessed.smi:1189|AV-procd|sdf|4979|dock5
  -GOLD-   22720 3573D 1   1.00000     0.00000
 Structure written by MMmdl.
 33 34  0  0  0  0  0  0  0  0  1 V2000
  150.4154  140.1556  157.1423 O   0  0  0  0  0  0  0  0  0  0  0  0
  150.0074  141.1420  156.5273 C   0  0  0  0  0  0  0  0  0  0  0  0
  149.6488  141.0497  155.0391 C   0  0  0  0  0  0  0  0  0  0  0  0
  148.3184  141.5606  154.7522 N   0  0  0  0  0  0  0  0  0  0  0  0
  147.7009  141.7026  153.5280 C   0  0  0  0  0  0  0  0  0  0  0  0
  146.4570  142.2156  153.7588 C   0  0  0  0  0  0  0  0  0  0  0  0
  146.3964  142.3551  155.1760 C   0  0  0  0  0  0  0  0  0  0  0  0
  145.2570  142.8703  156.0156 C   0  0  0  0  0  0  0  0  0  0  0  0
  144.2037  142.0595  155.9136 F   0  0  0  0  0  0  0  0  0  0  0  0
  145.6263  142.9340  157.2949 F   0  0  0  0  0  0  0  0  0  0  0  0
  144.9023  144.0875  155.6038 F   0  0  0  0  0  0  0  0  0  0  0  0
  147.5195  141.9637  155.7637 N   0  0  0  0  0  0  0  0  0  0  0  0
  149.8594  142.3505  157.0921 N   0  0  0  0  0  0  0  0  0  0  0  0
  150.1377  142.6747  158.4880 C   0  0  0  0  0  0  0  0  0  0  0  0
  151.6483  142.6820  158.7907 C   0  0  1  0  0  0  0  0  0  0  0  0
  151.9857  143.1360  160.1963 C   0  0  0  0  0  0  0  0  0  0  0  0
  153.4073  142.6091  160.3744 C   0  0  0  0  0  0  0  0  0  0  0  0
  153.5051  141.4504  159.5510 O   0  0  0  0  0  0  0  0  0  0  0  0
  152.3281  141.3120  158.7621 C   0  0  0  0  0  0  0  0  0  0  0  0
  150.3772  141.6006  154.4414 H   0  0  0  0  0  0  0  0  0  0  0  0
  149.6977  140.0070  154.7239 H   0  0  0  0  0  0  0  0  0  0  0  0
  148.1915  141.4269  152.6062 H   0  0  0  0  0  0  0  0  0  0  0  0
  145.7009  142.4531  153.0255 H   0  0  0  0  0  0  0  0  0  0  0  0
  149.5204  143.1035  156.5110 H   0  0  0  0  0  0  0  0  0  0  0  0
  149.7257  143.6650  158.6831 H   0  0  0  0  0  0  0  0  0  0  0  0
  149.6128  141.9912  159.1579 H   0  0  0  0  0  0  0  0  0  0  0  0
  152.1573  143.3405  158.0847 H   0  0  0  0  0  0  0  0  0  0  0  0
  151.9153  144.2162  160.3272 H   0  0  0  0  0  0  0  0  0  0  0  0
  151.3201  142.6611  160.9188 H   0  0  0  0  0  0  0  0  0  0  0  0
  154.1329  143.3442  160.0249 H   0  0  0  0  0  0  0  0  0  0  0  0
  153.6347  142.3775  161.4152 H   0  0  0  0  0  0  0  0  0  0  0  0
  151.6922  140.5554  159.2240 H   0  0  0  0  0  0  0  0  0  0  0  0
  152.5663  140.9828  157.7504 H   0  0  0  0  0  0  0  0  0  0  0  0
  1  2  2  0  0  0  0
  2  3  1  0  0  0  0
  2 13  1  0  0  0  0
  3  4  1  0  0  0  0
  3 20  1  0  0  0  0
  3 21  1  0  0  0  0
  4 12  1  0  0  0  0
  4  5  1  0  0  0  0
  5  6  2  0  0  0  0
  5 22  1  0  0  0  0
  6  7  1  0  0  0  0
  6 23  1  0  0  0  0
  7  8  1  0  0  0  0
  7 12  2  0  0  0  0
  8  9  1  0  0  0  0
  8 10  1  0  0  0  0
  8 11  1  0  0  0  0
 13 14  1  0  0  0  0
 13 24  1  0  0  0  0
 14 15  1  0  0  0  0
 14 25  1  0  0  0  0
 14 26  1  0  0  0  0
 15 19  1  0  0  0  0
 15 16  1  0  0  0  0
 15 27  1  0  0  0  0
 16 17  1  0  0  0  0
 16 28  1  0  0  0  0
 16 29  1  0  0  0  0
 17 18  1  0  0  0  0
 17 30  1  0  0  0  0
 17 31  1  0  0  0  0
 18 19  1  0  0  0  0
 19 32  1  0  0  0  0
 19 33  1  0  0  0  0
M  END
> <s_m_source_file>
AV-unprocessed.smi

> <i_m_source_file_index>
1189

> <i_lp_mmshare_version>
43012

> <i_f3d_flags>
0

> <s_epik_input>
W0NIMl0xT1tDSDJdW0NIMl1bQ0BIXTFbQ0gyXVtOSF1DKD1PKVtDSDJdbjJbY0hdW2NIXWMobjIpQyhGKShGKUY=

> <s_epik_cmdline>
J2VwaWtfcHl0aG9uJywgJy1waCcsICc3LjAnLCAnLXRuJywgJzgnLCAnLW1hJywgJzIwMCcsICctbWV0YWxfYmluZGluZycsICctaW1hZScsICc8aW5maWxlLm1hZT4nLCAnLW9tYWUnLCAnPG91dGZpbGUubWFlPic=

> <r_lp_tautomer_probability>
1

> <r_epik_Ionization_Penalty>
1.26564e-07

> <r_epik_Ionization_Penalty_Charging>
0

> <r_epik_Ionization_Penalty_Neutral>
1.26564e-07

> <r_epik_State_Penalty>
-0

> <r_epik_Charging_Adjusted_Penalty>
0

> <i_epik_Tot_Q>
0

> <i_epik_Tot_abs_Q>
0

> <r_epik_Metal_State_Penalty>
-0

> <b_epik_Metal_Only>
0

> <s_lp_Force_Field>
OPLS_2005

> <r_lp_Energy>
22.0534

> <b_lp_Chiralities_Consistent>
1

> <s_lp_Variant>
AV-unprocessed.smi:1189-2

> <Gold.Version>
5.8.1

> <Gold.Id.Protein>
6NUR|6NUR_protein|mol2

> <Gold.PLP.Fitness>
39.4842

> <Gold.PLP.PLP>
-33.9163

> <Gold.PLP.part.hbond>
-1.0000

> <Gold.PLP.part.metal>
0.0000

> <Gold.PLP.part.buried>
-5.9917

> <Gold.PLP.part.nonpolar>
-26.5589

> <Gold.PLP.part.repulsive>
0.6188

> <Gold.PLP.ligand.clash>
0.0000

> <Gold.PLP.ligand.torsion>
0.2210

> <Gold.PLP.Chemscore.Hbond>
1.0000

> <Gold.PLP.Chemscore.CHOScore>
1.0000

> <Gold.PLP.Chemscore.Metal>
0.0000

> <Gold.Chemscore.Hbonds>
donor molecule, donor type, donor heavy atom, donor atom, acceptor molecule, acceptor atom, score
      L1  H    13    24       P1  8028  1.00
      L1  C     5    22       P1  7957  1.00

> <Gold.PLP.Chemscore.Internal.Correction>
0.0099

> <Gold.Rescore>
     Score         DG    S(hbond)    S(metal)    S(lipo)     H(rot)  DE(clash)    DE(int)     intcor
     11.65     -13.44       1.00        0.00      80.89       1.89       0.24       1.55       ----

> <Gold.Chemscore.Fitness>
11.6479

> <Gold.Chemscore.DG>
-13.4352

> <Gold.Chemscore.ZeroCoef>
-5.4800

> <Gold.Chemscore.Hbond>
0.9991

> <Gold.Chemscore.Metal>
0.0000

> <Gold.Chemscore.Lipo>
80.8867

> <Gold.Chemscore.Internal_Hbond>
0.0000

> <Gold.Chemscore.DEClash>
0.2355

> <Gold.Chemscore.DEInternal>
1.5518

> <Gold.Chemscore.Rot>
1.8928

> <Gold.Chemscore.Internal.Correction>
   9.000000E+99

> <Gold.Chemscore.Hbonds>
donor molecule, donor type, donor heavy atom, donor atom, acceptor molecule, acceptor atom, score
      L1  H    13    24       P1  8028  0.99

> <Gold.Chemscore.Hbond.Weighted>
-3.3369

> <Gold.Chemscore.Metal.Weighted>
-0.0000

> <Gold.Chemscore.Lipo.Weighted>
-9.4637

> <Gold.Chemscore.Internal_Hbond.Weighted>
0.0000

> <Gold.Chemscore.DEClash.Weighted>
0.2355

> <Gold.Chemscore.DEInternal.Weighted>
1.5518

> <Gold.Chemscore.Rot.Weighted>
4.8455

> <Gold.Chemscore.Internal.Correction.Weighted>
   9.000000E+99

> <Gold.Protein.RotatedTorsions>
[ 6907 6896 6895 6894 ] final   34.71 input  -60.11 | X-H torsion
[ 7974 7965 7964 7962 ] final   88.46 input  175.53 | X-H torsion
[ 8008 7997 7996 7995 ] final  155.59 input   59.86 | X-H torsion
[ 10167 10162 10161 10158 ] final -115.59 input  -65.29 | X-H torsion
[ 10718 10713 10712 10709 ] final  -69.26 input   66.30 | X-H torsion
[ 10763 10752 10751 10750 ] final  -34.17 input  -60.55 | X-H torsion
[ 11005 11000 10999 10996 ] final -175.10 input  -57.11 | X-H torsion

> <Gold.Protein.ActiveResidues>
 VAL166  LYS551  ARG553  GLY616  TRP617  ASP618  TYR619  PRO620  LYS621  CYS622 
 ASP623  PHE694  ASN695  SER759  ASP760  ASP761  ALA762  ILE779  LEU786  VAL792 
 PHE793  MET794  SER795  GLU796  ALA797  LYS798  CYS799  TRP800  GLU811  SER814 

> <Gold.Protein.RotatedAtoms>
  152.1061  134.9307  160.0567 H   0  0  0  0  0  0  0  0  0  0  0  0  # atno 6907 bound_to 6896
  152.0503  133.4011  159.4382 H   0  0  0  0  0  0  0  0  0  0  0  0  # atno 6908 bound_to 6896
  150.6841  134.3236  159.4841 H   0  0  0  0  0  0  0  0  0  0  0  0  # atno 6909 bound_to 6896
  145.5454  139.2291  143.2542 H   0  0  0  0  0  0  0  0  0  0  0  0  # atno 7974 bound_to 7965
  156.2469  140.1935  156.6825 H   0  0  0  0  0  0  0  0  0  0  0  0  # atno 8008 bound_to 7997
  154.6311  140.0595  156.9759 H   0  0  0  0  0  0  0  0  0  0  0  0  # atno 8009 bound_to 7997
  155.1709  140.3268  155.4395 H   0  0  0  0  0  0  0  0  0  0  0  0  # atno 8010 bound_to 7997
  140.0885  143.4722  152.1884 H   0  0  0  0  0  0  0  0  0  0  0  0  # atno 10167 bound_to 10162
  156.0464  130.4309  150.2122 H   0  0  0  0  0  0  0  0  0  0  0  0  # atno 10718 bound_to 10713
  153.8423  135.6856  153.4801 H   0  0  0  0  0  0  0  0  0  0  0  0  # atno 10763 bound_to 10752
  153.1446  135.4643  154.9545 H   0  0  0  0  0  0  0  0  0  0  0  0  # atno 10764 bound_to 10752
  154.7839  135.3278  154.7875 H   0  0  0  0  0  0  0  0  0  0  0  0  # atno 10765 bound_to 10752
  140.4670  134.6201  157.4866 H   0  0  0  0  0  0  0  0  0  0  0  0  # atno 11005 bound_to 11000
  146.1953  140.6275  142.9127 LP  0  0  0  0  0  0  0  0  0  0  0  0  # atno 17320 bound_to 7965
  144.7556  140.5299  143.6771 LP  0  0  0  0  0  0  0  0  0  0  0  0  # atno 17321 bound_to 7965
  139.5738  144.7477  151.3818 LP  0  0  0  0  0  0  0  0  0  0  0  0  # atno 17342 bound_to 10162
  140.7041  143.7558  150.7452 LP  0  0  0  0  0  0  0  0  0  0  0  0  # atno 17343 bound_to 10162
  157.0211  130.9979  151.3339 LP  0  0  0  0  0  0  0  0  0  0  0  0  # atno 17370 bound_to 10713
  157.5343  130.8079  149.7954 LP  0  0  0  0  0  0  0  0  0  0  0  0  # atno 17371 bound_to 10713
  139.9909  134.6987  155.9692 LP  0  0  0  0  0  0  0  0  0  0  0  0  # atno 17394 bound_to 11000
  141.1594  133.6540  156.4270 LP  0  0  0  0  0  0  0  0  0  0  0  0  # atno 17395 bound_to 11000

$$$$
