AV-unprocessed.smi:157|AV-procd|sdf|1318|dock3
  -GOLD-   2262019 13D 1   1.00000     0.00000
 Structure written by MMmdl.
 36 38  0  0  0  0  0  0  0  0  2 V2000
  149.6516  138.5253  153.1199 O   0  0  0  0  0  0  0  0  0  0  0  0
  149.0883  139.1821  154.2355 C   0  0  0  0  0  0  0  0  0  0  0  0
  147.5717  139.3406  154.0493 C   0  0  2  0  0  0  0  0  0  0  0  0
  147.0462  138.1130  153.5482 O   0  0  0  0  0  0  0  0  0  0  0  0
  145.9872  138.4189  152.7065 C   0  0  2  0  0  0  0  0  0  0  0  0
  145.7479  137.2684  151.7861 N   0  0  0  0  0  0  0  0  0  0  0  0
  145.8411  137.2845  150.4397 C   0  0  0  0  0  0  0  0  0  0  0  0
  145.5675  136.1272  149.8612 N   0  3  0  0  0  0  0  0  0  0  0  0
  145.2586  135.2461  150.8762 C   0  0  0  0  0  0  0  0  0  0  0  0
  145.3642  135.9769  152.0625 C   0  0  0  0  0  0  0  0  0  0  0  0
  145.1423  135.5765  153.3888 N   0  0  0  0  0  0  0  0  0  0  0  0
  144.5068  134.4936  153.6989 C   0  0  0  0  0  0  0  0  0  0  0  0
  144.0171  133.5001  152.8675 N   0  0  0  0  0  0  0  0  0  0  0  0
  144.7934  132.9168  151.7877 C   0  0  0  0  0  0  0  0  0  0  0  0
  144.9164  133.8243  150.5564 C   0  0  1  0  0  0  0  0  0  0  0  0
  143.7339  133.7099  149.7918 O   0  0  0  0  0  0  0  0  0  0  0  0
  146.4390  139.6472  151.9338 C   0  0  0  0  0  0  0  0  0  0  0  0
  147.1721  140.4209  153.0175 C   0  0  1  0  0  0  0  0  0  0  0  0
  146.3009  141.3644  153.6086 O   0  0  0  0  0  0  0  0  0  0  0  0
  147.0983  139.5303  155.0147 H   0  0  0  0  0  0  0  0  0  0  0  0
  145.0638  138.5618  153.2702 H   0  0  0  0  0  0  0  0  0  0  0  0
  145.7164  133.4252  149.9319 H   0  0  0  0  0  0  0  0  0  0  0  0
  148.0329  140.9490  152.6057 H   0  0  0  0  0  0  0  0  0  0  0  0
  149.8670  139.1730  152.4658 H   0  0  0  0  0  0  0  0  0  0  0  0
  149.3150  138.6249  155.1451 H   0  0  0  0  0  0  0  0  0  0  0  0
  149.5591  140.1611  154.3294 H   0  0  0  0  0  0  0  0  0  0  0  0
  146.1164  138.1660  149.8885 H   0  0  0  0  0  0  0  0  0  0  0  0
  144.3081  134.2813  154.7505 H   0  0  0  0  0  0  0  0  0  0  0  0
  143.3540  132.8383  153.2451 H   0  0  0  0  0  0  0  0  0  0  0  0
  145.7920  132.7140  152.1780 H   0  0  0  0  0  0  0  0  0  0  0  0
  144.3734  131.9481  151.5149 H   0  0  0  0  0  0  0  0  0  0  0  0
  143.0381  134.1685  150.2369 H   0  0  0  0  0  0  0  0  0  0  0  0
  147.1352  139.3446  151.1500 H   0  0  0  0  0  0  0  0  0  0  0  0
  145.5956  140.1720  151.4824 H   0  0  0  0  0  0  0  0  0  0  0  0
  145.4168  141.1662  153.3387 H   0  0  0  0  0  0  0  0  0  0  0  0
  145.5875  135.9315  148.8684 H   0  0  0  0  0  0  0  0  0  0  0  0
  1  2  1  0  0  0  0
  1 24  1  0  0  0  0
  2  3  1  0  0  0  0
  2 25  1  0  0  0  0
  2 26  1  0  0  0  0
  3 20  1  0  0  0  0
  3 18  1  0  0  0  0
  3  4  1  0  0  0  0
  4  5  1  0  0  0  0
  5 21  1  0  0  0  0
  5  6  1  0  0  0  0
  5 17  1  0  0  0  0
  6 10  1  0  0  0  0
  6  7  1  0  0  0  0
  7  8  2  0  0  0  0
  7 27  1  0  0  0  0
  8  9  1  0  0  0  0
  8 36  1  0  0  0  0
  9 15  1  0  0  0  0
  9 10  2  0  0  0  0
 10 11  1  0  0  0  0
 11 12  2  0  0  0  0
 12 13  1  0  0  0  0
 12 28  1  0  0  0  0
 13 14  1  0  0  0  0
 13 29  1  0  0  0  0
 14 15  1  0  0  0  0
 14 30  1  0  0  0  0
 14 31  1  0  0  0  0
 15 22  1  0  0  0  0
 15 16  1  0  0  0  0
 16 32  1  0  0  0  0
 17 18  1  0  0  0  0
 17 33  1  0  0  0  0
 17 34  1  0  0  0  0
 18 23  1  0  0  0  0
 18 19  1  0  0  0  0
 19 35  1  0  0  0  0
M  CHG  1   8   1
M  END
> <s_m_source_file>
AV-unprocessed.smi

> <i_m_source_file_index>
157

> <i_lp_mmshare_version>
43012

> <i_f3d_flags>
0

> <s_epik_input>
W09IXVtDSDJdW0NASF0xT1tDQEhdKFtDSDJdW0NAQEhdMVtPSF0pbihbY0hdbjIpYyhjMjMpTj1bQ0hdW05IXVtDSDJdW0NASF0zW09IXQ==

> <s_epik_cmdline>
J2VwaWtfcHl0aG9uJywgJy1waCcsICc3LjAnLCAnLXRuJywgJzgnLCAnLW1hJywgJzIwMCcsICctbWV0YWxfYmluZGluZycsICctaW1hZScsICc8aW5maWxlLm1hZT4nLCAnLW9tYWUnLCAnPG91dGZpbGUubWFlPic=

> <r_epik_Ionization_Penalty>
1.68594

> <r_epik_Ionization_Penalty_Charging>
0

> <r_epik_Ionization_Penalty_Neutral>
1.68594

> <r_epik_State_Penalty>
1.79006

> <r_epik_Charging_Adjusted_Penalty>
1.79006

> <i_epik_Tot_Q>
1

> <i_epik_Tot_abs_Q>
1

> <r_epik_Metal_State_Penalty>
5.85324

> <b_epik_Metal_Only>
0

> <s_epik_Chemistry_Notes>
This compound has an imine and may undergo hydrolysis. This compound contains an acetal/aminal-like group ( X-CH(R)-Y where X, Y are N, S, or O) that may be acid/base labile, releasing an aldehyde.

> <s_lp_Force_Field>
OPLS_2005

> <r_lp_Energy>
52.5204

> <b_lp_Chiralities_Consistent>
1

> <s_lp_Variant>
AV-unprocessed.smi:157-28

> <Gold.Version>
5.8.1

> <Gold.Id.Protein>
6NUR|6NUR_protein|mol2

> <Gold.PLP.Fitness>
39.8241

> <Gold.PLP.PLP>
-26.9763

> <Gold.PLP.part.hbond>
-7.0000

> <Gold.PLP.part.metal>
0.0000

> <Gold.PLP.part.buried>
7.6870

> <Gold.PLP.part.nonpolar>
-28.5556

> <Gold.PLP.part.repulsive>
0.4026

> <Gold.PLP.ligand.clash>
0.0000

> <Gold.PLP.ligand.torsion>
0.1203

> <Gold.PLP.Chemscore.Hbond>
4.2751

> <Gold.PLP.Chemscore.CHOScore>
0.0787

> <Gold.PLP.Chemscore.Metal>
0.0000

> <Gold.Chemscore.Hbonds>
donor molecule, donor type, donor heavy atom, donor atom, acceptor molecule, acceptor atom, score
      L1  H     1    24       P1  7957  1.00
      L1  H     8    36       P1  7921  0.93
      L1  H    13    29       P1 10957  1.00
      L1  H    16    32       P1 10186  0.37
      L1  H    19    35       P1 10175  0.98
      L1  C     7    27       P1 10171  0.13

> <Gold.PLP.Chemscore.Internal.Correction>
0.0270

> <Gold.Rescore>
     Score         DG    S(hbond)    S(metal)    S(lipo)     H(rot)  DE(clash)    DE(int)     intcor
      9.85     -12.02       3.19        0.00      45.01       3.67       2.03       0.13       ----

> <Gold.Chemscore.Fitness>
9.8549

> <Gold.Chemscore.DG>
-12.0196

> <Gold.Chemscore.ZeroCoef>
-5.4800

> <Gold.Chemscore.Hbond>
3.1910

> <Gold.Chemscore.Metal>
0.0000

> <Gold.Chemscore.Lipo>
45.0138

> <Gold.Chemscore.Internal_Hbond>
0.0000

> <Gold.Chemscore.DEClash>
2.0329

> <Gold.Chemscore.DEInternal>
0.1318

> <Gold.Chemscore.Rot>
3.6659

> <Gold.Chemscore.Internal.Correction>
   9.000000E+99

> <Gold.Chemscore.Hbonds>
donor molecule, donor type, donor heavy atom, donor atom, acceptor molecule, acceptor atom, score
      L1  H     1    24       P1  7957  0.78
      L1  H     8    36       P1  7921  0.90
      L1  H    13    29       P1 10957  0.51
      L1  H    16    32       P1 10186  0.35
      L1  H    19    35       P1 10175  0.32

> <Gold.Chemscore.Hbond.Weighted>
-10.6578

> <Gold.Chemscore.Metal.Weighted>
-0.0000

> <Gold.Chemscore.Lipo.Weighted>
-5.2666

> <Gold.Chemscore.Internal_Hbond.Weighted>
0.0000

> <Gold.Chemscore.DEClash.Weighted>
2.0329

> <Gold.Chemscore.DEInternal.Weighted>
0.1318

> <Gold.Chemscore.Rot.Weighted>
9.3848

> <Gold.Chemscore.Internal.Correction.Weighted>
   9.000000E+99

> <Gold.Protein.RotatedTorsions>
[ 6907 6896 6895 6894 ] final  -51.55 input  -60.11 | X-H torsion
[ 7974 7965 7964 7962 ] final   70.30 input  175.53 | X-H torsion
[ 8008 7997 7996 7995 ] final   50.89 input   59.86 | X-H torsion
[ 10167 10162 10161 10158 ] final -117.13 input  -65.29 | X-H torsion
[ 10718 10713 10712 10709 ] final -134.26 input   66.30 | X-H torsion
[ 10763 10752 10751 10750 ] final  170.45 input  -60.55 | X-H torsion
[ 11005 11000 10999 10996 ] final  136.44 input  -57.11 | X-H torsion

> <Gold.Protein.ActiveResidues>
 VAL166  LYS551  ARG553  GLY616  TRP617  ASP618  TYR619  PRO620  LYS621  CYS622 
 ASP623  PHE694  ASN695  SER759  ASP760  ASP761  ALA762  ILE779  LEU786  VAL792 
 PHE793  MET794  SER795  GLU796  ALA797  LYS798  CYS799  TRP800  GLU811  SER814 

> <Gold.Protein.RotatedAtoms>
  150.8601  134.7951  159.7075 H   0  0  0  0  0  0  0  0  0  0  0  0  # atno 6907 bound_to 6896
  152.4641  134.5114  159.9764 H   0  0  0  0  0  0  0  0  0  0  0  0  # atno 6908 bound_to 6896
  151.5219  133.3426  159.2938 H   0  0  0  0  0  0  0  0  0  0  0  0  # atno 6909 bound_to 6896
  145.7798  139.2882  143.1272 H   0  0  0  0  0  0  0  0  0  0  0  0  # atno 7974 bound_to 7965
  155.4262  140.3448  155.4276 H   0  0  0  0  0  0  0  0  0  0  0  0  # atno 8008 bound_to 7997
  156.1364  140.1529  156.9019 H   0  0  0  0  0  0  0  0  0  0  0  0  # atno 8009 bound_to 7997
  154.4935  140.0834  156.7626 H   0  0  0  0  0  0  0  0  0  0  0  0  # atno 8010 bound_to 7997
  140.0717  143.4871  152.1976 H   0  0  0  0  0  0  0  0  0  0  0  0  # atno 10167 bound_to 10162
  156.2536  130.7168  151.1076 H   0  0  0  0  0  0  0  0  0  0  0  0  # atno 10718 bound_to 10713
  154.3978  135.2754  155.2115 H   0  0  0  0  0  0  0  0  0  0  0  0  # atno 10763 bound_to 10752
  154.4154  135.6012  153.5981 H   0  0  0  0  0  0  0  0  0  0  0  0  # atno 10764 bound_to 10752
  152.9831  135.5959  154.4241 H   0  0  0  0  0  0  0  0  0  0  0  0  # atno 10765 bound_to 10752
  140.0046  134.9464  157.0147 H   0  0  0  0  0  0  0  0  0  0  0  0  # atno 11005 bound_to 11000
  146.0085  140.8456  142.9982 LP  0  0  0  0  0  0  0  0  0  0  0  0  # atno 17320 bound_to 7965
  144.6798  140.2456  143.7338 LP  0  0  0  0  0  0  0  0  0  0  0  0  # atno 17321 bound_to 7965
  139.5832  144.7520  151.3586 LP  0  0  0  0  0  0  0  0  0  0  0  0  # atno 17342 bound_to 10162
  140.7122  143.7360  150.7588 LP  0  0  0  0  0  0  0  0  0  0  0  0  # atno 17343 bound_to 10162
  157.7224  131.0673  150.6079 LP  0  0  0  0  0  0  0  0  0  0  0  0  # atno 17370 bound_to 10713
  156.6161  130.4393  149.5840 LP  0  0  0  0  0  0  0  0  0  0  0  0  # atno 17371 bound_to 10713
  140.4664  134.1431  155.7197 LP  0  0  0  0  0  0  0  0  0  0  0  0  # atno 17394 bound_to 11000
  141.1667  133.8688  157.1692 LP  0  0  0  0  0  0  0  0  0  0  0  0  # atno 17395 bound_to 11000

$$$$
