AV-unprocessed.smi:2390|AV-procd|sdf|9479|dock5
  -GOLD-   2272013113D 1   1.00000     0.00000
 Structure written by MMmdl.
 46 47  0  0  0  0  0  0  0  0  2 V2000
  152.9281  141.5237  160.4406 C   0  0  0  0  0  0  0  0  0  0  0  0
  152.4979  142.4756  159.3441 C   0  0  0  0  0  0  0  0  0  0  0  0
  152.9768  143.7997  159.3028 C   0  0  0  0  0  0  0  0  0  0  0  0
  152.5375  144.6315  158.2573 C   0  0  0  0  0  0  0  0  0  0  0  0
  151.6427  144.1093  157.3033 C   0  0  0  0  0  0  0  0  0  0  0  0
  151.2119  142.7683  157.4162 C   0  0  0  0  0  0  0  0  0  0  0  0
  150.3054  142.3384  156.4108 N   0  0  0  0  0  0  0  0  0  0  0  0
  149.9522  141.0793  156.0996 C   0  0  0  0  0  0  0  0  0  0  0  0
  150.4290  140.0619  156.6025 O   0  0  0  0  0  0  0  0  0  0  0  0
  148.9885  141.0599  155.1658 N   0  0  0  0  0  0  0  0  0  0  0  0
  148.3707  139.8655  154.5824 C   0  0  2  0  0  0  0  0  0  0  0  0
  149.4979  138.8983  154.1833 C   0  0  0  0  0  0  0  0  0  0  0  0
  147.4384  140.2387  153.3936 C   0  0  1  0  0  0  0  0  0  0  0  0
  146.8882  139.0068  152.6422 C   0  0  0  0  0  0  0  0  0  0  0  0
  146.3553  141.1734  153.8228 N   0  3  0  0  0  0  0  0  0  0  0  0
  145.6992  140.8082  155.1005 C   0  0  0  0  0  0  0  0  0  0  0  0
  144.4780  141.7142  155.3378 C   0  0  0  0  0  0  0  0  0  0  0  0
  144.8767  143.0803  155.3173 O   0  0  0  0  0  0  0  0  0  0  0  0
  145.4434  143.4563  154.0670 C   0  0  0  0  0  0  0  0  0  0  0  0
  146.7042  142.6164  153.8085 C   0  0  0  0  0  0  0  0  0  0  0  0
  151.6393  141.9747  158.4299 N   0  0  0  0  0  0  0  0  0  0  0  0
  153.6603  141.9870  161.1026 H   0  0  0  0  0  0  0  0  0  0  0  0
  153.3777  140.6280  160.0110 H   0  0  0  0  0  0  0  0  0  0  0  0
  152.0683  141.2235  161.0402 H   0  0  0  0  0  0  0  0  0  0  0  0
  153.6627  144.1709  160.0500 H   0  0  0  0  0  0  0  0  0  0  0  0
  152.8801  145.6535  158.1876 H   0  0  0  0  0  0  0  0  0  0  0  0
  151.2953  144.7359  156.4947 H   0  0  0  0  0  0  0  0  0  0  0  0
  149.8579  143.0762  155.8871 H   0  0  0  0  0  0  0  0  0  0  0  0
  148.6645  141.9481  154.8110 H   0  0  0  0  0  0  0  0  0  0  0  0
  147.7799  139.3616  155.3490 H   0  0  0  0  0  0  0  0  0  0  0  0
  149.1073  137.9323  153.8645 H   0  0  0  0  0  0  0  0  0  0  0  0
  150.1642  138.7064  155.0251 H   0  0  0  0  0  0  0  0  0  0  0  0
  150.1006  139.3022  153.3691 H   0  0  0  0  0  0  0  0  0  0  0  0
  148.0607  140.7881  152.6853 H   0  0  0  0  0  0  0  0  0  0  0  0
  147.6877  138.4470  152.1578 H   0  0  0  0  0  0  0  0  0  0  0  0
  146.1909  139.2959  151.8559 H   0  0  0  0  0  0  0  0  0  0  0  0
  146.3708  138.3209  153.3135 H   0  0  0  0  0  0  0  0  0  0  0  0
  145.3775  139.7665  155.0739 H   0  0  0  0  0  0  0  0  0  0  0  0
  146.4059  140.9074  155.9253 H   0  0  0  0  0  0  0  0  0  0  0  0
  143.7116  141.5382  154.5811 H   0  0  0  0  0  0  0  0  0  0  0  0
  144.0269  141.4920  156.3050 H   0  0  0  0  0  0  0  0  0  0  0  0
  144.7142  143.3248  153.2658 H   0  0  0  0  0  0  0  0  0  0  0  0
  145.6968  144.5161  154.0975 H   0  0  0  0  0  0  0  0  0  0  0  0
  147.4468  142.8357  154.5766 H   0  0  0  0  0  0  0  0  0  0  0  0
  147.1420  142.8943  152.8500 H   0  0  0  0  0  0  0  0  0  0  0  0
  145.6352  141.0645  153.1227 H   0  0  0  0  0  0  0  0  0  0  0  0
  1  2  1  0  0  0  0
  1 22  1  0  0  0  0
  1 23  1  0  0  0  0
  1 24  1  0  0  0  0
  2 21  1  0  0  0  0
  2  3  2  0  0  0  0
  3  4  1  0  0  0  0
  3 25  1  0  0  0  0
  4  5  2  0  0  0  0
  4 26  1  0  0  0  0
  5  6  1  0  0  0  0
  5 27  1  0  0  0  0
  6  7  1  0  0  0  0
  6 21  2  0  0  0  0
  7  8  1  0  0  0  0
  7 28  1  0  0  0  0
  8  9  2  0  0  0  0
  8 10  1  0  0  0  0
 10 11  1  0  0  0  0
 10 29  1  0  0  0  0
 11 12  1  0  0  0  0
 11 13  1  0  0  0  0
 11 30  1  0  0  0  0
 12 31  1  0  0  0  0
 12 32  1  0  0  0  0
 12 33  1  0  0  0  0
 13 14  1  0  0  0  0
 13 15  1  0  0  0  0
 13 34  1  0  0  0  0
 14 35  1  0  0  0  0
 14 36  1  0  0  0  0
 14 37  1  0  0  0  0
 15 20  1  0  0  0  0
 15 16  1  0  0  0  0
 15 46  1  0  0  0  0
 16 17  1  0  0  0  0
 16 38  1  0  0  0  0
 16 39  1  0  0  0  0
 17 18  1  0  0  0  0
 17 40  1  0  0  0  0
 17 41  1  0  0  0  0
 18 19  1  0  0  0  0
 19 20  1  0  0  0  0
 19 42  1  0  0  0  0
 19 43  1  0  0  0  0
 20 44  1  0  0  0  0
 20 45  1  0  0  0  0
M  CHG  1  15   1
M  END
> <s_m_source_file>
AV-unprocessed.smi

> <i_m_source_file_index>
2390

> <i_lp_mmshare_version>
43012

> <i_f3d_flags>
0

> <s_epik_input>
W0NIM11jMVtjSF1bY0hdW2NIXWMobjEpW05IXUMoPU8pW05IXVtDQEhdKFtDSDNdKVtDQEhdKFtDSDNdKU4yW0NIMl1bQ0gyXU9bQ0gyXVtDSDJdMg==

> <s_epik_cmdline>
J2VwaWtfcHl0aG9uJywgJy1waCcsICc3LjAnLCAnLXRuJywgJzgnLCAnLW1hJywgJzIwMCcsICctbWV0YWxfYmluZGluZycsICctaW1hZScsICc8aW5maWxlLm1hZT4nLCAnLW9tYWUnLCAnPG91dGZpbGUubWFlPic=

> <r_epik_Ionization_Penalty>
0.60259

> <r_epik_Ionization_Penalty_Charging>
0.602531

> <r_epik_Ionization_Penalty_Neutral>
5.9516e-05

> <r_epik_State_Penalty>
0.617039

> <r_epik_Charging_Adjusted_Penalty>
1.21957

> <i_epik_Tot_Q>
1

> <i_epik_Tot_abs_Q>
1

> <r_epik_Metal_State_Penalty>
0.617047

> <b_epik_Metal_Only>
0

> <s_lp_Force_Field>
OPLS_2005

> <r_lp_Energy>
26.9068

> <b_lp_Chiralities_Consistent>
1

> <s_lp_Variant>
AV-unprocessed.smi:2390-7

> <Gold.Version>
5.8.1

> <Gold.Id.Protein>
6NUR|6NUR_protein|mol2

> <Gold.PLP.Fitness>
51.2789

> <Gold.PLP.PLP>
-43.9587

> <Gold.PLP.part.hbond>
-1.9543

> <Gold.PLP.part.metal>
0.0000

> <Gold.PLP.part.buried>
-4.7707

> <Gold.PLP.part.nonpolar>
-38.8419

> <Gold.PLP.part.repulsive>
0.3272

> <Gold.PLP.ligand.clash>
0.0000

> <Gold.PLP.ligand.torsion>
0.7397

> <Gold.PLP.Chemscore.Hbond>
2.8850

> <Gold.PLP.Chemscore.CHOScore>
0.0000

> <Gold.PLP.Chemscore.Metal>
0.0000

> <Gold.Chemscore.Hbonds>
donor molecule, donor type, donor heavy atom, donor atom, acceptor molecule, acceptor atom, score
      L1  H     7    28       P1  8028  1.00
      L1  H    15    46       P1 10175  1.53

> <Gold.PLP.Chemscore.Internal.Correction>
0.1445

> <Gold.Rescore>
     Score         DG    S(hbond)    S(metal)    S(lipo)     H(rot)  DE(clash)    DE(int)     intcor
     16.77     -20.08       1.93        0.00     102.21       1.48       0.09       3.22       ----

> <Gold.Chemscore.Fitness>
16.7678

> <Gold.Chemscore.DG>
-20.0791

> <Gold.Chemscore.ZeroCoef>
-5.4800

> <Gold.Chemscore.Hbond>
1.9282

> <Gold.Chemscore.Metal>
0.0000

> <Gold.Chemscore.Lipo>
102.2118

> <Gold.Chemscore.Internal_Hbond>
0.0000

> <Gold.Chemscore.DEClash>
0.0872

> <Gold.Chemscore.DEInternal>
3.2241

> <Gold.Chemscore.Rot>
1.4844

> <Gold.Chemscore.Internal.Correction>
   9.000000E+99

> <Gold.Chemscore.Hbonds>
donor molecule, donor type, donor heavy atom, donor atom, acceptor molecule, acceptor atom, score
      L1  H     7    28       P1  8028  0.98
      L1  H    15    46       P1 10175  0.22

> <Gold.Chemscore.Hbond.Weighted>
-6.4403

> <Gold.Chemscore.Metal.Weighted>
-0.0000

> <Gold.Chemscore.Lipo.Weighted>
-11.9588

> <Gold.Chemscore.Internal_Hbond.Weighted>
0.0000

> <Gold.Chemscore.DEClash.Weighted>
0.0872

> <Gold.Chemscore.DEInternal.Weighted>
3.2241

> <Gold.Chemscore.Rot.Weighted>
3.8000

> <Gold.Chemscore.Internal.Correction.Weighted>
   9.000000E+99

> <Gold.Protein.RotatedTorsions>
[ 6907 6896 6895 6894 ] final   91.56 input  -60.11 | X-H torsion
[ 7974 7965 7964 7962 ] final  102.99 input  175.53 | X-H torsion
[ 8008 7997 7996 7995 ] final -112.31 input   59.86 | X-H torsion
[ 10167 10162 10161 10158 ] final  164.56 input  -65.29 | X-H torsion
[ 10718 10713 10712 10709 ] final   43.52 input   66.30 | X-H torsion
[ 10763 10752 10751 10750 ] final  176.71 input  -60.55 | X-H torsion
[ 11005 11000 10999 10996 ] final -162.47 input  -57.11 | X-H torsion

> <Gold.Protein.ActiveResidues>
 VAL166  LYS551  ARG553  GLY616  TRP617  ASP618  TYR619  PRO620  LYS621  CYS622 
 ASP623  PHE694  ASN695  SER759  ASP760  ASP761  ALA762  ILE779  LEU786  VAL792 
 PHE793  MET794  SER795  GLU796  ALA797  LYS798  CYS799  TRP800  GLU811  SER814 

> <Gold.Protein.RotatedAtoms>
  152.5450  134.1637  159.8567 H   0  0  0  0  0  0  0  0  0  0  0  0  # atno 6907 bound_to 6896
  151.1653  133.4812  159.2601 H   0  0  0  0  0  0  0  0  0  0  0  0  # atno 6908 bound_to 6896
  151.1331  135.0151  159.8646 H   0  0  0  0  0  0  0  0  0  0  0  0  # atno 6909 bound_to 6896
  145.3519  139.2437  143.3554 H   0  0  0  0  0  0  0  0  0  0  0  0  # atno 7974 bound_to 7965
  155.0032  140.0394  157.2369 H   0  0  0  0  0  0  0  0  0  0  0  0  # atno 8008 bound_to 7997
  154.7525  140.2769  155.6257 H   0  0  0  0  0  0  0  0  0  0  0  0  # atno 8009 bound_to 7997
  156.2888  140.2644  156.2283 H   0  0  0  0  0  0  0  0  0  0  0  0  # atno 8010 bound_to 7997
  139.4891  144.4222  151.9172 H   0  0  0  0  0  0  0  0  0  0  0  0  # atno 10167 bound_to 10162
  157.4168  130.7946  149.7479 H   0  0  0  0  0  0  0  0  0  0  0  0  # atno 10718 bound_to 10713
  154.4847  135.2776  155.1543 H   0  0  0  0  0  0  0  0  0  0  0  0  # atno 10763 bound_to 10752
  154.3239  135.6204  153.5524 H   0  0  0  0  0  0  0  0  0  0  0  0  # atno 10764 bound_to 10752
  152.9880  135.5749  154.5256 H   0  0  0  0  0  0  0  0  0  0  0  0  # atno 10765 bound_to 10752
  140.6089  134.4870  157.5213 H   0  0  0  0  0  0  0  0  0  0  0  0  # atno 11005 bound_to 11000
  146.2964  140.4136  142.8720 LP  0  0  0  0  0  0  0  0  0  0  0  0  # atno 17320 bound_to 7965
  144.8711  140.7274  143.6046 LP  0  0  0  0  0  0  0  0  0  0  0  0  # atno 17321 bound_to 7965
  140.3667  144.2906  150.5925 LP  0  0  0  0  0  0  0  0  0  0  0  0  # atno 17342 bound_to 10162
  140.5355  143.2234  151.8169 LP  0  0  0  0  0  0  0  0  0  0  0  0  # atno 17343 bound_to 10162
  155.9867  130.3972  150.3197 LP  0  0  0  0  0  0  0  0  0  0  0  0  # atno 17370 bound_to 10713
  157.1341  131.0279  151.2956 LP  0  0  0  0  0  0  0  0  0  0  0  0  # atno 17371 bound_to 10713
  139.9200  134.8167  156.1241 LP  0  0  0  0  0  0  0  0  0  0  0  0  # atno 17394 bound_to 11000
  141.0821  133.6749  156.2359 LP  0  0  0  0  0  0  0  0  0  0  0  0  # atno 17395 bound_to 11000

$$$$
