AV-unprocessed.smi:86|AV-procd|sdf|812|dock1
  -GOLD-   2262017213D 1   1.00000     0.00000
 Structure written by MMmdl.
 51 55  0  0  0  0  0  0  0  0  1 V2000
  147.9372  136.8020  162.8844 O   0  0  0  0  0  0  0  0  0  0  0  0
  147.7190  135.5103  162.3546 C   0  0  0  0  0  0  0  0  0  0  0  0
  147.5872  135.5474  160.8220 C   0  0  0  0  0  0  0  0  0  0  0  0
  147.4786  134.1172  160.2552 C   0  0  0  0  0  0  0  0  0  0  0  0
  147.1480  134.0708  158.8386 N   0  0  0  0  0  0  0  0  0  0  0  0
  145.8881  134.0489  158.2856 C   0  0  0  0  0  0  0  0  0  0  0  0
  145.8543  134.0031  156.9823 N   0  0  0  0  0  0  0  0  0  0  0  0
  147.1917  134.0124  156.6006 C   0  0  0  0  0  0  0  0  0  0  0  0
  147.8753  133.9778  155.3492 C   0  0  0  0  0  0  0  0  0  0  0  0
  147.2571  133.9268  154.1417 N   0  0  0  0  0  0  0  0  0  0  0  0
  147.8990  133.3653  152.9547 C   0  0  0  0  0  0  0  0  0  0  0  0
  146.7384  132.7883  152.1418 C   0  0  2  0  0  0  0  0  0  0  0  0
  146.8826  132.6741  150.6198 C   0  0  0  0  0  0  0  0  0  0  0  0
  145.5583  132.1431  150.0281 C   0  0  0  0  0  0  0  0  0  0  0  0
  144.3345  132.9836  150.4699 C   0  0  1  0  0  0  0  0  0  0  0  0
  143.1501  132.3733  150.0025 O   0  0  0  0  0  0  0  0  0  0  0  0
  144.2556  133.1537  152.0044 C   0  0  0  0  0  0  0  0  0  0  0  0
  145.5896  133.7183  152.5070 C   0  0  1  0  0  0  0  0  0  0  0  0
  145.8020  133.8898  154.0090 C   0  0  0  0  0  0  0  0  0  0  0  0
  149.2341  133.9778  155.3827 N   0  0  0  0  0  0  0  0  0  0  0  0
  149.8845  134.0264  156.5483 C   0  0  0  0  0  0  0  0  0  0  0  0
  149.3809  134.0708  157.7820 N   0  0  0  0  0  0  0  0  0  0  0  0
  148.0177  134.0561  157.7609 C   0  0  0  0  0  0  0  0  0  0  0  0
  146.5541  136.5571  160.3013 C   0  0  0  0  0  0  0  0  0  0  0  0
  147.5781  137.5129  159.9547 O   0  0  0  0  0  0  0  0  0  0  0  0
  148.5755  136.4807  160.1089 C   0  0  0  0  0  0  0  0  0  0  0  0
  147.1871  137.0426  163.4064 H   0  0  0  0  0  0  0  0  0  0  0  0
  148.5265  134.8519  162.6751 H   0  0  0  0  0  0  0  0  0  0  0  0
  146.8099  135.1146  162.8086 H   0  0  0  0  0  0  0  0  0  0  0  0
  148.4198  133.5828  160.3896 H   0  0  0  0  0  0  0  0  0  0  0  0
  146.7363  133.5376  160.8051 H   0  0  0  0  0  0  0  0  0  0  0  0
  144.9869  134.0646  158.8805 H   0  0  0  0  0  0  0  0  0  0  0  0
  148.4071  134.1624  152.4112 H   0  0  0  0  0  0  0  0  0  0  0  0
  148.6253  132.5895  153.1988 H   0  0  0  0  0  0  0  0  0  0  0  0
  146.5224  131.7948  152.5409 H   0  0  0  0  0  0  0  0  0  0  0  0
  147.1202  133.6479  150.1897 H   0  0  0  0  0  0  0  0  0  0  0  0
  147.7054  132.0056  150.3648 H   0  0  0  0  0  0  0  0  0  0  0  0
  145.6241  132.1223  148.9399 H   0  0  0  0  0  0  0  0  0  0  0  0
  145.4205  131.1082  150.3458 H   0  0  0  0  0  0  0  0  0  0  0  0
  144.4014  133.9699  150.0088 H   0  0  0  0  0  0  0  0  0  0  0  0
  142.5539  133.0510  149.7227 H   0  0  0  0  0  0  0  0  0  0  0  0
  143.4371  133.8228  152.2725 H   0  0  0  0  0  0  0  0  0  0  0  0
  144.0519  132.1946  152.4834 H   0  0  0  0  0  0  0  0  0  0  0  0
  145.7553  134.6889  152.0342 H   0  0  0  0  0  0  0  0  0  0  0  0
  145.3992  133.0398  154.5617 H   0  0  0  0  0  0  0  0  0  0  0  0
  145.3381  134.8031  154.3829 H   0  0  0  0  0  0  0  0  0  0  0  0
  150.9625  134.0292  156.4826 H   0  0  0  0  0  0  0  0  0  0  0  0
  146.0065  136.2231  159.4189 H   0  0  0  0  0  0  0  0  0  0  0  0
  145.8707  136.9299  161.0652 H   0  0  0  0  0  0  0  0  0  0  0  0
  149.4162  136.7982  160.7272 H   0  0  0  0  0  0  0  0  0  0  0  0
  148.9224  136.1064  159.1442 H   0  0  0  0  0  0  0  0  0  0  0  0
  1  2  1  0  0  0  0
  1 27  1  0  0  0  0
  2  3  1  0  0  0  0
  2 28  1  0  0  0  0
  2 29  1  0  0  0  0
  3 26  1  0  0  0  0
  3  4  1  0  0  0  0
  3 24  1  0  0  0  0
  4  5  1  0  0  0  0
  4 30  1  0  0  0  0
  4 31  1  0  0  0  0
  5 23  1  0  0  0  0
  5  6  1  0  0  0  0
  6  7  2  0  0  0  0
  6 32  1  0  0  0  0
  7  8  1  0  0  0  0
  8 23  2  0  0  0  0
  8  9  1  0  0  0  0
  9 10  1  0  0  0  0
  9 20  2  0  0  0  0
 10 19  1  0  0  0  0
 10 11  1  0  0  0  0
 11 12  1  0  0  0  0
 11 33  1  0  0  0  0
 11 34  1  0  0  0  0
 12 18  1  0  0  0  0
 12 13  1  0  0  0  0
 12 35  1  0  0  0  0
 13 14  1  0  0  0  0
 13 36  1  0  0  0  0
 13 37  1  0  0  0  0
 14 15  1  0  0  0  0
 14 38  1  0  0  0  0
 14 39  1  0  0  0  0
 15 16  1  0  0  0  0
 15 17  1  0  0  0  0
 15 40  1  0  0  0  0
 16 41  1  0  0  0  0
 17 18  1  0  0  0  0
 17 42  1  0  0  0  0
 17 43  1  0  0  0  0
 18 19  1  0  0  0  0
 18 44  1  0  0  0  0
 19 45  1  0  0  0  0
 19 46  1  0  0  0  0
 20 21  1  0  0  0  0
 21 22  2  0  0  0  0
 21 47  1  0  0  0  0
 22 23  1  0  0  0  0
 24 25  1  0  0  0  0
 24 48  1  0  0  0  0
 24 49  1  0  0  0  0
 25 26  1  0  0  0  0
 26 50  1  0  0  0  0
 26 51  1  0  0  0  0
M  END
> <s_m_source_file>
AV-unprocessed.smi

> <i_m_source_file_index>
86

> <i_lp_mmshare_version>
43012

> <i_f3d_flags>
0

> <s_epik_input>
W0NIMl0xT1tDSDJdQzEoW0NIMl1bT0hdKVtDSDJdbihbY0hdbjIpYyhjMjMpbltjSF1uYzNOKFtDSDJdNClbQ0gyXVtDQEBIXShbQ0BIXTQ1KVtDSDJdW0NASF0oW09IXSlbQ0gyXVtDSDJdNQ==

> <s_epik_cmdline>
J2VwaWtfcHl0aG9uJywgJy1waCcsICc3LjAnLCAnLXRuJywgJzgnLCAnLW1hJywgJzIwMCcsICctbWV0YWxfYmluZGluZycsICctaW1hZScsICc8aW5maWxlLm1hZT4nLCAnLW9tYWUnLCAnPG91dGZpbGUubWFlPic=

> <r_lp_tautomer_probability>
1

> <r_epik_Ionization_Penalty>
0.00425795

> <r_epik_Ionization_Penalty_Charging>
0

> <r_epik_Ionization_Penalty_Neutral>
0.00425795

> <r_epik_State_Penalty>
0.00299946

> <r_epik_Charging_Adjusted_Penalty>
0.00299946

> <i_epik_Tot_Q>
0

> <i_epik_Tot_abs_Q>
0

> <r_epik_Metal_State_Penalty>
-0

> <b_epik_Metal_Only>
0

> <s_lp_Force_Field>
OPLS_2005

> <r_lp_Energy>
53.7305

> <b_lp_Chiralities_Consistent>
1

> <s_lp_Variant>
AV-unprocessed.smi:86-1

> <Gold.Version>
5.8.1

> <Gold.Id.Protein>
6NUR|6NUR_protein|mol2

> <Gold.PLP.Fitness>
45.6785

> <Gold.PLP.PLP>
-35.5451

> <Gold.PLP.part.hbond>
-5.1268

> <Gold.PLP.part.metal>
0.0000

> <Gold.PLP.part.buried>
-4.0459

> <Gold.PLP.part.nonpolar>
-27.0624

> <Gold.PLP.part.repulsive>
0.0733

> <Gold.PLP.ligand.clash>
0.0000

> <Gold.PLP.ligand.torsion>
0.7384

> <Gold.PLP.Chemscore.Hbond>
3.6960

> <Gold.PLP.Chemscore.CHOScore>
0.0000

> <Gold.PLP.Chemscore.Metal>
0.0000

> <Gold.Chemscore.Hbonds>
donor molecule, donor type, donor heavy atom, donor atom, acceptor molecule, acceptor atom, score
      L1  H    16    41       P1 10186  0.89
      P1  H  6896  6909       L1    22  1.00
      P1  H  6931  6943       L1     1  0.87
      P1  H  6934  6947       L1    25  0.83

> <Gold.PLP.Chemscore.Internal.Correction>
0.5222

> <Gold.Rescore>
     Score         DG    S(hbond)    S(metal)    S(lipo)     H(rot)  DE(clash)    DE(int)     intcor
     16.36     -19.17       3.44        0.00      79.29       2.76       0.04       2.77       ----

> <Gold.Chemscore.Fitness>
16.3647

> <Gold.Chemscore.DG>
-19.1746

> <Gold.Chemscore.ZeroCoef>
-5.4800

> <Gold.Chemscore.Hbond>
3.4405

> <Gold.Chemscore.Metal>
0.0000

> <Gold.Chemscore.Lipo>
79.2887

> <Gold.Chemscore.Internal_Hbond>
0.0000

> <Gold.Chemscore.DEClash>
0.0407

> <Gold.Chemscore.DEInternal>
2.7692

> <Gold.Chemscore.Rot>
2.7630

> <Gold.Chemscore.Internal.Correction>
   9.000000E+99

> <Gold.Chemscore.Hbonds>
donor molecule, donor type, donor heavy atom, donor atom, acceptor molecule, acceptor atom, score
      L1  H    16    41       P1 10186  0.87
      P1  H  6896  6909       L1    22  0.89
      P1  H  6931  6943       L1     1  0.77
      P1  H  6934  6947       L1    25  0.45

> <Gold.Chemscore.Hbond.Weighted>
-11.4912

> <Gold.Chemscore.Metal.Weighted>
-0.0000

> <Gold.Chemscore.Lipo.Weighted>
-9.2768

> <Gold.Chemscore.Internal_Hbond.Weighted>
0.0000

> <Gold.Chemscore.DEClash.Weighted>
0.0407

> <Gold.Chemscore.DEInternal.Weighted>
2.7692

> <Gold.Chemscore.Rot.Weighted>
7.0734

> <Gold.Chemscore.Internal.Correction.Weighted>
   9.000000E+99

> <Gold.Protein.RotatedTorsions>
[ 6907 6896 6895 6894 ] final   13.65 input  -60.11 | X-H torsion
[ 7974 7965 7964 7962 ] final   18.35 input  175.53 | X-H torsion
[ 8008 7997 7996 7995 ] final   74.62 input   59.86 | X-H torsion
[ 10167 10162 10161 10158 ] final  -72.22 input  -65.29 | X-H torsion
[ 10718 10713 10712 10709 ] final   54.69 input   66.30 | X-H torsion
[ 10763 10752 10751 10750 ] final -156.12 input  -60.55 | X-H torsion
[ 11005 11000 10999 10996 ] final -136.62 input  -57.11 | X-H torsion

> <Gold.Protein.ActiveResidues>
 VAL166  LYS551  ARG553  GLY616  TRP617  ASP618  TYR619  PRO620  LYS621  CYS622 
 ASP623  PHE694  ASN695  SER759  ASP760  ASP761  ALA762  ILE779  LEU786  VAL792 
 PHE793  MET794  SER795  GLU796  ALA797  LYS798  CYS799  TRP800  GLU811  SER814 

> <Gold.Protein.RotatedAtoms>
  151.7897  135.0739  160.0385 H   0  0  0  0  0  0  0  0  0  0  0  0  # atno 6907 bound_to 6896
  152.3165  133.5804  159.5724 H   0  0  0  0  0  0  0  0  0  0  0  0  # atno 6908 bound_to 6896
  150.7347  133.9990  159.3674 H   0  0  0  0  0  0  0  0  0  0  0  0  # atno 6909 bound_to 6896
  146.2188  139.8470  142.8630 H   0  0  0  0  0  0  0  0  0  0  0  0  # atno 7974 bound_to 7965
  155.8010  140.3476  155.5402 H   0  0  0  0  0  0  0  0  0  0  0  0  # atno 8008 bound_to 7997
  155.8538  140.0960  157.1678 H   0  0  0  0  0  0  0  0  0  0  0  0  # atno 8009 bound_to 7997
  154.4009  140.1371  156.3864 H   0  0  0  0  0  0  0  0  0  0  0  0  # atno 8010 bound_to 7997
  140.5210  143.2332  151.7430 H   0  0  0  0  0  0  0  0  0  0  0  0  # atno 10167 bound_to 10162
  157.5279  130.8610  149.8647 H   0  0  0  0  0  0  0  0  0  0  0  0  # atno 10718 bound_to 10713
  154.7736  135.3152  154.8138 H   0  0  0  0  0  0  0  0  0  0  0  0  # atno 10763 bound_to 10752
  153.8867  135.6829  153.4767 H   0  0  0  0  0  0  0  0  0  0  0  0  # atno 10764 bound_to 10752
  153.1355  135.4761  154.9351 H   0  0  0  0  0  0  0  0  0  0  0  0  # atno 10765 bound_to 10752
  140.8788  134.1958  157.4604 H   0  0  0  0  0  0  0  0  0  0  0  0  # atno 11005 bound_to 11000
  145.2841  141.0147  143.3701 LP  0  0  0  0  0  0  0  0  0  0  0  0  # atno 17320 bound_to 7965
  144.9127  139.4508  143.6579 LP  0  0  0  0  0  0  0  0  0  0  0  0  # atno 17321 bound_to 7965
  139.4923  144.4255  151.9930 LP  0  0  0  0  0  0  0  0  0  0  0  0  # atno 17342 bound_to 10162
  140.3352  144.3269  150.5979 LP  0  0  0  0  0  0  0  0  0  0  0  0  # atno 17343 bound_to 10162
  156.0401  130.3741  150.1459 LP  0  0  0  0  0  0  0  0  0  0  0  0  # atno 17370 bound_to 10713
  156.9644  130.9815  151.3472 LP  0  0  0  0  0  0  0  0  0  0  0  0  # atno 17371 bound_to 10713
  139.8718  134.9808  156.5090 LP  0  0  0  0  0  0  0  0  0  0  0  0  # atno 17394 bound_to 11000
  140.8486  133.8149  155.9146 LP  0  0  0  0  0  0  0  0  0  0  0  0  # atno 17395 bound_to 11000

$$$$
