AV-unprocessed.smi:139|AV-procd|sdf|1181|dock9
  -GOLD-   2262018333D 1   1.00000     0.00000
 Structure written by MMmdl.
 50 53  0  0  0  0  0  0  0  0  1 V2000
  151.7899  136.2508  155.5336 O   0  0  0  0  0  0  0  0  0  0  0  0
  150.5866  136.4339  155.7221 C   0  0  0  0  0  0  0  0  0  0  0  0
  149.7373  135.3939  156.4683 C   0  0  0  0  0  0  0  0  0  0  0  0
  149.8172  134.0402  155.8777 N   0  0  0  0  0  0  0  0  0  0  0  0
  148.9756  133.7190  154.7839 C   0  0  0  0  0  0  0  0  0  0  0  0
  148.1931  134.5466  154.3146 O   0  0  0  0  0  0  0  0  0  0  0  0
  149.0992  132.3584  154.2734 C   0  0  0  0  0  0  0  0  0  0  0  0
  148.3397  131.9652  153.2368 F   0  0  0  0  0  0  0  0  0  0  0  0
  149.9638  131.4831  154.8270 C   0  0  0  0  0  0  0  0  0  0  0  0
  150.7796  131.8104  155.8957 N   0  0  0  0  0  0  0  0  0  0  0  0
  151.7317  130.8107  156.5188 C   0  0  2  0  0  0  0  0  0  0  0  0
  153.1883  131.2981  156.3973 C   0  0  0  0  0  0  0  0  0  0  0  0
  153.8909  130.1059  155.7782 C   0  0  0  0  0  0  0  0  0  0  0  0
  152.7716  129.4647  154.9723 C   0  0  0  0  0  0  0  0  0  0  0  0
  151.6522  129.5899  155.8394 O   0  0  0  0  0  0  0  0  0  0  0  0
  150.7115  133.1059  156.4524 C   0  0  0  0  0  0  0  0  0  0  0  0
  151.4141  133.4113  157.4188 O   0  0  0  0  0  0  0  0  0  0  0  0
  149.9320  137.5303  155.3111 N   0  0  0  0  0  0  0  0  0  0  0  0
  150.5028  138.6421  154.5533 C   0  0  2  0  0  0  0  0  0  0  0  0
  151.7953  139.1339  155.2320 C   0  0  0  0  0  0  0  0  0  0  0  0
  151.5112  140.1158  156.3723 C   0  0  0  0  0  0  0  0  0  0  0  0
  150.7572  141.3491  155.8616 C   0  0  0  0  0  0  0  0  0  0  0  0
  149.5709  141.0039  154.9747 C   0  0  0  0  0  0  0  0  0  0  0  0
  148.5712  141.9773  154.7664 C   0  0  0  0  0  0  0  0  0  0  0  0
  147.4616  141.6967  153.9471 C   0  0  0  0  0  0  0  0  0  0  0  0
  147.3460  140.4384  153.3290 C   0  0  0  0  0  0  0  0  0  0  0  0
  148.3407  139.4632  153.5297 C   0  0  0  0  0  0  0  0  0  0  0  0
  149.4590  139.7360  154.3477 C   0  0  0  0  0  0  0  0  0  0  0  0
  150.0423  135.3940  157.5156 H   0  0  0  0  0  0  0  0  0  0  0  0
  148.7007  135.7350  156.4955 H   0  0  0  0  0  0  0  0  0  0  0  0
  150.0018  130.4911  154.4039 H   0  0  0  0  0  0  0  0  0  0  0  0
  151.3878  130.6778  157.5461 H   0  0  0  0  0  0  0  0  0  0  0  0
  153.2450  132.1610  155.7316 H   0  0  0  0  0  0  0  0  0  0  0  0
  153.5910  131.5750  157.3720 H   0  0  0  0  0  0  0  0  0  0  0  0
  154.7508  130.3844  155.1687 H   0  0  0  0  0  0  0  0  0  0  0  0
  154.2292  129.4223  156.5579 H   0  0  0  0  0  0  0  0  0  0  0  0
  152.5950  130.0146  154.0468 H   0  0  0  0  0  0  0  0  0  0  0  0
  152.9730  128.4229  154.7231 H   0  0  0  0  0  0  0  0  0  0  0  0
  148.9452  137.5899  155.5173 H   0  0  0  0  0  0  0  0  0  0  0  0
  150.7764  138.2942  153.5556 H   0  0  0  0  0  0  0  0  0  0  0  0
  152.3948  138.2922  155.5816 H   0  0  0  0  0  0  0  0  0  0  0  0
  152.4074  139.6483  154.4899 H   0  0  0  0  0  0  0  0  0  0  0  0
  150.9146  139.6138  157.1349 H   0  0  0  0  0  0  0  0  0  0  0  0
  152.4398  140.4196  156.8564 H   0  0  0  0  0  0  0  0  0  0  0  0
  150.4207  141.9510  156.7068 H   0  0  0  0  0  0  0  0  0  0  0  0
  151.4344  141.9766  155.2812 H   0  0  0  0  0  0  0  0  0  0  0  0
  148.6531  142.9463  155.2367 H   0  0  0  0  0  0  0  0  0  0  0  0
  146.6998  142.4469  153.7938 H   0  0  0  0  0  0  0  0  0  0  0  0
  146.4947  140.2201  152.7013 H   0  0  0  0  0  0  0  0  0  0  0  0
  148.2433  138.4982  153.0536 H   0  0  0  0  0  0  0  0  0  0  0  0
  1  2  2  0  0  0  0
  2  3  1  0  0  0  0
  2 18  1  0  0  0  0
  3  4  1  0  0  0  0
  3 29  1  0  0  0  0
  3 30  1  0  0  0  0
  4 16  1  0  0  0  0
  4  5  1  0  0  0  0
  5  6  2  0  0  0  0
  5  7  1  0  0  0  0
  7  8  1  0  0  0  0
  7  9  2  0  0  0  0
  9 10  1  0  0  0  0
  9 31  1  0  0  0  0
 10 11  1  0  0  0  0
 10 16  1  0  0  0  0
 11 15  1  0  0  0  0
 11 12  1  0  0  0  0
 11 32  1  0  0  0  0
 12 13  1  0  0  0  0
 12 33  1  0  0  0  0
 12 34  1  0  0  0  0
 13 14  1  0  0  0  0
 13 35  1  0  0  0  0
 13 36  1  0  0  0  0
 14 15  1  0  0  0  0
 14 37  1  0  0  0  0
 14 38  1  0  0  0  0
 16 17  2  0  0  0  0
 18 19  1  0  0  0  0
 18 39  1  0  0  0  0
 19 28  1  0  0  0  0
 19 20  1  0  0  0  0
 19 40  1  0  0  0  0
 20 21  1  0  0  0  0
 20 41  1  0  0  0  0
 20 42  1  0  0  0  0
 21 22  1  0  0  0  0
 21 43  1  0  0  0  0
 21 44  1  0  0  0  0
 22 23  1  0  0  0  0
 22 45  1  0  0  0  0
 22 46  1  0  0  0  0
 23 28  2  0  0  0  0
 23 24  1  0  0  0  0
 24 25  2  0  0  0  0
 24 47  1  0  0  0  0
 25 26  1  0  0  0  0
 25 48  1  0  0  0  0
 26 27  2  0  0  0  0
 26 49  1  0  0  0  0
 27 28  1  0  0  0  0
 27 50  1  0  0  0  0
M  END
> <s_m_source_file>
AV-unprocessed.smi

> <i_m_source_file_index>
139

> <i_lp_mmshare_version>
43012

> <i_f3d_flags>
0

> <s_epik_input>
W2NIXTFbY0hdW2NIXVtjSF1jKGMxMilbQ0BASF0oW0NIMl1bQ0gyXVtDSDJdMilbTkhdQyg9TylbQ0gyXW4zYyg9TyljKEYpW2NIXW4oYzM9TylbQ0BASF00W0NIMl1bQ0gyXVtDSDJdTzQ=

> <s_epik_cmdline>
J2VwaWtfcHl0aG9uJywgJy1waCcsICc3LjAnLCAnLXRuJywgJzgnLCAnLW1hJywgJzIwMCcsICctbWV0YWxfYmluZGluZycsICctaW1hZScsICc8aW5maWxlLm1hZT4nLCAnLW9tYWUnLCAnPG91dGZpbGUubWFlPic=

> <r_lp_tautomer_probability>
1

> <r_epik_Ionization_Penalty>
3.261e-08

> <r_epik_Ionization_Penalty_Charging>
3.6725e-09

> <r_epik_Ionization_Penalty_Neutral>
2.89375e-08

> <r_epik_State_Penalty>
-0

> <r_epik_Charging_Adjusted_Penalty>
3.6725e-09

> <i_epik_Tot_Q>
0

> <i_epik_Tot_abs_Q>
0

> <r_epik_Metal_State_Penalty>
-0

> <b_epik_Metal_Only>
0

> <s_epik_Chemistry_Notes>
This compound contains an acetal/aminal-like group ( X-CH(R)-Y where X, Y are N, S, or O) that may be acid/base labile, releasing an aldehyde.

> <s_lp_Force_Field>
OPLS_2005

> <r_lp_Energy>
30.3029

> <b_lp_Chiralities_Consistent>
1

> <s_lp_Variant>
AV-unprocessed.smi:139-1

> <Gold.Version>
5.8.1

> <Gold.Id.Protein>
6NUR|6NUR_protein|mol2

> <Gold.PLP.Fitness>
54.5120

> <Gold.PLP.PLP>
-50.2206

> <Gold.PLP.part.hbond>
-2.0000

> <Gold.PLP.part.metal>
0.0000

> <Gold.PLP.part.buried>
0.1349

> <Gold.PLP.part.nonpolar>
-49.4890

> <Gold.PLP.part.repulsive>
0.8003

> <Gold.PLP.ligand.clash>
0.0000

> <Gold.PLP.ligand.torsion>
0.4126

> <Gold.PLP.Chemscore.Hbond>
1.6953

> <Gold.PLP.Chemscore.CHOScore>
0.0000

> <Gold.PLP.Chemscore.Metal>
0.0000

> <Gold.Chemscore.Hbonds>
donor molecule, donor type, donor heavy atom, donor atom, acceptor molecule, acceptor atom, score
      P1  H  6896  6909       L1    17  0.64
      P1  H 10752 10765       L1     1  1.00

> <Gold.PLP.Chemscore.Internal.Correction>
0.0307

> <Gold.Rescore>
     Score         DG    S(hbond)    S(metal)    S(lipo)     H(rot)  DE(clash)    DE(int)     intcor
     16.15     -18.33       1.93        0.00      94.39       1.82       0.52       1.66       ----

> <Gold.Chemscore.Fitness>
16.1475

> <Gold.Chemscore.DG>
-18.3253

> <Gold.Chemscore.ZeroCoef>
-5.4800

> <Gold.Chemscore.Hbond>
1.9325

> <Gold.Chemscore.Metal>
0.0000

> <Gold.Chemscore.Lipo>
94.3863

> <Gold.Chemscore.Internal_Hbond>
0.0000

> <Gold.Chemscore.DEClash>
0.5164

> <Gold.Chemscore.DEInternal>
1.6613

> <Gold.Chemscore.Rot>
1.8174

> <Gold.Chemscore.Internal.Correction>
   9.000000E+99

> <Gold.Chemscore.Hbonds>
donor molecule, donor type, donor heavy atom, donor atom, acceptor molecule, acceptor atom, score
      P1  H  6896  6909       L1    17  0.64
      P1  H 10752 10765       L1     1  0.97

> <Gold.Chemscore.Hbond.Weighted>
-6.4545

> <Gold.Chemscore.Metal.Weighted>
-0.0000

> <Gold.Chemscore.Lipo.Weighted>
-11.0432

> <Gold.Chemscore.Internal_Hbond.Weighted>
0.0000

> <Gold.Chemscore.DEClash.Weighted>
0.5164

> <Gold.Chemscore.DEInternal.Weighted>
1.6613

> <Gold.Chemscore.Rot.Weighted>
4.6524

> <Gold.Chemscore.Internal.Correction.Weighted>
   9.000000E+99

> <Gold.Protein.RotatedTorsions>
[ 6907 6896 6895 6894 ] final  -36.90 input  -60.11 | X-H torsion
[ 7974 7965 7964 7962 ] final   -0.04 input  175.53 | X-H torsion
[ 8008 7997 7996 7995 ] final    7.21 input   59.86 | X-H torsion
[ 10167 10162 10161 10158 ] final -116.67 input  -65.29 | X-H torsion
[ 10718 10713 10712 10709 ] final -105.84 input   66.30 | X-H torsion
[ 10763 10752 10751 10750 ] final -165.99 input  -60.55 | X-H torsion
[ 11005 11000 10999 10996 ] final   53.06 input  -57.11 | X-H torsion

> <Gold.Protein.ActiveResidues>
 VAL166  LYS551  ARG553  GLY616  TRP617  ASP618  TYR619  PRO620  LYS621  CYS622 
 ASP623  PHE694  ASN695  SER759  ASP760  ASP761  ALA762  ILE779  LEU786  VAL792 
 PHE793  MET794  SER795  GLU796  ALA797  LYS798  CYS799  TRP800  GLU811  SER814 

> <Gold.Protein.RotatedAtoms>
  151.0213  134.9471  159.8060 H   0  0  0  0  0  0  0  0  0  0  0  0  # atno 6907 bound_to 6896
  152.5326  134.2899  159.9049 H   0  0  0  0  0  0  0  0  0  0  0  0  # atno 6908 bound_to 6896
  151.2907  133.4125  159.2667 H   0  0  0  0  0  0  0  0  0  0  0  0  # atno 6909 bound_to 6896
  146.2430  140.1209  142.8340 H   0  0  0  0  0  0  0  0  0  0  0  0  # atno 7974 bound_to 7965
  154.7509  140.2767  155.6293 H   0  0  0  0  0  0  0  0  0  0  0  0  # atno 8008 bound_to 7997
  156.2895  140.2678  156.2189 H   0  0  0  0  0  0  0  0  0  0  0  0  # atno 8009 bound_to 7997
  155.0138  140.0372  157.2399 H   0  0  0  0  0  0  0  0  0  0  0  0  # atno 8010 bound_to 7997
  140.0767  143.4826  152.1949 H   0  0  0  0  0  0  0  0  0  0  0  0  # atno 10167 bound_to 10162
  156.0363  130.5583  150.7596 H   0  0  0  0  0  0  0  0  0  0  0  0  # atno 10718 bound_to 10713
  154.6877  135.2965  154.9523 H   0  0  0  0  0  0  0  0  0  0  0  0  # atno 10763 bound_to 10752
  154.0497  135.6646  153.4803 H   0  0  0  0  0  0  0  0  0  0  0  0  # atno 10764 bound_to 10752
  153.0590  135.5127  154.7953 H   0  0  0  0  0  0  0  0  0  0  0  0  # atno 10765 bound_to 10752
  140.0798  134.5355  155.8959 H   0  0  0  0  0  0  0  0  0  0  0  0  # atno 11005 bound_to 11000
  145.0407  140.8943  143.5054 LP  0  0  0  0  0  0  0  0  0  0  0  0  # atno 17320 bound_to 7965
  145.1289  139.2644  143.5549 LP  0  0  0  0  0  0  0  0  0  0  0  0  # atno 17321 bound_to 7965
  139.5804  144.7507  151.3656 LP  0  0  0  0  0  0  0  0  0  0  0  0  # atno 17342 bound_to 10162
  140.7098  143.7419  150.7547 LP  0  0  0  0  0  0  0  0  0  0  0  0  # atno 17343 bound_to 10162
  157.5119  131.0926  151.0187 LP  0  0  0  0  0  0  0  0  0  0  0  0  # atno 17370 bound_to 10713
  157.0540  130.5799  149.5375 LP  0  0  0  0  0  0  0  0  0  0  0  0  # atno 17371 bound_to 10713
  141.2042  133.6638  156.6109 LP  0  0  0  0  0  0  0  0  0  0  0  0  # atno 17394 bound_to 11000
  140.3505  134.7773  157.4463 LP  0  0  0  0  0  0  0  0  0  0  0  0  # atno 17395 bound_to 11000

$$$$
