AV-unprocessed.smi:203|AV-procd|sdf|1582|dock8
  -GOLD-   2262019473D 1   1.00000     0.00000
 Structure written by MMmdl.
 57 61  0  0  0  0  0  0  0  0  1 V2000
  143.1783  132.1417  149.3123 O   0  0  0  0  0  0  0  0  0  0  0  0
  144.1996  132.4537  149.9200 C   0  0  0  0  0  0  0  0  0  0  0  0
  144.3013  132.4718  151.4353 C   0  0  0  0  0  0  0  0  0  0  0  0
  145.8065  132.6867  151.6958 C   0  0  1  0  0  0  0  0  0  0  0  0
  146.5411  131.4517  152.3077 C   0  0  2  0  0  0  0  0  0  0  0  0
  145.9653  130.1005  151.8068 C   0  0  0  0  0  0  0  0  0  0  0  0
  146.7082  128.9050  152.4172 C   0  0  0  0  0  0  0  0  0  0  0  0
  146.6750  128.9972  153.9463 C   0  0  0  0  0  0  0  0  0  0  0  0
  147.2531  130.3395  154.4128 C   0  0  0  0  0  0  0  0  0  0  0  0
  146.5646  131.4653  153.7816 N   0  0  0  0  0  0  0  0  0  0  0  0
  146.9349  132.6255  154.3681 C   0  0  0  0  0  0  0  0  0  0  0  0
  145.9451  133.4370  154.8142 N   0  0  0  0  0  0  0  0  0  0  0  0
  146.2493  134.5985  155.4015 C   0  0  0  0  0  0  0  0  0  0  0  0
  147.4533  135.1227  155.6423 N   0  0  0  0  0  0  0  0  0  0  0  0
  148.4498  134.3018  155.2021 C   0  0  0  0  0  0  0  0  0  0  0  0
  148.2817  133.0458  154.5555 C   0  0  0  0  0  0  0  0  0  0  0  0
  149.5217  132.5001  154.2467 N   0  0  0  0  0  0  0  0  0  0  0  0
  150.3752  133.3821  154.6894 C   0  0  0  0  0  0  0  0  0  0  0  0
  149.8182  134.4863  155.2947 N   0  0  0  0  0  0  0  0  0  0  0  0
  150.5302  135.6065  155.8848 C   0  0  0  0  0  0  0  0  0  0  0  0
  150.4363  136.9063  155.0519 C   0  0  2  0  0  0  0  0  0  0  0  0
  151.5358  136.9521  154.1663 O   0  0  0  0  0  0  0  0  0  0  0  0
  150.3711  138.2404  155.8333 C   0  0  2  0  0  0  0  0  0  0  0  0
  150.0979  139.5052  155.0159 C   0  0  0  0  0  0  0  0  0  0  0  0
  150.6220  140.5766  155.9457 C   0  0  0  0  0  0  0  0  0  0  0  0
  151.8494  139.9010  156.5536 C   0  0  0  0  0  0  0  0  0  0  0  0
  151.5761  138.5020  156.5482 O   0  0  0  0  0  0  0  0  0  0  0  0
  146.3861  133.1296  150.3351 C   0  0  0  0  0  0  0  0  0  0  0  0
  145.3536  132.8193  149.3657 N   0  0  0  0  0  0  0  0  0  0  0  0
  143.7135  133.3040  151.8242 H   0  0  0  0  0  0  0  0  0  0  0  0
  143.9123  131.5519  151.8723 H   0  0  0  0  0  0  0  0  0  0  0  0
  145.9221  133.5362  152.3692 H   0  0  0  0  0  0  0  0  0  0  0  0
  147.5785  131.4952  151.9747 H   0  0  0  0  0  0  0  0  0  0  0  0
  144.9086  130.0214  152.0625 H   0  0  0  0  0  0  0  0  0  0  0  0
  146.0212  130.0313  150.7211 H   0  0  0  0  0  0  0  0  0  0  0  0
  146.2548  127.9703  152.0863 H   0  0  0  0  0  0  0  0  0  0  0  0
  147.7416  128.8940  152.0686 H   0  0  0  0  0  0  0  0  0  0  0  0
  145.6482  128.8966  154.3003 H   0  0  0  0  0  0  0  0  0  0  0  0
  147.2392  128.1738  154.3847 H   0  0  0  0  0  0  0  0  0  0  0  0
  147.1702  130.4125  155.4983 H   0  0  0  0  0  0  0  0  0  0  0  0
  148.3165  130.3844  154.1725 H   0  0  0  0  0  0  0  0  0  0  0  0
  145.4075  135.1915  155.7272 H   0  0  0  0  0  0  0  0  0  0  0  0
  151.4425  133.2418  154.5979 H   0  0  0  0  0  0  0  0  0  0  0  0
  150.1414  135.7697  156.8907 H   0  0  0  0  0  0  0  0  0  0  0  0
  151.5746  135.3161  156.0057 H   0  0  0  0  0  0  0  0  0  0  0  0
  149.5461  136.8486  154.4254 H   0  0  0  0  0  0  0  0  0  0  0  0
  151.2085  136.9278  153.2805 H   0  0  0  0  0  0  0  0  0  0  0  0
  149.5956  138.1580  156.5972 H   0  0  0  0  0  0  0  0  0  0  0  0
  150.6681  139.5184  154.0878 H   0  0  0  0  0  0  0  0  0  0  0  0
  149.0434  139.6320  154.7699 H   0  0  0  0  0  0  0  0  0  0  0  0
  150.8587  141.5110  155.4363 H   0  0  0  0  0  0  0  0  0  0  0  0
  149.8865  140.7876  156.7234 H   0  0  0  0  0  0  0  0  0  0  0  0
  152.7306  140.0833  155.9381 H   0  0  0  0  0  0  0  0  0  0  0  0
  152.0627  140.2595  157.5608 H   0  0  0  0  0  0  0  0  0  0  0  0
  146.5648  134.2057  150.3217 H   0  0  0  0  0  0  0  0  0  0  0  0
  147.3271  132.6391  150.0855 H   0  0  0  0  0  0  0  0  0  0  0  0
  145.5085  132.8774  148.3696 H   0  0  0  0  0  0  0  0  0  0  0  0
  1  2  2  0  0  0  0
  2 29  1  0  0  0  0
  2  3  1  0  0  0  0
  3  4  1  0  0  0  0
  3 30  1  0  0  0  0
  3 31  1  0  0  0  0
  4  5  1  0  0  0  0
  4 28  1  0  0  0  0
  4 32  1  0  0  0  0
  5 10  1  0  0  0  0
  5  6  1  0  0  0  0
  5 33  1  0  0  0  0
  6  7  1  0  0  0  0
  6 34  1  0  0  0  0
  6 35  1  0  0  0  0
  7  8  1  0  0  0  0
  7 36  1  0  0  0  0
  7 37  1  0  0  0  0
  8  9  1  0  0  0  0
  8 38  1  0  0  0  0
  8 39  1  0  0  0  0
  9 10  1  0  0  0  0
  9 40  1  0  0  0  0
  9 41  1  0  0  0  0
 10 11  1  0  0  0  0
 11 16  1  0  0  0  0
 11 12  2  0  0  0  0
 12 13  1  0  0  0  0
 13 14  2  0  0  0  0
 13 42  1  0  0  0  0
 14 15  1  0  0  0  0
 15 19  1  0  0  0  0
 15 16  2  0  0  0  0
 16 17  1  0  0  0  0
 17 18  2  0  0  0  0
 18 19  1  0  0  0  0
 18 43  1  0  0  0  0
 19 20  1  0  0  0  0
 20 21  1  0  0  0  0
 20 44  1  0  0  0  0
 20 45  1  0  0  0  0
 21 22  1  0  0  0  0
 21 23  1  0  0  0  0
 21 46  1  0  0  0  0
 22 47  1  0  0  0  0
 23 27  1  0  0  0  0
 23 24  1  0  0  0  0
 23 48  1  0  0  0  0
 24 25  1  0  0  0  0
 24 49  1  0  0  0  0
 24 50  1  0  0  0  0
 25 26  1  0  0  0  0
 25 51  1  0  0  0  0
 25 52  1  0  0  0  0
 26 27  1  0  0  0  0
 26 53  1  0  0  0  0
 26 54  1  0  0  0  0
 28 29  1  0  0  0  0
 28 55  1  0  0  0  0
 28 56  1  0  0  0  0
 29 57  1  0  0  0  0
M  END
> <s_m_source_file>
AV-unprocessed.smi

> <i_m_source_file_index>
203

> <i_lp_mmshare_version>
43012

> <i_f3d_flags>
0

> <s_epik_input>
Tz1DMVtDSDJdW0NASF0oW0NIMl1bTkhdMSlbQ0BASF0yW0NIMl1bQ0gyXVtDSDJdW0NIMl1OMmMobltjSF1uMyljKGMzNCluW2NIXW40W0NIMl1bQ0BIXShbT0hdKVtDQEBIXTVbQ0gyXVtDSDJdW0NIMl1PNQ==

> <s_epik_cmdline>
J2VwaWtfcHl0aG9uJywgJy1waCcsICc3LjAnLCAnLXRuJywgJzgnLCAnLW1hJywgJzIwMCcsICctbWV0YWxfYmluZGluZycsICctaW1hZScsICc8aW5maWxlLm1hZT4nLCAnLW9tYWUnLCAnPG91dGZpbGUubWFlPic=

> <r_lp_tautomer_probability>
1

> <r_epik_Ionization_Penalty>
0.00175146

> <r_epik_Ionization_Penalty_Charging>
0

> <r_epik_Ionization_Penalty_Neutral>
0.00175146

> <r_epik_State_Penalty>
0.00109045

> <r_epik_Charging_Adjusted_Penalty>
0.00109045

> <i_epik_Tot_Q>
0

> <i_epik_Tot_abs_Q>
0

> <r_epik_Metal_State_Penalty>
-0

> <b_epik_Metal_Only>
0

> <s_lp_Force_Field>
OPLS_2005

> <r_lp_Energy>
56.5802

> <b_lp_Chiralities_Consistent>
1

> <s_lp_Variant>
AV-unprocessed.smi:203-1

> <Gold.Version>
5.8.1

> <Gold.Id.Protein>
6NUR|6NUR_protein|mol2

> <Gold.PLP.Fitness>
47.9521

> <Gold.PLP.PLP>
-41.9672

> <Gold.PLP.part.hbond>
-4.0000

> <Gold.PLP.part.metal>
0.0000

> <Gold.PLP.part.buried>
-6.2607

> <Gold.PLP.part.nonpolar>
-32.3191

> <Gold.PLP.part.repulsive>
1.6685

> <Gold.PLP.ligand.clash>
0.0000

> <Gold.PLP.ligand.torsion>
1.6743

> <Gold.PLP.Chemscore.Hbond>
3.0140

> <Gold.PLP.Chemscore.CHOScore>
0.0000

> <Gold.PLP.Chemscore.Metal>
0.0000

> <Gold.Chemscore.Hbonds>
donor molecule, donor type, donor heavy atom, donor atom, acceptor molecule, acceptor atom, score
      L1  H    22    47       P1  7949  0.96
      L1  H    29    57       P1  7921  0.11
      P1  H 10752 10765       L1    22  1.00
      P1  H 10785 10796       L1     1  0.88

> <Gold.PLP.Chemscore.Internal.Correction>
0.2915

> <Gold.Rescore>
     Score         DG    S(hbond)    S(metal)    S(lipo)     H(rot)  DE(clash)    DE(int)     intcor
     15.25     -17.52       2.38        0.00      94.42       2.72       0.91       1.37       ----

> <Gold.Chemscore.Fitness>
15.2497

> <Gold.Chemscore.DG>
-17.5229

> <Gold.Chemscore.ZeroCoef>
-5.4800

> <Gold.Chemscore.Hbond>
2.3808

> <Gold.Chemscore.Metal>
0.0000

> <Gold.Chemscore.Lipo>
94.4153

> <Gold.Chemscore.Internal_Hbond>
0.0000

> <Gold.Chemscore.DEClash>
0.9078

> <Gold.Chemscore.DEInternal>
1.3654

> <Gold.Chemscore.Rot>
2.7171

> <Gold.Chemscore.Internal.Correction>
   9.000000E+99

> <Gold.Chemscore.Hbonds>
donor molecule, donor type, donor heavy atom, donor atom, acceptor molecule, acceptor atom, score
      L1  H    22    47       P1  7949  0.48
      P1  H 10752 10765       L1    22  0.59
      P1  H 10785 10796       L1     1  0.69

> <Gold.Chemscore.Hbond.Weighted>
-7.9520

> <Gold.Chemscore.Metal.Weighted>
-0.0000

> <Gold.Chemscore.Lipo.Weighted>
-11.0466

> <Gold.Chemscore.Internal_Hbond.Weighted>
0.0000

> <Gold.Chemscore.DEClash.Weighted>
0.9078

> <Gold.Chemscore.DEInternal.Weighted>
1.3654

> <Gold.Chemscore.Rot.Weighted>
6.9557

> <Gold.Chemscore.Internal.Correction.Weighted>
   9.000000E+99

> <Gold.Protein.RotatedTorsions>
[ 6907 6896 6895 6894 ] final  -45.56 input  -60.11 | X-H torsion
[ 7974 7965 7964 7962 ] final   -3.56 input  175.53 | X-H torsion
[ 8008 7997 7996 7995 ] final -129.79 input   59.86 | X-H torsion
[ 10167 10162 10161 10158 ] final  146.44 input  -65.29 | X-H torsion
[ 10718 10713 10712 10709 ] final  -26.82 input   66.30 | X-H torsion
[ 10763 10752 10751 10750 ] final  162.45 input  -60.55 | X-H torsion
[ 11005 11000 10999 10996 ] final  -27.21 input  -57.11 | X-H torsion

> <Gold.Protein.ActiveResidues>
 VAL166  LYS551  ARG553  GLY616  TRP617  ASP618  TYR619  PRO620  LYS621  CYS622 
 ASP623  PHE694  ASN695  SER759  ASP760  ASP761  ALA762  ILE779  LEU786  VAL792 
 PHE793  MET794  SER795  GLU796  ALA797  LYS798  CYS799  TRP800  GLU811  SER814 

> <Gold.Protein.RotatedAtoms>
  150.9207  134.8624  159.7486 H   0  0  0  0  0  0  0  0  0  0  0  0  # atno 6907 bound_to 6896
  152.4991  134.4223  159.9494 H   0  0  0  0  0  0  0  0  0  0  0  0  # atno 6908 bound_to 6896
  151.4257  133.3645  159.2797 H   0  0  0  0  0  0  0  0  0  0  0  0  # atno 6909 bound_to 6896
  146.2387  140.1740  142.8332 H   0  0  0  0  0  0  0  0  0  0  0  0  # atno 7974 bound_to 7965
  155.2850  140.0446  157.3018 H   0  0  0  0  0  0  0  0  0  0  0  0  # atno 8008 bound_to 7997
  154.5575  140.2336  155.8356 H   0  0  0  0  0  0  0  0  0  0  0  0  # atno 8009 bound_to 7997
  156.2019  140.3023  155.9552 H   0  0  0  0  0  0  0  0  0  0  0  0  # atno 8010 bound_to 7997
  139.4907  144.5829  151.6835 H   0  0  0  0  0  0  0  0  0  0  0  0  # atno 10167 bound_to 10162
  156.4462  130.4474  149.7019 H   0  0  0  0  0  0  0  0  0  0  0  0  # atno 10718 bound_to 10713
  154.2786  135.2764  155.2707 H   0  0  0  0  0  0  0  0  0  0  0  0  # atno 10763 bound_to 10752
  154.5238  135.5749  153.6706 H   0  0  0  0  0  0  0  0  0  0  0  0  # atno 10764 bound_to 10752
  152.9933  135.6211  154.2944 H   0  0  0  0  0  0  0  0  0  0  0  0  # atno 10765 bound_to 10752
  140.9099  133.7467  156.0657 H   0  0  0  0  0  0  0  0  0  0  0  0  # atno 11005 bound_to 11000
  144.9988  140.8614  143.5294 LP  0  0  0  0  0  0  0  0  0  0  0  0  # atno 17320 bound_to 7965
  145.1756  139.2380  143.5319 LP  0  0  0  0  0  0  0  0  0  0  0  0  # atno 17321 bound_to 7965
  140.5439  144.0534  150.6099 LP  0  0  0  0  0  0  0  0  0  0  0  0  # atno 17342 bound_to 10162
  140.3566  143.2932  152.0430 LP  0  0  0  0  0  0  0  0  0  0  0  0  # atno 17343 bound_to 10162
  156.3864  130.7605  151.2602 LP  0  0  0  0  0  0  0  0  0  0  0  0  # atno 17370 bound_to 10713
  157.7504  131.0280  150.4032 LP  0  0  0  0  0  0  0  0  0  0  0  0  # atno 17371 bound_to 10713
  140.8123  134.3385  157.5408 LP  0  0  0  0  0  0  0  0  0  0  0  0  # atno 17394 bound_to 11000
  139.8756  134.9261  156.3392 LP  0  0  0  0  0  0  0  0  0  0  0  0  # atno 17395 bound_to 11000

$$$$
