AV-unprocessed.smi:2454|AV-procd|sdf|9697|dock8
  -GOLD-   2272013333D 1   1.00000     0.00000
 Structure written by MMmdl.
 42 43  0  0  0  0  0  0  0  0  1 V2000
  154.2600  132.0990  158.5338 C   0  0  0  0  0  0  0  0  0  0  0  0
  154.3308  133.2845  159.3064 O   0  0  0  0  0  0  0  0  0  0  0  0
  154.8849  133.0621  160.5921 C   0  0  0  0  0  0  0  0  0  0  0  0
  155.1342  134.3676  161.3186 C   0  0  0  0  0  0  0  0  0  0  0  0
  154.7256  135.6014  160.7695 C   0  0  0  0  0  0  0  0  0  0  0  0
  154.9923  136.7677  161.5220 C   0  0  0  0  0  0  0  0  0  0  0  0
  154.5607  137.9873  160.9221 N   0  0  0  0  0  0  0  0  0  0  0  0
  154.5050  139.2487  161.4012 C   0  0  0  0  0  0  0  0  0  0  0  0
  154.8660  139.5072  162.5483 O   0  0  0  0  0  0  0  0  0  0  0  0
  154.0379  140.1846  160.5586 N   0  0  0  0  0  0  0  0  0  0  0  0
  153.8973  141.6065  160.8545 C   0  0  2  0  0  0  0  0  0  0  0  0
  153.3867  141.8138  162.2940 C   0  0  0  0  0  0  0  0  0  0  0  0
  153.1537  143.3022  162.5926 C   0  0  0  0  0  0  0  0  0  0  0  0
  152.1972  143.9344  161.5693 C   0  0  0  0  0  0  0  0  0  0  0  0
  152.7045  143.7455  160.1240 C   0  0  2  0  0  0  0  0  0  0  0  0
  151.7609  144.3937  159.0901 C   0  0  0  0  0  0  0  0  0  0  0  0
  152.3594  144.5039  157.9037 F   0  0  0  0  0  0  0  0  0  0  0  0
  150.6607  143.6543  158.9506 F   0  0  0  0  0  0  0  0  0  0  0  0
  151.3951  145.6074  159.5028 F   0  0  0  0  0  0  0  0  0  0  0  0
  152.9360  142.2469  159.8358 C   0  0  0  0  0  0  0  0  0  0  0  0
  155.6185  136.6632  162.7224 N   0  0  0  0  0  0  0  0  0  0  0  0
  155.9614  135.4459  163.1505 C   0  0  0  0  0  0  0  0  0  0  0  0
  155.7544  134.2924  162.5152 N   0  0  0  0  0  0  0  0  0  0  0  0
  153.8290  132.3230  157.5582 H   0  0  0  0  0  0  0  0  0  0  0  0
  153.6301  131.3503  159.0164 H   0  0  0  0  0  0  0  0  0  0  0  0
  155.2513  131.6727  158.3744 H   0  0  0  0  0  0  0  0  0  0  0  0
  154.2124  132.4414  161.1870 H   0  0  0  0  0  0  0  0  0  0  0  0
  155.8269  132.5186  160.5027 H   0  0  0  0  0  0  0  0  0  0  0  0
  154.2263  135.6469  159.8123 H   0  0  0  0  0  0  0  0  0  0  0  0
  154.2421  137.8908  159.9691 H   0  0  0  0  0  0  0  0  0  0  0  0
  153.7624  139.8832  159.6340 H   0  0  0  0  0  0  0  0  0  0  0  0
  154.8714  142.0884  160.7511 H   0  0  0  0  0  0  0  0  0  0  0  0
  152.4547  141.2656  162.4389 H   0  0  0  0  0  0  0  0  0  0  0  0
  154.0999  141.4055  163.0109 H   0  0  0  0  0  0  0  0  0  0  0  0
  152.7511  143.4197  163.5991 H   0  0  0  0  0  0  0  0  0  0  0  0
  154.1072  143.8316  162.5774 H   0  0  0  0  0  0  0  0  0  0  0  0
  151.2075  143.4885  161.6758 H   0  0  0  0  0  0  0  0  0  0  0  0
  152.0820  144.9957  161.7913 H   0  0  0  0  0  0  0  0  0  0  0  0
  153.6689  144.2493  160.0439 H   0  0  0  0  0  0  0  0  0  0  0  0
  153.3380  142.1215  158.8298 H   0  0  0  0  0  0  0  0  0  0  0  0
  151.9806  141.7200  159.8522 H   0  0  0  0  0  0  0  0  0  0  0  0
  156.4574  135.3905  164.1082 H   0  0  0  0  0  0  0  0  0  0  0  0
  1  2  1  0  0  0  0
  1 24  1  0  0  0  0
  1 25  1  0  0  0  0
  1 26  1  0  0  0  0
  2  3  1  0  0  0  0
  3  4  1  0  0  0  0
  3 27  1  0  0  0  0
  3 28  1  0  0  0  0
  4 23  1  0  0  0  0
  4  5  2  0  0  0  0
  5  6  1  0  0  0  0
  5 29  1  0  0  0  0
  6  7  1  0  0  0  0
  6 21  2  0  0  0  0
  7  8  1  0  0  0  0
  7 30  1  0  0  0  0
  8  9  2  0  0  0  0
  8 10  1  0  0  0  0
 10 11  1  0  0  0  0
 10 31  1  0  0  0  0
 11 20  1  0  0  0  0
 11 12  1  0  0  0  0
 11 32  1  0  0  0  0
 12 13  1  0  0  0  0
 12 33  1  0  0  0  0
 12 34  1  0  0  0  0
 13 14  1  0  0  0  0
 13 35  1  0  0  0  0
 13 36  1  0  0  0  0
 14 15  1  0  0  0  0
 14 37  1  0  0  0  0
 14 38  1  0  0  0  0
 15 16  1  0  0  0  0
 15 20  1  0  0  0  0
 15 39  1  0  0  0  0
 16 17  1  0  0  0  0
 16 18  1  0  0  0  0
 16 19  1  0  0  0  0
 20 40  1  0  0  0  0
 20 41  1  0  0  0  0
 21 22  1  0  0  0  0
 22 23  2  0  0  0  0
 22 42  1  0  0  0  0
M  END
> <s_m_source_file>
AV-unprocessed.smi

> <i_m_source_file_index>
2454

> <i_lp_mmshare_version>
43012

> <i_f3d_flags>
0

> <s_epik_input>
W0NIM11PW0NIMl1jMVtjSF1jKG5bY0hdbjEpW05IXUMoPU8pW05IXVtDQEBIXTJbQ0gyXVtDSDJdW0NIMl1bQ0BASF0oQyhGKShGKUYpW0NIMl0y

> <s_epik_cmdline>
J2VwaWtfcHl0aG9uJywgJy1waCcsICc3LjAnLCAnLXRuJywgJzgnLCAnLW1hJywgJzIwMCcsICctbWV0YWxfYmluZGluZycsICctaW1hZScsICc8aW5maWxlLm1hZT4nLCAnLW9tYWUnLCAnPG91dGZpbGUubWFlPic=

> <r_lp_tautomer_probability>
1

> <r_epik_Ionization_Penalty>
3.01554e-05

> <r_epik_Ionization_Penalty_Charging>
0

> <r_epik_Ionization_Penalty_Neutral>
3.01554e-05

> <r_epik_State_Penalty>
-0

> <r_epik_Charging_Adjusted_Penalty>
0

> <i_epik_Tot_Q>
0

> <i_epik_Tot_abs_Q>
0

> <r_epik_Metal_State_Penalty>
-0

> <b_epik_Metal_Only>
0

> <s_lp_Force_Field>
OPLS_2005

> <r_lp_Energy>
14.2483

> <b_lp_Chiralities_Consistent>
1

> <s_lp_Variant>
AV-unprocessed.smi:2454-3

> <Gold.Version>
5.8.1

> <Gold.Id.Protein>
6NUR|6NUR_protein|mol2

> <Gold.PLP.Fitness>
47.5831

> <Gold.PLP.PLP>
-45.6772

> <Gold.PLP.part.hbond>
-1.0000

> <Gold.PLP.part.metal>
0.0000

> <Gold.PLP.part.buried>
-5.3179

> <Gold.PLP.part.nonpolar>
-39.0008

> <Gold.PLP.part.repulsive>
0.0412

> <Gold.PLP.ligand.clash>
0.0000

> <Gold.PLP.ligand.torsion>
0.5761

> <Gold.PLP.Chemscore.Hbond>
1.0000

> <Gold.PLP.Chemscore.CHOScore>
0.0000

> <Gold.PLP.Chemscore.Metal>
0.0000

> <Gold.Chemscore.Hbonds>
donor molecule, donor type, donor heavy atom, donor atom, acceptor molecule, acceptor atom, score
      P1  H  6896  6909       L1     2  0.95

> <Gold.PLP.Chemscore.Internal.Correction>
0.0581

> <Gold.Rescore>
     Score         DG    S(hbond)    S(metal)    S(lipo)     H(rot)  DE(clash)    DE(int)     intcor
     12.45     -15.59       0.92        0.00      95.24       1.60       0.02       3.13       ----

> <Gold.Chemscore.Fitness>
12.4515

> <Gold.Chemscore.DG>
-15.5926

> <Gold.Chemscore.ZeroCoef>
-5.4800

> <Gold.Chemscore.Hbond>
0.9204

> <Gold.Chemscore.Metal>
0.0000

> <Gold.Chemscore.Lipo>
95.2430

> <Gold.Chemscore.Internal_Hbond>
0.0000

> <Gold.Chemscore.DEClash>
0.0151

> <Gold.Chemscore.DEInternal>
3.1260

> <Gold.Chemscore.Rot>
1.6035

> <Gold.Chemscore.Internal.Correction>
   9.000000E+99

> <Gold.Chemscore.Hbonds>
donor molecule, donor type, donor heavy atom, donor atom, acceptor molecule, acceptor atom, score
      P1  H  6896  6909       L1     2  0.19

> <Gold.Chemscore.Hbond.Weighted>
-3.0742

> <Gold.Chemscore.Metal.Weighted>
-0.0000

> <Gold.Chemscore.Lipo.Weighted>
-11.1434

> <Gold.Chemscore.Internal_Hbond.Weighted>
0.0000

> <Gold.Chemscore.DEClash.Weighted>
0.0151

> <Gold.Chemscore.DEInternal.Weighted>
3.1260

> <Gold.Chemscore.Rot.Weighted>
4.1050

> <Gold.Chemscore.Internal.Correction.Weighted>
   9.000000E+99

> <Gold.Protein.RotatedTorsions>
[ 6907 6896 6895 6894 ] final -147.78 input  -60.11 | X-H torsion
[ 7974 7965 7964 7962 ] final  -36.23 input  175.53 | X-H torsion
[ 8008 7997 7996 7995 ] final   60.59 input   59.86 | X-H torsion
[ 10167 10162 10161 10158 ] final  106.86 input  -65.29 | X-H torsion
[ 10718 10713 10712 10709 ] final   86.76 input   66.30 | X-H torsion
[ 10763 10752 10751 10750 ] final  174.54 input  -60.55 | X-H torsion
[ 11005 11000 10999 10996 ] final   64.70 input  -57.11 | X-H torsion

> <Gold.Protein.ActiveResidues>
 VAL166  LYS551  ARG553  GLY616  TRP617  ASP618  TYR619  PRO620  LYS621  CYS622 
 ASP623  PHE694  ASN695  SER759  ASP760  ASP761  ALA762  ILE779  LEU786  VAL792 
 PHE793  MET794  SER795  GLU796  ALA797  LYS798  CYS799  TRP800  GLU811  SER814 

> <Gold.Protein.RotatedAtoms>
  151.1605  133.4848  159.2594 H   0  0  0  0  0  0  0  0  0  0  0  0  # atno 6907 bound_to 6896
  151.1459  135.0203  159.8656 H   0  0  0  0  0  0  0  0  0  0  0  0  # atno 6908 bound_to 6896
  152.5463  134.1494  159.8565 H   0  0  0  0  0  0  0  0  0  0  0  0  # atno 6909 bound_to 6896
  146.0679  140.6253  142.8966 H   0  0  0  0  0  0  0  0  0  0  0  0  # atno 7974 bound_to 7965
  155.5847  140.3492  155.4550 H   0  0  0  0  0  0  0  0  0  0  0  0  # atno 8008 bound_to 7997
  156.0346  140.1282  157.0246 H   0  0  0  0  0  0  0  0  0  0  0  0  # atno 8009 bound_to 7997
  154.4366  140.1036  156.6135 H   0  0  0  0  0  0  0  0  0  0  0  0  # atno 8010 bound_to 7997
  139.6974  144.7099  151.1244 H   0  0  0  0  0  0  0  0  0  0  0  0  # atno 10167 bound_to 10162
  157.6932  131.0228  150.3021 H   0  0  0  0  0  0  0  0  0  0  0  0  # atno 10718 bound_to 10713
  154.4553  135.2766  155.1752 H   0  0  0  0  0  0  0  0  0  0  0  0  # atno 10763 bound_to 10752
  154.3562  135.6139  153.5671 H   0  0  0  0  0  0  0  0  0  0  0  0  # atno 10764 bound_to 10752
  152.9850  135.5823  154.4905 H   0  0  0  0  0  0  0  0  0  0  0  0  # atno 10765 bound_to 10752
  139.9941  134.6544  156.0040 H   0  0  0  0  0  0  0  0  0  0  0  0  # atno 11005 bound_to 11000
  144.7214  140.4384  143.7005 LP  0  0  0  0  0  0  0  0  0  0  0  0  # atno 17320 bound_to 7965
  145.6443  139.1555  143.2898 LP  0  0  0  0  0  0  0  0  0  0  0  0  # atno 17321 bound_to 7965
  140.7700  143.5472  150.9245 LP  0  0  0  0  0  0  0  0  0  0  0  0  # atno 17342 bound_to 10162
  139.9152  143.6671  152.3107 LP  0  0  0  0  0  0  0  0  0  0  0  0  # atno 17343 bound_to 10162
  156.3535  130.3835  149.7309 LP  0  0  0  0  0  0  0  0  0  0  0  0  # atno 17370 bound_to 10713
  156.4779  130.8027  151.3043 LP  0  0  0  0  0  0  0  0  0  0  0  0  # atno 17371 bound_to 10713
  141.1590  133.6540  156.4257 LP  0  0  0  0  0  0  0  0  0  0  0  0  # atno 17394 bound_to 11000
  140.4851  134.6628  157.5187 LP  0  0  0  0  0  0  0  0  0  0  0  0  # atno 17395 bound_to 11000

$$$$
