AV-unprocessed.smi:3283|AV-procd|sdf|12570|dock8
  -GOLD-   2272018493D 1   1.00000     0.00000
 Structure written by MMmdl.
 44 45  0  0  0  0  0  0  0  0  2 V2000
  147.0201  141.3676  153.6541 C   0  0  0  0  0  0  0  0  0  0  0  0
  147.7906  140.2251  154.2945 C   0  0  0  0  0  0  0  0  0  0  0  0
  147.1290  139.1371  154.7332 C   0  0  0  0  0  0  0  0  0  0  0  0
  147.7953  137.9117  155.3142 C   0  0  0  0  0  0  0  0  0  0  0  0
  149.2634  137.8320  154.8897 C   0  0  0  0  0  0  0  0  0  0  0  0
  149.9932  139.1619  155.1394 C   0  0  1  0  0  0  0  0  0  0  0  0
  151.4841  139.0015  154.7827 C   0  0  0  0  0  0  0  0  0  0  0  0
  149.3249  140.3558  154.3892 C   0  0  2  0  0  0  0  0  0  0  0  0
  149.7750  141.6997  155.0213 C   0  0  0  0  0  0  0  0  0  0  0  0
  149.1135  141.9757  156.3125 N   0  3  0  0  0  0  0  0  0  0  0  0
  149.9035  141.5837  157.4963 C   0  0  0  0  0  0  0  0  0  0  0  0
  151.3642  142.0458  157.3821 C   0  0  0  0  0  0  0  0  0  0  0  0
  152.0384  142.2409  158.7062 C   0  0  0  0  0  0  0  0  0  0  0  0
  152.3270  141.3233  159.6776 C   0  0  0  0  0  0  0  0  0  0  0  0
  152.9813  142.0795  160.6882 C   0  0  0  0  0  0  0  0  0  0  0  0
  153.0922  143.3574  160.3712 N   0  0  0  0  0  0  0  0  0  0  0  0
  152.5092  143.4632  159.1583 N   0  0  0  0  0  0  0  0  0  0  0  0
  152.4595  144.7646  158.5178 C   0  0  0  0  0  0  0  0  0  0  0  0
  147.4520  141.6229  152.6867 H   0  0  0  0  0  0  0  0  0  0  0  0
  147.0267  142.2508  154.2922 H   0  0  0  0  0  0  0  0  0  0  0  0
  145.9772  141.0969  153.4865 H   0  0  0  0  0  0  0  0  0  0  0  0
  146.0513  139.0971  154.6670 H   0  0  0  0  0  0  0  0  0  0  0  0
  147.7050  137.9462  156.4003 H   0  0  0  0  0  0  0  0  0  0  0  0
  147.2652  137.0210  154.9755 H   0  0  0  0  0  0  0  0  0  0  0  0
  149.7521  137.0203  155.4300 H   0  0  0  0  0  0  0  0  0  0  0  0
  149.3223  137.5764  153.8304 H   0  0  0  0  0  0  0  0  0  0  0  0
  149.9290  139.3584  156.2111 H   0  0  0  0  0  0  0  0  0  0  0  0
  151.6164  138.8111  153.7172 H   0  0  0  0  0  0  0  0  0  0  0  0
  151.9251  138.1623  155.3215 H   0  0  0  0  0  0  0  0  0  0  0  0
  152.0719  139.8821  155.0364 H   0  0  0  0  0  0  0  0  0  0  0  0
  149.6815  140.3266  153.3583 H   0  0  0  0  0  0  0  0  0  0  0  0
  150.8579  141.6997  155.1555 H   0  0  0  0  0  0  0  0  0  0  0  0
  149.5488  142.5385  154.3650 H   0  0  0  0  0  0  0  0  0  0  0  0
  148.9208  142.9660  156.3685 H   0  0  0  0  0  0  0  0  0  0  0  0
  149.4498  142.0231  158.3857 H   0  0  0  0  0  0  0  0  0  0  0  0
  149.8637  140.5002  157.6180 H   0  0  0  0  0  0  0  0  0  0  0  0
  151.9245  141.3413  156.7676 H   0  0  0  0  0  0  0  0  0  0  0  0
  151.3897  142.9893  156.8356 H   0  0  0  0  0  0  0  0  0  0  0  0
  152.1054  140.2663  159.6668 H   0  0  0  0  0  0  0  0  0  0  0  0
  153.3781  141.7399  161.6337 H   0  0  0  0  0  0  0  0  0  0  0  0
  151.4617  144.9494  158.1202 H   0  0  0  0  0  0  0  0  0  0  0  0
  153.1850  144.8020  157.7062 H   0  0  0  0  0  0  0  0  0  0  0  0
  152.6956  145.5531  159.2341 H   0  0  0  0  0  0  0  0  0  0  0  0
  148.2367  141.4749  156.3334 H   0  0  0  0  0  0  0  0  0  0  0  0
  1  2  1  0  0  0  0
  1 19  1  0  0  0  0
  1 20  1  0  0  0  0
  1 21  1  0  0  0  0
  2  8  1  0  0  0  0
  2  3  2  0  0  0  0
  3  4  1  0  0  0  0
  3 22  1  0  0  0  0
  4  5  1  0  0  0  0
  4 23  1  0  0  0  0
  4 24  1  0  0  0  0
  5  6  1  0  0  0  0
  5 25  1  0  0  0  0
  5 26  1  0  0  0  0
  6  7  1  0  0  0  0
  6  8  1  0  0  0  0
  6 27  1  0  0  0  0
  7 28  1  0  0  0  0
  7 29  1  0  0  0  0
  7 30  1  0  0  0  0
  8  9  1  0  0  0  0
  8 31  1  0  0  0  0
  9 10  1  0  0  0  0
  9 32  1  0  0  0  0
  9 33  1  0  0  0  0
 10 11  1  0  0  0  0
 10 34  1  0  0  0  0
 10 44  1  0  0  0  0
 11 12  1  0  0  0  0
 11 35  1  0  0  0  0
 11 36  1  0  0  0  0
 12 13  1  0  0  0  0
 12 37  1  0  0  0  0
 12 38  1  0  0  0  0
 13 17  1  0  0  0  0
 13 14  2  0  0  0  0
 14 15  1  0  0  0  0
 14 39  1  0  0  0  0
 15 16  2  0  0  0  0
 15 40  1  0  0  0  0
 16 17  1  0  0  0  0
 17 18  1  0  0  0  0
 18 41  1  0  0  0  0
 18 42  1  0  0  0  0
 18 43  1  0  0  0  0
M  CHG  1  10   1
M  END
> <s_m_source_file>
AV-unprocessed.smi

> <i_m_source_file_index>
3283

> <i_lp_mmshare_version>
43012

> <i_f3d_flags>
0

> <s_epik_input>
W0NIM11DMT1bQ0hdW0NIMl1bQ0gyXVtDQEBIXShbQ0gzXSlbQ0BIXTFbQ0gyXVtOSF1bQ0gyXVtDSDJdYzJbY0hdW2NIXW5uMltDSDNd

> <s_epik_cmdline>
J2VwaWtfcHl0aG9uJywgJy1waCcsICc3LjAnLCAnLXRuJywgJzgnLCAnLW1hJywgJzIwMCcsICctbWV0YWxfYmluZGluZycsICctaW1hZScsICc8aW5maWxlLm1hZT4nLCAnLW9tYWUnLCAnPG91dGZpbGUubWFlPic=

> <r_lp_tautomer_probability>
1

> <r_epik_Ionization_Penalty>
0.000866911

> <r_epik_Ionization_Penalty_Charging>
0.000836385

> <r_epik_Ionization_Penalty_Neutral>
3.05258e-05

> <r_epik_State_Penalty>
-0

> <r_epik_Charging_Adjusted_Penalty>
0.000836385

> <i_epik_Tot_Q>
1

> <i_epik_Tot_abs_Q>
1

> <r_epik_Metal_State_Penalty>
-0

> <b_epik_Metal_Only>
0

> <s_lp_Force_Field>
OPLS_2005

> <r_lp_Energy>
14.6104

> <b_lp_Chiralities_Consistent>
1

> <s_lp_Variant>
AV-unprocessed.smi:3283-3

> <Gold.Version>
5.8.1

> <Gold.Id.Protein>
6NUR|6NUR_protein|mol2

> <Gold.PLP.Fitness>
43.2756

> <Gold.PLP.PLP>
-38.2827

> <Gold.PLP.part.hbond>
-1.0000

> <Gold.PLP.part.metal>
0.0000

> <Gold.PLP.part.buried>
-2.9778

> <Gold.PLP.part.nonpolar>
-33.2506

> <Gold.PLP.part.repulsive>
0.0438

> <Gold.PLP.ligand.clash>
0.0000

> <Gold.PLP.ligand.torsion>
0.5299

> <Gold.PLP.Chemscore.Hbond>
2.0000

> <Gold.PLP.Chemscore.CHOScore>
0.0000

> <Gold.PLP.Chemscore.Metal>
0.0000

> <Gold.Chemscore.Hbonds>
donor molecule, donor type, donor heavy atom, donor atom, acceptor molecule, acceptor atom, score
      L1  H    10    34       P1  8028  2.00

> <Gold.PLP.Chemscore.Internal.Correction>
0.0527

> <Gold.Rescore>
     Score         DG    S(hbond)    S(metal)    S(lipo)     H(rot)  DE(clash)    DE(int)     intcor
     16.85     -17.67       0.99        0.00     108.34       1.48       0.27       0.55       ----

> <Gold.Chemscore.Fitness>
16.8505

> <Gold.Chemscore.DG>
-17.6719

> <Gold.Chemscore.ZeroCoef>
-5.4800

> <Gold.Chemscore.Hbond>
0.9929

> <Gold.Chemscore.Metal>
0.0000

> <Gold.Chemscore.Lipo>
108.3449

> <Gold.Chemscore.Internal_Hbond>
0.0000

> <Gold.Chemscore.DEClash>
0.2697

> <Gold.Chemscore.DEInternal>
0.5517

> <Gold.Chemscore.Rot>
1.4847

> <Gold.Chemscore.Internal.Correction>
   9.000000E+99

> <Gold.Chemscore.Hbonds>
donor molecule, donor type, donor heavy atom, donor atom, acceptor molecule, acceptor atom, score
      L1  H    10    34       P1  8028  0.97

> <Gold.Chemscore.Hbond.Weighted>
-3.3164

> <Gold.Chemscore.Metal.Weighted>
-0.0000

> <Gold.Chemscore.Lipo.Weighted>
-12.6764

> <Gold.Chemscore.Internal_Hbond.Weighted>
0.0000

> <Gold.Chemscore.DEClash.Weighted>
0.2697

> <Gold.Chemscore.DEInternal.Weighted>
0.5517

> <Gold.Chemscore.Rot.Weighted>
3.8008

> <Gold.Chemscore.Internal.Correction.Weighted>
   9.000000E+99

> <Gold.Protein.RotatedTorsions>
[ 6907 6896 6895 6894 ] final   49.80 input  -60.11 | X-H torsion
[ 7974 7965 7964 7962 ] final   26.77 input  175.53 | X-H torsion
[ 8008 7997 7996 7995 ] final  178.09 input   59.86 | X-H torsion
[ 10167 10162 10161 10158 ] final  122.87 input  -65.29 | X-H torsion
[ 10718 10713 10712 10709 ] final   86.77 input   66.30 | X-H torsion
[ 10763 10752 10751 10750 ] final  159.82 input  -60.55 | X-H torsion
[ 11005 11000 10999 10996 ] final  -17.38 input  -57.11 | X-H torsion

> <Gold.Protein.ActiveResidues>
 VAL166  LYS551  ARG553  GLY616  TRP617  ASP618  TYR619  PRO620  LYS621  CYS622 
 ASP623  PHE694  ASN695  SER759  ASP760  ASP761  ALA762  ILE779  LEU786  VAL792 
 PHE793  MET794  SER795  GLU796  ALA797  LYS798  CYS799  TRP800  GLU811  SER814 

> <Gold.Protein.RotatedAtoms>
  152.2947  134.7680  160.0370 H   0  0  0  0  0  0  0  0  0  0  0  0  # atno 6907 bound_to 6896
  151.8214  133.3390  159.3593 H   0  0  0  0  0  0  0  0  0  0  0  0  # atno 6908 bound_to 6896
  150.7246  134.5499  159.5834 H   0  0  0  0  0  0  0  0  0  0  0  0  # atno 6909 bound_to 6896
  146.1820  139.7282  142.8894 H   0  0  0  0  0  0  0  0  0  0  0  0  # atno 7974 bound_to 7965
  156.0585  140.1342  156.9969 H   0  0  0  0  0  0  0  0  0  0  0  0  # atno 8008 bound_to 7997
  154.4469  140.0996  156.6552 H   0  0  0  0  0  0  0  0  0  0  0  0  # atno 8009 bound_to 7997
  155.5415  140.3461  155.4450 H   0  0  0  0  0  0  0  0  0  0  0  0  # atno 8010 bound_to 7997
  139.5833  144.6995  151.3473 H   0  0  0  0  0  0  0  0  0  0  0  0  # atno 10167 bound_to 10162
  157.6932  131.0229  150.3023 H   0  0  0  0  0  0  0  0  0  0  0  0  # atno 10718 bound_to 10713
  154.2377  135.2776  155.2866 H   0  0  0  0  0  0  0  0  0  0  0  0  # atno 10763 bound_to 10752
  154.5571  135.5658  153.6977 H   0  0  0  0  0  0  0  0  0  0  0  0  # atno 10764 bound_to 10752
  153.0006  135.6288  154.2521 H   0  0  0  0  0  0  0  0  0  0  0  0  # atno 10765 bound_to 10752
  140.8162  133.8103  155.9613 H   0  0  0  0  0  0  0  0  0  0  0  0  # atno 11005 bound_to 11000
  145.4049  141.0389  143.3050 LP  0  0  0  0  0  0  0  0  0  0  0  0  # atno 17320 bound_to 7965
  144.8331  139.5595  143.6934 LP  0  0  0  0  0  0  0  0  0  0  0  0  # atno 17321 bound_to 7965
  140.7108  143.7395  150.7564 LP  0  0  0  0  0  0  0  0  0  0  0  0  # atno 17342 bound_to 10162
  140.0933  143.4857  152.2466 LP  0  0  0  0  0  0  0  0  0  0  0  0  # atno 17343 bound_to 10162
  156.3537  130.3835  149.7308 LP  0  0  0  0  0  0  0  0  0  0  0  0  # atno 17370 bound_to 10713
  156.4777  130.8026  151.3042 LP  0  0  0  0  0  0  0  0  0  0  0  0  # atno 17371 bound_to 10713
  140.9146  134.2217  157.4964 LP  0  0  0  0  0  0  0  0  0  0  0  0  # atno 17394 bound_to 11000
  139.8711  134.9765  156.4925 LP  0  0  0  0  0  0  0  0  0  0  0  0  # atno 17395 bound_to 11000

$$$$
