AV-unprocessed.smi:1810|AV-procd|sdf|7333|dock3
  -GOLD-   22720 8593D 1   1.00000     0.00000
 Structure written by MMmdl.
 40 41  0  0  0  0  0  0  0  0  1 V2000
  150.3088  144.1315  159.7019 C   0  0  0  0  0  0  0  0  0  0  0  0
  151.2698  142.9819  159.5585 C   0  0  0  0  0  0  0  0  0  0  0  0
  151.0738  142.1815  158.5626 N   0  0  0  0  0  0  0  0  0  0  0  0
  151.8980  141.0964  158.3392 N   0  0  0  0  0  0  0  0  0  0  0  0
  151.5209  140.2897  157.1735 C   0  0  0  0  0  0  0  0  0  0  0  0
  151.5116  141.1283  155.8863 C   0  0  0  0  0  0  0  0  0  0  0  0
  150.5606  140.5725  154.9886 O   0  0  0  0  0  0  0  0  0  0  0  0
  149.2602  141.0256  155.0534 C   0  0  0  0  0  0  0  0  0  0  0  0
  148.3745  141.0670  153.9459 C   0  0  0  0  0  0  0  0  0  0  0  0
  147.0600  141.5481  154.1010 C   0  0  0  0  0  0  0  0  0  0  0  0
  146.6210  141.9896  155.3633 C   0  0  0  0  0  0  0  0  0  0  0  0
  144.9493  142.5990  155.5452 S   0  0  0  0  0  0  0  0  0  0  0  0
  144.0186  141.1778  155.2732 N   0  0  0  0  0  0  0  0  0  0  0  0
  144.7509  142.9960  156.9476 O   0  0  0  0  0  0  0  0  0  0  0  0
  144.6580  143.5363  154.4494 O   0  0  0  0  0  0  0  0  0  0  0  0
  147.4881  141.9543  156.4722 C   0  0  0  0  0  0  0  0  0  0  0  0
  148.8017  141.4733  156.3106 C   0  0  0  0  0  0  0  0  0  0  0  0
  152.9674  140.7602  159.1151 C   0  0  0  0  0  0  0  0  0  0  0  0
  153.6735  139.7783  158.8808 O   0  0  0  0  0  0  0  0  0  0  0  0
  153.1838  141.6706  160.2420 C   0  0  0  0  0  0  0  0  0  0  0  0
  154.2936  141.3540  161.0819 C   0  0  0  0  0  0  0  0  0  0  0  0
  155.1907  141.1151  161.7735 N   0  0  0  0  0  0  0  0  0  0  0  0
  152.3818  142.7404  160.4722 C   0  0  0  0  0  0  0  0  0  0  0  0
  152.5631  143.7156  161.6275 C   0  0  0  0  0  0  0  0  0  0  0  0
  150.8359  145.0848  159.6597 H   0  0  0  0  0  0  0  0  0  0  0  0
  149.7810  144.0778  160.6541 H   0  0  0  0  0  0  0  0  0  0  0  0
  149.5583  144.1356  158.9099 H   0  0  0  0  0  0  0  0  0  0  0  0
  152.2175  139.4574  157.0564 H   0  0  0  0  0  0  0  0  0  0  0  0
  150.5433  139.8298  157.3283 H   0  0  0  0  0  0  0  0  0  0  0  0
  151.2510  142.1626  156.1162 H   0  0  0  0  0  0  0  0  0  0  0  0
  152.5044  141.1184  155.4334 H   0  0  0  0  0  0  0  0  0  0  0  0
  148.6795  140.7361  152.9649 H   0  0  0  0  0  0  0  0  0  0  0  0
  146.3931  141.5771  153.2517 H   0  0  0  0  0  0  0  0  0  0  0  0
  143.9685  140.9319  154.2850 H   0  0  0  0  0  0  0  0  0  0  0  0
  143.1055  141.2220  155.7249 H   0  0  0  0  0  0  0  0  0  0  0  0
  147.1568  142.2925  157.4427 H   0  0  0  0  0  0  0  0  0  0  0  0
  149.4659  141.4469  157.1621 H   0  0  0  0  0  0  0  0  0  0  0  0
  153.4097  143.4529  162.2613 H   0  0  0  0  0  0  0  0  0  0  0  0
  151.6743  143.7304  162.2594 H   0  0  0  0  0  0  0  0  0  0  0  0
  152.7363  144.7247  161.2522 H   0  0  0  0  0  0  0  0  0  0  0  0
  1  2  1  0  0  0  0
  1 25  1  0  0  0  0
  1 26  1  0  0  0  0
  1 27  1  0  0  0  0
  2 23  1  0  0  0  0
  2  3  2  0  0  0  0
  3  4  1  0  0  0  0
  4  5  1  0  0  0  0
  4 18  1  0  0  0  0
  5  6  1  0  0  0  0
  5 28  1  0  0  0  0
  5 29  1  0  0  0  0
  6  7  1  0  0  0  0
  6 30  1  0  0  0  0
  6 31  1  0  0  0  0
  7  8  1  0  0  0  0
  8 17  1  0  0  0  0
  8  9  2  0  0  0  0
  9 10  1  0  0  0  0
  9 32  1  0  0  0  0
 10 11  2  0  0  0  0
 10 33  1  0  0  0  0
 11 12  1  0  0  0  0
 11 16  1  0  0  0  0
 12 13  1  0  0  0  0
 12 14  2  0  0  0  0
 12 15  2  0  0  0  0
 13 34  1  0  0  0  0
 13 35  1  0  0  0  0
 16 17  2  0  0  0  0
 16 36  1  0  0  0  0
 17 37  1  0  0  0  0
 18 19  2  0  0  0  0
 18 20  1  0  0  0  0
 20 21  1  0  0  0  0
 20 23  2  0  0  0  0
 21 22  3  0  0  0  0
 23 24  1  0  0  0  0
 24 38  1  0  0  0  0
 24 39  1  0  0  0  0
 24 40  1  0  0  0  0
M  END
> <s_m_source_file>
AV-unprocessed.smi

> <i_m_source_file_index>
1810

> <i_lp_mmshare_version>
43012

> <i_f3d_flags>
0

> <s_epik_input>
TiNDYyhjMVtDSDNdKWMoPU8pbihuYzFbQ0gzXSlbQ0gyXVtDSDJdT2MyW2NIXVtjSF1jKFMoPU8pKD1PKVtOSDJdKVtjSF1bY0hdMg==

> <s_epik_cmdline>
J2VwaWtfcHl0aG9uJywgJy1waCcsICc3LjAnLCAnLXRuJywgJzgnLCAnLW1hJywgJzIwMCcsICctbWV0YWxfYmluZGluZycsICctaW1hZScsICc8aW5maWxlLm1hZT4nLCAnLW9tYWUnLCAnPG91dGZpbGUubWFlPic=

> <r_lp_tautomer_probability>
1

> <r_epik_Ionization_Penalty>
0.000347403

> <r_epik_Ionization_Penalty_Charging>
5.27838e-11

> <r_epik_Ionization_Penalty_Neutral>
0.000347403

> <r_epik_State_Penalty>
0.00021091

> <r_epik_Charging_Adjusted_Penalty>
0.000210911

> <i_epik_Tot_Q>
0

> <i_epik_Tot_abs_Q>
0

> <r_epik_Metal_State_Penalty>
0.18648

> <b_epik_Metal_Only>
0

> <s_lp_Force_Field>
OPLS_2005

> <r_lp_Energy>
32.1268

> <b_lp_Chiralities_Consistent>
1

> <s_lp_Variant>
AV-unprocessed.smi:1810-1

> <Gold.Version>
5.8.1

> <Gold.Id.Protein>
6NUR|6NUR_protein|mol2

> <Gold.PLP.Fitness>
48.2969

> <Gold.PLP.PLP>
-42.1814

> <Gold.PLP.part.hbond>
-4.0000

> <Gold.PLP.part.metal>
0.0000

> <Gold.PLP.part.buried>
-3.2494

> <Gold.PLP.part.nonpolar>
-32.8526

> <Gold.PLP.part.repulsive>
0.3644

> <Gold.PLP.ligand.clash>
0.0000

> <Gold.PLP.ligand.torsion>
1.7690

> <Gold.PLP.Chemscore.Hbond>
2.5445

> <Gold.PLP.Chemscore.CHOScore>
0.0000

> <Gold.PLP.Chemscore.Metal>
0.0000

> <Gold.Chemscore.Hbonds>
donor molecule, donor type, donor heavy atom, donor atom, acceptor molecule, acceptor atom, score
      L1  H    13    34       P1 10175  1.00
      P1  H  7989  7998       L1     7  0.63
      P1  H  7997  8008       L1    19  0.94

> <Gold.PLP.Chemscore.Internal.Correction>
2.0202

> <Gold.Rescore>
     Score         DG    S(hbond)    S(metal)    S(lipo)     H(rot)  DE(clash)    DE(int)     intcor
     13.91     -17.72       1.91        0.00      93.78       1.99       2.01       1.80       ----

> <Gold.Chemscore.Fitness>
13.9053

> <Gold.Chemscore.DG>
-17.7157

> <Gold.Chemscore.ZeroCoef>
-5.4800

> <Gold.Chemscore.Hbond>
1.9053

> <Gold.Chemscore.Metal>
0.0000

> <Gold.Chemscore.Lipo>
93.7836

> <Gold.Chemscore.Internal_Hbond>
0.0000

> <Gold.Chemscore.DEClash>
2.0109

> <Gold.Chemscore.DEInternal>
1.7995

> <Gold.Chemscore.Rot>
1.9925

> <Gold.Chemscore.Internal.Correction>
   9.000000E+99

> <Gold.Chemscore.Hbonds>
donor molecule, donor type, donor heavy atom, donor atom, acceptor molecule, acceptor atom, score
      L1  H    13    34       P1 10175  0.91
      P1  H  7989  7998       L1     7  0.05
      P1  H  7997  8008       L1    19  0.77

> <Gold.Chemscore.Hbond.Weighted>
-6.3638

> <Gold.Chemscore.Metal.Weighted>
-0.0000

> <Gold.Chemscore.Lipo.Weighted>
-10.9727

> <Gold.Chemscore.Internal_Hbond.Weighted>
0.0000

> <Gold.Chemscore.DEClash.Weighted>
2.0109

> <Gold.Chemscore.DEInternal.Weighted>
1.7995

> <Gold.Chemscore.Rot.Weighted>
5.1007

> <Gold.Chemscore.Internal.Correction.Weighted>
   9.000000E+99

> <Gold.Protein.RotatedTorsions>
[ 6907 6896 6895 6894 ] final -167.02 input  -60.11 | X-H torsion
[ 7974 7965 7964 7962 ] final  177.36 input  175.53 | X-H torsion
[ 8008 7997 7996 7995 ] final -111.13 input   59.86 | X-H torsion
[ 10167 10162 10161 10158 ] final   13.47 input  -65.29 | X-H torsion
[ 10718 10713 10712 10709 ] final   42.88 input   66.30 | X-H torsion
[ 10763 10752 10751 10750 ] final  112.17 input  -60.55 | X-H torsion
[ 11005 11000 10999 10996 ] final   40.34 input  -57.11 | X-H torsion

> <Gold.Protein.ActiveResidues>
 VAL166  LYS551  ARG553  GLY616  TRP617  ASP618  TYR619  PRO620  LYS621  CYS622 
 ASP623  PHE694  ASN695  SER759  ASP760  ASP761  ALA762  ILE779  LEU786  VAL792 
 PHE793  MET794  SER795  GLU796  ALA797  LYS798  CYS799  TRP800  GLU811  SER814 

> <Gold.Protein.RotatedAtoms>
  151.4528  133.3613  159.2797 H   0  0  0  0  0  0  0  0  0  0  0  0  # atno 6907 bound_to 6896
  150.9079  134.8496  159.7416 H   0  0  0  0  0  0  0  0  0  0  0  0  # atno 6908 bound_to 6896
  152.4916  134.4455  159.9609 H   0  0  0  0  0  0  0  0  0  0  0  0  # atno 6909 bound_to 6896
  144.7170  140.0236  143.6440 H   0  0  0  0  0  0  0  0  0  0  0  0  # atno 7974 bound_to 7965
  154.9851  140.0396  157.2295 H   0  0  0  0  0  0  0  0  0  0  0  0  # atno 8008 bound_to 7997
  154.7679  140.2796  155.6139 H   0  0  0  0  0  0  0  0  0  0  0  0  # atno 8009 bound_to 7997
  156.2916  140.2616  156.2474 H   0  0  0  0  0  0  0  0  0  0  0  0  # atno 8010 bound_to 7997
  140.6000  143.8624  150.6956 H   0  0  0  0  0  0  0  0  0  0  0  0  # atno 10167 bound_to 10162
  157.4098  130.7907  149.7420 H   0  0  0  0  0  0  0  0  0  0  0  0  # atno 10718 bound_to 10713
  153.4739  135.3694  155.2406 H   0  0  0  0  0  0  0  0  0  0  0  0  # atno 10763 bound_to 10752
  154.8756  135.3938  154.3779 H   0  0  0  0  0  0  0  0  0  0  0  0  # atno 10764 bound_to 10752
  153.4372  135.7083  153.6257 H   0  0  0  0  0  0  0  0  0  0  0  0  # atno 10765 bound_to 10752
  140.1941  134.3951  155.8131 H   0  0  0  0  0  0  0  0  0  0  0  0  # atno 11005 bound_to 11000
  146.0161  139.3210  143.0841 LP  0  0  0  0  0  0  0  0  0  0  0  0  # atno 17320 bound_to 7965
  145.8624  140.9467  143.0693 LP  0  0  0  0  0  0  0  0  0  0  0  0  # atno 17321 bound_to 7965
  140.2167  143.3841  152.1675 LP  0  0  0  0  0  0  0  0  0  0  0  0  # atno 17342 bound_to 10162
  139.5284  144.7131  151.5143 LP  0  0  0  0  0  0  0  0  0  0  0  0  # atno 17343 bound_to 10162
  155.9847  130.3989  150.3298 LP  0  0  0  0  0  0  0  0  0  0  0  0  # atno 17370 bound_to 10713
  157.1435  131.0302  151.2917 LP  0  0  0  0  0  0  0  0  0  0  0  0  # atno 17371 bound_to 10713
  141.2227  133.7061  156.8145 LP  0  0  0  0  0  0  0  0  0  0  0  0  # atno 17394 bound_to 11000
  140.2127  134.8815  157.3292 LP  0  0  0  0  0  0  0  0  0  0  0  0  # atno 17395 bound_to 11000

$$$$
