AV-unprocessed.smi:21|AV-procd|sdf|153|dock8
  -GOLD-   2262015383D 1   1.00000     0.00000
 Structure written by MMmdl.
 61 64  0  0  0  0  0  0  0  0  1 V2000
  146.9182  137.3616  163.2477 C   0  0  0  0  0  0  0  0  0  0  0  0
  147.2182  137.1806  161.8729 O   0  0  0  0  0  0  0  0  0  0  0  0
  146.5098  136.1020  161.2776 C   0  0  1  0  0  0  0  0  0  0  0  0
  146.9649  135.8439  159.8308 C   0  0  0  0  0  0  0  0  0  0  0  0
  147.2343  134.3359  159.7880 C   0  0  1  0  0  0  0  0  0  0  0  0
  148.1898  133.9188  158.6496 C   0  0  0  0  0  0  0  0  0  0  0  0
  147.8114  134.4802  157.3525 N   0  0  0  0  0  0  0  0  0  0  0  0
  147.2840  133.5625  156.3451 C   0  0  0  0  0  0  0  0  0  0  0  0
  148.5713  135.5179  156.9123 C   0  0  0  0  0  0  0  0  0  0  0  0
  148.5965  135.8165  155.5852 N   0  0  0  0  0  0  0  0  0  0  0  0
  149.3421  136.8279  155.1320 C   0  0  0  0  0  0  0  0  0  0  0  0
  150.1219  137.6621  155.8206 N   0  0  0  0  0  0  0  0  0  0  0  0
  150.0945  137.3809  157.1539 C   0  0  0  0  0  0  0  0  0  0  0  0
  149.3579  136.3325  157.7772 C   0  0  0  0  0  0  0  0  0  0  0  0
  149.5791  136.3559  159.1483 N   0  0  0  0  0  0  0  0  0  0  0  0
  150.4056  137.3490  159.3242 C   0  0  0  0  0  0  0  0  0  0  0  0
  150.7535  138.0346  158.1821 N   0  0  0  0  0  0  0  0  0  0  0  0
  151.6470  139.1823  158.1009 C   0  0  0  0  0  0  0  0  0  0  0  0
  150.9636  140.4997  157.6389 C   0  0  2  0  0  0  0  0  0  0  0  0
  150.3843  140.3956  156.2076 C   0  0  0  0  0  0  0  0  0  0  0  0
  151.4168  140.3114  155.2471 O   0  0  0  0  0  0  0  0  0  0  0  0
  151.9000  141.7283  157.7788 C   0  0  2  0  0  0  0  0  0  0  0  0
  152.5396  141.8847  159.1491 C   0  0  0  0  0  0  0  0  0  0  0  0
  152.9973  143.3383  159.1279 C   0  0  0  0  0  0  0  0  0  0  0  0
  152.0424  144.0273  158.3294 O   0  0  0  0  0  0  0  0  0  0  0  0
  151.2068  143.0904  157.6574 C   0  0  0  0  0  0  0  0  0  0  0  0
  147.7153  134.0293  161.1247 N   0  0  0  0  0  0  0  0  0  0  0  0
  147.7113  132.6077  161.4438 C   0  0  0  0  0  0  0  0  0  0  0  0
  146.8447  134.7915  162.0033 C   0  0  0  0  0  0  0  0  0  0  0  0
  145.4335  136.2752  161.3316 H   0  0  0  0  0  0  0  0  0  0  0  0
  146.2764  133.8319  159.6515 H   0  0  0  0  0  0  0  0  0  0  0  0
  147.5008  138.1943  163.6418 H   0  0  0  0  0  0  0  0  0  0  0  0
  147.1719  136.4724  163.8262 H   0  0  0  0  0  0  0  0  0  0  0  0
  145.8634  137.5901  163.4035 H   0  0  0  0  0  0  0  0  0  0  0  0
  146.2253  136.1593  159.0943 H   0  0  0  0  0  0  0  0  0  0  0  0
  147.8876  136.3892  159.6343 H   0  0  0  0  0  0  0  0  0  0  0  0
  149.2130  134.1811  158.9188 H   0  0  0  0  0  0  0  0  0  0  0  0
  148.1836  132.8339  158.5434 H   0  0  0  0  0  0  0  0  0  0  0  0
  146.8996  134.1065  155.4812 H   0  0  0  0  0  0  0  0  0  0  0  0
  146.4612  132.9716  156.7458 H   0  0  0  0  0  0  0  0  0  0  0  0
  148.0609  132.8766  156.0053 H   0  0  0  0  0  0  0  0  0  0  0  0
  149.3081  136.9928  154.0652 H   0  0  0  0  0  0  0  0  0  0  0  0
  150.7782  137.6170  160.3021 H   0  0  0  0  0  0  0  0  0  0  0  0
  152.0900  139.3264  159.0869 H   0  0  0  0  0  0  0  0  0  0  0  0
  152.4813  138.9268  157.4479 H   0  0  0  0  0  0  0  0  0  0  0  0
  150.1197  140.6677  158.3098 H   0  0  0  0  0  0  0  0  0  0  0  0
  149.7763  139.4980  156.0982 H   0  0  0  0  0  0  0  0  0  0  0  0
  149.7362  141.2408  155.9762 H   0  0  0  0  0  0  0  0  0  0  0  0
  152.2479  140.3663  155.6937 H   0  0  0  0  0  0  0  0  0  0  0  0
  152.6863  141.6811  157.0242 H   0  0  0  0  0  0  0  0  0  0  0  0
  151.7965  141.7405  159.9349 H   0  0  0  0  0  0  0  0  0  0  0  0
  153.3625  141.1959  159.3347 H   0  0  0  0  0  0  0  0  0  0  0  0
  153.0680  143.7686  160.1269 H   0  0  0  0  0  0  0  0  0  0  0  0
  153.9748  143.4223  158.6510 H   0  0  0  0  0  0  0  0  0  0  0  0
  151.0473  143.3882  156.6209 H   0  0  0  0  0  0  0  0  0  0  0  0
  150.2377  143.0776  158.1583 H   0  0  0  0  0  0  0  0  0  0  0  0
  148.0307  132.4453  162.4737 H   0  0  0  0  0  0  0  0  0  0  0  0
  148.3968  132.0592  160.7982 H   0  0  0  0  0  0  0  0  0  0  0  0
  146.7155  132.1777  161.3266 H   0  0  0  0  0  0  0  0  0  0  0  0
  147.3084  134.9561  162.9766 H   0  0  0  0  0  0  0  0  0  0  0  0
  145.9174  134.2421  162.1740 H   0  0  0  0  0  0  0  0  0  0  0  0
  1  2  1  0  0  0  0
  1 32  1  0  0  0  0
  1 33  1  0  0  0  0
  1 34  1  0  0  0  0
  2  3  1  0  0  0  0
  3 30  1  0  0  0  0
  3 29  1  0  0  0  0
  3  4  1  0  0  0  0
  4  5  1  0  0  0  0
  4 35  1  0  0  0  0
  4 36  1  0  0  0  0
  5 31  1  0  0  0  0
  5  6  1  0  0  0  0
  5 27  1  0  0  0  0
  6  7  1  0  0  0  0
  6 37  1  0  0  0  0
  6 38  1  0  0  0  0
  7  8  1  0  0  0  0
  7  9  1  0  0  0  0
  8 39  1  0  0  0  0
  8 40  1  0  0  0  0
  8 41  1  0  0  0  0
  9 14  1  0  0  0  0
  9 10  2  0  0  0  0
 10 11  1  0  0  0  0
 11 12  2  0  0  0  0
 11 42  1  0  0  0  0
 12 13  1  0  0  0  0
 13 17  1  0  0  0  0
 13 14  2  0  0  0  0
 14 15  1  0  0  0  0
 15 16  2  0  0  0  0
 16 17  1  0  0  0  0
 16 43  1  0  0  0  0
 17 18  1  0  0  0  0
 18 19  1  0  0  0  0
 18 44  1  0  0  0  0
 18 45  1  0  0  0  0
 19 20  1  0  0  0  0
 19 22  1  0  0  0  0
 19 46  1  0  0  0  0
 20 21  1  0  0  0  0
 20 47  1  0  0  0  0
 20 48  1  0  0  0  0
 21 49  1  0  0  0  0
 22 26  1  0  0  0  0
 22 23  1  0  0  0  0
 22 50  1  0  0  0  0
 23 24  1  0  0  0  0
 23 51  1  0  0  0  0
 23 52  1  0  0  0  0
 24 25  1  0  0  0  0
 24 53  1  0  0  0  0
 24 54  1  0  0  0  0
 25 26  1  0  0  0  0
 26 55  1  0  0  0  0
 26 56  1  0  0  0  0
 27 28  1  0  0  0  0
 27 29  1  0  0  0  0
 28 57  1  0  0  0  0
 28 58  1  0  0  0  0
 28 59  1  0  0  0  0
 29 60  1  0  0  0  0
 29 61  1  0  0  0  0
M  END
> <s_m_source_file>
AV-unprocessed.smi

> <i_m_source_file_index>
21

> <i_lp_mmshare_version>
43012

> <i_f3d_flags>
0

> <s_epik_input>
W0NIM11PW0NASF0xW0NIMl1bQ0BIXShOKFtDSDNdKVtDSDJdMSlbQ0gyXU4oW0NIM10pYyhuW2NIXW4yKWMoYzIzKW5bY0hdbjNbQ0gyXVtDQEhdKFtDSDJdW09IXSlbQ0BASF00W0NIMl1bQ0gyXU9bQ0gyXTQ=

> <s_epik_cmdline>
J2VwaWtfcHl0aG9uJywgJy1waCcsICc3LjAnLCAnLXRuJywgJzgnLCAnLW1hJywgJzIwMCcsICctbWV0YWxfYmluZGluZycsICctaW1hZScsICc8aW5maWxlLm1hZT4nLCAnLW9tYWUnLCAnPG91dGZpbGUubWFlPic=

> <r_lp_tautomer_probability>
1

> <r_epik_Ionization_Penalty>
2.17574

> <r_epik_Ionization_Penalty_Charging>
0

> <r_epik_Ionization_Penalty_Neutral>
2.17574

> <r_epik_State_Penalty>
2.31336

> <r_epik_Charging_Adjusted_Penalty>
2.31336

> <i_epik_Tot_Q>
0

> <i_epik_Tot_abs_Q>
0

> <r_epik_Metal_State_Penalty>
2.31025

> <b_epik_Metal_Only>
0

> <s_lp_Force_Field>
OPLS_2005

> <r_lp_Energy>
70.2261

> <b_lp_Chiralities_Consistent>
1

> <s_lp_Variant>
AV-unprocessed.smi:21-33

> <Gold.Version>
5.8.1

> <Gold.Id.Protein>
6NUR|6NUR_protein|mol2

> <Gold.PLP.Fitness>
52.6504

> <Gold.PLP.PLP>
-39.5817

> <Gold.PLP.part.hbond>
-4.0000

> <Gold.PLP.part.metal>
0.0000

> <Gold.PLP.part.buried>
-6.4328

> <Gold.PLP.part.nonpolar>
-29.8864

> <Gold.PLP.part.repulsive>
0.1504

> <Gold.PLP.ligand.clash>
0.0011

> <Gold.PLP.ligand.torsion>
0.5049

> <Gold.PLP.Chemscore.Hbond>
3.4254

> <Gold.PLP.Chemscore.CHOScore>
1.0000

> <Gold.PLP.Chemscore.Metal>
0.0000

> <Gold.Chemscore.Hbonds>
donor molecule, donor type, donor heavy atom, donor atom, acceptor molecule, acceptor atom, score
      P1  H  6896  6907       L1    15  0.98
      P1  H  6931  6943       L1     2  0.54
      P1  H  6934  6947       L1     2  0.76
      P1  H  7989  7998       L1    21  0.98
      L1  C    11    42       P1  7948  1.00

> <Gold.PLP.Chemscore.Internal.Correction>
0.8034

> <Gold.Rescore>
     Score         DG    S(hbond)    S(metal)    S(lipo)     H(rot)  DE(clash)    DE(int)     intcor
     10.76     -15.53       1.67        0.00     103.94       3.00       0.10       4.67       ----

> <Gold.Chemscore.Fitness>
10.7586

> <Gold.Chemscore.DG>
-15.5267

> <Gold.Chemscore.ZeroCoef>
-5.4800

> <Gold.Chemscore.Hbond>
1.6689

> <Gold.Chemscore.Metal>
0.0000

> <Gold.Chemscore.Lipo>
103.9374

> <Gold.Chemscore.Internal_Hbond>
0.0000

> <Gold.Chemscore.DEClash>
0.1007

> <Gold.Chemscore.DEInternal>
4.6675

> <Gold.Chemscore.Rot>
3.0031

> <Gold.Chemscore.Internal.Correction>
   9.000000E+99

> <Gold.Chemscore.Hbonds>
donor molecule, donor type, donor heavy atom, donor atom, acceptor molecule, acceptor atom, score
      P1  H  6896  6907       L1    15  0.19
      P1  H  6931  6943       L1     2  0.06
      P1  H  6934  6947       L1     2  0.46
      P1  H  7989  7998       L1    21  0.61

> <Gold.Chemscore.Hbond.Weighted>
-5.5740

> <Gold.Chemscore.Metal.Weighted>
-0.0000

> <Gold.Chemscore.Lipo.Weighted>
-12.1607

> <Gold.Chemscore.Internal_Hbond.Weighted>
0.0000

> <Gold.Chemscore.DEClash.Weighted>
0.1007

> <Gold.Chemscore.DEInternal.Weighted>
4.6675

> <Gold.Chemscore.Rot.Weighted>
7.6880

> <Gold.Chemscore.Internal.Correction.Weighted>
   9.000000E+99

> <Gold.Protein.RotatedTorsions>
[ 6907 6896 6895 6894 ] final  -56.81 input  -60.11 | X-H torsion
[ 7974 7965 7964 7962 ] final  -92.35 input  175.53 | X-H torsion
[ 8008 7997 7996 7995 ] final -139.34 input   59.86 | X-H torsion
[ 10167 10162 10161 10158 ] final  -35.79 input  -65.29 | X-H torsion
[ 10718 10713 10712 10709 ] final   39.99 input   66.30 | X-H torsion
[ 10763 10752 10751 10750 ] final  -71.70 input  -60.55 | X-H torsion
[ 11005 11000 10999 10996 ] final  -79.98 input  -57.11 | X-H torsion

> <Gold.Protein.ActiveResidues>
 VAL166  LYS551  ARG553  GLY616  TRP617  ASP618  TYR619  PRO620  LYS621  CYS622 
 ASP623  PHE694  ASN695  SER759  ASP760  ASP761  ALA762  ILE779  LEU786  VAL792 
 PHE793  MET794  SER795  GLU796  ALA797  LYS798  CYS799  TRP800  GLU811  SER814 

> <Gold.Protein.RotatedAtoms>
  150.8137  134.7306  159.6710 H   0  0  0  0  0  0  0  0  0  0  0  0  # atno 6907 bound_to 6896
  152.4256  134.5871  159.9974 H   0  0  0  0  0  0  0  0  0  0  0  0  # atno 6908 bound_to 6896
  151.6074  133.3313  159.3096 H   0  0  0  0  0  0  0  0  0  0  0  0  # atno 6909 bound_to 6896
  145.4010  140.9537  143.2287 H   0  0  0  0  0  0  0  0  0  0  0  0  # atno 7974 bound_to 7965
  155.4432  140.0533  157.3008 H   0  0  0  0  0  0  0  0  0  0  0  0  # atno 8008 bound_to 7997
  154.4809  140.2081  155.9723 H   0  0  0  0  0  0  0  0  0  0  0  0  # atno 8009 bound_to 7997
  156.1204  140.3189  155.8205 H   0  0  0  0  0  0  0  0  0  0  0  0  # atno 8010 bound_to 7997
  140.7157  143.3453  151.2270 H   0  0  0  0  0  0  0  0  0  0  0  0  # atno 10167 bound_to 10162
  157.3770  130.7732  149.7163 H   0  0  0  0  0  0  0  0  0  0  0  0  # atno 10718 bound_to 10713
  154.4354  135.5954  153.6095 H   0  0  0  0  0  0  0  0  0  0  0  0  # atno 10763 bound_to 10752
  152.9801  135.5985  154.3788 H   0  0  0  0  0  0  0  0  0  0  0  0  # atno 10764 bound_to 10752
  154.3631  135.2841  155.2287 H   0  0  0  0  0  0  0  0  0  0  0  0  # atno 10765 bound_to 10752
  141.1668  133.7129  156.8204 H   0  0  0  0  0  0  0  0  0  0  0  0  # atno 11005 bound_to 11000
  144.8374  139.5528  143.6916 LP  0  0  0  0  0  0  0  0  0  0  0  0  # atno 17320 bound_to 7965
  146.2751  139.6734  142.9268 LP  0  0  0  0  0  0  0  0  0  0  0  0  # atno 17321 bound_to 7965
  139.6970  143.9595  152.2887 LP  0  0  0  0  0  0  0  0  0  0  0  0  # atno 17342 bound_to 10162
  139.9276  144.6761  150.8396 LP  0  0  0  0  0  0  0  0  0  0  0  0  # atno 17343 bound_to 10162
  155.9767  130.4072  150.3759 LP  0  0  0  0  0  0  0  0  0  0  0  0  # atno 17370 bound_to 10713
  157.1857  131.0403  151.2726 LP  0  0  0  0  0  0  0  0  0  0  0  0  # atno 17371 bound_to 10713
  140.2124  134.8818  157.3288 LP  0  0  0  0  0  0  0  0  0  0  0  0  # atno 17394 bound_to 11000
  140.2073  134.4181  155.7631 LP  0  0  0  0  0  0  0  0  0  0  0  0  # atno 17395 bound_to 11000

$$$$
