AV-unprocessed.smi:1645|AV-procd|sdf|6615|dock1
  -GOLD-   22720 7313D 1   1.00000     0.00000
 Structure written by MMmdl.
 56 59  0  0  0  0  0  0  0  0  3 V2000
  146.5825  139.8549  153.5590 O   0  0  0  0  0  0  0  0  0  0  0  0
  147.4751  139.0728  153.2345 C   0  0  0  0  0  0  0  0  0  0  0  0
  148.7389  139.1003  153.6922 N   0  0  0  0  0  0  0  0  0  0  0  0
  149.3234  139.9918  154.6332 C   0  0  0  0  0  0  0  0  0  0  0  0
  150.4898  139.5681  155.3030 C   0  0  0  0  0  0  0  0  0  0  0  0
  151.1016  140.4116  156.2527 C   0  0  0  0  0  0  0  0  0  0  0  0
  150.5366  141.6798  156.5396 C   0  0  0  0  0  0  0  0  0  0  0  0
  151.0821  142.5959  157.4675 N   0  0  0  0  0  0  0  0  0  0  0  0
  152.1295  142.0811  158.3559 C   0  0  0  0  0  0  0  0  0  0  0  0
  152.3294  142.9932  159.5780 C   0  0  0  0  0  0  0  0  0  0  0  0
  152.5729  144.4467  159.1502 C   0  0  0  0  0  0  0  0  0  0  0  0
  151.4210  144.9252  158.2564 C   0  0  0  0  0  0  0  0  0  0  0  0
  151.2288  143.9916  157.0489 C   0  0  0  0  0  0  0  0  0  0  0  0
  149.4086  142.0357  155.8784 N   0  3  0  0  0  0  0  0  0  0  0  0
  148.7912  141.2613  154.9607 C   0  0  0  0  0  0  0  0  0  0  0  0
  147.2984  138.0784  152.3529 N   0  0  0  0  0  0  0  0  0  0  0  0
  146.0480  137.7866  151.6570 C   0  0  1  0  0  0  0  0  0  0  0  0
  146.2380  136.8480  150.4523 C   0  0  0  0  0  0  0  0  0  0  0  0
  144.9921  135.9405  150.4405 C   0  0  0  0  0  0  0  0  0  0  0  0
  144.1377  136.4345  151.5373 N   0  3  1  0  0  0  0  0  0  0  0  0
  143.1783  135.4763  152.1280 C   0  0  0  0  0  0  0  0  0  0  0  0
  142.3235  136.2014  153.1864 C   0  0  0  0  0  0  0  0  0  0  0  0
  143.1990  136.9213  154.2323 C   0  0  0  0  0  0  0  0  0  0  0  0
  144.2404  137.8331  153.5547 C   0  0  0  0  0  0  0  0  0  0  0  0
  145.0510  137.0199  152.5309 C   0  0  2  0  0  0  0  0  0  0  0  0
  149.3723  138.4294  153.2824 H   0  0  0  0  0  0  0  0  0  0  0  0
  150.9213  138.6006  155.0906 H   0  0  0  0  0  0  0  0  0  0  0  0
  151.9916  140.0601  156.7522 H   0  0  0  0  0  0  0  0  0  0  0  0
  151.9012  141.0768  158.7117 H   0  0  0  0  0  0  0  0  0  0  0  0
  153.0592  142.0093  157.7900 H   0  0  0  0  0  0  0  0  0  0  0  0
  151.4472  142.9438  160.2178 H   0  0  0  0  0  0  0  0  0  0  0  0
  153.1665  142.6341  160.1770 H   0  0  0  0  0  0  0  0  0  0  0  0
  152.6616  145.0886  160.0270 H   0  0  0  0  0  0  0  0  0  0  0  0
  153.5171  144.5206  158.6090 H   0  0  0  0  0  0  0  0  0  0  0  0
  150.4998  144.9610  158.8394 H   0  0  0  0  0  0  0  0  0  0  0  0
  151.6099  145.9432  157.9143 H   0  0  0  0  0  0  0  0  0  0  0  0
  152.0798  144.0729  156.3715 H   0  0  0  0  0  0  0  0  0  0  0  0
  150.3437  144.3192  156.5032 H   0  0  0  0  0  0  0  0  0  0  0  0
  147.8953  141.6918  154.5400 H   0  0  0  0  0  0  0  0  0  0  0  0
  148.0875  137.4859  152.1391 H   0  0  0  0  0  0  0  0  0  0  0  0
  145.5841  138.7089  151.3004 H   0  0  0  0  0  0  0  0  0  0  0  0
  146.3382  137.4136  149.5252 H   0  0  0  0  0  0  0  0  0  0  0  0
  147.1352  136.2367  150.5610 H   0  0  0  0  0  0  0  0  0  0  0  0
  144.4589  135.9786  149.4902 H   0  0  0  0  0  0  0  0  0  0  0  0
  145.2814  134.9047  150.6254 H   0  0  0  0  0  0  0  0  0  0  0  0
  142.5396  135.0673  151.3443 H   0  0  0  0  0  0  0  0  0  0  0  0
  143.7160  134.6401  152.5776 H   0  0  0  0  0  0  0  0  0  0  0  0
  141.6817  136.9316  152.6920 H   0  0  0  0  0  0  0  0  0  0  0  0
  141.6581  135.4925  153.6798 H   0  0  0  0  0  0  0  0  0  0  0  0
  142.5732  137.5039  154.9091 H   0  0  0  0  0  0  0  0  0  0  0  0
  143.7115  136.1799  154.8469 H   0  0  0  0  0  0  0  0  0  0  0  0
  143.7403  138.6676  153.0613 H   0  0  0  0  0  0  0  0  0  0  0  0
  144.9000  138.2635  154.3083 H   0  0  0  0  0  0  0  0  0  0  0  0
  145.5736  136.2088  153.0438 H   0  0  0  0  0  0  0  0  0  0  0  0
  143.6013  137.2022  151.1592 H   0  0  0  0  0  0  0  0  0  0  0  0
  148.9996  142.9470  156.0854 H   0  0  0  0  0  0  0  0  0  0  0  0
  1  2  2  0  0  0  0
  2  3  1  0  0  0  0
  2 16  1  0  0  0  0
  3  4  1  0  0  0  0
  3 26  1  0  0  0  0
  4 15  1  0  0  0  0
  4  5  2  0  0  0  0
  5  6  1  0  0  0  0
  5 27  1  0  0  0  0
  6  7  2  0  0  0  0
  6 28  1  0  0  0  0
  7  8  1  0  0  0  0
  7 14  1  0  0  0  0
  8 13  1  0  0  0  0
  8  9  1  0  0  0  0
  9 10  1  0  0  0  0
  9 29  1  0  0  0  0
  9 30  1  0  0  0  0
 10 11  1  0  0  0  0
 10 31  1  0  0  0  0
 10 32  1  0  0  0  0
 11 12  1  0  0  0  0
 11 33  1  0  0  0  0
 11 34  1  0  0  0  0
 12 13  1  0  0  0  0
 12 35  1  0  0  0  0
 12 36  1  0  0  0  0
 13 37  1  0  0  0  0
 13 38  1  0  0  0  0
 14 15  2  0  0  0  0
 14 56  1  0  0  0  0
 15 39  1  0  0  0  0
 16 17  1  0  0  0  0
 16 40  1  0  0  0  0
 17 25  1  0  0  0  0
 17 18  1  0  0  0  0
 17 41  1  0  0  0  0
 18 19  1  0  0  0  0
 18 42  1  0  0  0  0
 18 43  1  0  0  0  0
 19 20  1  0  0  0  0
 19 44  1  0  0  0  0
 19 45  1  0  0  0  0
 20 25  1  0  0  0  0
 20 21  1  0  0  0  0
 20 55  1  0  0  0  0
 21 22  1  0  0  0  0
 21 46  1  0  0  0  0
 21 47  1  0  0  0  0
 22 23  1  0  0  0  0
 22 48  1  0  0  0  0
 22 49  1  0  0  0  0
 23 24  1  0  0  0  0
 23 50  1  0  0  0  0
 23 51  1  0  0  0  0
 24 25  1  0  0  0  0
 24 52  1  0  0  0  0
 24 53  1  0  0  0  0
 25 54  1  0  0  0  0
M  CHG  1  14   1
M  CHG  1  20   1
M  END
> <s_m_source_file>
AV-unprocessed.smi

> <i_m_source_file_index>
1645

> <i_lp_mmshare_version>
43012

> <i_f3d_flags>
0

> <s_epik_input>
W0NIMl0xW0NIMl1bQ0gyXVtDSDJdW0NASF0oTjEyKVtDQEBIXShbQ0gyXVtDSDJdMilbTkhdQyg9TylbTkhdYzNbY0hdW2NIXWMobltjSF0zKU40W0NIMl1bQ0gyXVtDSDJdW0NIMl1bQ0gyXTQ=

> <s_epik_cmdline>
J2VwaWtfcHl0aG9uJywgJy1waCcsICc3LjAnLCAnLXRuJywgJzgnLCAnLW1hJywgJzIwMCcsICctbWV0YWxfYmluZGluZycsICctaW1hZScsICc8aW5maWxlLm1hZT4nLCAnLW9tYWUnLCAnPG91dGZpbGUubWFlPic=

> <r_lp_tautomer_probability>
0.999994

> <r_epik_Ionization_Penalty>
1.26838

> <r_epik_Ionization_Penalty_Charging>
1.26836

> <r_epik_Ionization_Penalty_Neutral>
1.95562e-05

> <r_epik_State_Penalty>
1.33841

> <r_epik_Charging_Adjusted_Penalty>
2.60677

> <i_epik_Tot_Q>
2

> <i_epik_Tot_abs_Q>
2

> <r_epik_Metal_State_Penalty>
1.40601

> <b_epik_Metal_Only>
0

> <s_lp_Force_Field>
OPLS_2005

> <r_lp_Energy>
57.888

> <b_lp_Chiralities_Consistent>
1

> <s_lp_Variant>
AV-unprocessed.smi:1645-16

> <Gold.Version>
5.8.1

> <Gold.Id.Protein>
6NUR|6NUR_protein|mol2

> <Gold.PLP.Fitness>
53.8208

> <Gold.PLP.PLP>
-44.1194

> <Gold.PLP.part.hbond>
-4.2163

> <Gold.PLP.part.metal>
0.0000

> <Gold.PLP.part.buried>
5.3778

> <Gold.PLP.part.nonpolar>
-44.7360

> <Gold.PLP.part.repulsive>
0.4727

> <Gold.PLP.ligand.clash>
0.0000

> <Gold.PLP.ligand.torsion>
0.7725

> <Gold.PLP.Chemscore.Hbond>
3.6498

> <Gold.PLP.Chemscore.CHOScore>
0.0000

> <Gold.PLP.Chemscore.Metal>
0.0000

> <Gold.Chemscore.Hbonds>
donor molecule, donor type, donor heavy atom, donor atom, acceptor molecule, acceptor atom, score
      L1  H    14    56       P1  8028  1.92
      L1  H    16    40       P1  7948  0.99
      L1  H    20    55       P1 10171  0.75

> <Gold.PLP.Chemscore.Internal.Correction>
0.2969

> <Gold.Rescore>
     Score         DG    S(hbond)    S(metal)    S(lipo)     H(rot)  DE(clash)    DE(int)     intcor
     21.93     -25.41       2.51        0.00     120.58       1.00       1.33       2.14       ----

> <Gold.Chemscore.Fitness>
21.9329

> <Gold.Chemscore.DG>
-25.4070

> <Gold.Chemscore.ZeroCoef>
-5.4800

> <Gold.Chemscore.Hbond>
2.5089

> <Gold.Chemscore.Metal>
0.0000

> <Gold.Chemscore.Lipo>
120.5761

> <Gold.Chemscore.Internal_Hbond>
0.0000

> <Gold.Chemscore.DEClash>
1.3305

> <Gold.Chemscore.DEInternal>
2.1435

> <Gold.Chemscore.Rot>
1.0000

> <Gold.Chemscore.Internal.Correction>
   9.000000E+99

> <Gold.Chemscore.Hbonds>
donor molecule, donor type, donor heavy atom, donor atom, acceptor molecule, acceptor atom, score
      L1  H    14    56       P1  8028  0.92
      L1  H    16    40       P1  7948  0.92
      L1  H    20    55       P1 10171  0.73

> <Gold.Chemscore.Hbond.Weighted>
-8.3796

> <Gold.Chemscore.Metal.Weighted>
-0.0000

> <Gold.Chemscore.Lipo.Weighted>
-14.1074

> <Gold.Chemscore.Internal_Hbond.Weighted>
0.0000

> <Gold.Chemscore.DEClash.Weighted>
1.3305

> <Gold.Chemscore.DEInternal.Weighted>
2.1435

> <Gold.Chemscore.Rot.Weighted>
2.5600

> <Gold.Chemscore.Internal.Correction.Weighted>
   9.000000E+99

> <Gold.Protein.RotatedTorsions>
[ 6907 6896 6895 6894 ] final   31.86 input  -60.11 | X-H torsion
[ 7974 7965 7964 7962 ] final   50.66 input  175.53 | X-H torsion
[ 8008 7997 7996 7995 ] final -150.40 input   59.86 | X-H torsion
[ 10167 10162 10161 10158 ] final  144.83 input  -65.29 | X-H torsion
[ 10718 10713 10712 10709 ] final  -65.93 input   66.30 | X-H torsion
[ 10763 10752 10751 10750 ] final -144.26 input  -60.55 | X-H torsion
[ 11005 11000 10999 10996 ] final -125.93 input  -57.11 | X-H torsion

> <Gold.Protein.ActiveResidues>
 VAL166  LYS551  ARG553  GLY616  TRP617  ASP618  TYR619  PRO620  LYS621  CYS622 
 ASP623  PHE694  ASN695  SER759  ASP760  ASP761  ALA762  ILE779  LEU786  VAL792 
 PHE793  MET794  SER795  GLU796  ALA797  LYS798  CYS799  TRP800  GLU811  SER814 

> <Gold.Protein.RotatedAtoms>
  152.0663  134.9562  160.0574 H   0  0  0  0  0  0  0  0  0  0  0  0  # atno 6907 bound_to 6896
  152.0905  133.4193  159.4550 H   0  0  0  0  0  0  0  0  0  0  0  0  # atno 6908 bound_to 6896
  150.6837  134.2796  159.4665 H   0  0  0  0  0  0  0  0  0  0  0  0  # atno 6909 bound_to 6896
  145.9990  139.4419  143.0026 H   0  0  0  0  0  0  0  0  0  0  0  0  # atno 7974 bound_to 7965
  155.6229  140.0683  157.2672 H   0  0  0  0  0  0  0  0  0  0  0  0  # atno 8008 bound_to 7997
  154.4224  140.1781  156.1440 H   0  0  0  0  0  0  0  0  0  0  0  0  # atno 8009 bound_to 7997
  155.9995  140.3337  155.6834 H   0  0  0  0  0  0  0  0  0  0  0  0  # atno 8010 bound_to 7997
  139.4938  144.5944  151.6613 H   0  0  0  0  0  0  0  0  0  0  0  0  # atno 10167 bound_to 10162
  156.0641  130.4254  150.1635 H   0  0  0  0  0  0  0  0  0  0  0  0  # atno 10718 bound_to 10713
  154.8435  135.3445  154.6318 H   0  0  0  0  0  0  0  0  0  0  0  0  # atno 10763 bound_to 10752
  153.6928  135.6974  153.5089 H   0  0  0  0  0  0  0  0  0  0  0  0  # atno 10764 bound_to 10752
  153.2582  135.4331  155.0822 H   0  0  0  0  0  0  0  0  0  0  0  0  # atno 10765 bound_to 10752
  140.9722  134.0790  157.3857 H   0  0  0  0  0  0  0  0  0  0  0  0  # atno 11005 bound_to 11000
  145.7516  140.9970  143.1247 LP  0  0  0  0  0  0  0  0  0  0  0  0  # atno 17320 bound_to 7965
  144.6913  139.9221  143.7468 LP  0  0  0  0  0  0  0  0  0  0  0  0  # atno 17321 bound_to 7965
  140.5579  144.0318  150.6156 LP  0  0  0  0  0  0  0  0  0  0  0  0  # atno 17342 bound_to 10162
  140.3394  143.3029  152.0604 LP  0  0  0  0  0  0  0  0  0  0  0  0  # atno 17343 bound_to 10162
  156.9698  130.9831  151.3461 LP  0  0  0  0  0  0  0  0  0  0  0  0  # atno 17370 bound_to 10713
  157.5671  130.8285  149.8341 LP  0  0  0  0  0  0  0  0  0  0  0  0  # atno 17371 bound_to 10713
  139.8916  135.0120  156.6803 LP  0  0  0  0  0  0  0  0  0  0  0  0  # atno 17394 bound_to 11000
  140.7312  133.9057  155.8212 LP  0  0  0  0  0  0  0  0  0  0  0  0  # atno 17395 bound_to 11000

$$$$
