AV-unprocessed.smi:1246|AV-procd|sdf|5241|dock8
  -GOLD-   22720 4353D 1   1.00000     0.00000
 Structure written by MMmdl.
 35 36  0  0  0  0  0  0  0  0  1 V2000
  146.9927  138.9055  152.0649 C   0  0  0  0  0  0  0  0  0  0  0  0
  147.3999  140.1136  152.8556 C   0  0  0  0  0  0  0  0  0  0  0  0
  148.5324  140.2641  153.7080 C   0  0  0  0  0  0  0  0  0  0  0  0
  148.4016  141.5498  154.1573 C   0  0  0  0  0  0  0  0  0  0  0  0
  149.1999  142.2429  155.0121 N   0  0  0  0  0  0  0  0  0  0  0  0
  149.9788  141.7740  156.0025 C   0  0  0  0  0  0  0  0  0  0  0  0
  150.1102  140.5888  156.3091 O   0  0  0  0  0  0  0  0  0  0  0  0
  150.6154  142.7732  156.6292 N   0  0  0  0  0  0  0  0  0  0  0  0
  151.5525  142.6070  157.7341 C   0  0  0  0  0  0  0  0  0  0  0  0
  151.2418  143.5736  158.8886 C   0  0  2  0  0  0  0  0  0  0  0  0
  151.9431  144.9232  158.7669 C   0  0  0  0  0  0  0  0  0  0  0  0
  151.9061  145.4108  160.1980 C   0  0  0  0  0  0  0  0  0  0  0  0
  152.0983  144.1189  160.9920 C   0  0  0  0  0  0  0  0  0  0  0  0
  151.7171  143.0523  160.1252 O   0  0  0  0  0  0  0  0  0  0  0  0
  147.2698  142.1028  153.6011 N   0  0  0  0  0  0  0  0  0  0  0  0
  146.7132  143.4304  153.7747 C   0  0  0  0  0  0  0  0  0  0  0  0
  146.6531  141.2106  152.7965 N   0  0  0  0  0  0  0  0  0  0  0  0
  147.6906  138.0818  152.2162 H   0  0  0  0  0  0  0  0  0  0  0  0
  146.9661  139.1260  150.9975 H   0  0  0  0  0  0  0  0  0  0  0  0
  146.0019  138.5588  152.3594 H   0  0  0  0  0  0  0  0  0  0  0  0
  149.2973  139.5379  153.9378 H   0  0  0  0  0  0  0  0  0  0  0  0
  149.2086  143.2431  154.8765 H   0  0  0  0  0  0  0  0  0  0  0  0
  150.4543  143.7171  156.3102 H   0  0  0  0  0  0  0  0  0  0  0  0
  151.4943  141.5756  158.0823 H   0  0  0  0  0  0  0  0  0  0  0  0
  152.5736  142.7571  157.3795 H   0  0  0  0  0  0  0  0  0  0  0  0
  150.1662  143.7382  158.9752 H   0  0  0  0  0  0  0  0  0  0  0  0
  152.9767  144.7928  158.4427 H   0  0  0  0  0  0  0  0  0  0  0  0
  151.4468  145.6002  158.0712 H   0  0  0  0  0  0  0  0  0  0  0  0
  152.6659  146.1618  160.4153 H   0  0  0  0  0  0  0  0  0  0  0  0
  150.9283  145.8422  160.4167 H   0  0  0  0  0  0  0  0  0  0  0  0
  153.1444  143.9845  161.2690 H   0  0  0  0  0  0  0  0  0  0  0  0
  151.5031  144.1133  161.9054 H   0  0  0  0  0  0  0  0  0  0  0  0
  147.4726  144.1791  153.5497 H   0  0  0  0  0  0  0  0  0  0  0  0
  146.3833  143.5554  154.8061 H   0  0  0  0  0  0  0  0  0  0  0  0
  145.8618  143.5806  153.1096 H   0  0  0  0  0  0  0  0  0  0  0  0
  1  2  1  0  0  0  0
  1 18  1  0  0  0  0
  1 19  1  0  0  0  0
  1 20  1  0  0  0  0
  2 17  2  0  0  0  0
  2  3  1  0  0  0  0
  3  4  2  0  0  0  0
  3 21  1  0  0  0  0
  4  5  1  0  0  0  0
  4 15  1  0  0  0  0
  5  6  1  0  0  0  0
  5 22  1  0  0  0  0
  6  7  2  0  0  0  0
  6  8  1  0  0  0  0
  8  9  1  0  0  0  0
  8 23  1  0  0  0  0
  9 10  1  0  0  0  0
  9 24  1  0  0  0  0
  9 25  1  0  0  0  0
 10 14  1  0  0  0  0
 10 11  1  0  0  0  0
 10 26  1  0  0  0  0
 11 12  1  0  0  0  0
 11 27  1  0  0  0  0
 11 28  1  0  0  0  0
 12 13  1  0  0  0  0
 12 29  1  0  0  0  0
 12 30  1  0  0  0  0
 13 14  1  0  0  0  0
 13 31  1  0  0  0  0
 13 32  1  0  0  0  0
 15 16  1  0  0  0  0
 15 17  1  0  0  0  0
 16 33  1  0  0  0  0
 16 34  1  0  0  0  0
 16 35  1  0  0  0  0
M  END
> <s_m_source_file>
AV-unprocessed.smi

> <i_m_source_file_index>
1246

> <i_lp_mmshare_version>
43012

> <i_f3d_flags>
0

> <s_epik_input>
W0NIM11jMVtjSF1jKG4objEpW0NIM10pW05IXUMoPU8pW05IXVtDSDJdW0NAQEhdMltDSDJdW0NIMl1bQ0gyXU8y

> <s_epik_cmdline>
J2VwaWtfcHl0aG9uJywgJy1waCcsICc3LjAnLCAnLXRuJywgJzgnLCAnLW1hJywgJzIwMCcsICctbWV0YWxfYmluZGluZycsICctaW1hZScsICc8aW5maWxlLm1hZT4nLCAnLW9tYWUnLCAnPG91dGZpbGUubWFlPic=

> <r_lp_tautomer_probability>
1

> <r_epik_Ionization_Penalty>
9.6187e-05

> <r_epik_Ionization_Penalty_Charging>
0

> <r_epik_Ionization_Penalty_Neutral>
9.6187e-05

> <r_epik_State_Penalty>
-0

> <r_epik_Charging_Adjusted_Penalty>
0

> <i_epik_Tot_Q>
0

> <i_epik_Tot_abs_Q>
0

> <r_epik_Metal_State_Penalty>
-0

> <b_epik_Metal_Only>
0

> <s_lp_Force_Field>
OPLS_2005

> <r_lp_Energy>
17.9178

> <b_lp_Chiralities_Consistent>
1

> <s_lp_Variant>
AV-unprocessed.smi:1246-1

> <Gold.Version>
5.8.1

> <Gold.Id.Protein>
6NUR|6NUR_protein|mol2

> <Gold.PLP.Fitness>
42.2447

> <Gold.PLP.PLP>
-37.7188

> <Gold.PLP.part.hbond>
-2.0000

> <Gold.PLP.part.metal>
0.0000

> <Gold.PLP.part.buried>
-3.2399

> <Gold.PLP.part.nonpolar>
-33.9594

> <Gold.PLP.part.repulsive>
2.3923

> <Gold.PLP.ligand.clash>
0.0000

> <Gold.PLP.ligand.torsion>
0.5597

> <Gold.PLP.Chemscore.Hbond>
1.8800

> <Gold.PLP.Chemscore.CHOScore>
0.0000

> <Gold.PLP.Chemscore.Metal>
0.0000

> <Gold.Chemscore.Hbonds>
donor molecule, donor type, donor heavy atom, donor atom, acceptor molecule, acceptor atom, score
      L1  H     5    22       P1  8028  0.88
      L1  H     8    23       P1  8028  0.72

> <Gold.PLP.Chemscore.Internal.Correction>
0.0053

> <Gold.Rescore>
     Score         DG    S(hbond)    S(metal)    S(lipo)     H(rot)  DE(clash)    DE(int)     intcor
     16.95     -17.93       1.80        0.00      82.29       1.25       0.20       0.77       ----

> <Gold.Chemscore.Fitness>
16.9538

> <Gold.Chemscore.DG>
-17.9267

> <Gold.Chemscore.ZeroCoef>
-5.4800

> <Gold.Chemscore.Hbond>
1.8002

> <Gold.Chemscore.Metal>
0.0000

> <Gold.Chemscore.Lipo>
82.2936

> <Gold.Chemscore.Internal_Hbond>
0.0000

> <Gold.Chemscore.DEClash>
0.1993

> <Gold.Chemscore.DEInternal>
0.7736

> <Gold.Chemscore.Rot>
1.2478

> <Gold.Chemscore.Internal.Correction>
   9.000000E+99

> <Gold.Chemscore.Hbonds>
donor molecule, donor type, donor heavy atom, donor atom, acceptor molecule, acceptor atom, score
      L1  H     5    22       P1  8028  0.86
      L1  H     8    23       P1  8028  0.71

> <Gold.Chemscore.Hbond.Weighted>
-6.0127

> <Gold.Chemscore.Metal.Weighted>
-0.0000

> <Gold.Chemscore.Lipo.Weighted>
-9.6284

> <Gold.Chemscore.Internal_Hbond.Weighted>
0.0000

> <Gold.Chemscore.DEClash.Weighted>
0.1993

> <Gold.Chemscore.DEInternal.Weighted>
0.7736

> <Gold.Chemscore.Rot.Weighted>
3.1944

> <Gold.Chemscore.Internal.Correction.Weighted>
   9.000000E+99

> <Gold.Protein.RotatedTorsions>
[ 6907 6896 6895 6894 ] final  149.62 input  -60.11 | X-H torsion
[ 7974 7965 7964 7962 ] final -160.99 input  175.53 | X-H torsion
[ 8008 7997 7996 7995 ] final  122.56 input   59.86 | X-H torsion
[ 10167 10162 10161 10158 ] final  162.54 input  -65.29 | X-H torsion
[ 10718 10713 10712 10709 ] final  103.55 input   66.30 | X-H torsion
[ 10763 10752 10751 10750 ] final -155.48 input  -60.55 | X-H torsion
[ 11005 11000 10999 10996 ] final    8.91 input  -57.11 | X-H torsion

> <Gold.Protein.ActiveResidues>
 VAL166  LYS551  ARG553  GLY616  TRP617  ASP618  TYR619  PRO620  LYS621  CYS622 
 ASP623  PHE694  ASN695  SER759  ASP760  ASP761  ALA762  ILE779  LEU786  VAL792 
 PHE793  MET794  SER795  GLU796  ALA797  LYS798  CYS799  TRP800  GLU811  SER814 

> <Gold.Protein.RotatedAtoms>
  152.1255  133.4378  159.4695 H   0  0  0  0  0  0  0  0  0  0  0  0  # atno 6907 bound_to 6896
  150.6874  134.2483  159.4509 H   0  0  0  0  0  0  0  0  0  0  0  0  # atno 6908 bound_to 6896
  152.0363  134.9737  160.0624 H   0  0  0  0  0  0  0  0  0  0  0  0  # atno 6909 bound_to 6896
  144.7407  140.3462  143.6125 H   0  0  0  0  0  0  0  0  0  0  0  0  # atno 7974 bound_to 7965
  156.2732  140.2783  156.1487 H   0  0  0  0  0  0  0  0  0  0  0  0  # atno 8008 bound_to 7997
  155.0877  140.0388  157.2676 H   0  0  0  0  0  0  0  0  0  0  0  0  # atno 8009 bound_to 7997
  154.6914  140.2630  155.6815 H   0  0  0  0  0  0  0  0  0  0  0  0  # atno 8010 bound_to 7997
  139.4862  144.4427  151.8931 H   0  0  0  0  0  0  0  0  0  0  0  0  # atno 10167 bound_to 10162
  157.6769  131.0782  150.5573 H   0  0  0  0  0  0  0  0  0  0  0  0  # atno 10718 bound_to 10713
  154.7784  135.3167  154.8043 H   0  0  0  0  0  0  0  0  0  0  0  0  # atno 10763 bound_to 10752
  153.8761  135.6839  153.4775 H   0  0  0  0  0  0  0  0  0  0  0  0  # atno 10764 bound_to 10752
  153.1413  135.4738  154.9437 H   0  0  0  0  0  0  0  0  0  0  0  0  # atno 10765 bound_to 10752
  140.5317  134.0460  155.7875 H   0  0  0  0  0  0  0  0  0  0  0  0  # atno 11005 bound_to 11000
  145.7323  139.1740  143.2423 LP  0  0  0  0  0  0  0  0  0  0  0  0  # atno 17320 bound_to 7965
  146.1197  140.7325  142.9464 LP  0  0  0  0  0  0  0  0  0  0  0  0  # atno 17321 bound_to 7965
  140.3879  144.2652  150.5902 LP  0  0  0  0  0  0  0  0  0  0  0  0  # atno 17342 bound_to 10162
  140.5173  143.2275  151.8444 LP  0  0  0  0  0  0  0  0  0  0  0  0  # atno 17343 bound_to 10162
  156.5876  130.4321  149.5950 LP  0  0  0  0  0  0  0  0  0  0  0  0  # atno 17370 bound_to 10713
  156.2610  130.6962  151.1730 LP  0  0  0  0  0  0  0  0  0  0  0  0  # atno 17371 bound_to 10713
  141.1277  133.9354  157.2600 LP  0  0  0  0  0  0  0  0  0  0  0  0  # atno 17394 bound_to 11000
  139.9550  135.0167  156.9104 LP  0  0  0  0  0  0  0  0  0  0  0  0  # atno 17395 bound_to 11000

$$$$
