AV-unprocessed.smi:196|AV-procd|sdf|1528|dock5
  -GOLD-   2262019373D 1   1.00000     0.00000
 Structure written by MMmdl.
 47 50  0  0  0  0  0  0  0  0  1 V2000
  148.6231  137.8577  154.9972 C   0  0  0  0  0  0  0  0  0  0  0  0
  147.2297  138.1792  154.4347 C   0  0  2  0  0  0  0  0  0  0  0  0
  146.7874  137.0487  153.6888 O   0  0  0  0  0  0  0  0  0  0  0  0
  145.9072  137.4935  152.6725 C   0  0  0  0  0  0  0  0  0  0  0  0
  146.5957  138.7562  152.1785 C   0  0  0  0  0  0  0  0  0  0  0  0
  147.1233  139.3899  153.4642 C   0  0  1  0  0  0  0  0  0  0  0  0
  146.1158  140.2548  153.9611 O   0  0  0  0  0  0  0  0  0  0  0  0
  148.4166  140.2212  153.2555 C   0  0  0  0  0  0  0  0  0  0  0  0
  148.9772  140.7378  154.4946 N   0  0  0  0  0  0  0  0  0  0  0  0
  148.4003  141.6557  155.3420 C   0  0  0  0  0  0  0  0  0  0  0  0
  149.1026  141.9525  156.4006 N   0  0  0  0  0  0  0  0  0  0  0  0
  150.2598  141.1923  156.2696 C   0  0  0  0  0  0  0  0  0  0  0  0
  151.4358  141.0238  157.0576 C   0  0  0  0  0  0  0  0  0  0  0  0
  151.6520  141.6778  158.2305 N   0  0  0  0  0  0  0  0  0  0  0  0
  150.8864  142.8815  158.5330 C   0  0  0  0  0  0  0  0  0  0  0  0
  151.8312  143.7812  159.3294 C   0  0  2  0  0  0  0  0  0  0  0  0
  152.4916  144.5831  158.4924 F   0  0  0  0  0  0  0  0  0  0  0  0
  152.8062  142.7936  159.9628 C   0  0  0  0  0  0  0  0  0  0  0  0
  152.9565  141.6921  158.9004 C   0  0  1  0  0  0  0  0  0  0  0  0
  153.3086  140.3415  159.5440 C   0  0  0  0  0  0  0  0  0  0  0  0
  154.4473  140.2847  160.2384 N   0  0  0  0  0  0  0  0  0  0  0  0
  152.5627  139.3700  159.4298 O   0  0  0  0  0  0  0  0  0  0  0  0
  152.3716  140.1515  156.5967 N   0  0  0  0  0  0  0  0  0  0  0  0
  152.1832  139.4969  155.4478 C   0  0  0  0  0  0  0  0  0  0  0  0
  151.1444  139.5590  154.6136 N   0  0  0  0  0  0  0  0  0  0  0  0
  150.1949  140.4234  155.0723 C   0  0  0  0  0  0  0  0  0  0  0  0
  151.3175  144.4127  160.0548 H   0  0  0  0  0  0  0  0  0  0  0  0
  153.7267  141.9859  158.1846 H   0  0  0  0  0  0  0  0  0  0  0  0
  149.0137  138.6830  155.5925 H   0  0  0  0  0  0  0  0  0  0  0  0
  149.3367  137.6407  154.2022 H   0  0  0  0  0  0  0  0  0  0  0  0
  148.5816  136.9817  155.6448 H   0  0  0  0  0  0  0  0  0  0  0  0
  146.5421  138.3041  155.2735 H   0  0  0  0  0  0  0  0  0  0  0  0
  145.7833  136.7452  151.8896 H   0  0  0  0  0  0  0  0  0  0  0  0
  144.9285  137.7181  153.0993 H   0  0  0  0  0  0  0  0  0  0  0  0
  147.4265  138.4688  151.5329 H   0  0  0  0  0  0  0  0  0  0  0  0
  145.9372  139.4073  151.6016 H   0  0  0  0  0  0  0  0  0  0  0  0
  145.3006  140.0452  153.5313 H   0  0  0  0  0  0  0  0  0  0  0  0
  149.1810  139.6210  152.7609 H   0  0  0  0  0  0  0  0  0  0  0  0
  148.2219  141.0727  152.6030 H   0  0  0  0  0  0  0  0  0  0  0  0
  147.4323  142.0965  155.1537 H   0  0  0  0  0  0  0  0  0  0  0  0
  150.5167  143.3882  157.6401 H   0  0  0  0  0  0  0  0  0  0  0  0
  150.0277  142.5973  159.1425 H   0  0  0  0  0  0  0  0  0  0  0  0
  153.7579  143.2555  160.2274 H   0  0  0  0  0  0  0  0  0  0  0  0
  152.3655  142.3956  160.8789 H   0  0  0  0  0  0  0  0  0  0  0  0
  154.7217  139.4235  160.6881 H   0  0  0  0  0  0  0  0  0  0  0  0
  155.0263  141.1081  160.3172 H   0  0  0  0  0  0  0  0  0  0  0  0
  152.9790  138.8278  155.1557 H   0  0  0  0  0  0  0  0  0  0  0  0
  1  2  1  0  0  0  0
  1 29  1  0  0  0  0
  1 30  1  0  0  0  0
  1 31  1  0  0  0  0
  2  6  1  0  0  0  0
  2  3  1  0  0  0  0
  2 32  1  0  0  0  0
  3  4  1  0  0  0  0
  4  5  1  0  0  0  0
  4 33  1  0  0  0  0
  4 34  1  0  0  0  0
  5  6  1  0  0  0  0
  5 35  1  0  0  0  0
  5 36  1  0  0  0  0
  6  7  1  0  0  0  0
  6  8  1  0  0  0  0
  7 37  1  0  0  0  0
  8  9  1  0  0  0  0
  8 38  1  0  0  0  0
  8 39  1  0  0  0  0
  9 26  1  0  0  0  0
  9 10  1  0  0  0  0
 10 11  2  0  0  0  0
 10 40  1  0  0  0  0
 11 12  1  0  0  0  0
 12 26  2  0  0  0  0
 12 13  1  0  0  0  0
 13 14  1  0  0  0  0
 13 23  2  0  0  0  0
 14 19  1  0  0  0  0
 14 15  1  0  0  0  0
 15 16  1  0  0  0  0
 15 41  1  0  0  0  0
 15 42  1  0  0  0  0
 16 27  1  0  0  0  0
 16 17  1  0  0  0  0
 16 18  1  0  0  0  0
 18 19  1  0  0  0  0
 18 43  1  0  0  0  0
 18 44  1  0  0  0  0
 19 28  1  0  0  0  0
 19 20  1  0  0  0  0
 20 21  1  0  0  0  0
 20 22  2  0  0  0  0
 21 45  1  0  0  0  0
 21 46  1  0  0  0  0
 23 24  1  0  0  0  0
 24 25  2  0  0  0  0
 24 47  1  0  0  0  0
 25 26  1  0  0  0  0
M  END
> <s_m_source_file>
AV-unprocessed.smi

> <i_m_source_file_index>
196

> <i_lp_mmshare_version>
43012

> <i_f3d_flags>
0

> <s_epik_input>
W0NIMl0xW0NIMl1PW0NAQEhdKFtDSDNdKVtDQEBdMShbT0hdKVtDSDJdbihbY0hdbjIpYyhjMjMpbltjSF1uYzNONFtDSDJdW0NASF0oRilbQ0gyXVtDQEhdNEMoPU8pW05IMl0=

> <s_epik_cmdline>
J2VwaWtfcHl0aG9uJywgJy1waCcsICc3LjAnLCAnLXRuJywgJzgnLCAnLW1hJywgJzIwMCcsICctbWV0YWxfYmluZGluZycsICctaW1hZScsICc8aW5maWxlLm1hZT4nLCAnLW9tYWUnLCAnPG91dGZpbGUubWFlPic=

> <r_lp_tautomer_probability>
1

> <r_epik_Ionization_Penalty>
0.000857933

> <r_epik_Ionization_Penalty_Charging>
0

> <r_epik_Ionization_Penalty_Neutral>
0.000857933

> <r_epik_State_Penalty>
0.000462053

> <r_epik_Charging_Adjusted_Penalty>
0.000462053

> <i_epik_Tot_Q>
0

> <i_epik_Tot_abs_Q>
0

> <r_epik_Metal_State_Penalty>
-0

> <b_epik_Metal_Only>
0

> <s_lp_Force_Field>
OPLS_2005

> <r_lp_Energy>
42.3005

> <b_lp_Chiralities_Consistent>
1

> <s_lp_Variant>
AV-unprocessed.smi:196-1

> <Gold.Version>
5.8.1

> <Gold.Id.Protein>
6NUR|6NUR_protein|mol2

> <Gold.PLP.Fitness>
51.6514

> <Gold.PLP.PLP>
-44.6666

> <Gold.PLP.part.hbond>
-3.0000

> <Gold.PLP.part.metal>
0.0000

> <Gold.PLP.part.buried>
0.0777

> <Gold.PLP.part.nonpolar>
-44.2110

> <Gold.PLP.part.repulsive>
2.9989

> <Gold.PLP.ligand.clash>
0.0000

> <Gold.PLP.ligand.torsion>
0.1577

> <Gold.PLP.Chemscore.Hbond>
2.3424

> <Gold.PLP.Chemscore.CHOScore>
0.0000

> <Gold.PLP.Chemscore.Metal>
0.0000

> <Gold.Chemscore.Hbonds>
donor molecule, donor type, donor heavy atom, donor atom, acceptor molecule, acceptor atom, score
      L1  H     7    37       P1 10175  1.00
      P1  H  7989  7998       L1    25  0.35
      P1  H  7997  8008       L1    23  0.94

> <Gold.PLP.Chemscore.Internal.Correction>
0.2731

> <Gold.Rescore>
     Score         DG    S(hbond)    S(metal)    S(lipo)     H(rot)  DE(clash)    DE(int)     intcor
      7.43     -13.95       1.59        0.00      83.78       2.60       2.85       3.66       ----

> <Gold.Chemscore.Fitness>
7.4344

> <Gold.Chemscore.DG>
-13.9459

> <Gold.Chemscore.ZeroCoef>
-5.4800

> <Gold.Chemscore.Hbond>
1.5904

> <Gold.Chemscore.Metal>
0.0000

> <Gold.Chemscore.Lipo>
83.7763

> <Gold.Chemscore.Internal_Hbond>
0.0000

> <Gold.Chemscore.DEClash>
2.8487

> <Gold.Chemscore.DEInternal>
3.6629

> <Gold.Chemscore.Rot>
2.5968

> <Gold.Chemscore.Internal.Correction>
   9.000000E+99

> <Gold.Chemscore.Hbonds>
donor molecule, donor type, donor heavy atom, donor atom, acceptor molecule, acceptor atom, score
      L1  H     7    37       P1 10175  0.95
      P1  H  7997  8008       L1    23  0.19

> <Gold.Chemscore.Hbond.Weighted>
-5.3118

> <Gold.Chemscore.Metal.Weighted>
-0.0000

> <Gold.Chemscore.Lipo.Weighted>
-9.8018

> <Gold.Chemscore.Internal_Hbond.Weighted>
0.0000

> <Gold.Chemscore.DEClash.Weighted>
2.8487

> <Gold.Chemscore.DEInternal.Weighted>
3.6629

> <Gold.Chemscore.Rot.Weighted>
6.6477

> <Gold.Chemscore.Internal.Correction.Weighted>
   9.000000E+99

> <Gold.Protein.RotatedTorsions>
[ 6907 6896 6895 6894 ] final   92.63 input  -60.11 | X-H torsion
[ 7974 7965 7964 7962 ] final  -64.14 input  175.53 | X-H torsion
[ 8008 7997 7996 7995 ] final  -61.96 input   59.86 | X-H torsion
[ 10167 10162 10161 10158 ] final    1.82 input  -65.29 | X-H torsion
[ 10718 10713 10712 10709 ] final  176.74 input   66.30 | X-H torsion
[ 10763 10752 10751 10750 ] final  173.31 input  -60.55 | X-H torsion
[ 11005 11000 10999 10996 ] final   86.21 input  -57.11 | X-H torsion

> <Gold.Protein.ActiveResidues>
 VAL166  LYS551  ARG553  GLY616  TRP617  ASP618  TYR619  PRO620  LYS621  CYS622 
 ASP623  PHE694  ASN695  SER759  ASP760  ASP761  ALA762  ILE779  LEU786  VAL792 
 PHE793  MET794  SER795  GLU796  ALA797  LYS798  CYS799  TRP800  GLU811  SER814 

> <Gold.Protein.RotatedAtoms>
  152.5453  134.1472  159.8503 H   0  0  0  0  0  0  0  0  0  0  0  0  # atno 6907 bound_to 6896
  151.1503  133.4905  159.2603 H   0  0  0  0  0  0  0  0  0  0  0  0  # atno 6908 bound_to 6896
  151.1480  135.0223  159.8710 H   0  0  0  0  0  0  0  0  0  0  0  0  # atno 6909 bound_to 6896
  145.7704  140.8816  143.0383 H   0  0  0  0  0  0  0  0  0  0  0  0  # atno 7974 bound_to 7965
  154.4474  140.1006  156.6512 H   0  0  0  0  0  0  0  0  0  0  0  0  # atno 8008 bound_to 7997
  155.5395  140.3483  155.4425 H   0  0  0  0  0  0  0  0  0  0  0  0  # atno 8009 bound_to 7997
  156.0607  140.1325  156.9933 H   0  0  0  0  0  0  0  0  0  0  0  0  # atno 8010 bound_to 7997
  140.6665  143.7166  150.7836 H   0  0  0  0  0  0  0  0  0  0  0  0  # atno 10167 bound_to 10162
  156.9157  130.9924  151.3013 H   0  0  0  0  0  0  0  0  0  0  0  0  # atno 10718 bound_to 10713
  154.4383  135.2761  155.1865 H   0  0  0  0  0  0  0  0  0  0  0  0  # atno 10763 bound_to 10752
  154.3742  135.6102  153.5760 H   0  0  0  0  0  0  0  0  0  0  0  0  # atno 10764 bound_to 10752
  152.9839  135.5864  154.4706 H   0  0  0  0  0  0  0  0  0  0  0  0  # atno 10765 bound_to 10752
  139.8950  134.8340  156.2689 H   0  0  0  0  0  0  0  0  0  0  0  0  # atno 11005 bound_to 11000
  144.6814  139.9847  143.7484 LP  0  0  0  0  0  0  0  0  0  0  0  0  # atno 17320 bound_to 7965
  146.0176  139.3223  143.0832 LP  0  0  0  0  0  0  0  0  0  0  0  0  # atno 17321 bound_to 7965
  140.0844  143.4937  152.2512 LP  0  0  0  0  0  0  0  0  0  0  0  0  # atno 17342 bound_to 10162
  139.5915  144.7552  151.3389 LP  0  0  0  0  0  0  0  0  0  0  0  0  # atno 17343 bound_to 10162
  157.5939  130.8464  149.8700 LP  0  0  0  0  0  0  0  0  0  0  0  0  # atno 17370 bound_to 10713
  156.0515  130.3717  150.1191 LP  0  0  0  0  0  0  0  0  0  0  0  0  # atno 17371 bound_to 10713
  141.0114  133.7093  156.1117 LP  0  0  0  0  0  0  0  0  0  0  0  0  # atno 17394 bound_to 11000
  140.7362  134.4200  157.5560 LP  0  0  0  0  0  0  0  0  0  0  0  0  # atno 17395 bound_to 11000

$$$$
