AV-unprocessed.smi:3068|AV-procd|sdf|11704|dock8
  -GOLD-   2272017103D 1   1.00000     0.00000
 Structure written by MMmdl.
 40 42  0  0  0  0  0  0  0  0  2 V2000
  152.0724  137.2621  154.9563 N   0  0  0  0  0  0  0  0  0  0  0  0
  151.7528  138.3140  155.3178 C   0  0  0  0  0  0  0  0  0  0  0  0
  151.3510  139.6394  155.7713 C   0  0  0  0  0  0  0  0  0  0  0  0
  151.9867  140.1280  156.8612 N   0  0  0  0  0  0  0  0  0  0  0  0
  151.6202  141.3533  157.2935 C   0  0  0  0  0  0  0  0  0  0  0  0
  150.6176  142.0965  156.6405 C   0  0  0  0  0  0  0  0  0  0  0  0
  149.9780  141.6173  155.5522 N   0  0  0  0  0  0  0  0  0  0  0  0
  150.3368  140.3868  155.1080 C   0  0  0  0  0  0  0  0  0  0  0  0
  149.6767  139.8752  153.9768 N   0  0  0  0  0  0  0  0  0  0  0  0
  148.9164  138.6354  154.0469 C   0  0  0  0  0  0  0  0  0  0  0  0
  147.4095  138.9058  154.2277 C   0  0  2  0  0  0  0  0  0  0  0  0
  146.5868  137.6211  154.4404 C   0  0  0  0  0  0  0  0  0  0  0  0
  146.4878  136.8297  153.1913 N   0  3  1  0  0  0  0  0  0  0  0  0
  145.7289  135.5679  153.3866 C   0  0  0  0  0  0  0  0  0  0  0  0
  145.7135  134.7237  152.1025 C   0  0  0  0  0  0  0  0  0  0  0  0
  145.1451  135.5295  150.9280 C   0  0  0  0  0  0  0  0  0  0  0  0
  145.9306  136.8369  150.7620 C   0  0  0  0  0  0  0  0  0  0  0  0
  145.9526  137.6509  152.0716 C   0  0  2  0  0  0  0  0  0  0  0  0
  146.7893  138.9343  151.9102 C   0  0  0  0  0  0  0  0  0  0  0  0
  146.8522  139.6462  153.1413 O   0  0  0  0  0  0  0  0  0  0  0  0
  152.1280  141.7415  158.1639 H   0  0  0  0  0  0  0  0  0  0  0  0
  150.3280  143.0757  156.9919 H   0  0  0  0  0  0  0  0  0  0  0  0
  149.8204  140.3080  153.0751 H   0  0  0  0  0  0  0  0  0  0  0  0
  149.1022  138.0327  153.1580 H   0  0  0  0  0  0  0  0  0  0  0  0
  149.2845  138.0580  154.8960 H   0  0  0  0  0  0  0  0  0  0  0  0
  147.2920  139.5234  155.1190 H   0  0  0  0  0  0  0  0  0  0  0  0
  147.0335  137.0162  155.2305 H   0  0  0  0  0  0  0  0  0  0  0  0
  145.5820  137.8838  154.7751 H   0  0  0  0  0  0  0  0  0  0  0  0
  146.1804  134.9919  154.1952 H   0  0  0  0  0  0  0  0  0  0  0  0
  144.7075  135.7993  153.6941 H   0  0  0  0  0  0  0  0  0  0  0  0
  146.7262  134.3933  151.8671 H   0  0  0  0  0  0  0  0  0  0  0  0
  145.1207  133.8216  152.2566 H   0  0  0  0  0  0  0  0  0  0  0  0
  145.1914  134.9424  150.0101 H   0  0  0  0  0  0  0  0  0  0  0  0
  144.0917  135.7504  151.1054 H   0  0  0  0  0  0  0  0  0  0  0  0
  146.9513  136.6082  150.4517 H   0  0  0  0  0  0  0  0  0  0  0  0
  145.4902  137.4301  149.9600 H   0  0  0  0  0  0  0  0  0  0  0  0
  144.9294  137.9374  152.3225 H   0  0  0  0  0  0  0  0  0  0  0  0
  147.7922  138.7103  151.5459 H   0  0  0  0  0  0  0  0  0  0  0  0
  146.3328  139.5847  151.1636 H   0  0  0  0  0  0  0  0  0  0  0  0
  147.4292  136.5670  152.9359 H   0  0  0  0  0  0  0  0  0  0  0  0
  1  2  3  0  0  0  0
  2  3  1  0  0  0  0
  3  8  1  0  0  0  0
  3  4  2  0  0  0  0
  4  5  1  0  0  0  0
  5  6  2  0  0  0  0
  5 21  1  0  0  0  0
  6  7  1  0  0  0  0
  6 22  1  0  0  0  0
  7  8  2  0  0  0  0
  8  9  1  0  0  0  0
  9 10  1  0  0  0  0
  9 23  1  0  0  0  0
 10 11  1  0  0  0  0
 10 24  1  0  0  0  0
 10 25  1  0  0  0  0
 11 20  1  0  0  0  0
 11 12  1  0  0  0  0
 11 26  1  0  0  0  0
 12 13  1  0  0  0  0
 12 27  1  0  0  0  0
 12 28  1  0  0  0  0
 13 18  1  0  0  0  0
 13 14  1  0  0  0  0
 13 40  1  0  0  0  0
 14 15  1  0  0  0  0
 14 29  1  0  0  0  0
 14 30  1  0  0  0  0
 15 16  1  0  0  0  0
 15 31  1  0  0  0  0
 15 32  1  0  0  0  0
 16 17  1  0  0  0  0
 16 33  1  0  0  0  0
 16 34  1  0  0  0  0
 17 18  1  0  0  0  0
 17 35  1  0  0  0  0
 17 36  1  0  0  0  0
 18 19  1  0  0  0  0
 18 37  1  0  0  0  0
 19 20  1  0  0  0  0
 19 38  1  0  0  0  0
 19 39  1  0  0  0  0
M  CHG  1  13   1
M  END
> <s_m_source_file>
AV-unprocessed.smi

> <i_m_source_file_index>
3068

> <i_lp_mmshare_version>
43012

> <i_f3d_flags>
0

> <s_epik_input>
TiNDYzFuW2NIXVtjSF1uYzFbTkhdW0NIMl1bQ0BIXShbQ0gyXTIpT1tDSDJdW0NAQEhdKE4yMylbQ0gyXVtDSDJdW0NIMl1bQ0gyXTM=

> <s_epik_cmdline>
J2VwaWtfcHl0aG9uJywgJy1waCcsICc3LjAnLCAnLXRuJywgJzgnLCAnLW1hJywgJzIwMCcsICctbWV0YWxfYmluZGluZycsICctaW1hZScsICc8aW5maWxlLm1hZT4nLCAnLW9tYWUnLCAnPG91dGZpbGUubWFlPic=

> <r_epik_Ionization_Penalty>
0.0804321

> <r_epik_Ionization_Penalty_Charging>
0.0803403

> <r_epik_Ionization_Penalty_Neutral>
9.17277e-05

> <r_epik_State_Penalty>
0.0711481

> <r_epik_Charging_Adjusted_Penalty>
0.151488

> <i_epik_Tot_Q>
1

> <i_epik_Tot_abs_Q>
1

> <r_epik_Metal_State_Penalty>
0.0711481

> <b_epik_Metal_Only>
0

> <s_lp_Force_Field>
OPLS_2005

> <r_lp_Energy>
40.024

> <b_lp_Chiralities_Consistent>
1

> <s_lp_Variant>
AV-unprocessed.smi:3068-7

> <Gold.Version>
5.8.1

> <Gold.Id.Protein>
6NUR|6NUR_protein|mol2

> <Gold.PLP.Fitness>
43.4188

> <Gold.PLP.PLP>
-30.8879

> <Gold.PLP.part.hbond>
-3.0000

> <Gold.PLP.part.metal>
0.0000

> <Gold.PLP.part.buried>
0.5552

> <Gold.PLP.part.nonpolar>
-29.6937

> <Gold.PLP.part.repulsive>
0.8244

> <Gold.PLP.ligand.clash>
0.0000

> <Gold.PLP.ligand.torsion>
0.7286

> <Gold.PLP.Chemscore.Hbond>
3.7600

> <Gold.PLP.Chemscore.CHOScore>
0.9006

> <Gold.PLP.Chemscore.Metal>
0.0000

> <Gold.Chemscore.Hbonds>
donor molecule, donor type, donor heavy atom, donor atom, acceptor molecule, acceptor atom, score
      L1  H     9    23       P1  7957  0.88
      L1  H    13    40       P1  7948  2.00
      P1  H 10752 10765       L1     1  0.88
      L1  C     6    22       P1  8028  0.85

> <Gold.PLP.Chemscore.Internal.Correction>
0.0062

> <Gold.Rescore>
     Score         DG    S(hbond)    S(metal)    S(lipo)     H(rot)  DE(clash)    DE(int)     intcor
     18.28     -19.48       2.80        0.00      68.57       1.32       0.49       0.72       ----

> <Gold.Chemscore.Fitness>
18.2755

> <Gold.Chemscore.DG>
-19.4828

> <Gold.Chemscore.ZeroCoef>
-5.4800

> <Gold.Chemscore.Hbond>
2.8016

> <Gold.Chemscore.Metal>
0.0000

> <Gold.Chemscore.Lipo>
68.5721

> <Gold.Chemscore.Internal_Hbond>
0.0000

> <Gold.Chemscore.DEClash>
0.4883

> <Gold.Chemscore.DEInternal>
0.7191

> <Gold.Chemscore.Rot>
1.3193

> <Gold.Chemscore.Internal.Correction>
   9.000000E+99

> <Gold.Chemscore.Hbonds>
donor molecule, donor type, donor heavy atom, donor atom, acceptor molecule, acceptor atom, score
      L1  H     9    23       P1  7957  0.86
      L1  H    13    40       P1  7948  0.99
      P1  H 10752 10765       L1     1  0.86

> <Gold.Chemscore.Hbond.Weighted>
-9.3572

> <Gold.Chemscore.Metal.Weighted>
-0.0000

> <Gold.Chemscore.Lipo.Weighted>
-8.0229

> <Gold.Chemscore.Internal_Hbond.Weighted>
0.0000

> <Gold.Chemscore.DEClash.Weighted>
0.4883

> <Gold.Chemscore.DEInternal.Weighted>
0.7191

> <Gold.Chemscore.Rot.Weighted>
3.3774

> <Gold.Chemscore.Internal.Correction.Weighted>
   9.000000E+99

> <Gold.Protein.RotatedTorsions>
[ 6907 6896 6895 6894 ] final -107.93 input  -60.11 | X-H torsion
[ 7974 7965 7964 7962 ] final   35.93 input  175.53 | X-H torsion
[ 8008 7997 7996 7995 ] final   38.25 input   59.86 | X-H torsion
[ 10167 10162 10161 10158 ] final  -48.30 input  -65.29 | X-H torsion
[ 10718 10713 10712 10709 ] final  119.54 input   66.30 | X-H torsion
[ 10763 10752 10751 10750 ] final  176.85 input  -60.55 | X-H torsion
[ 11005 11000 10999 10996 ] final  155.90 input  -57.11 | X-H torsion

> <Gold.Protein.ActiveResidues>
 VAL166  LYS551  ARG553  GLY616  TRP617  ASP618  TYR619  PRO620  LYS621  CYS622 
 ASP623  PHE694  ASN695  SER759  ASP760  ASP761  ALA762  ILE779  LEU786  VAL792 
 PHE793  MET794  SER795  GLU796  ALA797  LYS798  CYS799  TRP800  GLU811  SER814 

> <Gold.Protein.RotatedAtoms>
  150.7472  133.9753  159.3558 H   0  0  0  0  0  0  0  0  0  0  0  0  # atno 6907 bound_to 6896
  151.7690  135.0789  160.0366 H   0  0  0  0  0  0  0  0  0  0  0  0  # atno 6908 bound_to 6896
  152.3352  133.5966  159.5873 H   0  0  0  0  0  0  0  0  0  0  0  0  # atno 6909 bound_to 6896
  146.1248  139.6080  142.9266 H   0  0  0  0  0  0  0  0  0  0  0  0  # atno 7974 bound_to 7965
  155.2171  140.3328  155.4320 H   0  0  0  0  0  0  0  0  0  0  0  0  # atno 8008 bound_to 7997
  156.2348  140.1867  156.7196 H   0  0  0  0  0  0  0  0  0  0  0  0  # atno 8009 bound_to 7997
  154.6040  140.0619  156.9391 H   0  0  0  0  0  0  0  0  0  0  0  0  # atno 8010 bound_to 7997
  140.6737  143.2746  151.4051 H   0  0  0  0  0  0  0  0  0  0  0  0  # atno 10167 bound_to 10162
  157.5954  131.1058  150.7911 H   0  0  0  0  0  0  0  0  0  0  0  0  # atno 10718 bound_to 10713
  154.4866  135.2777  155.1529 H   0  0  0  0  0  0  0  0  0  0  0  0  # atno 10763 bound_to 10752
  154.3218  135.6208  153.5515 H   0  0  0  0  0  0  0  0  0  0  0  0  # atno 10764 bound_to 10752
  152.9882  135.5744  154.5278 H   0  0  0  0  0  0  0  0  0  0  0  0  # atno 10765 bound_to 10752
  140.1624  134.8600  157.2591 H   0  0  0  0  0  0  0  0  0  0  0  0  # atno 11005 bound_to 11000
  145.5390  141.0422  143.2341 LP  0  0  0  0  0  0  0  0  0  0  0  0  # atno 17320 bound_to 7965
  144.7631  139.6909  143.7226 LP  0  0  0  0  0  0  0  0  0  0  0  0  # atno 17321 bound_to 7965
  139.6018  144.1280  152.2206 LP  0  0  0  0  0  0  0  0  0  0  0  0  # atno 17342 bound_to 10162
  140.0667  144.5813  150.7222 LP  0  0  0  0  0  0  0  0  0  0  0  0  # atno 17343 bound_to 10162
  156.8322  130.5020  149.5330 LP  0  0  0  0  0  0  0  0  0  0  0  0  # atno 17370 bound_to 10713
  156.1016  130.5973  150.9903 LP  0  0  0  0  0  0  0  0  0  0  0  0  # atno 17371 bound_to 10713
  140.2474  134.3724  155.7456 LP  0  0  0  0  0  0  0  0  0  0  0  0  # atno 17394 bound_to 11000
  141.2210  133.7298  156.8882 LP  0  0  0  0  0  0  0  0  0  0  0  0  # atno 17395 bound_to 11000

$$$$
