AV-unprocessed.smi:3028|AV-procd|sdf|11518|dock5
  -GOLD-   2272016453D 1   1.00000     0.00000
 Structure written by MMmdl.
 48 49  0  0  0  0  0  0  0  0  2 V2000
  145.6621  129.8646  152.4327 C   0  0  0  0  0  0  0  0  0  0  0  0
  146.0127  131.3244  152.4379 C   0  0  0  0  0  0  0  0  0  0  0  0
  147.0310  131.9777  153.1881 C   0  0  0  0  0  0  0  0  0  0  0  0
  147.0807  133.2795  152.9595 N   0  0  0  0  0  0  0  0  0  0  0  0
  146.0990  133.5058  152.0583 N   0  0  0  0  0  0  0  0  0  0  0  0
  145.8615  134.8523  151.5500 C   0  0  1  0  0  0  0  0  0  0  0  0
  144.6744  134.8376  150.5682 C   0  0  0  0  0  0  0  0  0  0  0  0
  145.6884  135.8720  152.7080 C   0  0  2  0  0  0  0  0  0  0  0  0
  145.1952  137.2468  152.2276 C   0  0  0  0  0  0  0  0  0  0  0  0
  146.9710  136.0543  153.4264 N   0  3  0  0  0  0  0  0  0  0  0  0
  146.9010  136.9229  154.6203 C   0  0  0  0  0  0  0  0  0  0  0  0
  148.2533  137.5672  154.9510 C   0  0  0  0  0  0  0  0  0  0  0  0
  148.7685  137.3832  156.0527 O   0  0  0  0  0  0  0  0  0  0  0  0
  148.8623  138.3307  154.0281 N   0  0  0  0  0  0  0  0  0  0  0  0
  150.1418  139.0310  154.1353 C   0  0  0  0  0  0  0  0  0  0  0  0
  151.2750  138.0195  154.3644 C   0  0  0  0  0  0  0  0  0  0  0  0
  152.5985  138.7443  154.6592 C   0  0  0  0  0  0  0  0  0  0  0  0
  152.4409  139.6104  155.7779 O   0  0  0  0  0  0  0  0  0  0  0  0
  151.4835  140.6396  155.5526 C   0  0  0  0  0  0  0  0  0  0  0  0
  150.0963  140.0237  155.3069 C   0  0  0  0  0  0  0  0  0  0  0  0
  145.4356  132.3413  151.7318 C   0  0  0  0  0  0  0  0  0  0  0  0
  146.3397  129.2816  153.0570 H   0  0  0  0  0  0  0  0  0  0  0  0
  145.7092  129.4435  151.4283 H   0  0  0  0  0  0  0  0  0  0  0  0
  144.6529  129.6927  152.8071 H   0  0  0  0  0  0  0  0  0  0  0  0
  147.7333  131.5465  153.8863 H   0  0  0  0  0  0  0  0  0  0  0  0
  146.7491  135.1354  150.9816 H   0  0  0  0  0  0  0  0  0  0  0  0
  144.5763  135.7851  150.0391 H   0  0  0  0  0  0  0  0  0  0  0  0
  143.7323  134.6421  151.0814 H   0  0  0  0  0  0  0  0  0  0  0  0
  144.8052  134.0639  149.8106 H   0  0  0  0  0  0  0  0  0  0  0  0
  144.9420  135.4835  153.4034 H   0  0  0  0  0  0  0  0  0  0  0  0
  144.1980  137.1888  151.7922 H   0  0  0  0  0  0  0  0  0  0  0  0
  145.8644  137.6718  151.4786 H   0  0  0  0  0  0  0  0  0  0  0  0
  145.1365  137.9511  153.0582 H   0  0  0  0  0  0  0  0  0  0  0  0
  147.3000  135.1461  153.7219 H   0  0  0  0  0  0  0  0  0  0  0  0
  146.1580  137.7033  154.4503 H   0  0  0  0  0  0  0  0  0  0  0  0
  146.5757  136.3281  155.4740 H   0  0  0  0  0  0  0  0  0  0  0  0
  148.3822  138.4369  153.1456 H   0  0  0  0  0  0  0  0  0  0  0  0
  150.3738  139.5919  153.2306 H   0  0  0  0  0  0  0  0  0  0  0  0
  151.0298  137.3689  155.2053 H   0  0  0  0  0  0  0  0  0  0  0  0
  151.3885  137.3743  153.4923 H   0  0  0  0  0  0  0  0  0  0  0  0
  153.3804  138.0188  154.8836 H   0  0  0  0  0  0  0  0  0  0  0  0
  152.9325  139.3130  153.7900 H   0  0  0  0  0  0  0  0  0  0  0  0
  151.4545  141.2898  156.4270 H   0  0  0  0  0  0  0  0  0  0  0  0
  151.7900  141.2572  154.7071 H   0  0  0  0  0  0  0  0  0  0  0  0
  149.3678  140.8109  155.1086 H   0  0  0  0  0  0  0  0  0  0  0  0
  149.7670  139.5147  156.2142 H   0  0  0  0  0  0  0  0  0  0  0  0
  144.6175  132.3301  151.0265 H   0  0  0  0  0  0  0  0  0  0  0  0
  147.6497  136.4442  152.7882 H   0  0  0  0  0  0  0  0  0  0  0  0
  1  2  1  0  0  0  0
  1 22  1  0  0  0  0
  1 23  1  0  0  0  0
  1 24  1  0  0  0  0
  2 21  2  0  0  0  0
  2  3  1  0  0  0  0
  3  4  2  0  0  0  0
  3 25  1  0  0  0  0
  4  5  1  0  0  0  0
  5  6  1  0  0  0  0
  5 21  1  0  0  0  0
  6  7  1  0  0  0  0
  6  8  1  0  0  0  0
  6 26  1  0  0  0  0
  7 27  1  0  0  0  0
  7 28  1  0  0  0  0
  7 29  1  0  0  0  0
  8  9  1  0  0  0  0
  8 10  1  0  0  0  0
  8 30  1  0  0  0  0
  9 31  1  0  0  0  0
  9 32  1  0  0  0  0
  9 33  1  0  0  0  0
 10 11  1  0  0  0  0
 10 34  1  0  0  0  0
 10 48  1  0  0  0  0
 11 12  1  0  0  0  0
 11 35  1  0  0  0  0
 11 36  1  0  0  0  0
 12 13  2  0  0  0  0
 12 14  1  0  0  0  0
 14 15  1  0  0  0  0
 14 37  1  0  0  0  0
 15 20  1  0  0  0  0
 15 16  1  0  0  0  0
 15 38  1  0  0  0  0
 16 17  1  0  0  0  0
 16 39  1  0  0  0  0
 16 40  1  0  0  0  0
 17 18  1  0  0  0  0
 17 41  1  0  0  0  0
 17 42  1  0  0  0  0
 18 19  1  0  0  0  0
 19 20  1  0  0  0  0
 19 43  1  0  0  0  0
 19 44  1  0  0  0  0
 20 45  1  0  0  0  0
 20 46  1  0  0  0  0
 21 47  1  0  0  0  0
M  CHG  1  10   1
M  END
> <s_m_source_file>
AV-unprocessed.smi

> <i_m_source_file_index>
3028

> <i_lp_mmshare_version>
43012

> <i_f3d_flags>
0

> <s_epik_input>
W0NIM11jMVtjSF1ubihbY0hdMSlbQ0BIXShbQ0gzXSlbQ0BIXShbQ0gzXSlbTkhdW0NIMl1DKD1PKVtOSF1bQ0hdMltDSDJdW0NIMl1PW0NIMl1bQ0gyXTI=

> <s_epik_cmdline>
J2VwaWtfcHl0aG9uJywgJy1waCcsICc3LjAnLCAnLXRuJywgJzgnLCAnLW1hJywgJzIwMCcsICctbWV0YWxfYmluZGluZycsICctaW1hZScsICc8aW5maWxlLm1hZT4nLCAnLW9tYWUnLCAnPG91dGZpbGUubWFlPic=

> <r_lp_tautomer_probability>
1

> <r_epik_Ionization_Penalty>
0.151514

> <r_epik_Ionization_Penalty_Charging>
0.151494

> <r_epik_Ionization_Penalty_Neutral>
1.95502e-05

> <r_epik_State_Penalty>
0.141395

> <r_epik_Charging_Adjusted_Penalty>
0.292889

> <i_epik_Tot_Q>
1

> <i_epik_Tot_abs_Q>
1

> <r_epik_Metal_State_Penalty>
0.141632

> <b_epik_Metal_Only>
0

> <s_lp_Force_Field>
OPLS_2005

> <r_lp_Energy>
16.7547

> <b_lp_Chiralities_Consistent>
1

> <s_lp_Variant>
AV-unprocessed.smi:3028-2

> <Gold.Version>
5.8.1

> <Gold.Id.Protein>
6NUR|6NUR_protein|mol2

> <Gold.PLP.Fitness>
45.5869

> <Gold.PLP.PLP>
-37.4896

> <Gold.PLP.part.hbond>
-2.7107

> <Gold.PLP.part.metal>
0.0000

> <Gold.PLP.part.buried>
-4.3956

> <Gold.PLP.part.nonpolar>
-31.3678

> <Gold.PLP.part.repulsive>
0.1856

> <Gold.PLP.ligand.clash>
0.0000

> <Gold.PLP.ligand.torsion>
0.3502

> <Gold.PLP.Chemscore.Hbond>
2.8880

> <Gold.PLP.Chemscore.CHOScore>
0.0000

> <Gold.PLP.Chemscore.Metal>
0.0000

> <Gold.Chemscore.Hbonds>
donor molecule, donor type, donor heavy atom, donor atom, acceptor molecule, acceptor atom, score
      L1  H    10    48       P1  7948  1.95
      P1  H  7997  8008       L1    18  0.98

> <Gold.PLP.Chemscore.Internal.Correction>
0.1336

> <Gold.Rescore>
     Score         DG    S(hbond)    S(metal)    S(lipo)     H(rot)  DE(clash)    DE(int)     intcor
     14.64     -15.88       1.55        0.00      88.20       1.99       0.03       1.21       ----

> <Gold.Chemscore.Fitness>
14.6386

> <Gold.Chemscore.DG>
-15.8806

> <Gold.Chemscore.ZeroCoef>
-5.4800

> <Gold.Chemscore.Hbond>
1.5493

> <Gold.Chemscore.Metal>
0.0000

> <Gold.Chemscore.Lipo>
88.2014

> <Gold.Chemscore.Internal_Hbond>
0.0000

> <Gold.Chemscore.DEClash>
0.0298

> <Gold.Chemscore.DEInternal>
1.2121

> <Gold.Chemscore.Rot>
1.9897

> <Gold.Chemscore.Internal.Correction>
   9.000000E+99

> <Gold.Chemscore.Hbonds>
donor molecule, donor type, donor heavy atom, donor atom, acceptor molecule, acceptor atom, score
      L1  H    10    48       P1  7948  0.92
      P1  H  7997  8008       L1    18  0.45

> <Gold.Chemscore.Hbond.Weighted>
-5.1746

> <Gold.Chemscore.Metal.Weighted>
-0.0000

> <Gold.Chemscore.Lipo.Weighted>
-10.3196

> <Gold.Chemscore.Internal_Hbond.Weighted>
0.0000

> <Gold.Chemscore.DEClash.Weighted>
0.0298

> <Gold.Chemscore.DEInternal.Weighted>
1.2121

> <Gold.Chemscore.Rot.Weighted>
5.0936

> <Gold.Chemscore.Internal.Correction.Weighted>
   9.000000E+99

> <Gold.Protein.RotatedTorsions>
[ 6907 6896 6895 6894 ] final   49.74 input  -60.11 | X-H torsion
[ 7974 7965 7964 7962 ] final  151.17 input  175.53 | X-H torsion
[ 8008 7997 7996 7995 ] final  -42.67 input   59.86 | X-H torsion
[ 10167 10162 10161 10158 ] final -174.15 input  -65.29 | X-H torsion
[ 10718 10713 10712 10709 ] final -131.87 input   66.30 | X-H torsion
[ 10763 10752 10751 10750 ] final  120.50 input  -60.55 | X-H torsion
[ 11005 11000 10999 10996 ] final  118.17 input  -57.11 | X-H torsion

> <Gold.Protein.ActiveResidues>
 VAL166  LYS551  ARG553  GLY616  TRP617  ASP618  TYR619  PRO620  LYS621  CYS622 
 ASP623  PHE694  ASN695  SER759  ASP760  ASP761  ALA762  ILE779  LEU786  VAL792 
 PHE793  MET794  SER795  GLU796  ALA797  LYS798  CYS799  TRP800  GLU811  SER814 

> <Gold.Protein.RotatedAtoms>
  152.2941  134.7687  160.0371 H   0  0  0  0  0  0  0  0  0  0  0  0  # atno 6907 bound_to 6896
  151.8223  133.3391  159.3596 H   0  0  0  0  0  0  0  0  0  0  0  0  # atno 6908 bound_to 6896
  150.7243  134.5491  159.5830 H   0  0  0  0  0  0  0  0  0  0  0  0  # atno 6909 bound_to 6896
  144.8311  139.6503  143.6058 H   0  0  0  0  0  0  0  0  0  0  0  0  # atno 7974 bound_to 7965
  154.3998  140.1467  156.3393 H   0  0  0  0  0  0  0  0  0  0  0  0  # atno 8008 bound_to 7997
  155.8371  140.3463  155.5587 H   0  0  0  0  0  0  0  0  0  0  0  0  # atno 8009 bound_to 7997
  155.8126  140.0886  157.1885 H   0  0  0  0  0  0  0  0  0  0  0  0  # atno 8010 bound_to 7997
  139.5649  144.1779  152.1297 H   0  0  0  0  0  0  0  0  0  0  0  0  # atno 10167 bound_to 10162
  156.2288  130.7024  151.0836 H   0  0  0  0  0  0  0  0  0  0  0  0  # atno 10718 bound_to 10713
  153.5995  135.3450  155.2940 H   0  0  0  0  0  0  0  0  0  0  0  0  # atno 10763 bound_to 10752
  154.8638  135.4224  154.2428 H   0  0  0  0  0  0  0  0  0  0  0  0  # atno 10764 bound_to 10752
  153.3253  135.7041  153.7066 H   0  0  0  0  0  0  0  0  0  0  0  0  # atno 10765 bound_to 10752
  139.9100  134.9618  156.7463 H   0  0  0  0  0  0  0  0  0  0  0  0  # atno 11005 bound_to 11000
  146.2614  139.6419  142.9359 LP  0  0  0  0  0  0  0  0  0  0  0  0  # atno 17320 bound_to 7965
  145.4893  141.0438  143.2602 LP  0  0  0  0  0  0  0  0  0  0  0  0  # atno 17321 bound_to 7965
  140.1300  144.5297  150.6808 LP  0  0  0  0  0  0  0  0  0  0  0  0  # atno 17342 bound_to 10162
  140.6932  143.2388  151.5073 LP  0  0  0  0  0  0  0  0  0  0  0  0  # atno 17343 bound_to 10162
  157.7123  131.0728  150.6456 LP  0  0  0  0  0  0  0  0  0  0  0  0  # atno 17370 bound_to 10713
  156.6522  130.4488  149.5715 LP  0  0  0  0  0  0  0  0  0  0  0  0  # atno 17371 bound_to 10713
  140.6809  133.9475  155.7910 LP  0  0  0  0  0  0  0  0  0  0  0  0  # atno 17394 bound_to 11000
  141.0511  134.0484  157.3783 LP  0  0  0  0  0  0  0  0  0  0  0  0  # atno 17395 bound_to 11000

$$$$
