AV-unprocessed.smi:2032|AV-procd|sdf|8247|dock3
  -GOLD-   2272010513D 1   1.00000     0.00000
 Structure written by MMmdl.
 41 42  0  0  0  0  0  0  0  0  2 V2000
  153.4620  141.4836  160.6337 C   0  0  0  0  0  0  0  0  0  0  0  0
  152.4745  142.3883  159.8892 C   0  0  2  0  0  0  0  0  0  0  0  0
  151.7836  141.6570  158.7245 C   0  0  0  0  0  0  0  0  0  0  0  0
  150.8867  142.5269  157.9586 N   0  0  0  0  0  0  0  0  0  0  0  0
  150.2030  141.8130  156.8530 C   0  0  1  0  0  0  0  0  0  0  0  0
  151.1506  140.8644  156.0740 C   0  0  0  0  0  0  0  0  0  0  0  0
  148.9604  141.0059  157.3207 C   0  0  0  0  0  0  0  0  0  0  0  0
  149.3137  139.7128  157.8984 N   0  0  0  0  0  0  0  0  0  0  0  0
  148.4376  138.7900  158.3172 C   0  0  0  0  0  0  0  0  0  0  0  0
  147.2272  139.0064  158.2216 O   0  0  0  0  0  0  0  0  0  0  0  0
  149.0153  137.6741  158.8180 N   0  5  0  0  0  0  0  0  0  0  0  0
  148.3342  136.8935  159.6729 C   0  0  0  0  0  0  0  0  0  0  0  0
  147.8186  137.3448  160.8223 N   0  0  0  0  0  0  0  0  0  0  0  0
  147.1501  136.3622  161.5549 C   0  0  0  0  0  0  0  0  0  0  0  0
  147.1665  135.1312  160.9544 C   0  0  0  0  0  0  0  0  0  0  0  0
  148.0270  135.1697  159.4418 S   0  0  0  0  0  0  0  0  0  0  0  0
  151.6660  143.6801  157.4921 C   0  0  0  0  0  0  0  0  0  0  0  0
  152.4161  144.4209  158.6177 C   0  0  1  0  0  0  0  0  0  0  0  0
  151.4950  145.2751  159.5057 C   0  0  0  0  0  0  0  0  0  0  0  0
  153.1957  143.5072  159.3857 O   0  0  0  0  0  0  0  0  0  0  0  0
  152.9586  140.6101  161.0488 H   0  0  0  0  0  0  0  0  0  0  0  0
  153.9330  142.0177  161.4592 H   0  0  0  0  0  0  0  0  0  0  0  0
  154.2526  141.1314  159.9707 H   0  0  0  0  0  0  0  0  0  0  0  0
  151.7229  142.7295  160.6015 H   0  0  0  0  0  0  0  0  0  0  0  0
  152.5355  141.2265  158.0613 H   0  0  0  0  0  0  0  0  0  0  0  0
  151.2315  140.8259  159.1589 H   0  0  0  0  0  0  0  0  0  0  0  0
  149.8467  142.5596  156.1415 H   0  0  0  0  0  0  0  0  0  0  0  0
  150.6322  140.2960  155.3027 H   0  0  0  0  0  0  0  0  0  0  0  0
  151.6269  140.1469  156.7429 H   0  0  0  0  0  0  0  0  0  0  0  0
  151.9334  141.4058  155.5448 H   0  0  0  0  0  0  0  0  0  0  0  0
  148.3907  141.5858  158.0490 H   0  0  0  0  0  0  0  0  0  0  0  0
  148.2914  140.7857  156.4903 H   0  0  0  0  0  0  0  0  0  0  0  0
  150.2966  139.5022  157.9918 H   0  0  0  0  0  0  0  0  0  0  0  0
  146.6918  136.6276  162.4959 H   0  0  0  0  0  0  0  0  0  0  0  0
  146.7289  134.2097  161.3068 H   0  0  0  0  0  0  0  0  0  0  0  0
  152.3891  143.3473  156.7459 H   0  0  0  0  0  0  0  0  0  0  0  0
  151.0267  144.4111  157.0017 H   0  0  0  0  0  0  0  0  0  0  0  0
  153.1249  145.1048  158.1501 H   0  0  0  0  0  0  0  0  0  0  0  0
  151.0046  146.0523  158.9192 H   0  0  0  0  0  0  0  0  0  0  0  0
  152.0636  145.7669  160.2951 H   0  0  0  0  0  0  0  0  0  0  0  0
  150.7119  144.6814  159.9765 H   0  0  0  0  0  0  0  0  0  0  0  0
  1  2  1  0  0  0  0
  1 21  1  0  0  0  0
  1 22  1  0  0  0  0
  1 23  1  0  0  0  0
  2 20  1  0  0  0  0
  2  3  1  0  0  0  0
  2 24  1  0  0  0  0
  3  4  1  0  0  0  0
  3 25  1  0  0  0  0
  3 26  1  0  0  0  0
  4  5  1  0  0  0  0
  4 17  1  0  0  0  0
  5  6  1  0  0  0  0
  5  7  1  0  0  0  0
  5 27  1  0  0  0  0
  6 28  1  0  0  0  0
  6 29  1  0  0  0  0
  6 30  1  0  0  0  0
  7  8  1  0  0  0  0
  7 31  1  0  0  0  0
  7 32  1  0  0  0  0
  8  9  1  0  0  0  0
  8 33  1  0  0  0  0
  9 10  2  0  0  0  0
  9 11  1  0  0  0  0
 11 12  1  0  0  0  0
 12 16  1  0  0  0  0
 12 13  2  0  0  0  0
 13 14  1  0  0  0  0
 14 15  2  0  0  0  0
 14 34  1  0  0  0  0
 15 16  1  0  0  0  0
 15 35  1  0  0  0  0
 17 18  1  0  0  0  0
 17 36  1  0  0  0  0
 17 37  1  0  0  0  0
 18 19  1  0  0  0  0
 18 20  1  0  0  0  0
 18 38  1  0  0  0  0
 19 39  1  0  0  0  0
 19 40  1  0  0  0  0
 19 41  1  0  0  0  0
M  CHG  1  11  -1
M  END
> <s_m_source_file>
AV-unprocessed.smi

> <i_m_source_file_index>
2032

> <i_lp_mmshare_version>
43012

> <i_f3d_flags>
0

> <s_epik_input>
W0NIM11bQ0BASF0xW0NIMl1OKFtDSDJdW0NASF0oTzEpW0NIM10pW0NASF0oW0NIM10pW0NIMl1bTkhdQyg9TylbTkhdYzJuW2NIXVtjSF1zMg==

> <s_epik_cmdline>
J2VwaWtfcHl0aG9uJywgJy1waCcsICc3LjAnLCAnLXRuJywgJzgnLCAnLW1hJywgJzIwMCcsICctbWV0YWxfYmluZGluZycsICctaW1hZScsICc8aW5maWxlLm1hZT4nLCAnLW9tYWUnLCAnPG91dGZpbGUubWFlPic=

> <r_lp_tautomer_probability>
0.999

> <r_epik_Ionization_Penalty>
7.22375

> <r_epik_Ionization_Penalty_Charging>
5.82415

> <r_epik_Ionization_Penalty_Neutral>
1.39959

> <r_epik_State_Penalty>
6.03347

> <r_epik_Charging_Adjusted_Penalty>
11.8576

> <i_epik_Tot_Q>
-1

> <i_epik_Tot_abs_Q>
1

> <r_epik_Metal_State_Penalty>
2.01024

> <b_epik_Metal_Only>
1

> <s_lp_Force_Field>
OPLS_2005

> <r_lp_Energy>
26.6576

> <b_lp_Chiralities_Consistent>
1

> <s_lp_Variant>
AV-unprocessed.smi:2032-17

> <Gold.Version>
5.8.1

> <Gold.Id.Protein>
6NUR|6NUR_protein|mol2

> <Gold.PLP.Fitness>
42.3989

> <Gold.PLP.PLP>
-39.8383

> <Gold.PLP.part.hbond>
-3.0000

> <Gold.PLP.part.metal>
0.0000

> <Gold.PLP.part.buried>
-4.9536

> <Gold.PLP.part.nonpolar>
-32.9576

> <Gold.PLP.part.repulsive>
0.2387

> <Gold.PLP.ligand.clash>
0.0000

> <Gold.PLP.ligand.torsion>
1.1959

> <Gold.PLP.Chemscore.Hbond>
1.6000

> <Gold.PLP.Chemscore.CHOScore>
0.0000

> <Gold.PLP.Chemscore.Metal>
0.0000

> <Gold.Chemscore.Hbonds>
donor molecule, donor type, donor heavy atom, donor atom, acceptor molecule, acceptor atom, score
      P1  H  6931  6943       L1    13  0.78
      P1  H  6934  6947       L1    13  0.82

> <Gold.PLP.Chemscore.Internal.Correction>
0.1525

> <Gold.Rescore>
     Score         DG    S(hbond)    S(metal)    S(lipo)     H(rot)  DE(clash)    DE(int)     intcor
     16.92     -18.02       1.39        0.00     101.26       1.54       0.09       1.01       ----

> <Gold.Chemscore.Fitness>
16.9243

> <Gold.Chemscore.DG>
-18.0151

> <Gold.Chemscore.ZeroCoef>
-5.4800

> <Gold.Chemscore.Hbond>
1.3885

> <Gold.Chemscore.Metal>
0.0000

> <Gold.Chemscore.Lipo>
101.2645

> <Gold.Chemscore.Internal_Hbond>
0.0000

> <Gold.Chemscore.DEClash>
0.0854

> <Gold.Chemscore.DEInternal>
1.0054

> <Gold.Chemscore.Rot>
1.5431

> <Gold.Chemscore.Internal.Correction>
   9.000000E+99

> <Gold.Chemscore.Hbonds>
donor molecule, donor type, donor heavy atom, donor atom, acceptor molecule, acceptor atom, score
      P1  H  6931  6943       L1    13  0.54
      P1  H  6934  6947       L1    13  0.76

> <Gold.Chemscore.Hbond.Weighted>
-4.6374

> <Gold.Chemscore.Metal.Weighted>
-0.0000

> <Gold.Chemscore.Lipo.Weighted>
-11.8480

> <Gold.Chemscore.Internal_Hbond.Weighted>
0.0000

> <Gold.Chemscore.DEClash.Weighted>
0.0854

> <Gold.Chemscore.DEInternal.Weighted>
1.0054

> <Gold.Chemscore.Rot.Weighted>
3.9503

> <Gold.Chemscore.Internal.Correction.Weighted>
   9.000000E+99

> <Gold.Protein.RotatedTorsions>
[ 6907 6896 6895 6894 ] final  -75.53 input  -60.11 | X-H torsion
[ 7974 7965 7964 7962 ] final  166.80 input  175.53 | X-H torsion
[ 8008 7997 7996 7995 ] final    8.17 input   59.86 | X-H torsion
[ 10167 10162 10161 10158 ] final  -10.94 input  -65.29 | X-H torsion
[ 10718 10713 10712 10709 ] final  130.89 input   66.30 | X-H torsion
[ 10763 10752 10751 10750 ] final -176.41 input  -60.55 | X-H torsion
[ 11005 11000 10999 10996 ] final -134.85 input  -57.11 | X-H torsion

> <Gold.Protein.ActiveResidues>
 VAL166  LYS551  ARG553  GLY616  TRP617  ASP618  TYR619  PRO620  LYS621  CYS622 
 ASP623  PHE694  ASN695  SER759  ASP760  ASP761  ALA762  ILE779  LEU786  VAL792 
 PHE793  MET794  SER795  GLU796  ALA797  LYS798  CYS799  TRP800  GLU811  SER814 

> <Gold.Protein.RotatedAtoms>
  150.7056  134.4707  159.5423 H   0  0  0  0  0  0  0  0  0  0  0  0  # atno 6907 bound_to 6896
  152.2364  134.8269  160.0475 H   0  0  0  0  0  0  0  0  0  0  0  0  # atno 6908 bound_to 6896
  151.9066  133.3516  159.3886 H   0  0  0  0  0  0  0  0  0  0  0  0  # atno 6909 bound_to 6896
  144.7448  139.8668  143.6385 H   0  0  0  0  0  0  0  0  0  0  0  0  # atno 7974 bound_to 7965
  154.7634  140.2788  155.6196 H   0  0  0  0  0  0  0  0  0  0  0  0  # atno 8008 bound_to 7997
  156.2920  140.2655  156.2345 H   0  0  0  0  0  0  0  0  0  0  0  0  # atno 8009 bound_to 7997
  154.9990  140.0373  157.2341 H   0  0  0  0  0  0  0  0  0  0  0  0  # atno 8010 bound_to 7997
  140.7126  143.5693  150.9110 H   0  0  0  0  0  0  0  0  0  0  0  0  # atno 10167 bound_to 10162
  157.5019  131.1094  150.9414 H   0  0  0  0  0  0  0  0  0  0  0  0  # atno 10718 bound_to 10713
  154.5727  135.2829  155.0812 H   0  0  0  0  0  0  0  0  0  0  0  0  # atno 10763 bound_to 10752
  154.2178  135.6396  153.5139 H   0  0  0  0  0  0  0  0  0  0  0  0  # atno 10764 bound_to 10752
  153.0062  135.5507  154.6355 H   0  0  0  0  0  0  0  0  0  0  0  0  # atno 10765 bound_to 10752
  140.8952  134.1761  157.4500 H   0  0  0  0  0  0  0  0  0  0  0  0  # atno 11005 bound_to 11000
  146.1309  139.4344  143.0169 LP  0  0  0  0  0  0  0  0  0  0  0  0  # atno 17320 bound_to 7965
  145.7164  141.0089  143.1425 LP  0  0  0  0  0  0  0  0  0  0  0  0  # atno 17321 bound_to 7965
  139.9419  143.6372  152.3051 LP  0  0  0  0  0  0  0  0  0  0  0  0  # atno 17342 bound_to 10162
  139.6860  144.7651  151.1523 LP  0  0  0  0  0  0  0  0  0  0  0  0  # atno 17343 bound_to 10162
  157.0082  130.5626  149.5318 LP  0  0  0  0  0  0  0  0  0  0  0  0  # atno 17370 bound_to 10713
  156.0235  130.5329  150.8341 LP  0  0  0  0  0  0  0  0  0  0  0  0  # atno 17371 bound_to 10713
  139.8734  134.9875  156.5372 LP  0  0  0  0  0  0  0  0  0  0  0  0  # atno 17394 bound_to 11000
  140.8298  133.8288  155.8973 LP  0  0  0  0  0  0  0  0  0  0  0  0  # atno 17395 bound_to 11000

$$$$
