AV-unprocessed.smi:1361|AV-procd|sdf|5556|dock1
  -GOLD-   22720 5143D 1   1.00000     0.00000
 Structure written by MMmdl.
 46 47  0  0  0  0  0  0  0  0  1 V2000
  144.3860  142.2364  158.6124 C   0  0  0  0  0  0  0  0  0  0  0  0
  145.5844  142.0082  157.7170 C   0  0  0  0  0  0  0  0  0  0  0  0
  145.4661  142.5954  156.4681 N   0  0  0  0  0  0  0  0  0  0  0  0
  146.5195  142.4517  155.5825 C   0  0  0  0  0  0  0  0  0  0  0  0
  146.3138  143.1366  154.2424 C   0  0  0  0  0  0  0  0  0  0  0  0
  147.6311  141.7500  155.9212 C   0  0  0  0  0  0  0  0  0  0  0  0
  148.8188  141.5767  154.9772 C   0  0  0  0  0  0  0  0  0  0  0  0
  150.1948  141.5999  155.6444 C   0  0  0  0  0  0  0  0  0  0  0  0
  150.9757  140.6637  155.4761 O   0  0  0  0  0  0  0  0  0  0  0  0
  150.4767  142.6754  156.3959 N   0  0  0  0  0  0  0  0  0  0  0  0
  151.7205  142.9040  157.1278 C   0  0  0  0  0  0  0  0  0  0  0  0
  151.6823  142.1348  158.4675 C   0  0  0  0  0  0  0  0  0  0  0  0
  152.8174  142.4878  159.4466 C   0  0  0  0  0  0  0  0  0  0  0  0
  152.3544  143.1850  160.7394 C   0  0  0  0  0  0  0  0  0  0  0  0
  151.3078  144.3100  160.5965 C   0  0  0  0  0  0  0  0  0  0  0  0
  151.6428  145.4319  159.5977 C   0  0  0  0  0  0  0  0  0  0  0  0
  151.0883  145.2334  158.1701 C   0  0  0  0  0  0  0  0  0  0  0  0
  151.9925  144.4240  157.2211 C   0  0  0  0  0  0  0  0  0  0  0  0
  147.6919  141.1296  157.2660 C   0  0  0  0  0  0  0  0  0  0  0  0
  148.6621  140.4641  157.6257 O   0  0  0  0  0  0  0  0  0  0  0  0
  146.6020  141.3168  158.1314 N   0  0  0  0  0  0  0  0  0  0  0  0
  144.6583  143.1270  156.1767 H   0  0  0  0  0  0  0  0  0  0  0  0
  144.5844  141.8855  159.6259 H   0  0  0  0  0  0  0  0  0  0  0  0
  143.5191  141.6982  158.2282 H   0  0  0  0  0  0  0  0  0  0  0  0
  144.1422  143.2982  158.6621 H   0  0  0  0  0  0  0  0  0  0  0  0
  147.0911  143.8810  154.0691 H   0  0  0  0  0  0  0  0  0  0  0  0
  145.3497  143.6444  154.1949 H   0  0  0  0  0  0  0  0  0  0  0  0
  146.3459  142.4074  153.4329 H   0  0  0  0  0  0  0  0  0  0  0  0
  148.8075  142.3391  154.1977 H   0  0  0  0  0  0  0  0  0  0  0  0
  148.6960  140.6365  154.4384 H   0  0  0  0  0  0  0  0  0  0  0  0
  149.7710  143.3935  156.4718 H   0  0  0  0  0  0  0  0  0  0  0  0
  152.5409  142.4918  156.5370 H   0  0  0  0  0  0  0  0  0  0  0  0
  150.7097  142.2523  158.9437 H   0  0  0  0  0  0  0  0  0  0  0  0
  151.7438  141.0687  158.2448 H   0  0  0  0  0  0  0  0  0  0  0  0
  153.3329  141.5692  159.7293 H   0  0  0  0  0  0  0  0  0  0  0  0
  153.5846  143.0864  158.9588 H   0  0  0  0  0  0  0  0  0  0  0  0
  151.9415  142.4307  161.4103 H   0  0  0  0  0  0  0  0  0  0  0  0
  153.2338  143.5785  161.2505 H   0  0  0  0  0  0  0  0  0  0  0  0
  150.3218  143.8995  160.3789 H   0  0  0  0  0  0  0  0  0  0  0  0
  151.2007  144.7634  161.5826 H   0  0  0  0  0  0  0  0  0  0  0  0
  151.1851  146.3431  159.9852 H   0  0  0  0  0  0  0  0  0  0  0  0
  152.7139  145.6362  159.5837 H   0  0  0  0  0  0  0  0  0  0  0  0
  150.0752  144.8306  158.1916 H   0  0  0  0  0  0  0  0  0  0  0  0
  150.9882  146.2282  157.7343 H   0  0  0  0  0  0  0  0  0  0  0  0
  153.0385  144.6135  157.4612 H   0  0  0  0  0  0  0  0  0  0  0  0
  151.8759  144.8352  156.2171 H   0  0  0  0  0  0  0  0  0  0  0  0
  1 23  1  0  0  0  0
  1 24  1  0  0  0  0
  1 25  1  0  0  0  0
  1  2  1  0  0  0  0
  2  3  1  0  0  0  0
  2 21  2  0  0  0  0
  3  4  1  0  0  0  0
  3 22  1  0  0  0  0
  4  6  2  0  0  0  0
  4  5  1  0  0  0  0
  5 26  1  0  0  0  0
  5 27  1  0  0  0  0
  5 28  1  0  0  0  0
  6 19  1  0  0  0  0
  6  7  1  0  0  0  0
  7  8  1  0  0  0  0
  7 29  1  0  0  0  0
  7 30  1  0  0  0  0
  8  9  2  0  0  0  0
  8 10  1  0  0  0  0
 10 11  1  0  0  0  0
 10 31  1  0  0  0  0
 11 18  1  0  0  0  0
 11 12  1  0  0  0  0
 11 32  1  0  0  0  0
 12 13  1  0  0  0  0
 12 33  1  0  0  0  0
 12 34  1  0  0  0  0
 13 14  1  0  0  0  0
 13 35  1  0  0  0  0
 13 36  1  0  0  0  0
 14 15  1  0  0  0  0
 14 37  1  0  0  0  0
 14 38  1  0  0  0  0
 15 16  1  0  0  0  0
 15 39  1  0  0  0  0
 15 40  1  0  0  0  0
 16 17  1  0  0  0  0
 16 41  1  0  0  0  0
 16 42  1  0  0  0  0
 17 18  1  0  0  0  0
 17 43  1  0  0  0  0
 17 44  1  0  0  0  0
 18 45  1  0  0  0  0
 18 46  1  0  0  0  0
 19 20  2  0  0  0  0
 19 21  1  0  0  0  0
M  END
> <s_m_source_file>
AV-unprocessed.smi

> <i_m_source_file_index>
1361

> <i_lp_mmshare_version>
43012

> <i_f3d_flags>
0

> <s_epik_input>
W0NIM11jMW5jKFtDSDNdKWMoYyg9TylbbkhdMSlbQ0gyXUMoPU8pW05IXVtDSF0yW0NIMl1bQ0gyXVtDSDJdW0NIMl1bQ0gyXVtDSDJdW0NIMl0y

> <s_epik_cmdline>
J2VwaWtfcHl0aG9uJywgJy1waCcsICc3LjAnLCAnLXRuJywgJzgnLCAnLW1hJywgJzIwMCcsICctbWV0YWxfYmluZGluZycsICctaW1hZScsICc8aW5maWxlLm1hZT4nLCAnLW9tYWUnLCAnPG91dGZpbGUubWFlPic=

> <r_lp_tautomer_probability>
0.156392

> <r_epik_Ionization_Penalty>
0.0140222

> <r_epik_Ionization_Penalty_Charging>
0.0138986

> <r_epik_Ionization_Penalty_Neutral>
0.000123575

> <r_epik_State_Penalty>
1.53084

> <r_epik_Charging_Adjusted_Penalty>
1.54474

> <i_epik_Tot_Q>
0

> <i_epik_Tot_abs_Q>
0

> <r_epik_Metal_State_Penalty>
1.70646

> <b_epik_Metal_Only>
0

> <s_lp_Force_Field>
OPLS_2005

> <r_lp_Energy>
27.031

> <b_lp_Chiralities_Consistent>
1

> <s_lp_Variant>
AV-unprocessed.smi:1361-2

> <Gold.Version>
5.8.1

> <Gold.Id.Protein>
6NUR|6NUR_protein|mol2

> <Gold.PLP.Fitness>
43.9550

> <Gold.PLP.PLP>
-40.2856

> <Gold.PLP.part.hbond>
-2.7706

> <Gold.PLP.part.metal>
0.0000

> <Gold.PLP.part.buried>
-7.0055

> <Gold.PLP.part.nonpolar>
-30.3712

> <Gold.PLP.part.repulsive>
0.1270

> <Gold.PLP.ligand.clash>
0.0000

> <Gold.PLP.ligand.torsion>
0.6924

> <Gold.PLP.Chemscore.Hbond>
1.6724

> <Gold.PLP.Chemscore.CHOScore>
0.0000

> <Gold.PLP.Chemscore.Metal>
0.0000

> <Gold.Chemscore.Hbonds>
donor molecule, donor type, donor heavy atom, donor atom, acceptor molecule, acceptor atom, score
      L1  H    10    31       P1  8028  0.94
      P1  H  7989  7998       L1     9  0.74

> <Gold.PLP.Chemscore.Internal.Correction>
0.0369

> <Gold.Rescore>
     Score         DG    S(hbond)    S(metal)    S(lipo)     H(rot)  DE(clash)    DE(int)     intcor
     16.14     -19.63       1.50        0.00     110.29       1.47       1.34       2.15       ----

> <Gold.Chemscore.Fitness>
16.1404

> <Gold.Chemscore.DG>
-19.6264

> <Gold.Chemscore.ZeroCoef>
-5.4800

> <Gold.Chemscore.Hbond>
1.4979

> <Gold.Chemscore.Metal>
0.0000

> <Gold.Chemscore.Lipo>
110.2925

> <Gold.Chemscore.Internal_Hbond>
0.0000

> <Gold.Chemscore.DEClash>
1.3399

> <Gold.Chemscore.DEInternal>
2.1461

> <Gold.Chemscore.Rot>
1.4690

> <Gold.Chemscore.Internal.Correction>
   9.000000E+99

> <Gold.Chemscore.Hbonds>
donor molecule, donor type, donor heavy atom, donor atom, acceptor molecule, acceptor atom, score
      L1  H    10    31       P1  8028  0.91
      P1  H  7989  7998       L1     9  0.32

> <Gold.Chemscore.Hbond.Weighted>
-5.0029

> <Gold.Chemscore.Metal.Weighted>
-0.0000

> <Gold.Chemscore.Lipo.Weighted>
-12.9042

> <Gold.Chemscore.Internal_Hbond.Weighted>
0.0000

> <Gold.Chemscore.DEClash.Weighted>
1.3399

> <Gold.Chemscore.DEInternal.Weighted>
2.1461

> <Gold.Chemscore.Rot.Weighted>
3.7607

> <Gold.Chemscore.Internal.Correction.Weighted>
   9.000000E+99

> <Gold.Protein.RotatedTorsions>
[ 6907 6896 6895 6894 ] final   97.97 input  -60.11 | X-H torsion
[ 7974 7965 7964 7962 ] final  -17.80 input  175.53 | X-H torsion
[ 8008 7997 7996 7995 ] final  142.52 input   59.86 | X-H torsion
[ 10167 10162 10161 10158 ] final -140.10 input  -65.29 | X-H torsion
[ 10718 10713 10712 10709 ] final -139.84 input   66.30 | X-H torsion
[ 10763 10752 10751 10750 ] final  -48.08 input  -60.55 | X-H torsion
[ 11005 11000 10999 10996 ] final -106.21 input  -57.11 | X-H torsion

> <Gold.Protein.ActiveResidues>
 VAL166  LYS551  ARG553  GLY616  TRP617  ASP618  TYR619  PRO620  LYS621  CYS622 
 ASP623  PHE694  ASN695  SER759  ASP760  ASP761  ALA762  ILE779  LEU786  VAL792 
 PHE793  MET794  SER795  GLU796  ALA797  LYS798  CYS799  TRP800  GLU811  SER814 

> <Gold.Protein.RotatedAtoms>
  152.5416  134.0652  159.8169 H   0  0  0  0  0  0  0  0  0  0  0  0  # atno 6907 bound_to 6896
  151.0774  133.5410  159.2630 H   0  0  0  0  0  0  0  0  0  0  0  0  # atno 6908 bound_to 6896
  151.2250  135.0541  159.9019 H   0  0  0  0  0  0  0  0  0  0  0  0  # atno 6909 bound_to 6896
  146.1923  140.3831  142.8453 H   0  0  0  0  0  0  0  0  0  0  0  0  # atno 7974 bound_to 7965
  156.2948  140.2286  156.4742 H   0  0  0  0  0  0  0  0  0  0  0  0  # atno 8008 bound_to 7997
  154.7909  140.0454  157.1221 H   0  0  0  0  0  0  0  0  0  0  0  0  # atno 8009 bound_to 7997
  154.9646  140.3059  155.5018 H   0  0  0  0  0  0  0  0  0  0  0  0  # atno 8010 bound_to 7997
  139.8314  143.7442  152.2666 H   0  0  0  0  0  0  0  0  0  0  0  0  # atno 10167 bound_to 10162
  156.3154  130.7505  151.1590 H   0  0  0  0  0  0  0  0  0  0  0  0  # atno 10718 bound_to 10713
  154.0720  135.6603  153.4825 H   0  0  0  0  0  0  0  0  0  0  0  0  # atno 10763 bound_to 10752
  153.0387  135.5159  154.7558 H   0  0  0  0  0  0  0  0  0  0  0  0  # atno 10764 bound_to 10752
  154.6626  135.3017  154.9814 H   0  0  0  0  0  0  0  0  0  0  0  0  # atno 10765 bound_to 10752
  141.1016  133.8874  157.1828 H   0  0  0  0  0  0  0  0  0  0  0  0  # atno 11005 bound_to 11000
  144.8511  140.7003  143.6167 LP  0  0  0  0  0  0  0  0  0  0  0  0  # atno 17320 bound_to 7965
  145.3753  139.1649  143.4310 LP  0  0  0  0  0  0  0  0  0  0  0  0  # atno 17321 bound_to 7965
  139.7650  144.7494  151.0307 LP  0  0  0  0  0  0  0  0  0  0  0  0  # atno 17342 bound_to 10162
  140.7806  143.4708  151.0149 LP  0  0  0  0  0  0  0  0  0  0  0  0  # atno 17343 bound_to 10162
  157.7400  131.0522  150.5193 LP  0  0  0  0  0  0  0  0  0  0  0  0  # atno 17370 bound_to 10713
  156.5338  130.4191  149.6188 LP  0  0  0  0  0  0  0  0  0  0  0  0  # atno 17371 bound_to 10713
  139.9869  135.0079  156.9884 LP  0  0  0  0  0  0  0  0  0  0  0  0  # atno 17394 bound_to 11000
  140.5008  134.1099  155.7250 LP  0  0  0  0  0  0  0  0  0  0  0  0  # atno 17395 bound_to 11000

$$$$
