AV-unprocessed.smi:1144|AV-procd|sdf|4876|dock5
  -GOLD-   22720 3443D 1   1.00000     0.00000
 Structure written by MMmdl.
 35 36  0  0  0  0  0  0  0  0  2 V2000
  147.6867  141.8977  154.2130 C   0  0  0  0  0  0  0  0  0  0  0  0
  148.6235  141.8087  155.3531 N   0  3  1  0  0  0  0  0  0  0  0  0
  148.1109  140.9537  156.4476 C   0  0  0  0  0  0  0  0  0  0  0  0
  149.1107  140.9270  157.6148 C   0  0  0  0  0  0  0  0  0  0  0  0
  150.3780  140.4849  157.1436 O   0  0  0  0  0  0  0  0  0  0  0  0
  150.9289  141.3576  156.1610 C   0  0  1  0  0  0  0  0  0  0  0  0
  152.3210  140.8346  155.7823 C   0  0  0  0  0  0  0  0  0  0  0  0
  153.1120  140.5077  156.9591 N   0  0  0  0  0  0  0  0  0  0  0  0
  153.3923  141.4005  157.9757 C   0  0  0  0  0  0  0  0  0  0  0  0
  154.3753  141.0976  158.8312 N   0  0  0  0  0  0  0  0  0  0  0  0
  154.6246  141.9857  159.8175 C   0  0  0  0  0  0  0  0  0  0  0  0
  153.8878  143.1799  159.9448 C   0  0  0  0  0  0  0  0  0  0  0  0
  152.8740  143.3960  158.9845 C   0  0  0  0  0  0  0  0  0  0  0  0
  151.9989  144.6403  158.9976 C   0  0  0  0  0  0  0  0  0  0  0  0
  152.2515  145.4056  160.0603 F   0  0  0  0  0  0  0  0  0  0  0  0
  152.2218  145.3583  157.8966 F   0  0  0  0  0  0  0  0  0  0  0  0
  150.7140  144.2861  159.0279 F   0  0  0  0  0  0  0  0  0  0  0  0
  152.6336  142.4978  158.0004 N   0  0  0  0  0  0  0  0  0  0  0  0
  149.9822  141.3839  154.9449 C   0  0  0  0  0  0  0  0  0  0  0  0
  147.5357  140.9205  153.7521 H   0  0  0  0  0  0  0  0  0  0  0  0
  148.0703  142.5791  153.4530 H   0  0  0  0  0  0  0  0  0  0  0  0
  146.7175  142.2757  154.5402 H   0  0  0  0  0  0  0  0  0  0  0  0
  147.1466  141.3302  156.7913 H   0  0  0  0  0  0  0  0  0  0  0  0
  147.9466  139.9411  156.0754 H   0  0  0  0  0  0  0  0  0  0  0  0
  149.2024  141.9123  158.0746 H   0  0  0  0  0  0  0  0  0  0  0  0
  148.7642  140.2445  158.3909 H   0  0  0  0  0  0  0  0  0  0  0  0
  151.0216  142.3653  156.5711 H   0  0  0  0  0  0  0  0  0  0  0  0
  152.2325  139.9566  155.1413 H   0  0  0  0  0  0  0  0  0  0  0  0
  152.8581  141.5943  155.2133 H   0  0  0  0  0  0  0  0  0  0  0  0
  153.5180  139.5858  157.0282 H   0  0  0  0  0  0  0  0  0  0  0  0
  155.4167  141.7417  160.5099 H   0  0  0  0  0  0  0  0  0  0  0  0
  154.0945  143.8844  160.7367 H   0  0  0  0  0  0  0  0  0  0  0  0
  149.9323  140.3957  154.4841 H   0  0  0  0  0  0  0  0  0  0  0  0
  150.3669  142.0703  154.1892 H   0  0  0  0  0  0  0  0  0  0  0  0
  148.7116  142.7418  155.7300 H   0  0  0  0  0  0  0  0  0  0  0  0
  1  2  1  0  0  0  0
  1 20  1  0  0  0  0
  1 21  1  0  0  0  0
  1 22  1  0  0  0  0
  2 19  1  0  0  0  0
  2  3  1  0  0  0  0
  2 35  1  0  0  0  0
  3  4  1  0  0  0  0
  3 23  1  0  0  0  0
  3 24  1  0  0  0  0
  4  5  1  0  0  0  0
  4 25  1  0  0  0  0
  4 26  1  0  0  0  0
  5  6  1  0  0  0  0
  6  7  1  0  0  0  0
  6 19  1  0  0  0  0
  6 27  1  0  0  0  0
  7  8  1  0  0  0  0
  7 28  1  0  0  0  0
  7 29  1  0  0  0  0
  8  9  1  0  0  0  0
  8 30  1  0  0  0  0
  9 18  1  0  0  0  0
  9 10  2  0  0  0  0
 10 11  1  0  0  0  0
 11 12  2  0  0  0  0
 11 31  1  0  0  0  0
 12 13  1  0  0  0  0
 12 32  1  0  0  0  0
 13 14  1  0  0  0  0
 13 18  2  0  0  0  0
 14 15  1  0  0  0  0
 14 16  1  0  0  0  0
 14 17  1  0  0  0  0
 19 33  1  0  0  0  0
 19 34  1  0  0  0  0
M  CHG  1   2   1
M  END
> <s_m_source_file>
AV-unprocessed.smi

> <i_m_source_file_index>
1144

> <i_lp_mmshare_version>
43012

> <i_f3d_flags>
0

> <s_epik_input>
W0NIM11OMVtDSDJdW0NIMl1PW0NASF0oW0NIMl0xKVtDSDJdW05IXWMybltjSF1bY0hdYyhuMilDKEYpKEYpRg==

> <s_epik_cmdline>
J2VwaWtfcHl0aG9uJywgJy1waCcsICc3LjAnLCAnLXRuJywgJzgnLCAnLW1hJywgJzIwMCcsICctbWV0YWxfYmluZGluZycsICctaW1hZScsICc8aW5maWxlLm1hZT4nLCAnLW9tYWUnLCAnPG91dGZpbGUubWFlPic=

> <r_lp_tautomer_probability>
1

> <r_epik_Ionization_Penalty>
0.178506

> <r_epik_Ionization_Penalty_Charging>
0.178504

> <r_epik_Ionization_Penalty_Neutral>
2.47225e-06

> <r_epik_State_Penalty>
0.167974

> <r_epik_Charging_Adjusted_Penalty>
0.346478

> <i_epik_Tot_Q>
1

> <i_epik_Tot_abs_Q>
1

> <r_epik_Metal_State_Penalty>
0.167974

> <b_epik_Metal_Only>
0

> <s_lp_Force_Field>
OPLS_2005

> <r_lp_Energy>
9.30015

> <b_lp_Chiralities_Consistent>
1

> <s_lp_Variant>
AV-unprocessed.smi:1144-1

> <Gold.Version>
5.8.1

> <Gold.Id.Protein>
6NUR|6NUR_protein|mol2

> <Gold.PLP.Fitness>
48.5457

> <Gold.PLP.PLP>
-42.9701

> <Gold.PLP.part.hbond>
-1.0000

> <Gold.PLP.part.metal>
0.0000

> <Gold.PLP.part.buried>
-6.4559

> <Gold.PLP.part.nonpolar>
-35.4947

> <Gold.PLP.part.repulsive>
0.2284

> <Gold.PLP.ligand.clash>
0.0000

> <Gold.PLP.ligand.torsion>
0.2153

> <Gold.PLP.Chemscore.Hbond>
2.0000

> <Gold.PLP.Chemscore.CHOScore>
0.0000

> <Gold.PLP.Chemscore.Metal>
0.0000

> <Gold.Chemscore.Hbonds>
donor molecule, donor type, donor heavy atom, donor atom, acceptor molecule, acceptor atom, score
      L1  H     2    35       P1  8028  2.00

> <Gold.PLP.Chemscore.Internal.Correction>
0.0062

> <Gold.Rescore>
     Score         DG    S(hbond)    S(metal)    S(lipo)     H(rot)  DE(clash)    DE(int)     intcor
     12.22     -13.94       1.00        0.00      73.12       1.34       0.00       1.71       ----

> <Gold.Chemscore.Fitness>
12.2220

> <Gold.Chemscore.DG>
-13.9376

> <Gold.Chemscore.ZeroCoef>
-5.4800

> <Gold.Chemscore.Hbond>
0.9963

> <Gold.Chemscore.Metal>
0.0000

> <Gold.Chemscore.Lipo>
73.1176

> <Gold.Chemscore.Internal_Hbond>
0.0000

> <Gold.Chemscore.DEClash>
0.0019

> <Gold.Chemscore.DEInternal>
1.7137

> <Gold.Chemscore.Rot>
1.3379

> <Gold.Chemscore.Internal.Correction>
   9.000000E+99

> <Gold.Chemscore.Hbonds>
donor molecule, donor type, donor heavy atom, donor atom, acceptor molecule, acceptor atom, score
      L1  H     2    35       P1  8028  0.96

> <Gold.Chemscore.Hbond.Weighted>
-3.3278

> <Gold.Chemscore.Metal.Weighted>
-0.0000

> <Gold.Chemscore.Lipo.Weighted>
-8.5548

> <Gold.Chemscore.Internal_Hbond.Weighted>
0.0000

> <Gold.Chemscore.DEClash.Weighted>
0.0019

> <Gold.Chemscore.DEInternal.Weighted>
1.7137

> <Gold.Chemscore.Rot.Weighted>
3.4250

> <Gold.Chemscore.Internal.Correction.Weighted>
   9.000000E+99

> <Gold.Protein.RotatedTorsions>
[ 6907 6896 6895 6894 ] final  121.31 input  -60.11 | X-H torsion
[ 7974 7965 7964 7962 ] final  157.13 input  175.53 | X-H torsion
[ 8008 7997 7996 7995 ] final   53.27 input   59.86 | X-H torsion
[ 10167 10162 10161 10158 ] final   10.16 input  -65.29 | X-H torsion
[ 10718 10713 10712 10709 ] final   80.81 input   66.30 | X-H torsion
[ 10763 10752 10751 10750 ] final -107.26 input  -60.55 | X-H torsion
[ 11005 11000 10999 10996 ] final  145.16 input  -57.11 | X-H torsion

> <Gold.Protein.ActiveResidues>
 VAL166  LYS551  ARG553  GLY616  TRP617  ASP618  TYR619  PRO620  LYS621  CYS622 
 ASP623  PHE694  ASN695  SER759  ASP760  ASP761  ALA762  ILE779  LEU786  VAL792 
 PHE793  MET794  SER795  GLU796  ALA797  LYS798  CYS799  TRP800  GLU811  SER814 

> <Gold.Protein.RotatedAtoms>
  152.4331  133.7313  159.6588 H   0  0  0  0  0  0  0  0  0  0  0  0  # atno 6907 bound_to 6896
  150.8212  133.8239  159.3144 H   0  0  0  0  0  0  0  0  0  0  0  0  # atno 6908 bound_to 6896
  151.5920  135.1055  160.0093 H   0  0  0  0  0  0  0  0  0  0  0  0  # atno 6909 bound_to 6896
  144.7922  139.7298  143.6217 H   0  0  0  0  0  0  0  0  0  0  0  0  # atno 7974 bound_to 7965
  155.4655  140.3463  155.4318 H   0  0  0  0  0  0  0  0  0  0  0  0  # atno 8008 bound_to 7997
  156.1134  140.1467  156.9336 H   0  0  0  0  0  0  0  0  0  0  0  0  # atno 8009 bound_to 7997
  154.4772  140.0881  156.7269 H   0  0  0  0  0  0  0  0  0  0  0  0  # atno 8010 bound_to 7997
  140.6211  143.8202  150.7176 H   0  0  0  0  0  0  0  0  0  0  0  0  # atno 10167 bound_to 10162
  157.6816  130.9976  150.2134 H   0  0  0  0  0  0  0  0  0  0  0  0  # atno 10718 bound_to 10713
  154.8064  135.4681  154.0403 H   0  0  0  0  0  0  0  0  0  0  0  0  # atno 10763 bound_to 10752
  153.1869  135.6849  153.8411 H   0  0  0  0  0  0  0  0  0  0  0  0  # atno 10764 bound_to 10752
  153.7942  135.3239  155.3360 H   0  0  0  0  0  0  0  0  0  0  0  0  # atno 10765 bound_to 10752
  140.0690  134.9162  157.1313 H   0  0  0  0  0  0  0  0  0  0  0  0  # atno 11005 bound_to 11000
  146.2177  139.5580  142.9639 LP  0  0  0  0  0  0  0  0  0  0  0  0  # atno 17320 bound_to 7965
  145.5766  141.0388  143.2145 LP  0  0  0  0  0  0  0  0  0  0  0  0  # atno 17321 bound_to 7965
  140.1792  143.4129  152.1945 LP  0  0  0  0  0  0  0  0  0  0  0  0  # atno 17342 bound_to 10162
  139.5440  144.7282  151.4643 LP  0  0  0  0  0  0  0  0  0  0  0  0  # atno 17343 bound_to 10162
  156.2800  130.3732  149.7945 LP  0  0  0  0  0  0  0  0  0  0  0  0  # atno 17370 bound_to 10713
  156.5636  130.8394  151.3336 LP  0  0  0  0  0  0  0  0  0  0  0  0  # atno 17371 bound_to 10713
  140.3656  134.2446  155.7182 LP  0  0  0  0  0  0  0  0  0  0  0  0  # atno 17394 bound_to 11000
  141.2004  133.7988  157.0490 LP  0  0  0  0  0  0  0  0  0  0  0  0  # atno 17395 bound_to 11000

$$$$
