AV-unprocessed.smi:657|AV-procd|sdf|3229|dock4
  -GOLD-   22720 0173D 1   1.00000     0.00000
 Structure written by MMmdl.
 46 47  0  0  0  0  0  0  0  0  3 V2000
  142.1902  134.9912  153.0750 C   0  0  0  0  0  0  0  0  0  0  0  0
  143.6858  135.0661  153.4265 C   0  0  0  0  0  0  0  0  0  0  0  0
  144.3957  136.1952  152.6537 C   0  0  0  0  0  0  0  0  0  0  0  0
  144.3607  133.7305  153.2950 N   0  3  1  0  0  0  0  0  0  0  0  0
  144.4907  133.2741  151.8794 C   0  0  0  0  0  0  0  0  0  0  0  0
  144.9890  131.8261  151.7853 C   0  0  0  0  0  0  0  0  0  0  0  0
  146.3416  131.6852  152.4834 C   0  0  0  0  0  0  0  0  0  0  0  0
  146.2062  132.1413  153.9378 C   0  0  0  0  0  0  0  0  0  0  0  0
  145.6512  133.5830  154.0507 C   0  0  2  0  0  0  0  0  0  0  0  0
  145.5095  133.9158  155.5501 C   0  0  0  0  0  0  0  0  0  0  0  0
  144.3731  134.0861  156.0065 O   0  0  0  0  0  0  0  0  0  0  0  0
  146.7253  133.9924  156.1582 N   0  5  0  0  0  0  0  0  0  0  0  0
  147.0708  134.9951  157.1667 C   0  0  0  0  0  0  0  0  0  0  0  0
  147.8388  134.3496  158.3429 C   0  0  0  0  0  0  0  0  0  0  0  0
  147.7450  135.1069  159.6515 C   0  0  0  0  0  0  0  0  0  0  0  0
  147.8987  136.5106  159.8403 C   0  0  0  0  0  0  0  0  0  0  0  0
  147.7501  136.8852  161.1006 N   0  0  0  0  0  0  0  0  0  0  0  0
  147.5074  135.7368  161.7636 N   0  0  0  0  0  0  0  0  0  0  0  0
  147.2847  135.7709  163.1927 C   0  0  0  0  0  0  0  0  0  0  0  0
  147.5138  134.6470  160.9206 C   0  0  0  0  0  0  0  0  0  0  0  0
  141.6865  135.9185  153.3500 H   0  0  0  0  0  0  0  0  0  0  0  0
  141.6991  134.1826  153.6170 H   0  0  0  0  0  0  0  0  0  0  0  0
  142.0189  134.8396  152.0099 H   0  0  0  0  0  0  0  0  0  0  0  0
  143.6882  135.3555  154.4747 H   0  0  0  0  0  0  0  0  0  0  0  0
  143.9102  137.1524  152.8443 H   0  0  0  0  0  0  0  0  0  0  0  0
  144.3718  136.0370  151.5759 H   0  0  0  0  0  0  0  0  0  0  0  0
  145.4362  136.2999  152.9599 H   0  0  0  0  0  0  0  0  0  0  0  0
  143.5343  133.3380  151.3634 H   0  0  0  0  0  0  0  0  0  0  0  0
  145.1835  133.9226  151.3422 H   0  0  0  0  0  0  0  0  0  0  0  0
  144.2614  131.1517  152.2391 H   0  0  0  0  0  0  0  0  0  0  0  0
  145.0787  131.5305  150.7395 H   0  0  0  0  0  0  0  0  0  0  0  0
  146.6834  130.6506  152.4419 H   0  0  0  0  0  0  0  0  0  0  0  0
  147.0935  132.2870  151.9712 H   0  0  0  0  0  0  0  0  0  0  0  0
  145.5529  131.4431  154.4641 H   0  0  0  0  0  0  0  0  0  0  0  0
  147.1794  132.0760  154.4270 H   0  0  0  0  0  0  0  0  0  0  0  0
  146.3774  134.2519  153.5837 H   0  0  0  0  0  0  0  0  0  0  0  0
  147.6691  135.8133  156.7628 H   0  0  0  0  0  0  0  0  0  0  0  0
  146.1716  135.4688  157.5605 H   0  0  0  0  0  0  0  0  0  0  0  0
  147.4637  133.3349  158.4780 H   0  0  0  0  0  0  0  0  0  0  0  0
  148.8830  134.2279  158.0522 H   0  0  0  0  0  0  0  0  0  0  0  0
  148.1010  137.2672  159.0967 H   0  0  0  0  0  0  0  0  0  0  0  0
  146.9052  134.8075  163.5337 H   0  0  0  0  0  0  0  0  0  0  0  0
  146.5553  136.5440  163.4365 H   0  0  0  0  0  0  0  0  0  0  0  0
  148.2223  135.9863  163.7055 H   0  0  0  0  0  0  0  0  0  0  0  0
  147.3391  133.6451  161.2840 H   0  0  0  0  0  0  0  0  0  0  0  0
  143.7325  133.0779  153.7411 H   0  0  0  0  0  0  0  0  0  0  0  0
  1  2  1  0  0  0  0
  1 21  1  0  0  0  0
  1 22  1  0  0  0  0
  1 23  1  0  0  0  0
  2  3  1  0  0  0  0
  2  4  1  0  0  0  0
  2 24  1  0  0  0  0
  3 25  1  0  0  0  0
  3 26  1  0  0  0  0
  3 27  1  0  0  0  0
  4  9  1  0  0  0  0
  4  5  1  0  0  0  0
  4 46  1  0  0  0  0
  5  6  1  0  0  0  0
  5 28  1  0  0  0  0
  5 29  1  0  0  0  0
  6  7  1  0  0  0  0
  6 30  1  0  0  0  0
  6 31  1  0  0  0  0
  7  8  1  0  0  0  0
  7 32  1  0  0  0  0
  7 33  1  0  0  0  0
  8  9  1  0  0  0  0
  8 34  1  0  0  0  0
  8 35  1  0  0  0  0
  9 10  1  0  0  0  0
  9 36  1  0  0  0  0
 10 11  2  0  0  0  0
 10 12  1  0  0  0  0
 12 13  1  0  0  0  0
 13 14  1  0  0  0  0
 13 37  1  0  0  0  0
 13 38  1  0  0  0  0
 14 15  1  0  0  0  0
 14 39  1  0  0  0  0
 14 40  1  0  0  0  0
 15 20  2  0  0  0  0
 15 16  1  0  0  0  0
 16 17  2  0  0  0  0
 16 41  1  0  0  0  0
 17 18  1  0  0  0  0
 18 19  1  0  0  0  0
 18 20  1  0  0  0  0
 19 42  1  0  0  0  0
 19 43  1  0  0  0  0
 19 44  1  0  0  0  0
 20 45  1  0  0  0  0
M  CHG  1   4   1
M  CHG  1  12  -1
M  END
> <s_m_source_file>
AV-unprocessed.smi

> <i_m_source_file_index>
657

> <i_lp_mmshare_version>
43012

> <i_f3d_flags>
0

> <s_epik_input>
W0NIM11bQ0hdKFtDSDNdKU4xW0NIMl1bQ0gyXVtDSDJdW0NIMl1bQ0BIXTFDKD1PKVtOSF1bQ0gyXVtDSDJdYzJbY0hdbm4oW0NIM10pW2NIXTI=

> <s_epik_cmdline>
J2VwaWtfcHl0aG9uJywgJy1waCcsICc3LjAnLCAnLXRuJywgJzgnLCAnLW1hJywgJzIwMCcsICctbWV0YWxfYmluZGluZycsICctaW1hZScsICc8aW5maWxlLm1hZT4nLCAnLW9tYWUnLCAnPG91dGZpbGUubWFlPic=

> <r_lp_tautomer_probability>
1

> <r_epik_Ionization_Penalty>
6.1622

> <r_epik_Ionization_Penalty_Charging>
6.16146

> <r_epik_Ionization_Penalty_Neutral>
0.00073675

> <r_epik_State_Penalty>
6.18018

> <r_epik_Charging_Adjusted_Penalty>
12.3416

> <i_epik_Tot_Q>
0

> <i_epik_Tot_abs_Q>
2

> <r_epik_Metal_State_Penalty>
2.12232

> <b_epik_Metal_Only>
1

> <s_lp_Force_Field>
OPLS_2005

> <r_lp_Energy>
9.74682

> <b_lp_Chiralities_Consistent>
1

> <s_lp_Variant>
AV-unprocessed.smi:657-10

> <Gold.Version>
5.8.1

> <Gold.Id.Protein>
6NUR|6NUR_protein|mol2

> <Gold.PLP.Fitness>
38.4728

> <Gold.PLP.PLP>
-29.0387

> <Gold.PLP.part.hbond>
-3.0000

> <Gold.PLP.part.metal>
0.0000

> <Gold.PLP.part.buried>
-5.2043

> <Gold.PLP.part.nonpolar>
-21.6645

> <Gold.PLP.part.repulsive>
0.1031

> <Gold.PLP.ligand.clash>
0.0000

> <Gold.PLP.ligand.torsion>
1.0174

> <Gold.PLP.Chemscore.Hbond>
3.7600

> <Gold.PLP.Chemscore.CHOScore>
0.0000

> <Gold.PLP.Chemscore.Metal>
0.0000

> <Gold.Chemscore.Hbonds>
donor molecule, donor type, donor heavy atom, donor atom, acceptor molecule, acceptor atom, score
      L1  H     4    46       P1 10957  2.00
      P1  H  6931  6943       L1    17  0.98
      P1  H  6934  6947       L1    17  0.48

> <Gold.PLP.Chemscore.Internal.Correction>
0.1890

> <Gold.Rescore>
     Score         DG    S(hbond)    S(metal)    S(lipo)     H(rot)  DE(clash)    DE(int)     intcor
     15.12     -17.11       2.49        0.00      62.86       1.57       0.02       1.97       ----

> <Gold.Chemscore.Fitness>
15.1154

> <Gold.Chemscore.DG>
-17.1098

> <Gold.Chemscore.ZeroCoef>
-5.4800

> <Gold.Chemscore.Hbond>
2.4864

> <Gold.Chemscore.Metal>
0.0000

> <Gold.Chemscore.Lipo>
62.8616

> <Gold.Chemscore.Internal_Hbond>
0.0000

> <Gold.Chemscore.DEClash>
0.0201

> <Gold.Chemscore.DEInternal>
1.9744

> <Gold.Chemscore.Rot>
1.5741

> <Gold.Chemscore.Internal.Correction>
   9.000000E+99

> <Gold.Chemscore.Hbonds>
donor molecule, donor type, donor heavy atom, donor atom, acceptor molecule, acceptor atom, score
      L1  H     4    46       P1 10957  0.94
      P1  H  6931  6943       L1    17  0.85
      P1  H  6934  6947       L1    17  0.19

> <Gold.Chemscore.Hbond.Weighted>
-8.3047

> <Gold.Chemscore.Metal.Weighted>
-0.0000

> <Gold.Chemscore.Lipo.Weighted>
-7.3548

> <Gold.Chemscore.Internal_Hbond.Weighted>
0.0000

> <Gold.Chemscore.DEClash.Weighted>
0.0201

> <Gold.Chemscore.DEInternal.Weighted>
1.9744

> <Gold.Chemscore.Rot.Weighted>
4.0297

> <Gold.Chemscore.Internal.Correction.Weighted>
   9.000000E+99

> <Gold.Protein.RotatedTorsions>
[ 6907 6896 6895 6894 ] final -153.20 input  -60.11 | X-H torsion
[ 7974 7965 7964 7962 ] final   86.83 input  175.53 | X-H torsion
[ 8008 7997 7996 7995 ] final   61.56 input   59.86 | X-H torsion
[ 10167 10162 10161 10158 ] final   18.20 input  -65.29 | X-H torsion
[ 10718 10713 10712 10709 ] final  147.26 input   66.30 | X-H torsion
[ 10763 10752 10751 10750 ] final  148.33 input  -60.55 | X-H torsion
[ 11005 11000 10999 10996 ] final  159.39 input  -57.11 | X-H torsion

> <Gold.Protein.ActiveResidues>
 VAL166  LYS551  ARG553  GLY616  TRP617  ASP618  TYR619  PRO620  LYS621  CYS622 
 ASP623  PHE694  ASN695  SER759  ASP760  ASP761  ALA762  ILE779  LEU786  VAL792 
 PHE793  MET794  SER795  GLU796  ALA797  LYS798  CYS799  TRP800  GLU811  SER814 

> <Gold.Protein.RotatedAtoms>
  151.2390  133.4409  159.2606 H   0  0  0  0  0  0  0  0  0  0  0  0  # atno 6907 bound_to 6896
  151.0723  134.9806  159.8325 H   0  0  0  0  0  0  0  0  0  0  0  0  # atno 6908 bound_to 6896
  152.5413  134.2335  159.8887 H   0  0  0  0  0  0  0  0  0  0  0  0  # atno 6909 bound_to 6896
  145.5671  139.2310  143.2427 H   0  0  0  0  0  0  0  0  0  0  0  0  # atno 7974 bound_to 7965
  155.6004  140.3494  155.4592 H   0  0  0  0  0  0  0  0  0  0  0  0  # atno 8008 bound_to 7997
  156.0233  140.1258  157.0359 H   0  0  0  0  0  0  0  0  0  0  0  0  # atno 8009 bound_to 7997
  154.4323  140.1058  156.5980 H   0  0  0  0  0  0  0  0  0  0  0  0  # atno 8010 bound_to 7997
  140.5671  143.9231  150.6684 H   0  0  0  0  0  0  0  0  0  0  0  0  # atno 10167 bound_to 10162
  157.3232  131.0908  151.1223 H   0  0  0  0  0  0  0  0  0  0  0  0  # atno 10718 bound_to 10713
  154.0529  135.2880  155.3337 H   0  0  0  0  0  0  0  0  0  0  0  0  # atno 10763 bound_to 10752
  154.6857  135.5246  153.8327 H   0  0  0  0  0  0  0  0  0  0  0  0  # atno 10764 bound_to 10752
  153.0553  135.6593  154.0724 H   0  0  0  0  0  0  0  0  0  0  0  0  # atno 10765 bound_to 10752
  140.1957  134.8375  157.2962 H   0  0  0  0  0  0  0  0  0  0  0  0  # atno 11005 bound_to 11000
  146.1810  140.6497  142.9189 LP  0  0  0  0  0  0  0  0  0  0  0  0  # atno 17320 bound_to 7965
  144.7455  140.5057  143.6839 LP  0  0  0  0  0  0  0  0  0  0  0  0  # atno 17321 bound_to 7965
  140.2697  143.3465  152.1249 LP  0  0  0  0  0  0  0  0  0  0  0  0  # atno 17342 bound_to 10162
  139.5098  144.6874  151.5852 LP  0  0  0  0  0  0  0  0  0  0  0  0  # atno 17343 bound_to 10162
  157.2500  130.6609  149.5927 LP  0  0  0  0  0  0  0  0  0  0  0  0  # atno 17370 bound_to 10713
  155.9688  130.4541  150.5838 LP  0  0  0  0  0  0  0  0  0  0  0  0  # atno 17371 bound_to 10713
  140.2110  134.4138  155.7613 LP  0  0  0  0  0  0  0  0  0  0  0  0  # atno 17394 bound_to 11000
  141.2227  133.7118  156.8338 LP  0  0  0  0  0  0  0  0  0  0  0  0  # atno 17395 bound_to 11000

$$$$
