AV-unprocessed.smi:1686|AV-procd|sdf|6761|dock1
  -GOLD-   22720 7523D 1   1.00000     0.00000
 Structure written by MMmdl.
 41 43  0  0  0  0  0  0  0  0  1 V2000
  154.4372  135.3144  161.2092 C   0  0  0  0  0  0  0  0  0  0  0  0
  154.6437  136.7482  161.6048 C   0  0  0  0  0  0  0  0  0  0  0  0
  155.5777  137.0426  162.4998 N   0  0  0  0  0  0  0  0  0  0  0  0
  155.5465  138.4327  162.6594 O   0  0  0  0  0  0  0  0  0  0  0  0
  154.5786  138.9037  161.8403 C   0  0  0  0  0  0  0  0  0  0  0  0
  154.2090  140.5784  161.7219 Cl  0  0  0  0  0  0  0  0  0  0  0  0
  153.9570  137.9090  161.1417 C   0  0  0  0  0  0  0  0  0  0  0  0
  152.8376  138.0019  160.1325 C   0  0  0  0  0  0  0  0  0  0  0  0
  153.0834  139.1197  159.1116 C   0  0  0  0  0  0  0  0  0  0  0  0
  154.1127  139.1534  158.4352 O   0  0  0  0  0  0  0  0  0  0  0  0
  152.1121  140.0406  159.0169 N   0  0  0  0  0  0  0  0  0  0  0  0
  152.1267  141.2096  158.1385 C   0  0  1  0  0  0  0  0  0  0  0  0
  151.3572  140.8740  156.8475 C   0  0  0  0  0  0  0  0  0  0  0  0
  151.5349  142.4277  158.8911 C   0  0  1  0  0  0  0  0  0  0  0  0
  152.3834  142.8812  160.1067 C   0  0  0  0  0  0  0  0  0  0  0  0
  152.6094  144.3801  159.8452 C   0  0  2  0  0  0  0  0  0  0  0  0
  151.2805  145.1392  160.0091 C   0  0  0  0  0  0  0  0  0  0  0  0
  150.4937  144.7150  158.7552 C   0  0  0  0  0  0  0  0  0  0  0  0
  151.4601  143.7352  158.0613 C   0  0  1  0  0  0  0  0  0  0  0  0
  152.8066  144.3976  158.3359 C   0  0  0  0  0  0  0  0  0  0  0  0
  153.7297  135.2253  160.3851 H   0  0  0  0  0  0  0  0  0  0  0  0
  154.0495  134.7302  162.0439 H   0  0  0  0  0  0  0  0  0  0  0  0
  155.3733  134.8574  160.8878 H   0  0  0  0  0  0  0  0  0  0  0  0
  152.7195  137.0593  159.5967 H   0  0  0  0  0  0  0  0  0  0  0  0
  151.8815  138.1910  160.6216 H   0  0  0  0  0  0  0  0  0  0  0  0
  151.3036  139.9339  159.6123 H   0  0  0  0  0  0  0  0  0  0  0  0
  153.1600  141.4393  157.8731 H   0  0  0  0  0  0  0  0  0  0  0  0
  151.3992  141.6884  156.1259 H   0  0  0  0  0  0  0  0  0  0  0  0
  150.3068  140.6665  157.0544 H   0  0  0  0  0  0  0  0  0  0  0  0
  151.7771  139.9951  156.3570 H   0  0  0  0  0  0  0  0  0  0  0  0
  150.5339  142.1564  159.2305 H   0  0  0  0  0  0  0  0  0  0  0  0
  151.8800  142.6955  161.0562 H   0  0  0  0  0  0  0  0  0  0  0  0
  153.3456  142.3681  160.1391 H   0  0  0  0  0  0  0  0  0  0  0  0
  153.4308  144.8051  160.4226 H   0  0  0  0  0  0  0  0  0  0  0  0
  150.7660  144.8742  160.9334 H   0  0  0  0  0  0  0  0  0  0  0  0
  151.4442  146.2175  160.0131 H   0  0  0  0  0  0  0  0  0  0  0  0
  149.5343  144.2574  158.9986 H   0  0  0  0  0  0  0  0  0  0  0  0
  150.2973  145.5787  158.1186 H   0  0  0  0  0  0  0  0  0  0  0  0
  151.2302  143.5964  157.0056 H   0  0  0  0  0  0  0  0  0  0  0  0
  152.8870  145.4045  157.9223 H   0  0  0  0  0  0  0  0  0  0  0  0
  153.6615  143.8069  158.0033 H   0  0  0  0  0  0  0  0  0  0  0  0
  1  2  1  0  0  0  0
  1 21  1  0  0  0  0
  1 22  1  0  0  0  0
  1 23  1  0  0  0  0
  2  7  1  0  0  0  0
  2  3  2  0  0  0  0
  3  4  1  0  0  0  0
  4  5  1  0  0  0  0
  5  6  1  0  0  0  0
  5  7  2  0  0  0  0
  7  8  1  0  0  0  0
  8  9  1  0  0  0  0
  8 24  1  0  0  0  0
  8 25  1  0  0  0  0
  9 10  2  0  0  0  0
  9 11  1  0  0  0  0
 11 12  1  0  0  0  0
 11 26  1  0  0  0  0
 12 13  1  0  0  0  0
 12 14  1  0  0  0  0
 12 27  1  0  0  0  0
 13 28  1  0  0  0  0
 13 29  1  0  0  0  0
 13 30  1  0  0  0  0
 14 19  1  0  0  0  0
 14 15  1  0  0  0  0
 14 31  1  0  0  0  0
 15 16  1  0  0  0  0
 15 32  1  0  0  0  0
 15 33  1  0  0  0  0
 16 20  1  0  0  0  0
 16 17  1  0  0  0  0
 16 34  1  0  0  0  0
 17 18  1  0  0  0  0
 17 35  1  0  0  0  0
 17 36  1  0  0  0  0
 18 19  1  0  0  0  0
 18 37  1  0  0  0  0
 18 38  1  0  0  0  0
 19 20  1  0  0  0  0
 19 39  1  0  0  0  0
 20 40  1  0  0  0  0
 20 41  1  0  0  0  0
M  END
> <s_m_source_file>
AV-unprocessed.smi

> <i_m_source_file_index>
1686

> <i_lp_mmshare_version>
43012

> <i_f3d_flags>
0

> <s_epik_input>
W0NIM11jMW5vYyhDbCljMVtDSDJdQyg9TylbTkhdW0NASF0oW0NIM10pW0NASF0oW0NIMl1bQ0BIXTIzKVtDQEhdKFtDSDJdMylbQ0gyXVtDSDJdMg==

> <s_epik_cmdline>
J2VwaWtfcHl0aG9uJywgJy1waCcsICc3LjAnLCAnLXRuJywgJzgnLCAnLW1hJywgJzIwMCcsICctbWV0YWxfYmluZGluZycsICctaW1hZScsICc8aW5maWxlLm1hZT4nLCAnLW9tYWUnLCAnPG91dGZpbGUubWFlPic=

> <r_lp_tautomer_probability>
1

> <r_epik_Ionization_Penalty>
2.01576e-08

> <r_epik_Ionization_Penalty_Charging>
0

> <r_epik_Ionization_Penalty_Neutral>
2.01576e-08

> <r_epik_State_Penalty>
-0

> <r_epik_Charging_Adjusted_Penalty>
0

> <i_epik_Tot_Q>
0

> <i_epik_Tot_abs_Q>
0

> <r_epik_Metal_State_Penalty>
-0

> <b_epik_Metal_Only>
0

> <s_lp_Force_Field>
OPLS_2005

> <r_lp_Energy>
46.9137

> <b_lp_Chiralities_Consistent>
1

> <s_lp_Variant>
AV-unprocessed.smi:1686-4

> <Gold.Version>
5.8.1

> <Gold.Id.Protein>
6NUR|6NUR_protein|mol2

> <Gold.PLP.Fitness>
41.7249

> <Gold.PLP.PLP>
-39.7041

> <Gold.PLP.part.hbond>
-1.0000

> <Gold.PLP.part.metal>
0.0000

> <Gold.PLP.part.buried>
-4.6438

> <Gold.PLP.part.nonpolar>
-34.1684

> <Gold.PLP.part.repulsive>
0.1312

> <Gold.PLP.ligand.clash>
0.0000

> <Gold.PLP.ligand.torsion>
0.5076

> <Gold.PLP.Chemscore.Hbond>
1.0000

> <Gold.PLP.Chemscore.CHOScore>
0.0000

> <Gold.PLP.Chemscore.Metal>
0.0000

> <Gold.Chemscore.Hbonds>
donor molecule, donor type, donor heavy atom, donor atom, acceptor molecule, acceptor atom, score
      P1  H  7997  8008       L1    10  1.00

> <Gold.PLP.Chemscore.Internal.Correction>
0.0360

> <Gold.Rescore>
     Score         DG    S(hbond)    S(metal)    S(lipo)     H(rot)  DE(clash)    DE(int)     intcor
     20.25     -20.48       1.00        0.00     131.69       1.46       0.00       0.23       ----

> <Gold.Chemscore.Fitness>
20.2485

> <Gold.Chemscore.DG>
-20.4777

> <Gold.Chemscore.ZeroCoef>
-5.4800

> <Gold.Chemscore.Hbond>
1.0000

> <Gold.Chemscore.Metal>
0.0000

> <Gold.Chemscore.Lipo>
131.6899

> <Gold.Chemscore.Internal_Hbond>
0.0000

> <Gold.Chemscore.DEClash>
0.0019

> <Gold.Chemscore.DEInternal>
0.2273

> <Gold.Chemscore.Rot>
1.4648

> <Gold.Chemscore.Internal.Correction>
   9.000000E+99

> <Gold.Chemscore.Hbonds>
donor molecule, donor type, donor heavy atom, donor atom, acceptor molecule, acceptor atom, score
      P1  H  7997  8008       L1    10  1.00

> <Gold.Chemscore.Hbond.Weighted>
-3.3399

> <Gold.Chemscore.Metal.Weighted>
-0.0000

> <Gold.Chemscore.Lipo.Weighted>
-15.4077

> <Gold.Chemscore.Internal_Hbond.Weighted>
0.0000

> <Gold.Chemscore.DEClash.Weighted>
0.0019

> <Gold.Chemscore.DEInternal.Weighted>
0.2273

> <Gold.Chemscore.Rot.Weighted>
3.7500

> <Gold.Chemscore.Internal.Correction.Weighted>
   9.000000E+99

> <Gold.Protein.RotatedTorsions>
[ 6907 6896 6895 6894 ] final -167.14 input  -60.11 | X-H torsion
[ 7974 7965 7964 7962 ] final  169.19 input  175.53 | X-H torsion
[ 8008 7997 7996 7995 ] final -112.95 input   59.86 | X-H torsion
[ 10167 10162 10161 10158 ] final   86.29 input  -65.29 | X-H torsion
[ 10718 10713 10712 10709 ] final  153.34 input   66.30 | X-H torsion
[ 10763 10752 10751 10750 ] final -147.38 input  -60.55 | X-H torsion
[ 11005 11000 10999 10996 ] final -111.46 input  -57.11 | X-H torsion

> <Gold.Protein.ActiveResidues>
 VAL166  LYS551  ARG553  GLY616  TRP617  ASP618  TYR619  PRO620  LYS621  CYS622 
 ASP623  PHE694  ASN695  SER759  ASP760  ASP761  ALA762  ILE779  LEU786  VAL792 
 PHE793  MET794  SER795  GLU796  ALA797  LYS798  CYS799  TRP800  GLU811  SER814 

> <Gold.Protein.RotatedAtoms>
  151.4549  133.3608  159.2800 H   0  0  0  0  0  0  0  0  0  0  0  0  # atno 6907 bound_to 6896
  150.9065  134.8482  159.7407 H   0  0  0  0  0  0  0  0  0  0  0  0  # atno 6908 bound_to 6896
  152.4909  134.4474  159.9615 H   0  0  0  0  0  0  0  0  0  0  0  0  # atno 6909 bound_to 6896
  144.7363  139.9018  143.6410 H   0  0  0  0  0  0  0  0  0  0  0  0  # atno 7974 bound_to 7965
  155.0131  140.0393  157.2407 H   0  0  0  0  0  0  0  0  0  0  0  0  # atno 8008 bound_to 7997
  154.7443  140.2755  155.6323 H   0  0  0  0  0  0  0  0  0  0  0  0  # atno 8009 bound_to 7997
  156.2871  140.2659  156.2178 H   0  0  0  0  0  0  0  0  0  0  0  0  # atno 8010 bound_to 7997
  139.8890  144.6396  150.8759 H   0  0  0  0  0  0  0  0  0  0  0  0  # atno 10167 bound_to 10162
  157.2460  131.0769  151.1761 H   0  0  0  0  0  0  0  0  0  0  0  0  # atno 10718 bound_to 10713
  154.8289  135.3362  154.6809 H   0  0  0  0  0  0  0  0  0  0  0  0  # atno 10763 bound_to 10752
  153.7431  135.6944  153.4967 H   0  0  0  0  0  0  0  0  0  0  0  0  # atno 10764 bound_to 10752
  153.2230  135.4442  155.0461 H   0  0  0  0  0  0  0  0  0  0  0  0  # atno 10765 bound_to 10752
  141.0733  133.9343  157.2441 H   0  0  0  0  0  0  0  0  0  0  0  0  # atno 11005 bound_to 11000
  146.1066  139.4067  143.0313 LP  0  0  0  0  0  0  0  0  0  0  0  0  # atno 17320 bound_to 7965
  145.7502  140.9975  143.1254 LP  0  0  0  0  0  0  0  0  0  0  0  0  # atno 17321 bound_to 7965
  140.7730  143.3525  151.1986 LP  0  0  0  0  0  0  0  0  0  0  0  0  # atno 17342 bound_to 10162
  139.7127  143.9351  152.2954 LP  0  0  0  0  0  0  0  0  0  0  0  0  # atno 17343 bound_to 10162
  157.3328  130.6994  149.6334 LP  0  0  0  0  0  0  0  0  0  0  0  0  # atno 17370 bound_to 10713
  155.9668  130.4302  150.4868 LP  0  0  0  0  0  0  0  0  0  0  0  0  # atno 17371 bound_to 10713
  139.9546  135.0168  156.9090 LP  0  0  0  0  0  0  0  0  0  0  0  0  # atno 17394 bound_to 11000
  140.5627  134.0519  155.7404 LP  0  0  0  0  0  0  0  0  0  0  0  0  # atno 17395 bound_to 11000

$$$$
