AV-unprocessed.smi:668|AV-procd|sdf|3260|dock10
  -GOLD-   22720 0213D 1   1.00000     0.00000
 Structure written by MMmdl.
 38 39  0  0  0  0  0  0  0  0  1 V2000
  151.9327  131.2364  157.7376 C   0  0  0  0  0  0  0  0  0  0  0  0
  151.8480  132.6321  157.4718 O   0  0  0  0  0  0  0  0  0  0  0  0
  150.9719  133.0613  156.4960 C   0  0  0  0  0  0  0  0  0  0  0  0
  150.9531  134.4298  156.1616 C   0  0  0  0  0  0  0  0  0  0  0  0
  150.0601  134.8775  155.1694 C   0  0  0  0  0  0  0  0  0  0  0  0
  149.2149  133.9359  154.5340 C   0  0  0  0  0  0  0  0  0  0  0  0
  148.2587  134.2533  153.5305 N   0  0  0  0  0  0  0  0  0  0  0  0
  147.0184  133.7658  153.3561 C   0  0  0  0  0  0  0  0  0  0  0  0
  146.4624  132.9438  154.0837 O   0  0  0  0  0  0  0  0  0  0  0  0
  146.4401  134.2976  152.2701 N   0  0  0  0  0  0  0  0  0  0  0  0
  145.0984  133.9668  151.7865 C   0  0  1  0  0  0  0  0  0  0  0  0
  144.9011  134.4270  150.3300 C   0  0  0  0  0  0  0  0  0  0  0  0
  144.1219  133.3159  149.6142 C   0  0  0  0  0  0  0  0  0  0  0  0
  143.7009  132.3253  150.7038 C   0  0  0  0  0  0  0  0  0  0  0  0
  144.7502  132.4548  151.8180 C   0  0  1  0  0  0  0  0  0  0  0  0
  145.9414  131.5034  151.5701 C   0  0  0  0  0  0  0  0  0  0  0  0
  146.6441  131.6940  150.4507 N   0  0  0  0  0  0  0  0  0  0  0  0
  146.2194  130.6083  152.3666 O   0  0  0  0  0  0  0  0  0  0  0  0
  149.3064  132.5910  154.9480 C   0  0  0  0  0  0  0  0  0  0  0  0
  150.1592  132.1552  155.8988 N   0  0  0  0  0  0  0  0  0  0  0  0
  152.6639  131.0640  158.5273 H   0  0  0  0  0  0  0  0  0  0  0  0
  152.2596  130.6806  156.8576 H   0  0  0  0  0  0  0  0  0  0  0  0
  150.9768  130.8370  158.0793 H   0  0  0  0  0  0  0  0  0  0  0  0
  151.6097  135.1265  156.6616 H   0  0  0  0  0  0  0  0  0  0  0  0
  150.0386  135.9289  154.9314 H   0  0  0  0  0  0  0  0  0  0  0  0
  148.5459  134.9664  152.8761 H   0  0  0  0  0  0  0  0  0  0  0  0
  146.9671  134.9654  151.7264 H   0  0  0  0  0  0  0  0  0  0  0  0
  144.3659  134.4939  152.4015 H   0  0  0  0  0  0  0  0  0  0  0  0
  144.3598  135.3734  150.2982 H   0  0  0  0  0  0  0  0  0  0  0  0
  145.8547  134.5862  149.8243 H   0  0  0  0  0  0  0  0  0  0  0  0
  143.2636  133.7034  149.0644 H   0  0  0  0  0  0  0  0  0  0  0  0
  144.7715  132.8198  148.8922 H   0  0  0  0  0  0  0  0  0  0  0  0
  142.7243  132.6106  151.0972 H   0  0  0  0  0  0  0  0  0  0  0  0
  143.6038  131.3097  150.3171 H   0  0  0  0  0  0  0  0  0  0  0  0
  144.3033  132.1994  152.7805 H   0  0  0  0  0  0  0  0  0  0  0  0
  147.4358  131.1020  150.2449 H   0  0  0  0  0  0  0  0  0  0  0  0
  146.3835  132.4345  149.8158 H   0  0  0  0  0  0  0  0  0  0  0  0
  148.6754  131.8365  154.5010 H   0  0  0  0  0  0  0  0  0  0  0  0
  1  2  1  0  0  0  0
  1 21  1  0  0  0  0
  1 22  1  0  0  0  0
  1 23  1  0  0  0  0
  2  3  1  0  0  0  0
  3 20  1  0  0  0  0
  3  4  2  0  0  0  0
  4  5  1  0  0  0  0
  4 24  1  0  0  0  0
  5  6  2  0  0  0  0
  5 25  1  0  0  0  0
  6  7  1  0  0  0  0
  6 19  1  0  0  0  0
  7  8  1  0  0  0  0
  7 26  1  0  0  0  0
  8  9  2  0  0  0  0
  8 10  1  0  0  0  0
 10 11  1  0  0  0  0
 10 27  1  0  0  0  0
 11 15  1  0  0  0  0
 11 12  1  0  0  0  0
 11 28  1  0  0  0  0
 12 13  1  0  0  0  0
 12 29  1  0  0  0  0
 12 30  1  0  0  0  0
 13 14  1  0  0  0  0
 13 31  1  0  0  0  0
 13 32  1  0  0  0  0
 14 15  1  0  0  0  0
 14 33  1  0  0  0  0
 14 34  1  0  0  0  0
 15 16  1  0  0  0  0
 15 35  1  0  0  0  0
 16 17  1  0  0  0  0
 16 18  2  0  0  0  0
 17 36  1  0  0  0  0
 17 37  1  0  0  0  0
 19 20  2  0  0  0  0
 19 38  1  0  0  0  0
M  END
> <s_m_source_file>
AV-unprocessed.smi

> <i_m_source_file_index>
668

> <i_lp_mmshare_version>
43012

> <i_f3d_flags>
0

> <s_epik_input>
W0NIM11PYzFbY0hdW2NIXWMoW2NIXW4xKVtOSF1DKD1PKVtOSF1bQ0BASF0yW0NIMl1bQ0gyXVtDSDJdW0NASF0yQyg9TylbTkgyXQ==

> <s_epik_cmdline>
J2VwaWtfcHl0aG9uJywgJy1waCcsICc3LjAnLCAnLXRuJywgJzgnLCAnLW1hJywgJzIwMCcsICctbWV0YWxfYmluZGluZycsICctaW1hZScsICc8aW5maWxlLm1hZT4nLCAnLW9tYWUnLCAnPG91dGZpbGUubWFlPic=

> <r_lp_tautomer_probability>
1

> <r_epik_Ionization_Penalty>
9.0916e-05

> <r_epik_Ionization_Penalty_Charging>
0

> <r_epik_Ionization_Penalty_Neutral>
9.0916e-05

> <r_epik_State_Penalty>
-0

> <r_epik_Charging_Adjusted_Penalty>
0

> <i_epik_Tot_Q>
0

> <i_epik_Tot_abs_Q>
0

> <r_epik_Metal_State_Penalty>
-0

> <b_epik_Metal_Only>
0

> <s_lp_Force_Field>
OPLS_2005

> <r_lp_Energy>
16.947

> <b_lp_Chiralities_Consistent>
1

> <s_lp_Variant>
AV-unprocessed.smi:668-2

> <Gold.Version>
5.8.1

> <Gold.Id.Protein>
6NUR|6NUR_protein|mol2

> <Gold.PLP.Fitness>
39.4196

> <Gold.PLP.PLP>
-30.7866

> <Gold.PLP.part.hbond>
-3.4104

> <Gold.PLP.part.metal>
0.0000

> <Gold.PLP.part.buried>
-3.5437

> <Gold.PLP.part.nonpolar>
-23.8187

> <Gold.PLP.part.repulsive>
0.3708

> <Gold.PLP.ligand.clash>
0.0000

> <Gold.PLP.ligand.torsion>
0.5719

> <Gold.PLP.Chemscore.Hbond>
3.2519

> <Gold.PLP.Chemscore.CHOScore>
0.0000

> <Gold.PLP.Chemscore.Metal>
0.0000

> <Gold.Chemscore.Hbonds>
donor molecule, donor type, donor heavy atom, donor atom, acceptor molecule, acceptor atom, score
      L1  H     7    26       P1  7948  1.00
      L1  H    10    27       P1  7948  0.24
      L1  H    17    36       P1 10747  1.00
      P1  H  6896  6907       L1     2  1.00

> <Gold.PLP.Chemscore.Internal.Correction>
0.0210

> <Gold.Rescore>
     Score         DG    S(hbond)    S(metal)    S(lipo)     H(rot)  DE(clash)    DE(int)     intcor
     15.47     -19.19       3.62        0.00      54.50       1.86       0.91       2.82       ----

> <Gold.Chemscore.Fitness>
15.4660

> <Gold.Chemscore.DG>
-19.1884

> <Gold.Chemscore.ZeroCoef>
-5.4800

> <Gold.Chemscore.Hbond>
3.6246

> <Gold.Chemscore.Metal>
0.0000

> <Gold.Chemscore.Lipo>
54.4968

> <Gold.Chemscore.Internal_Hbond>
0.0000

> <Gold.Chemscore.DEClash>
0.9057

> <Gold.Chemscore.DEInternal>
2.8166

> <Gold.Chemscore.Rot>
1.8648

> <Gold.Chemscore.Internal.Correction>
   9.000000E+99

> <Gold.Chemscore.Hbonds>
donor molecule, donor type, donor heavy atom, donor atom, acceptor molecule, acceptor atom, score
      L1  H     7    26       P1  7948  0.50
      L1  H    10    27       P1  7948  0.22
      L1  H    17    36       P1 10747  0.91
      P1  H  6896  6907       L1     2  0.24

> <Gold.Chemscore.Hbond.Weighted>
-12.1062

> <Gold.Chemscore.Metal.Weighted>
-0.0000

> <Gold.Chemscore.Lipo.Weighted>
-6.3761

> <Gold.Chemscore.Internal_Hbond.Weighted>
0.0000

> <Gold.Chemscore.DEClash.Weighted>
0.9057

> <Gold.Chemscore.DEInternal.Weighted>
2.8166

> <Gold.Chemscore.Rot.Weighted>
4.7739

> <Gold.Chemscore.Internal.Correction.Weighted>
   9.000000E+99

> <Gold.Protein.RotatedTorsions>
[ 6907 6896 6895 6894 ] final -178.97 input  -60.11 | X-H torsion
[ 7974 7965 7964 7962 ] final  -38.80 input  175.53 | X-H torsion
[ 8008 7997 7996 7995 ] final  -95.27 input   59.86 | X-H torsion
[ 10167 10162 10161 10158 ] final -161.49 input  -65.29 | X-H torsion
[ 10718 10713 10712 10709 ] final -131.37 input   66.30 | X-H torsion
[ 10763 10752 10751 10750 ] final   -8.12 input  -60.55 | X-H torsion
[ 11005 11000 10999 10996 ] final -105.74 input  -57.11 | X-H torsion

> <Gold.Protein.ActiveResidues>
 VAL166  LYS551  ARG553  GLY616  TRP617  ASP618  TYR619  PRO620  LYS621  CYS622 
 ASP623  PHE694  ASN695  SER759  ASP760  ASP761  ALA762  ILE779  LEU786  VAL792 
 PHE793  MET794  SER795  GLU796  ALA797  LYS798  CYS799  TRP800  GLU811  SER814 

> <Gold.Protein.RotatedAtoms>
  151.6459  133.3323  159.3140 H   0  0  0  0  0  0  0  0  0  0  0  0  # atno 6907 bound_to 6896
  150.7984  134.7065  159.6589 H   0  0  0  0  0  0  0  0  0  0  0  0  # atno 6908 bound_to 6896
  152.4074  134.6187  160.0096 H   0  0  0  0  0  0  0  0  0  0  0  0  # atno 6909 bound_to 6896
  146.0454  140.6553  142.9067 H   0  0  0  0  0  0  0  0  0  0  0  0  # atno 7974 bound_to 7965
  154.7592  140.0481  157.0959 H   0  0  0  0  0  0  0  0  0  0  0  0  # atno 8008 bound_to 7997
  154.9959  140.3119  155.4867 H   0  0  0  0  0  0  0  0  0  0  0  0  # atno 8009 bound_to 7997
  156.2901  140.2210  156.5067 H   0  0  0  0  0  0  0  0  0  0  0  0  # atno 8010 bound_to 7997
  139.6461  144.0169  152.2128 H   0  0  0  0  0  0  0  0  0  0  0  0  # atno 10167 bound_to 10162
  156.2237  130.6995  151.0784 H   0  0  0  0  0  0  0  0  0  0  0  0  # atno 10718 bound_to 10713
  153.4360  135.7013  153.6200 H   0  0  0  0  0  0  0  0  0  0  0  0  # atno 10763 bound_to 10752
  153.4594  135.3739  155.2330 H   0  0  0  0  0  0  0  0  0  0  0  0  # atno 10764 bound_to 10752
  154.8726  135.4016  154.3751 H   0  0  0  0  0  0  0  0  0  0  0  0  # atno 10765 bound_to 10752
  141.1039  133.8834  157.1771 H   0  0  0  0  0  0  0  0  0  0  0  0  # atno 11005 bound_to 11000
  144.7095  140.3984  143.7092 LP  0  0  0  0  0  0  0  0  0  0  0  0  # atno 17320 bound_to 7965
  145.6815  139.1619  143.2698 LP  0  0  0  0  0  0  0  0  0  0  0  0  # atno 17321 bound_to 7965
  139.9871  144.6388  150.7848 LP  0  0  0  0  0  0  0  0  0  0  0  0  # atno 17342 bound_to 10162
  140.7515  143.2974  151.3168 LP  0  0  0  0  0  0  0  0  0  0  0  0  # atno 17343 bound_to 10162
  157.7100  131.0738  150.6533 LP  0  0  0  0  0  0  0  0  0  0  0  0  # atno 17370 bound_to 10713
  156.6598  130.4509  149.5691 LP  0  0  0  0  0  0  0  0  0  0  0  0  # atno 17371 bound_to 10713
  139.9900  135.0068  156.9954 LP  0  0  0  0  0  0  0  0  0  0  0  0  # atno 17394 bound_to 11000
  140.4953  134.1152  155.7240 LP  0  0  0  0  0  0  0  0  0  0  0  0  # atno 17395 bound_to 11000

$$$$
