AV-unprocessed.smi:3277|AV-procd|sdf|12537|dock6
  -GOLD-   2272018453D 1   1.00000     0.00000
 Structure written by MMmdl.
 35 37  0  0  0  0  0  0  0  0  1 V2000
  147.0968  139.4714  153.0341 C   0  0  0  0  0  0  0  0  0  0  0  0
  148.5167  139.5808  153.3285 N   0  0  0  0  0  0  0  0  0  0  0  0
  149.0233  139.7569  154.5583 C   0  0  0  0  0  0  0  0  0  0  0  0
  148.3294  139.8281  155.5727 O   0  0  0  0  0  0  0  0  0  0  0  0
  150.5455  139.8698  154.6630 C   0  0  0  0  0  0  0  0  0  0  0  0
  150.8709  140.4785  155.9888 C   0  0  0  0  0  0  0  0  0  0  0  0
  150.9187  141.7958  156.2025 N   0  0  0  0  0  0  0  0  0  0  0  0
  151.2166  142.1265  157.5295 C   0  0  0  0  0  0  0  0  0  0  0  0
  151.2748  143.5624  157.9895 C   0  0  1  0  0  0  0  0  0  0  0  0
  150.2895  143.9327  159.1204 C   0  0  0  0  0  0  0  0  0  0  0  0
  151.2000  144.6618  160.1284 C   0  0  1  0  0  0  0  0  0  0  0  0
  152.1054  143.6339  160.8360 C   0  0  0  0  0  0  0  0  0  0  0  0
  153.1357  143.2789  159.7470 C   0  0  0  0  0  0  0  0  0  0  0  0
  152.6316  144.0808  158.5297 C   0  0  2  0  0  0  0  0  0  0  0  0
  152.1905  145.3732  159.2121 C   0  0  0  0  0  0  0  0  0  0  0  0
  151.4165  141.0202  158.3184 C   0  0  0  0  0  0  0  0  0  0  0  0
  151.2245  139.5337  157.4295 S   0  0  0  0  0  0  0  0  0  0  0  0
  146.9477  139.3654  151.9598 H   0  0  0  0  0  0  0  0  0  0  0  0
  146.5618  140.3620  153.3655 H   0  0  0  0  0  0  0  0  0  0  0  0
  146.6638  138.6003  153.5272 H   0  0  0  0  0  0  0  0  0  0  0  0
  149.1562  139.5375  152.5479 H   0  0  0  0  0  0  0  0  0  0  0  0
  151.0086  138.8857  154.5858 H   0  0  0  0  0  0  0  0  0  0  0  0
  150.9433  140.4903  153.8587 H   0  0  0  0  0  0  0  0  0  0  0  0
  151.0213  144.1905  157.1336 H   0  0  0  0  0  0  0  0  0  0  0  0
  149.5048  144.5911  158.7457 H   0  0  0  0  0  0  0  0  0  0  0  0
  149.8018  143.0706  159.5767 H   0  0  0  0  0  0  0  0  0  0  0  0
  150.6576  145.3115  160.8158 H   0  0  0  0  0  0  0  0  0  0  0  0
  152.6005  144.0768  161.7010 H   0  0  0  0  0  0  0  0  0  0  0  0
  151.5479  142.7617  161.1797 H   0  0  0  0  0  0  0  0  0  0  0  0
  154.1251  143.6313  160.0417 H   0  0  0  0  0  0  0  0  0  0  0  0
  153.2261  142.2091  159.5690 H   0  0  0  0  0  0  0  0  0  0  0  0
  153.3879  144.2080  157.7545 H   0  0  0  0  0  0  0  0  0  0  0  0
  151.7173  146.0855  158.5337 H   0  0  0  0  0  0  0  0  0  0  0  0
  152.9945  145.8771  159.7516 H   0  0  0  0  0  0  0  0  0  0  0  0
  151.6563  140.9897  159.3709 H   0  0  0  0  0  0  0  0  0  0  0  0
  1  2  1  0  0  0  0
  1 18  1  0  0  0  0
  1 19  1  0  0  0  0
  1 20  1  0  0  0  0
  2  3  1  0  0  0  0
  2 21  1  0  0  0  0
  3  4  2  0  0  0  0
  3  5  1  0  0  0  0
  5  6  1  0  0  0  0
  5 22  1  0  0  0  0
  5 23  1  0  0  0  0
  6 17  1  0  0  0  0
  6  7  2  0  0  0  0
  7  8  1  0  0  0  0
  8  9  1  0  0  0  0
  8 16  2  0  0  0  0
  9 14  1  0  0  0  0
  9 10  1  0  0  0  0
  9 24  1  0  0  0  0
 10 11  1  0  0  0  0
 10 25  1  0  0  0  0
 10 26  1  0  0  0  0
 11 15  1  0  0  0  0
 11 12  1  0  0  0  0
 11 27  1  0  0  0  0
 12 13  1  0  0  0  0
 12 28  1  0  0  0  0
 12 29  1  0  0  0  0
 13 14  1  0  0  0  0
 13 30  1  0  0  0  0
 13 31  1  0  0  0  0
 14 15  1  0  0  0  0
 14 32  1  0  0  0  0
 15 33  1  0  0  0  0
 15 34  1  0  0  0  0
 16 17  1  0  0  0  0
 16 35  1  0  0  0  0
M  END
> <s_m_source_file>
AV-unprocessed.smi

> <i_m_source_file_index>
3277

> <i_lp_mmshare_version>
43012

> <i_f3d_flags>
0

> <s_epik_input>
W0NIM11bTkhdQyg9TylbQ0gyXWMxbmMoW2NIXXMxKVtDQEhdKFtDSDJdW0NAQEhdMjMpW0NAQEhdKFtDSDJdMylbQ0gyXVtDSDJdMg==

> <s_epik_cmdline>
J2VwaWtfcHl0aG9uJywgJy1waCcsICc3LjAnLCAnLXRuJywgJzgnLCAnLW1hJywgJzIwMCcsICctbWV0YWxfYmluZGluZycsICctaW1hZScsICc8aW5maWxlLm1hZT4nLCAnLW9tYWUnLCAnPG91dGZpbGUubWFlPic=

> <r_lp_tautomer_probability>
1

> <r_epik_Ionization_Penalty>
8.50008e-05

> <r_epik_Ionization_Penalty_Charging>
0

> <r_epik_Ionization_Penalty_Neutral>
8.50008e-05

> <r_epik_State_Penalty>
-0

> <r_epik_Charging_Adjusted_Penalty>
0

> <i_epik_Tot_Q>
0

> <i_epik_Tot_abs_Q>
0

> <r_epik_Metal_State_Penalty>
-0

> <b_epik_Metal_Only>
0

> <s_lp_Force_Field>
OPLS_2005

> <r_lp_Energy>
45.709

> <b_lp_Chiralities_Consistent>
1

> <s_lp_Variant>
AV-unprocessed.smi:3277-2

> <Gold.Version>
5.8.1

> <Gold.Id.Protein>
6NUR|6NUR_protein|mol2

> <Gold.PLP.Fitness>
42.3340

> <Gold.PLP.PLP>
-40.5430

> <Gold.PLP.part.hbond>
-0.7527

> <Gold.PLP.part.metal>
0.0000

> <Gold.PLP.part.buried>
-3.2031

> <Gold.PLP.part.nonpolar>
-36.8447

> <Gold.PLP.part.repulsive>
0.2053

> <Gold.PLP.ligand.clash>
0.0000

> <Gold.PLP.ligand.torsion>
0.6063

> <Gold.PLP.Chemscore.Hbond>
1.0000

> <Gold.PLP.Chemscore.CHOScore>
0.0000

> <Gold.PLP.Chemscore.Metal>
0.0000

> <Gold.Chemscore.Hbonds>
donor molecule, donor type, donor heavy atom, donor atom, acceptor molecule, acceptor atom, score
      L1  H     2    21       P1  7957  1.00

> <Gold.PLP.Chemscore.Internal.Correction>
0.0035

> <Gold.Rescore>
     Score         DG    S(hbond)    S(metal)    S(lipo)     H(rot)  DE(clash)    DE(int)     intcor
     18.65     -19.69       1.00        0.00     123.95       1.41       0.39       0.66       ----

> <Gold.Chemscore.Fitness>
18.6478

> <Gold.Chemscore.DG>
-19.6915

> <Gold.Chemscore.ZeroCoef>
-5.4800

> <Gold.Chemscore.Hbond>
0.9955

> <Gold.Chemscore.Metal>
0.0000

> <Gold.Chemscore.Lipo>
123.9464

> <Gold.Chemscore.Internal_Hbond>
0.0000

> <Gold.Chemscore.DEClash>
0.3867

> <Gold.Chemscore.DEInternal>
0.6571

> <Gold.Chemscore.Rot>
1.4122

> <Gold.Chemscore.Internal.Correction>
   9.000000E+99

> <Gold.Chemscore.Hbonds>
donor molecule, donor type, donor heavy atom, donor atom, acceptor molecule, acceptor atom, score
      L1  H     2    21       P1  7957  0.89

> <Gold.Chemscore.Hbond.Weighted>
-3.3249

> <Gold.Chemscore.Metal.Weighted>
-0.0000

> <Gold.Chemscore.Lipo.Weighted>
-14.5017

> <Gold.Chemscore.Internal_Hbond.Weighted>
0.0000

> <Gold.Chemscore.DEClash.Weighted>
0.3867

> <Gold.Chemscore.DEInternal.Weighted>
0.6571

> <Gold.Chemscore.Rot.Weighted>
3.6151

> <Gold.Chemscore.Internal.Correction.Weighted>
   9.000000E+99

> <Gold.Protein.RotatedTorsions>
[ 6907 6896 6895 6894 ] final  130.64 input  -60.11 | X-H torsion
[ 7974 7965 7964 7962 ] final   48.97 input  175.53 | X-H torsion
[ 8008 7997 7996 7995 ] final  161.32 input   59.86 | X-H torsion
[ 10167 10162 10161 10158 ] final   53.04 input  -65.29 | X-H torsion
[ 10718 10713 10712 10709 ] final -120.54 input   66.30 | X-H torsion
[ 10763 10752 10751 10750 ] final   47.91 input  -60.55 | X-H torsion
[ 11005 11000 10999 10996 ] final  -38.66 input  -57.11 | X-H torsion

> <Gold.Protein.ActiveResidues>
 VAL166  LYS551  ARG553  GLY616  TRP617  ASP618  TYR619  PRO620  LYS621  CYS622 
 ASP623  PHE694  ASN695  SER759  ASP760  ASP761  ALA762  ILE779  LEU786  VAL792 
 PHE793  MET794  SER795  GLU796  ALA797  LYS798  CYS799  TRP800  GLU811  SER814 

> <Gold.Protein.RotatedAtoms>
  152.3506  133.6175  159.5941 H   0  0  0  0  0  0  0  0  0  0  0  0  # atno 6907 bound_to 6896
  150.7535  133.9580  159.3515 H   0  0  0  0  0  0  0  0  0  0  0  0  # atno 6908 bound_to 6896
  151.7432  135.0850  160.0370 H   0  0  0  0  0  0  0  0  0  0  0  0  # atno 6909 bound_to 6896
  146.0153  139.4589  142.9931 H   0  0  0  0  0  0  0  0  0  0  0  0  # atno 7974 bound_to 7965
  156.2111  140.1780  156.7693 H   0  0  0  0  0  0  0  0  0  0  0  0  # atno 8008 bound_to 7997
  154.5724  140.0680  156.9013 H   0  0  0  0  0  0  0  0  0  0  0  0  # atno 8009 bound_to 7997
  155.2649  140.3338  155.4272 H   0  0  0  0  0  0  0  0  0  0  0  0  # atno 8010 bound_to 7997
  140.2450  144.3542  150.6367 H   0  0  0  0  0  0  0  0  0  0  0  0  # atno 10167 bound_to 10162
  156.1266  130.6364  150.9553 H   0  0  0  0  0  0  0  0  0  0  0  0  # atno 10718 bound_to 10713
  152.9796  135.5961  154.3839 H   0  0  0  0  0  0  0  0  0  0  0  0  # atno 10763 bound_to 10752
  154.3501  135.2767  155.2378 H   0  0  0  0  0  0  0  0  0  0  0  0  # atno 10764 bound_to 10752
  154.4421  135.6010  153.6191 H   0  0  0  0  0  0  0  0  0  0  0  0  # atno 10765 bound_to 10752
  141.0044  133.6939  156.2083 H   0  0  0  0  0  0  0  0  0  0  0  0  # atno 11005 bound_to 11000
  145.7278  141.0053  143.1368 LP  0  0  0  0  0  0  0  0  0  0  0  0  # atno 17320 bound_to 7965
  144.6968  139.8948  143.7455 LP  0  0  0  0  0  0  0  0  0  0  0  0  # atno 17321 bound_to 7965
  140.6084  143.2168  151.6934 LP  0  0  0  0  0  0  0  0  0  0  0  0  # atno 17342 bound_to 10162
  139.5065  144.3681  152.0497 LP  0  0  0  0  0  0  0  0  0  0  0  0  # atno 17343 bound_to 10162
  157.6447  131.0905  150.8177 LP  0  0  0  0  0  0  0  0  0  0  0  0  # atno 17370 bound_to 10713
  156.8267  130.5002  149.5336 LP  0  0  0  0  0  0  0  0  0  0  0  0  # atno 17371 bound_to 10713
  140.6837  134.4740  157.5589 LP  0  0  0  0  0  0  0  0  0  0  0  0  # atno 17394 bound_to 11000
  139.9055  134.8458  156.1722 LP  0  0  0  0  0  0  0  0  0  0  0  0  # atno 17395 bound_to 11000

$$$$
