AV-unprocessed.smi:765|AV-procd|sdf|3645|dock5
  -GOLD-   22720 1 43D 1   1.00000     0.00000
 Structure written by MMmdl.
 39 40  0  0  0  0  0  0  0  0  1 V2000
  147.5811  137.5805  156.4197 C   0  0  0  0  0  0  0  0  0  0  0  0
  148.6517  138.4815  155.7881 C   0  0  2  0  0  0  0  0  0  0  0  0
  149.9501  137.7022  155.5121 C   0  0  0  0  0  0  0  0  0  0  0  0
  151.0294  138.6039  154.8966 C   0  0  0  0  0  0  0  0  0  0  0  0
  151.2961  139.8289  155.7861 C   0  0  0  0  0  0  0  0  0  0  0  0
  150.0147  140.6487  156.0541 C   0  0  2  0  0  0  0  0  0  0  0  0
  149.5332  141.2308  154.7848 C   0  0  0  0  0  0  0  0  0  0  0  0
  149.1561  141.6877  153.7906 N   0  0  0  0  0  0  0  0  0  0  0  0
  150.3686  141.7014  157.0086 N   0  0  0  0  0  0  0  0  0  0  0  0
  151.1328  141.5746  158.1070 C   0  0  0  0  0  0  0  0  0  0  0  0
  151.6707  140.5177  158.4381 O   0  0  0  0  0  0  0  0  0  0  0  0
  151.3009  142.8419  158.9595 C   0  0  2  0  0  0  0  0  0  0  0  0
  151.9132  144.0171  158.1750 C   0  0  0  0  0  0  0  0  0  0  0  0
  152.0834  142.5492  160.1536 N   0  0  0  0  0  0  0  0  0  0  0  0
  153.3631  142.0364  160.2483 C   0  0  0  0  0  0  0  0  0  0  0  0
  153.6702  141.9443  161.5752 C   0  0  0  0  0  0  0  0  0  0  0  0
  152.5036  142.4336  162.2260 C   0  0  0  0  0  0  0  0  0  0  0  0
  151.5582  142.7958  161.3742 N   0  0  0  0  0  0  0  0  0  0  0  0
  148.9424  139.7139  156.6692 C   0  0  0  0  0  0  0  0  0  0  0  0
  147.9074  137.1918  157.3848 H   0  0  0  0  0  0  0  0  0  0  0  0
  147.3557  136.7292  155.7768 H   0  0  0  0  0  0  0  0  0  0  0  0
  146.6514  138.1276  156.5782 H   0  0  0  0  0  0  0  0  0  0  0  0
  148.2582  138.8303  154.8325 H   0  0  0  0  0  0  0  0  0  0  0  0
  150.3255  137.2703  156.4408 H   0  0  0  0  0  0  0  0  0  0  0  0
  149.7489  136.8653  154.8425 H   0  0  0  0  0  0  0  0  0  0  0  0
  151.9510  138.0375  154.7603 H   0  0  0  0  0  0  0  0  0  0  0  0
  150.7175  138.9257  153.9025 H   0  0  0  0  0  0  0  0  0  0  0  0
  151.7252  139.4917  156.7311 H   0  0  0  0  0  0  0  0  0  0  0  0
  152.0520  140.4603  155.3170 H   0  0  0  0  0  0  0  0  0  0  0  0
  149.9717  142.6125  156.8295 H   0  0  0  0  0  0  0  0  0  0  0  0
  150.3012  143.1476  159.2750 H   0  0  0  0  0  0  0  0  0  0  0  0
  151.3281  144.2459  157.2835 H   0  0  0  0  0  0  0  0  0  0  0  0
  152.9348  143.8036  157.8576 H   0  0  0  0  0  0  0  0  0  0  0  0
  151.9408  144.9189  158.7871 H   0  0  0  0  0  0  0  0  0  0  0  0
  153.9413  141.7816  159.3720 H   0  0  0  0  0  0  0  0  0  0  0  0
  154.5887  141.5840  162.0141 H   0  0  0  0  0  0  0  0  0  0  0  0
  152.3176  142.5369  163.2848 H   0  0  0  0  0  0  0  0  0  0  0  0
  148.0137  140.2626  156.8292 H   0  0  0  0  0  0  0  0  0  0  0  0
  149.2704  139.3806  157.6552 H   0  0  0  0  0  0  0  0  0  0  0  0
  1  2  1  0  0  0  0
  1 20  1  0  0  0  0
  1 21  1  0  0  0  0
  1 22  1  0  0  0  0
  2 19  1  0  0  0  0
  2  3  1  0  0  0  0
  2 23  1  0  0  0  0
  3  4  1  0  0  0  0
  3 24  1  0  0  0  0
  3 25  1  0  0  0  0
  4  5  1  0  0  0  0
  4 26  1  0  0  0  0
  4 27  1  0  0  0  0
  5  6  1  0  0  0  0
  5 28  1  0  0  0  0
  5 29  1  0  0  0  0
  6  7  1  0  0  0  0
  6  9  1  0  0  0  0
  6 19  1  0  0  0  0
  7  8  3  0  0  0  0
  9 10  1  0  0  0  0
  9 30  1  0  0  0  0
 10 11  2  0  0  0  0
 10 12  1  0  0  0  0
 12 13  1  0  0  0  0
 12 14  1  0  0  0  0
 12 31  1  0  0  0  0
 13 32  1  0  0  0  0
 13 33  1  0  0  0  0
 13 34  1  0  0  0  0
 14 18  1  0  0  0  0
 14 15  1  0  0  0  0
 15 16  2  0  0  0  0
 15 35  1  0  0  0  0
 16 17  1  0  0  0  0
 16 36  1  0  0  0  0
 17 18  2  0  0  0  0
 17 37  1  0  0  0  0
 19 38  1  0  0  0  0
 19 39  1  0  0  0  0
M  END
> <s_m_source_file>
AV-unprocessed.smi

> <i_m_source_file_index>
765

> <i_lp_mmshare_version>
43012

> <i_f3d_flags>
0

> <s_epik_input>
W0NIM11bQ0BASF0oW0NIMl0xKVtDSDJdW0NIMl1bQ0gyXVtDQEBdMShDI04pW05IXUMoPU8pW0NASF0oW0NIM10pbjJbY0hdW2NIXVtjSF1uMg==

> <s_epik_cmdline>
J2VwaWtfcHl0aG9uJywgJy1waCcsICc3LjAnLCAnLXRuJywgJzgnLCAnLW1hJywgJzIwMCcsICctbWV0YWxfYmluZGluZycsICctaW1hZScsICc8aW5maWxlLm1hZT4nLCAnLW9tYWUnLCAnPG91dGZpbGUubWFlPic=

> <r_lp_tautomer_probability>
1

> <r_epik_Ionization_Penalty>
2.71142e-05

> <r_epik_Ionization_Penalty_Charging>
0

> <r_epik_Ionization_Penalty_Neutral>
2.71142e-05

> <r_epik_State_Penalty>
-0

> <r_epik_Charging_Adjusted_Penalty>
0

> <i_epik_Tot_Q>
0

> <i_epik_Tot_abs_Q>
0

> <r_epik_Metal_State_Penalty>
-0

> <b_epik_Metal_Only>
0

> <s_lp_Force_Field>
OPLS_2005

> <r_lp_Energy>
10.9875

> <b_lp_Chiralities_Consistent>
1

> <s_lp_Variant>
AV-unprocessed.smi:765-3

> <Gold.Version>
5.8.1

> <Gold.Id.Protein>
6NUR|6NUR_protein|mol2

> <Gold.PLP.Fitness>
40.6738

> <Gold.PLP.PLP>
-38.1692

> <Gold.PLP.part.hbond>
-2.9671

> <Gold.PLP.part.metal>
0.0000

> <Gold.PLP.part.buried>
-5.1375

> <Gold.PLP.part.nonpolar>
-32.5532

> <Gold.PLP.part.repulsive>
0.3581

> <Gold.PLP.ligand.clash>
0.0000

> <Gold.PLP.ligand.torsion>
0.4077

> <Gold.PLP.Chemscore.Hbond>
1.0848

> <Gold.PLP.Chemscore.CHOScore>
0.0000

> <Gold.PLP.Chemscore.Metal>
0.0000

> <Gold.Chemscore.Hbonds>
donor molecule, donor type, donor heavy atom, donor atom, acceptor molecule, acceptor atom, score
      P1  H  6933  6945       L1    18  0.41
      P1  H  8011  8017       L1     8  0.64

> <Gold.PLP.Chemscore.Internal.Correction>
0.0656

> <Gold.Rescore>
     Score         DG    S(hbond)    S(metal)    S(lipo)     H(rot)  DE(clash)    DE(int)     intcor
     12.81     -15.68       1.23        0.00      83.12       1.42       0.08       2.79       ----

> <Gold.Chemscore.Fitness>
12.8126

> <Gold.Chemscore.DG>
-15.6834

> <Gold.Chemscore.ZeroCoef>
-5.4800

> <Gold.Chemscore.Hbond>
1.2301

> <Gold.Chemscore.Metal>
0.0000

> <Gold.Chemscore.Lipo>
83.1248

> <Gold.Chemscore.Internal_Hbond>
0.0000

> <Gold.Chemscore.DEClash>
0.0795

> <Gold.Chemscore.DEInternal>
2.7913

> <Gold.Chemscore.Rot>
1.4183

> <Gold.Chemscore.Internal.Correction>
   9.000000E+99

> <Gold.Chemscore.Hbonds>
donor molecule, donor type, donor heavy atom, donor atom, acceptor molecule, acceptor atom, score
      P1  H  6933  6945       L1    18  0.07
      P1  H  8011  8017       L1     8  0.64

> <Gold.Chemscore.Hbond.Weighted>
-4.1087

> <Gold.Chemscore.Metal.Weighted>
-0.0000

> <Gold.Chemscore.Lipo.Weighted>
-9.7256

> <Gold.Chemscore.Internal_Hbond.Weighted>
0.0000

> <Gold.Chemscore.DEClash.Weighted>
0.0795

> <Gold.Chemscore.DEInternal.Weighted>
2.7913

> <Gold.Chemscore.Rot.Weighted>
3.6309

> <Gold.Chemscore.Internal.Correction.Weighted>
   9.000000E+99

> <Gold.Protein.RotatedTorsions>
[ 6907 6896 6895 6894 ] final  126.61 input  -60.11 | X-H torsion
[ 7974 7965 7964 7962 ] final   21.62 input  175.53 | X-H torsion
[ 8008 7997 7996 7995 ] final   29.79 input   59.86 | X-H torsion
[ 10167 10162 10161 10158 ] final    1.55 input  -65.29 | X-H torsion
[ 10718 10713 10712 10709 ] final  105.41 input   66.30 | X-H torsion
[ 10763 10752 10751 10750 ] final  135.17 input  -60.55 | X-H torsion
[ 11005 11000 10999 10996 ] final  115.84 input  -57.11 | X-H torsion

> <Gold.Protein.ActiveResidues>
 VAL166  LYS551  ARG553  GLY616  TRP617  ASP618  TYR619  PRO620  LYS621  CYS622 
 ASP623  PHE694  ASN695  SER759  ASP760  ASP761  ALA762  ILE779  LEU786  VAL792 
 PHE793  MET794  SER795  GLU796  ALA797  LYS798  CYS799  TRP800  GLU811  SER814 

> <Gold.Protein.RotatedAtoms>
  152.3888  133.6649  159.6220 H   0  0  0  0  0  0  0  0  0  0  0  0  # atno 6907 bound_to 6896
  150.7801  133.8990  159.3344 H   0  0  0  0  0  0  0  0  0  0  0  0  # atno 6908 bound_to 6896
  151.6781  135.0967  160.0262 H   0  0  0  0  0  0  0  0  0  0  0  0  # atno 6909 bound_to 6896
  146.2064  139.8001  142.8723 H   0  0  0  0  0  0  0  0  0  0  0  0  # atno 7974 bound_to 7965
  155.0801  140.3209  155.4604 H   0  0  0  0  0  0  0  0  0  0  0  0  # atno 8008 bound_to 7997
  156.2769  140.2096  156.5875 H   0  0  0  0  0  0  0  0  0  0  0  0  # atno 8009 bound_to 7997
  154.6985  140.0509  157.0422 H   0  0  0  0  0  0  0  0  0  0  0  0  # atno 8010 bound_to 7997
  140.6677  143.7133  150.7860 H   0  0  0  0  0  0  0  0  0  0  0  0  # atno 10167 bound_to 10162
  157.6706  131.0827  150.5852 H   0  0  0  0  0  0  0  0  0  0  0  0  # atno 10718 bound_to 10713
  153.8356  135.3098  155.3422 H   0  0  0  0  0  0  0  0  0  0  0  0  # atno 10763 bound_to 10752
  154.7954  135.4758  154.0153 H   0  0  0  0  0  0  0  0  0  0  0  0  # atno 10764 bound_to 10752
  153.1607  135.6860  153.8838 H   0  0  0  0  0  0  0  0  0  0  0  0  # atno 10765 bound_to 10752
  139.9022  134.9590  156.7106 H   0  0  0  0  0  0  0  0  0  0  0  0  # atno 11005 bound_to 11000
  145.3305  141.0265  143.3449 LP  0  0  0  0  0  0  0  0  0  0  0  0  # atno 17320 bound_to 7965
  144.8802  139.4914  143.6726 LP  0  0  0  0  0  0  0  0  0  0  0  0  # atno 17321 bound_to 7965
  140.0813  143.4966  152.2528 LP  0  0  0  0  0  0  0  0  0  0  0  0  # atno 17342 bound_to 10162
  139.5933  144.7558  151.3348 LP  0  0  0  0  0  0  0  0  0  0  0  0  # atno 17343 bound_to 10162
  156.6152  130.4391  149.5843 LP  0  0  0  0  0  0  0  0  0  0  0  0  # atno 17370 bound_to 10713
  156.2399  130.6845  151.1545 LP  0  0  0  0  0  0  0  0  0  0  0  0  # atno 17371 bound_to 10713
  140.7078  133.9249  155.8065 LP  0  0  0  0  0  0  0  0  0  0  0  0  # atno 17394 bound_to 11000
  141.0323  134.0739  157.4000 LP  0  0  0  0  0  0  0  0  0  0  0  0  # atno 17395 bound_to 11000

$$$$
