AV-unprocessed.smi:1295|AV-procd|sdf|5410|dock9
  -GOLD-   22720 4573D 1   1.00000     0.00000
 Structure written by MMmdl.
 42 43  0  0  0  0  0  0  0  0  2 V2000
  145.2647  143.5792  155.0354 C   0  0  0  0  0  0  0  0  0  0  0  0
  146.3135  142.8011  155.8007 C   0  0  0  0  0  0  0  0  0  0  0  0
  147.3272  142.3369  155.1749 N   0  0  0  0  0  0  0  0  0  0  0  0
  148.3061  141.6178  155.8814 C   0  0  0  0  0  0  0  0  0  0  0  0
  149.4795  141.1125  155.0593 C   0  0  0  0  0  0  0  0  0  0  0  0
  148.1922  141.4019  157.2235 C   0  0  0  0  0  0  0  0  0  0  0  0
  149.2360  140.6365  158.0364 C   0  0  0  0  0  0  0  0  0  0  0  0
  150.6785  141.1261  157.8926 C   0  0  0  0  0  0  0  0  0  0  0  0
  151.5197  140.4266  157.3287 O   0  0  0  0  0  0  0  0  0  0  0  0
  150.9434  142.3374  158.4060 N   0  0  0  0  0  0  0  0  0  0  0  0
  152.2243  143.0437  158.3468 C   0  0  1  0  0  0  0  0  0  0  0  0
  151.9806  144.5258  157.9985 C   0  0  0  0  0  0  0  0  0  0  0  0
  151.3050  145.2901  159.1509 C   0  0  0  0  0  0  0  0  0  0  0  0
  152.1083  145.1553  160.4532 C   0  0  0  0  0  0  0  0  0  0  0  0
  152.3400  143.6802  160.8183 C   0  0  0  0  0  0  0  0  0  0  0  0
  153.0233  142.9103  159.6688 C   0  0  1  0  0  0  0  0  0  0  0  0
  153.3102  141.4501  160.0578 C   0  0  0  0  0  0  0  0  0  0  0  0
  147.0043  141.9464  157.9057 C   0  0  0  0  0  0  0  0  0  0  0  0
  146.8440  141.7680  159.1125 O   0  0  0  0  0  0  0  0  0  0  0  0
  146.1056  142.6423  157.1522 N   0  5  0  0  0  0  0  0  0  0  0  0
  145.4212  143.4956  153.9591 H   0  0  0  0  0  0  0  0  0  0  0  0
  145.3071  144.6340  155.3076 H   0  0  0  0  0  0  0  0  0  0  0  0
  144.2677  143.2018  155.2647 H   0  0  0  0  0  0  0  0  0  0  0  0
  150.4089  141.5711  155.3971 H   0  0  0  0  0  0  0  0  0  0  0  0
  149.3528  141.3514  154.0027 H   0  0  0  0  0  0  0  0  0  0  0  0
  149.5732  140.0301  155.1459 H   0  0  0  0  0  0  0  0  0  0  0  0
  148.9463  140.6882  159.0865 H   0  0  0  0  0  0  0  0  0  0  0  0
  149.2143  139.5728  157.7986 H   0  0  0  0  0  0  0  0  0  0  0  0
  150.1840  142.8261  158.8574 H   0  0  0  0  0  0  0  0  0  0  0  0
  152.8284  142.6207  157.5423 H   0  0  0  0  0  0  0  0  0  0  0  0
  152.9355  145.0004  157.7691 H   0  0  0  0  0  0  0  0  0  0  0  0
  151.3784  144.6063  157.0925 H   0  0  0  0  0  0  0  0  0  0  0  0
  151.2007  146.3426  158.8866 H   0  0  0  0  0  0  0  0  0  0  0  0
  150.2934  144.9116  159.3038 H   0  0  0  0  0  0  0  0  0  0  0  0
  153.0690  145.6597  160.3433 H   0  0  0  0  0  0  0  0  0  0  0  0
  151.5860  145.6612  161.2658 H   0  0  0  0  0  0  0  0  0  0  0  0
  152.9521  143.6227  161.7189 H   0  0  0  0  0  0  0  0  0  0  0  0
  151.3870  143.2108  161.0662 H   0  0  0  0  0  0  0  0  0  0  0  0
  153.9930  143.3813  159.5003 H   0  0  0  0  0  0  0  0  0  0  0  0
  152.3961  140.9109  160.3071 H   0  0  0  0  0  0  0  0  0  0  0  0
  153.9671  141.3988  160.9265 H   0  0  0  0  0  0  0  0  0  0  0  0
  153.8002  140.9169  159.2427 H   0  0  0  0  0  0  0  0  0  0  0  0
  1  2  1  0  0  0  0
  1 21  1  0  0  0  0
  1 22  1  0  0  0  0
  1 23  1  0  0  0  0
  2 20  1  0  0  0  0
  2  3  2  0  0  0  0
  3  4  1  0  0  0  0
  4  5  1  0  0  0  0
  4  6  2  0  0  0  0
  5 24  1  0  0  0  0
  5 25  1  0  0  0  0
  5 26  1  0  0  0  0
  6  7  1  0  0  0  0
  6 18  1  0  0  0  0
  7  8  1  0  0  0  0
  7 27  1  0  0  0  0
  7 28  1  0  0  0  0
  8  9  2  0  0  0  0
  8 10  1  0  0  0  0
 10 11  1  0  0  0  0
 10 29  1  0  0  0  0
 11 16  1  0  0  0  0
 11 12  1  0  0  0  0
 11 30  1  0  0  0  0
 12 13  1  0  0  0  0
 12 31  1  0  0  0  0
 12 32  1  0  0  0  0
 13 14  1  0  0  0  0
 13 33  1  0  0  0  0
 13 34  1  0  0  0  0
 14 15  1  0  0  0  0
 14 35  1  0  0  0  0
 14 36  1  0  0  0  0
 15 16  1  0  0  0  0
 15 37  1  0  0  0  0
 15 38  1  0  0  0  0
 16 17  1  0  0  0  0
 16 39  1  0  0  0  0
 17 40  1  0  0  0  0
 17 41  1  0  0  0  0
 17 42  1  0  0  0  0
 18 19  2  0  0  0  0
 18 20  1  0  0  0  0
M  CHG  1  20  -1
M  END
> <s_m_source_file>
AV-unprocessed.smi

> <i_m_source_file_index>
1295

> <i_lp_mmshare_version>
43012

> <i_f3d_flags>
0

> <s_epik_input>
W0NIM11jMW5jKFtDSDNdKWMoYyg9TylbbkhdMSlbQ0gyXUMoPU8pW05IXVtDQEBIXTJbQ0gyXVtDSDJdW0NIMl1bQ0gyXVtDQEhdMltDSDNd

> <s_epik_cmdline>
J2VwaWtfcHl0aG9uJywgJy1waCcsICc3LjAnLCAnLXRuJywgJzgnLCAnLW1hJywgJzIwMCcsICctbWV0YWxfYmluZGluZycsICctaW1hZScsICc8aW5maWxlLm1hZT4nLCAnLW9tYWUnLCAnPG91dGZpbGUubWFlPic=

> <r_lp_tautomer_probability>
0.839158

> <r_epik_Ionization_Penalty>
6.67742

> <r_epik_Ionization_Penalty_Charging>
7.78154e-08

> <r_epik_Ionization_Penalty_Neutral>
6.67742

> <r_epik_State_Penalty>
4.51991

> <r_epik_Charging_Adjusted_Penalty>
4.51991

> <i_epik_Tot_Q>
-1

> <i_epik_Tot_abs_Q>
1

> <r_epik_Metal_State_Penalty>
0.853272

> <b_epik_Metal_Only>
1

> <s_lp_Force_Field>
OPLS_2005

> <r_lp_Energy>
15.7399

> <b_lp_Chiralities_Consistent>
1

> <s_lp_Variant>
AV-unprocessed.smi:1295-10

> <Gold.Version>
5.8.1

> <Gold.Id.Protein>
6NUR|6NUR_protein|mol2

> <Gold.PLP.Fitness>
44.4333

> <Gold.PLP.PLP>
-43.4444

> <Gold.PLP.part.hbond>
-1.0000

> <Gold.PLP.part.metal>
0.0000

> <Gold.PLP.part.buried>
-5.8600

> <Gold.PLP.part.nonpolar>
-36.6209

> <Gold.PLP.part.repulsive>
0.7035

> <Gold.PLP.ligand.clash>
0.0000

> <Gold.PLP.ligand.torsion>
0.3654

> <Gold.PLP.Chemscore.Hbond>
0.5710

> <Gold.PLP.Chemscore.CHOScore>
0.0000

> <Gold.PLP.Chemscore.Metal>
0.0000

> <Gold.Chemscore.Hbonds>
donor molecule, donor type, donor heavy atom, donor atom, acceptor molecule, acceptor atom, score
      P1  H  6934  6946       L1    19  0.67

> <Gold.PLP.Chemscore.Internal.Correction>
0.0068

> <Gold.Rescore>
     Score         DG    S(hbond)    S(metal)    S(lipo)     H(rot)  DE(clash)    DE(int)     intcor
     15.91     -16.26       0.91        0.00      97.84       1.45       0.00       0.35       ----

> <Gold.Chemscore.Fitness>
15.9133

> <Gold.Chemscore.DG>
-16.2650

> <Gold.Chemscore.ZeroCoef>
-5.4800

> <Gold.Chemscore.Hbond>
0.9093

> <Gold.Chemscore.Metal>
0.0000

> <Gold.Chemscore.Lipo>
97.8398

> <Gold.Chemscore.Internal_Hbond>
0.0000

> <Gold.Chemscore.DEClash>
0.0004

> <Gold.Chemscore.DEInternal>
0.3512

> <Gold.Chemscore.Rot>
1.4450

> <Gold.Chemscore.Internal.Correction>
   9.000000E+99

> <Gold.Chemscore.Hbonds>
donor molecule, donor type, donor heavy atom, donor atom, acceptor molecule, acceptor atom, score
      P1  H  6934  6946       L1    19  0.68

> <Gold.Chemscore.Hbond.Weighted>
-3.0369

> <Gold.Chemscore.Metal.Weighted>
-0.0000

> <Gold.Chemscore.Lipo.Weighted>
-11.4473

> <Gold.Chemscore.Internal_Hbond.Weighted>
0.0000

> <Gold.Chemscore.DEClash.Weighted>
0.0004

> <Gold.Chemscore.DEInternal.Weighted>
0.3512

> <Gold.Chemscore.Rot.Weighted>
3.6992

> <Gold.Chemscore.Internal.Correction.Weighted>
   9.000000E+99

> <Gold.Protein.RotatedTorsions>
[ 6907 6896 6895 6894 ] final   80.67 input  -60.11 | X-H torsion
[ 7974 7965 7964 7962 ] final  -77.69 input  175.53 | X-H torsion
[ 8008 7997 7996 7995 ] final  102.72 input   59.86 | X-H torsion
[ 10167 10162 10161 10158 ] final  -65.67 input  -65.29 | X-H torsion
[ 10718 10713 10712 10709 ] final -159.48 input   66.30 | X-H torsion
[ 10763 10752 10751 10750 ] final  164.94 input  -60.55 | X-H torsion
[ 11005 11000 10999 10996 ] final  -56.05 input  -57.11 | X-H torsion

> <Gold.Protein.ActiveResidues>
 VAL166  LYS551  ARG553  GLY616  TRP617  ASP618  TYR619  PRO620  LYS621  CYS622 
 ASP623  PHE694  ASN695  SER759  ASP760  ASP761  ALA762  ILE779  LEU786  VAL792 
 PHE793  MET794  SER795  GLU796  ALA797  LYS798  CYS799  TRP800  GLU811  SER814 

> <Gold.Protein.RotatedAtoms>
  152.5243  134.3321  159.9186 H   0  0  0  0  0  0  0  0  0  0  0  0  # atno 6907 bound_to 6896
  151.3270  133.4010  159.2667 H   0  0  0  0  0  0  0  0  0  0  0  0  # atno 6908 bound_to 6896
  150.9912  134.9263  159.7958 H   0  0  0  0  0  0  0  0  0  0  0  0  # atno 6909 bound_to 6896
  145.5963  140.9418  143.1265 H   0  0  0  0  0  0  0  0  0  0  0  0  # atno 7974 bound_to 7965
  156.1419  140.3176  155.8508 H   0  0  0  0  0  0  0  0  0  0  0  0  # atno 8008 bound_to 7997
  155.4138  140.0507  157.3047 H   0  0  0  0  0  0  0  0  0  0  0  0  # atno 8009 bound_to 7997
  154.4983  140.2119  155.9412 H   0  0  0  0  0  0  0  0  0  0  0  0  # atno 8010 bound_to 7997
  140.5712  143.2318  151.6533 H   0  0  0  0  0  0  0  0  0  0  0  0  # atno 10167 bound_to 10162
  156.5687  130.8679  151.2831 H   0  0  0  0  0  0  0  0  0  0  0  0  # atno 10718 bound_to 10713
  154.3166  135.2756  155.2540 H   0  0  0  0  0  0  0  0  0  0  0  0  # atno 10763 bound_to 10752
  154.4912  135.5833  153.6464 H   0  0  0  0  0  0  0  0  0  0  0  0  # atno 10764 bound_to 10752
  152.9881  135.6135  154.3347 H   0  0  0  0  0  0  0  0  0  0  0  0  # atno 10765 bound_to 10752
  141.1102  133.6611  156.4561 H   0  0  0  0  0  0  0  0  0  0  0  0  # atno 11005 bound_to 11000
  144.7329  139.7672  143.7340 LP  0  0  0  0  0  0  0  0  0  0  0  0  # atno 17320 bound_to 7965
  146.1609  139.4723  142.9989 LP  0  0  0  0  0  0  0  0  0  0  0  0  # atno 17321 bound_to 7965
  139.5119  144.3495  152.0666 LP  0  0  0  0  0  0  0  0  0  0  0  0  # atno 17342 bound_to 10162
  140.2632  144.4044  150.6178 LP  0  0  0  0  0  0  0  0  0  0  0  0  # atno 17343 bound_to 10162
  157.7353  130.9760  150.2074 LP  0  0  0  0  0  0  0  0  0  0  0  0  # atno 17370 bound_to 10713
  156.2734  130.3724  149.8008 LP  0  0  0  0  0  0  0  0  0  0  0  0  # atno 17371 bound_to 10713
  140.4795  134.6678  157.5164 LP  0  0  0  0  0  0  0  0  0  0  0  0  # atno 17394 bound_to 11000
  139.9992  134.6862  155.9558 LP  0  0  0  0  0  0  0  0  0  0  0  0  # atno 17395 bound_to 11000

$$$$
