AV-unprocessed.smi:930|AV-procd|sdf|4197|dock2
  -GOLD-   22720 2103D 1   1.00000     0.00000
 Structure written by MMmdl.
 31 32  0  0  0  0  0  0  0  0  2 V2000
  149.7951  134.5060  154.6236 C   0  0  0  0  0  0  0  0  0  0  0  0
  150.1806  135.8906  155.0166 C   0  0  0  0  0  0  0  0  0  0  0  0
  151.4340  136.2310  155.3253 N   0  0  0  0  0  0  0  0  0  0  0  0
  151.5448  137.5744  155.6545 N   0  0  0  0  0  0  0  0  0  0  0  0
  150.3789  138.2319  155.5811 C   0  0  0  0  0  0  0  0  0  0  0  0
  150.2719  139.5409  155.8635 N   0  5  0  0  0  0  0  0  0  0  0  0
  151.3121  140.1986  156.4248 C   0  0  0  0  0  0  0  0  0  0  0  0
  152.5027  139.8887  156.3403 O   0  0  0  0  0  0  0  0  0  0  0  0
  150.9497  141.2825  157.1266 N   0  0  0  0  0  0  0  0  0  0  0  0
  151.8486  142.1908  157.8345 C   0  0  0  0  0  0  0  0  0  0  0  0
  151.7784  141.9506  159.3571 C   0  0  0  0  0  0  0  0  0  0  0  0
  152.6599  142.9493  160.1246 C   0  0  0  0  0  0  0  0  0  0  0  0
  152.2919  144.4007  159.7784 C   0  0  0  0  0  0  0  0  0  0  0  0
  152.3659  144.6444  158.2631 C   0  0  0  0  0  0  0  0  0  0  0  0
  151.4826  143.6479  157.4946 C   0  0  0  0  0  0  0  0  0  0  0  0
  149.0234  137.2074  155.1081 S   0  0  0  0  0  0  0  0  0  0  0  0
  150.0499  134.3313  153.5782 H   0  0  0  0  0  0  0  0  0  0  0  0
  148.7224  134.3610  154.7521 H   0  0  0  0  0  0  0  0  0  0  0  0
  150.3210  133.7773  155.2409 H   0  0  0  0  0  0  0  0  0  0  0  0
  149.9635  141.4935  157.1710 H   0  0  0  0  0  0  0  0  0  0  0  0
  152.8713  142.0137  157.4962 H   0  0  0  0  0  0  0  0  0  0  0  0
  150.7461  142.0425  159.6978 H   0  0  0  0  0  0  0  0  0  0  0  0
  152.0909  140.9329  159.5936 H   0  0  0  0  0  0  0  0  0  0  0  0
  152.5585  142.7856  161.1977 H   0  0  0  0  0  0  0  0  0  0  0  0
  153.7080  142.7702  159.8819 H   0  0  0  0  0  0  0  0  0  0  0  0
  151.2840  144.6169  160.1349 H   0  0  0  0  0  0  0  0  0  0  0  0
  152.9588  145.0880  160.2993 H   0  0  0  0  0  0  0  0  0  0  0  0
  152.0592  145.6655  158.0350 H   0  0  0  0  0  0  0  0  0  0  0  0
  153.3995  144.5495  157.9280 H   0  0  0  0  0  0  0  0  0  0  0  0
  151.5854  143.8183  156.4224 H   0  0  0  0  0  0  0  0  0  0  0  0
  150.4352  143.8325  157.7378 H   0  0  0  0  0  0  0  0  0  0  0  0
  1  2  1  0  0  0  0
  1 17  1  0  0  0  0
  1 18  1  0  0  0  0
  1 19  1  0  0  0  0
  2 16  1  0  0  0  0
  2  3  2  0  0  0  0
  3  4  1  0  0  0  0
  4  5  2  0  0  0  0
  5  6  1  0  0  0  0
  5 16  1  0  0  0  0
  6  7  1  0  0  0  0
  7  8  2  0  0  0  0
  7  9  1  0  0  0  0
  9 10  1  0  0  0  0
  9 20  1  0  0  0  0
 10 15  1  0  0  0  0
 10 11  1  0  0  0  0
 10 21  1  0  0  0  0
 11 12  1  0  0  0  0
 11 22  1  0  0  0  0
 11 23  1  0  0  0  0
 12 13  1  0  0  0  0
 12 24  1  0  0  0  0
 12 25  1  0  0  0  0
 13 14  1  0  0  0  0
 13 26  1  0  0  0  0
 13 27  1  0  0  0  0
 14 15  1  0  0  0  0
 14 28  1  0  0  0  0
 14 29  1  0  0  0  0
 15 30  1  0  0  0  0
 15 31  1  0  0  0  0
M  CHG  1   6  -1
M  END
> <s_m_source_file>
AV-unprocessed.smi

> <i_m_source_file_index>
930

> <i_lp_mmshare_version>
43012

> <i_f3d_flags>
0

> <s_epik_input>
W0NIM11jMW5uYyhzMSlbTkhdQyg9TylbTkhdW0NIXTJbQ0gyXVtDSDJdW0NIMl1bQ0gyXVtDSDJdMg==

> <s_epik_cmdline>
J2VwaWtfcHl0aG9uJywgJy1waCcsICc3LjAnLCAnLXRuJywgJzgnLCAnLW1hJywgJzIwMCcsICctbWV0YWxfYmluZGluZycsICctaW1hZScsICc8aW5maWxlLm1hZT4nLCAnLW9tYWUnLCAnPG91dGZpbGUubWFlPic=

> <r_lp_tautomer_probability>
1

> <r_epik_Ionization_Penalty>
4.57239

> <r_epik_Ionization_Penalty_Charging>
4.41779

> <r_epik_Ionization_Penalty_Neutral>
0.154599

> <r_epik_State_Penalty>
4.41745

> <r_epik_Charging_Adjusted_Penalty>
8.83524

> <i_epik_Tot_Q>
-1

> <i_epik_Tot_abs_Q>
1

> <r_epik_Metal_State_Penalty>
0.779681

> <b_epik_Metal_Only>
1

> <s_lp_Force_Field>
OPLS_2005

> <r_lp_Energy>
6.76033

> <b_lp_Chiralities_Consistent>
1

> <s_lp_Variant>
AV-unprocessed.smi:930-2

> <Gold.Version>
5.8.1

> <Gold.Id.Protein>
6NUR|6NUR_protein|mol2

> <Gold.PLP.Fitness>
35.5995

> <Gold.PLP.PLP>
-30.2424

> <Gold.PLP.part.hbond>
-2.0000

> <Gold.PLP.part.metal>
0.0000

> <Gold.PLP.part.buried>
-4.0882

> <Gold.PLP.part.nonpolar>
-24.3861

> <Gold.PLP.part.repulsive>
0.2063

> <Gold.PLP.ligand.clash>
0.0000

> <Gold.PLP.ligand.torsion>
0.3245

> <Gold.PLP.Chemscore.Hbond>
2.0000

> <Gold.PLP.Chemscore.CHOScore>
0.0000

> <Gold.PLP.Chemscore.Metal>
0.0000

> <Gold.Chemscore.Hbonds>
donor molecule, donor type, donor heavy atom, donor atom, acceptor molecule, acceptor atom, score
      P1  H  7997  8008       L1     8  1.00
      P1  H 10752 10765       L1     3  1.00

> <Gold.PLP.Chemscore.Internal.Correction>
0.0061

> <Gold.Rescore>
     Score         DG    S(hbond)    S(metal)    S(lipo)     H(rot)  DE(clash)    DE(int)     intcor
     17.67     -19.47       1.97        0.00      85.25       1.00       0.01       1.78       ----

> <Gold.Chemscore.Fitness>
17.6735

> <Gold.Chemscore.DG>
-19.4667

> <Gold.Chemscore.ZeroCoef>
-5.4800

> <Gold.Chemscore.Hbond>
1.9679

> <Gold.Chemscore.Metal>
0.0000

> <Gold.Chemscore.Lipo>
85.2472

> <Gold.Chemscore.Internal_Hbond>
0.0000

> <Gold.Chemscore.DEClash>
0.0114

> <Gold.Chemscore.DEInternal>
1.7817

> <Gold.Chemscore.Rot>
1.0000

> <Gold.Chemscore.Internal.Correction>
   9.000000E+99

> <Gold.Chemscore.Hbonds>
donor molecule, donor type, donor heavy atom, donor atom, acceptor molecule, acceptor atom, score
      P1  H  7997  8008       L1     8  1.00
      P1  H 10752 10765       L1     3  0.82

> <Gold.Chemscore.Hbond.Weighted>
-6.5727

> <Gold.Chemscore.Metal.Weighted>
-0.0000

> <Gold.Chemscore.Lipo.Weighted>
-9.9739

> <Gold.Chemscore.Internal_Hbond.Weighted>
0.0000

> <Gold.Chemscore.DEClash.Weighted>
0.0114

> <Gold.Chemscore.DEInternal.Weighted>
1.7817

> <Gold.Chemscore.Rot.Weighted>
2.5600

> <Gold.Chemscore.Internal.Correction.Weighted>
   9.000000E+99

> <Gold.Protein.RotatedTorsions>
[ 6907 6896 6895 6894 ] final   32.10 input  -60.11 | X-H torsion
[ 7974 7965 7964 7962 ] final  144.65 input  175.53 | X-H torsion
[ 8008 7997 7996 7995 ] final  -43.10 input   59.86 | X-H torsion
[ 10167 10162 10161 10158 ] final -144.29 input  -65.29 | X-H torsion
[ 10718 10713 10712 10709 ] final   81.60 input   66.30 | X-H torsion
[ 10763 10752 10751 10750 ] final -161.86 input  -60.55 | X-H torsion
[ 11005 11000 10999 10996 ] final -151.47 input  -57.11 | X-H torsion

> <Gold.Protein.ActiveResidues>
 VAL166  LYS551  ARG553  GLY616  TRP617  ASP618  TYR619  PRO620  LYS621  CYS622 
 ASP623  PHE694  ASN695  SER759  ASP760  ASP761  ALA762  ILE779  LEU786  VAL792 
 PHE793  MET794  SER795  GLU796  ALA797  LYS798  CYS799  TRP800  GLU811  SER814 

> <Gold.Protein.RotatedAtoms>
  152.0697  134.9541  160.0574 H   0  0  0  0  0  0  0  0  0  0  0  0  # atno 6907 bound_to 6896
  152.0872  133.4177  159.4535 H   0  0  0  0  0  0  0  0  0  0  0  0  # atno 6908 bound_to 6896
  150.6836  134.2834  159.4680 H   0  0  0  0  0  0  0  0  0  0  0  0  # atno 6909 bound_to 6896
  144.8818  139.5688  143.5839 H   0  0  0  0  0  0  0  0  0  0  0  0  # atno 7974 bound_to 7965
  154.3997  140.1456  156.3463 H   0  0  0  0  0  0  0  0  0  0  0  0  # atno 8008 bound_to 7997
  155.8310  140.3466  155.5551 H   0  0  0  0  0  0  0  0  0  0  0  0  # atno 8009 bound_to 7997
  155.8188  140.0895  157.1851 H   0  0  0  0  0  0  0  0  0  0  0  0  # atno 8010 bound_to 7997
  139.7912  143.7963  152.2650 H   0  0  0  0  0  0  0  0  0  0  0  0  # atno 10167 bound_to 10162
  157.6837  131.0011  150.2251 H   0  0  0  0  0  0  0  0  0  0  0  0  # atno 10718 bound_to 10713
  154.7266  135.3037  154.8961 H   0  0  0  0  0  0  0  0  0  0  0  0  # atno 10763 bound_to 10752
  153.9817  135.6729  153.4754 H   0  0  0  0  0  0  0  0  0  0  0  0  # atno 10764 bound_to 10752
  153.0880  135.4974  154.8554 H   0  0  0  0  0  0  0  0  0  0  0  0  # atno 10765 bound_to 10752
  140.7292  134.3640  157.5169 H   0  0  0  0  0  0  0  0  0  0  0  0  # atno 11005 bound_to 11000
  146.2999  139.7394  142.9099 LP  0  0  0  0  0  0  0  0  0  0  0  0  # atno 17320 bound_to 7965
  145.3940  141.0376  143.3108 LP  0  0  0  0  0  0  0  0  0  0  0  0  # atno 17321 bound_to 7965
  139.8055  144.7357  150.9767 LP  0  0  0  0  0  0  0  0  0  0  0  0  # atno 17342 bound_to 10162
  140.7820  143.4302  151.0706 LP  0  0  0  0  0  0  0  0  0  0  0  0  # atno 17343 bound_to 10162
  156.2894  130.3743  149.7856 LP  0  0  0  0  0  0  0  0  0  0  0  0  # atno 17370 bound_to 10713
  156.5520  130.8346  151.3302 LP  0  0  0  0  0  0  0  0  0  0  0  0  # atno 17371 bound_to 10713
  139.8830  134.9007  156.2795 LP  0  0  0  0  0  0  0  0  0  0  0  0  # atno 17394 bound_to 11000
  140.9935  133.7194  156.0851 LP  0  0  0  0  0  0  0  0  0  0  0  0  # atno 17395 bound_to 11000

$$$$
