AV-unprocessed.smi:2473|AV-procd|sdf|9750|dock8
  -GOLD-   2272013393D 1   1.00000     0.00000
 Structure written by MMmdl.
 47 48  0  0  0  0  0  0  0  0  1 V2000
  145.8697  138.1013  154.3079 C   0  0  0  0  0  0  0  0  0  0  0  0
  146.5626  139.4201  154.6795 C   0  0  1  0  0  0  0  0  0  0  0  0
  147.4507  139.9216  153.5235 C   0  0  0  0  0  0  0  0  0  0  0  0
  148.1439  141.2709  153.8168 C   0  0  2  0  0  0  0  0  0  0  0  0
  149.4144  141.1480  154.6781 C   0  0  0  0  0  0  0  0  0  0  0  0
  150.2257  140.2412  154.4921 O   0  0  0  0  0  0  0  0  0  0  0  0
  149.6043  142.1192  155.5858 N   0  0  0  0  0  0  0  0  0  0  0  0
  150.7741  142.2609  156.4489 C   0  0  0  0  0  0  0  0  0  0  0  0
  150.3965  142.4341  157.9335 C   0  0  0  0  0  0  0  0  0  0  0  0
  151.5748  142.4839  158.8614 C   0  0  0  0  0  0  0  0  0  0  0  0
  151.8339  141.5416  159.7630 N   0  0  0  0  0  0  0  0  0  0  0  0
  153.0125  141.9502  160.3768 C   0  0  0  0  0  0  0  0  0  0  0  0
  153.4259  143.1378  159.8241 C   0  0  0  0  0  0  0  0  0  0  0  0
  152.4924  143.4719  158.8520 N   0  0  0  0  0  0  0  0  0  0  0  0
  152.5303  144.6540  158.0125 C   0  0  0  0  0  0  0  0  0  0  0  0
  147.1357  142.3245  154.3395 C   0  0  0  0  0  0  0  0  0  0  0  0
  146.1647  141.8580  155.4589 C   0  0  0  0  0  0  0  0  0  0  0  0
  146.8584  141.7770  156.8365 C   0  0  0  0  0  0  0  0  0  0  0  0
  145.0366  142.9025  155.5842 C   0  0  0  0  0  0  0  0  0  0  0  0
  145.5332  140.4980  155.0729 C   0  0  0  0  0  0  0  0  0  0  0  0
  145.2091  138.2271  153.4494 H   0  0  0  0  0  0  0  0  0  0  0  0
  145.2700  137.7252  155.1370 H   0  0  0  0  0  0  0  0  0  0  0  0
  146.6006  137.3327  154.0555 H   0  0  0  0  0  0  0  0  0  0  0  0
  147.1907  139.2080  155.5436 H   0  0  0  0  0  0  0  0  0  0  0  0
  148.1962  139.1648  153.2733 H   0  0  0  0  0  0  0  0  0  0  0  0
  146.8374  140.0349  152.6286 H   0  0  0  0  0  0  0  0  0  0  0  0
  148.5036  141.6359  152.8532 H   0  0  0  0  0  0  0  0  0  0  0  0
  148.8934  142.8315  155.6668 H   0  0  0  0  0  0  0  0  0  0  0  0
  151.3812  141.3631  156.3344 H   0  0  0  0  0  0  0  0  0  0  0  0
  151.3989  143.0927  156.1192 H   0  0  0  0  0  0  0  0  0  0  0  0
  149.7873  143.3288  158.0609 H   0  0  0  0  0  0  0  0  0  0  0  0
  149.7635  141.6004  158.2394 H   0  0  0  0  0  0  0  0  0  0  0  0
  153.4672  141.3634  161.1611 H   0  0  0  0  0  0  0  0  0  0  0  0
  154.2860  143.7556  160.0363 H   0  0  0  0  0  0  0  0  0  0  0  0
  153.4523  145.2093  158.1874 H   0  0  0  0  0  0  0  0  0  0  0  0
  151.6816  145.2974  158.2446 H   0  0  0  0  0  0  0  0  0  0  0  0
  152.4894  144.3691  156.9618 H   0  0  0  0  0  0  0  0  0  0  0  0
  147.6631  143.2242  154.6602 H   0  0  0  0  0  0  0  0  0  0  0  0
  146.5409  142.6406  153.4812 H   0  0  0  0  0  0  0  0  0  0  0  0
  146.1390  141.5545  157.6253 H   0  0  0  0  0  0  0  0  0  0  0  0
  147.3392  142.7213  157.0934 H   0  0  0  0  0  0  0  0  0  0  0  0
  147.6186  141.0022  156.8854 H   0  0  0  0  0  0  0  0  0  0  0  0
  144.3157  142.6207  156.3525 H   0  0  0  0  0  0  0  0  0  0  0  0
  144.4858  143.0146  154.6496 H   0  0  0  0  0  0  0  0  0  0  0  0
  145.4317  143.8837  155.8495 H   0  0  0  0  0  0  0  0  0  0  0  0
  144.8525  140.6448  154.2327 H   0  0  0  0  0  0  0  0  0  0  0  0
  144.9155  140.1332  155.8947 H   0  0  0  0  0  0  0  0  0  0  0  0
  1  2  1  0  0  0  0
  1 21  1  0  0  0  0
  1 22  1  0  0  0  0
  1 23  1  0  0  0  0
  2 20  1  0  0  0  0
  2  3  1  0  0  0  0
  2 24  1  0  0  0  0
  3  4  1  0  0  0  0
  3 25  1  0  0  0  0
  3 26  1  0  0  0  0
  4  5  1  0  0  0  0
  4 16  1  0  0  0  0
  4 27  1  0  0  0  0
  5  6  2  0  0  0  0
  5  7  1  0  0  0  0
  7  8  1  0  0  0  0
  7 28  1  0  0  0  0
  8  9  1  0  0  0  0
  8 29  1  0  0  0  0
  8 30  1  0  0  0  0
  9 10  1  0  0  0  0
  9 31  1  0  0  0  0
  9 32  1  0  0  0  0
 10 14  1  0  0  0  0
 10 11  2  0  0  0  0
 11 12  1  0  0  0  0
 12 13  2  0  0  0  0
 12 33  1  0  0  0  0
 13 14  1  0  0  0  0
 13 34  1  0  0  0  0
 14 15  1  0  0  0  0
 15 35  1  0  0  0  0
 15 36  1  0  0  0  0
 15 37  1  0  0  0  0
 16 17  1  0  0  0  0
 16 38  1  0  0  0  0
 16 39  1  0  0  0  0
 17 18  1  0  0  0  0
 17 19  1  0  0  0  0
 17 20  1  0  0  0  0
 18 40  1  0  0  0  0
 18 41  1  0  0  0  0
 18 42  1  0  0  0  0
 19 43  1  0  0  0  0
 19 44  1  0  0  0  0
 19 45  1  0  0  0  0
 20 46  1  0  0  0  0
 20 47  1  0  0  0  0
M  END
> <s_m_source_file>
AV-unprocessed.smi

> <i_m_source_file_index>
2473

> <i_lp_mmshare_version>
43012

> <i_f3d_flags>
0

> <s_epik_input>
W0NIM11bQ0BASF0oW0NIMl0xKVtDSDJdW0NASF0oW0NIMl1DMShbQ0gzXSlbQ0gzXSlDKD1PKVtOSF1bQ0gyXVtDSDJdYzJuW2NIXVtjSF1uMltDSDNd

> <s_epik_cmdline>
J2VwaWtfcHl0aG9uJywgJy1waCcsICc3LjAnLCAnLXRuJywgJzgnLCAnLW1hJywgJzIwMCcsICctbWV0YWxfYmluZGluZycsICctaW1hZScsICc8aW5maWxlLm1hZT4nLCAnLW9tYWUnLCAnPG91dGZpbGUubWFlPic=

> <r_lp_tautomer_probability>
1

> <r_epik_Ionization_Penalty>
1.22858

> <r_epik_Ionization_Penalty_Charging>
1.22858

> <r_epik_Ionization_Penalty_Neutral>
2.12671e-08

> <r_epik_State_Penalty>
1.2965

> <r_epik_Charging_Adjusted_Penalty>
2.52508

> <i_epik_Tot_Q>
0

> <i_epik_Tot_abs_Q>
0

> <r_epik_Metal_State_Penalty>
0.411461

> <b_epik_Metal_Only>
0

> <s_lp_Force_Field>
OPLS_2005

> <r_lp_Energy>
14.2462

> <b_lp_Chiralities_Consistent>
1

> <s_lp_Variant>
AV-unprocessed.smi:2473-8

> <Gold.Version>
5.8.1

> <Gold.Id.Protein>
6NUR|6NUR_protein|mol2

> <Gold.PLP.Fitness>
47.2824

> <Gold.PLP.PLP>
-43.0672

> <Gold.PLP.part.hbond>
-2.0824

> <Gold.PLP.part.metal>
0.0000

> <Gold.PLP.part.buried>
-3.5102

> <Gold.PLP.part.nonpolar>
-37.3623

> <Gold.PLP.part.repulsive>
0.2539

> <Gold.PLP.ligand.clash>
0.0000

> <Gold.PLP.ligand.torsion>
0.4769

> <Gold.PLP.Chemscore.Hbond>
1.6880

> <Gold.PLP.Chemscore.CHOScore>
0.0000

> <Gold.PLP.Chemscore.Metal>
0.0000

> <Gold.Chemscore.Hbonds>
donor molecule, donor type, donor heavy atom, donor atom, acceptor molecule, acceptor atom, score
      L1  H     7    28       P1  8028  0.72
      P1  H  7989  7998       L1     6  1.00

> <Gold.PLP.Chemscore.Internal.Correction>
0.1051

> <Gold.Rescore>
     Score         DG    S(hbond)    S(metal)    S(lipo)     H(rot)  DE(clash)    DE(int)     intcor
     16.53     -17.53       1.56        0.00      91.46       1.51       0.36       0.63       ----

> <Gold.Chemscore.Fitness>
16.5341

> <Gold.Chemscore.DG>
-17.5297

> <Gold.Chemscore.ZeroCoef>
-5.4800

> <Gold.Chemscore.Hbond>
1.5621

> <Gold.Chemscore.Metal>
0.0000

> <Gold.Chemscore.Lipo>
91.4566

> <Gold.Chemscore.Internal_Hbond>
0.0000

> <Gold.Chemscore.DEClash>
0.3641

> <Gold.Chemscore.DEInternal>
0.6315

> <Gold.Chemscore.Rot>
1.5109

> <Gold.Chemscore.Internal.Correction>
   9.000000E+99

> <Gold.Chemscore.Hbonds>
donor molecule, donor type, donor heavy atom, donor atom, acceptor molecule, acceptor atom, score
      L1  H     7    28       P1  8028  0.72
      P1  H  7989  7998       L1     6  0.68

> <Gold.Chemscore.Hbond.Weighted>
-5.2173

> <Gold.Chemscore.Metal.Weighted>
-0.0000

> <Gold.Chemscore.Lipo.Weighted>
-10.7004

> <Gold.Chemscore.Internal_Hbond.Weighted>
0.0000

> <Gold.Chemscore.DEClash.Weighted>
0.3641

> <Gold.Chemscore.DEInternal.Weighted>
0.6315

> <Gold.Chemscore.Rot.Weighted>
3.8680

> <Gold.Chemscore.Internal.Correction.Weighted>
   9.000000E+99

> <Gold.Protein.RotatedTorsions>
[ 6907 6896 6895 6894 ] final  -95.80 input  -60.11 | X-H torsion
[ 7974 7965 7964 7962 ] final  -31.18 input  175.53 | X-H torsion
[ 8008 7997 7996 7995 ] final   76.05 input   59.86 | X-H torsion
[ 10167 10162 10161 10158 ] final   -4.50 input  -65.29 | X-H torsion
[ 10718 10713 10712 10709 ] final  -87.73 input   66.30 | X-H torsion
[ 10763 10752 10751 10750 ] final   82.60 input  -60.55 | X-H torsion
[ 11005 11000 10999 10996 ] final   38.01 input  -57.11 | X-H torsion

> <Gold.Protein.ActiveResidues>
 VAL166  LYS551  ARG553  GLY616  TRP617  ASP618  TYR619  PRO620  LYS621  CYS622 
 ASP623  PHE694  ASN695  SER759  ASP760  ASP761  ALA762  ILE779  LEU786  VAL792 
 PHE793  MET794  SER795  GLU796  ALA797  LYS798  CYS799  TRP800  GLU811  SER814 

> <Gold.Protein.RotatedAtoms>
  150.6972  134.1602  159.4172 H   0  0  0  0  0  0  0  0  0  0  0  0  # atno 6907 bound_to 6896
  151.9582  135.0134  160.0555 H   0  0  0  0  0  0  0  0  0  0  0  0  # atno 6908 bound_to 6896
  152.1950  133.4765  159.5065 H   0  0  0  0  0  0  0  0  0  0  0  0  # atno 6909 bound_to 6896
  146.1087  140.5634  142.8788 H   0  0  0  0  0  0  0  0  0  0  0  0  # atno 7974 bound_to 7965
  155.8217  140.3469  155.5518 H   0  0  0  0  0  0  0  0  0  0  0  0  # atno 8008 bound_to 7997
  155.8335  140.0930  157.1798 H   0  0  0  0  0  0  0  0  0  0  0  0  # atno 8009 bound_to 7997
  154.4004  140.1408  156.3629 H   0  0  0  0  0  0  0  0  0  0  0  0  # atno 8010 bound_to 7997
  140.6930  143.6416  150.8430 H   0  0  0  0  0  0  0  0  0  0  0  0  # atno 10167 bound_to 10162
  155.9985  130.4810  150.4911 H   0  0  0  0  0  0  0  0  0  0  0  0  # atno 10718 bound_to 10713
  153.1217  135.4722  154.9206 H   0  0  0  0  0  0  0  0  0  0  0  0  # atno 10763 bound_to 10752
  154.7582  135.3124  154.8432 H   0  0  0  0  0  0  0  0  0  0  0  0  # atno 10764 bound_to 10752
  153.8995  135.6876  153.4810 H   0  0  0  0  0  0  0  0  0  0  0  0  # atno 10765 bound_to 10752
  140.2168  134.3689  155.8023 H   0  0  0  0  0  0  0  0  0  0  0  0  # atno 11005 bound_to 11000
  144.7493  140.5149  143.6813 LP  0  0  0  0  0  0  0  0  0  0  0  0  # atno 17320 bound_to 7965
  145.5708  139.1483  143.3289 LP  0  0  0  0  0  0  0  0  0  0  0  0  # atno 17321 bound_to 7965
  140.0131  143.5621  152.2831 LP  0  0  0  0  0  0  0  0  0  0  0  0  # atno 17342 bound_to 10162
  139.6352  144.7649  151.2452 LP  0  0  0  0  0  0  0  0  0  0  0  0  # atno 17343 bound_to 10162
  157.2906  131.0625  151.2136 LP  0  0  0  0  0  0  0  0  0  0  0  0  # atno 17370 bound_to 10713
  157.3150  130.6909  149.6237 LP  0  0  0  0  0  0  0  0  0  0  0  0  # atno 17371 bound_to 10713
  141.2224  133.7172  156.8510 LP  0  0  0  0  0  0  0  0  0  0  0  0  # atno 17394 bound_to 11000
  140.1892  134.8978  157.3040 LP  0  0  0  0  0  0  0  0  0  0  0  0  # atno 17395 bound_to 11000

$$$$
