AV-unprocessed.smi:1041|AV-procd|sdf|4532|dock4
  -GOLD-   22720 2553D 1   1.00000     0.00000
 Structure written by MMmdl.
 52 53  0  0  0  0  0  0  0  0  1 V2000
  152.3574  142.9177  160.1547 C   0  0  0  0  0  0  0  0  0  0  0  0
  152.8697  143.2770  158.8838 O   0  0  0  0  0  0  0  0  0  0  0  0
  151.9151  143.9573  158.0852 C   0  0  0  0  0  0  0  0  0  0  0  0
  150.7293  143.0219  157.7971 C   0  0  0  0  0  0  0  0  0  0  0  0
  150.9426  142.0469  156.7267 N   0  0  0  0  0  0  0  0  0  0  0  0
  149.6642  141.5290  156.2406 C   0  0  0  0  0  0  0  0  0  0  0  0
  149.8296  140.5592  155.0594 C   0  0  0  0  0  0  0  0  0  0  0  0
  150.7346  139.3749  155.4447 C   0  0  0  0  0  0  0  0  0  0  0  0
  150.9387  138.4186  154.2527 C   0  0  0  0  0  0  0  0  0  0  0  0
  150.0601  137.2563  154.3316 N   0  0  0  0  0  0  0  0  0  0  0  0
  150.3348  136.1050  154.9643 C   0  0  0  0  0  0  0  0  0  0  0  0
  151.3893  135.8898  155.5607 O   0  0  0  0  0  0  0  0  0  0  0  0
  149.2401  135.0369  154.9364 C   0  0  0  0  0  0  0  0  0  0  0  0
  149.7220  133.5897  155.0276 C   0  0  0  0  0  0  0  0  0  0  0  0
  149.4351  132.6510  154.0788 C   0  0  0  0  0  0  0  0  0  0  0  0
  148.6060  132.9564  152.8434 C   0  0  0  0  0  0  0  0  0  0  0  0
  149.8957  131.3314  154.1877 N   0  0  0  0  0  0  0  0  0  0  0  0
  150.6087  131.0046  155.2149 C   0  0  0  0  0  0  0  0  0  0  0  0
  151.1649  129.6163  155.4501 C   0  0  0  0  0  0  0  0  0  0  0  0
  150.9350  131.9136  156.2197 N   0  0  0  0  0  0  0  0  0  0  0  0
  150.5308  133.2034  156.2002 C   0  0  0  0  0  0  0  0  0  0  0  0
  150.8300  133.9621  157.1210 O   0  0  0  0  0  0  0  0  0  0  0  0
  152.0580  139.9248  156.0165 C   0  0  0  0  0  0  0  0  0  0  0  0
  151.7958  140.9330  157.1485 C   0  0  0  0  0  0  0  0  0  0  0  0
  151.4923  131.6005  157.0011 H   0  0  0  0  0  0  0  0  0  0  0  0
  153.1279  142.4022  160.7279 H   0  0  0  0  0  0  0  0  0  0  0  0
  151.5027  142.2467  160.0598 H   0  0  0  0  0  0  0  0  0  0  0  0
  152.0500  143.7985  160.7199 H   0  0  0  0  0  0  0  0  0  0  0  0
  151.5855  144.8720  158.5787 H   0  0  0  0  0  0  0  0  0  0  0  0
  152.3740  144.2566  157.1418 H   0  0  0  0  0  0  0  0  0  0  0  0
  150.4473  142.5042  158.7150 H   0  0  0  0  0  0  0  0  0  0  0  0
  149.8772  143.6510  157.5366 H   0  0  0  0  0  0  0  0  0  0  0  0
  149.1345  141.0278  157.0523 H   0  0  0  0  0  0  0  0  0  0  0  0
  149.0292  142.3577  155.9246 H   0  0  0  0  0  0  0  0  0  0  0  0
  148.8514  140.1964  154.7419 H   0  0  0  0  0  0  0  0  0  0  0  0
  150.2551  141.0919  154.2077 H   0  0  0  0  0  0  0  0  0  0  0  0
  150.2317  138.8190  156.2381 H   0  0  0  0  0  0  0  0  0  0  0  0
  150.7042  138.9379  153.3231 H   0  0  0  0  0  0  0  0  0  0  0  0
  151.9862  138.1218  154.1771 H   0  0  0  0  0  0  0  0  0  0  0  0
  149.1616  137.3383  153.8778 H   0  0  0  0  0  0  0  0  0  0  0  0
  148.5498  135.2294  155.7581 H   0  0  0  0  0  0  0  0  0  0  0  0
  148.6405  135.1845  154.0374 H   0  0  0  0  0  0  0  0  0  0  0  0
  149.0990  133.7074  152.2262 H   0  0  0  0  0  0  0  0  0  0  0  0
  147.6206  133.3285  153.1244 H   0  0  0  0  0  0  0  0  0  0  0  0
  148.4626  132.0645  152.2321 H   0  0  0  0  0  0  0  0  0  0  0  0
  150.3540  128.8882  155.4838 H   0  0  0  0  0  0  0  0  0  0  0  0
  151.7157  129.5564  156.3900 H   0  0  0  0  0  0  0  0  0  0  0  0
  151.8408  129.3405  154.6403 H   0  0  0  0  0  0  0  0  0  0  0  0
  152.6774  139.1126  156.3969 H   0  0  0  0  0  0  0  0  0  0  0  0
  152.6320  140.4077  155.2241 H   0  0  0  0  0  0  0  0  0  0  0  0
  152.7584  141.3069  157.4949 H   0  0  0  0  0  0  0  0  0  0  0  0
  151.3409  140.4181  157.9962 H   0  0  0  0  0  0  0  0  0  0  0  0
  1  2  1  0  0  0  0
  1 26  1  0  0  0  0
  1 27  1  0  0  0  0
  1 28  1  0  0  0  0
  2  3  1  0  0  0  0
  3  4  1  0  0  0  0
  3 29  1  0  0  0  0
  3 30  1  0  0  0  0
  4  5  1  0  0  0  0
  4 31  1  0  0  0  0
  4 32  1  0  0  0  0
  5 24  1  0  0  0  0
  5  6  1  0  0  0  0
  6  7  1  0  0  0  0
  6 33  1  0  0  0  0
  6 34  1  0  0  0  0
  7  8  1  0  0  0  0
  7 35  1  0  0  0  0
  7 36  1  0  0  0  0
  8  9  1  0  0  0  0
  8 23  1  0  0  0  0
  8 37  1  0  0  0  0
  9 10  1  0  0  0  0
  9 38  1  0  0  0  0
  9 39  1  0  0  0  0
 10 11  1  0  0  0  0
 10 40  1  0  0  0  0
 11 12  2  0  0  0  0
 11 13  1  0  0  0  0
 13 14  1  0  0  0  0
 13 41  1  0  0  0  0
 13 42  1  0  0  0  0
 14 21  1  0  0  0  0
 14 15  2  0  0  0  0
 15 16  1  0  0  0  0
 15 17  1  0  0  0  0
 16 43  1  0  0  0  0
 16 44  1  0  0  0  0
 16 45  1  0  0  0  0
 17 18  2  0  0  0  0
 18 19  1  0  0  0  0
 18 20  1  0  0  0  0
 19 46  1  0  0  0  0
 19 47  1  0  0  0  0
 19 48  1  0  0  0  0
 20 25  1  0  0  0  0
 20 21  1  0  0  0  0
 21 22  2  0  0  0  0
 23 24  1  0  0  0  0
 23 49  1  0  0  0  0
 23 50  1  0  0  0  0
 24 51  1  0  0  0  0
 24 52  1  0  0  0  0
M  END
> <s_m_source_file>
AV-unprocessed.smi

> <i_m_source_file_index>
1041

> <i_lp_mmshare_version>
43012

> <i_f3d_flags>
0

> <s_epik_input>
W0NIM11PW0NIMl1bQ0gyXU4xW0NIMl1bQ0gyXVtDSF0oW0NIMl1bQ0gyXTEpW0NIMl1bTkhdQyg9TylbQ0gyXWMyYyhbQ0gzXSluYyhbQ0gzXSlbbkhdYzI9Tw==

> <s_epik_cmdline>
J2VwaWtfcHl0aG9uJywgJy1waCcsICc3LjAnLCAnLXRuJywgJzgnLCAnLW1hJywgJzIwMCcsICctbWV0YWxfYmluZGluZycsICctaW1hZScsICc8aW5maWxlLm1hZT4nLCAnLW9tYWUnLCAnPG91dGZpbGUubWFlPic=

> <r_lp_tautomer_probability>
0.839158

> <r_epik_Ionization_Penalty>
2.47116

> <r_epik_Ionization_Penalty_Charging>
0.00036358

> <r_epik_Ionization_Penalty_Neutral>
2.4708

> <r_epik_State_Penalty>
2.72392

> <r_epik_Charging_Adjusted_Penalty>
2.72428

> <i_epik_Tot_Q>
0

> <i_epik_Tot_abs_Q>
0

> <r_epik_Metal_State_Penalty>
2.89755

> <b_epik_Metal_Only>
0

> <s_lp_Force_Field>
OPLS_2005

> <r_lp_Energy>
27.3294

> <b_lp_Chiralities_Consistent>
1

> <s_lp_Variant>
AV-unprocessed.smi:1041-5

> <Gold.Version>
5.8.1

> <Gold.Id.Protein>
6NUR|6NUR_protein|mol2

> <Gold.PLP.Fitness>
46.9879

> <Gold.PLP.PLP>
-45.8660

> <Gold.PLP.part.hbond>
-3.0000

> <Gold.PLP.part.metal>
0.0000

> <Gold.PLP.part.buried>
-6.0661

> <Gold.PLP.part.nonpolar>
-37.8597

> <Gold.PLP.part.repulsive>
0.2788

> <Gold.PLP.ligand.clash>
0.0000

> <Gold.PLP.ligand.torsion>
1.3769

> <Gold.PLP.Chemscore.Hbond>
1.2428

> <Gold.PLP.Chemscore.CHOScore>
0.0000

> <Gold.PLP.Chemscore.Metal>
0.0000

> <Gold.Chemscore.Hbonds>
donor molecule, donor type, donor heavy atom, donor atom, acceptor molecule, acceptor atom, score
      L1  H    10    40       P1  7948  0.10
      P1  H  6896  6909       L1    22  0.13
      P1  H 10752 10764       L1    12  1.00

> <Gold.PLP.Chemscore.Internal.Correction>
0.1470

> <Gold.Rescore>
     Score         DG    S(hbond)    S(metal)    S(lipo)     H(rot)  DE(clash)    DE(int)     intcor
     13.02     -17.04       1.71        0.00     101.75       2.36       0.19       3.84       ----

> <Gold.Chemscore.Fitness>
13.0214

> <Gold.Chemscore.DG>
-17.0441

> <Gold.Chemscore.ZeroCoef>
-5.4800

> <Gold.Chemscore.Hbond>
1.7066

> <Gold.Chemscore.Metal>
0.0000

> <Gold.Chemscore.Lipo>
101.7527

> <Gold.Chemscore.Internal_Hbond>
0.0000

> <Gold.Chemscore.DEClash>
0.1867

> <Gold.Chemscore.DEInternal>
3.8360

> <Gold.Chemscore.Rot>
2.3598

> <Gold.Chemscore.Internal.Correction>
   9.000000E+99

> <Gold.Chemscore.Hbonds>
donor molecule, donor type, donor heavy atom, donor atom, acceptor molecule, acceptor atom, score
      L1  H    10    40       P1  7948  0.11
      P1  H  6896  6909       L1    22  0.13
      P1  H 10752 10764       L1    12  1.00

> <Gold.Chemscore.Hbond.Weighted>
-5.7000

> <Gold.Chemscore.Metal.Weighted>
-0.0000

> <Gold.Chemscore.Lipo.Weighted>
-11.9051

> <Gold.Chemscore.Internal_Hbond.Weighted>
0.0000

> <Gold.Chemscore.DEClash.Weighted>
0.1867

> <Gold.Chemscore.DEInternal.Weighted>
3.8360

> <Gold.Chemscore.Rot.Weighted>
6.0410

> <Gold.Chemscore.Internal.Correction.Weighted>
   9.000000E+99

> <Gold.Protein.RotatedTorsions>
[ 6907 6896 6895 6894 ] final   28.16 input  -60.11 | X-H torsion
[ 7974 7965 7964 7962 ] final -119.11 input  175.53 | X-H torsion
[ 8008 7997 7996 7995 ] final  107.10 input   59.86 | X-H torsion
[ 10167 10162 10161 10158 ] final  -45.90 input  -65.29 | X-H torsion
[ 10718 10713 10712 10709 ] final -166.47 input   66.30 | X-H torsion
[ 10763 10752 10751 10750 ] final  -51.48 input  -60.55 | X-H torsion
[ 11005 11000 10999 10996 ] final   17.53 input  -57.11 | X-H torsion

> <Gold.Protein.ActiveResidues>
 VAL166  LYS551  ARG553  GLY616  TRP617  ASP618  TYR619  PRO620  LYS621  CYS622 
 ASP623  PHE694  ASN695  SER759  ASP760  ASP761  ALA762  ILE779  LEU786  VAL792 
 PHE793  MET794  SER795  GLU796  ALA797  LYS798  CYS799  TRP800  GLU811  SER814 

> <Gold.Protein.RotatedAtoms>
  152.0129  134.9866  160.0568 H   0  0  0  0  0  0  0  0  0  0  0  0  # atno 6907 bound_to 6896
  152.1411  133.4460  159.4775 H   0  0  0  0  0  0  0  0  0  0  0  0  # atno 6908 bound_to 6896
  150.6865  134.2222  159.4444 H   0  0  0  0  0  0  0  0  0  0  0  0  # atno 6909 bound_to 6896
  145.0663  140.8326  143.4122 H   0  0  0  0  0  0  0  0  0  0  0  0  # atno 7974 bound_to 7965
  156.1797  140.3101  155.9126 H   0  0  0  0  0  0  0  0  0  0  0  0  # atno 8008 bound_to 7997
  155.3410  140.0466  157.3062 H   0  0  0  0  0  0  0  0  0  0  0  0  # atno 8009 bound_to 7997
  154.5329  140.2236  155.8783 H   0  0  0  0  0  0  0  0  0  0  0  0  # atno 8010 bound_to 7997
  140.6839  143.2857  151.3705 H   0  0  0  0  0  0  0  0  0  0  0  0  # atno 10167 bound_to 10162
  156.6683  130.9074  151.3040 H   0  0  0  0  0  0  0  0  0  0  0  0  # atno 10718 bound_to 10713
  154.1273  135.6525  153.4915 H   0  0  0  0  0  0  0  0  0  0  0  0  # atno 10763 bound_to 10752
  153.0206  135.5284  154.7037 H   0  0  0  0  0  0  0  0  0  0  0  0  # atno 10764 bound_to 10752
  154.6261  135.2970  155.0241 H   0  0  0  0  0  0  0  0  0  0  0  0  # atno 10765 bound_to 10752
  140.4350  134.1381  155.7684 H   0  0  0  0  0  0  0  0  0  0  0  0  # atno 11005 bound_to 11000
  145.1347  139.2609  143.5521 LP  0  0  0  0  0  0  0  0  0  0  0  0  # atno 17320 bound_to 7965
  146.3527  140.1008  142.8608 LP  0  0  0  0  0  0  0  0  0  0  0  0  # atno 17321 bound_to 7965
  139.6183  144.0959  152.2366 LP  0  0  0  0  0  0  0  0  0  0  0  0  # atno 17342 bound_to 10162
  140.0395  144.6019  150.7423 LP  0  0  0  0  0  0  0  0  0  0  0  0  # atno 17343 bound_to 10162
  157.7086  130.9413  150.1012 LP  0  0  0  0  0  0  0  0  0  0  0  0  # atno 17370 bound_to 10713
  156.1958  130.3657  149.8851 LP  0  0  0  0  0  0  0  0  0  0  0  0  # atno 17371 bound_to 10713
  141.1730  133.8571  157.1512 LP  0  0  0  0  0  0  0  0  0  0  0  0  # atno 17394 bound_to 11000
  140.0108  134.9989  157.0392 LP  0  0  0  0  0  0  0  0  0  0  0  0  # atno 17395 bound_to 11000

$$$$
