AV-unprocessed.smi:160|AV-procd|sdf|1369|dock5
  -GOLD-   2262019 83D 1   1.00000     0.00000
 Structure written by MMmdl.
 28 29  0  0  0  0  0  0  0  0  2 V2000
  153.2186  139.0702  157.4262 N   0  5  0  0  0  0  0  0  0  0  0  0
  153.0808  138.1681  156.4304 C   0  0  0  0  0  0  0  0  0  0  0  0
  153.8416  137.2320  156.1865 O   0  0  0  0  0  0  0  0  0  0  0  0
  151.8590  138.3701  155.5657 C   0  0  0  0  0  0  0  0  0  0  0  0
  151.8766  138.0234  154.2427 N   0  0  0  0  0  0  0  0  0  0  0  0
  150.6377  138.3660  153.9169 C   0  0  0  0  0  0  0  0  0  0  0  0
  149.9223  138.8666  154.9280 N   0  0  0  0  0  0  0  0  0  0  0  0
  148.5054  139.3601  154.9441 C   0  0  2  0  0  0  0  0  0  0  0  0
  147.7144  138.4591  154.2286 O   0  0  0  0  0  0  0  0  0  0  0  0
  147.4296  138.9887  152.9382 C   0  0  1  0  0  0  0  0  0  0  0  0
  146.2027  138.3024  152.3116 C   0  0  0  0  0  0  0  0  0  0  0  0
  146.5005  137.8728  151.0005 O   0  0  0  0  0  0  0  0  0  0  0  0
  147.2763  140.4903  153.2206 C   0  0  1  0  0  0  0  0  0  0  0  0
  145.9813  140.7858  153.7136 O   0  0  0  0  0  0  0  0  0  0  0  0
  148.3242  140.7558  154.2970 C   0  0  2  0  0  0  0  0  0  0  0  0
  149.4982  141.2944  153.7144 O   0  0  0  0  0  0  0  0  0  0  0  0
  150.7155  138.8850  156.0285 N   0  0  0  0  0  0  0  0  0  0  0  0
  148.2251  139.3372  155.9978 H   0  0  0  0  0  0  0  0  0  0  0  0
  148.2995  138.8516  152.2934 H   0  0  0  0  0  0  0  0  0  0  0  0
  147.4359  141.0875  152.3215 H   0  0  0  0  0  0  0  0  0  0  0  0
  147.9679  141.4593  155.0508 H   0  0  0  0  0  0  0  0  0  0  0  0
  152.3807  139.3529  157.9485 H   0  0  0  0  0  0  0  0  0  0  0  0
  150.2414  138.2459  152.9194 H   0  0  0  0  0  0  0  0  0  0  0  0
  145.8649  137.4602  152.9162 H   0  0  0  0  0  0  0  0  0  0  0  0
  145.3738  139.0074  152.2412 H   0  0  0  0  0  0  0  0  0  0  0  0
  145.7418  138.0163  150.4560 H   0  0  0  0  0  0  0  0  0  0  0  0
  145.3484  140.5437  153.0552 H   0  0  0  0  0  0  0  0  0  0  0  0
  149.7262  140.7750  152.9588 H   0  0  0  0  0  0  0  0  0  0  0  0
  1  2  1  0  0  0  0
  1 22  1  0  0  0  0
  2  3  2  0  0  0  0
  2  4  1  0  0  0  0
  4 17  2  0  0  0  0
  4  5  1  0  0  0  0
  5  6  2  0  0  0  0
  6  7  1  0  0  0  0
  6 23  1  0  0  0  0
  7  8  1  0  0  0  0
  7 17  1  0  0  0  0
  8 18  1  0  0  0  0
  8 15  1  0  0  0  0
  8  9  1  0  0  0  0
  9 10  1  0  0  0  0
 10 19  1  0  0  0  0
 10 11  1  0  0  0  0
 10 13  1  0  0  0  0
 11 12  1  0  0  0  0
 11 24  1  0  0  0  0
 11 25  1  0  0  0  0
 12 26  1  0  0  0  0
 13 20  1  0  0  0  0
 13 14  1  0  0  0  0
 13 15  1  0  0  0  0
 14 27  1  0  0  0  0
 15 21  1  0  0  0  0
 15 16  1  0  0  0  0
 16 28  1  0  0  0  0
M  CHG  1   1  -1
M  END
> <s_m_source_file>
AV-unprocessed.smi

> <i_m_source_file_index>
160

> <i_lp_mmshare_version>
43012

> <i_f3d_flags>
0

> <s_epik_input>
W05IMl1DKD1PKWMxbltjSF1uKG4xKVtDQEBIXTJPW0NASF0oW0NIMl1bT0hdKVtDQEBIXShbT0hdKVtDQEhdMltPSF0=

> <s_epik_cmdline>
J2VwaWtfcHl0aG9uJywgJy1waCcsICc3LjAnLCAnLXRuJywgJzgnLCAnLW1hJywgJzIwMCcsICctbWV0YWxfYmluZGluZycsICctaW1hZScsICc8aW5maWxlLm1hZT4nLCAnLW9tYWUnLCAnPG91dGZpbGUubWFlPic=

> <r_lp_tautomer_probability>
1

> <r_epik_Ionization_Penalty>
6.6993

> <r_epik_Ionization_Penalty_Charging>
6.6993

> <r_epik_Ionization_Penalty_Neutral>
6.01698e-06

> <r_epik_State_Penalty>
6.69929

> <r_epik_Charging_Adjusted_Penalty>
13.3986

> <i_epik_Tot_Q>
-1

> <i_epik_Tot_abs_Q>
1

> <r_epik_Metal_State_Penalty>
2.62798

> <b_epik_Metal_Only>
1

> <s_epik_Chemistry_Notes>
This compound contains an acetal/aminal-like group ( X-CH(R)-Y where X, Y are N, S, or O) that may be acid/base labile, releasing an aldehyde.

> <s_lp_Force_Field>
OPLS_2005

> <r_lp_Energy>
46.3304

> <b_lp_Chiralities_Consistent>
1

> <s_lp_Variant>
AV-unprocessed.smi:160-27

> <Gold.Version>
5.8.1

> <Gold.Id.Protein>
6NUR|6NUR_protein|mol2

> <Gold.PLP.Fitness>
48.5183

> <Gold.PLP.PLP>
-26.8940

> <Gold.PLP.part.hbond>
-8.9131

> <Gold.PLP.part.metal>
0.0000

> <Gold.PLP.part.buried>
-1.0705

> <Gold.PLP.part.nonpolar>
-17.6872

> <Gold.PLP.part.repulsive>
0.3056

> <Gold.PLP.ligand.clash>
0.0000

> <Gold.PLP.ligand.torsion>
1.5492

> <Gold.PLP.Chemscore.Hbond>
6.4640

> <Gold.PLP.Chemscore.CHOScore>
1.7747

> <Gold.PLP.Chemscore.Metal>
0.0000

> <Gold.Chemscore.Hbonds>
donor molecule, donor type, donor heavy atom, donor atom, acceptor molecule, acceptor atom, score
      L1  H    12    26       P1 10171  0.96
      L1  H    14    27       P1 10175  1.00
      L1  H    16    28       P1  7957  1.00
      P1  H  7954  7966       L1    12  1.00
      P1  H  7997  8008       L1     1  2.00
      P1  H 10752 10764       L1     3  0.43
      L1  C     6    23       P1  7948  0.82
      L1  C     6    23       P1  7949  0.06
      L1  C     6    23       P1  7957  0.86

> <Gold.PLP.Chemscore.Internal.Correction>
0.0065

> <Gold.Rescore>
     Score         DG    S(hbond)    S(metal)    S(lipo)     H(rot)  DE(clash)    DE(int)     intcor
     13.71     -15.54       5.06        0.00      30.04       4.04       0.19       1.65       ----

> <Gold.Chemscore.Fitness>
13.7079

> <Gold.Chemscore.DG>
-15.5438

> <Gold.Chemscore.ZeroCoef>
-5.4800

> <Gold.Chemscore.Hbond>
5.0575

> <Gold.Chemscore.Metal>
0.0000

> <Gold.Chemscore.Lipo>
30.0423

> <Gold.Chemscore.Internal_Hbond>
0.0000

> <Gold.Chemscore.DEClash>
0.1852

> <Gold.Chemscore.DEInternal>
1.6506

> <Gold.Chemscore.Rot>
4.0403

> <Gold.Chemscore.Internal.Correction>
   9.000000E+99

> <Gold.Chemscore.Hbonds>
donor molecule, donor type, donor heavy atom, donor atom, acceptor molecule, acceptor atom, score
      L1  H    12    26       P1 10171  0.91
      L1  H    14    27       P1 10175  0.84
      L1  H    16    28       P1  7957  0.99
      P1  H  7954  7966       L1    12  0.72
      P1  H  7997  8008       L1     1  0.40
      P1  H 10752 10764       L1     3  0.41

> <Gold.Chemscore.Hbond.Weighted>
-16.8919

> <Gold.Chemscore.Metal.Weighted>
-0.0000

> <Gold.Chemscore.Lipo.Weighted>
-3.5149

> <Gold.Chemscore.Internal_Hbond.Weighted>
0.0000

> <Gold.Chemscore.DEClash.Weighted>
0.1852

> <Gold.Chemscore.DEInternal.Weighted>
1.6506

> <Gold.Chemscore.Rot.Weighted>
10.3431

> <Gold.Chemscore.Internal.Correction.Weighted>
   9.000000E+99

> <Gold.Protein.RotatedTorsions>
[ 6907 6896 6895 6894 ] final  168.18 input  -60.11 | X-H torsion
[ 7974 7965 7964 7962 ] final  -39.24 input  175.53 | X-H torsion
[ 8008 7997 7996 7995 ] final  -76.18 input   59.86 | X-H torsion
[ 10167 10162 10161 10158 ] final  137.88 input  -65.29 | X-H torsion
[ 10718 10713 10712 10709 ] final   75.02 input   66.30 | X-H torsion
[ 10763 10752 10751 10750 ] final   -0.02 input  -60.55 | X-H torsion
[ 11005 11000 10999 10996 ] final -114.13 input  -57.11 | X-H torsion

> <Gold.Protein.ActiveResidues>
 VAL166  LYS551  ARG553  GLY616  TRP617  ASP618  TYR619  PRO620  LYS621  CYS622 
 ASP623  PHE694  ASN695  SER759  ASP760  ASP761  ALA762  ILE779  LEU786  VAL792 
 PHE793  MET794  SER795  GLU796  ALA797  LYS798  CYS799  TRP800  GLU811  SER814 

> <Gold.Protein.RotatedAtoms>
  151.8517  133.3441  159.3675 H   0  0  0  0  0  0  0  0  0  0  0  0  # atno 6907 bound_to 6896
  150.7204  134.5293  159.5701 H   0  0  0  0  0  0  0  0  0  0  0  0  # atno 6908 bound_to 6896
  152.2788  134.7853  160.0451 H   0  0  0  0  0  0  0  0  0  0  0  0  # atno 6909 bound_to 6896
  146.0414  140.6603  142.9085 H   0  0  0  0  0  0  0  0  0  0  0  0  # atno 7974 bound_to 7965
  154.5483  140.0731  156.8625 H   0  0  0  0  0  0  0  0  0  0  0  0  # atno 8008 bound_to 7997
  155.3044  140.3386  155.4228 H   0  0  0  0  0  0  0  0  0  0  0  0  # atno 8009 bound_to 7997
  156.1938  140.1696  156.8026 H   0  0  0  0  0  0  0  0  0  0  0  0  # atno 8010 bound_to 7997
  139.5129  144.6385  151.5633 H   0  0  0  0  0  0  0  0  0  0  0  0  # atno 10167 bound_to 10162
  157.6617  130.9706  150.1294 H   0  0  0  0  0  0  0  0  0  0  0  0  # atno 10718 bound_to 10713
  153.3265  135.6972  153.6985 H   0  0  0  0  0  0  0  0  0  0  0  0  # atno 10763 bound_to 10752
  153.5804  135.3499  155.2873 H   0  0  0  0  0  0  0  0  0  0  0  0  # atno 10764 bound_to 10752
  154.8609  135.4293  154.2443 H   0  0  0  0  0  0  0  0  0  0  0  0  # atno 10765 bound_to 10752
  141.0571  133.9594  157.2734 H   0  0  0  0  0  0  0  0  0  0  0  0  # atno 11005 bound_to 11000
  144.7076  140.3915  143.7105 LP  0  0  0  0  0  0  0  0  0  0  0  0  # atno 17320 bound_to 7965
  145.6878  139.1632  143.2664 LP  0  0  0  0  0  0  0  0  0  0  0  0  # atno 17321 bound_to 7965
  140.6143  143.9378  150.6476 LP  0  0  0  0  0  0  0  0  0  0  0  0  # atno 17342 bound_to 10162
  140.2631  143.3509  152.1305 LP  0  0  0  0  0  0  0  0  0  0  0  0  # atno 17343 bound_to 10162
  156.2144  130.3669  149.8631 LP  0  0  0  0  0  0  0  0  0  0  0  0  # atno 17370 bound_to 10713
  156.6500  130.8740  151.3529 LP  0  0  0  0  0  0  0  0  0  0  0  0  # atno 17371 bound_to 10713
  139.9400  135.0192  156.8677 LP  0  0  0  0  0  0  0  0  0  0  0  0  # atno 17394 bound_to 11000
  140.5942  134.0233  155.7511 LP  0  0  0  0  0  0  0  0  0  0  0  0  # atno 17395 bound_to 11000

$$$$
