AV-unprocessed.smi:1835|AV-procd|sdf|7474|dock9
  -GOLD-   22720 9173D 1   1.00000     0.00000
 Structure written by MMmdl.
 41 42  0  0  0  0  0  0  0  0  1 V2000
  151.0285  138.1433  158.9868 C   0  0  0  0  0  0  0  0  0  0  0  0
  150.4732  137.2035  157.8866 C   0  0  1  0  0  0  0  0  0  0  0  0
  148.9996  136.8415  158.2348 C   0  0  0  0  0  0  0  0  0  0  0  0
  148.8105  136.4457  159.6279 N   0  0  0  0  0  0  0  0  0  0  0  0
  147.8622  136.9293  160.4442 C   0  0  0  0  0  0  0  0  0  0  0  0
  147.0286  137.7635  160.0879 O   0  0  0  0  0  0  0  0  0  0  0  0
  147.8521  136.3632  161.8715 C   0  0  0  0  0  0  0  0  0  0  0  0
  146.6340  135.5986  162.1877 N   0  0  0  0  0  0  0  0  0  0  0  0
  145.4268  136.3211  162.2687 C   0  0  0  0  0  0  0  0  0  0  0  0
  144.2594  135.7234  162.5547 C   0  0  0  0  0  0  0  0  0  0  0  0
  144.2603  134.2977  162.7822 C   0  0  0  0  0  0  0  0  0  0  0  0
  145.4099  133.5976  162.7107 C   0  0  0  0  0  0  0  0  0  0  0  0
  146.6890  134.2475  162.4017 C   0  0  0  0  0  0  0  0  0  0  0  0
  147.7445  133.6163  162.3392 O   0  0  0  0  0  0  0  0  0  0  0  0
  150.6333  137.7594  156.5223 N   0  0  0  0  0  0  0  0  0  0  0  0
  149.9287  139.0351  156.3485 C   0  0  0  0  0  0  0  0  0  0  0  0
  150.1136  139.6340  154.9435 C   0  0  0  0  0  0  0  0  0  0  0  0
  151.4983  139.8063  154.6765 O   0  0  0  0  0  0  0  0  0  0  0  0
  152.2122  138.5807  154.7570 C   0  0  0  0  0  0  0  0  0  0  0  0
  152.0399  137.9688  156.1583 C   0  0  0  0  0  0  0  0  0  0  0  0
  150.8631  137.7526  159.9901 H   0  0  0  0  0  0  0  0  0  0  0  0
  150.5613  139.1275  158.9374 H   0  0  0  0  0  0  0  0  0  0  0  0
  152.1065  138.2768  158.9105 H   0  0  0  0  0  0  0  0  0  0  0  0
  151.0519  136.2801  157.9379 H   0  0  0  0  0  0  0  0  0  0  0  0
  148.3512  137.6948  158.0340 H   0  0  0  0  0  0  0  0  0  0  0  0
  148.6223  136.0219  157.6254 H   0  0  0  0  0  0  0  0  0  0  0  0
  149.4515  135.7587  159.9979 H   0  0  0  0  0  0  0  0  0  0  0  0
  148.7377  135.7383  161.9947 H   0  0  0  0  0  0  0  0  0  0  0  0
  147.9782  137.1795  162.5855 H   0  0  0  0  0  0  0  0  0  0  0  0
  145.5132  137.3834  162.0924 H   0  0  0  0  0  0  0  0  0  0  0  0
  143.3446  136.2942  162.6167 H   0  0  0  0  0  0  0  0  0  0  0  0
  143.3349  133.7905  163.0118 H   0  0  0  0  0  0  0  0  0  0  0  0
  145.3913  132.5315  162.8846 H   0  0  0  0  0  0  0  0  0  0  0  0
  148.8586  138.9071  156.5009 H   0  0  0  0  0  0  0  0  0  0  0  0
  150.2726  139.7524  157.0952 H   0  0  0  0  0  0  0  0  0  0  0  0
  149.6653  138.9892  154.1861 H   0  0  0  0  0  0  0  0  0  0  0  0
  149.6156  140.6011  154.8760 H   0  0  0  0  0  0  0  0  0  0  0  0
  151.8578  137.8921  153.9882 H   0  0  0  0  0  0  0  0  0  0  0  0
  153.2664  138.7702  154.5547 H   0  0  0  0  0  0  0  0  0  0  0  0
  152.5209  138.6131  156.8961 H   0  0  0  0  0  0  0  0  0  0  0  0
  152.5840  137.0270  156.1569 H   0  0  0  0  0  0  0  0  0  0  0  0
  1  2  1  0  0  0  0
  1 21  1  0  0  0  0
  1 22  1  0  0  0  0
  1 23  1  0  0  0  0
  2  3  1  0  0  0  0
  2 15  1  0  0  0  0
  2 24  1  0  0  0  0
  3  4  1  0  0  0  0
  3 25  1  0  0  0  0
  3 26  1  0  0  0  0
  4  5  1  0  0  0  0
  4 27  1  0  0  0  0
  5  6  2  0  0  0  0
  5  7  1  0  0  0  0
  7  8  1  0  0  0  0
  7 28  1  0  0  0  0
  7 29  1  0  0  0  0
  8 13  1  0  0  0  0
  8  9  1  0  0  0  0
  9 10  2  0  0  0  0
  9 30  1  0  0  0  0
 10 11  1  0  0  0  0
 10 31  1  0  0  0  0
 11 12  2  0  0  0  0
 11 32  1  0  0  0  0
 12 13  1  0  0  0  0
 12 33  1  0  0  0  0
 13 14  2  0  0  0  0
 15 20  1  0  0  0  0
 15 16  1  0  0  0  0
 16 17  1  0  0  0  0
 16 34  1  0  0  0  0
 16 35  1  0  0  0  0
 17 18  1  0  0  0  0
 17 36  1  0  0  0  0
 17 37  1  0  0  0  0
 18 19  1  0  0  0  0
 19 20  1  0  0  0  0
 19 38  1  0  0  0  0
 19 39  1  0  0  0  0
 20 40  1  0  0  0  0
 20 41  1  0  0  0  0
M  END
> <s_m_source_file>
AV-unprocessed.smi

> <i_m_source_file_index>
1835

> <i_lp_mmshare_version>
43012

> <i_f3d_flags>
0

> <s_epik_input>
W0NIMl0xW0NIMl1PW0NIMl1bQ0gyXU4xW0NASF0oW0NIM10pW0NIMl1bTkhdQyg9TylbQ0gyXW4yW2NIXVtjSF1bY0hdW2NIXWMyPU8=

> <s_epik_cmdline>
J2VwaWtfcHl0aG9uJywgJy1waCcsICc3LjAnLCAnLXRuJywgJzgnLCAnLW1hJywgJzIwMCcsICctbWV0YWxfYmluZGluZycsICctaW1hZScsICc8aW5maWxlLm1hZT4nLCAnLW9tYWUnLCAnPG91dGZpbGUubWFlPic=

> <r_lp_tautomer_probability>
1

> <r_epik_Ionization_Penalty>
0.237383

> <r_epik_Ionization_Penalty_Charging>
3.58805e-07

> <r_epik_Ionization_Penalty_Neutral>
0.237382

> <r_epik_State_Penalty>
0.228245

> <r_epik_Charging_Adjusted_Penalty>
0.228245

> <i_epik_Tot_Q>
0

> <i_epik_Tot_abs_Q>
0

> <r_epik_Metal_State_Penalty>
0.22822

> <b_epik_Metal_Only>
0

> <s_lp_Force_Field>
OPLS_2005

> <r_lp_Energy>
38.1368

> <b_lp_Chiralities_Consistent>
1

> <s_lp_Variant>
AV-unprocessed.smi:1835-2

> <Gold.Version>
5.8.1

> <Gold.Id.Protein>
6NUR|6NUR_protein|mol2

> <Gold.PLP.Fitness>
41.6349

> <Gold.PLP.PLP>
-35.9866

> <Gold.PLP.part.hbond>
-2.0031

> <Gold.PLP.part.metal>
0.0000

> <Gold.PLP.part.buried>
-6.3351

> <Gold.PLP.part.nonpolar>
-27.5834

> <Gold.PLP.part.repulsive>
0.2458

> <Gold.PLP.ligand.clash>
0.0000

> <Gold.PLP.ligand.torsion>
0.1960

> <Gold.PLP.Chemscore.Hbond>
2.0000

> <Gold.PLP.Chemscore.CHOScore>
0.0000

> <Gold.PLP.Chemscore.Metal>
0.0000

> <Gold.Chemscore.Hbonds>
donor molecule, donor type, donor heavy atom, donor atom, acceptor molecule, acceptor atom, score
      P1  H  6934  6947       L1     6  0.96
      P1  H  7989  7998       L1    18  1.00

> <Gold.PLP.Chemscore.Internal.Correction>
0.0402

> <Gold.Rescore>
     Score         DG    S(hbond)    S(metal)    S(lipo)     H(rot)  DE(clash)    DE(int)     intcor
     15.05     -15.31       1.94        0.00      70.02       1.89       0.01       0.25       ----

> <Gold.Chemscore.Fitness>
15.0473

> <Gold.Chemscore.DG>
-15.3117

> <Gold.Chemscore.ZeroCoef>
-5.4800

> <Gold.Chemscore.Hbond>
1.9380

> <Gold.Chemscore.Metal>
0.0000

> <Gold.Chemscore.Lipo>
70.0214

> <Gold.Chemscore.Internal_Hbond>
0.0000

> <Gold.Chemscore.DEClash>
0.0135

> <Gold.Chemscore.DEInternal>
0.2509

> <Gold.Chemscore.Rot>
1.8882

> <Gold.Chemscore.Internal.Correction>
   9.000000E+99

> <Gold.Chemscore.Hbonds>
donor molecule, donor type, donor heavy atom, donor atom, acceptor molecule, acceptor atom, score
      P1  H  6934  6947       L1     6  0.65
      P1  H  7989  7998       L1    18  0.68

> <Gold.Chemscore.Hbond.Weighted>
-6.4730

> <Gold.Chemscore.Metal.Weighted>
-0.0000

> <Gold.Chemscore.Lipo.Weighted>
-8.1925

> <Gold.Chemscore.Internal_Hbond.Weighted>
0.0000

> <Gold.Chemscore.DEClash.Weighted>
0.0135

> <Gold.Chemscore.DEInternal.Weighted>
0.2509

> <Gold.Chemscore.Rot.Weighted>
4.8338

> <Gold.Chemscore.Internal.Correction.Weighted>
   9.000000E+99

> <Gold.Protein.RotatedTorsions>
[ 6907 6896 6895 6894 ] final  -51.28 input  -60.11 | X-H torsion
[ 7974 7965 7964 7962 ] final  -27.90 input  175.53 | X-H torsion
[ 8008 7997 7996 7995 ] final  179.56 input   59.86 | X-H torsion
[ 10167 10162 10161 10158 ] final  110.13 input  -65.29 | X-H torsion
[ 10718 10713 10712 10709 ] final  -41.98 input   66.30 | X-H torsion
[ 10763 10752 10751 10750 ] final -115.37 input  -60.55 | X-H torsion
[ 11005 11000 10999 10996 ] final   73.53 input  -57.11 | X-H torsion

> <Gold.Protein.ActiveResidues>
 VAL166  LYS551  ARG553  GLY616  TRP617  ASP618  TYR619  PRO620  LYS621  CYS622 
 ASP623  PHE694  ASN695  SER759  ASP760  ASP761  ALA762  ILE779  LEU786  VAL792 
 PHE793  MET794  SER795  GLU796  ALA797  LYS798  CYS799  TRP800  GLU811  SER814 

> <Gold.Protein.RotatedAtoms>
  150.8626  134.7981  159.7093 H   0  0  0  0  0  0  0  0  0  0  0  0  # atno 6907 bound_to 6896
  152.4658  134.5075  159.9753 H   0  0  0  0  0  0  0  0  0  0  0  0  # atno 6908 bound_to 6896
  151.5177  133.3434  159.2931 H   0  0  0  0  0  0  0  0  0  0  0  0  # atno 6909 bound_to 6896
  146.1326  140.5212  142.8687 H   0  0  0  0  0  0  0  0  0  0  0  0  # atno 7974 bound_to 7965
  156.0419  140.1305  157.0146 H   0  0  0  0  0  0  0  0  0  0  0  0  # atno 8008 bound_to 7997
  154.4395  140.1028  156.6320 H   0  0  0  0  0  0  0  0  0  0  0  0  # atno 8009 bound_to 7997
  155.5653  140.3465  155.4504 H   0  0  0  0  0  0  0  0  0  0  0  0  # atno 8010 bound_to 7997
  139.6712  144.7125  151.1685 H   0  0  0  0  0  0  0  0  0  0  0  0  # atno 10167 bound_to 10162
  156.2646  130.4200  149.8505 H   0  0  0  0  0  0  0  0  0  0  0  0  # atno 10718 bound_to 10713
  154.8478  135.4384  154.1652 H   0  0  0  0  0  0  0  0  0  0  0  0  # atno 10763 bound_to 10752
  153.2779  135.6951  153.7421 H   0  0  0  0  0  0  0  0  0  0  0  0  # atno 10764 bound_to 10752
  153.6636  135.3431  155.3109 H   0  0  0  0  0  0  0  0  0  0  0  0  # atno 10765 bound_to 10752
  139.9435  134.7355  156.1037 H   0  0  0  0  0  0  0  0  0  0  0  0  # atno 11005 bound_to 11000
  144.7706  140.5628  143.6673 LP  0  0  0  0  0  0  0  0  0  0  0  0  # atno 17320 bound_to 7965
  145.5228  139.1476  143.3543 LP  0  0  0  0  0  0  0  0  0  0  0  0  # atno 17321 bound_to 7965
  140.7618  143.5842  150.8863 LP  0  0  0  0  0  0  0  0  0  0  0  0  # atno 17342 bound_to 10162
  139.9507  143.6275  152.3030 LP  0  0  0  0  0  0  0  0  0  0  0  0  # atno 17343 bound_to 10162
  156.6008  130.8546  151.3431 LP  0  0  0  0  0  0  0  0  0  0  0  0  # atno 17370 bound_to 10713
  157.7262  130.9627  150.1648 LP  0  0  0  0  0  0  0  0  0  0  0  0  # atno 17371 bound_to 10713
  141.1078  133.6653  156.2907 LP  0  0  0  0  0  0  0  0  0  0  0  0  # atno 17394 bound_to 11000
  140.5891  134.5668  157.5496 LP  0  0  0  0  0  0  0  0  0  0  0  0  # atno 17395 bound_to 11000

$$$$
