AV-unprocessed.smi:290|AV-procd|sdf|2221|dock8
  -GOLD-   2262022 63D 1   1.00000     0.00000
 Structure written by MMmdl.
 59 62  0  0  0  0  0  0  0  0  2 V2000
  149.6969  141.4110  156.2179 C   0  0  0  0  0  0  0  0  0  0  0  0
  149.3927  141.0024  154.7667 C   0  0  2  0  0  0  0  0  0  0  0  0
  148.3228  141.7911  154.2465 O   0  0  0  0  0  0  0  0  0  0  0  0
  147.2487  140.9525  153.8487 C   0  0  0  0  0  0  0  0  0  0  0  0
  147.9243  139.6416  153.4699 C   0  0  0  0  0  0  0  0  0  0  0  0
  149.0184  139.5187  154.5200 C   0  0  2  0  0  0  0  0  0  0  0  0
  148.4482  138.9355  155.6816 O   0  0  0  0  0  0  0  0  0  0  0  0
  150.1924  138.6275  154.0484 C   0  0  0  0  0  0  0  0  0  0  0  0
  151.2282  138.4492  155.0540 N   0  0  0  0  0  0  0  0  0  0  0  0
  152.1208  139.4006  155.4966 C   0  0  0  0  0  0  0  0  0  0  0  0
  152.9579  138.9975  156.4139 N   0  0  0  0  0  0  0  0  0  0  0  0
  152.6125  137.6689  156.6204 C   0  0  0  0  0  0  0  0  0  0  0  0
  153.0999  136.6465  157.4745 C   0  0  0  0  0  0  0  0  0  0  0  0
  154.1192  136.8669  158.3355 N   0  0  0  0  0  0  0  0  0  0  0  0
  155.2545  135.9840  158.1493 C   0  0  0  0  0  0  0  0  0  0  0  0
  156.0638  136.0708  159.4443 C   0  0  0  0  0  0  0  0  0  0  0  0
  155.1635  136.7934  160.4690 C   0  0  2  0  0  0  0  0  0  0  0  0
  155.1987  136.1070  161.7997 N   0  3  1  0  0  0  0  0  0  0  0  0
  156.5984  135.8811  162.2455 C   0  0  0  0  0  0  0  0  0  0  0  0
  154.3584  136.7295  162.8626 C   0  0  0  0  0  0  0  0  0  0  0  0
  154.2749  135.9062  164.1622 C   0  0  0  0  0  0  0  0  0  0  0  0
  153.8081  136.7113  165.2244 O   0  0  0  0  0  0  0  0  0  0  0  0
  153.7911  136.8594  159.7563 C   0  0  1  0  0  0  0  0  0  0  0  0
  152.9496  138.1077  160.1046 C   0  0  0  0  0  0  0  0  0  0  0  0
  152.5038  135.4263  157.4135 N   0  0  0  0  0  0  0  0  0  0  0  0
  151.4889  135.2227  156.5677 C   0  0  0  0  0  0  0  0  0  0  0  0
  150.9247  136.0841  155.7179 N   0  0  0  0  0  0  0  0  0  0  0  0
  151.5253  137.3074  155.7776 C   0  0  0  0  0  0  0  0  0  0  0  0
  155.5299  137.8149  160.5911 H   0  0  0  0  0  0  0  0  0  0  0  0
  153.2256  135.9533  159.9791 H   0  0  0  0  0  0  0  0  0  0  0  0
  150.5022  140.8102  156.6402 H   0  0  0  0  0  0  0  0  0  0  0  0
  148.8214  141.3000  156.8580 H   0  0  0  0  0  0  0  0  0  0  0  0
  150.0055  142.4554  156.2653 H   0  0  0  0  0  0  0  0  0  0  0  0
  150.2564  141.2550  154.1518 H   0  0  0  0  0  0  0  0  0  0  0  0
  146.5734  140.8094  154.6934 H   0  0  0  0  0  0  0  0  0  0  0  0
  146.6815  141.3890  153.0264 H   0  0  0  0  0  0  0  0  0  0  0  0
  147.2369  138.7948  153.4481 H   0  0  0  0  0  0  0  0  0  0  0  0
  148.3620  139.7411  152.4753 H   0  0  0  0  0  0  0  0  0  0  0  0
  147.7166  138.3981  155.4196 H   0  0  0  0  0  0  0  0  0  0  0  0
  149.8265  137.6422  153.7562 H   0  0  0  0  0  0  0  0  0  0  0  0
  150.6544  139.0546  153.1573 H   0  0  0  0  0  0  0  0  0  0  0  0
  152.1333  140.4100  155.1118 H   0  0  0  0  0  0  0  0  0  0  0  0
  154.9260  134.9578  157.9758 H   0  0  0  0  0  0  0  0  0  0  0  0
  155.8469  136.2967  157.2886 H   0  0  0  0  0  0  0  0  0  0  0  0
  156.3419  135.0665  159.7673 H   0  0  0  0  0  0  0  0  0  0  0  0
  156.9872  136.6303  159.2896 H   0  0  0  0  0  0  0  0  0  0  0  0
  157.0543  136.8129  162.5823 H   0  0  0  0  0  0  0  0  0  0  0  0
  157.2194  135.4784  161.4457 H   0  0  0  0  0  0  0  0  0  0  0  0
  156.6489  135.1582  163.0582 H   0  0  0  0  0  0  0  0  0  0  0  0
  154.7412  137.7269  163.0827 H   0  0  0  0  0  0  0  0  0  0  0  0
  153.3353  136.8485  162.5105 H   0  0  0  0  0  0  0  0  0  0  0  0
  153.6481  135.0216  164.0580 H   0  0  0  0  0  0  0  0  0  0  0  0
  155.2678  135.5421  164.4275 H   0  0  0  0  0  0  0  0  0  0  0  0
  153.4498  137.5097  164.8659 H   0  0  0  0  0  0  0  0  0  0  0  0
  152.7189  138.1866  161.1643 H   0  0  0  0  0  0  0  0  0  0  0  0
  151.9965  138.0989  159.5749 H   0  0  0  0  0  0  0  0  0  0  0  0
  153.4713  139.0223  159.8203 H   0  0  0  0  0  0  0  0  0  0  0  0
  151.0677  134.2281  156.5727 H   0  0  0  0  0  0  0  0  0  0  0  0
  154.7969  135.1932  161.6436 H   0  0  0  0  0  0  0  0  0  0  0  0
  1  2  1  0  0  0  0
  1 31  1  0  0  0  0
  1 32  1  0  0  0  0
  1 33  1  0  0  0  0
  2  6  1  0  0  0  0
  2  3  1  0  0  0  0
  2 34  1  0  0  0  0
  3  4  1  0  0  0  0
  4  5  1  0  0  0  0
  4 35  1  0  0  0  0
  4 36  1  0  0  0  0
  5  6  1  0  0  0  0
  5 37  1  0  0  0  0
  5 38  1  0  0  0  0
  6  7  1  0  0  0  0
  6  8  1  0  0  0  0
  7 39  1  0  0  0  0
  8  9  1  0  0  0  0
  8 40  1  0  0  0  0
  8 41  1  0  0  0  0
  9 28  1  0  0  0  0
  9 10  1  0  0  0  0
 10 11  2  0  0  0  0
 10 42  1  0  0  0  0
 11 12  1  0  0  0  0
 12 28  2  0  0  0  0
 12 13  1  0  0  0  0
 13 14  1  0  0  0  0
 13 25  2  0  0  0  0
 14 23  1  0  0  0  0
 14 15  1  0  0  0  0
 15 16  1  0  0  0  0
 15 43  1  0  0  0  0
 15 44  1  0  0  0  0
 16 17  1  0  0  0  0
 16 45  1  0  0  0  0
 16 46  1  0  0  0  0
 17 29  1  0  0  0  0
 17 18  1  0  0  0  0
 17 23  1  0  0  0  0
 18 19  1  0  0  0  0
 18 20  1  0  0  0  0
 18 59  1  0  0  0  0
 19 47  1  0  0  0  0
 19 48  1  0  0  0  0
 19 49  1  0  0  0  0
 20 21  1  0  0  0  0
 20 50  1  0  0  0  0
 20 51  1  0  0  0  0
 21 22  1  0  0  0  0
 21 52  1  0  0  0  0
 21 53  1  0  0  0  0
 22 54  1  0  0  0  0
 23 30  1  0  0  0  0
 23 24  1  0  0  0  0
 24 55  1  0  0  0  0
 24 56  1  0  0  0  0
 24 57  1  0  0  0  0
 25 26  1  0  0  0  0
 26 27  2  0  0  0  0
 26 58  1  0  0  0  0
 27 28  1  0  0  0  0
M  CHG  1  18   1
M  END
> <s_m_source_file>
AV-unprocessed.smi

> <i_m_source_file_index>
290

> <i_lp_mmshare_version>
43012

> <i_f3d_flags>
0

> <s_epik_input>
W0NIMl0xW0NIMl1PW0NAQEhdKFtDSDNdKVtDQEBdMShbT0hdKVtDSDJdbihbY0hdbjIpYyhjMjMpbltjSF1uYzNONFtDSDJdW0NIMl1bQ0BIXShbQ0BIXTRbQ0gzXSlOKFtDSDNdKVtDSDJdW0NIMl1bT0hd

> <s_epik_cmdline>
J2VwaWtfcHl0aG9uJywgJy1waCcsICc3LjAnLCAnLXRuJywgJzgnLCAnLW1hJywgJzIwMCcsICctbWV0YWxfYmluZGluZycsICctaW1hZScsICc8aW5maWxlLm1hZT4nLCAnLW9tYWUnLCAnPG91dGZpbGUubWFlPic=

> <r_lp_tautomer_probability>
1

> <r_epik_Ionization_Penalty>
0.0036983

> <r_epik_Ionization_Penalty_Charging>
0.0032725

> <r_epik_Ionization_Penalty_Neutral>
0.000425798

> <r_epik_State_Penalty>
-0

> <r_epik_Charging_Adjusted_Penalty>
0.0032725

> <i_epik_Tot_Q>
1

> <i_epik_Tot_abs_Q>
1

> <r_epik_Metal_State_Penalty>
-0

> <b_epik_Metal_Only>
0

> <s_lp_Force_Field>
OPLS_2005

> <r_lp_Energy>
65.2566

> <b_lp_Chiralities_Consistent>
1

> <s_lp_Variant>
AV-unprocessed.smi:290-7

> <Gold.Version>
5.8.1

> <Gold.Id.Protein>
6NUR|6NUR_protein|mol2

> <Gold.PLP.Fitness>
44.2462

> <Gold.PLP.PLP>
-41.1733

> <Gold.PLP.part.hbond>
-5.0000

> <Gold.PLP.part.metal>
0.0000

> <Gold.PLP.part.buried>
-2.3749

> <Gold.PLP.part.nonpolar>
-34.3724

> <Gold.PLP.part.repulsive>
0.3253

> <Gold.PLP.ligand.clash>
0.0000

> <Gold.PLP.ligand.torsion>
0.3325

> <Gold.PLP.Chemscore.Hbond>
1.1560

> <Gold.PLP.Chemscore.CHOScore>
0.0000

> <Gold.PLP.Chemscore.Metal>
0.0000

> <Gold.Chemscore.Hbonds>
donor molecule, donor type, donor heavy atom, donor atom, acceptor molecule, acceptor atom, score
      P1  H  7997  8008       L1    11  1.00

> <Gold.PLP.Chemscore.Internal.Correction>
0.2698

> <Gold.Rescore>
     Score         DG    S(hbond)    S(metal)    S(lipo)     H(rot)  DE(clash)    DE(int)     intcor
      8.28      -8.85       0.99        0.00      80.63       3.67       0.18       0.40       ----

> <Gold.Chemscore.Fitness>
8.2770

> <Gold.Chemscore.DG>
-8.8512

> <Gold.Chemscore.ZeroCoef>
-5.4800

> <Gold.Chemscore.Hbond>
0.9945

> <Gold.Chemscore.Metal>
0.0000

> <Gold.Chemscore.Lipo>
80.6325

> <Gold.Chemscore.Internal_Hbond>
0.0000

> <Gold.Chemscore.DEClash>
0.1779

> <Gold.Chemscore.DEInternal>
0.3964

> <Gold.Chemscore.Rot>
3.6658

> <Gold.Chemscore.Internal.Correction>
   9.000000E+99

> <Gold.Chemscore.Hbonds>
donor molecule, donor type, donor heavy atom, donor atom, acceptor molecule, acceptor atom, score
      P1  H  7997  8008       L1    11  0.65

> <Gold.Chemscore.Hbond.Weighted>
-3.3217

> <Gold.Chemscore.Metal.Weighted>
-0.0000

> <Gold.Chemscore.Lipo.Weighted>
-9.4340

> <Gold.Chemscore.Internal_Hbond.Weighted>
0.0000

> <Gold.Chemscore.DEClash.Weighted>
0.1779

> <Gold.Chemscore.DEInternal.Weighted>
0.3964

> <Gold.Chemscore.Rot.Weighted>
9.3844

> <Gold.Chemscore.Internal.Correction.Weighted>
   9.000000E+99

> <Gold.Protein.RotatedTorsions>
[ 6907 6896 6895 6894 ] final   93.82 input  -60.11 | X-H torsion
[ 7974 7965 7964 7962 ] final  -10.04 input  175.53 | X-H torsion
[ 8008 7997 7996 7995 ] final  -45.80 input   59.86 | X-H torsion
[ 10167 10162 10161 10158 ] final  158.14 input  -65.29 | X-H torsion
[ 10718 10713 10712 10709 ] final -165.95 input   66.30 | X-H torsion
[ 10763 10752 10751 10750 ] final    8.08 input  -60.55 | X-H torsion
[ 11005 11000 10999 10996 ] final -140.53 input  -57.11 | X-H torsion

> <Gold.Protein.ActiveResidues>
 VAL166  LYS551  ARG553  GLY616  TRP617  ASP618  TYR619  PRO620  LYS621  CYS622 
 ASP623  PHE694  ASN695  SER759  ASP760  ASP761  ALA762  ILE779  LEU786  VAL792 
 PHE793  MET794  SER795  GLU796  ALA797  LYS798  CYS799  TRP800  GLU811  SER814 

> <Gold.Protein.RotatedAtoms>
  152.5451  134.1289  159.8430 H   0  0  0  0  0  0  0  0  0  0  0  0  # atno 6907 bound_to 6896
  151.1337  133.5012  159.2606 H   0  0  0  0  0  0  0  0  0  0  0  0  # atno 6908 bound_to 6896
  151.1647  135.0300  159.8780 H   0  0  0  0  0  0  0  0  0  0  0  0  # atno 6909 bound_to 6896
  146.2233  140.2705  142.8356 H   0  0  0  0  0  0  0  0  0  0  0  0  # atno 7974 bound_to 7965
  154.4003  140.1387  156.3906 H   0  0  0  0  0  0  0  0  0  0  0  0  # atno 8008 bound_to 7997
  155.7917  140.3478  155.5333 H   0  0  0  0  0  0  0  0  0  0  0  0  # atno 8009 bound_to 7997
  155.8572  140.0951  157.1627 H   0  0  0  0  0  0  0  0  0  0  0  0  # atno 8010 bound_to 7997
  139.4825  144.4852  151.8388 H   0  0  0  0  0  0  0  0  0  0  0  0  # atno 10167 bound_to 10162
  156.6607  130.9045  151.3028 H   0  0  0  0  0  0  0  0  0  0  0  0  # atno 10718 bound_to 10713
  153.2290  135.6890  153.7912 H   0  0  0  0  0  0  0  0  0  0  0  0  # atno 10763 bound_to 10752
  153.7083  135.3286  155.3241 H   0  0  0  0  0  0  0  0  0  0  0  0  # atno 10764 bound_to 10752
  154.8305  135.4584  154.1168 H   0  0  0  0  0  0  0  0  0  0  0  0  # atno 10765 bound_to 10752
  140.8413  134.2398  157.4808 H   0  0  0  0  0  0  0  0  0  0  0  0  # atno 11005 bound_to 11000
  144.9271  140.7934  143.5712 LP  0  0  0  0  0  0  0  0  0  0  0  0  # atno 17320 bound_to 7965
  145.2646  139.1978  143.4874 LP  0  0  0  0  0  0  0  0  0  0  0  0  # atno 17321 bound_to 7965
  140.4331  144.2088  150.5888 LP  0  0  0  0  0  0  0  0  0  0  0  0  # atno 17342 bound_to 10162
  140.4759  143.2396  151.9024 LP  0  0  0  0  0  0  0  0  0  0  0  0  # atno 17343 bound_to 10162
  157.7110  130.9441  150.1090 LP  0  0  0  0  0  0  0  0  0  0  0  0  # atno 17370 bound_to 10713
  156.2013  130.3660  149.8785 LP  0  0  0  0  0  0  0  0  0  0  0  0  # atno 17371 bound_to 10713
  139.8703  134.9637  156.4470 LP  0  0  0  0  0  0  0  0  0  0  0  0  # atno 17394 bound_to 11000
  140.8891  133.7861  155.9552 LP  0  0  0  0  0  0  0  0  0  0  0  0  # atno 17395 bound_to 11000

$$$$
