AV-unprocessed.smi:1731|AV-procd|sdf|6975|dock2
  -GOLD-   22720 8183D 1   1.00000     0.00000
 Structure written by MMmdl.
 41 42  0  0  0  0  0  0  0  0  1 V2000
  146.1817  132.2714  149.6088 C   0  0  0  0  0  0  0  0  0  0  0  0
  145.3012  133.0436  150.6015 C   0  0  2  0  0  0  0  0  0  0  0  0
  145.0369  134.4827  150.1185 C   0  0  0  0  0  0  0  0  0  0  0  0
  144.1593  135.2644  151.1126 C   0  0  0  0  0  0  0  0  0  0  0  0
  144.7498  135.2688  152.5357 C   0  0  2  0  0  0  0  0  0  0  0  0
  145.9520  136.0996  152.5810 N   0  0  0  0  0  0  0  0  0  0  0  0
  146.0491  137.2979  153.1741 C   0  0  0  0  0  0  0  0  0  0  0  0
  145.1145  137.8492  153.7560 O   0  0  0  0  0  0  0  0  0  0  0  0
  147.2873  137.8027  153.0500 N   0  0  0  0  0  0  0  0  0  0  0  0
  147.7654  139.0409  153.5478 C   0  0  0  0  0  0  0  0  0  0  0  0
  147.1111  140.2884  153.3781 C   0  0  0  0  0  0  0  0  0  0  0  0
  147.7921  141.2685  153.9518 N   0  0  0  0  0  0  0  0  0  0  0  0
  148.8851  140.6711  154.4897 N   0  0  0  0  0  0  0  0  0  0  0  0
  149.8639  141.4709  155.2049 C   0  0  0  0  0  0  0  0  0  0  0  0
  150.9789  140.5949  155.7803 C   0  0  0  0  0  0  0  0  0  0  0  0
  151.1440  140.6095  157.1056 N   0  0  0  0  0  0  0  0  0  0  0  0
  151.6805  139.9102  155.0387 O   0  0  0  0  0  0  0  0  0  0  0  0
  148.8970  139.3078  154.2651 C   0  0  0  0  0  0  0  0  0  0  0  0
  145.0415  133.8297  153.0111 C   0  0  0  0  0  0  0  0  0  0  0  0
  145.9189  133.0535  152.0130 C   0  0  0  0  0  0  0  0  0  0  0  0
  147.1633  132.7348  149.5049 H   0  0  0  0  0  0  0  0  0  0  0  0
  145.7225  132.2385  148.6204 H   0  0  0  0  0  0  0  0  0  0  0  0
  146.3321  131.2422  149.9357 H   0  0  0  0  0  0  0  0  0  0  0  0
  144.3418  132.5276  150.6589 H   0  0  0  0  0  0  0  0  0  0  0  0
  145.9841  135.0046  149.9762 H   0  0  0  0  0  0  0  0  0  0  0  0
  144.5495  134.4636  149.1432 H   0  0  0  0  0  0  0  0  0  0  0  0
  144.0147  136.2865  150.7605 H   0  0  0  0  0  0  0  0  0  0  0  0
  143.1671  134.8119  151.1403 H   0  0  0  0  0  0  0  0  0  0  0  0
  144.0073  135.7114  153.2021 H   0  0  0  0  0  0  0  0  0  0  0  0
  146.7743  135.7270  152.1295 H   0  0  0  0  0  0  0  0  0  0  0  0
  147.9608  137.2399  152.5510 H   0  0  0  0  0  0  0  0  0  0  0  0
  146.1850  140.5115  152.8690 H   0  0  0  0  0  0  0  0  0  0  0  0
  150.2955  142.2121  154.5302 H   0  0  0  0  0  0  0  0  0  0  0  0
  149.3536  142.0189  155.9982 H   0  0  0  0  0  0  0  0  0  0  0  0
  151.8665  140.0473  157.5319 H   0  0  0  0  0  0  0  0  0  0  0  0
  150.5427  141.1846  157.6778 H   0  0  0  0  0  0  0  0  0  0  0  0
  149.6935  138.6747  154.6268 H   0  0  0  0  0  0  0  0  0  0  0  0
  145.5141  133.8397  153.9940 H   0  0  0  0  0  0  0  0  0  0  0  0
  144.0969  133.2995  153.1386 H   0  0  0  0  0  0  0  0  0  0  0  0
  146.0525  132.0308  152.3673 H   0  0  0  0  0  0  0  0  0  0  0  0
  146.9147  133.4975  151.9782 H   0  0  0  0  0  0  0  0  0  0  0  0
  1  2  1  0  0  0  0
  1 21  1  0  0  0  0
  1 22  1  0  0  0  0
  1 23  1  0  0  0  0
  2 20  1  0  0  0  0
  2  3  1  0  0  0  0
  2 24  1  0  0  0  0
  3  4  1  0  0  0  0
  3 25  1  0  0  0  0
  3 26  1  0  0  0  0
  4  5  1  0  0  0  0
  4 27  1  0  0  0  0
  4 28  1  0  0  0  0
  5  6  1  0  0  0  0
  5 19  1  0  0  0  0
  5 29  1  0  0  0  0
  6  7  1  0  0  0  0
  6 30  1  0  0  0  0
  7  8  2  0  0  0  0
  7  9  1  0  0  0  0
  9 10  1  0  0  0  0
  9 31  1  0  0  0  0
 10 18  2  0  0  0  0
 10 11  1  0  0  0  0
 11 12  2  0  0  0  0
 11 32  1  0  0  0  0
 12 13  1  0  0  0  0
 13 14  1  0  0  0  0
 13 18  1  0  0  0  0
 14 15  1  0  0  0  0
 14 33  1  0  0  0  0
 14 34  1  0  0  0  0
 15 16  1  0  0  0  0
 15 17  2  0  0  0  0
 16 35  1  0  0  0  0
 16 36  1  0  0  0  0
 18 37  1  0  0  0  0
 19 20  1  0  0  0  0
 19 38  1  0  0  0  0
 19 39  1  0  0  0  0
 20 40  1  0  0  0  0
 20 41  1  0  0  0  0
M  END
> <s_m_source_file>
AV-unprocessed.smi

> <i_m_source_file_index>
1731

> <i_lp_mmshare_version>
43012

> <i_f3d_flags>
0

> <s_epik_input>
W0NIM11bQ0BASF0xW0NIMl1bQ0gyXVtDQEhdKFtDSDJdW0NIMl0xKVtOSF1DKD1PKVtOSF1jMltjSF1ubihbY0hdMilbQ0gyXUMoPU8pW05IMl0=

> <s_epik_cmdline>
J2VwaWtfcHl0aG9uJywgJy1waCcsICc3LjAnLCAnLXRuJywgJzgnLCAnLW1hJywgJzIwMCcsICctbWV0YWxfYmluZGluZycsICctaW1hZScsICc8aW5maWxlLm1hZT4nLCAnLW9tYWUnLCAnPG91dGZpbGUubWFlPic=

> <r_lp_tautomer_probability>
1

> <r_epik_Ionization_Penalty>
4.81284e-05

> <r_epik_Ionization_Penalty_Charging>
0

> <r_epik_Ionization_Penalty_Neutral>
4.81284e-05

> <r_epik_State_Penalty>
-0

> <r_epik_Charging_Adjusted_Penalty>
0

> <i_epik_Tot_Q>
0

> <i_epik_Tot_abs_Q>
0

> <r_epik_Metal_State_Penalty>
-0

> <b_epik_Metal_Only>
0

> <s_lp_Force_Field>
OPLS_2005

> <r_lp_Energy>
11.3018

> <b_lp_Chiralities_Consistent>
1

> <s_lp_Variant>
AV-unprocessed.smi:1731-2

> <Gold.Version>
5.8.1

> <Gold.Id.Protein>
6NUR|6NUR_protein|mol2

> <Gold.PLP.Fitness>
39.5314

> <Gold.PLP.PLP>
-30.2898

> <Gold.PLP.part.hbond>
-2.8639

> <Gold.PLP.part.metal>
0.0000

> <Gold.PLP.part.buried>
-0.0903

> <Gold.PLP.part.nonpolar>
-26.7178

> <Gold.PLP.part.repulsive>
0.4783

> <Gold.PLP.ligand.clash>
0.0000

> <Gold.PLP.ligand.torsion>
0.5282

> <Gold.PLP.Chemscore.Hbond>
2.4243

> <Gold.PLP.Chemscore.CHOScore>
1.0000

> <Gold.PLP.Chemscore.Metal>
0.0000

> <Gold.Chemscore.Hbonds>
donor molecule, donor type, donor heavy atom, donor atom, acceptor molecule, acceptor atom, score
      L1  H     6    30       P1  7948  0.41
      L1  H     9    31       P1  7948  1.00
      P1  H  7989  7998       L1    17  1.00
      L1  C    11    32       P1 10175  1.00

> <Gold.PLP.Chemscore.Internal.Correction>
0.0251

> <Gold.Rescore>
     Score         DG    S(hbond)    S(metal)    S(lipo)     H(rot)  DE(clash)    DE(int)     intcor
     14.16     -16.51       2.31        0.00      69.84       1.90       1.72       0.63       ----

> <Gold.Chemscore.Fitness>
14.1607

> <Gold.Chemscore.DG>
-16.5089

> <Gold.Chemscore.ZeroCoef>
-5.4800

> <Gold.Chemscore.Hbond>
2.3140

> <Gold.Chemscore.Metal>
0.0000

> <Gold.Chemscore.Lipo>
69.8422

> <Gold.Chemscore.Internal_Hbond>
0.0000

> <Gold.Chemscore.DEClash>
1.7229

> <Gold.Chemscore.DEInternal>
0.6254

> <Gold.Chemscore.Rot>
1.9029

> <Gold.Chemscore.Internal.Correction>
   9.000000E+99

> <Gold.Chemscore.Hbonds>
donor molecule, donor type, donor heavy atom, donor atom, acceptor molecule, acceptor atom, score
      L1  H     6    30       P1  7948  0.41
      L1  H     9    31       P1  7948  0.97
      P1  H  7989  7998       L1    17  0.33

> <Gold.Chemscore.Hbond.Weighted>
-7.7288

> <Gold.Chemscore.Metal.Weighted>
-0.0000

> <Gold.Chemscore.Lipo.Weighted>
-8.1715

> <Gold.Chemscore.Internal_Hbond.Weighted>
0.0000

> <Gold.Chemscore.DEClash.Weighted>
1.7229

> <Gold.Chemscore.DEInternal.Weighted>
0.6254

> <Gold.Chemscore.Rot.Weighted>
4.8714

> <Gold.Chemscore.Internal.Correction.Weighted>
   9.000000E+99

> <Gold.Protein.RotatedTorsions>
[ 6907 6896 6895 6894 ] final -155.57 input  -60.11 | X-H torsion
[ 7974 7965 7964 7962 ] final   27.55 input  175.53 | X-H torsion
[ 8008 7997 7996 7995 ] final   32.02 input   59.86 | X-H torsion
[ 10167 10162 10161 10158 ] final   89.21 input  -65.29 | X-H torsion
[ 10718 10713 10712 10709 ] final   75.56 input   66.30 | X-H torsion
[ 10763 10752 10751 10750 ] final  -78.07 input  -60.55 | X-H torsion
[ 11005 11000 10999 10996 ] final  147.29 input  -57.11 | X-H torsion

> <Gold.Protein.ActiveResidues>
 VAL166  LYS551  ARG553  GLY616  TRP617  ASP618  TYR619  PRO620  LYS621  CYS622 
 ASP623  PHE694  ASN695  SER759  ASP760  ASP761  ALA762  ILE779  LEU786  VAL792 
 PHE793  MET794  SER795  GLU796  ALA797  LYS798  CYS799  TRP800  GLU811  SER814 

> <Gold.Protein.RotatedAtoms>
  151.2746  133.4239  159.2622 H   0  0  0  0  0  0  0  0  0  0  0  0  # atno 6907 bound_to 6896
  151.0415  134.9610  159.8174 H   0  0  0  0  0  0  0  0  0  0  0  0  # atno 6908 bound_to 6896
  152.5366  134.2703  159.9022 H   0  0  0  0  0  0  0  0  0  0  0  0  # atno 6909 bound_to 6896
  146.1778  139.7176  142.8922 H   0  0  0  0  0  0  0  0  0  0  0  0  # atno 7974 bound_to 7965
  155.1157  140.3243  155.4510 H   0  0  0  0  0  0  0  0  0  0  0  0  # atno 8008 bound_to 7997
  156.2677  140.2036  156.6228 H   0  0  0  0  0  0  0  0  0  0  0  0  # atno 8009 bound_to 7997
  154.6722  140.0535  157.0164 H   0  0  0  0  0  0  0  0  0  0  0  0  # atno 8010 bound_to 7997
  139.8596  144.6551  150.9074 H   0  0  0  0  0  0  0  0  0  0  0  0  # atno 10167 bound_to 10162
  157.6639  130.9732  150.1371 H   0  0  0  0  0  0  0  0  0  0  0  0  # atno 10718 bound_to 10713
  154.5211  135.5742  153.6682 H   0  0  0  0  0  0  0  0  0  0  0  0  # atno 10763 bound_to 10752
  152.9917  135.6182  154.2753 H   0  0  0  0  0  0  0  0  0  0  0  0  # atno 10764 bound_to 10752
  154.2674  135.2854  155.2732 H   0  0  0  0  0  0  0  0  0  0  0  0  # atno 10765 bound_to 10752
  140.0863  134.9067  157.1581 H   0  0  0  0  0  0  0  0  0  0  0  0  # atno 11005 bound_to 11000
  145.4163  141.0402  143.2989 LP  0  0  0  0  0  0  0  0  0  0  0  0  # atno 17320 bound_to 7965
  144.8264  139.5703  143.6963 LP  0  0  0  0  0  0  0  0  0  0  0  0  # atno 17321 bound_to 7965
  140.7777  143.3756  151.1569 LP  0  0  0  0  0  0  0  0  0  0  0  0  # atno 17342 bound_to 10162
  139.7387  143.8959  152.3043 LP  0  0  0  0  0  0  0  0  0  0  0  0  # atno 17343 bound_to 10162
  156.2203  130.3673  149.8564 LP  0  0  0  0  0  0  0  0  0  0  0  0  # atno 17370 bound_to 10713
  156.6418  130.8708  151.3515 LP  0  0  0  0  0  0  0  0  0  0  0  0  # atno 17371 bound_to 10713
  140.3415  134.2699  155.7211 LP  0  0  0  0  0  0  0  0  0  0  0  0  # atno 17394 bound_to 11000
  141.2064  133.7835  157.0181 LP  0  0  0  0  0  0  0  0  0  0  0  0  # atno 17395 bound_to 11000

$$$$
