AV-unprocessed.smi:3342|AV-procd|sdf|12889|dock1
  -GOLD-   2272019293D 1   1.00000     0.00000
 Structure written by MMmdl.
 41 42  0  0  0  0  0  0  0  0  1 V2000
  148.7951  135.7122  155.5439 C   0  0  0  0  0  0  0  0  0  0  0  0
  148.2173  134.4289  154.9246 C   0  0  2  0  0  0  0  0  0  0  0  0
  149.3022  133.4784  154.3729 C   0  0  0  0  0  0  0  0  0  0  0  0
  150.1283  132.9024  155.4168 N   0  0  0  0  0  0  0  0  0  0  0  0
  150.4526  131.5625  155.5828 C   0  0  0  0  0  0  0  0  0  0  0  0
  151.2546  131.4875  156.6991 C   0  0  0  0  0  0  0  0  0  0  0  0
  151.4401  132.7621  157.2298 N   0  0  0  0  0  0  0  0  0  0  0  0
  150.7465  133.5475  156.4158 C   0  0  0  0  0  0  0  0  0  0  0  0
  147.2821  134.7917  153.8642 N   0  0  0  0  0  0  0  0  0  0  0  0
  145.9500  134.6139  153.8972 C   0  0  0  0  0  0  0  0  0  0  0  0
  145.3790  134.1250  154.8733 O   0  0  0  0  0  0  0  0  0  0  0  0
  145.2946  135.0333  152.7851 N   0  0  0  0  0  0  0  0  0  0  0  0
  145.9112  135.4285  151.5073 C   0  0  0  0  0  0  0  0  0  0  0  0
  145.7033  134.2934  150.4884 C   0  0  0  0  0  0  0  0  0  0  0  0
  144.2009  133.9658  150.3169 C   0  0  0  0  0  0  0  0  0  0  0  0
  144.0046  132.7429  149.4111 C   0  0  0  0  0  0  0  0  0  0  0  0
  142.7485  132.4053  149.1083 N   0  0  0  0  0  0  0  0  0  0  0  0
  144.9710  132.1107  148.9888 O   0  0  0  0  0  0  0  0  0  0  0  0
  143.5206  133.7548  151.6906 C   0  0  0  0  0  0  0  0  0  0  0  0
  143.8375  134.9148  152.6522 C   0  0  0  0  0  0  0  0  0  0  0  0
  149.4293  135.4915  156.4027 H   0  0  0  0  0  0  0  0  0  0  0  0
  147.9998  136.3716  155.8925 H   0  0  0  0  0  0  0  0  0  0  0  0
  149.3942  136.2660  154.8203 H   0  0  0  0  0  0  0  0  0  0  0  0
  147.6656  133.9094  155.7104 H   0  0  0  0  0  0  0  0  0  0  0  0
  148.8460  132.6589  153.8158 H   0  0  0  0  0  0  0  0  0  0  0  0
  149.9489  134.0089  153.6721 H   0  0  0  0  0  0  0  0  0  0  0  0
  150.0933  130.7951  154.9128 H   0  0  0  0  0  0  0  0  0  0  0  0
  151.7096  130.6217  157.1569 H   0  0  0  0  0  0  0  0  0  0  0  0
  150.6827  134.6171  156.5528 H   0  0  0  0  0  0  0  0  0  0  0  0
  147.6777  135.2076  153.0338 H   0  0  0  0  0  0  0  0  0  0  0  0
  145.4354  136.3419  151.1473 H   0  0  0  0  0  0  0  0  0  0  0  0
  146.9716  135.6694  151.5815 H   0  0  0  0  0  0  0  0  0  0  0  0
  146.1344  134.5793  149.5281 H   0  0  0  0  0  0  0  0  0  0  0  0
  146.2511  133.4102  150.8220 H   0  0  0  0  0  0  0  0  0  0  0  0
  143.7271  134.8273  149.8425 H   0  0  0  0  0  0  0  0  0  0  0  0
  142.5689  131.6080  148.5154 H   0  0  0  0  0  0  0  0  0  0  0  0
  141.9815  132.9504  149.4746 H   0  0  0  0  0  0  0  0  0  0  0  0
  142.4407  133.6684  151.5643 H   0  0  0  0  0  0  0  0  0  0  0  0
  143.8539  132.8181  152.1407 H   0  0  0  0  0  0  0  0  0  0  0  0
  143.3387  134.7537  153.6090 H   0  0  0  0  0  0  0  0  0  0  0  0
  143.4302  135.8490  152.2627 H   0  0  0  0  0  0  0  0  0  0  0  0
  1  2  1  0  0  0  0
  1 21  1  0  0  0  0
  1 22  1  0  0  0  0
  1 23  1  0  0  0  0
  2  3  1  0  0  0  0
  2  9  1  0  0  0  0
  2 24  1  0  0  0  0
  3  4  1  0  0  0  0
  3 25  1  0  0  0  0
  3 26  1  0  0  0  0
  4  8  1  0  0  0  0
  4  5  1  0  0  0  0
  5  6  2  0  0  0  0
  5 27  1  0  0  0  0
  6  7  1  0  0  0  0
  6 28  1  0  0  0  0
  7  8  2  0  0  0  0
  8 29  1  0  0  0  0
  9 10  1  0  0  0  0
  9 30  1  0  0  0  0
 10 11  2  0  0  0  0
 10 12  1  0  0  0  0
 12 20  1  0  0  0  0
 12 13  1  0  0  0  0
 13 14  1  0  0  0  0
 13 31  1  0  0  0  0
 13 32  1  0  0  0  0
 14 15  1  0  0  0  0
 14 33  1  0  0  0  0
 14 34  1  0  0  0  0
 15 16  1  0  0  0  0
 15 19  1  0  0  0  0
 15 35  1  0  0  0  0
 16 17  1  0  0  0  0
 16 18  2  0  0  0  0
 17 36  1  0  0  0  0
 17 37  1  0  0  0  0
 19 20  1  0  0  0  0
 19 38  1  0  0  0  0
 19 39  1  0  0  0  0
 20 40  1  0  0  0  0
 20 41  1  0  0  0  0
M  END
> <s_m_source_file>
AV-unprocessed.smi

> <i_m_source_file_index>
3342

> <i_lp_mmshare_version>
43012

> <i_f3d_flags>
0

> <s_epik_input>
W2NIXTFuW2NIXVtjSF1uMVtDSDJdW0NAQEhdKFtDSDNdKVtOSF1DKD1PKU4yW0NIMl1bQ0gyXVtDSF0oQyg9TylbTkgyXSlbQ0gyXVtDSDJdMg==

> <s_epik_cmdline>
J2VwaWtfcHl0aG9uJywgJy1waCcsICc3LjAnLCAnLXRuJywgJzgnLCAnLW1hJywgJzIwMCcsICctbWV0YWxfYmluZGluZycsICctaW1hZScsICc8aW5maWxlLm1hZT4nLCAnLW9tYWUnLCAnPG91dGZpbGUubWFlPic=

> <r_lp_tautomer_probability>
1

> <r_epik_Ionization_Penalty>
0.624431

> <r_epik_Ionization_Penalty_Charging>
0.624374

> <r_epik_Ionization_Penalty_Neutral>
5.67186e-05

> <r_epik_State_Penalty>
0.640677

> <r_epik_Charging_Adjusted_Penalty>
1.26505

> <i_epik_Tot_Q>
0

> <i_epik_Tot_abs_Q>
0

> <r_epik_Metal_State_Penalty>
0.307574

> <b_epik_Metal_Only>
0

> <s_lp_Force_Field>
OPLS_2005

> <r_lp_Energy>
29.2273

> <b_lp_Chiralities_Consistent>
1

> <s_lp_Variant>
AV-unprocessed.smi:3342-3

> <Gold.Version>
5.8.1

> <Gold.Id.Protein>
6NUR|6NUR_protein|mol2

> <Gold.PLP.Fitness>
39.9334

> <Gold.PLP.PLP>
-31.2377

> <Gold.PLP.part.hbond>
-4.4425

> <Gold.PLP.part.metal>
0.0000

> <Gold.PLP.part.buried>
-3.5731

> <Gold.PLP.part.nonpolar>
-23.7871

> <Gold.PLP.part.repulsive>
0.4209

> <Gold.PLP.ligand.clash>
0.0000

> <Gold.PLP.ligand.torsion>
0.2273

> <Gold.PLP.Chemscore.Hbond>
2.9961

> <Gold.PLP.Chemscore.CHOScore>
0.0000

> <Gold.PLP.Chemscore.Metal>
0.0000

> <Gold.Chemscore.Hbonds>
donor molecule, donor type, donor heavy atom, donor atom, acceptor molecule, acceptor atom, score
      L1  H     9    30       P1  7948  1.00
      L1  H    17    36       P1 10952  0.01
      L1  H    17    37       P1 10186  1.00
      P1  H  6896  6909       L1     7  0.89

> <Gold.PLP.Chemscore.Internal.Correction>
0.1621

> <Gold.Rescore>
     Score         DG    S(hbond)    S(metal)    S(lipo)     H(rot)  DE(clash)    DE(int)     intcor
     16.86     -17.26       3.54        0.00      49.53       2.28       0.21       0.19       ----

> <Gold.Chemscore.Fitness>
16.8564

> <Gold.Chemscore.DG>
-17.2585

> <Gold.Chemscore.ZeroCoef>
-5.4800

> <Gold.Chemscore.Hbond>
3.5357

> <Gold.Chemscore.Metal>
0.0000

> <Gold.Chemscore.Lipo>
49.5302

> <Gold.Chemscore.Internal_Hbond>
0.0000

> <Gold.Chemscore.DEClash>
0.2094

> <Gold.Chemscore.DEInternal>
0.1928

> <Gold.Chemscore.Rot>
2.2757

> <Gold.Chemscore.Internal.Correction>
   9.000000E+99

> <Gold.Chemscore.Hbonds>
donor molecule, donor type, donor heavy atom, donor atom, acceptor molecule, acceptor atom, score
      L1  H     9    30       P1  7948  0.96
      L1  H    17    36       P1 10952  0.02
      L1  H    17    37       P1 10186  0.97
      P1  H  6896  6909       L1     7  0.72

> <Gold.Chemscore.Hbond.Weighted>
-11.8094

> <Gold.Chemscore.Metal.Weighted>
-0.0000

> <Gold.Chemscore.Lipo.Weighted>
-5.7950

> <Gold.Chemscore.Internal_Hbond.Weighted>
0.0000

> <Gold.Chemscore.DEClash.Weighted>
0.2094

> <Gold.Chemscore.DEInternal.Weighted>
0.1928

> <Gold.Chemscore.Rot.Weighted>
5.8259

> <Gold.Chemscore.Internal.Correction.Weighted>
   9.000000E+99

> <Gold.Protein.RotatedTorsions>
[ 6907 6896 6895 6894 ] final  -43.09 input  -60.11 | X-H torsion
[ 7974 7965 7964 7962 ] final   -1.89 input  175.53 | X-H torsion
[ 8008 7997 7996 7995 ] final -161.67 input   59.86 | X-H torsion
[ 10167 10162 10161 10158 ] final  140.78 input  -65.29 | X-H torsion
[ 10718 10713 10712 10709 ] final  -13.52 input   66.30 | X-H torsion
[ 10763 10752 10751 10750 ] final  107.38 input  -60.55 | X-H torsion
[ 11005 11000 10999 10996 ] final -152.23 input  -57.11 | X-H torsion

> <Gold.Protein.ActiveResidues>
 VAL166  LYS551  ARG553  GLY616  TRP617  ASP618  TYR619  PRO620  LYS621  CYS622 
 ASP623  PHE694  ASN695  SER759  ASP760  ASP761  ALA762  ILE779  LEU786  VAL792 
 PHE793  MET794  SER795  GLU796  ALA797  LYS798  CYS799  TRP800  GLU811  SER814 

> <Gold.Protein.RotatedAtoms>
  150.9479  134.8882  159.7653 H   0  0  0  0  0  0  0  0  0  0  0  0  # atno 6907 bound_to 6896
  152.5107  134.3849  159.9374 H   0  0  0  0  0  0  0  0  0  0  0  0  # atno 6908 bound_to 6896
  151.3866  133.3763  159.2751 H   0  0  0  0  0  0  0  0  0  0  0  0  # atno 6909 bound_to 6896
  146.2411  140.1488  142.8334 H   0  0  0  0  0  0  0  0  0  0  0  0  # atno 7974 bound_to 7965
  155.7955  140.0884  157.1985 H   0  0  0  0  0  0  0  0  0  0  0  0  # atno 8008 bound_to 7997
  154.3984  140.1482  156.3272 H   0  0  0  0  0  0  0  0  0  0  0  0  # atno 8009 bound_to 7997
  155.8515  140.3434  155.5699 H   0  0  0  0  0  0  0  0  0  0  0  0  # atno 8010 bound_to 7997
  139.5039  144.6212  151.6045 H   0  0  0  0  0  0  0  0  0  0  0  0  # atno 10167 bound_to 10162
  156.6291  130.4896  149.6136 H   0  0  0  0  0  0  0  0  0  0  0  0  # atno 10718 bound_to 10713
  153.4060  135.3846  155.2019 H   0  0  0  0  0  0  0  0  0  0  0  0  # atno 10763 bound_to 10752
  154.8733  135.3782  154.4560 H   0  0  0  0  0  0  0  0  0  0  0  0  # atno 10764 bound_to 10752
  153.5063  135.7088  153.5867 H   0  0  0  0  0  0  0  0  0  0  0  0  # atno 10765 bound_to 10752
  140.7211  134.3726  157.5183 H   0  0  0  0  0  0  0  0  0  0  0  0  # atno 11005 bound_to 11000
  145.0185  140.8773  143.5181 LP  0  0  0  0  0  0  0  0  0  0  0  0  # atno 17320 bound_to 7965
  145.1533  139.2501  143.5429 LP  0  0  0  0  0  0  0  0  0  0  0  0  # atno 17321 bound_to 7965
  140.5915  143.9770  150.6328 LP  0  0  0  0  0  0  0  0  0  0  0  0  # atno 17342 bound_to 10162
  140.2952  143.3297  152.1024 LP  0  0  0  0  0  0  0  0  0  0  0  0  # atno 17343 bound_to 10162
  156.2249  130.6759  151.1406 LP  0  0  0  0  0  0  0  0  0  0  0  0  # atno 17370 bound_to 10713
  157.7205  131.0684  150.6154 LP  0  0  0  0  0  0  0  0  0  0  0  0  # atno 17371 bound_to 10713
  139.8848  134.8955  156.2681 LP  0  0  0  0  0  0  0  0  0  0  0  0  # atno 17394 bound_to 11000
  141.0003  133.7155  156.0950 LP  0  0  0  0  0  0  0  0  0  0  0  0  # atno 17395 bound_to 11000

$$$$
