AV-unprocessed.smi:1202|AV-procd|sdf|5032|dock4
  -GOLD-   22720 4 53D 1   1.00000     0.00000
 Structure written by MMmdl.
 44 45  0  0  0  0  0  0  0  0  3 V2000
  148.3362  133.1951  153.4302 C   0  0  0  0  0  0  0  0  0  0  0  0
  149.6385  133.3202  154.0745 N   0  5  0  0  0  0  0  0  0  0  0  0
  149.8936  134.1937  155.0876 C   0  0  0  0  0  0  0  0  0  0  0  0
  150.8125  134.2242  155.9122 O   0  0  0  0  0  0  0  0  0  0  0  0
  148.8245  135.2921  155.1530 C   0  0  0  0  0  0  0  0  0  0  0  0
  149.3281  136.5654  154.5756 N   0  3  2  0  0  0  0  0  0  0  0  0
  150.6793  136.9430  155.0702 C   0  0  0  0  0  0  0  0  0  0  0  0
  151.2100  138.1934  154.3452 C   0  0  0  0  0  0  0  0  0  0  0  0
  150.2377  139.3807  154.4559 C   0  0  2  0  0  0  0  0  0  0  0  0
  150.2233  139.9005  155.8226 N   0  0  0  0  0  0  0  0  0  0  0  0
  151.3062  140.2185  156.5482 C   0  0  0  0  0  0  0  0  0  0  0  0
  152.4587  140.0895  156.1334 O   0  0  0  0  0  0  0  0  0  0  0  0
  151.0343  140.7461  157.9640 C   0  0  0  0  0  0  0  0  0  0  0  0
  151.7097  142.0236  158.2468 N   0  0  0  0  0  0  0  0  0  0  0  0
  151.2732  143.1545  157.5282 C   0  0  0  0  0  0  0  0  0  0  0  0
  151.8191  144.3670  157.7122 C   0  0  0  0  0  0  0  0  0  0  0  0
  152.8832  144.4967  158.6794 C   0  0  0  0  0  0  0  0  0  0  0  0
  153.3079  143.4216  159.3729 C   0  0  0  0  0  0  0  0  0  0  0  0
  152.7140  142.0944  159.1747 C   0  0  0  0  0  0  0  0  0  0  0  0
  153.0948  141.1064  159.8039 O   0  0  0  0  0  0  0  0  0  0  0  0
  148.8341  138.9414  153.9940 C   0  0  0  0  0  0  0  0  0  0  0  0
  148.3555  137.6766  154.7286 C   0  0  0  0  0  0  0  0  0  0  0  0
  148.3360  132.4184  152.6657 H   0  0  0  0  0  0  0  0  0  0  0  0
  148.0267  134.1163  152.9361 H   0  0  0  0  0  0  0  0  0  0  0  0
  147.5467  132.9334  154.1352 H   0  0  0  0  0  0  0  0  0  0  0  0
  147.9533  134.9419  154.5965 H   0  0  0  0  0  0  0  0  0  0  0  0
  148.4940  135.4480  156.1812 H   0  0  0  0  0  0  0  0  0  0  0  0
  150.6370  137.1174  156.1464 H   0  0  0  0  0  0  0  0  0  0  0  0
  151.3802  136.1225  154.9147 H   0  0  0  0  0  0  0  0  0  0  0  0
  152.1896  138.4679  154.7388 H   0  0  0  0  0  0  0  0  0  0  0  0
  151.3638  137.9533  153.2922 H   0  0  0  0  0  0  0  0  0  0  0  0
  150.5942  140.1748  153.7971 H   0  0  0  0  0  0  0  0  0  0  0  0
  149.3180  140.0294  156.2509 H   0  0  0  0  0  0  0  0  0  0  0  0
  149.9582  140.8542  158.1141 H   0  0  0  0  0  0  0  0  0  0  0  0
  151.3456  139.9799  158.6754 H   0  0  0  0  0  0  0  0  0  0  0  0
  150.4693  142.9747  156.8293 H   0  0  0  0  0  0  0  0  0  0  0  0
  151.4694  145.2231  157.1542 H   0  0  0  0  0  0  0  0  0  0  0  0
  153.3392  145.4608  158.8494 H   0  0  0  0  0  0  0  0  0  0  0  0
  154.1038  143.5383  160.0936 H   0  0  0  0  0  0  0  0  0  0  0  0
  148.1125  139.7479  154.1299 H   0  0  0  0  0  0  0  0  0  0  0  0
  148.8588  138.7399  152.9222 H   0  0  0  0  0  0  0  0  0  0  0  0
  147.3887  137.3752  154.3237 H   0  0  0  0  0  0  0  0  0  0  0  0
  148.2026  137.8862  155.7884 H   0  0  0  0  0  0  0  0  0  0  0  0
  149.4135  136.3917  153.5834 H   0  0  0  0  0  0  0  0  0  0  0  0
  1  2  1  0  0  0  0
  1 23  1  0  0  0  0
  1 24  1  0  0  0  0
  1 25  1  0  0  0  0
  2  3  1  0  0  0  0
  3  4  2  0  0  0  0
  3  5  1  0  0  0  0
  5  6  1  0  0  0  0
  5 26  1  0  0  0  0
  5 27  1  0  0  0  0
  6 22  1  0  0  0  0
  6  7  1  0  0  0  0
  6 44  1  0  0  0  0
  7  8  1  0  0  0  0
  7 28  1  0  0  0  0
  7 29  1  0  0  0  0
  8  9  1  0  0  0  0
  8 30  1  0  0  0  0
  8 31  1  0  0  0  0
  9 10  1  0  0  0  0
  9 21  1  0  0  0  0
  9 32  1  0  0  0  0
 10 11  1  0  0  0  0
 10 33  1  0  0  0  0
 11 12  2  0  0  0  0
 11 13  1  0  0  0  0
 13 14  1  0  0  0  0
 13 34  1  0  0  0  0
 13 35  1  0  0  0  0
 14 19  1  0  0  0  0
 14 15  1  0  0  0  0
 15 16  2  0  0  0  0
 15 36  1  0  0  0  0
 16 17  1  0  0  0  0
 16 37  1  0  0  0  0
 17 18  2  0  0  0  0
 17 38  1  0  0  0  0
 18 19  1  0  0  0  0
 18 39  1  0  0  0  0
 19 20  2  0  0  0  0
 21 22  1  0  0  0  0
 21 40  1  0  0  0  0
 21 41  1  0  0  0  0
 22 42  1  0  0  0  0
 22 43  1  0  0  0  0
M  CHG  1   2  -1
M  CHG  1   6   1
M  END
> <s_m_source_file>
AV-unprocessed.smi

> <i_m_source_file_index>
1202

> <i_lp_mmshare_version>
43012

> <i_f3d_flags>
0

> <s_epik_input>
W0NIM11bTkhdQyg9TylbQ0gyXU4xW0NIMl1bQ0gyXVtDSF0oW0NIMl1bQ0gyXTEpW05IXUMoPU8pW0NIMl1uMltjSF1bY0hdW2NIXVtjSF1jMj1P

> <s_epik_cmdline>
J2VwaWtfcHl0aG9uJywgJy1waCcsICc3LjAnLCAnLXRuJywgJzgnLCAnLW1hJywgJzIwMCcsICctbWV0YWxfYmluZGluZycsICctaW1hZScsICc8aW5maWxlLm1hZT4nLCAnLW9tYWUnLCAnPG91dGZpbGUubWFlPic=

> <r_lp_tautomer_probability>
1

> <r_epik_Ionization_Penalty>
6.12124

> <r_epik_Ionization_Penalty_Charging>
6.12124

> <r_epik_Ionization_Penalty_Neutral>
4.50226e-08

> <r_epik_State_Penalty>
7.08052

> <r_epik_Charging_Adjusted_Penalty>
13.2018

> <i_epik_Tot_Q>
0

> <i_epik_Tot_abs_Q>
2

> <r_epik_Metal_State_Penalty>
3.01282

> <b_epik_Metal_Only>
1

> <s_lp_Force_Field>
OPLS_2005

> <r_lp_Energy>
20.2211

> <b_lp_Chiralities_Consistent>
1

> <s_lp_Variant>
AV-unprocessed.smi:1202-5

> <Gold.Version>
5.8.1

> <Gold.Id.Protein>
6NUR|6NUR_protein|mol2

> <Gold.PLP.Fitness>
53.5328

> <Gold.PLP.PLP>
-42.8213

> <Gold.PLP.part.hbond>
-2.0000

> <Gold.PLP.part.metal>
0.0000

> <Gold.PLP.part.buried>
-2.9069

> <Gold.PLP.part.nonpolar>
-37.4048

> <Gold.PLP.part.repulsive>
0.2262

> <Gold.PLP.ligand.clash>
0.0000

> <Gold.PLP.ligand.torsion>
0.5251

> <Gold.PLP.Chemscore.Hbond>
3.0000

> <Gold.PLP.Chemscore.CHOScore>
0.8978

> <Gold.PLP.Chemscore.Metal>
0.0000

> <Gold.Chemscore.Hbonds>
donor molecule, donor type, donor heavy atom, donor atom, acceptor molecule, acceptor atom, score
      L1  H     6    44       P1  7948  2.00
      P1  H  7997  8008       L1    12  1.00
      L1  C    15    36       P1  8028  0.73

> <Gold.PLP.Chemscore.Internal.Correction>
0.0684

> <Gold.Rescore>
     Score         DG    S(hbond)    S(metal)    S(lipo)     H(rot)  DE(clash)    DE(int)     intcor
     14.63     -17.40       2.00        0.00      91.99       2.15       0.01       2.75       ----

> <Gold.Chemscore.Fitness>
14.6349

> <Gold.Chemscore.DG>
-17.3999

> <Gold.Chemscore.ZeroCoef>
-5.4800

> <Gold.Chemscore.Hbond>
1.9953

> <Gold.Chemscore.Metal>
0.0000

> <Gold.Chemscore.Lipo>
91.9851

> <Gold.Chemscore.Internal_Hbond>
0.0000

> <Gold.Chemscore.DEClash>
0.0103

> <Gold.Chemscore.DEInternal>
2.7547

> <Gold.Chemscore.Rot>
2.1510

> <Gold.Chemscore.Internal.Correction>
   9.000000E+99

> <Gold.Chemscore.Hbonds>
donor molecule, donor type, donor heavy atom, donor atom, acceptor molecule, acceptor atom, score
      L1  H     6    44       P1  7948  0.78
      P1  H  7997  8008       L1    12  0.99

> <Gold.Chemscore.Hbond.Weighted>
-6.6642

> <Gold.Chemscore.Metal.Weighted>
-0.0000

> <Gold.Chemscore.Lipo.Weighted>
-10.7623

> <Gold.Chemscore.Internal_Hbond.Weighted>
0.0000

> <Gold.Chemscore.DEClash.Weighted>
0.0103

> <Gold.Chemscore.DEInternal.Weighted>
2.7547

> <Gold.Chemscore.Rot.Weighted>
5.5065

> <Gold.Chemscore.Internal.Correction.Weighted>
   9.000000E+99

> <Gold.Protein.RotatedTorsions>
[ 6907 6896 6895 6894 ] final   23.12 input  -60.11 | X-H torsion
[ 7974 7965 7964 7962 ] final  110.30 input  175.53 | X-H torsion
[ 8008 7997 7996 7995 ] final  -31.50 input   59.86 | X-H torsion
[ 10167 10162 10161 10158 ] final  149.26 input  -65.29 | X-H torsion
[ 10718 10713 10712 10709 ] final  154.35 input   66.30 | X-H torsion
[ 10763 10752 10751 10750 ] final -135.04 input  -60.55 | X-H torsion
[ 11005 11000 10999 10996 ] final  -53.48 input  -57.11 | X-H torsion

> <Gold.Protein.ActiveResidues>
 VAL166  LYS551  ARG553  GLY616  TRP617  ASP618  TYR619  PRO620  LYS621  CYS622 
 ASP623  PHE694  ASN695  SER759  ASP760  ASP761  ALA762  ILE779  LEU786  VAL792 
 PHE793  MET794  SER795  GLU796  ALA797  LYS798  CYS799  TRP800  GLU811  SER814 

> <Gold.Protein.RotatedAtoms>
  151.9376  135.0228  160.0533 H   0  0  0  0  0  0  0  0  0  0  0  0  # atno 6907 bound_to 6896
  152.2064  133.4874  159.5095 H   0  0  0  0  0  0  0  0  0  0  0  0  # atno 6908 bound_to 6896
  150.6966  134.1440  159.4158 H   0  0  0  0  0  0  0  0  0  0  0  0  # atno 6909 bound_to 6896
  145.2568  139.2718  143.4038 H   0  0  0  0  0  0  0  0  0  0  0  0  # atno 7974 bound_to 7965
  154.4211  140.1762  156.1577 H   0  0  0  0  0  0  0  0  0  0  0  0  # atno 8008 bound_to 7997
  155.9863  140.3373  155.6686 H   0  0  0  0  0  0  0  0  0  0  0  0  # atno 8009 bound_to 7997
  155.6432  140.0682  157.2602 H   0  0  0  0  0  0  0  0  0  0  0  0  # atno 8010 bound_to 7997
  139.4864  144.5615  151.7222 H   0  0  0  0  0  0  0  0  0  0  0  0  # atno 10167 bound_to 10162
  157.2328  131.0742  151.1842 H   0  0  0  0  0  0  0  0  0  0  0  0  # atno 10718 bound_to 10713
  154.8709  135.3716  154.4833 H   0  0  0  0  0  0  0  0  0  0  0  0  # atno 10763 bound_to 10752
  153.5485  135.7025  153.5607 H   0  0  0  0  0  0  0  0  0  0  0  0  # atno 10764 bound_to 10752
  153.3737  135.4014  155.1771 H   0  0  0  0  0  0  0  0  0  0  0  0  # atno 10765 bound_to 10752
  141.0978  133.6622  156.4178 H   0  0  0  0  0  0  0  0  0  0  0  0  # atno 11005 bound_to 11000
  146.3287  140.2974  142.8618 LP  0  0  0  0  0  0  0  0  0  0  0  0  # atno 17320 bound_to 7965
  144.9454  140.8122  143.5605 LP  0  0  0  0  0  0  0  0  0  0  0  0  # atno 17321 bound_to 7965
  140.5186  144.0914  150.6016 LP  0  0  0  0  0  0  0  0  0  0  0  0  # atno 17342 bound_to 10162
  140.3864  143.2775  152.0111 LP  0  0  0  0  0  0  0  0  0  0  0  0  # atno 17343 bound_to 10162
  157.3461  130.7058  149.6411 LP  0  0  0  0  0  0  0  0  0  0  0  0  # atno 17370 bound_to 10713
  155.9674  130.4266  150.4706 LP  0  0  0  0  0  0  0  0  0  0  0  0  # atno 17371 bound_to 10713
  140.5097  134.6407  157.5280 LP  0  0  0  0  0  0  0  0  0  0  0  0  # atno 17394 bound_to 11000
  139.9820  134.7122  155.9843 LP  0  0  0  0  0  0  0  0  0  0  0  0  # atno 17395 bound_to 11000

$$$$
