AV-unprocessed.smi:2741|AV-procd|sdf|10558|dock6
  -GOLD-   2272015 13D 1   1.00000     0.00000
 Structure written by MMmdl.
 39 40  0  0  0  0  0  0  0  0  1 V2000
  154.3578  139.1079  158.1744 O   0  0  0  0  0  0  0  0  0  0  0  0
  153.3960  138.7625  158.8621 C   0  0  0  0  0  0  0  0  0  0  0  0
  151.9641  138.8589  158.3170 C   0  0  0  0  0  0  0  0  0  0  0  0
  151.5922  140.2199  157.8951 N   0  0  0  0  0  0  0  0  0  0  0  0
  151.8646  141.2696  158.7945 C   0  0  0  0  0  0  0  0  0  0  0  0
  151.5617  142.5557  158.5333 C   0  0  0  0  0  0  0  0  0  0  0  0
  151.9150  143.6729  159.5030 C   0  0  0  0  0  0  0  0  0  0  0  0
  152.7054  143.2289  160.4807 F   0  0  0  0  0  0  0  0  0  0  0  0
  152.5578  144.6458  158.8586 F   0  0  0  0  0  0  0  0  0  0  0  0
  150.8189  144.1949  160.0550 F   0  0  0  0  0  0  0  0  0  0  0  0
  150.9598  142.8276  157.2426 C   0  0  0  0  0  0  0  0  0  0  0  0
  150.6981  141.8361  156.3685 C   0  0  0  0  0  0  0  0  0  0  0  0
  151.0106  140.4391  156.6777 C   0  0  0  0  0  0  0  0  0  0  0  0
  150.7674  139.5235  155.8909 O   0  0  0  0  0  0  0  0  0  0  0  0
  153.5198  138.2649  160.1016 N   0  0  0  0  0  0  0  0  0  0  0  0
  154.7818  138.0682  160.8068 C   0  0  0  0  0  0  0  0  0  0  0  0
  154.5724  137.8454  162.3174 C   0  0  2  0  0  0  0  0  0  0  0  0
  155.8486  138.0021  163.1593 C   0  0  0  0  0  0  0  0  0  0  0  0
  155.6036  137.1265  164.3846 C   0  0  0  0  0  0  0  0  0  0  0  0
  154.8957  135.9048  163.8010 C   0  0  1  0  0  0  0  0  0  0  0  0
  154.1467  135.2108  164.7762 O   0  0  0  0  0  0  0  0  0  0  0  0
  154.0165  136.4498  162.6649 C   0  0  0  0  0  0  0  0  0  0  0  0
  151.8722  138.1597  157.4848 H   0  0  0  0  0  0  0  0  0  0  0  0
  151.2617  138.4969  159.0706 H   0  0  0  0  0  0  0  0  0  0  0  0
  152.3339  140.9610  159.7175 H   0  0  0  0  0  0  0  0  0  0  0  0
  150.7094  143.8429  156.9726 H   0  0  0  0  0  0  0  0  0  0  0  0
  150.2463  142.0749  155.4170 H   0  0  0  0  0  0  0  0  0  0  0  0
  152.6781  138.0007  160.5929 H   0  0  0  0  0  0  0  0  0  0  0  0
  155.3263  137.2287  160.3710 H   0  0  0  0  0  0  0  0  0  0  0  0
  155.3987  138.9522  160.6427 H   0  0  0  0  0  0  0  0  0  0  0  0
  153.8495  138.5782  162.6797 H   0  0  0  0  0  0  0  0  0  0  0  0
  156.7125  137.6238  162.6110 H   0  0  0  0  0  0  0  0  0  0  0  0
  156.0512  139.0410  163.4219 H   0  0  0  0  0  0  0  0  0  0  0  0
  156.5223  136.8709  164.9135 H   0  0  0  0  0  0  0  0  0  0  0  0
  154.9479  137.6503  165.0823 H   0  0  0  0  0  0  0  0  0  0  0  0
  155.6418  135.2271  163.3832 H   0  0  0  0  0  0  0  0  0  0  0  0
  154.4187  134.3056  164.7769 H   0  0  0  0  0  0  0  0  0  0  0  0
  152.9755  136.5419  162.9781 H   0  0  0  0  0  0  0  0  0  0  0  0
  154.0335  135.7716  161.8108 H   0  0  0  0  0  0  0  0  0  0  0  0
  1  2  2  0  0  0  0
  2  3  1  0  0  0  0
  2 15  1  0  0  0  0
  3  4  1  0  0  0  0
  3 23  1  0  0  0  0
  3 24  1  0  0  0  0
  4 13  1  0  0  0  0
  4  5  1  0  0  0  0
  5  6  2  0  0  0  0
  5 25  1  0  0  0  0
  6  7  1  0  0  0  0
  6 11  1  0  0  0  0
  7  8  1  0  0  0  0
  7  9  1  0  0  0  0
  7 10  1  0  0  0  0
 11 12  2  0  0  0  0
 11 26  1  0  0  0  0
 12 13  1  0  0  0  0
 12 27  1  0  0  0  0
 13 14  2  0  0  0  0
 15 16  1  0  0  0  0
 15 28  1  0  0  0  0
 16 17  1  0  0  0  0
 16 29  1  0  0  0  0
 16 30  1  0  0  0  0
 17 22  1  0  0  0  0
 17 18  1  0  0  0  0
 17 31  1  0  0  0  0
 18 19  1  0  0  0  0
 18 32  1  0  0  0  0
 18 33  1  0  0  0  0
 19 20  1  0  0  0  0
 19 34  1  0  0  0  0
 19 35  1  0  0  0  0
 20 21  1  0  0  0  0
 20 22  1  0  0  0  0
 20 36  1  0  0  0  0
 21 37  1  0  0  0  0
 22 38  1  0  0  0  0
 22 39  1  0  0  0  0
M  END
> <s_m_source_file>
AV-unprocessed.smi

> <i_m_source_file_index>
2741

> <i_lp_mmshare_version>
43012

> <i_f3d_flags>
0

> <s_epik_input>
W09IXVtDQEBIXShbQ0gyXTEpW0NIMl1bQ0gyXVtDQEhdMVtDSDJdW05IXUMoPU8pW0NIMl1uMltjSF1jKEMoRikoRilGKVtjSF1bY0hdYzI9Tw==

> <s_epik_cmdline>
J2VwaWtfcHl0aG9uJywgJy1waCcsICc3LjAnLCAnLXRuJywgJzgnLCAnLW1hJywgJzIwMCcsICctbWV0YWxfYmluZGluZycsICctaW1hZScsICc8aW5maWxlLm1hZT4nLCAnLW9tYWUnLCAnPG91dGZpbGUubWFlPic=

> <r_lp_tautomer_probability>
1

> <r_epik_Ionization_Penalty>
1.17551e-06

> <r_epik_Ionization_Penalty_Charging>
1.78841e-08

> <r_epik_Ionization_Penalty_Neutral>
1.15762e-06

> <r_epik_State_Penalty>
-0

> <r_epik_Charging_Adjusted_Penalty>
1.78841e-08

> <i_epik_Tot_Q>
0

> <i_epik_Tot_abs_Q>
0

> <r_epik_Metal_State_Penalty>
-0

> <b_epik_Metal_Only>
0

> <s_lp_Force_Field>
OPLS_2005

> <r_lp_Energy>
33.5858

> <b_lp_Chiralities_Consistent>
1

> <s_lp_Variant>
AV-unprocessed.smi:2741-1

> <Gold.Version>
5.8.1

> <Gold.Id.Protein>
6NUR|6NUR_protein|mol2

> <Gold.PLP.Fitness>
47.9913

> <Gold.PLP.PLP>
-47.4161

> <Gold.PLP.part.hbond>
-2.1363

> <Gold.PLP.part.metal>
0.0000

> <Gold.PLP.part.buried>
-6.2041

> <Gold.PLP.part.nonpolar>
-39.9343

> <Gold.PLP.part.repulsive>
0.0613

> <Gold.PLP.ligand.clash>
1.1477

> <Gold.PLP.ligand.torsion>
0.6677

> <Gold.PLP.Chemscore.Hbond>
1.0000

> <Gold.PLP.Chemscore.CHOScore>
0.0000

> <Gold.PLP.Chemscore.Metal>
0.0000

> <Gold.Chemscore.Hbonds>
donor molecule, donor type, donor heavy atom, donor atom, acceptor molecule, acceptor atom, score
      P1  H  7997  8010       L1     1  0.68

> <Gold.PLP.Chemscore.Internal.Correction>
0.0582

> <Gold.Rescore>
     Score         DG    S(hbond)    S(metal)    S(lipo)     H(rot)  DE(clash)    DE(int)     intcor
     12.42     -12.72       1.00        0.00      87.70       2.48       0.12       0.18       ----

> <Gold.Chemscore.Fitness>
12.4244

> <Gold.Chemscore.DG>
-12.7165

> <Gold.Chemscore.ZeroCoef>
-5.4800

> <Gold.Chemscore.Hbond>
0.9957

> <Gold.Chemscore.Metal>
0.0000

> <Gold.Chemscore.Lipo>
87.7039

> <Gold.Chemscore.Internal_Hbond>
0.0000

> <Gold.Chemscore.DEClash>
0.1164

> <Gold.Chemscore.DEInternal>
0.1757

> <Gold.Chemscore.Rot>
2.4807

> <Gold.Chemscore.Internal.Correction>
   9.000000E+99

> <Gold.Chemscore.Hbonds>
donor molecule, donor type, donor heavy atom, donor atom, acceptor molecule, acceptor atom, score
      P1  H  7997  8010       L1     1  0.69

> <Gold.Chemscore.Hbond.Weighted>
-3.3258

> <Gold.Chemscore.Metal.Weighted>
-0.0000

> <Gold.Chemscore.Lipo.Weighted>
-10.2614

> <Gold.Chemscore.Internal_Hbond.Weighted>
0.0000

> <Gold.Chemscore.DEClash.Weighted>
0.1164

> <Gold.Chemscore.DEInternal.Weighted>
0.1757

> <Gold.Chemscore.Rot.Weighted>
6.3507

> <Gold.Chemscore.Internal.Correction.Weighted>
   9.000000E+99

> <Gold.Protein.RotatedTorsions>
[ 6907 6896 6895 6894 ] final -136.13 input  -60.11 | X-H torsion
[ 7974 7965 7964 7962 ] final   90.87 input  175.53 | X-H torsion
[ 8008 7997 7996 7995 ] final   21.36 input   59.86 | X-H torsion
[ 10167 10162 10161 10158 ] final  -67.70 input  -65.29 | X-H torsion
[ 10718 10713 10712 10709 ] final -121.47 input   66.30 | X-H torsion
[ 10763 10752 10751 10750 ] final   33.06 input  -60.55 | X-H torsion
[ 11005 11000 10999 10996 ] final    2.90 input  -57.11 | X-H torsion

> <Gold.Protein.ActiveResidues>
 VAL166  LYS551  ARG553  GLY616  TRP617  ASP618  TYR619  PRO620  LYS621  CYS622 
 ASP623  PHE694  ASN695  SER759  ASP760  ASP761  ALA762  ILE779  LEU786  VAL792 
 PHE793  MET794  SER795  GLU796  ALA797  LYS798  CYS799  TRP800  GLU811  SER814 

> <Gold.Protein.RotatedAtoms>
  151.0063  133.6008  159.2688 H   0  0  0  0  0  0  0  0  0  0  0  0  # atno 6907 bound_to 6896
  151.3176  135.0809  159.9304 H   0  0  0  0  0  0  0  0  0  0  0  0  # atno 6908 bound_to 6896
  152.5287  133.9716  159.7819 H   0  0  0  0  0  0  0  0  0  0  0  0  # atno 6909 bound_to 6896
  145.5132  139.2277  143.2713 H   0  0  0  0  0  0  0  0  0  0  0  0  # atno 7974 bound_to 7965
  154.9494  140.3063  155.5082 H   0  0  0  0  0  0  0  0  0  0  0  0  # atno 8008 bound_to 7997
  156.2988  140.2321  156.4509 H   0  0  0  0  0  0  0  0  0  0  0  0  # atno 8009 bound_to 7997
  154.8069  140.0431  157.1302 H   0  0  0  0  0  0  0  0  0  0  0  0  # atno 8010 bound_to 7997
  140.5563  143.2312  151.6814 H   0  0  0  0  0  0  0  0  0  0  0  0  # atno 10167 bound_to 10162
  156.1340  130.6416  150.9666 H   0  0  0  0  0  0  0  0  0  0  0  0  # atno 10718 bound_to 10713
  153.0230  135.6397  154.1453 H   0  0  0  0  0  0  0  0  0  0  0  0  # atno 10763 bound_to 10752
  154.1185  135.2848  155.3215 H   0  0  0  0  0  0  0  0  0  0  0  0  # atno 10764 bound_to 10752
  154.6280  135.5502  153.7711 H   0  0  0  0  0  0  0  0  0  0  0  0  # atno 10765 bound_to 10752
  140.5991  133.9852  155.8124 H   0  0  0  0  0  0  0  0  0  0  0  0  # atno 11005 bound_to 11000
  146.2153  140.5940  142.9041 LP  0  0  0  0  0  0  0  0  0  0  0  0  # atno 17320 bound_to 7965
  144.7716  140.5650  143.6666 LP  0  0  0  0  0  0  0  0  0  0  0  0  # atno 17321 bound_to 7965
  139.5049  144.3735  152.0446 LP  0  0  0  0  0  0  0  0  0  0  0  0  # atno 17342 bound_to 10162
  140.2857  144.3810  150.6104 LP  0  0  0  0  0  0  0  0  0  0  0  0  # atno 17343 bound_to 10162
  157.6515  131.0896  150.8041 LP  0  0  0  0  0  0  0  0  0  0  0  0  # atno 17370 bound_to 10713
  156.8123  130.4956  149.5354 LP  0  0  0  0  0  0  0  0  0  0  0  0  # atno 17371 bound_to 10713
  141.0884  133.9955  157.3277 LP  0  0  0  0  0  0  0  0  0  0  0  0  # atno 17394 bound_to 11000
  139.9240  135.0201  156.8168 LP  0  0  0  0  0  0  0  0  0  0  0  0  # atno 17395 bound_to 11000

$$$$
