AV-unprocessed.smi:68|AV-procd|sdf|642|dock2
  -GOLD-   2262016533D 1   1.00000     0.00000
 Structure written by MMmdl.
 22 23  0  0  0  0  0  0  0  0  2 V2000
  150.8957  139.3275  154.3950 O   0  0  0  0  0  0  0  0  0  0  0  0
  151.0455  140.0230  155.3985 C   0  0  0  0  0  0  0  0  0  0  0  0
  151.9985  139.7651  156.3406 N   0  5  0  0  0  0  0  0  0  0  0  0
  152.1661  140.5384  157.4539 C   0  0  0  0  0  0  0  0  0  0  0  0
  153.0367  140.3161  158.2950 O   0  0  0  0  0  0  0  0  0  0  0  0
  151.3079  141.6569  157.6462 N   0  0  0  0  0  0  0  0  0  0  0  0
  151.4423  142.5344  158.8700 C   0  0  1  0  0  0  0  0  0  0  0  0
  152.8246  143.2024  158.9184 C   0  0  0  0  0  0  0  0  0  0  0  0
  152.4984  144.6589  158.6491 C   0  0  0  0  0  0  0  0  0  0  0  0
  151.0739  144.7715  159.1775 C   0  0  0  0  0  0  0  0  0  0  0  0
  150.4759  143.5409  158.7971 O   0  0  0  0  0  0  0  0  0  0  0  0
  150.3344  141.9431  156.7053 C   0  0  0  0  0  0  0  0  0  0  0  0
  150.1755  141.1789  155.6058 C   0  0  0  0  0  0  0  0  0  0  0  0
  149.2207  141.4839  154.7104 F   0  0  0  0  0  0  0  0  0  0  0  0
  151.2389  141.9249  159.7500 H   0  0  0  0  0  0  0  0  0  0  0  0
  153.2359  143.0760  159.9204 H   0  0  0  0  0  0  0  0  0  0  0  0
  153.5190  142.7713  158.1959 H   0  0  0  0  0  0  0  0  0  0  0  0
  153.1890  145.3482  159.1352 H   0  0  0  0  0  0  0  0  0  0  0  0
  152.5169  144.8570  157.5768 H   0  0  0  0  0  0  0  0  0  0  0  0
  151.0708  144.8546  160.2654 H   0  0  0  0  0  0  0  0  0  0  0  0
  150.5356  145.6247  158.7645 H   0  0  0  0  0  0  0  0  0  0  0  0
  149.6863  142.7941  156.8512 H   0  0  0  0  0  0  0  0  0  0  0  0
  1  2  2  0  0  0  0
  2 13  1  0  0  0  0
  2  3  1  0  0  0  0
  3  4  1  0  0  0  0
  4  5  2  0  0  0  0
  4  6  1  0  0  0  0
  6  7  1  0  0  0  0
  6 12  1  0  0  0  0
  7 11  1  0  0  0  0
  7  8  1  0  0  0  0
  7 15  1  0  0  0  0
  8  9  1  0  0  0  0
  8 16  1  0  0  0  0
  8 17  1  0  0  0  0
  9 10  1  0  0  0  0
  9 18  1  0  0  0  0
  9 19  1  0  0  0  0
 10 11  1  0  0  0  0
 10 20  1  0  0  0  0
 10 21  1  0  0  0  0
 12 13  2  0  0  0  0
 12 22  1  0  0  0  0
 13 14  1  0  0  0  0
M  CHG  1   3  -1
M  END
> <s_m_source_file>
AV-unprocessed.smi

> <i_m_source_file_index>
68

> <i_lp_mmshare_version>
43012

> <i_f3d_flags>
0

> <s_epik_input>
Tz1jMVtuSF1jKD1PKW4oW2NIXWMxRilbQ0BASF0yW0NIMl1bQ0gyXVtDSDJdTzI=

> <s_epik_cmdline>
J2VwaWtfcHl0aG9uJywgJy1waCcsICc3LjAnLCAnLXRuJywgJzgnLCAnLW1hJywgJzIwMCcsICctbWV0YWxfYmluZGluZycsICctaW1hZScsICc8aW5maWxlLm1hZT4nLCAnLW9tYWUnLCAnPG91dGZpbGUubWFlPic=

> <r_epik_Ionization_Penalty>
1.69229

> <r_epik_Ionization_Penalty_Charging>
3.30034e-08

> <r_epik_Ionization_Penalty_Neutral>
1.69229

> <r_epik_State_Penalty>
1.7976

> <r_epik_Charging_Adjusted_Penalty>
1.7976

> <i_epik_Tot_Q>
-1

> <i_epik_Tot_abs_Q>
1

> <r_epik_Metal_State_Penalty>
0.0116051

> <b_epik_Metal_Only>
0

> <s_epik_Chemistry_Notes>
This compound contains an acetal/aminal-like group ( X-CH(R)-Y where X, Y are N, S, or O) that may be acid/base labile, releasing an aldehyde.

> <s_lp_Force_Field>
OPLS_2005

> <r_lp_Energy>
34.1498

> <b_lp_Chiralities_Consistent>
1

> <s_lp_Variant>
AV-unprocessed.smi:68-4

> <Gold.Version>
5.8.1

> <Gold.Id.Protein>
6NUR|6NUR_protein|mol2

> <Gold.PLP.Fitness>
38.0771

> <Gold.PLP.PLP>
-31.7916

> <Gold.PLP.part.hbond>
-2.0000

> <Gold.PLP.part.metal>
0.0000

> <Gold.PLP.part.buried>
-1.7942

> <Gold.PLP.part.nonpolar>
-27.1216

> <Gold.PLP.part.repulsive>
0.2731

> <Gold.PLP.ligand.clash>
0.0000

> <Gold.PLP.ligand.torsion>
0.0024

> <Gold.PLP.Chemscore.Hbond>
1.0960

> <Gold.PLP.Chemscore.CHOScore>
1.0000

> <Gold.PLP.Chemscore.Metal>
0.0000

> <Gold.Chemscore.Hbonds>
donor molecule, donor type, donor heavy atom, donor atom, acceptor molecule, acceptor atom, score
      P1  H  7989  7998       L1     1  0.20
      P1  H  7997  8009       L1     5  0.85
      L1  C    12    22       P1  8028  1.00

> <Gold.PLP.Chemscore.Internal.Correction>
0.0023

> <Gold.Rescore>
     Score         DG    S(hbond)    S(metal)    S(lipo)     H(rot)  DE(clash)    DE(int)     intcor
     10.70     -11.91       0.91        0.00      50.71       1.00       0.04       1.16       ----

> <Gold.Chemscore.Fitness>
10.7038

> <Gold.Chemscore.DG>
-11.9079

> <Gold.Chemscore.ZeroCoef>
-5.4800

> <Gold.Chemscore.Hbond>
0.9145

> <Gold.Chemscore.Metal>
0.0000

> <Gold.Chemscore.Lipo>
50.7145

> <Gold.Chemscore.Internal_Hbond>
0.0000

> <Gold.Chemscore.DEClash>
0.0427

> <Gold.Chemscore.DEInternal>
1.1614

> <Gold.Chemscore.Rot>
1.0000

> <Gold.Chemscore.Internal.Correction>
   9.000000E+99

> <Gold.Chemscore.Hbonds>
donor molecule, donor type, donor heavy atom, donor atom, acceptor molecule, acceptor atom, score
      P1  H  7997  8009       L1     5  0.18

> <Gold.Chemscore.Hbond.Weighted>
-3.0543

> <Gold.Chemscore.Metal.Weighted>
-0.0000

> <Gold.Chemscore.Lipo.Weighted>
-5.9336

> <Gold.Chemscore.Internal_Hbond.Weighted>
0.0000

> <Gold.Chemscore.DEClash.Weighted>
0.0427

> <Gold.Chemscore.DEInternal.Weighted>
1.1614

> <Gold.Chemscore.Rot.Weighted>
2.5600

> <Gold.Chemscore.Internal.Correction.Weighted>
   9.000000E+99

> <Gold.Protein.RotatedTorsions>
[ 6907 6896 6895 6894 ] final   96.81 input  -60.11 | X-H torsion
[ 7974 7965 7964 7962 ] final  -32.20 input  175.53 | X-H torsion
[ 8008 7997 7996 7995 ] final  152.06 input   59.86 | X-H torsion
[ 10167 10162 10161 10158 ] final  147.46 input  -65.29 | X-H torsion
[ 10718 10713 10712 10709 ] final  -31.42 input   66.30 | X-H torsion
[ 10763 10752 10751 10750 ] final  103.73 input  -60.55 | X-H torsion
[ 11005 11000 10999 10996 ] final  -83.45 input  -57.11 | X-H torsion

> <Gold.Protein.ActiveResidues>
 VAL166  LYS551  ARG553  GLY616  TRP617  ASP618  TYR619  PRO620  LYS621  CYS622 
 ASP623  PHE694  ASN695  SER759  ASP760  ASP761  ALA762  ILE779  LEU786  VAL792 
 PHE793  MET794  SER795  GLU796  ALA797  LYS798  CYS799  TRP800  GLU811  SER814 

> <Gold.Protein.RotatedAtoms>
  152.5431  134.0829  159.8243 H   0  0  0  0  0  0  0  0  0  0  0  0  # atno 6907 bound_to 6896
  151.0929  133.5295  159.2621 H   0  0  0  0  0  0  0  0  0  0  0  0  # atno 6908 bound_to 6896
  151.2079  135.0478  159.8953 H   0  0  0  0  0  0  0  0  0  0  0  0  # atno 6909 bound_to 6896
  146.1008  140.5763  142.8822 H   0  0  0  0  0  0  0  0  0  0  0  0  # atno 7974 bound_to 7965
  156.2646  140.2031  156.6273 H   0  0  0  0  0  0  0  0  0  0  0  0  # atno 8008 bound_to 7997
  154.6710  140.0550  157.0190 H   0  0  0  0  0  0  0  0  0  0  0  0  # atno 8009 bound_to 7997
  155.1137  140.3218  155.4518 H   0  0  0  0  0  0  0  0  0  0  0  0  # atno 8010 bound_to 7997
  139.4890  144.5754  151.6976 H   0  0  0  0  0  0  0  0  0  0  0  0  # atno 10167 bound_to 10162
  156.3875  130.4367  149.7421 H   0  0  0  0  0  0  0  0  0  0  0  0  # atno 10718 bound_to 10713
  153.3566  135.3967  155.1687 H   0  0  0  0  0  0  0  0  0  0  0  0  # atno 10763 bound_to 10752
  154.8672  135.3669  154.5153 H   0  0  0  0  0  0  0  0  0  0  0  0  # atno 10764 bound_to 10752
  153.5609  135.7081  153.5608 H   0  0  0  0  0  0  0  0  0  0  0  0  # atno 10765 bound_to 10752
  141.1657  133.7295  156.8721 H   0  0  0  0  0  0  0  0  0  0  0  0  # atno 11005 bound_to 11000
  144.7431  140.4996  143.6855 LP  0  0  0  0  0  0  0  0  0  0  0  0  # atno 17320 bound_to 7965
  145.5858  139.1492  143.3210 LP  0  0  0  0  0  0  0  0  0  0  0  0  # atno 17321 bound_to 7965
  140.5349  144.0672  150.6067 LP  0  0  0  0  0  0  0  0  0  0  0  0  # atno 17342 bound_to 10162
  140.3674  143.2873  152.0316 LP  0  0  0  0  0  0  0  0  0  0  0  0  # atno 17343 bound_to 10162
  156.4487  130.7896  151.2917 LP  0  0  0  0  0  0  0  0  0  0  0  0  # atno 17370 bound_to 10713
  157.7497  131.0102  150.3297 LP  0  0  0  0  0  0  0  0  0  0  0  0  # atno 17371 bound_to 10713
  140.1774  134.9057  157.2907 LP  0  0  0  0  0  0  0  0  0  0  0  0  # atno 17394 bound_to 11000
  140.2433  134.3769  155.7471 LP  0  0  0  0  0  0  0  0  0  0  0  0  # atno 17395 bound_to 11000

$$$$
