AV-unprocessed.smi:148|AV-procd|sdf|1223|dock5
  -GOLD-   2262018413D 1   1.00000     0.00000
 Structure written by MMmdl.
 63 67  0  0  0  0  0  0  0  0  1 V2000
  149.3124  142.1754  156.2901 O   0  0  0  0  0  0  0  0  0  0  0  0
  150.4744  141.4304  156.5895 C   0  0  0  0  0  0  0  0  0  0  0  0
  150.8518  141.5492  158.0877 C   0  0  1  0  0  0  0  0  0  0  0  0
  151.8673  140.4617  158.5334 C   0  0  0  0  0  0  0  0  0  0  0  0
  151.3048  139.1232  158.5361 N   0  0  0  0  0  0  0  0  0  0  0  0
  151.9680  137.9498  158.8159 C   0  0  0  0  0  0  0  0  0  0  0  0
  151.2463  136.8670  158.7177 N   0  0  0  0  0  0  0  0  0  0  0  0
  149.9891  137.3323  158.3510 C   0  0  0  0  0  0  0  0  0  0  0  0
  148.7480  136.7083  158.0411 C   0  0  0  0  0  0  0  0  0  0  0  0
  148.5390  135.3743  158.0352 N   0  0  0  0  0  0  0  0  0  0  0  0
  148.5179  134.9051  156.6480 C   0  0  0  0  0  0  0  0  0  0  0  0
  148.5628  133.3764  156.5712 C   0  0  0  0  0  0  0  0  0  0  0  0
  147.4122  132.7837  157.3849 C   0  0  0  0  0  0  0  0  0  0  0  0
  147.4767  133.2990  158.8278 C   0  0  0  0  0  0  0  0  0  0  0  0
  147.4715  134.8502  158.9156 C   0  0  1  0  0  0  0  0  0  0  0  0
  147.5949  135.3028  160.4143 C   0  0  1  0  0  0  0  0  0  0  0  0
  147.2275  136.7658  160.7491 C   0  0  0  0  0  0  0  0  0  0  0  0
  146.8512  136.8100  162.2368 C   0  0  0  0  0  0  0  0  0  0  0  0
  146.7846  135.3535  162.7037 C   0  0  0  0  0  0  0  0  0  0  0  0
  146.7255  134.5203  161.4225 C   0  0  1  0  0  0  0  0  0  0  0  0
  145.3767  134.4490  160.9948 O   0  0  0  0  0  0  0  0  0  0  0  0
  147.6930  137.5026  157.7337 N   0  0  0  0  0  0  0  0  0  0  0  0
  147.8463  138.8299  157.6991 C   0  0  0  0  0  0  0  0  0  0  0  0
  148.9462  139.5502  157.9309 N   0  0  0  0  0  0  0  0  0  0  0  0
  150.0027  138.7513  158.2566 C   0  0  0  0  0  0  0  0  0  0  0  0
  151.2903  142.9948  158.4544 C   0  0  1  0  0  0  0  0  0  0  0  0
  151.9020  143.1942  159.8294 C   0  0  0  0  0  0  0  0  0  0  0  0
  152.5127  144.5821  159.6802 C   0  0  0  0  0  0  0  0  0  0  0  0
  153.0096  144.6207  158.3471 O   0  0  0  0  0  0  0  0  0  0  0  0
  152.3346  143.6542  157.5439 C   0  0  0  0  0  0  0  0  0  0  0  0
  149.5383  143.0929  156.2761 H   0  0  0  0  0  0  0  0  0  0  0  0
  150.2604  140.3982  156.3128 H   0  0  0  0  0  0  0  0  0  0  0  0
  151.2935  141.7664  155.9532 H   0  0  0  0  0  0  0  0  0  0  0  0
  149.9370  141.3556  158.6501 H   0  0  0  0  0  0  0  0  0  0  0  0
  152.7418  140.4553  157.8839 H   0  0  0  0  0  0  0  0  0  0  0  0
  152.2295  140.6596  159.5416 H   0  0  0  0  0  0  0  0  0  0  0  0
  153.0155  137.9205  159.0791 H   0  0  0  0  0  0  0  0  0  0  0  0
  147.6152  135.2676  156.1537 H   0  0  0  0  0  0  0  0  0  0  0  0
  149.3665  135.3175  156.0994 H   0  0  0  0  0  0  0  0  0  0  0  0
  148.4974  133.0506  155.5329 H   0  0  0  0  0  0  0  0  0  0  0  0
  149.5171  133.0132  156.9552 H   0  0  0  0  0  0  0  0  0  0  0  0
  146.4576  133.0606  156.9361 H   0  0  0  0  0  0  0  0  0  0  0  0
  147.4630  131.6947  157.3708 H   0  0  0  0  0  0  0  0  0  0  0  0
  146.6333  132.8722  159.3685 H   0  0  0  0  0  0  0  0  0  0  0  0
  148.3770  132.9105  159.3064 H   0  0  0  0  0  0  0  0  0  0  0  0
  146.5144  135.1983  158.5254 H   0  0  0  0  0  0  0  0  0  0  0  0
  148.6328  135.1519  160.7170 H   0  0  0  0  0  0  0  0  0  0  0  0
  148.0421  137.4598  160.5466 H   0  0  0  0  0  0  0  0  0  0  0  0
  146.3687  137.0822  160.1563 H   0  0  0  0  0  0  0  0  0  0  0  0
  147.5847  137.3684  162.8196 H   0  0  0  0  0  0  0  0  0  0  0  0
  145.8878  137.3048  162.3661 H   0  0  0  0  0  0  0  0  0  0  0  0
  147.6997  135.1110  163.2457 H   0  0  0  0  0  0  0  0  0  0  0  0
  145.9498  135.1635  163.3796 H   0  0  0  0  0  0  0  0  0  0  0  0
  147.0987  133.5109  161.5975 H   0  0  0  0  0  0  0  0  0  0  0  0
  145.2963  134.9202  160.1797 H   0  0  0  0  0  0  0  0  0  0  0  0
  146.9633  139.3954  157.4402 H   0  0  0  0  0  0  0  0  0  0  0  0
  150.4026  143.6290  158.4296 H   0  0  0  0  0  0  0  0  0  0  0  0
  151.1714  143.1358  160.6366 H   0  0  0  0  0  0  0  0  0  0  0  0
  152.6961  142.4763  160.0304 H   0  0  0  0  0  0  0  0  0  0  0  0
  151.7468  145.3506  159.7933 H   0  0  0  0  0  0  0  0  0  0  0  0
  153.3009  144.7766  160.4079 H   0  0  0  0  0  0  0  0  0  0  0  0
  153.0753  142.9429  157.1816 H   0  0  0  0  0  0  0  0  0  0  0  0
  151.8740  144.1244  156.6746 H   0  0  0  0  0  0  0  0  0  0  0  0
  1  2  1  0  0  0  0
  1 31  1  0  0  0  0
  2  3  1  0  0  0  0
  2 32  1  0  0  0  0
  2 33  1  0  0  0  0
  3  4  1  0  0  0  0
  3 26  1  0  0  0  0
  3 34  1  0  0  0  0
  4  5  1  0  0  0  0
  4 35  1  0  0  0  0
  4 36  1  0  0  0  0
  5 25  1  0  0  0  0
  5  6  1  0  0  0  0
  6  7  2  0  0  0  0
  6 37  1  0  0  0  0
  7  8  1  0  0  0  0
  8 25  2  0  0  0  0
  8  9  1  0  0  0  0
  9 10  1  0  0  0  0
  9 22  2  0  0  0  0
 10 15  1  0  0  0  0
 10 11  1  0  0  0  0
 11 12  1  0  0  0  0
 11 38  1  0  0  0  0
 11 39  1  0  0  0  0
 12 13  1  0  0  0  0
 12 40  1  0  0  0  0
 12 41  1  0  0  0  0
 13 14  1  0  0  0  0
 13 42  1  0  0  0  0
 13 43  1  0  0  0  0
 14 15  1  0  0  0  0
 14 44  1  0  0  0  0
 14 45  1  0  0  0  0
 15 16  1  0  0  0  0
 15 46  1  0  0  0  0
 16 20  1  0  0  0  0
 16 17  1  0  0  0  0
 16 47  1  0  0  0  0
 17 18  1  0  0  0  0
 17 48  1  0  0  0  0
 17 49  1  0  0  0  0
 18 19  1  0  0  0  0
 18 50  1  0  0  0  0
 18 51  1  0  0  0  0
 19 20  1  0  0  0  0
 19 52  1  0  0  0  0
 19 53  1  0  0  0  0
 20 21  1  0  0  0  0
 20 54  1  0  0  0  0
 21 55  1  0  0  0  0
 22 23  1  0  0  0  0
 23 24  2  0  0  0  0
 23 56  1  0  0  0  0
 24 25  1  0  0  0  0
 26 30  1  0  0  0  0
 26 27  1  0  0  0  0
 26 57  1  0  0  0  0
 27 28  1  0  0  0  0
 27 58  1  0  0  0  0
 27 59  1  0  0  0  0
 28 29  1  0  0  0  0
 28 60  1  0  0  0  0
 28 61  1  0  0  0  0
 29 30  1  0  0  0  0
 30 62  1  0  0  0  0
 30 63  1  0  0  0  0
M  END
> <s_m_source_file>
AV-unprocessed.smi

> <i_m_source_file_index>
148

> <i_lp_mmshare_version>
43012

> <i_f3d_flags>
0

> <s_epik_input>
W0NIMl0xT1tDSDJdW0NIMl1bQ0BIXTFbQ0BIXShbQ0gyXVtPSF0pW0NIMl1uKFtjSF1uMiljKGMyMyluW2NIXW5jM040W0NIMl1bQ0gyXVtDSDJdW0NIMl1bQ0BIXTRbQ0BASF01W0NIMl1bQ0gyXVtDSDJdW0NASF01W09IXQ==

> <s_epik_cmdline>
J2VwaWtfcHl0aG9uJywgJy1waCcsICc3LjAnLCAnLXRuJywgJzgnLCAnLW1hJywgJzIwMCcsICctbWV0YWxfYmluZGluZycsICctaW1hZScsICc8aW5maWxlLm1hZT4nLCAnLW9tYWUnLCAnPG91dGZpbGUubWFlPic=

> <r_lp_tautomer_probability>
1

> <r_epik_Ionization_Penalty>
0.00556303

> <r_epik_Ionization_Penalty_Charging>
0

> <r_epik_Ionization_Penalty_Neutral>
0.00556303

> <r_epik_State_Penalty>
0.00401767

> <r_epik_Charging_Adjusted_Penalty>
0.00401767

> <i_epik_Tot_Q>
0

> <i_epik_Tot_abs_Q>
0

> <r_epik_Metal_State_Penalty>
-0

> <b_epik_Metal_Only>
0

> <s_lp_Force_Field>
OPLS_2005

> <r_lp_Energy>
70.5845

> <b_lp_Chiralities_Consistent>
1

> <s_lp_Variant>
AV-unprocessed.smi:148-22

> <Gold.Version>
5.8.1

> <Gold.Id.Protein>
6NUR|6NUR_protein|mol2

> <Gold.PLP.Fitness>
53.3599

> <Gold.PLP.PLP>
-49.3755

> <Gold.PLP.part.hbond>
-3.2243

> <Gold.PLP.part.metal>
0.0000

> <Gold.PLP.part.buried>
-8.1780

> <Gold.PLP.part.nonpolar>
-39.1618

> <Gold.PLP.part.repulsive>
0.0213

> <Gold.PLP.ligand.clash>
0.0000

> <Gold.PLP.ligand.torsion>
0.8377

> <Gold.PLP.Chemscore.Hbond>
1.7111

> <Gold.PLP.Chemscore.CHOScore>
0.0000

> <Gold.PLP.Chemscore.Metal>
0.0000

> <Gold.Chemscore.Hbonds>
donor molecule, donor type, donor heavy atom, donor atom, acceptor molecule, acceptor atom, score
      L1  H     1    31       P1  8028  0.82
      P1  H  6896  6908       L1     7  0.12

> <Gold.PLP.Chemscore.Internal.Correction>
0.5267

> <Gold.Rescore>
     Score         DG    S(hbond)    S(metal)    S(lipo)     H(rot)  DE(clash)    DE(int)     intcor
     12.11     -14.85       0.98        0.00     124.63       3.32       0.03       2.71       ----

> <Gold.Chemscore.Fitness>
12.1082

> <Gold.Chemscore.DG>
-14.8486

> <Gold.Chemscore.ZeroCoef>
-5.4800

> <Gold.Chemscore.Hbond>
0.9842

> <Gold.Chemscore.Metal>
0.0000

> <Gold.Chemscore.Lipo>
124.6268

> <Gold.Chemscore.Internal_Hbond>
0.0000

> <Gold.Chemscore.DEClash>
0.0291

> <Gold.Chemscore.DEInternal>
2.7113

> <Gold.Chemscore.Rot>
3.3203

> <Gold.Chemscore.Internal.Correction>
   9.000000E+99

> <Gold.Chemscore.Hbonds>
donor molecule, donor type, donor heavy atom, donor atom, acceptor molecule, acceptor atom, score
      L1  H     1    31       P1  8028  0.81
      P1  H  6896  6908       L1     7  0.05

> <Gold.Chemscore.Hbond.Weighted>
-3.2873

> <Gold.Chemscore.Metal.Weighted>
-0.0000

> <Gold.Chemscore.Lipo.Weighted>
-14.5813

> <Gold.Chemscore.Internal_Hbond.Weighted>
0.0000

> <Gold.Chemscore.DEClash.Weighted>
0.0291

> <Gold.Chemscore.DEInternal.Weighted>
2.7113

> <Gold.Chemscore.Rot.Weighted>
8.5000

> <Gold.Chemscore.Internal.Correction.Weighted>
   9.000000E+99

> <Gold.Protein.RotatedTorsions>
[ 6907 6896 6895 6894 ] final -178.59 input  -60.11 | X-H torsion
[ 7974 7965 7964 7962 ] final   86.25 input  175.53 | X-H torsion
[ 8008 7997 7996 7995 ] final -178.54 input   59.86 | X-H torsion
[ 10167 10162 10161 10158 ] final   69.75 input  -65.29 | X-H torsion
[ 10718 10713 10712 10709 ] final  109.33 input   66.30 | X-H torsion
[ 10763 10752 10751 10750 ] final   83.35 input  -60.55 | X-H torsion
[ 11005 11000 10999 10996 ] final -116.59 input  -57.11 | X-H torsion

> <Gold.Protein.ActiveResidues>
 VAL166  LYS551  ARG553  GLY616  TRP617  ASP618  TYR619  PRO620  LYS621  CYS622 
 ASP623  PHE694  ASN695  SER759  ASP760  ASP761  ALA762  ILE779  LEU786  VAL792 
 PHE793  MET794  SER795  GLU796  ALA797  LYS798  CYS799  TRP800  GLU811  SER814 

> <Gold.Protein.RotatedAtoms>
  151.6397  133.3327  159.3127 H   0  0  0  0  0  0  0  0  0  0  0  0  # atno 6907 bound_to 6896
  150.8014  134.7114  159.6615 H   0  0  0  0  0  0  0  0  0  0  0  0  # atno 6908 bound_to 6896
  152.4107  134.6134  160.0083 H   0  0  0  0  0  0  0  0  0  0  0  0  # atno 6909 bound_to 6896
  145.5748  139.2318  143.2386 H   0  0  0  0  0  0  0  0  0  0  0  0  # atno 7974 bound_to 7965
  156.0200  140.1259  157.0367 H   0  0  0  0  0  0  0  0  0  0  0  0  # atno 8008 bound_to 7997
  154.4308  140.1070  156.6020 H   0  0  0  0  0  0  0  0  0  0  0  0  # atno 8009 bound_to 7997
  155.5959  140.3470  155.4582 H   0  0  0  0  0  0  0  0  0  0  0  0  # atno 8010 bound_to 7997
  140.0644  144.5206  150.7271 H   0  0  0  0  0  0  0  0  0  0  0  0  # atno 10167 bound_to 10162
  157.6546  131.0911  150.6437 H   0  0  0  0  0  0  0  0  0  0  0  0  # atno 10718 bound_to 10713
  153.1283  135.4694  154.9308 H   0  0  0  0  0  0  0  0  0  0  0  0  # atno 10763 bound_to 10752
  154.7641  135.3139  154.8324 H   0  0  0  0  0  0  0  0  0  0  0  0  # atno 10764 bound_to 10752
  153.8872  135.6888  153.4817 H   0  0  0  0  0  0  0  0  0  0  0  0  # atno 10765 bound_to 10752
  141.0412  133.9833  157.2992 H   0  0  0  0  0  0  0  0  0  0  0  0  # atno 11005 bound_to 11000
  146.1758  140.6574  142.9212 LP  0  0  0  0  0  0  0  0  0  0  0  0  # atno 17320 bound_to 7965
  144.7421  140.4970  143.6862 LP  0  0  0  0  0  0  0  0  0  0  0  0  # atno 17321 bound_to 7965
  140.7156  143.2542  151.4444 LP  0  0  0  0  0  0  0  0  0  0  0  0  # atno 17342 bound_to 10162
  139.5874  144.1574  152.2046 LP  0  0  0  0  0  0  0  0  0  0  0  0  # atno 17343 bound_to 10162
  156.6745  130.4549  149.5647 LP  0  0  0  0  0  0  0  0  0  0  0  0  # atno 17370 bound_to 10713
  156.1973  130.6598  151.1129 LP  0  0  0  0  0  0  0  0  0  0  0  0  # atno 17371 bound_to 10713
  139.9277  135.0201  156.8292 LP  0  0  0  0  0  0  0  0  0  0  0  0  # atno 17394 bound_to 11000
  140.6231  133.9975  155.7627 LP  0  0  0  0  0  0  0  0  0  0  0  0  # atno 17395 bound_to 11000

$$$$
