AV-unprocessed.smi:2225|AV-procd|sdf|8999|dock7
  -GOLD-   2272012213D 1   1.00000     0.00000
 Structure written by MMmdl.
 33 34  0  0  0  0  0  0  0  0  1 V2000
  148.9828  139.9579  155.4506 O   0  0  0  0  0  0  0  0  0  0  0  0
  149.4695  141.0788  155.5946 C   0  0  0  0  0  0  0  0  0  0  0  0
  150.9751  141.2058  155.8862 C   0  0  0  0  0  0  0  0  0  0  0  0
  151.3126  141.7181  157.2275 N   0  0  0  0  0  0  0  0  0  0  0  0
  150.8011  142.9823  157.5707 C   0  0  0  0  0  0  0  0  0  0  0  0
  151.0498  143.5449  158.7608 C   0  0  0  0  0  0  0  0  0  0  0  0
  151.8694  142.8191  159.7002 C   0  0  0  0  0  0  0  0  0  0  0  0
  152.3700  141.5980  159.4016 C   0  0  0  0  0  0  0  0  0  0  0  0
  153.2439  140.8189  160.3821 C   0  0  0  0  0  0  0  0  0  0  0  0
  152.8027  139.5667  160.5066 F   0  0  0  0  0  0  0  0  0  0  0  0
  154.5066  140.7755  159.9552 F   0  0  0  0  0  0  0  0  0  0  0  0
  153.2433  141.3742  161.5948 F   0  0  0  0  0  0  0  0  0  0  0  0
  152.0820  140.9832  158.0895 C   0  0  0  0  0  0  0  0  0  0  0  0
  152.5010  139.8674  157.7780 O   0  0  0  0  0  0  0  0  0  0  0  0
  148.7388  142.2028  155.5060 N   0  0  0  0  0  0  0  0  0  0  0  0
  147.3042  142.2547  155.2434 C   0  0  2  0  0  0  0  0  0  0  0  0
  146.9785  143.0505  153.9795 C   0  0  0  0  0  0  0  0  0  0  0  0
  145.8802  144.0087  154.4265 C   0  0  0  0  0  0  0  0  0  0  0  0
  146.2085  144.2615  155.7810 O   0  0  0  0  0  0  0  0  0  0  0  0
  146.5748  143.0173  156.3588 C   0  0  0  0  0  0  0  0  0  0  0  0
  151.4413  140.2322  155.7241 H   0  0  0  0  0  0  0  0  0  0  0  0
  151.4094  141.8508  155.1209 H   0  0  0  0  0  0  0  0  0  0  0  0
  150.1940  143.4563  156.8128 H   0  0  0  0  0  0  0  0  0  0  0  0
  150.6465  144.5154  159.0106 H   0  0  0  0  0  0  0  0  0  0  0  0
  152.0788  143.2750  160.6564 H   0  0  0  0  0  0  0  0  0  0  0  0
  149.2098  143.0871  155.6317 H   0  0  0  0  0  0  0  0  0  0  0  0
  146.9037  141.2412  155.1798 H   0  0  0  0  0  0  0  0  0  0  0  0
  147.8440  143.6258  153.6466 H   0  0  0  0  0  0  0  0  0  0  0  0
  146.6643  142.4153  153.1506 H   0  0  0  0  0  0  0  0  0  0  0  0
  145.8548  144.9258  153.8378 H   0  0  0  0  0  0  0  0  0  0  0  0
  144.8999  143.5330  154.3694 H   0  0  0  0  0  0  0  0  0  0  0  0
  145.6682  142.4848  156.6503 H   0  0  0  0  0  0  0  0  0  0  0  0
  147.1776  143.1619  157.2563 H   0  0  0  0  0  0  0  0  0  0  0  0
  1  2  2  0  0  0  0
  2  3  1  0  0  0  0
  2 15  1  0  0  0  0
  3  4  1  0  0  0  0
  3 21  1  0  0  0  0
  3 22  1  0  0  0  0
  4 13  1  0  0  0  0
  4  5  1  0  0  0  0
  5  6  2  0  0  0  0
  5 23  1  0  0  0  0
  6  7  1  0  0  0  0
  6 24  1  0  0  0  0
  7  8  2  0  0  0  0
  7 25  1  0  0  0  0
  8  9  1  0  0  0  0
  8 13  1  0  0  0  0
  9 10  1  0  0  0  0
  9 11  1  0  0  0  0
  9 12  1  0  0  0  0
 13 14  2  0  0  0  0
 15 16  1  0  0  0  0
 15 26  1  0  0  0  0
 16 20  1  0  0  0  0
 16 17  1  0  0  0  0
 16 27  1  0  0  0  0
 17 18  1  0  0  0  0
 17 28  1  0  0  0  0
 17 29  1  0  0  0  0
 18 19  1  0  0  0  0
 18 30  1  0  0  0  0
 18 31  1  0  0  0  0
 19 20  1  0  0  0  0
 20 32  1  0  0  0  0
 20 33  1  0  0  0  0
M  END
> <s_m_source_file>
AV-unprocessed.smi

> <i_m_source_file_index>
2225

> <i_lp_mmshare_version>
43012

> <i_f3d_flags>
0

> <s_epik_input>
W0NIMl0xT1tDSDJdW0NIMl1bQ0BIXTFbTkhdQyg9TylbQ0gyXW4yW2NIXVtjSF1bY0hdYyhDKEYpKEYpRiljMj1P

> <s_epik_cmdline>
J2VwaWtfcHl0aG9uJywgJy1waCcsICc3LjAnLCAnLXRuJywgJzgnLCAnLW1hJywgJzIwMCcsICctbWV0YWxfYmluZGluZycsICctaW1hZScsICc8aW5maWxlLm1hZT4nLCAnLW9tYWUnLCAnPG91dGZpbGUubWFlPic=

> <r_lp_tautomer_probability>
1

> <r_epik_Ionization_Penalty>
3.32109e-08

> <r_epik_Ionization_Penalty_Charging>
1.91399e-09

> <r_epik_Ionization_Penalty_Neutral>
3.1297e-08

> <r_epik_State_Penalty>
-0

> <r_epik_Charging_Adjusted_Penalty>
1.91399e-09

> <i_epik_Tot_Q>
0

> <i_epik_Tot_abs_Q>
0

> <r_epik_Metal_State_Penalty>
-0

> <b_epik_Metal_Only>
0

> <s_lp_Force_Field>
OPLS_2005

> <r_lp_Energy>
26.4099

> <b_lp_Chiralities_Consistent>
1

> <s_lp_Variant>
AV-unprocessed.smi:2225-1

> <Gold.Version>
5.8.1

> <Gold.Id.Protein>
6NUR|6NUR_protein|mol2

> <Gold.PLP.Fitness>
46.1847

> <Gold.PLP.PLP>
-37.5807

> <Gold.PLP.part.hbond>
-2.0000

> <Gold.PLP.part.metal>
0.0000

> <Gold.PLP.part.buried>
-2.0350

> <Gold.PLP.part.nonpolar>
-32.1859

> <Gold.PLP.part.repulsive>
0.2993

> <Gold.PLP.ligand.clash>
0.0000

> <Gold.PLP.ligand.torsion>
0.3642

> <Gold.PLP.Chemscore.Hbond>
2.0000

> <Gold.PLP.Chemscore.CHOScore>
1.0000

> <Gold.PLP.Chemscore.Metal>
0.0000

> <Gold.Chemscore.Hbonds>
donor molecule, donor type, donor heavy atom, donor atom, acceptor molecule, acceptor atom, score
      L1  H    15    26       P1  8028  0.80
      P1  H  7997  8008       L1    14  0.63
      L1  C     5    23       P1  8028  1.00

> <Gold.PLP.Chemscore.Internal.Correction>
0.3324

> <Gold.Rescore>
     Score         DG    S(hbond)    S(metal)    S(lipo)     H(rot)  DE(clash)    DE(int)     intcor
     14.40     -16.37       1.94        0.00      73.58       1.64       0.05       1.92       ----

> <Gold.Chemscore.Fitness>
14.4042

> <Gold.Chemscore.DG>
-16.3673

> <Gold.Chemscore.ZeroCoef>
-5.4800

> <Gold.Chemscore.Hbond>
1.9384

> <Gold.Chemscore.Metal>
0.0000

> <Gold.Chemscore.Lipo>
73.5773

> <Gold.Chemscore.Internal_Hbond>
0.0000

> <Gold.Chemscore.DEClash>
0.0466

> <Gold.Chemscore.DEInternal>
1.9165

> <Gold.Chemscore.Rot>
1.6389

> <Gold.Chemscore.Internal.Correction>
   9.000000E+99

> <Gold.Chemscore.Hbonds>
donor molecule, donor type, donor heavy atom, donor atom, acceptor molecule, acceptor atom, score
      L1  H    15    26       P1  8028  0.79
      P1  H  7997  8008       L1    14  0.44

> <Gold.Chemscore.Hbond.Weighted>
-6.4743

> <Gold.Chemscore.Metal.Weighted>
-0.0000

> <Gold.Chemscore.Lipo.Weighted>
-8.6085

> <Gold.Chemscore.Internal_Hbond.Weighted>
0.0000

> <Gold.Chemscore.DEClash.Weighted>
0.0466

> <Gold.Chemscore.DEInternal.Weighted>
1.9165

> <Gold.Chemscore.Rot.Weighted>
4.1956

> <Gold.Chemscore.Internal.Correction.Weighted>
   9.000000E+99

> <Gold.Protein.RotatedTorsions>
[ 6907 6896 6895 6894 ] final  148.08 input  -60.11 | X-H torsion
[ 7974 7965 7964 7962 ] final -101.17 input  175.53 | X-H torsion
[ 8008 7997 7996 7995 ] final  -66.88 input   59.86 | X-H torsion
[ 10167 10162 10161 10158 ] final -179.21 input  -65.29 | X-H torsion
[ 10718 10713 10712 10709 ] final    6.48 input   66.30 | X-H torsion
[ 10763 10752 10751 10750 ] final -156.95 input  -60.55 | X-H torsion
[ 11005 11000 10999 10996 ] final  -39.11 input  -57.11 | X-H torsion

> <Gold.Protein.ActiveResidues>
 VAL166  LYS551  ARG553  GLY616  TRP617  ASP618  TYR619  PRO620  LYS621  CYS622 
 ASP623  PHE694  ASN695  SER759  ASP760  ASP761  ALA762  ILE779  LEU786  VAL792 
 PHE793  MET794  SER795  GLU796  ALA797  LYS798  CYS799  TRP800  GLU811  SER814 

> <Gold.Protein.RotatedAtoms>
  152.1463  133.4494  159.4790 H   0  0  0  0  0  0  0  0  0  0  0  0  # atno 6907 bound_to 6896
  150.6891  134.2244  159.4419 H   0  0  0  0  0  0  0  0  0  0  0  0  # atno 6908 bound_to 6896
  152.0138  134.9861  160.0619 H   0  0  0  0  0  0  0  0  0  0  0  0  # atno 6909 bound_to 6896
  145.2851  140.9337  143.2910 H   0  0  0  0  0  0  0  0  0  0  0  0  # atno 7974 bound_to 7965
  154.4763  140.0904  156.7271 H   0  0  0  0  0  0  0  0  0  0  0  0  # atno 8008 bound_to 7997
  155.4587  140.3460  155.4291 H   0  0  0  0  0  0  0  0  0  0  0  0  # atno 8009 bound_to 7997
  156.1122  140.1451  156.9311 H   0  0  0  0  0  0  0  0  0  0  0  0  # atno 8010 bound_to 7997
  139.5397  144.2398  152.0869 H   0  0  0  0  0  0  0  0  0  0  0  0  # atno 10167 bound_to 10162
  156.9227  130.5797  149.5648 H   0  0  0  0  0  0  0  0  0  0  0  0  # atno 10718 bound_to 10713
  154.7674  135.3135  154.8259 H   0  0  0  0  0  0  0  0  0  0  0  0  # atno 10763 bound_to 10752
  153.9004  135.6816  153.4760 H   0  0  0  0  0  0  0  0  0  0  0  0  # atno 10764 bound_to 10752
  153.1282  135.4792  154.9239 H   0  0  0  0  0  0  0  0  0  0  0  0  # atno 10765 bound_to 10752
  141.0078  133.6923  156.2143 H   0  0  0  0  0  0  0  0  0  0  0  0  # atno 11005 bound_to 11000
  144.9220  139.4400  143.6536 LP  0  0  0  0  0  0  0  0  0  0  0  0  # atno 17320 bound_to 7965
  146.3203  139.8085  142.8950 LP  0  0  0  0  0  0  0  0  0  0  0  0  # atno 17321 bound_to 7965
  140.1875  144.4785  150.6496 LP  0  0  0  0  0  0  0  0  0  0  0  0  # atno 17342 bound_to 10162
  140.6621  143.2255  151.5832 LP  0  0  0  0  0  0  0  0  0  0  0  0  # atno 17343 bound_to 10162
  156.0483  130.5556  150.8932 LP  0  0  0  0  0  0  0  0  0  0  0  0  # atno 17370 bound_to 10713
  157.5897  131.0945  150.9139 LP  0  0  0  0  0  0  0  0  0  0  0  0  # atno 17371 bound_to 10713
  140.6784  134.4793  157.5588 LP  0  0  0  0  0  0  0  0  0  0  0  0  # atno 17394 bound_to 11000
  139.9073  134.8421  156.1659 LP  0  0  0  0  0  0  0  0  0  0  0  0  # atno 17395 bound_to 11000

$$$$
