AV-unprocessed.smi:2995|AV-procd|sdf|11408|dock2
  -GOLD-   2272016333D 1   1.00000     0.00000
 Structure written by MMmdl.
 50 52  0  0  0  0  0  0  0  0  3 V2000
  147.5082  133.0805  151.4327 C   0  0  0  0  0  0  0  0  0  0  0  0
  146.0825  133.4291  151.0413 C   0  0  0  0  0  0  0  0  0  0  0  0
  145.2013  132.4016  150.6368 C   0  0  0  0  0  0  0  0  0  0  0  0
  143.8782  132.7249  150.2789 C   0  0  0  0  0  0  0  0  0  0  0  0
  143.4658  134.0084  150.3291 N   0  3  0  0  0  0  0  0  0  0  0  0
  144.2712  135.0236  150.7074 C   0  0  0  0  0  0  0  0  0  0  0  0
  145.6187  134.7697  151.0696 C   0  0  0  0  0  0  0  0  0  0  0  0
  146.5102  135.7947  151.4981 N   0  0  0  0  0  0  0  0  0  0  0  0
  146.2172  136.9663  152.0884 C   0  0  0  0  0  0  0  0  0  0  0  0
  145.0811  137.3754  152.3256 O   0  0  0  0  0  0  0  0  0  0  0  0
  147.3309  137.6570  152.3743 N   0  0  0  0  0  0  0  0  0  0  0  0
  147.3775  138.9745  153.0047 C   0  0  2  0  0  0  0  0  0  0  0  0
  146.3398  139.0597  154.1325 C   0  0  0  0  0  0  0  0  0  0  0  0
  146.3036  140.4680  154.7503 C   0  0  0  0  0  0  0  0  0  0  0  0
  146.0341  141.5141  153.7237 N   0  3  1  0  0  0  0  0  0  0  0  0
  145.8913  142.8803  154.3073 C   0  0  0  0  0  0  0  0  0  0  0  0
  144.8479  142.9704  155.4320 C   0  0  0  0  0  0  0  0  0  0  0  0
  144.4570  144.4504  155.5164 C   0  0  0  0  0  0  0  0  0  0  0  0
  144.8486  145.0762  154.1713 C   0  0  0  0  0  0  0  0  0  0  0  0
  145.3803  143.9288  153.3086 C   0  0  0  0  0  0  0  0  0  0  0  0
  147.0403  141.4573  152.6261 C   0  0  0  0  0  0  0  0  0  0  0  0
  147.0869  140.0681  151.9679 C   0  0  0  0  0  0  0  0  0  0  0  0
  147.6956  132.0102  151.3409 H   0  0  0  0  0  0  0  0  0  0  0  0
  147.7002  133.3678  152.4667 H   0  0  0  0  0  0  0  0  0  0  0  0
  148.2185  133.6020  150.7905 H   0  0  0  0  0  0  0  0  0  0  0  0
  145.5317  131.3737  150.6024 H   0  0  0  0  0  0  0  0  0  0  0  0
  143.1416  132.0009  149.9625 H   0  0  0  0  0  0  0  0  0  0  0  0
  143.7964  135.9929  150.7169 H   0  0  0  0  0  0  0  0  0  0  0  0
  147.4844  135.6360  151.2860 H   0  0  0  0  0  0  0  0  0  0  0  0
  148.2185  137.2395  152.1352 H   0  0  0  0  0  0  0  0  0  0  0  0
  148.3658  139.1615  153.4292 H   0  0  0  0  0  0  0  0  0  0  0  0
  145.3502  138.8079  153.7479 H   0  0  0  0  0  0  0  0  0  0  0  0
  146.5674  138.3246  154.9057 H   0  0  0  0  0  0  0  0  0  0  0  0
  145.5320  140.4775  155.5193 H   0  0  0  0  0  0  0  0  0  0  0  0
  147.2497  140.6835  155.2495 H   0  0  0  0  0  0  0  0  0  0  0  0
  146.8578  143.2056  154.6973 H   0  0  0  0  0  0  0  0  0  0  0  0
  143.9672  142.3813  155.1717 H   0  0  0  0  0  0  0  0  0  0  0  0
  145.2232  142.6004  156.3865 H   0  0  0  0  0  0  0  0  0  0  0  0
  143.3920  144.5643  155.7212 H   0  0  0  0  0  0  0  0  0  0  0  0
  144.9980  144.9423  156.3257 H   0  0  0  0  0  0  0  0  0  0  0  0
  144.0099  145.5836  153.6932 H   0  0  0  0  0  0  0  0  0  0  0  0
  145.6331  145.8179  154.3274 H   0  0  0  0  0  0  0  0  0  0  0  0
  146.1514  144.2724  152.6186 H   0  0  0  0  0  0  0  0  0  0  0  0
  144.5637  143.5131  152.7161 H   0  0  0  0  0  0  0  0  0  0  0  0
  146.8064  142.1879  151.8528 H   0  0  0  0  0  0  0  0  0  0  0  0
  148.0236  141.7193  153.0204 H   0  0  0  0  0  0  0  0  0  0  0  0
  147.8505  140.0567  151.1888 H   0  0  0  0  0  0  0  0  0  0  0  0
  146.1355  139.8699  151.4719 H   0  0  0  0  0  0  0  0  0  0  0  0
  145.1416  141.2866  153.3090 H   0  0  0  0  0  0  0  0  0  0  0  0
  142.5014  134.2218  150.0734 H   0  0  0  0  0  0  0  0  0  0  0  0
  1  2  1  0  0  0  0
  1 23  1  0  0  0  0
  1 24  1  0  0  0  0
  1 25  1  0  0  0  0
  2  7  1  0  0  0  0
  2  3  2  0  0  0  0
  3  4  1  0  0  0  0
  3 26  1  0  0  0  0
  4  5  2  0  0  0  0
  4 27  1  0  0  0  0
  5  6  1  0  0  0  0
  5 50  1  0  0  0  0
  6  7  2  0  0  0  0
  6 28  1  0  0  0  0
  7  8  1  0  0  0  0
  8  9  1  0  0  0  0
  8 29  1  0  0  0  0
  9 10  2  0  0  0  0
  9 11  1  0  0  0  0
 11 12  1  0  0  0  0
 11 30  1  0  0  0  0
 12 22  1  0  0  0  0
 12 13  1  0  0  0  0
 12 31  1  0  0  0  0
 13 14  1  0  0  0  0
 13 32  1  0  0  0  0
 13 33  1  0  0  0  0
 14 15  1  0  0  0  0
 14 34  1  0  0  0  0
 14 35  1  0  0  0  0
 15 16  1  0  0  0  0
 15 21  1  0  0  0  0
 15 49  1  0  0  0  0
 16 20  1  0  0  0  0
 16 17  1  0  0  0  0
 16 36  1  0  0  0  0
 17 18  1  0  0  0  0
 17 37  1  0  0  0  0
 17 38  1  0  0  0  0
 18 19  1  0  0  0  0
 18 39  1  0  0  0  0
 18 40  1  0  0  0  0
 19 20  1  0  0  0  0
 19 41  1  0  0  0  0
 19 42  1  0  0  0  0
 20 43  1  0  0  0  0
 20 44  1  0  0  0  0
 21 22  1  0  0  0  0
 21 45  1  0  0  0  0
 21 46  1  0  0  0  0
 22 47  1  0  0  0  0
 22 48  1  0  0  0  0
M  CHG  1   5   1
M  CHG  1  15   1
M  END
> <s_m_source_file>
AV-unprocessed.smi

> <i_m_source_file_index>
2995

> <i_lp_mmshare_version>
43012

> <i_f3d_flags>
0

> <s_epik_input>
W0NIM11jMVtjSF1bY0hdbltjSF1jMVtOSF1DKD1PKVtOSF1bQ0hdMltDSDJdW0NIMl1OKFtDSDJdW0NIMl0yKVtDSF0zW0NIMl1bQ0gyXVtDSDJdW0NIMl0z

> <s_epik_cmdline>
J2VwaWtfcHl0aG9uJywgJy1waCcsICc3LjAnLCAnLXRuJywgJzgnLCAnLW1hJywgJzIwMCcsICctbWV0YWxfYmluZGluZycsICctaW1hZScsICc8aW5maWxlLm1hZT4nLCAnLW9tYWUnLCAnPG91dGZpbGUubWFlPic=

> <r_epik_Ionization_Penalty>
2.08537

> <r_epik_Ionization_Penalty_Charging>
2.08535

> <r_epik_Ionization_Penalty_Neutral>
2.13957e-05

> <r_epik_State_Penalty>
2.21824

> <r_epik_Charging_Adjusted_Penalty>
4.30358

> <i_epik_Tot_Q>
2

> <i_epik_Tot_abs_Q>
2

> <r_epik_Metal_State_Penalty>
2.23856

> <b_epik_Metal_Only>
0

> <s_lp_Force_Field>
OPLS_2005

> <r_lp_Energy>
48.7268

> <b_lp_Chiralities_Consistent>
1

> <s_lp_Variant>
AV-unprocessed.smi:2995-3

> <Gold.Version>
5.8.1

> <Gold.Id.Protein>
6NUR|6NUR_protein|mol2

> <Gold.PLP.Fitness>
51.5492

> <Gold.PLP.PLP>
-35.6956

> <Gold.PLP.part.hbond>
-4.0000

> <Gold.PLP.part.metal>
0.0000

> <Gold.PLP.part.buried>
-5.6609

> <Gold.PLP.part.nonpolar>
-27.3171

> <Gold.PLP.part.repulsive>
0.3115

> <Gold.PLP.ligand.clash>
0.0000

> <Gold.PLP.ligand.torsion>
0.4662

> <Gold.PLP.Chemscore.Hbond>
5.5840

> <Gold.PLP.Chemscore.CHOScore>
0.0000

> <Gold.PLP.Chemscore.Metal>
0.0000

> <Gold.Chemscore.Hbonds>
donor molecule, donor type, donor heavy atom, donor atom, acceptor molecule, acceptor atom, score
      L1  H     5    50       P1 10186  2.00
      L1  H     8    29       P1  7948  0.75
      L1  H    11    30       P1  7948  0.31
      L1  H    15    49       P1 10175  1.80

> <Gold.PLP.Chemscore.Internal.Correction>
0.0340

> <Gold.Rescore>
     Score         DG    S(hbond)    S(metal)    S(lipo)     H(rot)  DE(clash)    DE(int)     intcor
     20.82     -24.44       3.57        0.00      86.17       1.19       0.56       3.06       ----

> <Gold.Chemscore.Fitness>
20.8187

> <Gold.Chemscore.DG>
-24.4368

> <Gold.Chemscore.ZeroCoef>
-5.4800

> <Gold.Chemscore.Hbond>
3.5661

> <Gold.Chemscore.Metal>
0.0000

> <Gold.Chemscore.Lipo>
86.1747

> <Gold.Chemscore.Internal_Hbond>
0.0000

> <Gold.Chemscore.DEClash>
0.5580

> <Gold.Chemscore.DEInternal>
3.0600

> <Gold.Chemscore.Rot>
1.1861

> <Gold.Chemscore.Internal.Correction>
   9.000000E+99

> <Gold.Chemscore.Hbonds>
donor molecule, donor type, donor heavy atom, donor atom, acceptor molecule, acceptor atom, score
      L1  H     5    50       P1 10186  0.93
      L1  H     8    29       P1  7948  0.67
      L1  H    11    30       P1  7948  0.30
      L1  H    15    49       P1 10175  0.18

> <Gold.Chemscore.Hbond.Weighted>
-11.9108

> <Gold.Chemscore.Metal.Weighted>
-0.0000

> <Gold.Chemscore.Lipo.Weighted>
-10.0824

> <Gold.Chemscore.Internal_Hbond.Weighted>
0.0000

> <Gold.Chemscore.DEClash.Weighted>
0.5580

> <Gold.Chemscore.DEInternal.Weighted>
3.0600

> <Gold.Chemscore.Rot.Weighted>
3.0364

> <Gold.Chemscore.Internal.Correction.Weighted>
   9.000000E+99

> <Gold.Protein.RotatedTorsions>
[ 6907 6896 6895 6894 ] final  123.81 input  -60.11 | X-H torsion
[ 7974 7965 7964 7962 ] final   12.28 input  175.53 | X-H torsion
[ 8008 7997 7996 7995 ] final   46.47 input   59.86 | X-H torsion
[ 10167 10162 10161 10158 ] final  -23.78 input  -65.29 | X-H torsion
[ 10718 10713 10712 10709 ] final   -5.81 input   66.30 | X-H torsion
[ 10763 10752 10751 10750 ] final -121.66 input  -60.55 | X-H torsion
[ 11005 11000 10999 10996 ] final -121.76 input  -57.11 | X-H torsion

> <Gold.Protein.ActiveResidues>
 VAL166  LYS551  ARG553  GLY616  TRP617  ASP618  TYR619  PRO620  LYS621  CYS622 
 ASP623  PHE694  ASN695  SER759  ASP760  ASP761  ALA762  ILE779  LEU786  VAL792 
 PHE793  MET794  SER795  GLU796  ALA797  LYS798  CYS799  TRP800  GLU811  SER814 

> <Gold.Protein.RotatedAtoms>
  152.4131  133.6994  159.6414 H   0  0  0  0  0  0  0  0  0  0  0  0  # atno 6907 bound_to 6896
  150.8010  133.8589  159.3235 H   0  0  0  0  0  0  0  0  0  0  0  0  # atno 6908 bound_to 6896
  151.6326  135.1023  160.0176 H   0  0  0  0  0  0  0  0  0  0  0  0  # atno 6909 bound_to 6896
  146.2354  139.9359  142.8490 H   0  0  0  0  0  0  0  0  0  0  0  0  # atno 7974 bound_to 7965
  155.3531  140.3414  155.4239 H   0  0  0  0  0  0  0  0  0  0  0  0  # atno 8008 bound_to 7997
  156.1753  140.1645  156.8408 H   0  0  0  0  0  0  0  0  0  0  0  0  # atno 8009 bound_to 7997
  154.5276  140.0752  156.8269 H   0  0  0  0  0  0  0  0  0  0  0  0  # atno 8010 bound_to 7997
  140.7288  143.4412  151.0653 H   0  0  0  0  0  0  0  0  0  0  0  0  # atno 10167 bound_to 10162
  156.7412  130.5210  149.5824 H   0  0  0  0  0  0  0  0  0  0  0  0  # atno 10718 bound_to 10713
  154.8673  135.4160  154.2657 H   0  0  0  0  0  0  0  0  0  0  0  0  # atno 10763 bound_to 10752
  153.3576  135.7002  153.6743 H   0  0  0  0  0  0  0  0  0  0  0  0  # atno 10764 bound_to 10752
  153.5657  135.3601  155.2790 H   0  0  0  0  0  0  0  0  0  0  0  0  # atno 10765 bound_to 10752
  141.0046  134.0353  157.3493 H   0  0  0  0  0  0  0  0  0  0  0  0  # atno 11005 bound_to 11000
  145.1999  140.9849  143.4162 LP  0  0  0  0  0  0  0  0  0  0  0  0  # atno 17320 bound_to 7965
  144.9783  139.3809  143.6275 LP  0  0  0  0  0  0  0  0  0  0  0  0  # atno 17321 bound_to 7965
  139.8080  143.7991  152.3169 LP  0  0  0  0  0  0  0  0  0  0  0  0  # atno 17342 bound_to 10162
  139.8031  144.7366  150.9798 LP  0  0  0  0  0  0  0  0  0  0  0  0  # atno 17343 bound_to 10162
  156.1463  130.6279  151.0536 LP  0  0  0  0  0  0  0  0  0  0  0  0  # atno 17370 bound_to 10713
  157.6818  131.0836  150.7350 LP  0  0  0  0  0  0  0  0  0  0  0  0  # atno 17371 bound_to 10713
  139.9057  135.0178  156.7472 LP  0  0  0  0  0  0  0  0  0  0  0  0  # atno 17394 bound_to 11000
  140.6833  133.9455  155.7923 LP  0  0  0  0  0  0  0  0  0  0  0  0  # atno 17395 bound_to 11000

$$$$
