AV-unprocessed.smi:1629|AV-procd|sdf|6524|dock7
  -GOLD-   22720 7203D 1   1.00000     0.00000
 Structure written by MMmdl.
 44 45  0  0  0  0  0  0  0  0  3 V2000
  150.8865  133.2464  156.1680 C   0  0  0  0  0  0  0  0  0  0  0  0
  149.3076  133.7488  156.9605 S   0  0  0  0  0  0  0  0  0  0  0  0
  148.4921  134.3402  155.8874 O   0  0  0  0  0  0  0  0  0  0  0  0
  148.7841  132.5381  157.6134 O   0  0  0  0  0  0  0  0  0  0  0  0
  149.8444  134.8498  158.0232 N   0  5  0  0  0  0  0  0  0  0  0  0
  149.9961  136.2381  157.6124 C   0  0  0  0  0  0  0  0  0  0  0  0
  151.2939  136.4338  156.7819 C   0  0  0  0  0  0  0  0  0  0  0  0
  151.6415  137.9269  156.5282 C   0  0  0  0  0  0  0  0  0  0  0  0
  151.7535  138.6637  157.8064 N   0  0  0  0  0  0  0  0  0  0  0  0
  152.8868  139.1487  158.3718 C   0  0  0  0  0  0  0  0  0  0  0  0
  154.0174  138.8643  157.9733 O   0  0  0  0  0  0  0  0  0  0  0  0
  152.6856  139.9760  159.4115 N   0  0  0  0  0  0  0  0  0  0  0  0
  153.7349  140.6506  160.1661 C   0  0  0  0  0  0  0  0  0  0  0  0
  153.1520  141.6854  161.1436 C   0  0  0  0  0  0  0  0  0  0  0  0
  152.7090  142.9528  160.4399 C   0  0  0  0  0  0  0  0  0  0  0  0
  152.1729  144.0538  161.1427 C   0  0  0  0  0  0  0  0  0  0  0  0
  151.7728  145.2005  160.4252 C   0  0  0  0  0  0  0  0  0  0  0  0
  151.9159  145.2217  159.0223 C   0  0  0  0  0  0  0  0  0  0  0  0
  152.4554  144.0936  158.3713 C   0  0  0  0  0  0  0  0  0  0  0  0
  152.8269  143.0136  159.0938 N   0  3  0  0  0  0  0  0  0  0  0  0
  150.4627  138.6252  158.5188 C   0  0  0  0  0  0  0  0  0  0  0  0
  150.0665  137.1606  158.8580 C   0  0  0  0  0  0  0  0  0  0  0  0
  150.6858  132.4826  155.4174 H   0  0  0  0  0  0  0  0  0  0  0  0
  151.5604  132.8446  156.9239 H   0  0  0  0  0  0  0  0  0  0  0  0
  151.3459  134.1121  155.6920 H   0  0  0  0  0  0  0  0  0  0  0  0
  149.1528  136.5730  157.0071 H   0  0  0  0  0  0  0  0  0  0  0  0
  152.1333  135.9651  157.2981 H   0  0  0  0  0  0  0  0  0  0  0  0
  151.2020  135.9199  155.8248 H   0  0  0  0  0  0  0  0  0  0  0  0
  152.5419  137.9812  155.9170 H   0  0  0  0  0  0  0  0  0  0  0  0
  150.8690  138.4007  155.9184 H   0  0  0  0  0  0  0  0  0  0  0  0
  151.7317  140.1605  159.6864 H   0  0  0  0  0  0  0  0  0  0  0  0
  154.2952  139.8925  160.7139 H   0  0  0  0  0  0  0  0  0  0  0  0
  154.4401  141.1246  159.4812 H   0  0  0  0  0  0  0  0  0  0  0  0
  152.2996  141.2644  161.6783 H   0  0  0  0  0  0  0  0  0  0  0  0
  153.8926  141.9422  161.9026 H   0  0  0  0  0  0  0  0  0  0  0  0
  152.0675  144.0211  162.2176 H   0  0  0  0  0  0  0  0  0  0  0  0
  151.3608  146.0532  160.9448 H   0  0  0  0  0  0  0  0  0  0  0  0
  151.6158  146.0903  158.4545 H   0  0  0  0  0  0  0  0  0  0  0  0
  152.5997  144.0226  157.3030 H   0  0  0  0  0  0  0  0  0  0  0  0
  150.4845  139.2103  159.4389 H   0  0  0  0  0  0  0  0  0  0  0  0
  149.6986  139.1006  157.8999 H   0  0  0  0  0  0  0  0  0  0  0  0
  149.1058  137.1532  159.3744 H   0  0  0  0  0  0  0  0  0  0  0  0
  150.7945  136.7635  159.5674 H   0  0  0  0  0  0  0  0  0  0  0  0
  153.2153  142.2083  158.6022 H   0  0  0  0  0  0  0  0  0  0  0  0
  1  2  1  0  0  0  0
  1 23  1  0  0  0  0
  1 24  1  0  0  0  0
  1 25  1  0  0  0  0
  2  3  2  0  0  0  0
  2  4  2  0  0  0  0
  2  5  1  0  0  0  0
  5  6  1  0  0  0  0
  6 22  1  0  0  0  0
  6  7  1  0  0  0  0
  6 26  1  0  0  0  0
  7  8  1  0  0  0  0
  7 27  1  0  0  0  0
  7 28  1  0  0  0  0
  8  9  1  0  0  0  0
  8 29  1  0  0  0  0
  8 30  1  0  0  0  0
  9 10  1  0  0  0  0
  9 21  1  0  0  0  0
 10 11  2  0  0  0  0
 10 12  1  0  0  0  0
 12 13  1  0  0  0  0
 12 31  1  0  0  0  0
 13 14  1  0  0  0  0
 13 32  1  0  0  0  0
 13 33  1  0  0  0  0
 14 15  1  0  0  0  0
 14 34  1  0  0  0  0
 14 35  1  0  0  0  0
 15 20  1  0  0  0  0
 15 16  2  0  0  0  0
 16 17  1  0  0  0  0
 16 36  1  0  0  0  0
 17 18  2  0  0  0  0
 17 37  1  0  0  0  0
 18 19  1  0  0  0  0
 18 38  1  0  0  0  0
 19 20  2  0  0  0  0
 19 39  1  0  0  0  0
 20 44  1  0  0  0  0
 21 22  1  0  0  0  0
 21 40  1  0  0  0  0
 21 41  1  0  0  0  0
 22 42  1  0  0  0  0
 22 43  1  0  0  0  0
M  CHG  1   5  -1
M  CHG  1  20   1
M  END
> <s_m_source_file>
AV-unprocessed.smi

> <i_m_source_file_index>
1629

> <i_lp_mmshare_version>
43012

> <i_f3d_flags>
0

> <s_epik_input>
W0NIM11TKD1PKSg9TylbTkhdW0NIXTFbQ0gyXVtDSDJdTihbQ0gyXVtDSDJdMSlDKD1PKVtOSF1bQ0gyXVtDSDJdYzJbY0hdW2NIXVtjSF1bY0hdbjI=

> <s_epik_cmdline>
J2VwaWtfcHl0aG9uJywgJy1waCcsICc3LjAnLCAnLXRuJywgJzgnLCAnLW1hJywgJzIwMCcsICctbWV0YWxfYmluZGluZycsICctaW1hZScsICc8aW5maWxlLm1hZT4nLCAnLW9tYWUnLCAnPG91dGZpbGUubWFlPic=

> <r_epik_Ionization_Penalty>
8.25917

> <r_epik_Ionization_Penalty_Charging>
8.2591

> <r_epik_Ionization_Penalty_Neutral>
6.17235e-05

> <r_epik_State_Penalty>
8.35449

> <r_epik_Charging_Adjusted_Penalty>
16.6136

> <i_epik_Tot_Q>
0

> <i_epik_Tot_abs_Q>
2

> <r_epik_Metal_State_Penalty>
4.3175

> <b_epik_Metal_Only>
1

> <s_lp_Force_Field>
OPLS_2005

> <r_lp_Energy>
28.7999

> <b_lp_Chiralities_Consistent>
1

> <s_lp_Variant>
AV-unprocessed.smi:1629-4

> <Gold.Version>
5.8.1

> <Gold.Id.Protein>
6NUR|6NUR_protein|mol2

> <Gold.PLP.Fitness>
49.4212

> <Gold.PLP.PLP>
-41.3292

> <Gold.PLP.part.hbond>
-2.0000

> <Gold.PLP.part.metal>
0.0000

> <Gold.PLP.part.buried>
-6.7152

> <Gold.PLP.part.nonpolar>
-33.3139

> <Gold.PLP.part.repulsive>
0.1818

> <Gold.PLP.ligand.clash>
0.0292

> <Gold.PLP.ligand.torsion>
0.9617

> <Gold.PLP.Chemscore.Hbond>
3.0000

> <Gold.PLP.Chemscore.CHOScore>
0.0000

> <Gold.PLP.Chemscore.Metal>
0.0000

> <Gold.Chemscore.Hbonds>
donor molecule, donor type, donor heavy atom, donor atom, acceptor molecule, acceptor atom, score
      P1  H  6896  6908       L1     5  2.00
      P1  H  7997  8008       L1    11  1.00

> <Gold.PLP.Chemscore.Internal.Correction>
1.0445

> <Gold.Rescore>
     Score         DG    S(hbond)    S(metal)    S(lipo)     H(rot)  DE(clash)    DE(int)     intcor
     18.61     -19.58       1.87        0.00     105.84       1.77       0.01       0.95       ----

> <Gold.Chemscore.Fitness>
18.6079

> <Gold.Chemscore.DG>
-19.5757

> <Gold.Chemscore.ZeroCoef>
-5.4800

> <Gold.Chemscore.Hbond>
1.8663

> <Gold.Chemscore.Metal>
0.0000

> <Gold.Chemscore.Lipo>
105.8414

> <Gold.Chemscore.Internal_Hbond>
0.0000

> <Gold.Chemscore.DEClash>
0.0149

> <Gold.Chemscore.DEInternal>
0.9529

> <Gold.Chemscore.Rot>
1.7661

> <Gold.Chemscore.Internal.Correction>
   9.000000E+99

> <Gold.Chemscore.Hbonds>
donor molecule, donor type, donor heavy atom, donor atom, acceptor molecule, acceptor atom, score
      P1  H  6896  6908       L1     5  0.88
      P1  H  7997  8008       L1    11  0.88

> <Gold.Chemscore.Hbond.Weighted>
-6.2334

> <Gold.Chemscore.Metal.Weighted>
-0.0000

> <Gold.Chemscore.Lipo.Weighted>
-12.3834

> <Gold.Chemscore.Internal_Hbond.Weighted>
0.0000

> <Gold.Chemscore.DEClash.Weighted>
0.0149

> <Gold.Chemscore.DEInternal.Weighted>
0.9529

> <Gold.Chemscore.Rot.Weighted>
4.5211

> <Gold.Chemscore.Internal.Correction.Weighted>
   9.000000E+99

> <Gold.Protein.RotatedTorsions>
[ 6907 6896 6895 6894 ] final  153.42 input  -60.11 | X-H torsion
[ 7974 7965 7964 7962 ] final  -17.90 input  175.53 | X-H torsion
[ 8008 7997 7996 7995 ] final  -95.59 input   59.86 | X-H torsion
[ 10167 10162 10161 10158 ] final   28.61 input  -65.29 | X-H torsion
[ 10718 10713 10712 10709 ] final  132.57 input   66.30 | X-H torsion
[ 10763 10752 10751 10750 ] final  -14.47 input  -60.55 | X-H torsion
[ 11005 11000 10999 10996 ] final    4.12 input  -57.11 | X-H torsion

> <Gold.Protein.ActiveResidues>
 VAL166  LYS551  ARG553  GLY616  TRP617  ASP618  TYR619  PRO620  LYS621  CYS622 
 ASP623  PHE694  ASN695  SER759  ASP760  ASP761  ALA762  ILE779  LEU786  VAL792 
 PHE793  MET794  SER795  GLU796  ALA797  LYS798  CYS799  TRP800  GLU811  SER814 

> <Gold.Protein.RotatedAtoms>
  152.0729  133.4115  159.4466 H   0  0  0  0  0  0  0  0  0  0  0  0  # atno 6907 bound_to 6896
  150.6863  134.3070  159.4739 H   0  0  0  0  0  0  0  0  0  0  0  0  # atno 6908 bound_to 6896
  152.0904  134.9410  160.0622 H   0  0  0  0  0  0  0  0  0  0  0  0  # atno 6909 bound_to 6896
  146.1919  140.3845  142.8455 H   0  0  0  0  0  0  0  0  0  0  0  0  # atno 7974 bound_to 7965
  154.7633  140.0479  157.0991 H   0  0  0  0  0  0  0  0  0  0  0  0  # atno 8008 bound_to 7997
  154.9911  140.3113  155.4886 H   0  0  0  0  0  0  0  0  0  0  0  0  # atno 8009 bound_to 7997
  156.2908  140.2218  156.5016 H   0  0  0  0  0  0  0  0  0  0  0  0  # atno 8010 bound_to 7997
  140.4838  144.0575  150.6274 H   0  0  0  0  0  0  0  0  0  0  0  0  # atno 10167 bound_to 10162
  157.4858  131.1088  150.9622 H   0  0  0  0  0  0  0  0  0  0  0  0  # atno 10718 bound_to 10713
  153.5288  135.7015  153.5694 H   0  0  0  0  0  0  0  0  0  0  0  0  # atno 10763 bound_to 10752
  153.3710  135.3945  155.1788 H   0  0  0  0  0  0  0  0  0  0  0  0  # atno 10764 bound_to 10752
  154.8687  135.3812  154.4783 H   0  0  0  0  0  0  0  0  0  0  0  0  # atno 10765 bound_to 10752
  140.5855  133.9973  155.8066 H   0  0  0  0  0  0  0  0  0  0  0  0  # atno 11005 bound_to 11000
  144.8502  140.6990  143.6173 LP  0  0  0  0  0  0  0  0  0  0  0  0  # atno 17320 bound_to 7965
  145.3767  139.1646  143.4302 LP  0  0  0  0  0  0  0  0  0  0  0  0  # atno 17321 bound_to 7965
  140.3824  143.2795  152.0154 LP  0  0  0  0  0  0  0  0  0  0  0  0  # atno 17342 bound_to 10162
  139.4838  144.6144  151.7374 LP  0  0  0  0  0  0  0  0  0  0  0  0  # atno 17343 bound_to 10162
  157.0340  130.5723  149.5347 LP  0  0  0  0  0  0  0  0  0  0  0  0  # atno 17370 bound_to 10713
  156.0146  130.5239  150.8094 LP  0  0  0  0  0  0  0  0  0  0  0  0  # atno 17371 bound_to 10713
  141.0969  133.9830  157.3145 LP  0  0  0  0  0  0  0  0  0  0  0  0  # atno 17394 bound_to 11000
  139.9298  135.0200  156.8360 LP  0  0  0  0  0  0  0  0  0  0  0  0  # atno 17395 bound_to 11000

$$$$
