AV-unprocessed.smi:40|AV-procd|sdf|375|dock1
  -GOLD-   2262016223D 1   1.00000     0.00000
 Structure written by MMmdl.
 47 48  0  0  0  0  0  0  0  0  1 V2000
  146.7789  133.2149  151.6817 C   0  0  0  0  0  0  0  0  0  0  0  0
  147.0165  132.1388  152.7469 C   0  0  0  0  0  0  0  0  0  0  0  0
  148.4135  132.2306  153.3770 C   0  0  0  0  0  0  0  0  0  0  0  0
  148.6261  133.5397  154.1530 C   0  0  0  0  0  0  0  0  0  0  0  0
  149.9482  133.5611  154.9380 C   0  0  0  0  0  0  0  0  0  0  0  0
  149.8959  134.4974  156.0065 O   0  0  0  0  0  0  0  0  0  0  0  0
  150.5192  135.6930  155.9146 C   0  0  0  0  0  0  0  0  0  0  0  0
  151.3277  135.9899  155.0356 O   0  0  0  0  0  0  0  0  0  0  0  0
  150.1424  136.5573  157.0145 N   0  0  0  0  0  0  0  0  0  0  0  0
  150.5776  137.8174  157.2303 C   0  0  0  0  0  0  0  0  0  0  0  0
  150.4680  138.6787  156.2355 N   0  0  0  0  0  0  0  0  0  0  0  0
  150.8748  139.9845  156.3122 C   0  0  0  0  0  0  0  0  0  0  0  0
  150.7414  140.7407  155.3513 O   0  0  0  0  0  0  0  0  0  0  0  0
  151.4378  140.4181  157.5357 N   0  0  0  0  0  0  0  0  0  0  0  0
  151.9279  141.8424  157.6762 C   0  0  2  0  0  0  0  0  0  0  0  0
  152.6573  141.9255  158.8613 O   0  0  0  0  0  0  0  0  0  0  0  0
  152.3939  143.1743  159.4796 C   0  0  2  0  0  0  0  0  0  0  0  0
  152.6973  143.0925  160.9798 C   0  0  0  0  0  0  0  0  0  0  0  0
  150.9238  143.4424  159.1503 C   0  0  1  0  0  0  0  0  0  0  0  0
  150.6614  144.8312  159.1748 O   0  0  0  0  0  0  0  0  0  0  0  0
  150.7843  142.8832  157.7385 C   0  0  2  0  0  0  0  0  0  0  0  0
  149.4884  142.3500  157.5301 O   0  0  0  0  0  0  0  0  0  0  0  0
  151.5421  139.5335  158.5982 C   0  0  0  0  0  0  0  0  0  0  0  0
  151.1356  138.2501  158.4990 C   0  0  0  0  0  0  0  0  0  0  0  0
  151.2348  137.4216  159.5531 F   0  0  0  0  0  0  0  0  0  0  0  0
  152.6143  142.0326  156.8505 H   0  0  0  0  0  0  0  0  0  0  0  0
  153.0321  143.9221  159.0047 H   0  0  0  0  0  0  0  0  0  0  0  0
  150.2745  142.9113  159.8486 H   0  0  0  0  0  0  0  0  0  0  0  0
  150.9916  143.6477  156.9881 H   0  0  0  0  0  0  0  0  0  0  0  0
  145.7818  133.1212  151.2508 H   0  0  0  0  0  0  0  0  0  0  0  0
  147.5015  133.1315  150.8696 H   0  0  0  0  0  0  0  0  0  0  0  0
  146.8650  134.2155  152.1065 H   0  0  0  0  0  0  0  0  0  0  0  0
  146.2574  132.2304  153.5246 H   0  0  0  0  0  0  0  0  0  0  0  0
  146.8816  131.1541  152.2978 H   0  0  0  0  0  0  0  0  0  0  0  0
  148.5661  131.3837  154.0469 H   0  0  0  0  0  0  0  0  0  0  0  0
  149.1675  132.1437  152.5936 H   0  0  0  0  0  0  0  0  0  0  0  0
  148.5860  134.3882  153.4689 H   0  0  0  0  0  0  0  0  0  0  0  0
  147.8024  133.6765  154.8541 H   0  0  0  0  0  0  0  0  0  0  0  0
  150.1876  132.5645  155.3117 H   0  0  0  0  0  0  0  0  0  0  0  0
  150.7650  133.8444  154.2739 H   0  0  0  0  0  0  0  0  0  0  0  0
  149.4281  136.1857  157.6232 H   0  0  0  0  0  0  0  0  0  0  0  0
  152.4854  144.0412  161.4735 H   0  0  0  0  0  0  0  0  0  0  0  0
  153.7471  142.8540  161.1520 H   0  0  0  0  0  0  0  0  0  0  0  0
  152.0972  142.3214  161.4635 H   0  0  0  0  0  0  0  0  0  0  0  0
  150.5182  145.0950  160.0709 H   0  0  0  0  0  0  0  0  0  0  0  0
  149.0285  142.9108  156.9246 H   0  0  0  0  0  0  0  0  0  0  0  0
  151.9512  139.8738  159.5389 H   0  0  0  0  0  0  0  0  0  0  0  0
  1  2  1  0  0  0  0
  1 30  1  0  0  0  0
  1 31  1  0  0  0  0
  1 32  1  0  0  0  0
  2  3  1  0  0  0  0
  2 33  1  0  0  0  0
  2 34  1  0  0  0  0
  3  4  1  0  0  0  0
  3 35  1  0  0  0  0
  3 36  1  0  0  0  0
  4  5  1  0  0  0  0
  4 37  1  0  0  0  0
  4 38  1  0  0  0  0
  5  6  1  0  0  0  0
  5 39  1  0  0  0  0
  5 40  1  0  0  0  0
  6  7  1  0  0  0  0
  7  8  2  0  0  0  0
  7  9  1  0  0  0  0
  9 10  1  0  0  0  0
  9 41  1  0  0  0  0
 10 24  1  0  0  0  0
 10 11  2  0  0  0  0
 11 12  1  0  0  0  0
 12 13  2  0  0  0  0
 12 14  1  0  0  0  0
 14 15  1  0  0  0  0
 14 23  1  0  0  0  0
 15 26  1  0  0  0  0
 15 21  1  0  0  0  0
 15 16  1  0  0  0  0
 16 17  1  0  0  0  0
 17 27  1  0  0  0  0
 17 18  1  0  0  0  0
 17 19  1  0  0  0  0
 18 42  1  0  0  0  0
 18 43  1  0  0  0  0
 18 44  1  0  0  0  0
 19 28  1  0  0  0  0
 19 20  1  0  0  0  0
 19 21  1  0  0  0  0
 20 45  1  0  0  0  0
 21 29  1  0  0  0  0
 21 22  1  0  0  0  0
 22 46  1  0  0  0  0
 23 24  2  0  0  0  0
 23 47  1  0  0  0  0
 24 25  1  0  0  0  0
M  END
> <s_m_source_file>
AV-unprocessed.smi

> <i_m_source_file_index>
40

> <i_lp_mmshare_version>
43012

> <i_f3d_flags>
0

> <s_epik_input>
W0NIM11bQ0gyXVtDSDJdW0NIMl1bQ0gyXU9DKD1PKVtOSF1jMW5jKD1PKW4oW2NIXWMxRilbQ0BASF0yT1tDQEhdKFtDSDNdKVtDQEBIXShbT0hdKVtDQEhdMltPSF0=

> <s_epik_cmdline>
J2VwaWtfcHl0aG9uJywgJy1waCcsICc3LjAnLCAnLXRuJywgJzgnLCAnLW1hJywgJzIwMCcsICctbWV0YWxfYmluZGluZycsICctaW1hZScsICc8aW5maWxlLm1hZT4nLCAnLW9tYWUnLCAnPG91dGZpbGUubWFlPic=

> <r_lp_tautomer_probability>
1

> <r_epik_Ionization_Penalty>
2.29506e-06

> <r_epik_Ionization_Penalty_Charging>
8.26867e-09

> <r_epik_Ionization_Penalty_Neutral>
2.2868e-06

> <r_epik_State_Penalty>
-0

> <r_epik_Charging_Adjusted_Penalty>
8.26867e-09

> <i_epik_Tot_Q>
0

> <i_epik_Tot_abs_Q>
0

> <r_epik_Metal_State_Penalty>
-0

> <b_epik_Metal_Only>
0

> <s_epik_Chemistry_Notes>
This compound has an ester and may undergo hydrolysis at high or low pH. This compound contains an acetal/aminal-like group ( X-CH(R)-Y where X, Y are N, S, or O) that may be acid/base labile, releasing an aldehyde.

> <s_lp_Force_Field>
OPLS_2005

> <r_lp_Energy>
38.1616

> <b_lp_Chiralities_Consistent>
1

> <s_lp_Variant>
AV-unprocessed.smi:40-9

> <Gold.Version>
5.8.1

> <Gold.Id.Protein>
6NUR|6NUR_protein|mol2

> <Gold.PLP.Fitness>
45.3052

> <Gold.PLP.PLP>
-38.9869

> <Gold.PLP.part.hbond>
-3.0000

> <Gold.PLP.part.metal>
0.0000

> <Gold.PLP.part.buried>
-5.9466

> <Gold.PLP.part.nonpolar>
-30.5679

> <Gold.PLP.part.repulsive>
0.2837

> <Gold.PLP.ligand.clash>
0.0000

> <Gold.PLP.ligand.torsion>
1.2454

> <Gold.PLP.Chemscore.Hbond>
2.8320

> <Gold.PLP.Chemscore.CHOScore>
0.0000

> <Gold.PLP.Chemscore.Metal>
0.0000

> <Gold.Chemscore.Hbonds>
donor molecule, donor type, donor heavy atom, donor atom, acceptor molecule, acceptor atom, score
      L1  H    22    46       P1  8028  0.57
      P1  H  7989  7998       L1    13  0.80
      P1  H 10752 10764       L1     8  1.00

> <Gold.PLP.Chemscore.Internal.Correction>
0.3132

> <Gold.Rescore>
     Score         DG    S(hbond)    S(metal)    S(lipo)     H(rot)  DE(clash)    DE(int)     intcor
     11.43     -14.79       2.77        0.00      81.50       3.70       1.18       2.18       ----

> <Gold.Chemscore.Fitness>
11.4268

> <Gold.Chemscore.DG>
-14.7947

> <Gold.Chemscore.ZeroCoef>
-5.4800

> <Gold.Chemscore.Hbond>
2.7667

> <Gold.Chemscore.Metal>
0.0000

> <Gold.Chemscore.Lipo>
81.4952

> <Gold.Chemscore.Internal_Hbond>
0.0000

> <Gold.Chemscore.DEClash>
1.1832

> <Gold.Chemscore.DEInternal>
2.1847

> <Gold.Chemscore.Rot>
3.6957

> <Gold.Chemscore.Internal.Correction>
   9.000000E+99

> <Gold.Chemscore.Hbonds>
donor molecule, donor type, donor heavy atom, donor atom, acceptor molecule, acceptor atom, score
      L1  H    22    46       P1  8028  0.51
      P1  H  7989  7998       L1    13  0.76
      P1  H 10752 10764       L1     8  1.00

> <Gold.Chemscore.Hbond.Weighted>
-9.2408

> <Gold.Chemscore.Metal.Weighted>
-0.0000

> <Gold.Chemscore.Lipo.Weighted>
-9.5349

> <Gold.Chemscore.Internal_Hbond.Weighted>
0.0000

> <Gold.Chemscore.DEClash.Weighted>
1.1832

> <Gold.Chemscore.DEInternal.Weighted>
2.1847

> <Gold.Chemscore.Rot.Weighted>
9.4610

> <Gold.Chemscore.Internal.Correction.Weighted>
   9.000000E+99

> <Gold.Protein.RotatedTorsions>
[ 6907 6896 6895 6894 ] final  177.32 input  -60.11 | X-H torsion
[ 7974 7965 7964 7962 ] final  -89.35 input  175.53 | X-H torsion
[ 8008 7997 7996 7995 ] final -171.16 input   59.86 | X-H torsion
[ 10167 10162 10161 10158 ] final  -31.08 input  -65.29 | X-H torsion
[ 10718 10713 10712 10709 ] final  136.89 input   66.30 | X-H torsion
[ 10763 10752 10751 10750 ] final  -54.58 input  -60.55 | X-H torsion
[ 11005 11000 10999 10996 ] final  170.90 input  -57.11 | X-H torsion

> <Gold.Protein.ActiveResidues>
 VAL166  LYS551  ARG553  GLY616  TRP617  ASP618  TYR619  PRO620  LYS621  CYS622 
 ASP623  PHE694  ASN695  SER759  ASP760  ASP761  ALA762  ILE779  LEU786  VAL792 
 PHE793  MET794  SER795  GLU796  ALA797  LYS798  CYS799  TRP800  GLU811  SER814 

> <Gold.Protein.RotatedAtoms>
  151.7059  133.3311  159.3278 H   0  0  0  0  0  0  0  0  0  0  0  0  # atno 6907 bound_to 6896
  150.7715  134.6575  159.6331 H   0  0  0  0  0  0  0  0  0  0  0  0  # atno 6908 bound_to 6896
  152.3741  134.6693  160.0218 H   0  0  0  0  0  0  0  0  0  0  0  0  # atno 6909 bound_to 6896
  145.4409  140.9559  143.2075 H   0  0  0  0  0  0  0  0  0  0  0  0  # atno 7974 bound_to 7965
  155.9279  140.1086  157.1155 H   0  0  0  0  0  0  0  0  0  0  0  0  # atno 8008 bound_to 7997
  154.4065  140.1243  156.4830 H   0  0  0  0  0  0  0  0  0  0  0  0  # atno 8009 bound_to 7997
  155.7115  140.3471  155.4978 H   0  0  0  0  0  0  0  0  0  0  0  0  # atno 8010 bound_to 7997
  140.7241  143.3798  151.1621 H   0  0  0  0  0  0  0  0  0  0  0  0  # atno 10167 bound_to 10162
  157.4418  131.1058  151.0134 H   0  0  0  0  0  0  0  0  0  0  0  0  # atno 10718 bound_to 10713
  154.1771  135.6449  153.5024 H   0  0  0  0  0  0  0  0  0  0  0  0  # atno 10763 bound_to 10752
  153.0069  135.5397  154.6552 H   0  0  0  0  0  0  0  0  0  0  0  0  # atno 10764 bound_to 10752
  154.5907  135.2934  155.0611 H   0  0  0  0  0  0  0  0  0  0  0  0  # atno 10765 bound_to 10752
  140.3133  134.7499  157.4008 H   0  0  0  0  0  0  0  0  0  0  0  0  # atno 11005 bound_to 11000
  144.8122  139.5941  143.7024 LP  0  0  0  0  0  0  0  0  0  0  0  0  # atno 17320 bound_to 7965
  146.2557  139.6296  142.9397 LP  0  0  0  0  0  0  0  0  0  0  0  0  # atno 17321 bound_to 7965
  139.7385  143.8961  152.3042 LP  0  0  0  0  0  0  0  0  0  0  0  0  # atno 17342 bound_to 10162
  139.8774  144.7036  150.8917 LP  0  0  0  0  0  0  0  0  0  0  0  0  # atno 17343 bound_to 10162
  157.0994  130.5975  149.5457 LP  0  0  0  0  0  0  0  0  0  0  0  0  # atno 17370 bound_to 10713
  155.9952  130.5018  150.7449 LP  0  0  0  0  0  0  0  0  0  0  0  0  # atno 17371 bound_to 10713
  140.1006  134.5478  155.8357 LP  0  0  0  0  0  0  0  0  0  0  0  0  # atno 17394 bound_to 11000
  141.2103  133.6693  156.6502 LP  0  0  0  0  0  0  0  0  0  0  0  0  # atno 17395 bound_to 11000

$$$$
