AV-unprocessed.smi:148|AV-procd|sdf|1233|dock1
  -GOLD-   2262018443D 1   1.00000     0.00000
 Structure written by MMmdl.
 63 67  0  0  0  0  0  0  0  0  1 V2000
  147.8573  137.1798  161.9567 O   0  0  0  0  0  0  0  0  0  0  0  0
  147.7966  135.7826  162.1539 C   0  0  0  0  0  0  0  0  0  0  0  0
  146.8827  135.1053  161.1036 C   0  0  1  0  0  0  0  0  0  0  0  0
  147.5310  135.0884  159.6945 C   0  0  0  0  0  0  0  0  0  0  0  0
  147.9020  136.4099  159.2186 N   0  0  0  0  0  0  0  0  0  0  0  0
  147.0511  137.4654  158.9772 C   0  0  0  0  0  0  0  0  0  0  0  0
  147.6245  138.5548  158.5421 N   0  0  0  0  0  0  0  0  0  0  0  0
  148.9712  138.2211  158.4759 C   0  0  0  0  0  0  0  0  0  0  0  0
  150.1418  138.9185  158.0790 C   0  0  0  0  0  0  0  0  0  0  0  0
  150.0992  140.2002  157.6464 N   0  0  0  0  0  0  0  0  0  0  0  0
  151.1453  140.9778  158.3111 C   0  0  0  0  0  0  0  0  0  0  0  0
  150.9992  142.4767  158.0238 C   0  0  0  0  0  0  0  0  0  0  0  0
  150.9877  142.7247  156.5131 C   0  0  0  0  0  0  0  0  0  0  0  0
  149.8652  141.9093  155.8586 C   0  0  0  0  0  0  0  0  0  0  0  0
  149.9731  140.3966  156.1890 C   0  0  2  0  0  0  0  0  0  0  0  0
  148.8158  139.5503  155.5687 C   0  0  1  0  0  0  0  0  0  0  0  0
  147.3876  139.9257  156.0112 C   0  0  0  0  0  0  0  0  0  0  0  0
  146.4596  139.5517  154.8436 C   0  0  0  0  0  0  0  0  0  0  0  0
  147.3538  138.9311  153.7656 C   0  0  0  0  0  0  0  0  0  0  0  0
  148.7377  139.5207  154.0352 C   0  0  2  0  0  0  0  0  0  0  0  0
  149.7566  138.7285  153.4614 O   0  0  0  0  0  0  0  0  0  0  0  0
  151.3309  138.2634  158.1542 N   0  0  0  0  0  0  0  0  0  0  0  0
  151.3672  136.9958  158.5765 C   0  0  0  0  0  0  0  0  0  0  0  0
  150.3561  136.2157  158.9665 N   0  0  0  0  0  0  0  0  0  0  0  0
  149.1648  136.8770  158.8988 C   0  0  0  0  0  0  0  0  0  0  0  0
  146.4014  133.7067  161.5856 C   0  0  1  0  0  0  0  0  0  0  0  0
  145.2824  133.0570  160.7916 C   0  0  0  0  0  0  0  0  0  0  0  0
  145.3298  131.6264  161.3192 C   0  0  0  0  0  0  0  0  0  0  0  0
  146.7018  131.3670  161.6043 O   0  0  0  0  0  0  0  0  0  0  0  0
  147.4439  132.5842  161.6098 C   0  0  0  0  0  0  0  0  0  0  0  0
  147.3895  137.3921  161.1633 H   0  0  0  0  0  0  0  0  0  0  0  0
  148.8192  135.4122  162.0893 H   0  0  0  0  0  0  0  0  0  0  0  0
  147.4484  135.5740  163.1657 H   0  0  0  0  0  0  0  0  0  0  0  0
  145.9894  135.7267  161.0211 H   0  0  0  0  0  0  0  0  0  0  0  0
  148.4233  134.4637  159.6850 H   0  0  0  0  0  0  0  0  0  0  0  0
  146.8503  134.6668  158.9567 H   0  0  0  0  0  0  0  0  0  0  0  0
  145.9845  137.4006  159.1354 H   0  0  0  0  0  0  0  0  0  0  0  0
  151.1050  140.8113  159.3889 H   0  0  0  0  0  0  0  0  0  0  0  0
  152.1236  140.6323  157.9725 H   0  0  0  0  0  0  0  0  0  0  0  0
  150.0752  142.8494  158.4678 H   0  0  0  0  0  0  0  0  0  0  0  0
  151.8157  143.0287  158.4896 H   0  0  0  0  0  0  0  0  0  0  0  0
  150.8508  143.7865  156.3063 H   0  0  0  0  0  0  0  0  0  0  0  0
  151.9498  142.4423  156.0837 H   0  0  0  0  0  0  0  0  0  0  0  0
  148.9074  142.3079  156.1912 H   0  0  0  0  0  0  0  0  0  0  0  0
  149.9120  142.0733  154.7832 H   0  0  0  0  0  0  0  0  0  0  0  0
  150.9050  140.0451  155.7436 H   0  0  0  0  0  0  0  0  0  0  0  0
  148.9572  138.5097  155.8652 H   0  0  0  0  0  0  0  0  0  0  0  0
  147.1107  139.3949  156.9224 H   0  0  0  0  0  0  0  0  0  0  0  0
  147.2912  140.9892  156.2251 H   0  0  0  0  0  0  0  0  0  0  0  0
  145.6692  138.8664  155.1511 H   0  0  0  0  0  0  0  0  0  0  0  0
  145.9794  140.4508  154.4556 H   0  0  0  0  0  0  0  0  0  0  0  0
  147.3762  137.8481  153.8972 H   0  0  0  0  0  0  0  0  0  0  0  0
  146.9980  139.1348  152.7550 H   0  0  0  0  0  0  0  0  0  0  0  0
  148.7747  140.5232  153.6116 H   0  0  0  0  0  0  0  0  0  0  0  0
  149.9495  139.0655  152.5998 H   0  0  0  0  0  0  0  0  0  0  0  0
  152.3464  136.5412  158.6056 H   0  0  0  0  0  0  0  0  0  0  0  0
  146.0232  133.8144  162.6036 H   0  0  0  0  0  0  0  0  0  0  0  0
  144.3138  133.5334  160.9454 H   0  0  0  0  0  0  0  0  0  0  0  0
  145.4944  133.0480  159.7235 H   0  0  0  0  0  0  0  0  0  0  0  0
  144.7605  131.5433  162.2458 H   0  0  0  0  0  0  0  0  0  0  0  0
  144.9269  130.9049  160.6082 H   0  0  0  0  0  0  0  0  0  0  0  0
  148.0731  132.5935  160.7209 H   0  0  0  0  0  0  0  0  0  0  0  0
  148.0948  132.6420  162.4826 H   0  0  0  0  0  0  0  0  0  0  0  0
  1  2  1  0  0  0  0
  1 31  1  0  0  0  0
  2  3  1  0  0  0  0
  2 32  1  0  0  0  0
  2 33  1  0  0  0  0
  3  4  1  0  0  0  0
  3 26  1  0  0  0  0
  3 34  1  0  0  0  0
  4  5  1  0  0  0  0
  4 35  1  0  0  0  0
  4 36  1  0  0  0  0
  5 25  1  0  0  0  0
  5  6  1  0  0  0  0
  6  7  2  0  0  0  0
  6 37  1  0  0  0  0
  7  8  1  0  0  0  0
  8 25  2  0  0  0  0
  8  9  1  0  0  0  0
  9 10  1  0  0  0  0
  9 22  2  0  0  0  0
 10 15  1  0  0  0  0
 10 11  1  0  0  0  0
 11 12  1  0  0  0  0
 11 38  1  0  0  0  0
 11 39  1  0  0  0  0
 12 13  1  0  0  0  0
 12 40  1  0  0  0  0
 12 41  1  0  0  0  0
 13 14  1  0  0  0  0
 13 42  1  0  0  0  0
 13 43  1  0  0  0  0
 14 15  1  0  0  0  0
 14 44  1  0  0  0  0
 14 45  1  0  0  0  0
 15 16  1  0  0  0  0
 15 46  1  0  0  0  0
 16 20  1  0  0  0  0
 16 17  1  0  0  0  0
 16 47  1  0  0  0  0
 17 18  1  0  0  0  0
 17 48  1  0  0  0  0
 17 49  1  0  0  0  0
 18 19  1  0  0  0  0
 18 50  1  0  0  0  0
 18 51  1  0  0  0  0
 19 20  1  0  0  0  0
 19 52  1  0  0  0  0
 19 53  1  0  0  0  0
 20 21  1  0  0  0  0
 20 54  1  0  0  0  0
 21 55  1  0  0  0  0
 22 23  1  0  0  0  0
 23 24  2  0  0  0  0
 23 56  1  0  0  0  0
 24 25  1  0  0  0  0
 26 30  1  0  0  0  0
 26 27  1  0  0  0  0
 26 57  1  0  0  0  0
 27 28  1  0  0  0  0
 27 58  1  0  0  0  0
 27 59  1  0  0  0  0
 28 29  1  0  0  0  0
 28 60  1  0  0  0  0
 28 61  1  0  0  0  0
 29 30  1  0  0  0  0
 30 62  1  0  0  0  0
 30 63  1  0  0  0  0
M  END
> <s_m_source_file>
AV-unprocessed.smi

> <i_m_source_file_index>
148

> <i_lp_mmshare_version>
43012

> <i_f3d_flags>
0

> <s_epik_input>
W0NIMl0xT1tDSDJdW0NIMl1bQ0BIXTFbQ0BIXShbQ0gyXVtPSF0pW0NIMl1uKFtjSF1uMiljKGMyMyluW2NIXW5jM040W0NIMl1bQ0gyXVtDSDJdW0NIMl1bQ0BIXTRbQ0BASF01W0NIMl1bQ0gyXVtDSDJdW0NASF01W09IXQ==

> <s_epik_cmdline>
J2VwaWtfcHl0aG9uJywgJy1waCcsICc3LjAnLCAnLXRuJywgJzgnLCAnLW1hJywgJzIwMCcsICctbWV0YWxfYmluZGluZycsICctaW1hZScsICc8aW5maWxlLm1hZT4nLCAnLW9tYWUnLCAnPG91dGZpbGUubWFlPic=

> <r_lp_tautomer_probability>
1

> <r_epik_Ionization_Penalty>
0.00556303

> <r_epik_Ionization_Penalty_Charging>
0

> <r_epik_Ionization_Penalty_Neutral>
0.00556303

> <r_epik_State_Penalty>
0.00401767

> <r_epik_Charging_Adjusted_Penalty>
0.00401767

> <i_epik_Tot_Q>
0

> <i_epik_Tot_abs_Q>
0

> <r_epik_Metal_State_Penalty>
-0

> <b_epik_Metal_Only>
0

> <s_lp_Force_Field>
OPLS_2005

> <r_lp_Energy>
68.5512

> <b_lp_Chiralities_Consistent>
1

> <s_lp_Variant>
AV-unprocessed.smi:148-32

> <Gold.Version>
5.8.1

> <Gold.Id.Protein>
6NUR|6NUR_protein|mol2

> <Gold.PLP.Fitness>
43.7458

> <Gold.PLP.PLP>
-35.8262

> <Gold.PLP.part.hbond>
-5.9886

> <Gold.PLP.part.metal>
0.0000

> <Gold.PLP.part.buried>
-0.5664

> <Gold.PLP.part.nonpolar>
-28.7103

> <Gold.PLP.part.repulsive>
0.0334

> <Gold.PLP.ligand.clash>
0.0000

> <Gold.PLP.ligand.torsion>
0.7790

> <Gold.PLP.Chemscore.Hbond>
3.0000

> <Gold.PLP.Chemscore.CHOScore>
0.0000

> <Gold.PLP.Chemscore.Metal>
0.0000

> <Gold.Chemscore.Hbonds>
donor molecule, donor type, donor heavy atom, donor atom, acceptor molecule, acceptor atom, score
      L1  H    21    55       P1  7957  1.00
      P1  H  6896  6907       L1    24  1.00
      P1  H  6931  6943       L1     1  1.00

> <Gold.PLP.Chemscore.Internal.Correction>
0.4776

> <Gold.Rescore>
     Score         DG    S(hbond)    S(metal)    S(lipo)     H(rot)  DE(clash)    DE(int)     intcor
     11.66     -16.71       2.54        0.00      96.22       3.32       2.58       2.47       ----

> <Gold.Chemscore.Fitness>
11.6594

> <Gold.Chemscore.DG>
-16.7137

> <Gold.Chemscore.ZeroCoef>
-5.4800

> <Gold.Chemscore.Hbond>
2.5378

> <Gold.Chemscore.Metal>
0.0000

> <Gold.Chemscore.Lipo>
96.2177

> <Gold.Chemscore.Internal_Hbond>
0.0000

> <Gold.Chemscore.DEClash>
2.5849

> <Gold.Chemscore.DEInternal>
2.4695

> <Gold.Chemscore.Rot>
3.3203

> <Gold.Chemscore.Internal.Correction>
   9.000000E+99

> <Gold.Chemscore.Hbonds>
donor molecule, donor type, donor heavy atom, donor atom, acceptor molecule, acceptor atom, score
      L1  H    21    55       P1  7957  0.73
      P1  H  6896  6907       L1    24  0.76
      P1  H  6931  6943       L1     1  0.29

> <Gold.Chemscore.Hbond.Weighted>
-8.4763

> <Gold.Chemscore.Metal.Weighted>
-0.0000

> <Gold.Chemscore.Lipo.Weighted>
-11.2575

> <Gold.Chemscore.Internal_Hbond.Weighted>
0.0000

> <Gold.Chemscore.DEClash.Weighted>
2.5849

> <Gold.Chemscore.DEInternal.Weighted>
2.4695

> <Gold.Chemscore.Rot.Weighted>
8.5000

> <Gold.Chemscore.Internal.Correction.Weighted>
   9.000000E+99

> <Gold.Protein.RotatedTorsions>
[ 6907 6896 6895 6894 ] final  -44.87 input  -60.11 | X-H torsion
[ 7974 7965 7964 7962 ] final -126.45 input  175.53 | X-H torsion
[ 8008 7997 7996 7995 ] final -172.38 input   59.86 | X-H torsion
[ 10167 10162 10161 10158 ] final   -5.26 input  -65.29 | X-H torsion
[ 10718 10713 10712 10709 ] final   96.11 input   66.30 | X-H torsion
[ 10763 10752 10751 10750 ] final   44.37 input  -60.55 | X-H torsion
[ 11005 11000 10999 10996 ] final    1.11 input  -57.11 | X-H torsion

> <Gold.Protein.ActiveResidues>
 VAL166  LYS551  ARG553  GLY616  TRP617  ASP618  TYR619  PRO620  LYS621  CYS622 
 ASP623  PHE694  ASN695  SER759  ASP760  ASP761  ALA762  ILE779  LEU786  VAL792 
 PHE793  MET794  SER795  GLU796  ALA797  LYS798  CYS799  TRP800  GLU811  SER814 

> <Gold.Protein.RotatedAtoms>
  150.9281  134.8697  159.7533 H   0  0  0  0  0  0  0  0  0  0  0  0  # atno 6907 bound_to 6896
  152.5025  134.4119  159.9461 H   0  0  0  0  0  0  0  0  0  0  0  0  # atno 6908 bound_to 6896
  151.4148  133.3676  159.2783 H   0  0  0  0  0  0  0  0  0  0  0  0  # atno 6909 bound_to 6896
  144.9871  140.7696  143.4577 H   0  0  0  0  0  0  0  0  0  0  0  0  # atno 7974 bound_to 7965
  155.9438  140.1113  157.1033 H   0  0  0  0  0  0  0  0  0  0  0  0  # atno 8008 bound_to 7997
  154.4095  140.1214  156.5028 H   0  0  0  0  0  0  0  0  0  0  0  0  # atno 8009 bound_to 7997
  155.6928  140.3472  155.4903 H   0  0  0  0  0  0  0  0  0  0  0  0  # atno 8010 bound_to 7997
  140.6957  143.6328  150.8507 H   0  0  0  0  0  0  0  0  0  0  0  0  # atno 10167 bound_to 10162
  157.6931  131.0567  150.4441 H   0  0  0  0  0  0  0  0  0  0  0  0  # atno 10718 bound_to 10713
  152.9842  135.6073  154.3263 H   0  0  0  0  0  0  0  0  0  0  0  0  # atno 10763 bound_to 10752
  154.2969  135.2773  155.2631 H   0  0  0  0  0  0  0  0  0  0  0  0  # atno 10764 bound_to 10752
  154.4901  135.5894  153.6509 H   0  0  0  0  0  0  0  0  0  0  0  0  # atno 10765 bound_to 10752
  140.6190  133.9678  155.8215 H   0  0  0  0  0  0  0  0  0  0  0  0  # atno 11005 bound_to 11000
  145.2338  139.2103  143.5029 LP  0  0  0  0  0  0  0  0  0  0  0  0  # atno 17320 bound_to 7965
  146.3422  140.2220  142.8591 LP  0  0  0  0  0  0  0  0  0  0  0  0  # atno 17321 bound_to 7965
  140.0046  143.5708  152.2862 LP  0  0  0  0  0  0  0  0  0  0  0  0  # atno 17342 bound_to 10162
  139.6409  144.7654  151.2340 LP  0  0  0  0  0  0  0  0  0  0  0  0  # atno 17343 bound_to 10162
  156.4797  130.4071  149.6469 LP  0  0  0  0  0  0  0  0  0  0  0  0  # atno 17370 bound_to 10713
  156.3519  130.7436  151.2397 LP  0  0  0  0  0  0  0  0  0  0  0  0  # atno 17371 bound_to 10713
  141.0755  134.0141  157.3463 LP  0  0  0  0  0  0  0  0  0  0  0  0  # atno 17394 bound_to 11000
  139.9161  135.0197  156.7885 LP  0  0  0  0  0  0  0  0  0  0  0  0  # atno 17395 bound_to 11000

$$$$
