AV-unprocessed.smi:2747|AV-procd|sdf|10578|dock9
  -GOLD-   2272015 33D 1   1.00000     0.00000
 Structure written by MMmdl.
 24 25  0  0  0  0  0  0  0  0  1 V2000
  149.0950  141.1270  153.8889 O   0  0  0  0  0  0  0  0  0  0  0  0
  149.6751  140.6308  155.0813 C   0  0  1  0  0  0  0  0  0  0  0  0
  150.5604  141.7210  155.7183 C   0  0  0  0  0  0  0  0  0  0  0  0
  151.4016  141.2012  156.7816 N   0  0  0  0  0  0  0  0  0  0  0  0
  151.9820  139.9766  156.6361 N   0  0  0  0  0  0  0  0  0  0  0  0
  152.6877  139.7219  157.6972 N   0  0  0  0  0  0  0  0  0  0  0  0
  152.5708  140.7999  158.5587 C   0  0  0  0  0  0  0  0  0  0  0  0
  153.1219  141.0503  159.8351 C   0  0  0  0  0  0  0  0  0  0  0  0
  152.8402  142.2582  160.5103 C   0  0  0  0  0  0  0  0  0  0  0  0
  153.5349  142.5285  162.0690 Cl  0  0  0  0  0  0  0  0  0  0  0  0
  152.0015  143.2310  159.9143 C   0  0  0  0  0  0  0  0  0  0  0  0
  151.6488  144.7153  160.7250 Cl  0  0  0  0  0  0  0  0  0  0  0  0
  151.4434  142.9938  158.6423 C   0  0  0  0  0  0  0  0  0  0  0  0
  151.7361  141.7851  157.9880 C   0  0  0  0  0  0  0  0  0  0  0  0
  148.5593  140.1405  156.0233 C   0  0  0  0  0  0  0  0  0  0  0  0
  147.7133  141.1357  156.2907 F   0  0  0  0  0  0  0  0  0  0  0  0
  147.8725  139.1665  155.4263 F   0  0  0  0  0  0  0  0  0  0  0  0
  149.0674  139.6675  157.1619 F   0  0  0  0  0  0  0  0  0  0  0  0
  149.4548  140.6487  153.1577 H   0  0  0  0  0  0  0  0  0  0  0  0
  150.3002  139.7788  154.8103 H   0  0  0  0  0  0  0  0  0  0  0  0
  151.2007  142.1807  154.9646 H   0  0  0  0  0  0  0  0  0  0  0  0
  149.9423  142.5209  156.1282 H   0  0  0  0  0  0  0  0  0  0  0  0
  153.7632  140.3126  160.2949 H   0  0  0  0  0  0  0  0  0  0  0  0
  150.8030  143.7281  158.1763 H   0  0  0  0  0  0  0  0  0  0  0  0
  1  2  1  0  0  0  0
  1 19  1  0  0  0  0
  2  3  1  0  0  0  0
  2 15  1  0  0  0  0
  2 20  1  0  0  0  0
  3  4  1  0  0  0  0
  3 21  1  0  0  0  0
  3 22  1  0  0  0  0
  4 14  1  0  0  0  0
  4  5  1  0  0  0  0
  5  6  2  0  0  0  0
  6  7  1  0  0  0  0
  7 14  2  0  0  0  0
  7  8  1  0  0  0  0
  8  9  2  0  0  0  0
  8 23  1  0  0  0  0
  9 10  1  0  0  0  0
  9 11  1  0  0  0  0
 11 12  1  0  0  0  0
 11 13  2  0  0  0  0
 13 14  1  0  0  0  0
 13 24  1  0  0  0  0
 15 16  1  0  0  0  0
 15 17  1  0  0  0  0
 15 18  1  0  0  0  0
M  END
> <s_m_source_file>
AV-unprocessed.smi

> <i_m_source_file_index>
2747

> <i_lp_mmshare_version>
43012

> <i_f3d_flags>
0

> <s_epik_input>
RkMoRikoRilbQ0BIXShbT0hdKVtDSDJdbihubjEpYyhjMTIpW2NIXWMoQ2wpYyhDbClbY0hdMg==

> <s_epik_cmdline>
J2VwaWtfcHl0aG9uJywgJy1waCcsICc3LjAnLCAnLXRuJywgJzgnLCAnLW1hJywgJzIwMCcsICctbWV0YWxfYmluZGluZycsICctaW1hZScsICc8aW5maWxlLm1hZT4nLCAnLW9tYWUnLCAnPG91dGZpbGUubWFlPic=

> <r_lp_tautomer_probability>
1

> <r_epik_Ionization_Penalty>
0.0735676

> <r_epik_Ionization_Penalty_Charging>
0

> <r_epik_Ionization_Penalty_Neutral>
0.0735676

> <r_epik_State_Penalty>
0.0647209

> <r_epik_Charging_Adjusted_Penalty>
0.0647209

> <i_epik_Tot_Q>
0

> <i_epik_Tot_abs_Q>
0

> <r_epik_Metal_State_Penalty>
0.0647209

> <b_epik_Metal_Only>
0

> <s_lp_Force_Field>
OPLS_2005

> <r_lp_Energy>
9.1287

> <b_lp_Chiralities_Consistent>
1

> <s_lp_Variant>
AV-unprocessed.smi:2747-2

> <Gold.Version>
5.8.1

> <Gold.Id.Protein>
6NUR|6NUR_protein|mol2

> <Gold.PLP.Fitness>
40.9040

> <Gold.PLP.PLP>
-35.6212

> <Gold.PLP.part.hbond>
-4.2036

> <Gold.PLP.part.metal>
0.0000

> <Gold.PLP.part.buried>
-4.3444

> <Gold.PLP.part.nonpolar>
-25.8024

> <Gold.PLP.part.repulsive>
0.0000

> <Gold.PLP.ligand.clash>
0.0000

> <Gold.PLP.ligand.torsion>
0.3622

> <Gold.PLP.Chemscore.Hbond>
2.0000

> <Gold.PLP.Chemscore.CHOScore>
0.0000

> <Gold.PLP.Chemscore.Metal>
0.0000

> <Gold.Chemscore.Hbonds>
donor molecule, donor type, donor heavy atom, donor atom, acceptor molecule, acceptor atom, score
      L1  H     1    19       P1  7957  0.84
      P1  H  7997  8010       L1     6  0.91

> <Gold.PLP.Chemscore.Internal.Correction>
0.0072

> <Gold.Rescore>
     Score         DG    S(hbond)    S(metal)    S(lipo)     H(rot)  DE(clash)    DE(int)     intcor
     13.79     -16.90       1.59        0.00      94.28       1.92       0.19       2.91       ----

> <Gold.Chemscore.Fitness>
13.7939

> <Gold.Chemscore.DG>
-16.8952

> <Gold.Chemscore.ZeroCoef>
-5.4800

> <Gold.Chemscore.Hbond>
1.5895

> <Gold.Chemscore.Metal>
0.0000

> <Gold.Chemscore.Lipo>
94.2779

> <Gold.Chemscore.Internal_Hbond>
0.0000

> <Gold.Chemscore.DEClash>
0.1896

> <Gold.Chemscore.DEInternal>
2.9116

> <Gold.Chemscore.Rot>
1.9235

> <Gold.Chemscore.Internal.Correction>
   9.000000E+99

> <Gold.Chemscore.Hbonds>
donor molecule, donor type, donor heavy atom, donor atom, acceptor molecule, acceptor atom, score
      L1  H     1    19       P1  7957  0.83
      P1  H  7997  8010       L1     6  0.07

> <Gold.Chemscore.Hbond.Weighted>
-5.3089

> <Gold.Chemscore.Metal.Weighted>
-0.0000

> <Gold.Chemscore.Lipo.Weighted>
-11.0305

> <Gold.Chemscore.Internal_Hbond.Weighted>
0.0000

> <Gold.Chemscore.DEClash.Weighted>
0.1896

> <Gold.Chemscore.DEInternal.Weighted>
2.9116

> <Gold.Chemscore.Rot.Weighted>
4.9242

> <Gold.Chemscore.Internal.Correction.Weighted>
   9.000000E+99

> <Gold.Protein.RotatedTorsions>
[ 6907 6896 6895 6894 ] final  -75.85 input  -60.11 | X-H torsion
[ 7974 7965 7964 7962 ] final  140.03 input  175.53 | X-H torsion
[ 8008 7997 7996 7995 ] final   33.09 input   59.86 | X-H torsion
[ 10167 10162 10161 10158 ] final  -39.73 input  -65.29 | X-H torsion
[ 10718 10713 10712 10709 ] final   59.12 input   66.30 | X-H torsion
[ 10763 10752 10751 10750 ] final -159.27 input  -60.55 | X-H torsion
[ 11005 11000 10999 10996 ] final  120.49 input  -57.11 | X-H torsion

> <Gold.Protein.ActiveResidues>
 VAL166  LYS551  ARG553  GLY616  TRP617  ASP618  TYR619  PRO620  LYS621  CYS622 
 ASP623  PHE694  ASN695  SER759  ASP760  ASP761  ALA762  ILE779  LEU786  VAL792 
 PHE793  MET794  SER795  GLU796  ALA797  LYS798  CYS799  TRP800  GLU811  SER814 

> <Gold.Protein.RotatedAtoms>
  150.7046  134.4660  159.5402 H   0  0  0  0  0  0  0  0  0  0  0  0  # atno 6907 bound_to 6896
  152.2325  134.8305  160.0481 H   0  0  0  0  0  0  0  0  0  0  0  0  # atno 6908 bound_to 6896
  151.9116  133.3527  159.3902 H   0  0  0  0  0  0  0  0  0  0  0  0  # atno 6909 bound_to 6896
  144.9224  139.5151  143.5657 H   0  0  0  0  0  0  0  0  0  0  0  0  # atno 7974 bound_to 7965
  155.1330  140.3259  155.4470 H   0  0  0  0  0  0  0  0  0  0  0  0  # atno 8008 bound_to 7997
  156.2628  140.2007  156.6397 H   0  0  0  0  0  0  0  0  0  0  0  0  # atno 8009 bound_to 7997
  154.6599  140.0548  157.0037 H   0  0  0  0  0  0  0  0  0  0  0  0  # atno 8010 bound_to 7997
  140.7055  143.3196  151.2824 H   0  0  0  0  0  0  0  0  0  0  0  0  # atno 10167 bound_to 10162
  157.5650  130.8864  149.9173 H   0  0  0  0  0  0  0  0  0  0  0  0  # atno 10718 bound_to 10713
  154.7488  135.3087  154.8595 H   0  0  0  0  0  0  0  0  0  0  0  0  # atno 10763 bound_to 10752
  153.9388  135.6777  153.4748 H   0  0  0  0  0  0  0  0  0  0  0  0  # atno 10764 bound_to 10752
  153.1085  135.4878  154.8920 H   0  0  0  0  0  0  0  0  0  0  0  0  # atno 10765 bound_to 10752
  139.9187  134.9635  156.7814 H   0  0  0  0  0  0  0  0  0  0  0  0  # atno 11005 bound_to 11000
  146.3210  139.8113  142.8945 LP  0  0  0  0  0  0  0  0  0  0  0  0  # atno 17320 bound_to 7965
  145.3275  141.0259  143.3465 LP  0  0  0  0  0  0  0  0  0  0  0  0  # atno 17321 bound_to 7965
  139.6646  144.0129  152.2714 LP  0  0  0  0  0  0  0  0  0  0  0  0  # atno 17342 bound_to 10162
  139.9707  144.6495  150.7992 LP  0  0  0  0  0  0  0  0  0  0  0  0  # atno 17343 bound_to 10162
  156.0699  130.3686  150.0797 LP  0  0  0  0  0  0  0  0  0  0  0  0  # atno 17370 bound_to 10713
  156.8957  130.9603  151.3583 LP  0  0  0  0  0  0  0  0  0  0  0  0  # atno 17371 bound_to 10713
  140.6541  133.9705  155.7770 LP  0  0  0  0  0  0  0  0  0  0  0  0  # atno 17394 bound_to 11000
  141.0688  134.0236  157.3555 LP  0  0  0  0  0  0  0  0  0  0  0  0  # atno 17395 bound_to 11000

$$$$
