AV-unprocessed.smi:1410|AV-procd|sdf|5733|dock4
  -GOLD-   22720 5363D 1   1.00000     0.00000
 Structure written by MMmdl.
 41 42  0  0  0  0  0  0  0  0  3 V2000
  142.5485  133.0929  147.4503 N   0  0  0  0  0  0  0  0  0  0  0  0
  143.7146  132.8210  148.0404 C   0  0  0  0  0  0  0  0  0  0  0  0
  144.7486  132.6459  147.3984 O   0  0  0  0  0  0  0  0  0  0  0  0
  143.7159  132.7538  149.5713 C   0  0  0  0  0  0  0  0  0  0  0  0
  144.6996  133.6768  150.1939 N   0  3  2  0  0  0  0  0  0  0  0  0
  144.7150  133.5977  151.6795 C   0  0  0  0  0  0  0  0  0  0  0  0
  145.8416  134.4625  152.2681 C   0  0  0  0  0  0  0  0  0  0  0  0
  145.7115  135.9245  151.8127 C   0  0  1  0  0  0  0  0  0  0  0  0
  146.8362  136.7056  152.3197 N   0  0  0  0  0  0  0  0  0  0  0  0
  146.7326  137.8702  152.9766 C   0  0  0  0  0  0  0  0  0  0  0  0
  145.6576  138.4214  153.2114 O   0  0  0  0  0  0  0  0  0  0  0  0
  147.9425  138.3496  153.3141 N   0  0  0  0  0  0  0  0  0  0  0  0
  148.2589  139.5245  154.0500 C   0  0  0  0  0  0  0  0  0  0  0  0
  147.3116  140.5725  154.0441 C   0  0  0  0  0  0  0  0  0  0  0  0
  147.5889  141.7658  154.7419 C   0  0  0  0  0  0  0  0  0  0  0  0
  148.7585  141.9021  155.4023 N   0  3  0  0  0  0  0  0  0  0  0  0
  149.7001  140.9345  155.4263 C   0  0  0  0  0  0  0  0  0  0  0  0
  149.4791  139.7191  154.7468 C   0  0  0  0  0  0  0  0  0  0  0  0
  145.6541  135.9819  150.2752 C   0  0  0  0  0  0  0  0  0  0  0  0
  144.5388  135.0769  149.7243 C   0  0  0  0  0  0  0  0  0  0  0  0
  142.4989  133.1503  146.4429 H   0  0  0  0  0  0  0  0  0  0  0  0
  141.7195  133.2436  148.0069 H   0  0  0  0  0  0  0  0  0  0  0  0
  142.7088  133.0200  149.8947 H   0  0  0  0  0  0  0  0  0  0  0  0
  143.8947  131.7319  149.9107 H   0  0  0  0  0  0  0  0  0  0  0  0
  143.7499  133.9216  152.0727 H   0  0  0  0  0  0  0  0  0  0  0  0
  144.8536  132.5653  152.0012 H   0  0  0  0  0  0  0  0  0  0  0  0
  145.8175  134.4057  153.3570 H   0  0  0  0  0  0  0  0  0  0  0  0
  146.8068  134.0587  151.9578 H   0  0  0  0  0  0  0  0  0  0  0  0
  144.7810  136.3261  152.2194 H   0  0  0  0  0  0  0  0  0  0  0  0
  147.7596  136.3276  152.1636 H   0  0  0  0  0  0  0  0  0  0  0  0
  148.7362  137.8292  152.9700 H   0  0  0  0  0  0  0  0  0  0  0  0
  146.3760  140.4659  153.5139 H   0  0  0  0  0  0  0  0  0  0  0  0
  146.9158  142.6096  154.7889 H   0  0  0  0  0  0  0  0  0  0  0  0
  150.5997  141.1628  155.9790 H   0  0  0  0  0  0  0  0  0  0  0  0
  150.2549  138.9692  154.7642 H   0  0  0  0  0  0  0  0  0  0  0  0
  145.4900  137.0074  149.9415 H   0  0  0  0  0  0  0  0  0  0  0  0
  146.6124  135.6706  149.8563 H   0  0  0  0  0  0  0  0  0  0  0  0
  144.5641  135.1053  148.6344 H   0  0  0  0  0  0  0  0  0  0  0  0
  143.5615  135.4546  150.0294 H   0  0  0  0  0  0  0  0  0  0  0  0
  145.6081  133.3722  149.8734 H   0  0  0  0  0  0  0  0  0  0  0  0
  148.9409  142.7742  155.8998 H   0  0  0  0  0  0  0  0  0  0  0  0
  1  2  1  0  0  0  0
  1 21  1  0  0  0  0
  1 22  1  0  0  0  0
  2  3  2  0  0  0  0
  2  4  1  0  0  0  0
  4  5  1  0  0  0  0
  4 23  1  0  0  0  0
  4 24  1  0  0  0  0
  5 20  1  0  0  0  0
  5  6  1  0  0  0  0
  5 40  1  0  0  0  0
  6  7  1  0  0  0  0
  6 25  1  0  0  0  0
  6 26  1  0  0  0  0
  7  8  1  0  0  0  0
  7 27  1  0  0  0  0
  7 28  1  0  0  0  0
  8  9  1  0  0  0  0
  8 19  1  0  0  0  0
  8 29  1  0  0  0  0
  9 10  1  0  0  0  0
  9 30  1  0  0  0  0
 10 11  2  0  0  0  0
 10 12  1  0  0  0  0
 12 13  1  0  0  0  0
 12 31  1  0  0  0  0
 13 18  1  0  0  0  0
 13 14  2  0  0  0  0
 14 15  1  0  0  0  0
 14 32  1  0  0  0  0
 15 16  2  0  0  0  0
 15 33  1  0  0  0  0
 16 17  1  0  0  0  0
 16 41  1  0  0  0  0
 17 18  2  0  0  0  0
 17 34  1  0  0  0  0
 18 35  1  0  0  0  0
 19 20  1  0  0  0  0
 19 36  1  0  0  0  0
 19 37  1  0  0  0  0
 20 38  1  0  0  0  0
 20 39  1  0  0  0  0
M  CHG  1   5   1
M  CHG  1  16   1
M  END
> <s_m_source_file>
AV-unprocessed.smi

> <i_m_source_file_index>
1410

> <i_lp_mmshare_version>
43012

> <i_f3d_flags>
0

> <s_epik_input>
W05IMl1DKD1PKVtDSDJdTjFbQ0gyXVtDSDJdW0NIXShbQ0gyXVtDSDJdMSlbTkhdQyg9TylbTkhdYzJbY0hdW2NIXW5bY0hdW2NIXTI=

> <s_epik_cmdline>
J2VwaWtfcHl0aG9uJywgJy1waCcsICc3LjAnLCAnLXRuJywgJzgnLCAnLW1hJywgJzIwMCcsICctbWV0YWxfYmluZGluZycsICctaW1hZScsICc8aW5maWxlLm1hZT4nLCAnLW9tYWUnLCAnPG91dGZpbGUubWFlPic=

> <r_epik_Ionization_Penalty>
1.97414

> <r_epik_Ionization_Penalty_Charging>
1.97408

> <r_epik_Ionization_Penalty_Neutral>
5.94508e-05

> <r_epik_State_Penalty>
2.00676

> <r_epik_Charging_Adjusted_Penalty>
3.98084

> <i_epik_Tot_Q>
2

> <i_epik_Tot_abs_Q>
2

> <r_epik_Metal_State_Penalty>
2.12108

> <b_epik_Metal_Only>
0

> <s_lp_Force_Field>
OPLS_2005

> <r_lp_Energy>
24.418

> <b_lp_Chiralities_Consistent>
1

> <s_lp_Variant>
AV-unprocessed.smi:1410-5

> <Gold.Version>
5.8.1

> <Gold.Id.Protein>
6NUR|6NUR_protein|mol2

> <Gold.PLP.Fitness>
51.1786

> <Gold.PLP.PLP>
-36.1521

> <Gold.PLP.part.hbond>
-7.8425

> <Gold.PLP.part.metal>
0.0000

> <Gold.PLP.part.buried>
-1.4497

> <Gold.PLP.part.nonpolar>
-30.5091

> <Gold.PLP.part.repulsive>
2.8722

> <Gold.PLP.ligand.clash>
0.0000

> <Gold.PLP.ligand.torsion>
0.2542

> <Gold.PLP.Chemscore.Hbond>
5.1718

> <Gold.PLP.Chemscore.CHOScore>
0.0000

> <Gold.PLP.Chemscore.Metal>
0.0000

> <Gold.Chemscore.Hbonds>
donor molecule, donor type, donor heavy atom, donor atom, acceptor molecule, acceptor atom, score
      L1  H     1    21       P1 10195  0.03
      L1  H     1    22       P1 10186  0.85
      L1  H     9    30       P1  7948  0.23
      L1  H    12    31       P1  7948  0.70
      L1  H    16    41       P1  8028  1.63
      P1  H  7918  7932       L1     3  0.07

> <Gold.PLP.Chemscore.Internal.Correction>
0.0195

> <Gold.Rescore>
     Score         DG    S(hbond)    S(metal)    S(lipo)     H(rot)  DE(clash)    DE(int)     intcor
     19.34     -22.33       4.16        0.00      68.73       1.99       1.51       1.48       ----

> <Gold.Chemscore.Fitness>
19.3373

> <Gold.Chemscore.DG>
-22.3252

> <Gold.Chemscore.ZeroCoef>
-5.4800

> <Gold.Chemscore.Hbond>
4.1607

> <Gold.Chemscore.Metal>
0.0000

> <Gold.Chemscore.Lipo>
68.7278

> <Gold.Chemscore.Internal_Hbond>
0.0000

> <Gold.Chemscore.DEClash>
1.5067

> <Gold.Chemscore.DEInternal>
1.4812

> <Gold.Chemscore.Rot>
1.9894

> <Gold.Chemscore.Internal.Correction>
   9.000000E+99

> <Gold.Chemscore.Hbonds>
donor molecule, donor type, donor heavy atom, donor atom, acceptor molecule, acceptor atom, score
      L1  H     1    21       P1 10195  0.08
      L1  H     1    22       P1 10186  0.78
      L1  H     9    30       P1  7948  0.23
      L1  H    12    31       P1  7948  0.71
      L1  H    16    41       P1  8028  0.80
      P1  H  7918  7932       L1     3  0.09

> <Gold.Chemscore.Hbond.Weighted>
-13.8968

> <Gold.Chemscore.Metal.Weighted>
-0.0000

> <Gold.Chemscore.Lipo.Weighted>
-8.0411

> <Gold.Chemscore.Internal_Hbond.Weighted>
0.0000

> <Gold.Chemscore.DEClash.Weighted>
1.5067

> <Gold.Chemscore.DEInternal.Weighted>
1.4812

> <Gold.Chemscore.Rot.Weighted>
5.0927

> <Gold.Chemscore.Internal.Correction.Weighted>
   9.000000E+99

> <Gold.Protein.RotatedTorsions>
[ 6907 6896 6895 6894 ] final  -23.18 input  -60.11 | X-H torsion
[ 7974 7965 7964 7962 ] final   88.01 input  175.53 | X-H torsion
[ 8008 7997 7996 7995 ] final -126.86 input   59.86 | X-H torsion
[ 10167 10162 10161 10158 ] final -153.13 input  -65.29 | X-H torsion
[ 10718 10713 10712 10709 ] final   69.83 input   66.30 | X-H torsion
[ 10763 10752 10751 10750 ] final  158.10 input  -60.55 | X-H torsion
[ 11005 11000 10999 10996 ] final  137.57 input  -57.11 | X-H torsion

> <Gold.Protein.ActiveResidues>
 VAL166  LYS551  ARG553  GLY616  TRP617  ASP618  TYR619  PRO620  LYS621  CYS622 
 ASP623  PHE694  ASN695  SER759  ASP760  ASP761  ALA762  ILE779  LEU786  VAL792 
 PHE793  MET794  SER795  GLU796  ALA797  LYS798  CYS799  TRP800  GLU811  SER814 

> <Gold.Protein.RotatedAtoms>
  151.2077  135.0468  159.8898 H   0  0  0  0  0  0  0  0  0  0  0  0  # atno 6907 bound_to 6896
  152.5427  134.0779  159.8233 H   0  0  0  0  0  0  0  0  0  0  0  0  # atno 6908 bound_to 6896
  151.0928  133.5255  159.2646 H   0  0  0  0  0  0  0  0  0  0  0  0  # atno 6909 bound_to 6896
  145.5514  139.2296  143.2510 H   0  0  0  0  0  0  0  0  0  0  0  0  # atno 7974 bound_to 7965
  155.2367  140.0427  157.2969 H   0  0  0  0  0  0  0  0  0  0  0  0  # atno 8008 bound_to 7997
  154.5854  140.2412  155.7965 H   0  0  0  0  0  0  0  0  0  0  0  0  # atno 8009 bound_to 7997
  156.2222  140.2966  155.9989 H   0  0  0  0  0  0  0  0  0  0  0  0  # atno 8010 bound_to 7997
  139.7123  143.9089  152.2473 H   0  0  0  0  0  0  0  0  0  0  0  0  # atno 10167 bound_to 10162
  157.6367  130.9446  150.0567 H   0  0  0  0  0  0  0  0  0  0  0  0  # atno 10718 bound_to 10713
  154.2106  135.2786  155.2959 H   0  0  0  0  0  0  0  0  0  0  0  0  # atno 10763 bound_to 10752
  154.5781  135.5598  153.7162 H   0  0  0  0  0  0  0  0  0  0  0  0  # atno 10764 bound_to 10752
  153.0065  135.6338  154.2245 H   0  0  0  0  0  0  0  0  0  0  0  0  # atno 10765 bound_to 10752
  140.0123  134.9433  157.0304 H   0  0  0  0  0  0  0  0  0  0  0  0  # atno 11005 bound_to 11000
  146.1914  140.6337  142.9144 LP  0  0  0  0  0  0  0  0  0  0  0  0  # atno 17320 bound_to 7965
  144.7527  140.5232  143.6790 LP  0  0  0  0  0  0  0  0  0  0  0  0  # atno 17321 bound_to 7965
  139.8961  144.6938  150.8716 LP  0  0  0  0  0  0  0  0  0  0  0  0  # atno 17342 bound_to 10162
  140.7736  143.3549  151.1941 LP  0  0  0  0  0  0  0  0  0  0  0  0  # atno 17343 bound_to 10162
  156.1612  130.3644  149.9296 LP  0  0  0  0  0  0  0  0  0  0  0  0  # atno 17370 bound_to 10713
  156.7294  130.9037  151.3624 LP  0  0  0  0  0  0  0  0  0  0  0  0  # atno 17371 bound_to 10713
  140.4532  134.1561  155.7183 LP  0  0  0  0  0  0  0  0  0  0  0  0  # atno 17394 bound_to 11000
  141.1719  133.8591  157.1542 LP  0  0  0  0  0  0  0  0  0  0  0  0  # atno 17395 bound_to 11000

$$$$
