AV-unprocessed.smi:486|AV-procd|sdf|2696|dock7
  -GOLD-   2262023133D 1   1.00000     0.00000
 Structure written by MMmdl.
 43 45  0  0  0  0  0  0  0  0  1 V2000
  142.6253  146.8998  155.0106 C   0  0  0  0  0  0  0  0  0  0  0  0
  143.2781  146.4441  153.8346 O   0  0  0  0  0  0  0  0  0  0  0  0
  144.2142  145.4401  153.9600 C   0  0  0  0  0  0  0  0  0  0  0  0
  144.9302  145.0819  152.8010 C   0  0  0  0  0  0  0  0  0  0  0  0
  145.9042  144.0666  152.8407 C   0  0  0  0  0  0  0  0  0  0  0  0
  146.1868  143.3850  154.0403 C   0  0  0  0  0  0  0  0  0  0  0  0
  147.1545  142.4045  153.9903 O   0  0  0  0  0  0  0  0  0  0  0  0
  147.3626  141.6064  155.1479 C   0  0  0  0  0  0  0  0  0  0  0  0
  148.7320  140.9118  155.0336 C   0  0  1  0  0  0  0  0  0  0  0  0
  148.8514  140.3795  153.7309 O   0  0  0  0  0  0  0  0  0  0  0  0
  149.9363  141.8540  155.2454 C   0  0  0  0  0  0  0  0  0  0  0  0
  150.8681  141.3817  156.2605 N   0  0  0  0  0  0  0  0  0  0  0  0
  151.5103  140.1888  156.3130 C   0  0  0  0  0  0  0  0  0  0  0  0
  151.3285  139.1455  155.2565 C   0  0  0  0  0  0  0  0  0  0  0  0
  152.3138  140.0062  157.3609 N   0  0  0  0  0  0  0  0  0  0  0  0
  152.1858  141.1956  158.0520 C   0  0  0  0  0  0  0  0  0  0  0  0
  152.7843  141.6265  159.2576 C   0  0  0  0  0  0  0  0  0  0  0  0
  152.4953  142.9035  159.7816 C   0  0  0  0  0  0  0  0  0  0  0  0
  151.6078  143.7676  159.1082 C   0  0  0  0  0  0  0  0  0  0  0  0
  151.0014  143.3586  157.9050 C   0  0  0  0  0  0  0  0  0  0  0  0
  151.2912  142.0816  157.3873 C   0  0  0  0  0  0  0  0  0  0  0  0
  145.4692  143.7412  155.2089 C   0  0  0  0  0  0  0  0  0  0  0  0
  144.4941  144.7571  155.1692 C   0  0  0  0  0  0  0  0  0  0  0  0
  141.9181  147.6862  154.7470 H   0  0  0  0  0  0  0  0  0  0  0  0
  143.3358  147.3207  155.7233 H   0  0  0  0  0  0  0  0  0  0  0  0
  142.0625  146.0986  155.4913 H   0  0  0  0  0  0  0  0  0  0  0  0
  144.7308  145.5916  151.8697 H   0  0  0  0  0  0  0  0  0  0  0  0
  146.4407  143.8088  151.9394 H   0  0  0  0  0  0  0  0  0  0  0  0
  147.3033  142.1991  156.0626 H   0  0  0  0  0  0  0  0  0  0  0  0
  146.5693  140.8602  155.1796 H   0  0  0  0  0  0  0  0  0  0  0  0
  148.7845  140.0921  155.7501 H   0  0  0  0  0  0  0  0  0  0  0  0
  149.6969  140.6241  153.3861 H   0  0  0  0  0  0  0  0  0  0  0  0
  150.4799  141.9893  154.3099 H   0  0  0  0  0  0  0  0  0  0  0  0
  149.5881  142.8466  155.5348 H   0  0  0  0  0  0  0  0  0  0  0  0
  151.9448  138.2722  155.4724 H   0  0  0  0  0  0  0  0  0  0  0  0
  151.6218  139.5371  154.2824 H   0  0  0  0  0  0  0  0  0  0  0  0
  150.2880  138.8253  155.2123 H   0  0  0  0  0  0  0  0  0  0  0  0
  153.4661  140.9722  159.7806 H   0  0  0  0  0  0  0  0  0  0  0  0
  152.9566  143.2214  160.7051 H   0  0  0  0  0  0  0  0  0  0  0  0
  151.3919  144.7443  159.5164 H   0  0  0  0  0  0  0  0  0  0  0  0
  150.3183  144.0169  157.3894 H   0  0  0  0  0  0  0  0  0  0  0  0
  145.6465  143.2489  156.1528 H   0  0  0  0  0  0  0  0  0  0  0  0
  143.9728  144.9936  156.0842 H   0  0  0  0  0  0  0  0  0  0  0  0
  1  2  1  0  0  0  0
  1 24  1  0  0  0  0
  1 25  1  0  0  0  0
  1 26  1  0  0  0  0
  2  3  1  0  0  0  0
  3 23  1  0  0  0  0
  3  4  2  0  0  0  0
  4  5  1  0  0  0  0
  4 27  1  0  0  0  0
  5  6  2  0  0  0  0
  5 28  1  0  0  0  0
  6  7  1  0  0  0  0
  6 22  1  0  0  0  0
  7  8  1  0  0  0  0
  8  9  1  0  0  0  0
  8 29  1  0  0  0  0
  8 30  1  0  0  0  0
  9 10  1  0  0  0  0
  9 11  1  0  0  0  0
  9 31  1  0  0  0  0
 10 32  1  0  0  0  0
 11 12  1  0  0  0  0
 11 33  1  0  0  0  0
 11 34  1  0  0  0  0
 12 21  1  0  0  0  0
 12 13  1  0  0  0  0
 13 14  1  0  0  0  0
 13 15  2  0  0  0  0
 14 35  1  0  0  0  0
 14 36  1  0  0  0  0
 14 37  1  0  0  0  0
 15 16  1  0  0  0  0
 16 21  2  0  0  0  0
 16 17  1  0  0  0  0
 17 18  2  0  0  0  0
 17 38  1  0  0  0  0
 18 19  1  0  0  0  0
 18 39  1  0  0  0  0
 19 20  2  0  0  0  0
 19 40  1  0  0  0  0
 20 21  1  0  0  0  0
 20 41  1  0  0  0  0
 22 23  2  0  0  0  0
 22 42  1  0  0  0  0
 23 43  1  0  0  0  0
M  END
> <s_m_source_file>
AV-unprocessed.smi

> <i_m_source_file_index>
486

> <i_lp_mmshare_version>
43012

> <i_f3d_flags>
0

> <s_epik_input>
W0NIM11PYzFbY0hdW2NIXWMoW2NIXVtjSF0xKU9bQ0gyXVtDQEhdKFtPSF0pW0NIMl1uKGMobjIpW0NIM10pYyhjMjMpW2NIXVtjSF1bY0hdW2NIXTM=

> <s_epik_cmdline>
J2VwaWtfcHl0aG9uJywgJy1waCcsICc3LjAnLCAnLXRuJywgJzgnLCAnLW1hJywgJzIwMCcsICctbWV0YWxfYmluZGluZycsICctaW1hZScsICc8aW5maWxlLm1hZT4nLCAnLW9tYWUnLCAnPG91dGZpbGUubWFlPic=

> <r_lp_tautomer_probability>
1

> <r_epik_Ionization_Penalty>
0.114052

> <r_epik_Ionization_Penalty_Charging>
0

> <r_epik_Ionization_Penalty_Neutral>
0.114052

> <r_epik_State_Penalty>
0.103717

> <r_epik_Charging_Adjusted_Penalty>
0.103717

> <i_epik_Tot_Q>
0

> <i_epik_Tot_abs_Q>
0

> <r_epik_Metal_State_Penalty>
0.000113338

> <b_epik_Metal_Only>
0

> <s_lp_Force_Field>
OPLS_2005

> <r_lp_Energy>
20.3049

> <b_lp_Chiralities_Consistent>
1

> <s_lp_Variant>
AV-unprocessed.smi:486-2

> <Gold.Version>
5.8.1

> <Gold.Id.Protein>
6NUR|6NUR_protein|mol2

> <Gold.PLP.Fitness>
50.7665

> <Gold.PLP.PLP>
-49.6070

> <Gold.PLP.part.hbond>
-2.0000

> <Gold.PLP.part.metal>
0.0000

> <Gold.PLP.part.buried>
-5.5883

> <Gold.PLP.part.nonpolar>
-42.3523

> <Gold.PLP.part.repulsive>
0.2065

> <Gold.PLP.ligand.clash>
0.0000

> <Gold.PLP.ligand.torsion>
0.9862

> <Gold.PLP.Chemscore.Hbond>
1.0183

> <Gold.PLP.Chemscore.CHOScore>
0.0000

> <Gold.PLP.Chemscore.Metal>
0.0000

> <Gold.Chemscore.Hbonds>
donor molecule, donor type, donor heavy atom, donor atom, acceptor molecule, acceptor atom, score
      L1  H    10    32       P1  7957  0.03
      P1  H  7997  8008       L1    15  0.62

> <Gold.PLP.Chemscore.Internal.Correction>
0.0769

> <Gold.Rescore>
     Score         DG    S(hbond)    S(metal)    S(lipo)     H(rot)  DE(clash)    DE(int)     intcor
     15.11     -16.56       0.52        0.00     130.10       2.30       0.52       0.93       ----

> <Gold.Chemscore.Fitness>
15.1149

> <Gold.Chemscore.DG>
-16.5602

> <Gold.Chemscore.ZeroCoef>
-5.4800

> <Gold.Chemscore.Hbond>
0.5247

> <Gold.Chemscore.Metal>
0.0000

> <Gold.Chemscore.Lipo>
130.1005

> <Gold.Chemscore.Internal_Hbond>
0.0000

> <Gold.Chemscore.DEClash>
0.5157

> <Gold.Chemscore.DEInternal>
0.9296

> <Gold.Chemscore.Rot>
2.3023

> <Gold.Chemscore.Internal.Correction>
   9.000000E+99

> <Gold.Chemscore.Hbonds>
donor molecule, donor type, donor heavy atom, donor atom, acceptor molecule, acceptor atom, score
      L1  H    10    32       P1  7957  0.04
      P1  H  7997  8008       L1    15  0.15

> <Gold.Chemscore.Hbond.Weighted>
-1.7525

> <Gold.Chemscore.Metal.Weighted>
-0.0000

> <Gold.Chemscore.Lipo.Weighted>
-15.2218

> <Gold.Chemscore.Internal_Hbond.Weighted>
0.0000

> <Gold.Chemscore.DEClash.Weighted>
0.5157

> <Gold.Chemscore.DEInternal.Weighted>
0.9296

> <Gold.Chemscore.Rot.Weighted>
5.8940

> <Gold.Chemscore.Internal.Correction.Weighted>
   9.000000E+99

> <Gold.Protein.RotatedTorsions>
[ 6907 6896 6895 6894 ] final   -5.61 input  -60.11 | X-H torsion
[ 7974 7965 7964 7962 ] final   27.58 input  175.53 | X-H torsion
[ 8008 7997 7996 7995 ] final  -58.98 input   59.86 | X-H torsion
[ 10167 10162 10161 10158 ] final  -72.73 input  -65.29 | X-H torsion
[ 10718 10713 10712 10709 ] final  163.79 input   66.30 | X-H torsion
[ 10763 10752 10751 10750 ] final  -39.34 input  -60.55 | X-H torsion
[ 11005 11000 10999 10996 ] final  -52.31 input  -57.11 | X-H torsion

> <Gold.Protein.ActiveResidues>
 VAL166  LYS551  ARG553  GLY616  TRP617  ASP618  TYR619  PRO620  LYS621  CYS622 
 ASP623  PHE694  ASN695  SER759  ASP760  ASP761  ALA762  ILE779  LEU786  VAL792 
 PHE793  MET794  SER795  GLU796  ALA797  LYS798  CYS799  TRP800  GLU811  SER814 

> <Gold.Protein.RotatedAtoms>
  151.4788  135.1051  159.9771 H   0  0  0  0  0  0  0  0  0  0  0  0  # atno 6907 bound_to 6896
  152.4788  133.8198  159.7058 H   0  0  0  0  0  0  0  0  0  0  0  0  # atno 6908 bound_to 6896
  150.8844  133.7267  159.2949 H   0  0  0  0  0  0  0  0  0  0  0  0  # atno 6909 bound_to 6896
  146.1776  139.7172  142.8923 H   0  0  0  0  0  0  0  0  0  0  0  0  # atno 7974 bound_to 7965
  154.4332  140.1072  156.6043 H   0  0  0  0  0  0  0  0  0  0  0  0  # atno 8008 bound_to 7997
  155.5878  140.3491  155.4539 H   0  0  0  0  0  0  0  0  0  0  0  0  # atno 8009 bound_to 7997
  156.0270  140.1252  157.0288 H   0  0  0  0  0  0  0  0  0  0  0  0  # atno 8010 bound_to 7997
  140.5168  143.2337  151.7499 H   0  0  0  0  0  0  0  0  0  0  0  0  # atno 10167 bound_to 10162
  157.1035  131.0449  151.2488 H   0  0  0  0  0  0  0  0  0  0  0  0  # atno 10718 bound_to 10713
  153.9278  135.6775  153.4746 H   0  0  0  0  0  0  0  0  0  0  0  0  # atno 10763 bound_to 10752
  153.0995  135.4835  154.8838 H   0  0  0  0  0  0  0  0  0  0  0  0  # atno 10764 bound_to 10752
  154.7444  135.3169  154.8628 H   0  0  0  0  0  0  0  0  0  0  0  0  # atno 10765 bound_to 10752
  141.0918  133.6631  156.4006 H   0  0  0  0  0  0  0  0  0  0  0  0  # atno 11005 bound_to 11000
  145.4167  141.0402  143.2986 LP  0  0  0  0  0  0  0  0  0  0  0  0  # atno 17320 bound_to 7965
  144.8262  139.5707  143.6964 LP  0  0  0  0  0  0  0  0  0  0  0  0  # atno 17321 bound_to 7965
  139.4911  144.4312  151.9870 LP  0  0  0  0  0  0  0  0  0  0  0  0  # atno 17342 bound_to 10162
  140.3407  144.3207  150.5968 LP  0  0  0  0  0  0  0  0  0  0  0  0  # atno 17343 bound_to 10162
  157.4621  130.7659  149.7245 LP  0  0  0  0  0  0  0  0  0  0  0  0  # atno 17370 bound_to 10713
  155.9868  130.3972  150.3196 LP  0  0  0  0  0  0  0  0  0  0  0  0  # atno 17371 bound_to 10713
  140.5235  134.6282  157.5326 LP  0  0  0  0  0  0  0  0  0  0  0  0  # atno 17394 bound_to 11000
  139.9745  134.7238  155.9976 LP  0  0  0  0  0  0  0  0  0  0  0  0  # atno 17395 bound_to 11000

$$$$
