AV-unprocessed.smi:2638|AV-procd|sdf|10262|dock1
  -GOLD-   2272014273D 1   1.00000     0.00000
 Structure written by MMmdl.
 43 44  0  0  0  0  0  0  0  0  1 V2000
  145.4232  138.4209  153.8182 O   0  0  0  0  0  0  0  0  0  0  0  0
  146.3234  137.8245  153.2262 C   0  0  0  0  0  0  0  0  0  0  0  0
  147.6135  138.2013  153.1927 N   0  0  0  0  0  0  0  0  0  0  0  0
  148.2184  139.3207  153.8234 C   0  0  0  0  0  0  0  0  0  0  0  0
  149.5037  139.0823  154.3604 C   0  0  0  0  0  0  0  0  0  0  0  0
  150.1881  140.1277  155.0099 C   0  0  0  0  0  0  0  0  0  0  0  0
  149.5693  141.3869  155.1049 C   0  0  0  0  0  0  0  0  0  0  0  0
  148.2889  141.5405  154.5422 C   0  0  0  0  0  0  0  0  0  0  0  0
  147.6310  140.5397  153.9201 N   0  0  0  0  0  0  0  0  0  0  0  0
  146.1339  136.6960  152.5252 N   0  0  0  0  0  0  0  0  0  0  0  0
  144.8668  135.9768  152.3707 C   0  0  2  0  0  0  0  0  0  0  0  0
  144.2857  135.6524  153.7715 C   0  0  0  0  0  0  0  0  0  0  0  0
  142.8199  135.1742  153.7853 C   0  0  0  0  0  0  0  0  0  0  0  0
  142.5523  134.3389  154.8931 O   0  0  0  0  0  0  0  0  0  0  0  0
  145.0772  134.7180  151.4785 C   0  0  0  0  0  0  0  0  0  0  0  0
  143.7481  133.9711  151.1940 C   0  0  0  0  0  0  0  0  0  0  0  0
  143.9494  132.7292  150.3119 C   0  0  0  0  0  0  0  0  0  0  0  0
  144.9639  131.7636  150.9358 C   0  0  0  0  0  0  0  0  0  0  0  0
  146.2951  132.4769  151.2018 C   0  0  0  0  0  0  0  0  0  0  0  0
  146.0989  133.7221  152.0822 C   0  0  0  0  0  0  0  0  0  0  0  0
  148.2386  137.6099  152.6652 H   0  0  0  0  0  0  0  0  0  0  0  0
  149.9642  138.1082  154.2788 H   0  0  0  0  0  0  0  0  0  0  0  0
  151.1706  139.9650  155.4276 H   0  0  0  0  0  0  0  0  0  0  0  0
  150.0621  142.2129  155.5959 H   0  0  0  0  0  0  0  0  0  0  0  0
  147.7785  142.4909  154.5929 H   0  0  0  0  0  0  0  0  0  0  0  0
  146.9384  136.2832  152.0764 H   0  0  0  0  0  0  0  0  0  0  0  0
  144.1442  136.6181  151.8629 H   0  0  0  0  0  0  0  0  0  0  0  0
  144.8699  134.8461  154.2117 H   0  0  0  0  0  0  0  0  0  0  0  0
  144.4049  136.5051  154.4416 H   0  0  0  0  0  0  0  0  0  0  0  0
  142.1331  136.0210  153.7854 H   0  0  0  0  0  0  0  0  0  0  0  0
  142.6127  134.5977  152.8836 H   0  0  0  0  0  0  0  0  0  0  0  0
  142.8360  133.4621  154.6834 H   0  0  0  0  0  0  0  0  0  0  0  0
  145.4738  135.0558  150.5196 H   0  0  0  0  0  0  0  0  0  0  0  0
  143.2860  133.6761  152.1371 H   0  0  0  0  0  0  0  0  0  0  0  0
  143.0330  134.6247  150.6953 H   0  0  0  0  0  0  0  0  0  0  0  0
  142.9962  132.2209  150.1637 H   0  0  0  0  0  0  0  0  0  0  0  0
  144.2932  133.0345  149.3229 H   0  0  0  0  0  0  0  0  0  0  0  0
  144.5664  131.3652  151.8702 H   0  0  0  0  0  0  0  0  0  0  0  0
  145.1225  130.9104  150.2759 H   0  0  0  0  0  0  0  0  0  0  0  0
  146.9933  131.7901  151.6809 H   0  0  0  0  0  0  0  0  0  0  0  0
  146.7501  132.7679  150.2542 H   0  0  0  0  0  0  0  0  0  0  0  0
  147.0724  134.1926  152.2099 H   0  0  0  0  0  0  0  0  0  0  0  0
  145.7700  133.4161  153.0762 H   0  0  0  0  0  0  0  0  0  0  0  0
  1  2  2  0  0  0  0
  2  3  1  0  0  0  0
  2 10  1  0  0  0  0
  3  4  1  0  0  0  0
  3 21  1  0  0  0  0
  4  9  1  0  0  0  0
  4  5  2  0  0  0  0
  5  6  1  0  0  0  0
  5 22  1  0  0  0  0
  6  7  2  0  0  0  0
  6 23  1  0  0  0  0
  7  8  1  0  0  0  0
  7 24  1  0  0  0  0
  8  9  2  0  0  0  0
  8 25  1  0  0  0  0
 10 11  1  0  0  0  0
 10 26  1  0  0  0  0
 11 12  1  0  0  0  0
 11 15  1  0  0  0  0
 11 27  1  0  0  0  0
 12 13  1  0  0  0  0
 12 28  1  0  0  0  0
 12 29  1  0  0  0  0
 13 14  1  0  0  0  0
 13 30  1  0  0  0  0
 13 31  1  0  0  0  0
 14 32  1  0  0  0  0
 15 20  1  0  0  0  0
 15 16  1  0  0  0  0
 15 33  1  0  0  0  0
 16 17  1  0  0  0  0
 16 34  1  0  0  0  0
 16 35  1  0  0  0  0
 17 18  1  0  0  0  0
 17 36  1  0  0  0  0
 17 37  1  0  0  0  0
 18 19  1  0  0  0  0
 18 38  1  0  0  0  0
 18 39  1  0  0  0  0
 19 20  1  0  0  0  0
 19 40  1  0  0  0  0
 19 41  1  0  0  0  0
 20 42  1  0  0  0  0
 20 43  1  0  0  0  0
M  END
> <s_m_source_file>
AV-unprocessed.smi

> <i_m_source_file_index>
2638

> <i_lp_mmshare_version>
43012

> <i_f3d_flags>
0

> <s_epik_input>
bjFbY0hdW2NIXVtjSF1bY0hdYzFbTkhdQyg9TylbTkhdW0NASF0oW0NIMl1bQ0gyXVtPSF0pW0NIXTJbQ0gyXVtDSDJdW0NIMl1bQ0gyXVtDSDJdMg==

> <s_epik_cmdline>
J2VwaWtfcHl0aG9uJywgJy1waCcsICc3LjAnLCAnLXRuJywgJzgnLCAnLW1hJywgJzIwMCcsICctbWV0YWxfYmluZGluZycsICctaW1hZScsICc8aW5maWxlLm1hZT4nLCAnLW9tYWUnLCAnPG91dGZpbGUubWFlPic=

> <r_lp_tautomer_probability>
1

> <r_epik_Ionization_Penalty>
5.22449e-05

> <r_epik_Ionization_Penalty_Charging>
0

> <r_epik_Ionization_Penalty_Neutral>
5.22449e-05

> <r_epik_State_Penalty>
-0

> <r_epik_Charging_Adjusted_Penalty>
0

> <i_epik_Tot_Q>
0

> <i_epik_Tot_abs_Q>
0

> <r_epik_Metal_State_Penalty>
-0

> <b_epik_Metal_Only>
0

> <s_lp_Force_Field>
OPLS_2005

> <r_lp_Energy>
19.3621

> <b_lp_Chiralities_Consistent>
1

> <s_lp_Variant>
AV-unprocessed.smi:2638-1

> <Gold.Version>
5.8.1

> <Gold.Id.Protein>
6NUR|6NUR_protein|mol2

> <Gold.PLP.Fitness>
46.9256

> <Gold.PLP.PLP>
-35.0049

> <Gold.PLP.part.hbond>
-3.9942

> <Gold.PLP.part.metal>
0.0000

> <Gold.PLP.part.buried>
-4.5613

> <Gold.PLP.part.nonpolar>
-28.4385

> <Gold.PLP.part.repulsive>
0.9341

> <Gold.PLP.ligand.clash>
0.0000

> <Gold.PLP.ligand.torsion>
0.5422

> <Gold.PLP.Chemscore.Hbond>
3.7250

> <Gold.PLP.Chemscore.CHOScore>
0.5686

> <Gold.PLP.Chemscore.Metal>
0.0000

> <Gold.Chemscore.Hbonds>
donor molecule, donor type, donor heavy atom, donor atom, acceptor molecule, acceptor atom, score
      L1  H     3    21       P1  7948  1.00
      L1  H    10    26       P1  7948  0.99
      L1  H    14    32       P1 10957  1.00
      P1  H 11000 11005       L1    14  0.67
      L1  C     8    25       P1  8028  0.57

> <Gold.PLP.Chemscore.Internal.Correction>
0.1243

> <Gold.Rescore>
     Score         DG    S(hbond)    S(metal)    S(lipo)     H(rot)  DE(clash)    DE(int)     intcor
     16.96     -19.61       3.24        0.00      78.60       2.30       0.02       2.63       ----

> <Gold.Chemscore.Fitness>
16.9581

> <Gold.Chemscore.DG>
-19.6107

> <Gold.Chemscore.ZeroCoef>
-5.4800

> <Gold.Chemscore.Hbond>
3.2380

> <Gold.Chemscore.Metal>
0.0000

> <Gold.Chemscore.Lipo>
78.6034

> <Gold.Chemscore.Internal_Hbond>
0.0000

> <Gold.Chemscore.DEClash>
0.0207

> <Gold.Chemscore.DEInternal>
2.6319

> <Gold.Chemscore.Rot>
2.2972

> <Gold.Chemscore.Internal.Correction>
   9.000000E+99

> <Gold.Chemscore.Hbonds>
donor molecule, donor type, donor heavy atom, donor atom, acceptor molecule, acceptor atom, score
      L1  H     3    21       P1  7948  1.00
      L1  H    10    26       P1  7948  0.89
      L1  H    14    32       P1 10957  0.95
      P1  H 11000 11005       L1    14  0.11

> <Gold.Chemscore.Hbond.Weighted>
-10.8148

> <Gold.Chemscore.Metal.Weighted>
-0.0000

> <Gold.Chemscore.Lipo.Weighted>
-9.1966

> <Gold.Chemscore.Internal_Hbond.Weighted>
0.0000

> <Gold.Chemscore.DEClash.Weighted>
0.0207

> <Gold.Chemscore.DEInternal.Weighted>
2.6319

> <Gold.Chemscore.Rot.Weighted>
5.8807

> <Gold.Chemscore.Internal.Correction.Weighted>
   9.000000E+99

> <Gold.Protein.RotatedTorsions>
[ 6907 6896 6895 6894 ] final   12.20 input  -60.11 | X-H torsion
[ 7974 7965 7964 7962 ] final  144.96 input  175.53 | X-H torsion
[ 8008 7997 7996 7995 ] final  -45.28 input   59.86 | X-H torsion
[ 10167 10162 10161 10158 ] final  -22.69 input  -65.29 | X-H torsion
[ 10718 10713 10712 10709 ] final   97.74 input   66.30 | X-H torsion
[ 10763 10752 10751 10750 ] final  142.85 input  -60.55 | X-H torsion
[ 11005 11000 10999 10996 ] final  -18.42 input  -57.11 | X-H torsion

> <Gold.Protein.ActiveResidues>
 VAL166  LYS551  ARG553  GLY616  TRP617  ASP618  TYR619  PRO620  LYS621  CYS622 
 ASP623  PHE694  ASN695  SER759  ASP760  ASP761  ALA762  ILE779  LEU786  VAL792 
 PHE793  MET794  SER795  GLU796  ALA797  LYS798  CYS799  TRP800  GLU811  SER814 

> <Gold.Protein.RotatedAtoms>
  151.7666  135.0797  160.0353 H   0  0  0  0  0  0  0  0  0  0  0  0  # atno 6907 bound_to 6896
  152.3317  133.5962  159.5823 H   0  0  0  0  0  0  0  0  0  0  0  0  # atno 6908 bound_to 6896
  150.7427  133.9773  159.3607 H   0  0  0  0  0  0  0  0  0  0  0  0  # atno 6909 bound_to 6896
  144.8792  139.5726  143.5851 H   0  0  0  0  0  0  0  0  0  0  0  0  # atno 7974 bound_to 7965
  154.4000  140.1401  156.3821 H   0  0  0  0  0  0  0  0  0  0  0  0  # atno 8008 bound_to 7997
  155.7994  140.3476  155.5373 H   0  0  0  0  0  0  0  0  0  0  0  0  # atno 8009 bound_to 7997
  155.8499  140.0940  157.1672 H   0  0  0  0  0  0  0  0  0  0  0  0  # atno 8010 bound_to 7997
  140.7286  143.4511  151.0515 H   0  0  0  0  0  0  0  0  0  0  0  0  # atno 10167 bound_to 10162
  157.6907  131.0619  150.4690 H   0  0  0  0  0  0  0  0  0  0  0  0  # atno 10718 bound_to 10713
  153.9625  135.2958  155.3432 H   0  0  0  0  0  0  0  0  0  0  0  0  # atno 10763 bound_to 10752
  154.7367  135.5043  153.9056 H   0  0  0  0  0  0  0  0  0  0  0  0  # atno 10764 bound_to 10752
  153.0939  135.6715  153.9911 H   0  0  0  0  0  0  0  0  0  0  0  0  # atno 10765 bound_to 10752
  140.8266  133.8028  155.9714 H   0  0  0  0  0  0  0  0  0  0  0  0  # atno 11005 bound_to 11000
  146.2983  139.7346  142.9110 LP  0  0  0  0  0  0  0  0  0  0  0  0  # atno 17320 bound_to 7965
  145.3986  141.0382  143.3083 LP  0  0  0  0  0  0  0  0  0  0  0  0  # atno 17321 bound_to 7965
  139.8188  143.7849  152.3176 LP  0  0  0  0  0  0  0  0  0  0  0  0  # atno 17342 bound_to 10162
  139.7924  144.7405  150.9936 LP  0  0  0  0  0  0  0  0  0  0  0  0  # atno 17343 bound_to 10162
  156.5029  130.4121  149.6343 LP  0  0  0  0  0  0  0  0  0  0  0  0  # atno 17370 bound_to 10713
  156.3311  130.7332  151.2261 LP  0  0  0  0  0  0  0  0  0  0  0  0  # atno 17371 bound_to 10713
  140.9043  134.2340  157.5024 LP  0  0  0  0  0  0  0  0  0  0  0  0  # atno 17394 bound_to 11000
  139.8706  134.9721  156.4760 LP  0  0  0  0  0  0  0  0  0  0  0  0  # atno 17395 bound_to 11000

$$$$
