AV-unprocessed.smi:2790|AV-procd|sdf|10766|dock7
  -GOLD-   2272015203D 1   1.00000     0.00000
 Structure written by MMmdl.
 46 47  0  0  0  0  0  0  0  0  2 V2000
  148.3268  141.5014  153.8706 C   0  0  0  0  0  0  0  0  0  0  0  0
  147.5404  142.5111  154.6173 N   0  3  0  0  0  0  0  0  0  0  0  0
  146.3409  142.9353  153.8630 C   0  0  0  0  0  0  0  0  0  0  0  0
  147.2135  142.0876  156.0028 C   0  0  0  0  0  0  0  0  0  0  0  0
  148.3986  141.4440  156.7290 C   0  0  0  0  0  0  0  0  0  0  0  0
  148.2754  140.3509  157.2821 O   0  0  0  0  0  0  0  0  0  0  0  0
  149.5487  142.1304  156.7062 N   0  0  0  0  0  0  0  0  0  0  0  0
  150.7862  141.6959  157.3476 C   0  0  0  0  0  0  0  0  0  0  0  0
  151.2704  142.6895  158.4346 C   0  0  0  0  0  0  0  0  0  0  0  0
  152.2289  141.9472  159.3966 C   0  0  0  0  0  0  0  0  0  0  0  0
  152.6902  140.6292  159.1513 C   0  0  0  0  0  0  0  0  0  0  0  0
  153.5844  140.0308  160.0607 C   0  0  0  0  0  0  0  0  0  0  0  0
  154.0498  140.6518  161.1629 N   0  0  0  0  0  0  0  0  0  0  0  0
  153.6309  141.9124  161.3924 C   0  0  0  0  0  0  0  0  0  0  0  0
  152.7381  142.5987  160.5462 C   0  0  0  0  0  0  0  0  0  0  0  0
  151.9816  143.8764  157.7218 C   0  0  0  0  0  0  0  0  0  0  0  0
  152.3791  145.0077  158.6866 C   0  0  0  0  0  0  0  0  0  0  0  0
  151.1442  145.5670  159.4056 C   0  0  0  0  0  0  0  0  0  0  0  0
  150.3704  144.4506  160.1192 C   0  0  0  0  0  0  0  0  0  0  0  0
  150.0256  143.2999  159.1505 C   0  0  0  0  0  0  0  0  0  0  0  0
  147.7546  140.5827  153.7341 H   0  0  0  0  0  0  0  0  0  0  0  0
  149.2508  141.2524  154.3930 H   0  0  0  0  0  0  0  0  0  0  0  0
  148.6005  141.8815  152.8858 H   0  0  0  0  0  0  0  0  0  0  0  0
  145.6388  142.1083  153.7488 H   0  0  0  0  0  0  0  0  0  0  0  0
  146.6153  143.2909  152.8693 H   0  0  0  0  0  0  0  0  0  0  0  0
  145.8299  143.7513  154.3751 H   0  0  0  0  0  0  0  0  0  0  0  0
  146.9217  142.9583  156.5916 H   0  0  0  0  0  0  0  0  0  0  0  0
  146.3556  141.4130  155.9947 H   0  0  0  0  0  0  0  0  0  0  0  0
  149.5702  143.0193  156.2273 H   0  0  0  0  0  0  0  0  0  0  0  0
  150.6149  140.7146  157.7936 H   0  0  0  0  0  0  0  0  0  0  0  0
  151.5554  141.5577  156.5856 H   0  0  0  0  0  0  0  0  0  0  0  0
  152.3817  140.0613  158.2884 H   0  0  0  0  0  0  0  0  0  0  0  0
  153.9415  139.0254  159.8927 H   0  0  0  0  0  0  0  0  0  0  0  0
  154.0262  142.3942  162.2743 H   0  0  0  0  0  0  0  0  0  0  0  0
  152.4681  143.6148  160.7877 H   0  0  0  0  0  0  0  0  0  0  0  0
  152.8547  143.5475  157.1604 H   0  0  0  0  0  0  0  0  0  0  0  0
  151.3112  144.2960  156.9700 H   0  0  0  0  0  0  0  0  0  0  0  0
  153.1029  144.6440  159.4169 H   0  0  0  0  0  0  0  0  0  0  0  0
  152.8748  145.8066  158.1348 H   0  0  0  0  0  0  0  0  0  0  0  0
  151.4411  146.3345  160.1210 H   0  0  0  0  0  0  0  0  0  0  0  0
  150.4918  146.0554  158.6806 H   0  0  0  0  0  0  0  0  0  0  0  0
  150.9594  144.0843  160.9592 H   0  0  0  0  0  0  0  0  0  0  0  0
  149.4542  144.8567  160.5484 H   0  0  0  0  0  0  0  0  0  0  0  0
  149.3468  143.7001  158.3958 H   0  0  0  0  0  0  0  0  0  0  0  0
  149.4440  142.5362  159.6658 H   0  0  0  0  0  0  0  0  0  0  0  0
  148.1247  143.3311  154.7044 H   0  0  0  0  0  0  0  0  0  0  0  0
  1  2  1  0  0  0  0
  1 21  1  0  0  0  0
  1 22  1  0  0  0  0
  1 23  1  0  0  0  0
  2  3  1  0  0  0  0
  2  4  1  0  0  0  0
  2 46  1  0  0  0  0
  3 24  1  0  0  0  0
  3 25  1  0  0  0  0
  3 26  1  0  0  0  0
  4  5  1  0  0  0  0
  4 27  1  0  0  0  0
  4 28  1  0  0  0  0
  5  6  2  0  0  0  0
  5  7  1  0  0  0  0
  7  8  1  0  0  0  0
  7 29  1  0  0  0  0
  8  9  1  0  0  0  0
  8 30  1  0  0  0  0
  8 31  1  0  0  0  0
  9 20  1  0  0  0  0
  9 10  1  0  0  0  0
  9 16  1  0  0  0  0
 10 15  1  0  0  0  0
 10 11  2  0  0  0  0
 11 12  1  0  0  0  0
 11 32  1  0  0  0  0
 12 13  2  0  0  0  0
 12 33  1  0  0  0  0
 13 14  1  0  0  0  0
 14 15  2  0  0  0  0
 14 34  1  0  0  0  0
 15 35  1  0  0  0  0
 16 17  1  0  0  0  0
 16 36  1  0  0  0  0
 16 37  1  0  0  0  0
 17 18  1  0  0  0  0
 17 38  1  0  0  0  0
 17 39  1  0  0  0  0
 18 19  1  0  0  0  0
 18 40  1  0  0  0  0
 18 41  1  0  0  0  0
 19 20  1  0  0  0  0
 19 42  1  0  0  0  0
 19 43  1  0  0  0  0
 20 44  1  0  0  0  0
 20 45  1  0  0  0  0
M  CHG  1   2   1
M  END
> <s_m_source_file>
AV-unprocessed.smi

> <i_m_source_file_index>
2790

> <i_lp_mmshare_version>
43012

> <i_f3d_flags>
0

> <s_epik_input>
W0NIM11OKFtDSDNdKVtDSDJdQyg9TylbTkhdW0NIMl1DMShbQ0gyXVtDSDJdW0NIMl1bQ0gyXVtDSDJdMSljMltjSF1bY0hdbltjSF1bY0hdMg==

> <s_epik_cmdline>
J2VwaWtfcHl0aG9uJywgJy1waCcsICc3LjAnLCAnLXRuJywgJzgnLCAnLW1hJywgJzIwMCcsICctbWV0YWxfYmluZGluZycsICctaW1hZScsICc8aW5maWxlLm1hZT4nLCAnLW9tYWUnLCAnPG91dGZpbGUubWFlPic=

> <r_epik_Ionization_Penalty>
0.089928

> <r_epik_Ionization_Penalty_Charging>
0.0368445

> <r_epik_Ionization_Penalty_Neutral>
0.0530835

> <r_epik_State_Penalty>
0.0777876

> <r_epik_Charging_Adjusted_Penalty>
0.114632

> <i_epik_Tot_Q>
1

> <i_epik_Tot_abs_Q>
1

> <r_epik_Metal_State_Penalty>
0.0848697

> <b_epik_Metal_Only>
0

> <s_lp_Force_Field>
OPLS_2005

> <r_lp_Energy>
21.8656

> <b_lp_Chiralities_Consistent>
1

> <s_lp_Variant>
AV-unprocessed.smi:2790-1

> <Gold.Version>
5.8.1

> <Gold.Id.Protein>
6NUR|6NUR_protein|mol2

> <Gold.PLP.Fitness>
52.0280

> <Gold.PLP.PLP>
-44.2416

> <Gold.PLP.part.hbond>
-2.0000

> <Gold.PLP.part.metal>
0.0000

> <Gold.PLP.part.buried>
-4.9977

> <Gold.PLP.part.nonpolar>
-37.5931

> <Gold.PLP.part.repulsive>
0.1596

> <Gold.PLP.ligand.clash>
0.0000

> <Gold.PLP.ligand.torsion>
0.6396

> <Gold.PLP.Chemscore.Hbond>
3.0000

> <Gold.PLP.Chemscore.CHOScore>
0.0000

> <Gold.PLP.Chemscore.Metal>
0.0000

> <Gold.Chemscore.Hbonds>
donor molecule, donor type, donor heavy atom, donor atom, acceptor molecule, acceptor atom, score
      L1  H     2    46       P1  8028  2.00
      L1  H     7    29       P1  8028  1.00

> <Gold.PLP.Chemscore.Internal.Correction>
0.0657

> <Gold.Rescore>
     Score         DG    S(hbond)    S(metal)    S(lipo)     H(rot)  DE(clash)    DE(int)     intcor
     18.63     -22.26       1.83        0.00     127.36       1.65       2.21       1.42       ----

> <Gold.Chemscore.Fitness>
18.6344

> <Gold.Chemscore.DG>
-22.2618

> <Gold.Chemscore.ZeroCoef>
-5.4800

> <Gold.Chemscore.Hbond>
1.8314

> <Gold.Chemscore.Metal>
0.0000

> <Gold.Chemscore.Lipo>
127.3595

> <Gold.Chemscore.Internal_Hbond>
0.0000

> <Gold.Chemscore.DEClash>
2.2121

> <Gold.Chemscore.DEInternal>
1.4152

> <Gold.Chemscore.Rot>
1.6547

> <Gold.Chemscore.Internal.Correction>
   9.000000E+99

> <Gold.Chemscore.Hbonds>
donor molecule, donor type, donor heavy atom, donor atom, acceptor molecule, acceptor atom, score
      L1  H     2    46       P1  8028  0.90
      L1  H     7    29       P1  8028  0.98

> <Gold.Chemscore.Hbond.Weighted>
-6.1168

> <Gold.Chemscore.Metal.Weighted>
-0.0000

> <Gold.Chemscore.Lipo.Weighted>
-14.9011

> <Gold.Chemscore.Internal_Hbond.Weighted>
0.0000

> <Gold.Chemscore.DEClash.Weighted>
2.2121

> <Gold.Chemscore.DEInternal.Weighted>
1.4152

> <Gold.Chemscore.Rot.Weighted>
4.2361

> <Gold.Chemscore.Internal.Correction.Weighted>
   9.000000E+99

> <Gold.Protein.RotatedTorsions>
[ 6907 6896 6895 6894 ] final  -85.42 input  -60.11 | X-H torsion
[ 7974 7965 7964 7962 ] final -146.60 input  175.53 | X-H torsion
[ 8008 7997 7996 7995 ] final   26.61 input   59.86 | X-H torsion
[ 10167 10162 10161 10158 ] final  168.17 input  -65.29 | X-H torsion
[ 10718 10713 10712 10709 ] final  -24.92 input   66.30 | X-H torsion
[ 10763 10752 10751 10750 ] final  -54.43 input  -60.55 | X-H torsion
[ 11005 11000 10999 10996 ] final  -49.50 input  -57.11 | X-H torsion

> <Gold.Protein.ActiveResidues>
 VAL166  LYS551  ARG553  GLY616  TRP617  ASP618  TYR619  PRO620  LYS621  CYS622 
 ASP623  PHE694  ASN695  SER759  ASP760  ASP761  ALA762  ILE779  LEU786  VAL792 
 PHE793  MET794  SER795  GLU796  ALA797  LYS798  CYS799  TRP800  GLU811  SER814 

> <Gold.Protein.RotatedAtoms>
  150.6870  134.3207  159.4784 H   0  0  0  0  0  0  0  0  0  0  0  0  # atno 6907 bound_to 6896
  152.1082  134.9290  160.0576 H   0  0  0  0  0  0  0  0  0  0  0  0  # atno 6908 bound_to 6896
  152.0543  133.3998  159.4427 H   0  0  0  0  0  0  0  0  0  0  0  0  # atno 6909 bound_to 6896
  144.8149  140.5435  143.5617 H   0  0  0  0  0  0  0  0  0  0  0  0  # atno 7974 bound_to 7965
  155.0300  140.3157  155.4762 H   0  0  0  0  0  0  0  0  0  0  0  0  # atno 8008 bound_to 7997
  156.2876  140.2182  156.5363 H   0  0  0  0  0  0  0  0  0  0  0  0  # atno 8009 bound_to 7997
  154.7378  140.0476  157.0772 H   0  0  0  0  0  0  0  0  0  0  0  0  # atno 8010 bound_to 7997
  139.4961  144.3844  151.9587 H   0  0  0  0  0  0  0  0  0  0  0  0  # atno 10167 bound_to 10162
  156.4712  130.4525  149.6868 H   0  0  0  0  0  0  0  0  0  0  0  0  # atno 10718 bound_to 10713
  154.1747  135.6453  153.5018 H   0  0  0  0  0  0  0  0  0  0  0  0  # atno 10763 bound_to 10752
  153.0075  135.5392  154.6576 H   0  0  0  0  0  0  0  0  0  0  0  0  # atno 10764 bound_to 10752
  154.5924  135.2935  155.0593 H   0  0  0  0  0  0  0  0  0  0  0  0  # atno 10765 bound_to 10752
  141.0763  133.6665  156.3595 H   0  0  0  0  0  0  0  0  0  0  0  0  # atno 11005 bound_to 11000
  145.5238  139.1476  143.3537 LP  0  0  0  0  0  0  0  0  0  0  0  0  # atno 17320 bound_to 7965
  146.2451  140.5379  142.8917 LP  0  0  0  0  0  0  0  0  0  0  0  0  # atno 17321 bound_to 7965
  140.3280  144.3349  150.5994 LP  0  0  0  0  0  0  0  0  0  0  0  0  # atno 17342 bound_to 10162
  140.5668  143.2185  151.7669 LP  0  0  0  0  0  0  0  0  0  0  0  0  # atno 17343 bound_to 10162
  156.3616  130.7484  151.2457 LP  0  0  0  0  0  0  0  0  0  0  0  0  # atno 17370 bound_to 10713
  157.7491  131.0348  150.4336 LP  0  0  0  0  0  0  0  0  0  0  0  0  # atno 17371 bound_to 10713
  140.5566  134.5975  157.5422 LP  0  0  0  0  0  0  0  0  0  0  0  0  # atno 17394 bound_to 11000
  139.9575  134.7509  156.0309 LP  0  0  0  0  0  0  0  0  0  0  0  0  # atno 17395 bound_to 11000

$$$$
