AV-unprocessed.smi:899|AV-procd|sdf|4088|dock5
  -GOLD-   22720 1573D 1   1.00000     0.00000
 Structure written by MMmdl.
 32 33  0  0  0  0  0  0  0  0  2 V2000
  155.2417  141.9944  164.4950 N   0  0  0  0  0  0  0  0  0  0  0  0
  154.4230  142.6528  164.0099 C   0  0  0  0  0  0  0  0  0  0  0  0
  153.3823  143.4891  163.3926 C   0  0  0  0  0  0  0  0  0  0  0  0
  153.0482  143.0367  161.9862 C   0  0  0  0  0  0  0  0  0  0  0  0
  153.6698  141.8942  161.4459 C   0  0  0  0  0  0  0  0  0  0  0  0
  153.3578  141.4719  160.1395 C   0  0  0  0  0  0  0  0  0  0  0  0
  152.4233  142.1789  159.3552 C   0  0  0  0  0  0  0  0  0  0  0  0
  152.1742  141.6926  158.0897 O   0  0  0  0  0  0  0  0  0  0  0  0
  150.8952  141.9294  157.5177 C   0  0  0  0  0  0  0  0  0  0  0  0
  151.0279  141.8934  155.9883 C   0  0  0  0  0  0  0  0  0  0  0  0
  149.8377  141.3047  155.3606 N   0  0  0  0  0  0  0  0  0  0  0  0
  148.6021  141.9331  155.5910 C   0  0  0  0  0  0  0  0  0  0  0  0
  147.4533  141.4661  155.0644 C   0  0  0  0  0  0  0  0  0  0  0  0
  145.9482  142.2593  155.3652 Cl  0  0  0  0  0  0  0  0  0  0  0  0
  147.5180  140.2657  154.2331 C   0  0  0  0  0  0  0  0  0  0  0  0
  146.4882  139.8146  153.7337 O   0  0  0  0  0  0  0  0  0  0  0  0
  148.7413  139.6886  154.0469 N   0  5  0  0  0  0  0  0  0  0  0  0
  149.8979  140.1764  154.5928 C   0  0  0  0  0  0  0  0  0  0  0  0
  150.9889  139.6330  154.4178 O   0  0  0  0  0  0  0  0  0  0  0  0
  151.8029  143.3297  159.9046 C   0  0  0  0  0  0  0  0  0  0  0  0
  152.1152  143.7534  161.2112 C   0  0  0  0  0  0  0  0  0  0  0  0
  152.4890  143.4458  164.0163 H   0  0  0  0  0  0  0  0  0  0  0  0
  153.7297  144.5228  163.3875 H   0  0  0  0  0  0  0  0  0  0  0  0
  154.3876  141.3392  162.0320 H   0  0  0  0  0  0  0  0  0  0  0  0
  153.8399  140.5942  159.7346 H   0  0  0  0  0  0  0  0  0  0  0  0
  150.1879  141.1664  157.8473 H   0  0  0  0  0  0  0  0  0  0  0  0
  150.5183  142.9037  157.8332 H   0  0  0  0  0  0  0  0  0  0  0  0
  151.1874  142.9053  155.6132 H   0  0  0  0  0  0  0  0  0  0  0  0
  151.9240  141.3397  155.7032 H   0  0  0  0  0  0  0  0  0  0  0  0
  148.6451  142.8096  156.2209 H   0  0  0  0  0  0  0  0  0  0  0  0
  151.0823  143.9052  159.3437 H   0  0  0  0  0  0  0  0  0  0  0  0
  151.6342  144.6314  161.6170 H   0  0  0  0  0  0  0  0  0  0  0  0
  1  2  3  0  0  0  0
  2  3  1  0  0  0  0
  3  4  1  0  0  0  0
  3 22  1  0  0  0  0
  3 23  1  0  0  0  0
  4 21  1  0  0  0  0
  4  5  2  0  0  0  0
  5  6  1  0  0  0  0
  5 24  1  0  0  0  0
  6  7  2  0  0  0  0
  6 25  1  0  0  0  0
  7  8  1  0  0  0  0
  7 20  1  0  0  0  0
  8  9  1  0  0  0  0
  9 10  1  0  0  0  0
  9 26  1  0  0  0  0
  9 27  1  0  0  0  0
 10 11  1  0  0  0  0
 10 28  1  0  0  0  0
 10 29  1  0  0  0  0
 11 18  1  0  0  0  0
 11 12  1  0  0  0  0
 12 13  2  0  0  0  0
 12 30  1  0  0  0  0
 13 14  1  0  0  0  0
 13 15  1  0  0  0  0
 15 16  2  0  0  0  0
 15 17  1  0  0  0  0
 17 18  1  0  0  0  0
 18 19  2  0  0  0  0
 20 21  2  0  0  0  0
 20 31  1  0  0  0  0
 21 32  1  0  0  0  0
M  CHG  1  17  -1
M  END
> <s_m_source_file>
AV-unprocessed.smi

> <i_m_source_file_index>
899

> <i_lp_mmshare_version>
43012

> <i_f3d_flags>
0

> <s_epik_input>
TiNDW0NIMl1jMVtjSF1bY0hdYyhbY0hdW2NIXTEpT1tDSDJdW0NIMl1uMltjSF1jKENsKWMoPU8pW25IXWMyPU8=

> <s_epik_cmdline>
J2VwaWtfcHl0aG9uJywgJy1waCcsICc3LjAnLCAnLXRuJywgJzgnLCAnLW1hJywgJzIwMCcsICctbWV0YWxfYmluZGluZycsICctaW1hZScsICc8aW5maWxlLm1hZT4nLCAnLW9tYWUnLCAnPG91dGZpbGUubWFlPic=

> <r_lp_tautomer_probability>
1

> <r_epik_Ionization_Penalty>
1.54028

> <r_epik_Ionization_Penalty_Charging>
7.31917e-09

> <r_epik_Ionization_Penalty_Neutral>
1.54028

> <r_epik_State_Penalty>
1.63364

> <r_epik_Charging_Adjusted_Penalty>
1.63364

> <i_epik_Tot_Q>
-1

> <i_epik_Tot_abs_Q>
1

> <r_epik_Metal_State_Penalty>
0.00867927

> <b_epik_Metal_Only>
0

> <s_lp_Force_Field>
OPLS_2005

> <r_lp_Energy>
21.9466

> <b_lp_Chiralities_Consistent>
1

> <s_lp_Variant>
AV-unprocessed.smi:899-2

> <Gold.Version>
5.8.1

> <Gold.Id.Protein>
6NUR|6NUR_protein|mol2

> <Gold.PLP.Fitness>
48.7803

> <Gold.PLP.PLP>
-44.7143

> <Gold.PLP.part.hbond>
-2.0000

> <Gold.PLP.part.metal>
0.0000

> <Gold.PLP.part.buried>
-1.9335

> <Gold.PLP.part.nonpolar>
-38.6581

> <Gold.PLP.part.repulsive>
0.6684

> <Gold.PLP.ligand.clash>
0.0000

> <Gold.PLP.ligand.torsion>
0.7630

> <Gold.PLP.Chemscore.Hbond>
0.9500

> <Gold.PLP.Chemscore.CHOScore>
0.9092

> <Gold.PLP.Chemscore.Metal>
0.0000

> <Gold.Chemscore.Hbonds>
donor molecule, donor type, donor heavy atom, donor atom, acceptor molecule, acceptor atom, score
      P1  H  7989  7998       L1    19  0.80
      L1  C    12    30       P1  8028  0.88

> <Gold.PLP.Chemscore.Internal.Correction>
0.0144

> <Gold.Rescore>
     Score         DG    S(hbond)    S(metal)    S(lipo)     H(rot)  DE(clash)    DE(int)     intcor
     11.23     -12.42       0.00        0.00     108.53       2.25       0.40       0.79       ----

> <Gold.Chemscore.Fitness>
11.2347

> <Gold.Chemscore.DG>
-12.4206

> <Gold.Chemscore.ZeroCoef>
-5.4800

> <Gold.Chemscore.Hbond>
0.0000

> <Gold.Chemscore.Metal>
0.0000

> <Gold.Chemscore.Lipo>
108.5319

> <Gold.Chemscore.Internal_Hbond>
0.0000

> <Gold.Chemscore.DEClash>
0.3993

> <Gold.Chemscore.DEInternal>
0.7867

> <Gold.Chemscore.Rot>
2.2491

> <Gold.Chemscore.Internal.Correction>
   9.000000E+99

> <Gold.Chemscore.Hbonds>
donor molecule, donor type, donor heavy atom, donor atom, acceptor molecule, acceptor atom, score
      P1  H  7989  7998       L1    19  0.12

> <Gold.Chemscore.Hbond.Weighted>
-0.0000

> <Gold.Chemscore.Metal.Weighted>
-0.0000

> <Gold.Chemscore.Lipo.Weighted>
-12.6982

> <Gold.Chemscore.Internal_Hbond.Weighted>
0.0000

> <Gold.Chemscore.DEClash.Weighted>
0.3993

> <Gold.Chemscore.DEInternal.Weighted>
0.7867

> <Gold.Chemscore.Rot.Weighted>
5.7576

> <Gold.Chemscore.Internal.Correction.Weighted>
   9.000000E+99

> <Gold.Protein.RotatedTorsions>
[ 6907 6896 6895 6894 ] final -138.94 input  -60.11 | X-H torsion
[ 7974 7965 7964 7962 ] final   74.92 input  175.53 | X-H torsion
[ 8008 7997 7996 7995 ] final  -56.44 input   59.86 | X-H torsion
[ 10167 10162 10161 10158 ] final  121.80 input  -65.29 | X-H torsion
[ 10718 10713 10712 10709 ] final   -8.38 input   66.30 | X-H torsion
[ 10763 10752 10751 10750 ] final -149.46 input  -60.55 | X-H torsion
[ 11005 11000 10999 10996 ] final   71.46 input  -57.11 | X-H torsion

> <Gold.Protein.ActiveResidues>
 VAL166  LYS551  ARG553  GLY616  TRP617  ASP618  TYR619  PRO620  LYS621  CYS622 
 ASP623  PHE694  ASN695  SER759  ASP760  ASP761  ALA762  ILE779  LEU786  VAL792 
 PHE793  MET794  SER795  GLU796  ALA797  LYS798  CYS799  TRP800  GLU811  SER814 

> <Gold.Protein.RotatedAtoms>
  151.0414  133.5703  159.2650 H   0  0  0  0  0  0  0  0  0  0  0  0  # atno 6907 bound_to 6896
  151.2747  135.0695  159.9157 H   0  0  0  0  0  0  0  0  0  0  0  0  # atno 6908 bound_to 6896
  152.5365  134.0139  159.8005 H   0  0  0  0  0  0  0  0  0  0  0  0  # atno 6909 bound_to 6896
  145.7221  139.2652  143.1590 H   0  0  0  0  0  0  0  0  0  0  0  0  # atno 7974 bound_to 7965
  154.4230  140.1129  156.5638 H   0  0  0  0  0  0  0  0  0  0  0  0  # atno 8008 bound_to 7997
  155.6284  140.3495  155.4656 H   0  0  0  0  0  0  0  0  0  0  0  0  # atno 8009 bound_to 7997
  155.9968  140.1191  157.0575 H   0  0  0  0  0  0  0  0  0  0  0  0  # atno 8010 bound_to 7997
  139.5897  144.7020  151.3320 H   0  0  0  0  0  0  0  0  0  0  0  0  # atno 10167 bound_to 10162
  156.7034  130.5100  149.5911 H   0  0  0  0  0  0  0  0  0  0  0  0  # atno 10718 bound_to 10713
  154.8176  135.3308  154.7132 H   0  0  0  0  0  0  0  0  0  0  0  0  # atno 10763 bound_to 10752
  153.7770  135.6921  153.4900 H   0  0  0  0  0  0  0  0  0  0  0  0  # atno 10764 bound_to 10752
  153.2006  135.4517  155.0209 H   0  0  0  0  0  0  0  0  0  0  0  0  # atno 10765 bound_to 10752
  139.9542  134.7173  156.0792 H   0  0  0  0  0  0  0  0  0  0  0  0  # atno 11005 bound_to 11000
  146.0616  140.7965  142.9732 LP  0  0  0  0  0  0  0  0  0  0  0  0  # atno 17320 bound_to 7965
  144.6914  140.3205  143.7233 LP  0  0  0  0  0  0  0  0  0  0  0  0  # atno 17321 bound_to 7965
  140.7162  143.7258  150.7661 LP  0  0  0  0  0  0  0  0  0  0  0  0  # atno 17342 bound_to 10162
  140.0811  143.4968  152.2529 LP  0  0  0  0  0  0  0  0  0  0  0  0  # atno 17343 bound_to 10162
  156.1712  130.6438  151.0840 LP  0  0  0  0  0  0  0  0  0  0  0  0  # atno 17370 bound_to 10713
  157.6964  131.0792  150.6956 LP  0  0  0  0  0  0  0  0  0  0  0  0  # atno 17371 bound_to 10713
  141.1210  133.6613  156.3216 LP  0  0  0  0  0  0  0  0  0  0  0  0  # atno 17394 bound_to 11000
  140.5648  134.5899  157.5443 LP  0  0  0  0  0  0  0  0  0  0  0  0  # atno 17395 bound_to 11000

$$$$
