AV-unprocessed.smi:101|AV-procd|sdf|919|dock6
  -GOLD-   2262017423D 1   1.00000     0.00000
 Structure written by MMmdl.
 44 46  0  0  0  0  0  0  0  0  1 V2000
  145.7292  137.8149  153.2346 C   0  0  0  0  0  0  0  0  0  0  0  0
  146.4371  137.6328  154.5670 C   0  0  0  0  0  0  0  0  0  0  0  0
  147.7898  137.6468  154.6800 C   0  0  0  0  0  0  0  0  0  0  0  0
  148.4641  137.4808  155.8823 N   0  0  0  0  0  0  0  0  0  0  0  0
  149.9737  137.4897  155.9430 C   0  0  2  0  0  0  0  0  0  0  0  0
  150.3836  138.6339  156.6278 O   0  0  0  0  0  0  0  0  0  0  0  0
  151.4951  139.2159  155.9610 C   0  0  2  0  0  0  0  0  0  0  0  0
  151.6319  140.7028  156.3170 C   0  0  0  0  0  0  0  0  0  0  0  0
  151.6706  140.8386  157.7278 O   0  0  0  0  0  0  0  0  0  0  0  0
  152.6932  140.3115  158.4285 C   0  0  0  0  0  0  0  0  0  0  0  0
  153.3635  139.3527  158.0400 O   0  0  0  0  0  0  0  0  0  0  0  0
  152.9301  141.0113  159.7242 C   0  0  0  0  0  0  0  0  0  0  0  0
  152.2588  142.2281  159.9875 C   0  0  0  0  0  0  0  0  0  0  0  0
  152.4607  142.9107  161.2029 C   0  0  0  0  0  0  0  0  0  0  0  0
  153.3353  142.3837  162.1709 C   0  0  0  0  0  0  0  0  0  0  0  0
  154.0087  141.1736  161.9217 C   0  0  0  0  0  0  0  0  0  0  0  0
  153.8093  140.4907  160.7060 C   0  0  0  0  0  0  0  0  0  0  0  0
  151.2412  138.9058  154.4802 C   0  0  2  0  0  0  0  0  0  0  0  0
  150.3760  139.8614  153.8941 O   0  0  0  0  0  0  0  0  0  0  0  0
  150.5742  137.5355  154.5253 C   0  0  1  0  0  0  0  0  0  0  0  0
  151.5425  136.5206  154.3453 O   0  0  0  0  0  0  0  0  0  0  0  0
  147.7274  137.2540  157.0627 C   0  0  0  0  0  0  0  0  0  0  0  0
  148.2565  137.0623  158.1568 O   0  0  0  0  0  0  0  0  0  0  0  0
  146.3384  137.2460  156.9486 N   0  0  0  0  0  0  0  0  0  0  0  0
  145.6183  137.4281  155.7652 C   0  0  0  0  0  0  0  0  0  0  0  0
  144.3890  137.4040  155.7926 O   0  0  0  0  0  0  0  0  0  0  0  0
  145.8070  137.0903  157.7927 H   0  0  0  0  0  0  0  0  0  0  0  0
  146.4364  137.9540  152.4164 H   0  0  0  0  0  0  0  0  0  0  0  0
  145.0776  138.6889  153.2654 H   0  0  0  0  0  0  0  0  0  0  0  0
  145.1197  136.9405  153.0040 H   0  0  0  0  0  0  0  0  0  0  0  0
  148.3689  137.7902  153.7795 H   0  0  0  0  0  0  0  0  0  0  0  0
  150.2770  136.6186  156.5272 H   0  0  0  0  0  0  0  0  0  0  0  0
  152.3925  138.6785  156.2732 H   0  0  0  0  0  0  0  0  0  0  0  0
  152.5556  141.1034  155.8973 H   0  0  0  0  0  0  0  0  0  0  0  0
  150.8017  141.2749  155.9001 H   0  0  0  0  0  0  0  0  0  0  0  0
  151.5805  142.6510  159.2604 H   0  0  0  0  0  0  0  0  0  0  0  0
  151.9426  143.8392  161.3924 H   0  0  0  0  0  0  0  0  0  0  0  0
  153.4889  142.9066  163.1035 H   0  0  0  0  0  0  0  0  0  0  0  0
  154.6791  140.7673  162.6645 H   0  0  0  0  0  0  0  0  0  0  0  0
  154.3419  139.5643  160.5471 H   0  0  0  0  0  0  0  0  0  0  0  0
  152.1675  138.9021  153.9037 H   0  0  0  0  0  0  0  0  0  0  0  0
  150.1121  139.5478  153.0426 H   0  0  0  0  0  0  0  0  0  0  0  0
  149.8028  137.4195  153.7618 H   0  0  0  0  0  0  0  0  0  0  0  0
  151.4150  136.1304  153.4941 H   0  0  0  0  0  0  0  0  0  0  0  0
  1  2  1  0  0  0  0
  1 28  1  0  0  0  0
  1 29  1  0  0  0  0
  1 30  1  0  0  0  0
  2 25  1  0  0  0  0
  2  3  2  0  0  0  0
  3  4  1  0  0  0  0
  3 31  1  0  0  0  0
  4  5  1  0  0  0  0
  4 22  1  0  0  0  0
  5 20  1  0  0  0  0
  5  6  1  0  0  0  0
  5 32  1  0  0  0  0
  6  7  1  0  0  0  0
  7  8  1  0  0  0  0
  7 18  1  0  0  0  0
  7 33  1  0  0  0  0
  8  9  1  0  0  0  0
  8 34  1  0  0  0  0
  8 35  1  0  0  0  0
  9 10  1  0  0  0  0
 10 11  2  0  0  0  0
 10 12  1  0  0  0  0
 12 17  1  0  0  0  0
 12 13  2  0  0  0  0
 13 14  1  0  0  0  0
 13 36  1  0  0  0  0
 14 15  2  0  0  0  0
 14 37  1  0  0  0  0
 15 16  1  0  0  0  0
 15 38  1  0  0  0  0
 16 17  2  0  0  0  0
 16 39  1  0  0  0  0
 17 40  1  0  0  0  0
 18 19  1  0  0  0  0
 18 20  1  0  0  0  0
 18 41  1  0  0  0  0
 19 42  1  0  0  0  0
 20 21  1  0  0  0  0
 20 43  1  0  0  0  0
 21 44  1  0  0  0  0
 22 23  2  0  0  0  0
 22 24  1  0  0  0  0
 24 27  1  0  0  0  0
 24 25  1  0  0  0  0
 25 26  2  0  0  0  0
M  END
> <s_m_source_file>
AV-unprocessed.smi

> <i_m_source_file_index>
101

> <i_lp_mmshare_version>
43012

> <i_f3d_flags>
0

> <s_epik_input>
Tz1jMVtuSF1jKD1PKW4oW2NIXWMxW0NIM10pW0NAQEhdMk9bQ0BIXShbQ0BASF0oW09IXSlbQ0BIXTJbT0hdKVtDSDJdT0MoPU8pYzNbY0hdW2NIXVtjSF1bY0hdW2NIXTM=

> <s_epik_cmdline>
J2VwaWtfcHl0aG9uJywgJy1waCcsICc3LjAnLCAnLXRuJywgJzgnLCAnLW1hJywgJzIwMCcsICctbWV0YWxfYmluZGluZycsICctaW1hZScsICc8aW5maWxlLm1hZT4nLCAnLW9tYWUnLCAnPG91dGZpbGUubWFlPic=

> <r_lp_tautomer_probability>
0.999537

> <r_epik_Ionization_Penalty>
0.00263537

> <r_epik_Ionization_Penalty_Charging>
0.00263428

> <r_epik_Ionization_Penalty_Neutral>
1.09111e-06

> <r_epik_State_Penalty>
0.00183335

> <r_epik_Charging_Adjusted_Penalty>
0.00446763

> <i_epik_Tot_Q>
0

> <i_epik_Tot_abs_Q>
0

> <r_epik_Metal_State_Penalty>
1.00528

> <b_epik_Metal_Only>
0

> <s_epik_Chemistry_Notes>
This compound has an ester and may undergo hydrolysis at high or low pH. This compound contains an acetal/aminal-like group ( X-CH(R)-Y where X, Y are N, S, or O) that may be acid/base labile, releasing an aldehyde.

> <s_lp_Force_Field>
OPLS_2005

> <r_lp_Energy>
30.9331

> <b_lp_Chiralities_Consistent>
1

> <s_lp_Variant>
AV-unprocessed.smi:101-7

> <Gold.Version>
5.8.1

> <Gold.Id.Protein>
6NUR|6NUR_protein|mol2

> <Gold.PLP.Fitness>
53.5304

> <Gold.PLP.PLP>
-38.8251

> <Gold.PLP.part.hbond>
-5.0000

> <Gold.PLP.part.metal>
0.0000

> <Gold.PLP.part.buried>
-3.8312

> <Gold.PLP.part.nonpolar>
-29.4193

> <Gold.PLP.part.repulsive>
0.0189

> <Gold.PLP.ligand.clash>
0.0000

> <Gold.PLP.ligand.torsion>
0.5698

> <Gold.PLP.Chemscore.Hbond>
4.2692

> <Gold.PLP.Chemscore.CHOScore>
1.0000

> <Gold.PLP.Chemscore.Metal>
0.0000

> <Gold.Chemscore.Hbonds>
donor molecule, donor type, donor heavy atom, donor atom, acceptor molecule, acceptor atom, score
      L1  H    19    42       P1  7957  0.93
      L1  H    21    44       P1  7949  1.00
      P1  H  7989  7998       L1    19  0.65
      P1  H  7997  8010       L1    11  0.98
      P1  H 10752 10764       L1    21  0.60
      L1  C     3    31       P1  7948  1.00

> <Gold.PLP.Chemscore.Internal.Correction>
0.0373

> <Gold.Rescore>
     Score         DG    S(hbond)    S(metal)    S(lipo)     H(rot)  DE(clash)    DE(int)     intcor
     15.05     -17.78       2.88        0.00      95.48       3.32       0.07       2.67       ----

> <Gold.Chemscore.Fitness>
15.0458

> <Gold.Chemscore.DG>
-17.7845

> <Gold.Chemscore.ZeroCoef>
-5.4800

> <Gold.Chemscore.Hbond>
2.8820

> <Gold.Chemscore.Metal>
0.0000

> <Gold.Chemscore.Lipo>
95.4768

> <Gold.Chemscore.Internal_Hbond>
0.0000

> <Gold.Chemscore.DEClash>
0.0733

> <Gold.Chemscore.DEInternal>
2.6654

> <Gold.Chemscore.Rot>
3.3172

> <Gold.Chemscore.Internal.Correction>
   9.000000E+99

> <Gold.Chemscore.Hbonds>
donor molecule, donor type, donor heavy atom, donor atom, acceptor molecule, acceptor atom, score
      L1  H    19    42       P1  7957  0.86
      L1  H    21    44       P1  7949  0.70
      P1  H  7989  7998       L1    19  0.01
      P1  H  7997  8010       L1    11  0.42
      P1  H 10752 10764       L1    21  0.04

> <Gold.Chemscore.Hbond.Weighted>
-9.6257

> <Gold.Chemscore.Metal.Weighted>
-0.0000

> <Gold.Chemscore.Lipo.Weighted>
-11.1708

> <Gold.Chemscore.Internal_Hbond.Weighted>
0.0000

> <Gold.Chemscore.DEClash.Weighted>
0.0733

> <Gold.Chemscore.DEInternal.Weighted>
2.6654

> <Gold.Chemscore.Rot.Weighted>
8.4920

> <Gold.Chemscore.Internal.Correction.Weighted>
   9.000000E+99

> <Gold.Protein.RotatedTorsions>
[ 6907 6896 6895 6894 ] final -135.62 input  -60.11 | X-H torsion
[ 7974 7965 7964 7962 ] final -130.91 input  175.53 | X-H torsion
[ 8008 7997 7996 7995 ] final   56.20 input   59.86 | X-H torsion
[ 10167 10162 10161 10158 ] final -162.75 input  -65.29 | X-H torsion
[ 10718 10713 10712 10709 ] final  102.86 input   66.30 | X-H torsion
[ 10763 10752 10751 10750 ] final  -54.41 input  -60.55 | X-H torsion
[ 11005 11000 10999 10996 ] final -138.93 input  -57.11 | X-H torsion

> <Gold.Protein.ActiveResidues>
 VAL166  LYS551  ARG553  GLY616  TRP617  ASP618  TYR619  PRO620  LYS621  CYS622 
 ASP623  PHE694  ASN695  SER759  ASP760  ASP761  ALA762  ILE779  LEU786  VAL792 
 PHE793  MET794  SER795  GLU796  ALA797  LYS798  CYS799  TRP800  GLU811  SER814 

> <Gold.Protein.RotatedAtoms>
  151.0001  133.6065  159.2696 H   0  0  0  0  0  0  0  0  0  0  0  0  # atno 6907 bound_to 6896
  151.3254  135.0828  159.9330 H   0  0  0  0  0  0  0  0  0  0  0  0  # atno 6908 bound_to 6896
  152.5271  133.9640  159.7785 H   0  0  0  0  0  0  0  0  0  0  0  0  # atno 6909 bound_to 6896
  144.9429  140.7259  143.4835 H   0  0  0  0  0  0  0  0  0  0  0  0  # atno 7974 bound_to 7965
  155.5136  140.3478  155.4393 H   0  0  0  0  0  0  0  0  0  0  0  0  # atno 8008 bound_to 7997
  156.0833  140.1392  156.9712 H   0  0  0  0  0  0  0  0  0  0  0  0  # atno 8009 bound_to 7997
  154.4592  140.0941  156.6821 H   0  0  0  0  0  0  0  0  0  0  0  0  # atno 8010 bound_to 7997
  139.6370  144.0331  152.2062 H   0  0  0  0  0  0  0  0  0  0  0  0  # atno 10167 bound_to 10162
  157.6790  131.0764  150.5468 H   0  0  0  0  0  0  0  0  0  0  0  0  # atno 10718 bound_to 10713
  154.1744  135.6454  153.5017 H   0  0  0  0  0  0  0  0  0  0  0  0  # atno 10763 bound_to 10752
  153.0076  135.5391  154.6580 H   0  0  0  0  0  0  0  0  0  0  0  0  # atno 10764 bound_to 10752
  154.5927  135.2936  155.0591 H   0  0  0  0  0  0  0  0  0  0  0  0  # atno 10765 bound_to 10752
  140.8569  134.2217  157.4729 H   0  0  0  0  0  0  0  0  0  0  0  0  # atno 11005 bound_to 11000
  145.2963  139.1866  143.4714 LP  0  0  0  0  0  0  0  0  0  0  0  0  # atno 17320 bound_to 7965
  146.3293  140.2947  142.8617 LP  0  0  0  0  0  0  0  0  0  0  0  0  # atno 17321 bound_to 7965
  140.0011  144.6292  150.7729 LP  0  0  0  0  0  0  0  0  0  0  0  0  # atno 17342 bound_to 10162
  140.7470  143.2900  151.3356 LP  0  0  0  0  0  0  0  0  0  0  0  0  # atno 17343 bound_to 10162
  156.5774  130.4295  149.5992 LP  0  0  0  0  0  0  0  0  0  0  0  0  # atno 17370 bound_to 10713
  156.2690  130.7006  151.1798 LP  0  0  0  0  0  0  0  0  0  0  0  0  # atno 17371 bound_to 10713
  139.8705  134.9710  156.4723 LP  0  0  0  0  0  0  0  0  0  0  0  0  # atno 17394 bound_to 11000
  140.8727  133.7976  155.9382 LP  0  0  0  0  0  0  0  0  0  0  0  0  # atno 17395 bound_to 11000

$$$$
