AV-unprocessed.smi:18|AV-procd|sdf|107|dock8
  -GOLD-   2262015263D 1   1.00000     0.00000
 Structure written by MMmdl.
 47 50  0  0  0  0  0  0  0  0  1 V2000
  147.2836  140.3961  152.9713 O   0  0  0  0  0  0  0  0  0  0  0  0
  147.4722  140.1462  154.3495 C   0  0  0  0  0  0  0  0  0  0  0  0
  148.2334  138.8296  154.5844 C   0  0  0  0  0  0  0  0  0  0  0  0
  149.7134  138.9685  154.1700 C   0  0  0  0  0  0  0  0  0  0  0  0
  150.5796  139.4787  155.2218 N   0  0  0  0  0  0  0  0  0  0  0  0
  151.9428  139.3053  155.3211 C   0  0  0  0  0  0  0  0  0  0  0  0
  152.5035  139.8677  156.3570 N   0  0  0  0  0  0  0  0  0  0  0  0
  151.4437  140.4597  157.0310 C   0  0  0  0  0  0  0  0  0  0  0  0
  151.3392  141.2291  158.2200 C   0  0  0  0  0  0  0  0  0  0  0  0
  152.4229  141.5239  158.9775 N   0  0  0  0  0  0  0  0  0  0  0  0
  153.2775  140.3470  159.0983 C   0  0  0  0  0  0  0  0  0  0  0  0
  154.5922  140.7066  159.8012 C   0  0  0  0  0  0  0  0  0  0  0  0
  154.2928  141.2777  161.0667 O   0  0  0  0  0  0  0  0  0  0  0  0
  153.5541  142.4865  160.9389 C   0  0  0  0  0  0  0  0  0  0  0  0
  152.1942  142.2312  160.2467 C   0  0  1  0  0  0  0  0  0  0  0  0
  151.4259  143.5634  160.0431 C   0  0  0  0  0  0  0  0  0  0  0  0
  152.2855  144.7121  159.4932 C   0  0  0  0  0  0  0  0  0  0  0  0
  152.3540  144.6258  158.1652 F   0  0  0  0  0  0  0  0  0  0  0  0
  151.7605  145.8914  159.8243 F   0  0  0  0  0  0  0  0  0  0  0  0
  150.1005  141.6407  158.6018 N   0  0  0  0  0  0  0  0  0  0  0  0
  149.0349  141.3344  157.8557 C   0  0  0  0  0  0  0  0  0  0  0  0
  148.9849  140.6382  156.7180 N   0  0  0  0  0  0  0  0  0  0  0  0
  150.2251  140.2170  156.3377 C   0  0  0  0  0  0  0  0  0  0  0  0
  147.9752  138.1891  155.9560 C   0  0  0  0  0  0  0  0  0  0  0  0
  147.0300  137.2509  155.4003 O   0  0  0  0  0  0  0  0  0  0  0  0
  147.5132  137.5720  154.0790 C   0  0  0  0  0  0  0  0  0  0  0  0
  148.1314  140.4579  152.5584 H   0  0  0  0  0  0  0  0  0  0  0  0
  147.9841  140.9953  154.8020 H   0  0  0  0  0  0  0  0  0  0  0  0
  146.4877  140.1068  154.8171 H   0  0  0  0  0  0  0  0  0  0  0  0
  150.1117  138.0052  153.8487 H   0  0  0  0  0  0  0  0  0  0  0  0
  149.8082  139.6237  153.3034 H   0  0  0  0  0  0  0  0  0  0  0  0
  152.5141  138.7532  154.5890 H   0  0  0  0  0  0  0  0  0  0  0  0
  152.7547  139.5744  159.6642 H   0  0  0  0  0  0  0  0  0  0  0  0
  153.4932  139.9324  158.1124 H   0  0  0  0  0  0  0  0  0  0  0  0
  155.1977  139.8121  159.9479 H   0  0  0  0  0  0  0  0  0  0  0  0
  155.1833  141.3997  159.2001 H   0  0  0  0  0  0  0  0  0  0  0  0
  153.4067  142.8870  161.9409 H   0  0  0  0  0  0  0  0  0  0  0  0
  154.1427  143.2213  160.3869 H   0  0  0  0  0  0  0  0  0  0  0  0
  151.6047  141.5789  160.8926 H   0  0  0  0  0  0  0  0  0  0  0  0
  150.5807  143.3941  159.3746 H   0  0  0  0  0  0  0  0  0  0  0  0
  150.9946  143.9058  160.9833 H   0  0  0  0  0  0  0  0  0  0  0  0
  153.3103  144.6861  159.8616 H   0  0  0  0  0  0  0  0  0  0  0  0
  148.0870  141.6995  158.2227 H   0  0  0  0  0  0  0  0  0  0  0  0
  148.8385  137.6766  156.3820 H   0  0  0  0  0  0  0  0  0  0  0  0
  147.5235  138.8628  156.6850 H   0  0  0  0  0  0  0  0  0  0  0  0
  146.7063  137.7720  153.3732 H   0  0  0  0  0  0  0  0  0  0  0  0
  148.1839  136.8014  153.6953 H   0  0  0  0  0  0  0  0  0  0  0  0
  1  2  1  0  0  0  0
  1 27  1  0  0  0  0
  2  3  1  0  0  0  0
  2 28  1  0  0  0  0
  2 29  1  0  0  0  0
  3 26  1  0  0  0  0
  3  4  1  0  0  0  0
  3 24  1  0  0  0  0
  4  5  1  0  0  0  0
  4 30  1  0  0  0  0
  4 31  1  0  0  0  0
  5 23  1  0  0  0  0
  5  6  1  0  0  0  0
  6  7  2  0  0  0  0
  6 32  1  0  0  0  0
  7  8  1  0  0  0  0
  8 23  2  0  0  0  0
  8  9  1  0  0  0  0
  9 10  1  0  0  0  0
  9 20  2  0  0  0  0
 10 15  1  0  0  0  0
 10 11  1  0  0  0  0
 11 12  1  0  0  0  0
 11 33  1  0  0  0  0
 11 34  1  0  0  0  0
 12 13  1  0  0  0  0
 12 35  1  0  0  0  0
 12 36  1  0  0  0  0
 13 14  1  0  0  0  0
 14 15  1  0  0  0  0
 14 37  1  0  0  0  0
 14 38  1  0  0  0  0
 15 16  1  0  0  0  0
 15 39  1  0  0  0  0
 16 17  1  0  0  0  0
 16 40  1  0  0  0  0
 16 41  1  0  0  0  0
 17 18  1  0  0  0  0
 17 19  1  0  0  0  0
 17 42  1  0  0  0  0
 20 21  1  0  0  0  0
 21 22  2  0  0  0  0
 21 43  1  0  0  0  0
 22 23  1  0  0  0  0
 24 25  1  0  0  0  0
 24 44  1  0  0  0  0
 24 45  1  0  0  0  0
 25 26  1  0  0  0  0
 26 46  1  0  0  0  0
 26 47  1  0  0  0  0
M  END
> <s_m_source_file>
AV-unprocessed.smi

> <i_m_source_file_index>
18

> <i_lp_mmshare_version>
43012

> <i_f3d_flags>
0

> <s_epik_input>
W0NIMl0xT1tDSDJdQzEoW0NIMl1bT0hdKVtDSDJdbihbY0hdbjIpYyhjMjMpbltjSF1uYzNONFtDSDJdW0NIMl1PW0NIMl1bQ0BIXTRbQ0gyXVtDSF0oRilG

> <s_epik_cmdline>
J2VwaWtfcHl0aG9uJywgJy1waCcsICc3LjAnLCAnLXRuJywgJzgnLCAnLW1hJywgJzIwMCcsICctbWV0YWxfYmluZGluZycsICctaW1hZScsICc8aW5maWxlLm1hZT4nLCAnLW9tYWUnLCAnPG91dGZpbGUubWFlPic=

> <r_lp_tautomer_probability>
1

> <r_epik_Ionization_Penalty>
6.63711e-05

> <r_epik_Ionization_Penalty_Charging>
0

> <r_epik_Ionization_Penalty_Neutral>
6.63711e-05

> <r_epik_State_Penalty>
-0

> <r_epik_Charging_Adjusted_Penalty>
0

> <i_epik_Tot_Q>
0

> <i_epik_Tot_abs_Q>
0

> <r_epik_Metal_State_Penalty>
-0

> <b_epik_Metal_Only>
0

> <s_lp_Force_Field>
OPLS_2005

> <r_lp_Energy>
38.6486

> <b_lp_Chiralities_Consistent>
1

> <s_lp_Variant>
AV-unprocessed.smi:18-1

> <Gold.Version>
5.8.1

> <Gold.Id.Protein>
6NUR|6NUR_protein|mol2

> <Gold.PLP.Fitness>
48.6118

> <Gold.PLP.PLP>
-45.4955

> <Gold.PLP.part.hbond>
-2.0000

> <Gold.PLP.part.metal>
0.0000

> <Gold.PLP.part.buried>
-3.1637

> <Gold.PLP.part.nonpolar>
-39.9010

> <Gold.PLP.part.repulsive>
0.1233

> <Gold.PLP.ligand.clash>
0.2098

> <Gold.PLP.ligand.torsion>
1.6078

> <Gold.PLP.Chemscore.Hbond>
2.0000

> <Gold.PLP.Chemscore.CHOScore>
0.0000

> <Gold.PLP.Chemscore.Metal>
0.0000

> <Gold.Chemscore.Hbonds>
donor molecule, donor type, donor heavy atom, donor atom, acceptor molecule, acceptor atom, score
      L1  H     1    27       P1  7957  0.91
      P1  H  7997  8009       L1     7  0.99

> <Gold.PLP.Chemscore.Internal.Correction>
0.5418

> <Gold.Rescore>
     Score         DG    S(hbond)    S(metal)    S(lipo)     H(rot)  DE(clash)    DE(int)     intcor
      5.27     -14.05       1.81        0.00      86.47       2.96       1.99       6.80       ----

> <Gold.Chemscore.Fitness>
5.2681

> <Gold.Chemscore.DG>
-14.0536

> <Gold.Chemscore.ZeroCoef>
-5.4800

> <Gold.Chemscore.Hbond>
1.8099

> <Gold.Chemscore.Metal>
0.0000

> <Gold.Chemscore.Lipo>
86.4711

> <Gold.Chemscore.Internal_Hbond>
0.0000

> <Gold.Chemscore.DEClash>
1.9869

> <Gold.Chemscore.DEInternal>
6.7986

> <Gold.Chemscore.Rot>
2.9643

> <Gold.Chemscore.Internal.Correction>
   9.000000E+99

> <Gold.Chemscore.Hbonds>
donor molecule, donor type, donor heavy atom, donor atom, acceptor molecule, acceptor atom, score
      L1  H     1    27       P1  7957  0.87
      P1  H  7997  8009       L1     7  0.94

> <Gold.Chemscore.Hbond.Weighted>
-6.0450

> <Gold.Chemscore.Metal.Weighted>
-0.0000

> <Gold.Chemscore.Lipo.Weighted>
-10.1171

> <Gold.Chemscore.Internal_Hbond.Weighted>
0.0000

> <Gold.Chemscore.DEClash.Weighted>
1.9869

> <Gold.Chemscore.DEInternal.Weighted>
6.7986

> <Gold.Chemscore.Rot.Weighted>
7.5886

> <Gold.Chemscore.Internal.Correction.Weighted>
   9.000000E+99

> <Gold.Protein.RotatedTorsions>
[ 6907 6896 6895 6894 ] final  -56.67 input  -60.11 | X-H torsion
[ 7974 7965 7964 7962 ] final -177.37 input  175.53 | X-H torsion
[ 8008 7997 7996 7995 ] final  177.16 input   59.86 | X-H torsion
[ 10167 10162 10161 10158 ] final  -57.91 input  -65.29 | X-H torsion
[ 10718 10713 10712 10709 ] final -118.11 input   66.30 | X-H torsion
[ 10763 10752 10751 10750 ] final -117.91 input  -60.55 | X-H torsion
[ 11005 11000 10999 10996 ] final  -77.90 input  -57.11 | X-H torsion

> <Gold.Protein.ActiveResidues>
 VAL166  LYS551  ARG553  GLY616  TRP617  ASP618  TYR619  PRO620  LYS621  CYS622 
 ASP623  PHE694  ASN695  SER759  ASP760  ASP761  ALA762  ILE779  LEU786  VAL792 
 PHE793  MET794  SER795  GLU796  ALA797  LYS798  CYS799  TRP800  GLU811  SER814 

> <Gold.Protein.RotatedAtoms>
  150.8149  134.7325  159.6720 H   0  0  0  0  0  0  0  0  0  0  0  0  # atno 6907 bound_to 6896
  152.4268  134.5851  159.9968 H   0  0  0  0  0  0  0  0  0  0  0  0  # atno 6908 bound_to 6896
  151.6050  133.3315  159.3091 H   0  0  0  0  0  0  0  0  0  0  0  0  # atno 6909 bound_to 6896
  144.7127  140.1029  143.6415 H   0  0  0  0  0  0  0  0  0  0  0  0  # atno 7974 bound_to 7965
  156.0687  140.1365  156.9855 H   0  0  0  0  0  0  0  0  0  0  0  0  # atno 8008 bound_to 7997
  154.4520  140.0976  156.6698 H   0  0  0  0  0  0  0  0  0  0  0  0  # atno 8009 bound_to 7997
  155.5263  140.3457  155.4419 H   0  0  0  0  0  0  0  0  0  0  0  0  # atno 8010 bound_to 7997
  140.6229  143.2427  151.5435 H   0  0  0  0  0  0  0  0  0  0  0  0  # atno 10167 bound_to 10162
  156.1083  130.6228  150.9250 H   0  0  0  0  0  0  0  0  0  0  0  0  # atno 10718 bound_to 10713
  154.8570  135.4293  154.2054 H   0  0  0  0  0  0  0  0  0  0  0  0  # atno 10763 bound_to 10752
  153.3092  135.6974  153.7137 H   0  0  0  0  0  0  0  0  0  0  0  0  # atno 10764 bound_to 10752
  153.6237  135.3497  155.2993 H   0  0  0  0  0  0  0  0  0  0  0  0  # atno 10765 bound_to 10752
  141.1662  133.7041  156.7891 H   0  0  0  0  0  0  0  0  0  0  0  0  # atno 11005 bound_to 11000
  145.9522  139.2741  143.1205 LP  0  0  0  0  0  0  0  0  0  0  0  0  # atno 17320 bound_to 7965
  145.9311  140.9048  143.0356 LP  0  0  0  0  0  0  0  0  0  0  0  0  # atno 17321 bound_to 7965
  139.5454  144.2534  152.1433 LP  0  0  0  0  0  0  0  0  0  0  0  0  # atno 17342 bound_to 10162
  140.1758  144.4891  150.6554 LP  0  0  0  0  0  0  0  0  0  0  0  0  # atno 17343 bound_to 10162
  157.6261  131.0925  150.8530 LP  0  0  0  0  0  0  0  0  0  0  0  0  # atno 17370 bound_to 10713
  156.8645  130.5124  149.5301 LP  0  0  0  0  0  0  0  0  0  0  0  0  # atno 17371 bound_to 10713
  140.2339  134.8665  157.3504 LP  0  0  0  0  0  0  0  0  0  0  0  0  # atno 17394 bound_to 11000
  140.1864  134.4426  155.7741 LP  0  0  0  0  0  0  0  0  0  0  0  0  # atno 17395 bound_to 11000

$$$$
