AV-unprocessed.smi:3187|AV-procd|sdf|12179|dock5
  -GOLD-   2272018 23D 1   1.00000     0.00000
 Structure written by MMmdl.
 42 43  0  0  0  0  0  0  0  0  3 V2000
  151.8802  145.2993  159.3165 C   0  0  0  0  0  0  0  0  0  0  0  0
  152.0004  143.7867  159.2287 C   0  0  0  0  0  0  0  0  0  0  0  0
  152.8481  143.1156  160.0336 C   0  0  0  0  0  0  0  0  0  0  0  0
  153.0817  141.6157  159.9887 C   0  0  0  0  0  0  0  0  0  0  0  0
  152.1057  140.8809  159.0555 C   0  0  0  0  0  0  0  0  0  0  0  0
  151.8067  141.7083  157.7935 C   0  0  1  0  0  0  0  0  0  0  0  0
  151.0331  140.8985  156.7386 C   0  0  0  0  0  0  0  0  0  0  0  0
  151.1581  143.0727  158.1624 C   0  0  1  0  0  0  0  0  0  0  0  0
  149.6696  142.9439  158.5806 C   0  0  0  0  0  0  0  0  0  0  0  0
  148.7655  142.7562  157.4287 N   0  3  0  0  0  0  0  0  0  0  0  0
  147.3406  142.6306  157.7915 C   0  0  0  0  0  0  0  0  0  0  0  0
  146.5599  141.8734  156.7078 C   0  0  0  0  0  0  0  0  0  0  0  0
  145.6275  142.7497  155.9946 N   0  0  0  0  0  0  0  0  0  0  0  0
  145.2991  144.0437  156.3087 C   0  0  0  0  0  0  0  0  0  0  0  0
  144.3899  144.4555  155.3683 C   0  0  0  0  0  0  0  0  0  0  0  0
  144.2028  143.3970  154.5203 N   0  3  0  0  0  0  0  0  0  0  0  0
  144.9566  142.3606  154.9022 C   0  0  0  0  0  0  0  0  0  0  0  0
  151.9504  145.7482  158.3254 H   0  0  0  0  0  0  0  0  0  0  0  0
  152.6805  145.7202  159.9263 H   0  0  0  0  0  0  0  0  0  0  0  0
  150.9380  145.6000  159.7713 H   0  0  0  0  0  0  0  0  0  0  0  0
  153.4420  143.6585  160.7547 H   0  0  0  0  0  0  0  0  0  0  0  0
  154.1050  141.4557  159.6476 H   0  0  0  0  0  0  0  0  0  0  0  0
  153.0189  141.2062  160.9973 H   0  0  0  0  0  0  0  0  0  0  0  0
  152.5258  139.9108  158.7869 H   0  0  0  0  0  0  0  0  0  0  0  0
  151.1779  140.6694  159.5872 H   0  0  0  0  0  0  0  0  0  0  0  0
  152.7704  141.9378  157.3350 H   0  0  0  0  0  0  0  0  0  0  0  0
  150.1086  140.4820  157.1386 H   0  0  0  0  0  0  0  0  0  0  0  0
  151.6323  140.0605  156.3812 H   0  0  0  0  0  0  0  0  0  0  0  0
  150.7841  141.5133  155.8733 H   0  0  0  0  0  0  0  0  0  0  0  0
  151.1976  143.6855  157.2604 H   0  0  0  0  0  0  0  0  0  0  0  0
  149.5245  142.0862  159.2361 H   0  0  0  0  0  0  0  0  0  0  0  0
  149.3576  143.8273  159.1389 H   0  0  0  0  0  0  0  0  0  0  0  0
  148.8712  143.5501  156.8129 H   0  0  0  0  0  0  0  0  0  0  0  0
  147.2569  142.1099  158.7466 H   0  0  0  0  0  0  0  0  0  0  0  0
  146.9178  143.6272  157.9281 H   0  0  0  0  0  0  0  0  0  0  0  0
  147.2412  141.4438  155.9717 H   0  0  0  0  0  0  0  0  0  0  0  0
  145.9917  141.0484  157.1406 H   0  0  0  0  0  0  0  0  0  0  0  0
  145.7245  144.5638  157.1549 H   0  0  0  0  0  0  0  0  0  0  0  0
  143.8760  145.3976  155.2423 H   0  0  0  0  0  0  0  0  0  0  0  0
  145.0100  141.3999  154.4214 H   0  0  0  0  0  0  0  0  0  0  0  0
  149.0509  141.9235  156.9328 H   0  0  0  0  0  0  0  0  0  0  0  0
  143.5844  143.3966  153.7185 H   0  0  0  0  0  0  0  0  0  0  0  0
  1  2  1  0  0  0  0
  1 18  1  0  0  0  0
  1 19  1  0  0  0  0
  1 20  1  0  0  0  0
  2  8  1  0  0  0  0
  2  3  2  0  0  0  0
  3  4  1  0  0  0  0
  3 21  1  0  0  0  0
  4  5  1  0  0  0  0
  4 22  1  0  0  0  0
  4 23  1  0  0  0  0
  5  6  1  0  0  0  0
  5 24  1  0  0  0  0
  5 25  1  0  0  0  0
  6  7  1  0  0  0  0
  6  8  1  0  0  0  0
  6 26  1  0  0  0  0
  7 27  1  0  0  0  0
  7 28  1  0  0  0  0
  7 29  1  0  0  0  0
  8  9  1  0  0  0  0
  8 30  1  0  0  0  0
  9 10  1  0  0  0  0
  9 31  1  0  0  0  0
  9 32  1  0  0  0  0
 10 11  1  0  0  0  0
 10 33  1  0  0  0  0
 10 41  1  0  0  0  0
 11 12  1  0  0  0  0
 11 34  1  0  0  0  0
 11 35  1  0  0  0  0
 12 13  1  0  0  0  0
 12 36  1  0  0  0  0
 12 37  1  0  0  0  0
 13 17  1  0  0  0  0
 13 14  1  0  0  0  0
 14 15  2  0  0  0  0
 14 38  1  0  0  0  0
 15 16  1  0  0  0  0
 15 39  1  0  0  0  0
 16 17  2  0  0  0  0
 16 42  1  0  0  0  0
 17 40  1  0  0  0  0
M  CHG  1  10   1
M  CHG  1  16   1
M  END
> <s_m_source_file>
AV-unprocessed.smi

> <i_m_source_file_index>
3187

> <i_lp_mmshare_version>
43012

> <i_f3d_flags>
0

> <s_epik_input>
W0NIM11DMT1bQ0hdW0NIMl1bQ0gyXVtDQEBIXShbQ0gzXSlbQ0BIXTFbQ0gyXVtOSF1bQ0gyXVtDSDJdbjJbY0hdW2NIXW5bY0hdMg==

> <s_epik_cmdline>
J2VwaWtfcHl0aG9uJywgJy1waCcsICc3LjAnLCAnLXRuJywgJzgnLCAnLW1hJywgJzIwMCcsICctbWV0YWxfYmluZGluZycsICctaW1hZScsICc8aW5maWxlLm1hZT4nLCAnLW9tYWUnLCAnPG91dGZpbGUubWFlPic=

> <r_lp_tautomer_probability>
1

> <r_epik_Ionization_Penalty>
1.51066

> <r_epik_Ionization_Penalty_Charging>
0.0026721

> <r_epik_Ionization_Penalty_Neutral>
1.50798

> <r_epik_State_Penalty>
1.12593

> <r_epik_Charging_Adjusted_Penalty>
1.12861

> <i_epik_Tot_Q>
2

> <i_epik_Tot_abs_Q>
2

> <r_epik_Metal_State_Penalty>
5.12155

> <b_epik_Metal_Only>
0

> <s_lp_Force_Field>
OPLS_2005

> <r_lp_Energy>
24.2531

> <b_lp_Chiralities_Consistent>
1

> <s_lp_Variant>
AV-unprocessed.smi:3187-5

> <Gold.Version>
5.8.1

> <Gold.Id.Protein>
6NUR|6NUR_protein|mol2

> <Gold.PLP.Fitness>
48.9154

> <Gold.PLP.PLP>
-34.4281

> <Gold.PLP.part.hbond>
-2.0707

> <Gold.PLP.part.metal>
0.0000

> <Gold.PLP.part.buried>
-4.9607

> <Gold.PLP.part.nonpolar>
-27.4247

> <Gold.PLP.part.repulsive>
0.0525

> <Gold.PLP.ligand.clash>
0.0000

> <Gold.PLP.ligand.torsion>
0.7344

> <Gold.PLP.Chemscore.Hbond>
3.9825

> <Gold.PLP.Chemscore.CHOScore>
1.3150

> <Gold.PLP.Chemscore.Metal>
0.0000

> <Gold.Chemscore.Hbonds>
donor molecule, donor type, donor heavy atom, donor atom, acceptor molecule, acceptor atom, score
      L1  H    10    33       P1  8028  2.00
      L1  H    16    42       P1 10174  1.95
      L1  C    14    38       P1  8029  0.35
      L1  C    17    40       P1 10175  0.98

> <Gold.PLP.Chemscore.Internal.Correction>
0.0636

> <Gold.Rescore>
     Score         DG    S(hbond)    S(metal)    S(lipo)     H(rot)  DE(clash)    DE(int)     intcor
     15.46     -17.30       1.68        0.00      96.13       1.97       0.20       1.64       ----

> <Gold.Chemscore.Fitness>
15.4637

> <Gold.Chemscore.DG>
-17.2992

> <Gold.Chemscore.ZeroCoef>
-5.4800

> <Gold.Chemscore.Hbond>
1.6837

> <Gold.Chemscore.Metal>
0.0000

> <Gold.Chemscore.Lipo>
96.1271

> <Gold.Chemscore.Internal_Hbond>
0.0000

> <Gold.Chemscore.DEClash>
0.1980

> <Gold.Chemscore.DEInternal>
1.6374

> <Gold.Chemscore.Rot>
1.9732

> <Gold.Chemscore.Internal.Correction>
   9.000000E+99

> <Gold.Chemscore.Hbonds>
donor molecule, donor type, donor heavy atom, donor atom, acceptor molecule, acceptor atom, score
      L1  H    10    33       P1  8028  0.60
      L1  H    16    42       P1 10174  0.62

> <Gold.Chemscore.Hbond.Weighted>
-5.6237

> <Gold.Chemscore.Metal.Weighted>
-0.0000

> <Gold.Chemscore.Lipo.Weighted>
-11.2469

> <Gold.Chemscore.Internal_Hbond.Weighted>
0.0000

> <Gold.Chemscore.DEClash.Weighted>
0.1980

> <Gold.Chemscore.DEInternal.Weighted>
1.6374

> <Gold.Chemscore.Rot.Weighted>
5.0514

> <Gold.Chemscore.Internal.Correction.Weighted>
   9.000000E+99

> <Gold.Protein.RotatedTorsions>
[ 6907 6896 6895 6894 ] final  -91.04 input  -60.11 | X-H torsion
[ 7974 7965 7964 7962 ] final  115.82 input  175.53 | X-H torsion
[ 8008 7997 7996 7995 ] final -169.13 input   59.86 | X-H torsion
[ 10167 10162 10161 10158 ] final -100.54 input  -65.29 | X-H torsion
[ 10718 10713 10712 10709 ] final  168.80 input   66.30 | X-H torsion
[ 10763 10752 10751 10750 ] final -169.23 input  -60.55 | X-H torsion
[ 11005 11000 10999 10996 ] final   91.99 input  -57.11 | X-H torsion

> <Gold.Protein.ActiveResidues>
 VAL166  LYS551  ARG553  GLY616  TRP617  ASP618  TYR619  PRO620  LYS621  CYS622 
 ASP623  PHE694  ASN695  SER759  ASP760  ASP761  ALA762  ILE779  LEU786  VAL792 
 PHE793  MET794  SER795  GLU796  ALA797  LYS798  CYS799  TRP800  GLU811  SER814 

> <Gold.Protein.RotatedAtoms>
  150.6888  134.2338  159.4444 H   0  0  0  0  0  0  0  0  0  0  0  0  # atno 6907 bound_to 6896
  152.0287  134.9778  160.0581 H   0  0  0  0  0  0  0  0  0  0  0  0  # atno 6908 bound_to 6896
  152.1326  133.4382  159.4765 H   0  0  0  0  0  0  0  0  0  0  0  0  # atno 6909 bound_to 6896
  145.1872  139.3019  143.4387 H   0  0  0  0  0  0  0  0  0  0  0  0  # atno 7974 bound_to 7965
  155.9008  140.1040  157.1351 H   0  0  0  0  0  0  0  0  0  0  0  0  # atno 8008 bound_to 7997
  154.4026  140.1293  156.4498 H   0  0  0  0  0  0  0  0  0  0  0  0  # atno 8009 bound_to 7997
  155.7425  140.3466  155.5113 H   0  0  0  0  0  0  0  0  0  0  0  0  # atno 8010 bound_to 7997
  140.2508  143.3474  152.0717 H   0  0  0  0  0  0  0  0  0  0  0  0  # atno 10167 bound_to 10162
  157.0318  131.0261  151.2742 H   0  0  0  0  0  0  0  0  0  0  0  0  # atno 10718 bound_to 10713
  154.6545  135.2916  154.9945 H   0  0  0  0  0  0  0  0  0  0  0  0  # atno 10763 bound_to 10752
  154.1026  135.6574  153.4875 H   0  0  0  0  0  0  0  0  0  0  0  0  # atno 10764 bound_to 10752
  153.0395  135.5246  154.7468 H   0  0  0  0  0  0  0  0  0  0  0  0  # atno 10765 bound_to 10752
  139.8830  134.8707  156.3508 H   0  0  0  0  0  0  0  0  0  0  0  0  # atno 11005 bound_to 11000
  146.3443  140.2072  142.8589 LP  0  0  0  0  0  0  0  0  0  0  0  0  # atno 17320 bound_to 7965
  145.0077  140.8687  143.5243 LP  0  0  0  0  0  0  0  0  0  0  0  0  # atno 17321 bound_to 7965
  139.5047  144.6780  151.6079 LP  0  0  0  0  0  0  0  0  0  0  0  0  # atno 17342 bound_to 10162
  140.6042  143.9554  150.6407 LP  0  0  0  0  0  0  0  0  0  0  0  0  # atno 17343 bound_to 10162
  157.5172  130.7975  149.7769 LP  0  0  0  0  0  0  0  0  0  0  0  0  # atno 17370 bound_to 10713
  156.0067  130.3852  150.2407 LP  0  0  0  0  0  0  0  0  0  0  0  0  # atno 17371 bound_to 10713
  140.9595  133.7398  156.0382 LP  0  0  0  0  0  0  0  0  0  0  0  0  # atno 17394 bound_to 11000
  140.8007  134.3512  157.5440 LP  0  0  0  0  0  0  0  0  0  0  0  0  # atno 17395 bound_to 11000

$$$$
