AV-unprocessed.smi:717|AV-procd|sdf|3490|dock4
  -GOLD-   22720 0483D 1   1.00000     0.00000
 Structure written by MMmdl.
 43 44  0  0  0  0  0  0  0  0  1 V2000
  151.5394  136.5338  155.9017 O   0  0  0  0  0  0  0  0  0  0  0  0
  150.9058  136.7095  154.8607 C   0  0  0  0  0  0  0  0  0  0  0  0
  151.1914  137.9294  153.9811 C   0  0  0  0  0  0  0  0  0  0  0  0
  150.7752  139.2103  154.6823 C   0  0  0  0  0  0  0  0  0  0  0  0
  151.5388  139.7351  155.7458 C   0  0  0  0  0  0  0  0  0  0  0  0
  151.1096  140.9234  156.3672 C   0  0  0  0  0  0  0  0  0  0  0  0
  149.9320  141.5382  155.8972 C   0  0  0  0  0  0  0  0  0  0  0  0
  149.1934  141.0460  154.8793 N   0  0  0  0  0  0  0  0  0  0  0  0
  149.6117  139.9057  154.2891 C   0  0  0  0  0  0  0  0  0  0  0  0
  149.9507  135.8719  154.4287 N   0  0  0  0  0  0  0  0  0  0  0  0
  149.5275  134.6555  155.1130 C   0  0  0  0  0  0  0  0  0  0  0  0
  149.7912  133.4021  154.2618 C   0  0  0  0  0  0  0  0  0  0  0  0
  148.4972  132.6764  153.8672 C   0  0  0  0  0  0  0  0  0  0  0  0
  147.7896  133.3415  152.6761 C   0  0  0  0  0  0  0  0  0  0  0  0
  146.4894  132.6281  152.2652 C   0  0  0  0  0  0  0  0  0  0  0  0
  146.5755  131.1037  152.3594 C   0  0  0  0  0  0  0  0  0  0  0  0
  145.3991  130.6045  151.5188 C   0  0  0  0  0  0  0  0  0  0  0  0
  145.1796  131.6681  150.4330 C   0  0  0  0  0  0  0  0  0  0  0  0
  146.0626  132.8660  150.8114 C   0  0  0  0  0  0  0  0  0  0  0  0
  152.2569  137.9604  153.7506 H   0  0  0  0  0  0  0  0  0  0  0  0
  150.6637  137.8507  153.0289 H   0  0  0  0  0  0  0  0  0  0  0  0
  152.4354  139.2353  156.0824 H   0  0  0  0  0  0  0  0  0  0  0  0
  151.6686  141.3525  157.1855 H   0  0  0  0  0  0  0  0  0  0  0  0
  149.5740  142.4501  156.3516 H   0  0  0  0  0  0  0  0  0  0  0  0
  148.9981  139.5362  153.4805 H   0  0  0  0  0  0  0  0  0  0  0  0
  149.4807  136.0943  153.5629 H   0  0  0  0  0  0  0  0  0  0  0  0
  150.0307  134.5762  156.0780 H   0  0  0  0  0  0  0  0  0  0  0  0
  148.4616  134.7429  155.3252 H   0  0  0  0  0  0  0  0  0  0  0  0
  150.3397  133.6815  153.3613 H   0  0  0  0  0  0  0  0  0  0  0  0
  150.4330  132.7139  154.8132 H   0  0  0  0  0  0  0  0  0  0  0  0
  148.7264  131.6396  153.6176 H   0  0  0  0  0  0  0  0  0  0  0  0
  147.8248  132.6465  154.7251 H   0  0  0  0  0  0  0  0  0  0  0  0
  147.5820  134.3870  152.9080 H   0  0  0  0  0  0  0  0  0  0  0  0
  148.4691  133.3491  151.8230 H   0  0  0  0  0  0  0  0  0  0  0  0
  145.6809  132.9570  152.9204 H   0  0  0  0  0  0  0  0  0  0  0  0
  147.5116  130.7540  151.9217 H   0  0  0  0  0  0  0  0  0  0  0  0
  146.5347  130.7439  153.3880 H   0  0  0  0  0  0  0  0  0  0  0  0
  145.5851  129.6149  151.1003 H   0  0  0  0  0  0  0  0  0  0  0  0
  144.5081  130.5336  152.1439 H   0  0  0  0  0  0  0  0  0  0  0  0
  145.4505  131.2894  149.4469 H   0  0  0  0  0  0  0  0  0  0  0  0
  144.1283  131.9553  150.3934 H   0  0  0  0  0  0  0  0  0  0  0  0
  145.5433  133.8163  150.6834 H   0  0  0  0  0  0  0  0  0  0  0  0
  146.9403  132.8838  150.1636 H   0  0  0  0  0  0  0  0  0  0  0  0
  1  2  2  0  0  0  0
  2  3  1  0  0  0  0
  2 10  1  0  0  0  0
  3  4  1  0  0  0  0
  3 20  1  0  0  0  0
  3 21  1  0  0  0  0
  4  9  1  0  0  0  0
  4  5  2  0  0  0  0
  5  6  1  0  0  0  0
  5 22  1  0  0  0  0
  6  7  2  0  0  0  0
  6 23  1  0  0  0  0
  7  8  1  0  0  0  0
  7 24  1  0  0  0  0
  8  9  2  0  0  0  0
  9 25  1  0  0  0  0
 10 11  1  0  0  0  0
 10 26  1  0  0  0  0
 11 12  1  0  0  0  0
 11 27  1  0  0  0  0
 11 28  1  0  0  0  0
 12 13  1  0  0  0  0
 12 29  1  0  0  0  0
 12 30  1  0  0  0  0
 13 14  1  0  0  0  0
 13 31  1  0  0  0  0
 13 32  1  0  0  0  0
 14 15  1  0  0  0  0
 14 33  1  0  0  0  0
 14 34  1  0  0  0  0
 15 19  1  0  0  0  0
 15 16  1  0  0  0  0
 15 35  1  0  0  0  0
 16 17  1  0  0  0  0
 16 36  1  0  0  0  0
 16 37  1  0  0  0  0
 17 18  1  0  0  0  0
 17 38  1  0  0  0  0
 17 39  1  0  0  0  0
 18 19  1  0  0  0  0
 18 40  1  0  0  0  0
 18 41  1  0  0  0  0
 19 42  1  0  0  0  0
 19 43  1  0  0  0  0
M  END
> <s_m_source_file>
AV-unprocessed.smi

> <i_m_source_file_index>
717

> <i_lp_mmshare_version>
43012

> <i_f3d_flags>
0

> <s_epik_input>
W2NIXTFuW2NIXVtjSF1bY0hdYzFbQ0gyXUMoPU8pW05IXVtDSDJdW0NIMl1bQ0gyXVtDSDJdW0NIXTJbQ0gyXVtDSDJdW0NIMl1bQ0gyXTI=

> <s_epik_cmdline>
J2VwaWtfcHl0aG9uJywgJy1waCcsICc3LjAnLCAnLXRuJywgJzgnLCAnLW1hJywgJzIwMCcsICctbWV0YWxfYmluZGluZycsICctaW1hZScsICc8aW5maWxlLm1hZT4nLCAnLW9tYWUnLCAnPG91dGZpbGUubWFlPic=

> <r_epik_Ionization_Penalty>
0.00412097

> <r_epik_Ionization_Penalty_Charging>
0

> <r_epik_Ionization_Penalty_Neutral>
0.00412097

> <r_epik_State_Penalty>
0.00295657

> <r_epik_Charging_Adjusted_Penalty>
0.00295657

> <i_epik_Tot_Q>
0

> <i_epik_Tot_abs_Q>
0

> <r_epik_Metal_State_Penalty>
-0

> <b_epik_Metal_Only>
0

> <s_lp_Force_Field>
OPLS_2005

> <r_lp_Energy>
20.3192

> <b_lp_Chiralities_Consistent>
1

> <s_lp_Variant>
AV-unprocessed.smi:717-1

> <Gold.Version>
5.8.1

> <Gold.Id.Protein>
6NUR|6NUR_protein|mol2

> <Gold.PLP.Fitness>
50.9329

> <Gold.PLP.PLP>
-41.4560

> <Gold.PLP.part.hbond>
-2.6133

> <Gold.PLP.part.metal>
0.0000

> <Gold.PLP.part.buried>
-0.2268

> <Gold.PLP.part.nonpolar>
-36.6934

> <Gold.PLP.part.repulsive>
0.2149

> <Gold.PLP.ligand.clash>
0.0000

> <Gold.PLP.ligand.torsion>
0.9279

> <Gold.PLP.Chemscore.Hbond>
1.9913

> <Gold.PLP.Chemscore.CHOScore>
1.7503

> <Gold.PLP.Chemscore.Metal>
0.0000

> <Gold.Chemscore.Hbonds>
donor molecule, donor type, donor heavy atom, donor atom, acceptor molecule, acceptor atom, score
      L1  H    10    26       P1  7948  1.00
      P1  H 10752 10765       L1     1  0.71
      L1  C     7    24       P1  8028  1.00
      L1  C     9    25       P1  7957  0.80

> <Gold.PLP.Chemscore.Internal.Correction>
0.1081

> <Gold.Rescore>
     Score         DG    S(hbond)    S(metal)    S(lipo)     H(rot)  DE(clash)    DE(int)     intcor
     17.11     -18.70       1.42        0.00     108.85       1.67       0.55       1.04       ----

> <Gold.Chemscore.Fitness>
17.1086

> <Gold.Chemscore.DG>
-18.7025

> <Gold.Chemscore.ZeroCoef>
-5.4800

> <Gold.Chemscore.Hbond>
1.4241

> <Gold.Chemscore.Metal>
0.0000

> <Gold.Chemscore.Lipo>
108.8463

> <Gold.Chemscore.Internal_Hbond>
0.0000

> <Gold.Chemscore.DEClash>
0.5535

> <Gold.Chemscore.DEInternal>
1.0404

> <Gold.Chemscore.Rot>
1.6676

> <Gold.Chemscore.Internal.Correction>
   9.000000E+99

> <Gold.Chemscore.Hbonds>
donor molecule, donor type, donor heavy atom, donor atom, acceptor molecule, acceptor atom, score
      L1  H    10    26       P1  7948  0.55
      P1  H 10752 10765       L1     1  0.16

> <Gold.Chemscore.Hbond.Weighted>
-4.7565

> <Gold.Chemscore.Metal.Weighted>
-0.0000

> <Gold.Chemscore.Lipo.Weighted>
-12.7350

> <Gold.Chemscore.Internal_Hbond.Weighted>
0.0000

> <Gold.Chemscore.DEClash.Weighted>
0.5535

> <Gold.Chemscore.DEInternal.Weighted>
1.0404

> <Gold.Chemscore.Rot.Weighted>
4.2690

> <Gold.Chemscore.Internal.Correction.Weighted>
   9.000000E+99

> <Gold.Protein.RotatedTorsions>
[ 6907 6896 6895 6894 ] final -167.75 input  -60.11 | X-H torsion
[ 7974 7965 7964 7962 ] final   15.68 input  175.53 | X-H torsion
[ 8008 7997 7996 7995 ] final -127.12 input   59.86 | X-H torsion
[ 10167 10162 10161 10158 ] final  125.52 input  -65.29 | X-H torsion
[ 10718 10713 10712 10709 ] final   63.28 input   66.30 | X-H torsion
[ 10763 10752 10751 10750 ] final -144.03 input  -60.55 | X-H torsion
[ 11005 11000 10999 10996 ] final  -27.75 input  -57.11 | X-H torsion

> <Gold.Protein.ActiveResidues>
 VAL166  LYS551  ARG553  GLY616  TRP617  ASP618  TYR619  PRO620  LYS621  CYS622 
 ASP623  PHE694  ASN695  SER759  ASP760  ASP761  ALA762  ILE779  LEU786  VAL792 
 PHE793  MET794  SER795  GLU796  ALA797  LYS798  CYS799  TRP800  GLU811  SER814 

> <Gold.Protein.RotatedAtoms>
  151.4646  133.3584  159.2813 H   0  0  0  0  0  0  0  0  0  0  0  0  # atno 6907 bound_to 6896
  150.9002  134.8416  159.7366 H   0  0  0  0  0  0  0  0  0  0  0  0  # atno 6908 bound_to 6896
  152.4875  134.4565  159.9643 H   0  0  0  0  0  0  0  0  0  0  0  0  # atno 6909 bound_to 6896
  146.2271  139.8859  142.8563 H   0  0  0  0  0  0  0  0  0  0  0  0  # atno 7974 bound_to 7965
  155.2409  140.0428  157.2975 H   0  0  0  0  0  0  0  0  0  0  0  0  # atno 8008 bound_to 7997
  154.5828  140.2405  155.7999 H   0  0  0  0  0  0  0  0  0  0  0  0  # atno 8009 bound_to 7997
  156.2205  140.2971  155.9950 H   0  0  0  0  0  0  0  0  0  0  0  0  # atno 8010 bound_to 7997
  139.5681  144.6923  151.3853 H   0  0  0  0  0  0  0  0  0  0  0  0  # atno 10167 bound_to 10162
  157.5960  130.9096  149.9695 H   0  0  0  0  0  0  0  0  0  0  0  0  # atno 10718 bound_to 10713
  154.8445  135.3451  154.6282 H   0  0  0  0  0  0  0  0  0  0  0  0  # atno 10763 bound_to 10752
  153.6891  135.6976  153.5100 H   0  0  0  0  0  0  0  0  0  0  0  0  # atno 10764 bound_to 10752
  153.2609  135.4323  155.0848 H   0  0  0  0  0  0  0  0  0  0  0  0  # atno 10765 bound_to 10752
  140.9147  133.7438  156.0718 H   0  0  0  0  0  0  0  0  0  0  0  0  # atno 11005 bound_to 11000
  145.2466  141.0028  143.3905 LP  0  0  0  0  0  0  0  0  0  0  0  0  # atno 17320 bound_to 7965
  144.9409  139.4190  143.6449 LP  0  0  0  0  0  0  0  0  0  0  0  0  # atno 17321 bound_to 7965
  140.6965  143.7736  150.7335 LP  0  0  0  0  0  0  0  0  0  0  0  0  # atno 17342 bound_to 10162
  140.1234  143.4591  152.2299 LP  0  0  0  0  0  0  0  0  0  0  0  0  # atno 17343 bound_to 10162
  156.1023  130.3655  150.0197 LP  0  0  0  0  0  0  0  0  0  0  0  0  # atno 17370 bound_to 10713
  156.8310  130.9392  151.3637 LP  0  0  0  0  0  0  0  0  0  0  0  0  # atno 17371 bound_to 10713
  140.8065  134.3448  157.5424 LP  0  0  0  0  0  0  0  0  0  0  0  0  # atno 17394 bound_to 11000
  139.8764  134.9229  156.3311 LP  0  0  0  0  0  0  0  0  0  0  0  0  # atno 17395 bound_to 11000

$$$$
