AV-unprocessed.smi:1957|AV-procd|sdf|7905|dock7
  -GOLD-   2272010 63D 1   1.00000     0.00000
 Structure written by MMmdl.
 42 43  0  0  0  0  0  0  0  0  1 V2000
  149.7425  137.1531  158.7842 C   0  0  0  0  0  0  0  0  0  0  0  0
  151.0272  136.5653  158.8907 O   0  0  0  0  0  0  0  0  0  0  0  0
  151.9309  137.0576  157.9158 C   0  0  0  0  0  0  0  0  0  0  0  0
  153.3564  136.6366  158.3035 C   0  0  0  0  0  0  0  0  0  0  0  0
  153.7770  137.2577  159.5634 N   0  0  0  0  0  0  0  0  0  0  0  0
  153.6550  138.6372  159.5808 N   0  0  0  0  0  0  0  0  0  0  0  0
  153.9826  139.3056  160.6393 C   0  0  0  0  0  0  0  0  0  0  0  0
  153.8623  140.7885  160.7001 C   0  0  0  0  0  0  0  0  0  0  0  0
  154.4577  141.4560  161.5476 O   0  0  0  0  0  0  0  0  0  0  0  0
  153.0561  141.3383  159.7728 N   0  0  0  0  0  0  0  0  0  0  0  0
  152.7336  142.7623  159.6590 C   0  0  1  0  0  0  0  0  0  0  0  0
  151.6037  142.9022  158.6134 C   0  0  0  0  0  0  0  0  0  0  0  0
  151.5082  144.3048  157.9877 C   0  0  0  0  0  0  0  0  0  0  0  0
  151.1187  145.4261  158.9631 C   0  0  0  0  0  0  0  0  0  0  0  0
  152.1379  145.6433  160.0947 C   0  0  0  0  0  0  0  0  0  0  0  0
  152.0206  144.6344  161.1393 N   0  0  0  0  0  0  0  0  0  0  0  0
  152.2402  143.3168  161.0163 C   0  0  0  0  0  0  0  0  0  0  0  0
  152.0458  142.5636  161.9706 O   0  0  0  0  0  0  0  0  0  0  0  0
  154.4833  138.6268  161.8227 C   0  0  0  0  0  0  0  0  0  0  0  0
  154.5941  137.2807  161.7915 C   0  0  0  0  0  0  0  0  0  0  0  0
  154.2268  136.5003  160.6089 C   0  0  0  0  0  0  0  0  0  0  0  0
  154.3109  135.2737  160.5592 O   0  0  0  0  0  0  0  0  0  0  0  0
  149.0896  136.7490  159.5576 H   0  0  0  0  0  0  0  0  0  0  0  0
  149.2904  136.9380  157.8152 H   0  0  0  0  0  0  0  0  0  0  0  0
  149.7908  138.2349  158.9160 H   0  0  0  0  0  0  0  0  0  0  0  0
  151.6758  136.6564  156.9335 H   0  0  0  0  0  0  0  0  0  0  0  0
  151.8563  138.1445  157.8573 H   0  0  0  0  0  0  0  0  0  0  0  0
  153.4200  135.5493  158.3749 H   0  0  0  0  0  0  0  0  0  0  0  0
  154.0453  136.9152  157.5039 H   0  0  0  0  0  0  0  0  0  0  0  0
  152.6031  140.7176  159.1175 H   0  0  0  0  0  0  0  0  0  0  0  0
  153.6208  143.3064  159.3296 H   0  0  0  0  0  0  0  0  0  0  0  0
  151.7880  142.2023  157.7966 H   0  0  0  0  0  0  0  0  0  0  0  0
  150.6404  142.6092  159.0349 H   0  0  0  0  0  0  0  0  0  0  0  0
  152.4578  144.5534  157.5121 H   0  0  0  0  0  0  0  0  0  0  0  0
  150.7732  144.2761  157.1826 H   0  0  0  0  0  0  0  0  0  0  0  0
  151.0322  146.3530  158.3953 H   0  0  0  0  0  0  0  0  0  0  0  0
  150.1278  145.2377  159.3788 H   0  0  0  0  0  0  0  0  0  0  0  0
  153.1577  145.6797  159.7089 H   0  0  0  0  0  0  0  0  0  0  0  0
  151.9526  146.6106  160.5625 H   0  0  0  0  0  0  0  0  0  0  0  0
  151.7096  144.9633  162.0420 H   0  0  0  0  0  0  0  0  0  0  0  0
  154.7617  139.1772  162.7097 H   0  0  0  0  0  0  0  0  0  0  0  0
  154.9639  136.7631  162.6646 H   0  0  0  0  0  0  0  0  0  0  0  0
  1  2  1  0  0  0  0
  1 23  1  0  0  0  0
  1 24  1  0  0  0  0
  1 25  1  0  0  0  0
  2  3  1  0  0  0  0
  3  4  1  0  0  0  0
  3 26  1  0  0  0  0
  3 27  1  0  0  0  0
  4  5  1  0  0  0  0
  4 28  1  0  0  0  0
  4 29  1  0  0  0  0
  5 21  1  0  0  0  0
  5  6  1  0  0  0  0
  6  7  2  0  0  0  0
  7  8  1  0  0  0  0
  7 19  1  0  0  0  0
  8  9  2  0  0  0  0
  8 10  1  0  0  0  0
 10 11  1  0  0  0  0
 10 30  1  0  0  0  0
 11 17  1  0  0  0  0
 11 12  1  0  0  0  0
 11 31  1  0  0  0  0
 12 13  1  0  0  0  0
 12 32  1  0  0  0  0
 12 33  1  0  0  0  0
 13 14  1  0  0  0  0
 13 34  1  0  0  0  0
 13 35  1  0  0  0  0
 14 15  1  0  0  0  0
 14 36  1  0  0  0  0
 14 37  1  0  0  0  0
 15 16  1  0  0  0  0
 15 38  1  0  0  0  0
 15 39  1  0  0  0  0
 16 17  1  0  0  0  0
 16 40  1  0  0  0  0
 17 18  2  0  0  0  0
 19 20  2  0  0  0  0
 19 41  1  0  0  0  0
 20 21  1  0  0  0  0
 20 42  1  0  0  0  0
 21 22  2  0  0  0  0
M  END
> <s_m_source_file>
AV-unprocessed.smi

> <i_m_source_file_index>
1957

> <i_lp_mmshare_version>
43012

> <i_f3d_flags>
0

> <s_epik_input>
W0NIM11PW0NIMl1bQ0gyXW4xbmMoW2NIXVtjSF1jMT1PKUMoPU8pW05IXVtDQEBIXTJbQ0gyXVtDSDJdW0NIMl1bQ0gyXVtOSF1DMj1P

> <s_epik_cmdline>
J2VwaWtfcHl0aG9uJywgJy1waCcsICc3LjAnLCAnLXRuJywgJzgnLCAnLW1hJywgJzIwMCcsICctbWV0YWxfYmluZGluZycsICctaW1hZScsICc8aW5maWxlLm1hZT4nLCAnLW9tYWUnLCAnPG91dGZpbGUubWFlPic=

> <r_lp_tautomer_probability>
1

> <r_epik_Ionization_Penalty>
2.17512e-06

> <r_epik_Ionization_Penalty_Charging>
5.0222e-09

> <r_epik_Ionization_Penalty_Neutral>
2.1701e-06

> <r_epik_State_Penalty>
-0

> <r_epik_Charging_Adjusted_Penalty>
5.0222e-09

> <i_epik_Tot_Q>
0

> <i_epik_Tot_abs_Q>
0

> <r_epik_Metal_State_Penalty>
-0

> <b_epik_Metal_Only>
0

> <s_lp_Force_Field>
OPLS_2005

> <r_lp_Energy>
29.6922

> <b_lp_Chiralities_Consistent>
1

> <s_lp_Variant>
AV-unprocessed.smi:1957-2

> <Gold.Version>
5.8.1

> <Gold.Id.Protein>
6NUR|6NUR_protein|mol2

> <Gold.PLP.Fitness>
48.2542

> <Gold.PLP.PLP>
-41.0966

> <Gold.PLP.part.hbond>
-4.5560

> <Gold.PLP.part.metal>
0.0000

> <Gold.PLP.part.buried>
-6.6432

> <Gold.PLP.part.nonpolar>
-30.6339

> <Gold.PLP.part.repulsive>
0.2934

> <Gold.PLP.ligand.clash>
0.0000

> <Gold.PLP.ligand.torsion>
0.3024

> <Gold.PLP.Chemscore.Hbond>
2.5837

> <Gold.PLP.Chemscore.CHOScore>
0.0000

> <Gold.PLP.Chemscore.Metal>
0.0000

> <Gold.Chemscore.Hbonds>
donor molecule, donor type, donor heavy atom, donor atom, acceptor molecule, acceptor atom, score
      P1  H  6896  6907       L1    22  0.99
      P1  H  6896  6909       L1     2  0.80
      P1  H  6933  6945       L1    18  0.58

> <Gold.PLP.Chemscore.Internal.Correction>
0.0113

> <Gold.Rescore>
     Score         DG    S(hbond)    S(metal)    S(lipo)     H(rot)  DE(clash)    DE(int)     intcor
     18.40     -19.79       2.53        0.00      88.85       1.78       0.28       1.10       ----

> <Gold.Chemscore.Fitness>
18.4042

> <Gold.Chemscore.DG>
-19.7851

> <Gold.Chemscore.ZeroCoef>
-5.4800

> <Gold.Chemscore.Hbond>
2.5341

> <Gold.Chemscore.Metal>
0.0000

> <Gold.Chemscore.Lipo>
88.8506

> <Gold.Chemscore.Internal_Hbond>
0.0000

> <Gold.Chemscore.DEClash>
0.2791

> <Gold.Chemscore.DEInternal>
1.1018

> <Gold.Chemscore.Rot>
1.7791

> <Gold.Chemscore.Internal.Correction>
   9.000000E+99

> <Gold.Chemscore.Hbonds>
donor molecule, donor type, donor heavy atom, donor atom, acceptor molecule, acceptor atom, score
      P1  H  6896  6907       L1    22  0.75
      P1  H  6896  6909       L1     2  0.65
      P1  H  6933  6945       L1    18  0.55

> <Gold.Chemscore.Hbond.Weighted>
-8.4640

> <Gold.Chemscore.Metal.Weighted>
-0.0000

> <Gold.Chemscore.Lipo.Weighted>
-10.3955

> <Gold.Chemscore.Internal_Hbond.Weighted>
0.0000

> <Gold.Chemscore.DEClash.Weighted>
0.2791

> <Gold.Chemscore.DEInternal.Weighted>
1.1018

> <Gold.Chemscore.Rot.Weighted>
4.5544

> <Gold.Chemscore.Internal.Correction.Weighted>
   9.000000E+99

> <Gold.Protein.RotatedTorsions>
[ 6907 6896 6895 6894 ] final   77.83 input  -60.11 | X-H torsion
[ 7974 7965 7964 7962 ] final  -26.92 input  175.53 | X-H torsion
[ 8008 7997 7996 7995 ] final   15.72 input   59.86 | X-H torsion
[ 10167 10162 10161 10158 ] final   34.61 input  -65.29 | X-H torsion
[ 10718 10713 10712 10709 ] final -119.66 input   66.30 | X-H torsion
[ 10763 10752 10751 10750 ] final   84.35 input  -60.55 | X-H torsion
[ 11005 11000 10999 10996 ] final   14.15 input  -57.11 | X-H torsion

> <Gold.Protein.ActiveResidues>
 VAL166  LYS551  ARG553  GLY616  TRP617  ASP618  TYR619  PRO620  LYS621  CYS622 
 ASP623  PHE694  ASN695  SER759  ASP760  ASP761  ALA762  ILE779  LEU786  VAL792 
 PHE793  MET794  SER795  GLU796  ALA797  LYS798  CYS799  TRP800  GLU811  SER814 

> <Gold.Protein.RotatedAtoms>
  152.5134  134.3757  159.9333 H   0  0  0  0  0  0  0  0  0  0  0  0  # atno 6907 bound_to 6896
  151.3713  133.3847  159.2707 H   0  0  0  0  0  0  0  0  0  0  0  0  # atno 6908 bound_to 6896
  150.9575  134.8987  159.7769 H   0  0  0  0  0  0  0  0  0  0  0  0  # atno 6909 bound_to 6896
  146.1393  140.5083  142.8659 H   0  0  0  0  0  0  0  0  0  0  0  0  # atno 7974 bound_to 7965
  154.8666  140.2952  155.5506 H   0  0  0  0  0  0  0  0  0  0  0  0  # atno 8008 bound_to 7997
  156.3021  140.2468  156.3582 H   0  0  0  0  0  0  0  0  0  0  0  0  # atno 8009 bound_to 7997
  154.8861  140.0396  157.1800 H   0  0  0  0  0  0  0  0  0  0  0  0  # atno 8010 bound_to 7997
  140.4299  144.1340  150.6158 H   0  0  0  0  0  0  0  0  0  0  0  0  # atno 10167 bound_to 10162
  156.1198  130.6314  150.9444 H   0  0  0  0  0  0  0  0  0  0  0  0  # atno 10718 bound_to 10713
  153.1374  135.4657  154.9443 H   0  0  0  0  0  0  0  0  0  0  0  0  # atno 10763 bound_to 10752
  154.7718  135.3161  154.8177 H   0  0  0  0  0  0  0  0  0  0  0  0  # atno 10764 bound_to 10752
  153.8706  135.6904  153.4829 H   0  0  0  0  0  0  0  0  0  0  0  0  # atno 10765 bound_to 10752
  140.4727  134.1014  155.7736 H   0  0  0  0  0  0  0  0  0  0  0  0  # atno 11005 bound_to 11000
  144.7774  140.5769  143.6628 LP  0  0  0  0  0  0  0  0  0  0  0  0  # atno 17320 bound_to 7965
  145.5084  139.1480  143.3618 LP  0  0  0  0  0  0  0  0  0  0  0  0  # atno 17321 bound_to 7965
  140.4439  143.2515  151.9437 LP  0  0  0  0  0  0  0  0  0  0  0  0  # atno 17342 bound_to 10162
  139.4784  144.5628  151.8213 LP  0  0  0  0  0  0  0  0  0  0  0  0  # atno 17343 bound_to 10162
  157.6382  131.0913  150.8306 LP  0  0  0  0  0  0  0  0  0  0  0  0  # atno 17370 bound_to 10713
  156.8404  130.5046  149.5322 LP  0  0  0  0  0  0  0  0  0  0  0  0  # atno 17371 bound_to 10713
  141.1569  133.8866  157.1953 LP  0  0  0  0  0  0  0  0  0  0  0  0  # atno 17394 bound_to 11000
  139.9875  135.0077  156.9897 LP  0  0  0  0  0  0  0  0  0  0  0  0  # atno 17395 bound_to 11000

$$$$
