AV-unprocessed.smi:2477|AV-procd|sdf|9759|dock6
  -GOLD-   2272013403D 1   1.00000     0.00000
 Structure written by MMmdl.
 51 53  0  0  0  0  0  0  0  0  1 V2000
  145.6812  131.2733  151.0935 C   0  0  0  0  0  0  0  0  0  0  0  0
  145.2012  132.6257  151.3898 N   0  0  0  0  0  0  0  0  0  0  0  0
  143.8215  132.8654  151.2746 C   0  0  0  0  0  0  0  0  0  0  0  0
  143.2943  134.0721  151.5240 C   0  0  0  0  0  0  0  0  0  0  0  0
  144.1808  135.1400  151.9199 C   0  0  0  0  0  0  0  0  0  0  0  0
  145.5152  134.9282  152.0473 C   0  0  0  0  0  0  0  0  0  0  0  0
  146.4510  135.9084  152.4224 N   0  0  0  0  0  0  0  0  0  0  0  0
  146.2605  137.0721  153.0709 C   0  0  0  0  0  0  0  0  0  0  0  0
  145.1830  137.5022  153.4808 O   0  0  0  0  0  0  0  0  0  0  0  0
  147.4261  137.7099  153.2527 N   0  0  0  0  0  0  0  0  0  0  0  0
  147.6058  138.9653  153.9792 C   0  0  2  0  0  0  0  0  0  0  0  0
  147.1041  140.1253  153.0965 C   0  0  0  0  0  0  0  0  0  0  0  0
  147.3412  141.4916  153.7584 C   0  0  0  0  0  0  0  0  0  0  0  0
  148.8215  141.6818  154.1196 C   0  0  0  0  0  0  0  0  0  0  0  0
  149.3170  140.5391  155.0173 C   0  0  0  0  0  0  0  0  0  0  0  0
  149.0922  139.1651  154.3609 C   0  0  1  0  0  0  0  0  0  0  0  0
  149.4751  138.1802  155.3143 O   0  0  0  0  0  0  0  0  0  0  0  0
  150.6114  137.4023  154.9552 C   0  0  0  0  0  0  0  0  0  0  0  0
  151.0278  136.5826  156.1772 C   0  0  0  0  0  0  0  0  0  0  0  0
  151.8901  137.5219  157.0311 C   0  0  0  0  0  0  0  0  0  0  0  0
  152.3255  138.6710  156.1084 C   0  0  0  0  0  0  0  0  0  0  0  0
  151.8238  138.3047  154.7089 C   0  0  0  0  0  0  0  0  0  0  0  0
  146.0866  133.5966  151.7645 C   0  0  0  0  0  0  0  0  0  0  0  0
  147.2934  133.3575  151.8573 O   0  0  0  0  0  0  0  0  0  0  0  0
  144.8773  130.5934  150.8100 H   0  0  0  0  0  0  0  0  0  0  0  0
  146.1769  130.8432  151.9649 H   0  0  0  0  0  0  0  0  0  0  0  0
  146.3961  131.2916  150.2697 H   0  0  0  0  0  0  0  0  0  0  0  0
  143.2251  132.0164  150.9743 H   0  0  0  0  0  0  0  0  0  0  0  0
  142.2315  134.2411  151.4324 H   0  0  0  0  0  0  0  0  0  0  0  0
  143.7361  136.1061  152.0935 H   0  0  0  0  0  0  0  0  0  0  0  0
  147.4085  135.6729  152.2050 H   0  0  0  0  0  0  0  0  0  0  0  0
  148.2617  137.2792  152.8854 H   0  0  0  0  0  0  0  0  0  0  0  0
  147.0056  138.9567  154.8912 H   0  0  0  0  0  0  0  0  0  0  0  0
  147.6130  140.1026  152.1316 H   0  0  0  0  0  0  0  0  0  0  0  0
  146.0411  140.0010  152.8866 H   0  0  0  0  0  0  0  0  0  0  0  0
  147.0156  142.2899  153.0909 H   0  0  0  0  0  0  0  0  0  0  0  0
  146.7308  141.5728  154.6587 H   0  0  0  0  0  0  0  0  0  0  0  0
  149.4208  141.7192  153.2091 H   0  0  0  0  0  0  0  0  0  0  0  0
  148.9621  142.6384  154.6234 H   0  0  0  0  0  0  0  0  0  0  0  0
  150.3758  140.6765  155.2392 H   0  0  0  0  0  0  0  0  0  0  0  0
  148.7950  140.5776  155.9742 H   0  0  0  0  0  0  0  0  0  0  0  0
  149.7070  139.1122  153.4594 H   0  0  0  0  0  0  0  0  0  0  0  0
  150.3898  136.7543  154.1059 H   0  0  0  0  0  0  0  0  0  0  0  0
  150.1747  136.1784  156.7232 H   0  0  0  0  0  0  0  0  0  0  0  0
  151.6341  135.7366  155.8517 H   0  0  0  0  0  0  0  0  0  0  0  0
  151.3121  137.9156  157.8680 H   0  0  0  0  0  0  0  0  0  0  0  0
  152.7474  136.9919  157.4478 H   0  0  0  0  0  0  0  0  0  0  0  0
  151.8540  139.5988  156.4354 H   0  0  0  0  0  0  0  0  0  0  0  0
  153.4043  138.8291  156.1247 H   0  0  0  0  0  0  0  0  0  0  0  0
  152.5939  137.7356  154.1863 H   0  0  0  0  0  0  0  0  0  0  0  0
  151.5987  139.1808  154.1004 H   0  0  0  0  0  0  0  0  0  0  0  0
  1  2  1  0  0  0  0
  1 25  1  0  0  0  0
  1 26  1  0  0  0  0
  1 27  1  0  0  0  0
  2 23  1  0  0  0  0
  2  3  1  0  0  0  0
  3  4  2  0  0  0  0
  3 28  1  0  0  0  0
  4  5  1  0  0  0  0
  4 29  1  0  0  0  0
  5  6  2  0  0  0  0
  5 30  1  0  0  0  0
  6  7  1  0  0  0  0
  6 23  1  0  0  0  0
  7  8  1  0  0  0  0
  7 31  1  0  0  0  0
  8  9  2  0  0  0  0
  8 10  1  0  0  0  0
 10 11  1  0  0  0  0
 10 32  1  0  0  0  0
 11 16  1  0  0  0  0
 11 12  1  0  0  0  0
 11 33  1  0  0  0  0
 12 13  1  0  0  0  0
 12 34  1  0  0  0  0
 12 35  1  0  0  0  0
 13 14  1  0  0  0  0
 13 36  1  0  0  0  0
 13 37  1  0  0  0  0
 14 15  1  0  0  0  0
 14 38  1  0  0  0  0
 14 39  1  0  0  0  0
 15 16  1  0  0  0  0
 15 40  1  0  0  0  0
 15 41  1  0  0  0  0
 16 17  1  0  0  0  0
 16 42  1  0  0  0  0
 17 18  1  0  0  0  0
 18 22  1  0  0  0  0
 18 19  1  0  0  0  0
 18 43  1  0  0  0  0
 19 20  1  0  0  0  0
 19 44  1  0  0  0  0
 19 45  1  0  0  0  0
 20 21  1  0  0  0  0
 20 46  1  0  0  0  0
 20 47  1  0  0  0  0
 21 22  1  0  0  0  0
 21 48  1  0  0  0  0
 21 49  1  0  0  0  0
 22 50  1  0  0  0  0
 22 51  1  0  0  0  0
 23 24  2  0  0  0  0
M  END
> <s_m_source_file>
AV-unprocessed.smi

> <i_m_source_file_index>
2477

> <i_lp_mmshare_version>
43012

> <i_f3d_flags>
0

> <s_epik_input>
W0NIM11uMVtjSF1bY0hdW2NIXWMoYzE9TylbTkhdQyg9TylbTkhdW0NAQEhdMltDSDJdW0NIMl1bQ0gyXVtDSDJdW0NASF0yT1tDSF0zW0NIMl1bQ0gyXVtDSDJdW0NIMl0z

> <s_epik_cmdline>
J2VwaWtfcHl0aG9uJywgJy1waCcsICc3LjAnLCAnLXRuJywgJzgnLCAnLW1hJywgJzIwMCcsICctbWV0YWxfYmluZGluZycsICctaW1hZScsICc8aW5maWxlLm1hZT4nLCAnLW9tYWUnLCAnPG91dGZpbGUubWFlPic=

> <r_lp_tautomer_probability>
1

> <r_epik_Ionization_Penalty>
2.40753e-05

> <r_epik_Ionization_Penalty_Charging>
4.84018e-06

> <r_epik_Ionization_Penalty_Neutral>
1.92352e-05

> <r_epik_State_Penalty>
-0

> <r_epik_Charging_Adjusted_Penalty>
4.84018e-06

> <i_epik_Tot_Q>
0

> <i_epik_Tot_abs_Q>
0

> <r_epik_Metal_State_Penalty>
-0

> <b_epik_Metal_Only>
0

> <s_lp_Force_Field>
OPLS_2005

> <r_lp_Energy>
41.4176

> <b_lp_Chiralities_Consistent>
1

> <s_lp_Variant>
AV-unprocessed.smi:2477-1

> <Gold.Version>
5.8.1

> <Gold.Id.Protein>
6NUR|6NUR_protein|mol2

> <Gold.PLP.Fitness>
43.9872

> <Gold.PLP.PLP>
-40.0644

> <Gold.PLP.part.hbond>
-1.9104

> <Gold.PLP.part.metal>
0.0000

> <Gold.PLP.part.buried>
-2.1528

> <Gold.PLP.part.nonpolar>
-35.6082

> <Gold.PLP.part.repulsive>
0.5431

> <Gold.PLP.ligand.clash>
0.0000

> <Gold.PLP.ligand.torsion>
1.0694

> <Gold.PLP.Chemscore.Hbond>
2.0000

> <Gold.PLP.Chemscore.CHOScore>
0.0000

> <Gold.PLP.Chemscore.Metal>
0.0000

> <Gold.Chemscore.Hbonds>
donor molecule, donor type, donor heavy atom, donor atom, acceptor molecule, acceptor atom, score
      L1  H     7    31       P1  7948  0.96
      L1  H    10    32       P1  7948  0.99

> <Gold.PLP.Chemscore.Internal.Correction>
0.0616

> <Gold.Rescore>
     Score         DG    S(hbond)    S(metal)    S(lipo)     H(rot)  DE(clash)    DE(int)     intcor
     18.01     -20.20       1.91        0.00     100.93       1.36       0.17       2.02       ----

> <Gold.Chemscore.Fitness>
18.0123

> <Gold.Chemscore.DG>
-20.2031

> <Gold.Chemscore.ZeroCoef>
-5.4800

> <Gold.Chemscore.Hbond>
1.9123

> <Gold.Chemscore.Metal>
0.0000

> <Gold.Chemscore.Lipo>
100.9269

> <Gold.Chemscore.Internal_Hbond>
0.0000

> <Gold.Chemscore.DEClash>
0.1695

> <Gold.Chemscore.DEInternal>
2.0213

> <Gold.Chemscore.Rot>
1.3564

> <Gold.Chemscore.Internal.Correction>
   9.000000E+99

> <Gold.Chemscore.Hbonds>
donor molecule, donor type, donor heavy atom, donor atom, acceptor molecule, acceptor atom, score
      L1  H     7    31       P1  7948  0.92
      L1  H    10    32       P1  7948  0.93

> <Gold.Chemscore.Hbond.Weighted>
-6.3871

> <Gold.Chemscore.Metal.Weighted>
-0.0000

> <Gold.Chemscore.Lipo.Weighted>
-11.8084

> <Gold.Chemscore.Internal_Hbond.Weighted>
0.0000

> <Gold.Chemscore.DEClash.Weighted>
0.1695

> <Gold.Chemscore.DEInternal.Weighted>
2.0213

> <Gold.Chemscore.Rot.Weighted>
3.4724

> <Gold.Chemscore.Internal.Correction.Weighted>
   9.000000E+99

> <Gold.Protein.RotatedTorsions>
[ 6907 6896 6895 6894 ] final -133.38 input  -60.11 | X-H torsion
[ 7974 7965 7964 7962 ] final  -44.94 input  175.53 | X-H torsion
[ 8008 7997 7996 7995 ] final  114.09 input   59.86 | X-H torsion
[ 10167 10162 10161 10158 ] final -128.36 input  -65.29 | X-H torsion
[ 10718 10713 10712 10709 ] final  -47.28 input   66.30 | X-H torsion
[ 10763 10752 10751 10750 ] final  -76.28 input  -60.55 | X-H torsion
[ 11005 11000 10999 10996 ] final -158.03 input  -57.11 | X-H torsion

> <Gold.Protein.ActiveResidues>
 VAL166  LYS551  ARG553  GLY616  TRP617  ASP618  TYR619  PRO620  LYS621  CYS622 
 ASP623  PHE694  ASN695  SER759  ASP760  ASP761  ALA762  ILE779  LEU786  VAL792 
 PHE793  MET794  SER795  GLU796  ALA797  LYS798  CYS799  TRP800  GLU811  SER814 

> <Gold.Protein.RotatedAtoms>
  150.9733  133.6321  159.2734 H   0  0  0  0  0  0  0  0  0  0  0  0  # atno 6907 bound_to 6896
  151.3602  135.0901  159.9441 H   0  0  0  0  0  0  0  0  0  0  0  0  # atno 6908 bound_to 6896
  152.5190  133.9308  159.7634 H   0  0  0  0  0  0  0  0  0  0  0  0  # atno 6909 bound_to 6896
  145.9870  140.7222  142.9335 H   0  0  0  0  0  0  0  0  0  0  0  0  # atno 7974 bound_to 7965
  156.2299  140.2966  156.0162 H   0  0  0  0  0  0  0  0  0  0  0  0  # atno 8008 bound_to 7997
  155.2253  140.0417  157.2971 H   0  0  0  0  0  0  0  0  0  0  0  0  # atno 8009 bound_to 7997
  154.5978  140.2419  155.7840 H   0  0  0  0  0  0  0  0  0  0  0  0  # atno 8010 bound_to 7997
  139.9511  143.6055  152.2475 H   0  0  0  0  0  0  0  0  0  0  0  0  # atno 10167 bound_to 10162
  156.2100  130.4160  149.9128 H   0  0  0  0  0  0  0  0  0  0  0  0  # atno 10718 bound_to 10713
  154.4978  135.5803  153.6508 H   0  0  0  0  0  0  0  0  0  0  0  0  # atno 10763 bound_to 10752
  152.9873  135.6128  154.3042 H   0  0  0  0  0  0  0  0  0  0  0  0  # atno 10764 bound_to 10752
  154.2947  135.2848  155.2618 H   0  0  0  0  0  0  0  0  0  0  0  0  # atno 10765 bound_to 10752
  140.6581  134.4379  157.5235 H   0  0  0  0  0  0  0  0  0  0  0  0  # atno 11005 bound_to 11000
  144.6878  140.3005  143.7264 LP  0  0  0  0  0  0  0  0  0  0  0  0  # atno 17320 bound_to 7965
  145.7686  139.1849  143.2226 LP  0  0  0  0  0  0  0  0  0  0  0  0  # atno 17321 bound_to 7965
  139.6628  144.7662  151.1931 LP  0  0  0  0  0  0  0  0  0  0  0  0  # atno 17342 bound_to 10162
  140.7582  143.5984  150.8724 LP  0  0  0  0  0  0  0  0  0  0  0  0  # atno 17343 bound_to 10162
  156.6809  130.8858  151.3575 LP  0  0  0  0  0  0  0  0  0  0  0  0  # atno 17370 bound_to 10713
  157.7033  130.9357  150.0852 LP  0  0  0  0  0  0  0  0  0  0  0  0  # atno 17371 bound_to 10713
  139.9022  134.8529  156.1848 LP  0  0  0  0  0  0  0  0  0  0  0  0  # atno 17394 bound_to 11000
  141.0486  133.6900  156.1729 LP  0  0  0  0  0  0  0  0  0  0  0  0  # atno 17395 bound_to 11000

$$$$
