AV-unprocessed.smi:447|AV-procd|sdf|2598|dock6
  -GOLD-   2262022593D 1   1.00000     0.00000
 Structure written by MMmdl.
 45 47  0  0  0  0  0  0  0  0  1 V2000
  150.7232  134.4370  156.0360 C   0  0  0  0  0  0  0  0  0  0  0  0
  150.7712  135.8453  156.6177 C   0  0  0  0  0  0  0  0  0  0  0  0
  150.5635  136.0247  157.8174 O   0  0  0  0  0  0  0  0  0  0  0  0
  151.0353  136.8359  155.7530 N   0  0  0  0  0  0  0  0  0  0  0  0
  151.0727  138.2602  156.0789 C   0  0  1  0  0  0  0  0  0  0  0  0
  152.4555  138.8615  155.7847 C   0  0  0  0  0  0  0  0  0  0  0  0
  149.9836  138.9427  155.2909 C   0  0  0  0  0  0  0  0  0  0  0  0
  149.3084  138.3102  154.3259 N   0  0  0  0  0  0  0  0  0  0  0  0
  148.4382  139.2784  153.8690 C   0  0  0  0  0  0  0  0  0  0  0  0
  147.4542  139.2254  152.8560 C   0  0  0  0  0  0  0  0  0  0  0  0
  146.6717  140.3610  152.5612 C   0  0  0  0  0  0  0  0  0  0  0  0
  146.8625  141.5630  153.2729 C   0  0  0  0  0  0  0  0  0  0  0  0
  147.8389  141.6366  154.2850 C   0  0  0  0  0  0  0  0  0  0  0  0
  148.6166  140.4996  154.5757 C   0  0  0  0  0  0  0  0  0  0  0  0
  149.6349  140.2425  155.4886 N   0  0  0  0  0  0  0  0  0  0  0  0
  150.1730  141.2086  156.4386 C   0  0  0  0  0  0  0  0  0  0  0  0
  149.2617  141.3890  157.6700 C   0  0  2  0  0  0  0  0  0  0  0  0
  148.0765  142.0349  157.2517 O   0  0  0  0  0  0  0  0  0  0  0  0
  149.9505  142.1214  158.8143 C   0  0  0  0  0  0  0  0  0  0  0  0
  150.2359  143.4989  158.6936 C   0  0  0  0  0  0  0  0  0  0  0  0
  150.8654  144.1899  159.7467 C   0  0  0  0  0  0  0  0  0  0  0  0
  151.2171  143.5071  160.9265 C   0  0  0  0  0  0  0  0  0  0  0  0
  150.9322  142.1343  161.0551 C   0  0  0  0  0  0  0  0  0  0  0  0
  150.2985  141.4437  160.0041 C   0  0  0  0  0  0  0  0  0  0  0  0
  151.5531  134.2734  155.3478 H   0  0  0  0  0  0  0  0  0  0  0  0
  149.7890  134.2862  155.4944 H   0  0  0  0  0  0  0  0  0  0  0  0
  150.7847  133.6899  156.8279 H   0  0  0  0  0  0  0  0  0  0  0  0
  151.1953  136.5931  154.7858 H   0  0  0  0  0  0  0  0  0  0  0  0
  150.8677  138.3565  157.1432 H   0  0  0  0  0  0  0  0  0  0  0  0
  152.4765  139.9239  156.0289 H   0  0  0  0  0  0  0  0  0  0  0  0
  152.7190  138.7571  154.7317 H   0  0  0  0  0  0  0  0  0  0  0  0
  153.2331  138.3741  156.3733 H   0  0  0  0  0  0  0  0  0  0  0  0
  147.3008  138.3095  152.3048 H   0  0  0  0  0  0  0  0  0  0  0  0
  145.9221  140.3098  151.7852 H   0  0  0  0  0  0  0  0  0  0  0  0
  146.2595  142.4287  153.0413 H   0  0  0  0  0  0  0  0  0  0  0  0
  147.9878  142.5561  154.8313 H   0  0  0  0  0  0  0  0  0  0  0  0
  151.1883  140.9390  156.7266 H   0  0  0  0  0  0  0  0  0  0  0  0
  150.2649  142.1602  155.9132 H   0  0  0  0  0  0  0  0  0  0  0  0
  148.9567  140.4057  158.0305 H   0  0  0  0  0  0  0  0  0  0  0  0
  148.3059  142.8824  156.9017 H   0  0  0  0  0  0  0  0  0  0  0  0
  149.9656  144.0318  157.7936 H   0  0  0  0  0  0  0  0  0  0  0  0
  151.0768  145.2447  159.6501 H   0  0  0  0  0  0  0  0  0  0  0  0
  151.6976  144.0373  161.7355 H   0  0  0  0  0  0  0  0  0  0  0  0
  151.1933  141.6117  161.9635 H   0  0  0  0  0  0  0  0  0  0  0  0
  150.0764  140.3928  160.1189 H   0  0  0  0  0  0  0  0  0  0  0  0
  1  2  1  0  0  0  0
  1 25  1  0  0  0  0
  1 26  1  0  0  0  0
  1 27  1  0  0  0  0
  2  3  2  0  0  0  0
  2  4  1  0  0  0  0
  4  5  1  0  0  0  0
  4 28  1  0  0  0  0
  5  6  1  0  0  0  0
  5  7  1  0  0  0  0
  5 29  1  0  0  0  0
  6 30  1  0  0  0  0
  6 31  1  0  0  0  0
  6 32  1  0  0  0  0
  7 15  1  0  0  0  0
  7  8  2  0  0  0  0
  8  9  1  0  0  0  0
  9 14  2  0  0  0  0
  9 10  1  0  0  0  0
 10 11  2  0  0  0  0
 10 33  1  0  0  0  0
 11 12  1  0  0  0  0
 11 34  1  0  0  0  0
 12 13  2  0  0  0  0
 12 35  1  0  0  0  0
 13 14  1  0  0  0  0
 13 36  1  0  0  0  0
 14 15  1  0  0  0  0
 15 16  1  0  0  0  0
 16 17  1  0  0  0  0
 16 37  1  0  0  0  0
 16 38  1  0  0  0  0
 17 18  1  0  0  0  0
 17 19  1  0  0  0  0
 17 39  1  0  0  0  0
 18 40  1  0  0  0  0
 19 24  1  0  0  0  0
 19 20  2  0  0  0  0
 20 21  1  0  0  0  0
 20 41  1  0  0  0  0
 21 22  2  0  0  0  0
 21 42  1  0  0  0  0
 22 23  1  0  0  0  0
 22 43  1  0  0  0  0
 23 24  2  0  0  0  0
 23 44  1  0  0  0  0
 24 45  1  0  0  0  0
M  END
> <s_m_source_file>
AV-unprocessed.smi

> <i_m_source_file_index>
447

> <i_lp_mmshare_version>
43012

> <i_f3d_flags>
0

> <s_epik_input>
W0NIM11DKD1PKVtOSF1bQ0BIXShbQ0gzXSljKG4xKW4oYyhjMTIpW2NIXVtjSF1bY0hdW2NIXTIpW0NIMl1bQ0BIXShbT0hdKWMzW2NIXVtjSF1bY0hdW2NIXVtjSF0z

> <s_epik_cmdline>
J2VwaWtfcHl0aG9uJywgJy1waCcsICc3LjAnLCAnLXRuJywgJzgnLCAnLW1hJywgJzIwMCcsICctbWV0YWxfYmluZGluZycsICctaW1hZScsICc8aW5maWxlLm1hZT4nLCAnLW9tYWUnLCAnPG91dGZpbGUubWFlPic=

> <r_epik_Ionization_Penalty>
0.13301

> <r_epik_Ionization_Penalty_Charging>
0

> <r_epik_Ionization_Penalty_Neutral>
0.13301

> <r_epik_State_Penalty>
0.122384

> <r_epik_Charging_Adjusted_Penalty>
0.122384

> <i_epik_Tot_Q>
0

> <i_epik_Tot_abs_Q>
0

> <r_epik_Metal_State_Penalty>
0.0997374

> <b_epik_Metal_Only>
0

> <s_lp_Force_Field>
OPLS_2005

> <r_lp_Energy>
6.90784

> <b_lp_Chiralities_Consistent>
1

> <s_lp_Variant>
AV-unprocessed.smi:447-2

> <Gold.Version>
5.8.1

> <Gold.Id.Protein>
6NUR|6NUR_protein|mol2

> <Gold.PLP.Fitness>
51.7652

> <Gold.PLP.PLP>
-49.9123

> <Gold.PLP.part.hbond>
-1.7132

> <Gold.PLP.part.metal>
0.0000

> <Gold.PLP.part.buried>
-2.1764

> <Gold.PLP.part.nonpolar>
-46.7565

> <Gold.PLP.part.repulsive>
0.3268

> <Gold.PLP.ligand.clash>
0.0000

> <Gold.PLP.ligand.torsion>
0.6047

> <Gold.PLP.Chemscore.Hbond>
1.0000

> <Gold.PLP.Chemscore.CHOScore>
0.0000

> <Gold.PLP.Chemscore.Metal>
0.0000

> <Gold.Chemscore.Hbonds>
donor molecule, donor type, donor heavy atom, donor atom, acceptor molecule, acceptor atom, score
      L1  H    18    40       P1  8028  0.37
      P1  H  6896  6908       L1     3  0.35

> <Gold.PLP.Chemscore.Internal.Correction>
0.0624

> <Gold.Rescore>
     Score         DG    S(hbond)    S(metal)    S(lipo)     H(rot)  DE(clash)    DE(int)     intcor
     18.72     -20.33       1.25        0.00     142.65       2.35       1.01       0.60       ----

> <Gold.Chemscore.Fitness>
18.7173

> <Gold.Chemscore.DG>
-20.3282

> <Gold.Chemscore.ZeroCoef>
-5.4800

> <Gold.Chemscore.Hbond>
1.2519

> <Gold.Chemscore.Metal>
0.0000

> <Gold.Chemscore.Lipo>
142.6496

> <Gold.Chemscore.Internal_Hbond>
0.0000

> <Gold.Chemscore.DEClash>
1.0071

> <Gold.Chemscore.DEInternal>
0.6037

> <Gold.Chemscore.Rot>
2.3528

> <Gold.Chemscore.Internal.Correction>
   9.000000E+99

> <Gold.Chemscore.Hbonds>
donor molecule, donor type, donor heavy atom, donor atom, acceptor molecule, acceptor atom, score
      L1  H    18    40       P1  8028  0.17
      P1  H  6896  6908       L1     3  0.35

> <Gold.Chemscore.Hbond.Weighted>
-4.1813

> <Gold.Chemscore.Metal.Weighted>
-0.0000

> <Gold.Chemscore.Lipo.Weighted>
-16.6900

> <Gold.Chemscore.Internal_Hbond.Weighted>
0.0000

> <Gold.Chemscore.DEClash.Weighted>
1.0071

> <Gold.Chemscore.DEInternal.Weighted>
0.6037

> <Gold.Chemscore.Rot.Weighted>
6.0231

> <Gold.Chemscore.Internal.Correction.Weighted>
   9.000000E+99

> <Gold.Protein.RotatedTorsions>
[ 6907 6896 6895 6894 ] final -167.44 input  -60.11 | X-H torsion
[ 7974 7965 7964 7962 ] final  136.42 input  175.53 | X-H torsion
[ 8008 7997 7996 7995 ] final  -43.91 input   59.86 | X-H torsion
[ 10167 10162 10161 10158 ] final   41.19 input  -65.29 | X-H torsion
[ 10718 10713 10712 10709 ] final  123.92 input   66.30 | X-H torsion
[ 10763 10752 10751 10750 ] final -163.22 input  -60.55 | X-H torsion
[ 11005 11000 10999 10996 ] final  146.03 input  -57.11 | X-H torsion

> <Gold.Protein.ActiveResidues>
 VAL166  LYS551  ARG553  GLY616  TRP617  ASP618  TYR619  PRO620  LYS621  CYS622 
 ASP623  PHE694  ASN695  SER759  ASP760  ASP761  ALA762  ILE779  LEU786  VAL792 
 PHE793  MET794  SER795  GLU796  ALA797  LYS798  CYS799  TRP800  GLU811  SER814 

> <Gold.Protein.RotatedAtoms>
  151.4595  133.3596  159.2806 H   0  0  0  0  0  0  0  0  0  0  0  0  # atno 6907 bound_to 6896
  150.9035  134.8450  159.7387 H   0  0  0  0  0  0  0  0  0  0  0  0  # atno 6908 bound_to 6896
  152.4893  134.4518  159.9629 H   0  0  0  0  0  0  0  0  0  0  0  0  # atno 6909 bound_to 6896
  144.9567  139.4757  143.5499 H   0  0  0  0  0  0  0  0  0  0  0  0  # atno 7974 bound_to 7965
  154.3997  140.1436  156.3596 H   0  0  0  0  0  0  0  0  0  0  0  0  # atno 8008 bound_to 7997
  155.8193  140.3470  155.5484 H   0  0  0  0  0  0  0  0  0  0  0  0  # atno 8009 bound_to 7997
  155.8304  140.0911  157.1786 H   0  0  0  0  0  0  0  0  0  0  0  0  # atno 8010 bound_to 7997
  140.3667  144.2158  150.6135 H   0  0  0  0  0  0  0  0  0  0  0  0  # atno 10167 bound_to 10162
  157.5626  131.1088  150.8510 H   0  0  0  0  0  0  0  0  0  0  0  0  # atno 10718 bound_to 10713
  154.7142  135.3012  154.9149 H   0  0  0  0  0  0  0  0  0  0  0  0  # atno 10763 bound_to 10752
  154.0041  135.6703  153.4765 H   0  0  0  0  0  0  0  0  0  0  0  0  # atno 10764 bound_to 10752
  153.0780  135.5024  154.8359 H   0  0  0  0  0  0  0  0  0  0  0  0  # atno 10765 bound_to 10752
  140.0760  134.9125  157.1423 H   0  0  0  0  0  0  0  0  0  0  0  0  # atno 11005 bound_to 11000
  146.3339  139.8689  142.8843 LP  0  0  0  0  0  0  0  0  0  0  0  0  # atno 17320 bound_to 7965
  145.2762  141.0124  143.3743 LP  0  0  0  0  0  0  0  0  0  0  0  0  # atno 17321 bound_to 7965
  140.5073  143.2300  151.8588 LP  0  0  0  0  0  0  0  0  0  0  0  0  # atno 17342 bound_to 10162
  139.4808  144.4990  151.9085 LP  0  0  0  0  0  0  0  0  0  0  0  0  # atno 17343 bound_to 10162
  156.9004  130.5244  149.5283 LP  0  0  0  0  0  0  0  0  0  0  0  0  # atno 17370 bound_to 10713
  156.0677  130.5717  150.9322 LP  0  0  0  0  0  0  0  0  0  0  0  0  # atno 17371 bound_to 10713
  140.3558  134.2549  155.7193 LP  0  0  0  0  0  0  0  0  0  0  0  0  # atno 17394 bound_to 11000
  141.2029  133.7925  157.0365 LP  0  0  0  0  0  0  0  0  0  0  0  0  # atno 17395 bound_to 11000

$$$$
