AV-unprocessed.smi:754|AV-procd|sdf|3607|dock8
  -GOLD-   22720 1 03D 1   1.00000     0.00000
 Structure written by MMmdl.
 37 38  0  0  0  0  0  0  0  0  1 V2000
  146.8249  143.1408  158.6975 C   0  0  0  0  0  0  0  0  0  0  0  0
  147.5805  141.9931  158.0240 C   0  0  0  0  0  0  0  0  0  0  0  0
  147.2303  141.9558  156.6507 O   0  0  0  0  0  0  0  0  0  0  0  0
  147.9444  140.9662  155.9261 C   0  0  2  0  0  0  0  0  0  0  0  0
  149.3630  141.3752  155.5196 C   0  0  0  0  0  0  0  0  0  0  0  0
  149.0833  140.7340  154.1565 C   0  0  1  0  0  0  0  0  0  0  0  0
  149.5362  139.3430  154.1303 N   0  0  0  0  0  0  0  0  0  0  0  0
  150.7572  138.9322  154.5053 C   0  0  0  0  0  0  0  0  0  0  0  0
  151.6398  139.6966  154.8935 O   0  0  0  0  0  0  0  0  0  0  0  0
  151.0271  137.4296  154.4262 C   0  0  0  0  0  0  0  0  0  0  0  0
  151.1914  136.8597  155.7501 N   0  0  0  0  0  0  0  0  0  0  0  0
  150.3597  136.8092  156.7928 C   0  0  0  0  0  0  0  0  0  0  0  0
  150.9122  136.1994  157.8303 N   0  0  0  0  0  0  0  0  0  0  0  0
  152.1718  135.8631  157.3630 N   0  0  0  0  0  0  0  0  0  0  0  0
  152.3435  136.2531  156.1296 N   0  0  0  0  0  0  0  0  0  0  0  0
  147.5606  140.9046  154.4279 C   0  0  0  0  0  0  0  0  0  0  0  0
  146.6180  139.7637  154.0272 C   0  0  0  0  0  0  0  0  0  0  0  0
  146.9647  142.1893  153.8363 C   0  0  0  0  0  0  0  0  0  0  0  0
  147.0701  143.1995  159.7581 H   0  0  0  0  0  0  0  0  0  0  0  0
  145.7468  143.0041  158.6100 H   0  0  0  0  0  0  0  0  0  0  0  0
  147.0805  144.0978  158.2420 H   0  0  0  0  0  0  0  0  0  0  0  0
  148.6551  142.1404  158.1387 H   0  0  0  0  0  0  0  0  0  0  0  0
  147.3236  141.0468  158.5021 H   0  0  0  0  0  0  0  0  0  0  0  0
  147.9116  139.9825  156.3998 H   0  0  0  0  0  0  0  0  0  0  0  0
  149.4939  142.4568  155.4592 H   0  0  0  0  0  0  0  0  0  0  0  0
  150.1566  140.9090  156.1046 H   0  0  0  0  0  0  0  0  0  0  0  0
  149.4543  141.3379  153.3261 H   0  0  0  0  0  0  0  0  0  0  0  0
  148.8720  138.6501  153.8169 H   0  0  0  0  0  0  0  0  0  0  0  0
  150.2008  136.9253  153.9234 H   0  0  0  0  0  0  0  0  0  0  0  0
  151.9263  137.2404  153.8379 H   0  0  0  0  0  0  0  0  0  0  0  0
  149.3606  137.2191  156.7923 H   0  0  0  0  0  0  0  0  0  0  0  0
  146.6108  139.6132  152.9472 H   0  0  0  0  0  0  0  0  0  0  0  0
  145.5924  139.9641  154.3388 H   0  0  0  0  0  0  0  0  0  0  0  0
  146.9042  138.8167  154.4852 H   0  0  0  0  0  0  0  0  0  0  0  0
  146.8980  142.1325  152.7493 H   0  0  0  0  0  0  0  0  0  0  0  0
  147.5685  143.0656  154.0736 H   0  0  0  0  0  0  0  0  0  0  0  0
  145.9609  142.3802  154.2169 H   0  0  0  0  0  0  0  0  0  0  0  0
  1  2  1  0  0  0  0
  1 19  1  0  0  0  0
  1 20  1  0  0  0  0
  1 21  1  0  0  0  0
  2  3  1  0  0  0  0
  2 22  1  0  0  0  0
  2 23  1  0  0  0  0
  3  4  1  0  0  0  0
  4 16  1  0  0  0  0
  4  5  1  0  0  0  0
  4 24  1  0  0  0  0
  5  6  1  0  0  0  0
  5 25  1  0  0  0  0
  5 26  1  0  0  0  0
  6  7  1  0  0  0  0
  6 16  1  0  0  0  0
  6 27  1  0  0  0  0
  7  8  1  0  0  0  0
  7 28  1  0  0  0  0
  8  9  2  0  0  0  0
  8 10  1  0  0  0  0
 10 11  1  0  0  0  0
 10 29  1  0  0  0  0
 10 30  1  0  0  0  0
 11 15  1  0  0  0  0
 11 12  1  0  0  0  0
 12 13  2  0  0  0  0
 12 31  1  0  0  0  0
 13 14  1  0  0  0  0
 14 15  2  0  0  0  0
 16 17  1  0  0  0  0
 16 18  1  0  0  0  0
 17 32  1  0  0  0  0
 17 33  1  0  0  0  0
 17 34  1  0  0  0  0
 18 35  1  0  0  0  0
 18 36  1  0  0  0  0
 18 37  1  0  0  0  0
M  END
> <s_m_source_file>
AV-unprocessed.smi

> <i_m_source_file_index>
754

> <i_lp_mmshare_version>
43012

> <i_f3d_flags>
0

> <s_epik_input>
W0NIM11bQ0gyXU9bQ0BASF0oQzEoW0NIM10pW0NIM10pW0NIMl1bQ0BIXTFbTkhdQyg9TylbQ0gyXW4yW2NIXW5ubjI=

> <s_epik_cmdline>
J2VwaWtfcHl0aG9uJywgJy1waCcsICc3LjAnLCAnLXRuJywgJzgnLCAnLW1hJywgJzIwMCcsICctbWV0YWxfYmluZGluZycsICctaW1hZScsICc8aW5maWxlLm1hZT4nLCAnLW9tYWUnLCAnPG91dGZpbGUubWFlPic=

> <r_lp_tautomer_probability>
1

> <r_epik_Ionization_Penalty>
8.28422e-07

> <r_epik_Ionization_Penalty_Charging>
0

> <r_epik_Ionization_Penalty_Neutral>
8.28422e-07

> <r_epik_State_Penalty>
-0

> <r_epik_Charging_Adjusted_Penalty>
0

> <i_epik_Tot_Q>
0

> <i_epik_Tot_abs_Q>
0

> <r_epik_Metal_State_Penalty>
-0

> <b_epik_Metal_Only>
0

> <s_lp_Force_Field>
OPLS_2005

> <r_lp_Energy>
23.2797

> <b_lp_Chiralities_Consistent>
1

> <s_lp_Variant>
AV-unprocessed.smi:754-1

> <Gold.Version>
5.8.1

> <Gold.Id.Protein>
6NUR|6NUR_protein|mol2

> <Gold.PLP.Fitness>
33.6722

> <Gold.PLP.PLP>
-27.5880

> <Gold.PLP.part.hbond>
-4.5398

> <Gold.PLP.part.metal>
0.0000

> <Gold.PLP.part.buried>
-4.9689

> <Gold.PLP.part.nonpolar>
-18.9359

> <Gold.PLP.part.repulsive>
0.2903

> <Gold.PLP.ligand.clash>
0.0000

> <Gold.PLP.ligand.torsion>
0.3858

> <Gold.PLP.Chemscore.Hbond>
2.1669

> <Gold.PLP.Chemscore.CHOScore>
0.0000

> <Gold.PLP.Chemscore.Metal>
0.0000

> <Gold.Chemscore.Hbonds>
donor molecule, donor type, donor heavy atom, donor atom, acceptor molecule, acceptor atom, score
      P1  H  6896  6909       L1    13  0.18
      P1  H  7989  7998       L1     9  1.00
      P1  H 10752 10763       L1    15  0.99

> <Gold.PLP.Chemscore.Internal.Correction>
0.3553

> <Gold.Rescore>
     Score         DG    S(hbond)    S(metal)    S(lipo)     H(rot)  DE(clash)    DE(int)     intcor
      9.10     -10.89       2.09        0.00      40.59       2.46       0.15       1.65       ----

> <Gold.Chemscore.Fitness>
9.0970

> <Gold.Chemscore.DG>
-10.8940

> <Gold.Chemscore.ZeroCoef>
-5.4800

> <Gold.Chemscore.Hbond>
2.0858

> <Gold.Chemscore.Metal>
0.0000

> <Gold.Chemscore.Lipo>
40.5890

> <Gold.Chemscore.Internal_Hbond>
0.0000

> <Gold.Chemscore.DEClash>
0.1481

> <Gold.Chemscore.DEInternal>
1.6490

> <Gold.Chemscore.Rot>
2.4616

> <Gold.Chemscore.Internal.Correction>
   9.000000E+99

> <Gold.Chemscore.Hbonds>
donor molecule, donor type, donor heavy atom, donor atom, acceptor molecule, acceptor atom, score
      P1  H  6896  6909       L1    13  0.03
      P1  H  7989  7998       L1     9  0.25
      P1  H 10752 10763       L1    15  0.69

> <Gold.Chemscore.Hbond.Weighted>
-6.9667

> <Gold.Chemscore.Metal.Weighted>
-0.0000

> <Gold.Chemscore.Lipo.Weighted>
-4.7489

> <Gold.Chemscore.Internal_Hbond.Weighted>
0.0000

> <Gold.Chemscore.DEClash.Weighted>
0.1481

> <Gold.Chemscore.DEInternal.Weighted>
1.6490

> <Gold.Chemscore.Rot.Weighted>
6.3016

> <Gold.Chemscore.Internal.Correction.Weighted>
   9.000000E+99

> <Gold.Protein.RotatedTorsions>
[ 6907 6896 6895 6894 ] final   78.36 input  -60.11 | X-H torsion
[ 7974 7965 7964 7962 ] final -129.83 input  175.53 | X-H torsion
[ 8008 7997 7996 7995 ] final -128.86 input   59.86 | X-H torsion
[ 10167 10162 10161 10158 ] final  119.85 input  -65.29 | X-H torsion
[ 10718 10713 10712 10709 ] final  -75.60 input   66.30 | X-H torsion
[ 10763 10752 10751 10750 ] final   74.50 input  -60.55 | X-H torsion
[ 11005 11000 10999 10996 ] final  -22.55 input  -57.11 | X-H torsion

> <Gold.Protein.ActiveResidues>
 VAL166  LYS551  ARG553  GLY616  TRP617  ASP618  TYR619  PRO620  LYS621  CYS622 
 ASP623  PHE694  ASN695  SER759  ASP760  ASP761  ALA762  ILE779  LEU786  VAL792 
 PHE793  MET794  SER795  GLU796  ALA797  LYS798  CYS799  TRP800  GLU811  SER814 

> <Gold.Protein.RotatedAtoms>
  152.5156  134.3676  159.9306 H   0  0  0  0  0  0  0  0  0  0  0  0  # atno 6907 bound_to 6896
  151.3630  133.3876  159.2699 H   0  0  0  0  0  0  0  0  0  0  0  0  # atno 6908 bound_to 6896
  150.9637  134.9040  159.7804 H   0  0  0  0  0  0  0  0  0  0  0  0  # atno 6909 bound_to 6896
  144.9533  140.7368  143.4774 H   0  0  0  0  0  0  0  0  0  0  0  0  # atno 7974 bound_to 7965
  155.2697  140.0439  157.3006 H   0  0  0  0  0  0  0  0  0  0  0  0  # atno 8008 bound_to 7997
  154.5660  140.2360  155.8231 H   0  0  0  0  0  0  0  0  0  0  0  0  # atno 8009 bound_to 7997
  156.2086  140.3005  155.9689 H   0  0  0  0  0  0  0  0  0  0  0  0  # atno 8010 bound_to 7997
  139.6019  144.7059  151.3042 H   0  0  0  0  0  0  0  0  0  0  0  0  # atno 10167 bound_to 10162
  156.0202  130.4445  150.3067 H   0  0  0  0  0  0  0  0  0  0  0  0  # atno 10718 bound_to 10713
  153.0591  135.5023  154.8051 H   0  0  0  0  0  0  0  0  0  0  0  0  # atno 10763 bound_to 10752
  154.6854  135.2975  154.9557 H   0  0  0  0  0  0  0  0  0  0  0  0  # atno 10764 bound_to 10752
  154.0329  135.6727  153.4835 H   0  0  0  0  0  0  0  0  0  0  0  0  # atno 10765 bound_to 10752
  140.8667  133.7749  156.0138 H   0  0  0  0  0  0  0  0  0  0  0  0  # atno 11005 bound_to 11000
  145.2810  139.1918  143.4791 LP  0  0  0  0  0  0  0  0  0  0  0  0  # atno 17320 bound_to 7965
  146.3328  140.2772  142.8608 LP  0  0  0  0  0  0  0  0  0  0  0  0  # atno 17321 bound_to 7965
  140.7256  143.7013  150.7843 LP  0  0  0  0  0  0  0  0  0  0  0  0  # atno 17342 bound_to 10162
  140.0591  143.5173  152.2636 LP  0  0  0  0  0  0  0  0  0  0  0  0  # atno 17343 bound_to 10162
  157.1170  131.0236  151.3025 LP  0  0  0  0  0  0  0  0  0  0  0  0  # atno 17370 bound_to 10713
  157.4659  130.7680  149.7278 LP  0  0  0  0  0  0  0  0  0  0  0  0  # atno 17371 bound_to 10713
  140.8620  134.2829  157.5230 LP  0  0  0  0  0  0  0  0  0  0  0  0  # atno 17394 bound_to 11000
  139.8709  134.9523  156.4111 LP  0  0  0  0  0  0  0  0  0  0  0  0  # atno 17395 bound_to 11000

$$$$
