AV-unprocessed.smi:290|AV-procd|sdf|2238|dock9
  -GOLD-   2262022113D 1   1.00000     0.00000
 Structure written by MMmdl.
 59 62  0  0  0  0  0  0  0  0  2 V2000
  151.7348  139.7409  157.6430 C   0  0  0  0  0  0  0  0  0  0  0  0
  152.0175  139.3522  156.1836 C   0  0  1  0  0  0  0  0  0  0  0  0
  152.9763  138.2983  156.1894 O   0  0  0  0  0  0  0  0  0  0  0  0
  152.7831  137.5056  155.0320 C   0  0  0  0  0  0  0  0  0  0  0  0
  151.2666  137.4178  154.9505 C   0  0  0  0  0  0  0  0  0  0  0  0
  150.8160  138.8215  155.3501 C   0  0  2  0  0  0  0  0  0  0  0  0
  150.7371  139.6029  154.1702 O   0  0  0  0  0  0  0  0  0  0  0  0
  149.4270  138.8535  156.0416 C   0  0  0  0  0  0  0  0  0  0  0  0
  148.3967  138.1346  155.3067 N   0  0  0  0  0  0  0  0  0  0  0  0
  147.3956  138.6883  154.5405 C   0  0  0  0  0  0  0  0  0  0  0  0
  146.5859  137.8329  153.9785 N   0  0  0  0  0  0  0  0  0  0  0  0
  147.0690  136.5944  154.3824 C   0  0  0  0  0  0  0  0  0  0  0  0
  146.6738  135.2468  154.1495 C   0  0  0  0  0  0  0  0  0  0  0  0
  145.6214  134.8680  153.3930 N   0  0  0  0  0  0  0  0  0  0  0  0
  144.8711  135.9416  152.7483 C   0  0  0  0  0  0  0  0  0  0  0  0
  144.5177  135.4360  151.3482 C   0  0  0  0  0  0  0  0  0  0  0  0
  145.6545  134.4537  151.0460 C   0  0  2  0  0  0  0  0  0  0  0  0
  145.4075  133.4996  149.9243 N   0  3  1  0  0  0  0  0  0  0  0  0
  146.3111  132.3213  149.9665 C   0  0  0  0  0  0  0  0  0  0  0  0
  143.9755  133.1002  149.8259 C   0  0  0  0  0  0  0  0  0  0  0  0
  143.4732  132.9873  148.3743 C   0  0  0  0  0  0  0  0  0  0  0  0
  143.4510  134.2580  147.7603 O   0  0  0  0  0  0  0  0  0  0  0  0
  145.8828  133.8023  152.4296 C   0  0  2  0  0  0  0  0  0  0  0  0
  144.9615  132.6057  152.7330 C   0  0  0  0  0  0  0  0  0  0  0  0
  147.4109  134.2600  154.7136 N   0  0  0  0  0  0  0  0  0  0  0  0
  148.4696  134.5665  155.4697 C   0  0  0  0  0  0  0  0  0  0  0  0
  148.9533  135.7716  155.7800 N   0  0  0  0  0  0  0  0  0  0  0  0
  148.2138  136.7660  155.2103 C   0  0  0  0  0  0  0  0  0  0  0  0
  146.5347  135.0434  150.7856 H   0  0  0  0  0  0  0  0  0  0  0  0
  146.9178  133.4650  152.5101 H   0  0  0  0  0  0  0  0  0  0  0  0
  151.0065  140.5496  157.7060 H   0  0  0  0  0  0  0  0  0  0  0  0
  152.6469  140.0849  158.1310 H   0  0  0  0  0  0  0  0  0  0  0  0
  151.3584  138.8947  158.2181 H   0  0  0  0  0  0  0  0  0  0  0  0
  152.4775  140.2072  155.6841 H   0  0  0  0  0  0  0  0  0  0  0  0
  153.1981  138.0133  154.1597 H   0  0  0  0  0  0  0  0  0  0  0  0
  153.2591  136.5298  155.1268 H   0  0  0  0  0  0  0  0  0  0  0  0
  150.9067  137.0983  153.9715 H   0  0  0  0  0  0  0  0  0  0  0  0
  150.9212  136.6896  155.6855 H   0  0  0  0  0  0  0  0  0  0  0  0
  150.2068  139.1415  153.5383 H   0  0  0  0  0  0  0  0  0  0  0  0
  149.4866  138.4070  157.0343 H   0  0  0  0  0  0  0  0  0  0  0  0
  149.0925  139.8819  156.1848 H   0  0  0  0  0  0  0  0  0  0  0  0
  147.2812  139.7552  154.4143 H   0  0  0  0  0  0  0  0  0  0  0  0
  143.9737  136.1795  153.3199 H   0  0  0  0  0  0  0  0  0  0  0  0
  145.4674  136.8525  152.6804 H   0  0  0  0  0  0  0  0  0  0  0  0
  143.5583  134.9174  151.3722 H   0  0  0  0  0  0  0  0  0  0  0  0
  144.4469  136.2509  150.6271 H   0  0  0  0  0  0  0  0  0  0  0  0
  146.1844  131.7675  150.8977 H   0  0  0  0  0  0  0  0  0  0  0  0
  147.3566  132.6173  149.8850 H   0  0  0  0  0  0  0  0  0  0  0  0
  146.1272  131.6368  149.1404 H   0  0  0  0  0  0  0  0  0  0  0  0
  143.8317  132.1515  150.3453 H   0  0  0  0  0  0  0  0  0  0  0  0
  143.3409  133.8204  150.3419 H   0  0  0  0  0  0  0  0  0  0  0  0
  144.0704  132.3010  147.7760 H   0  0  0  0  0  0  0  0  0  0  0  0
  142.4561  132.5945  148.3717 H   0  0  0  0  0  0  0  0  0  0  0  0
  144.3393  134.5115  147.5584 H   0  0  0  0  0  0  0  0  0  0  0  0
  145.1619  131.7649  152.0712 H   0  0  0  0  0  0  0  0  0  0  0  0
  143.9079  132.8674  152.6327 H   0  0  0  0  0  0  0  0  0  0  0  0
  145.1155  132.2511  153.7527 H   0  0  0  0  0  0  0  0  0  0  0  0
  149.0053  133.7265  155.8872 H   0  0  0  0  0  0  0  0  0  0  0  0
  145.6231  134.0023  149.0746 H   0  0  0  0  0  0  0  0  0  0  0  0
  1  2  1  0  0  0  0
  1 31  1  0  0  0  0
  1 32  1  0  0  0  0
  1 33  1  0  0  0  0
  2  6  1  0  0  0  0
  2  3  1  0  0  0  0
  2 34  1  0  0  0  0
  3  4  1  0  0  0  0
  4  5  1  0  0  0  0
  4 35  1  0  0  0  0
  4 36  1  0  0  0  0
  5  6  1  0  0  0  0
  5 37  1  0  0  0  0
  5 38  1  0  0  0  0
  6  7  1  0  0  0  0
  6  8  1  0  0  0  0
  7 39  1  0  0  0  0
  8  9  1  0  0  0  0
  8 40  1  0  0  0  0
  8 41  1  0  0  0  0
  9 28  1  0  0  0  0
  9 10  1  0  0  0  0
 10 11  2  0  0  0  0
 10 42  1  0  0  0  0
 11 12  1  0  0  0  0
 12 28  2  0  0  0  0
 12 13  1  0  0  0  0
 13 14  1  0  0  0  0
 13 25  2  0  0  0  0
 14 23  1  0  0  0  0
 14 15  1  0  0  0  0
 15 16  1  0  0  0  0
 15 43  1  0  0  0  0
 15 44  1  0  0  0  0
 16 17  1  0  0  0  0
 16 45  1  0  0  0  0
 16 46  1  0  0  0  0
 17 29  1  0  0  0  0
 17 18  1  0  0  0  0
 17 23  1  0  0  0  0
 18 19  1  0  0  0  0
 18 20  1  0  0  0  0
 18 59  1  0  0  0  0
 19 47  1  0  0  0  0
 19 48  1  0  0  0  0
 19 49  1  0  0  0  0
 20 21  1  0  0  0  0
 20 50  1  0  0  0  0
 20 51  1  0  0  0  0
 21 22  1  0  0  0  0
 21 52  1  0  0  0  0
 21 53  1  0  0  0  0
 22 54  1  0  0  0  0
 23 30  1  0  0  0  0
 23 24  1  0  0  0  0
 24 55  1  0  0  0  0
 24 56  1  0  0  0  0
 24 57  1  0  0  0  0
 25 26  1  0  0  0  0
 26 27  2  0  0  0  0
 26 58  1  0  0  0  0
 27 28  1  0  0  0  0
M  CHG  1  18   1
M  END
> <s_m_source_file>
AV-unprocessed.smi

> <i_m_source_file_index>
290

> <i_lp_mmshare_version>
43012

> <i_f3d_flags>
0

> <s_epik_input>
W0NIMl0xW0NIMl1PW0NAQEhdKFtDSDNdKVtDQEBdMShbT0hdKVtDSDJdbihbY0hdbjIpYyhjMjMpbltjSF1uYzNONFtDSDJdW0NIMl1bQ0BIXShbQ0BIXTRbQ0gzXSlOKFtDSDNdKVtDSDJdW0NIMl1bT0hd

> <s_epik_cmdline>
J2VwaWtfcHl0aG9uJywgJy1waCcsICc3LjAnLCAnLXRuJywgJzgnLCAnLW1hJywgJzIwMCcsICctbWV0YWxfYmluZGluZycsICctaW1hZScsICc8aW5maWxlLm1hZT4nLCAnLW9tYWUnLCAnPG91dGZpbGUubWFlPic=

> <r_lp_tautomer_probability>
1

> <r_epik_Ionization_Penalty>
0.0036983

> <r_epik_Ionization_Penalty_Charging>
0.0032725

> <r_epik_Ionization_Penalty_Neutral>
0.000425798

> <r_epik_State_Penalty>
-0

> <r_epik_Charging_Adjusted_Penalty>
0.0032725

> <i_epik_Tot_Q>
1

> <i_epik_Tot_abs_Q>
1

> <r_epik_Metal_State_Penalty>
-0

> <b_epik_Metal_Only>
0

> <s_lp_Force_Field>
OPLS_2005

> <r_lp_Energy>
65.2736

> <b_lp_Chiralities_Consistent>
1

> <s_lp_Variant>
AV-unprocessed.smi:290-24

> <Gold.Version>
5.8.1

> <Gold.Id.Protein>
6NUR|6NUR_protein|mol2

> <Gold.PLP.Fitness>
56.7912

> <Gold.PLP.PLP>
-43.6948

> <Gold.PLP.part.hbond>
-7.3933

> <Gold.PLP.part.metal>
0.0000

> <Gold.PLP.part.buried>
-2.3014

> <Gold.PLP.part.nonpolar>
-32.5553

> <Gold.PLP.part.repulsive>
0.5256

> <Gold.PLP.ligand.clash>
0.0000

> <Gold.PLP.ligand.torsion>
1.3645

> <Gold.PLP.Chemscore.Hbond>
5.2112

> <Gold.PLP.Chemscore.CHOScore>
0.0000

> <Gold.PLP.Chemscore.Metal>
0.0000

> <Gold.Chemscore.Hbonds>
donor molecule, donor type, donor heavy atom, donor atom, acceptor molecule, acceptor atom, score
      L1  H    18    59       P1  7921  1.00
      L1  H    22    54       P1  7921  1.00
      P1  H  7989  7998       L1     7  1.00
      P1  H 10192 10197       L1    22  1.00

> <Gold.PLP.Chemscore.Internal.Correction>
0.1918

> <Gold.Rescore>
     Score         DG    S(hbond)    S(metal)    S(lipo)     H(rot)  DE(clash)    DE(int)     intcor
     17.87     -22.40       4.63        0.00      92.56       3.67       0.22       4.31       ----

> <Gold.Chemscore.Fitness>
17.8692

> <Gold.Chemscore.DG>
-22.4027

> <Gold.Chemscore.ZeroCoef>
-5.4800

> <Gold.Chemscore.Hbond>
4.6342

> <Gold.Chemscore.Metal>
0.0000

> <Gold.Chemscore.Lipo>
92.5557

> <Gold.Chemscore.Internal_Hbond>
0.0000

> <Gold.Chemscore.DEClash>
0.2213

> <Gold.Chemscore.DEInternal>
4.3122

> <Gold.Chemscore.Rot>
3.6658

> <Gold.Chemscore.Internal.Correction>
   9.000000E+99

> <Gold.Chemscore.Hbonds>
donor molecule, donor type, donor heavy atom, donor atom, acceptor molecule, acceptor atom, score
      L1  H    18    59       P1  7921  0.60
      L1  H    22    54       P1  7921  1.00
      P1  H  7989  7998       L1     7  0.85
      P1  H 10192 10197       L1    22  0.99

> <Gold.Chemscore.Hbond.Weighted>
-15.4781

> <Gold.Chemscore.Metal.Weighted>
-0.0000

> <Gold.Chemscore.Lipo.Weighted>
-10.8290

> <Gold.Chemscore.Internal_Hbond.Weighted>
0.0000

> <Gold.Chemscore.DEClash.Weighted>
0.2213

> <Gold.Chemscore.DEInternal.Weighted>
4.3122

> <Gold.Chemscore.Rot.Weighted>
9.3844

> <Gold.Chemscore.Internal.Correction.Weighted>
   9.000000E+99

> <Gold.Protein.RotatedTorsions>
[ 6907 6896 6895 6894 ] final  -80.36 input  -60.11 | X-H torsion
[ 7974 7965 7964 7962 ] final   57.27 input  175.53 | X-H torsion
[ 8008 7997 7996 7995 ] final -159.09 input   59.86 | X-H torsion
[ 10167 10162 10161 10158 ] final   68.48 input  -65.29 | X-H torsion
[ 10718 10713 10712 10709 ] final  -22.79 input   66.30 | X-H torsion
[ 10763 10752 10751 10750 ] final  134.82 input  -60.55 | X-H torsion
[ 11005 11000 10999 10996 ] final -151.41 input  -57.11 | X-H torsion

> <Gold.Protein.ActiveResidues>
 VAL166  LYS551  ARG553  GLY616  TRP617  ASP618  TYR619  PRO620  LYS621  CYS622 
 ASP623  PHE694  ASN695  SER759  ASP760  ASP761  ALA762  ILE779  LEU786  VAL792 
 PHE793  MET794  SER795  GLU796  ALA797  LYS798  CYS799  TRP800  GLU811  SER814 

> <Gold.Protein.RotatedAtoms>
  150.6931  134.3981  159.5106 H   0  0  0  0  0  0  0  0  0  0  0  0  # atno 6907 bound_to 6896
  152.1759  134.8792  160.0539 H   0  0  0  0  0  0  0  0  0  0  0  0  # atno 6908 bound_to 6896
  151.9801  133.3720  159.4141 H   0  0  0  0  0  0  0  0  0  0  0  0  # atno 6909 bound_to 6896
  145.9308  139.3806  143.0422 H   0  0  0  0  0  0  0  0  0  0  0  0  # atno 7974 bound_to 7965
  155.7574  140.0834  157.2172 H   0  0  0  0  0  0  0  0  0  0  0  0  # atno 8008 bound_to 7997
  154.4006  140.1549  156.2850 H   0  0  0  0  0  0  0  0  0  0  0  0  # atno 8009 bound_to 7997
  155.8872  140.3417  155.5933 H   0  0  0  0  0  0  0  0  0  0  0  0  # atno 8010 bound_to 7997
  140.0782  144.5094  150.7180 H   0  0  0  0  0  0  0  0  0  0  0  0  # atno 10167 bound_to 10162
  156.4998  130.4585  149.6707 H   0  0  0  0  0  0  0  0  0  0  0  0  # atno 10718 bound_to 10713
  153.8299  135.3105  155.3418 H   0  0  0  0  0  0  0  0  0  0  0  0  # atno 10763 bound_to 10752
  154.7977  135.4745  154.0204 H   0  0  0  0  0  0  0  0  0  0  0  0  # atno 10764 bound_to 10752
  153.1641  135.6866  153.8792 H   0  0  0  0  0  0  0  0  0  0  0  0  # atno 10765 bound_to 10752
  140.7298  134.3634  157.5168 H   0  0  0  0  0  0  0  0  0  0  0  0  # atno 11005 bound_to 11000
  145.8428  140.9571  143.0790 LP  0  0  0  0  0  0  0  0  0  0  0  0  # atno 17320 bound_to 7965
  144.6764  140.0306  143.7482 LP  0  0  0  0  0  0  0  0  0  0  0  0  # atno 17321 bound_to 7965
  140.7091  143.2491  151.4636 LP  0  0  0  0  0  0  0  0  0  0  0  0  # atno 17342 bound_to 10162
  139.5795  144.1742  152.1949 LP  0  0  0  0  0  0  0  0  0  0  0  0  # atno 17343 bound_to 10162
  156.3344  130.7348  151.2283 LP  0  0  0  0  0  0  0  0  0  0  0  0  # atno 17370 bound_to 10713
  157.7464  131.0421  150.4678 LP  0  0  0  0  0  0  0  0  0  0  0  0  # atno 17371 bound_to 10713
  139.8829  134.9011  156.2803 LP  0  0  0  0  0  0  0  0  0  0  0  0  # atno 17394 bound_to 11000
  140.9931  133.7197  156.0844 LP  0  0  0  0  0  0  0  0  0  0  0  0  # atno 17395 bound_to 11000

$$$$
