AV-unprocessed.smi:60|AV-procd|sdf|594|dock3
  -GOLD-   2262016493D 1   1.00000     0.00000
 Structure written by MMmdl.
 35 36  0  0  0  0  0  0  0  0  2 V2000
  152.4476  139.8545  156.1845 O   0  0  0  0  0  0  0  0  0  0  0  0
  151.3465  140.3553  155.9577 C   0  0  0  0  0  0  0  0  0  0  0  0
  150.7825  140.3336  154.7145 N   0  5  0  0  0  0  0  0  0  0  0  0
  149.5544  140.8646  154.4300 C   0  0  0  0  0  0  0  0  0  0  0  0
  149.0731  140.8382  153.2964 O   0  0  0  0  0  0  0  0  0  0  0  0
  148.8430  141.4391  155.4442 N   0  0  0  0  0  0  0  0  0  0  0  0
  147.5407  142.0450  155.1938 C   0  0  0  0  0  0  0  0  0  0  0  0
  146.5185  141.3570  155.8516 O   0  0  0  0  0  0  0  0  0  0  0  0
  146.1920  140.0836  155.3083 C   0  0  0  0  0  0  0  0  0  0  0  0
  144.7487  139.7350  155.6907 C   0  0  0  0  0  0  0  0  0  0  0  0
  143.8600  140.7085  155.1846 O   0  0  0  0  0  0  0  0  0  0  0  0
  149.3859  141.5111  156.7375 C   0  0  0  0  0  0  0  0  0  0  0  0
  150.5960  140.9985  157.0426 C   0  0  0  0  0  0  0  0  0  0  0  0
  151.1802  141.0946  158.4450 C   0  0  0  0  0  0  0  0  0  0  0  0
  151.5635  142.5098  158.8373 C   0  0  0  0  0  0  0  0  0  0  0  0
  151.3169  143.5847  157.9569 C   0  0  0  0  0  0  0  0  0  0  0  0
  151.6725  144.8970  158.3253 C   0  0  0  0  0  0  0  0  0  0  0  0
  152.2740  145.1398  159.5754 C   0  0  0  0  0  0  0  0  0  0  0  0
  152.5203  144.0695  160.4572 C   0  0  0  0  0  0  0  0  0  0  0  0
  152.1669  142.7570  160.0885 C   0  0  0  0  0  0  0  0  0  0  0  0
  147.5629  143.0756  155.5522 H   0  0  0  0  0  0  0  0  0  0  0  0
  147.3421  142.0759  154.1214 H   0  0  0  0  0  0  0  0  0  0  0  0
  146.3288  140.0612  154.2259 H   0  0  0  0  0  0  0  0  0  0  0  0
  146.8559  139.3308  155.7347 H   0  0  0  0  0  0  0  0  0  0  0  0
  144.4720  138.7769  155.2502 H   0  0  0  0  0  0  0  0  0  0  0  0
  144.6371  139.6386  156.7709 H   0  0  0  0  0  0  0  0  0  0  0  0
  143.7643  140.5730  154.2545 H   0  0  0  0  0  0  0  0  0  0  0  0
  148.7652  142.0119  157.4659 H   0  0  0  0  0  0  0  0  0  0  0  0
  150.4946  140.6871  159.1889 H   0  0  0  0  0  0  0  0  0  0  0  0
  152.0661  140.4596  158.4894 H   0  0  0  0  0  0  0  0  0  0  0  0
  150.8537  143.4068  156.9975 H   0  0  0  0  0  0  0  0  0  0  0  0
  151.4831  145.7173  157.6489 H   0  0  0  0  0  0  0  0  0  0  0  0
  152.5462  146.1462  159.8577 H   0  0  0  0  0  0  0  0  0  0  0  0
  152.9802  144.2545  161.4166 H   0  0  0  0  0  0  0  0  0  0  0  0
  152.3574  141.9396  160.7689 H   0  0  0  0  0  0  0  0  0  0  0  0
  1  2  2  0  0  0  0
  2 13  1  0  0  0  0
  2  3  1  0  0  0  0
  3  4  1  0  0  0  0
  4  5  2  0  0  0  0
  4  6  1  0  0  0  0
  6  7  1  0  0  0  0
  6 12  1  0  0  0  0
  7  8  1  0  0  0  0
  7 21  1  0  0  0  0
  7 22  1  0  0  0  0
  8  9  1  0  0  0  0
  9 10  1  0  0  0  0
  9 23  1  0  0  0  0
  9 24  1  0  0  0  0
 10 11  1  0  0  0  0
 10 25  1  0  0  0  0
 10 26  1  0  0  0  0
 11 27  1  0  0  0  0
 12 13  2  0  0  0  0
 12 28  1  0  0  0  0
 13 14  1  0  0  0  0
 14 15  1  0  0  0  0
 14 29  1  0  0  0  0
 14 30  1  0  0  0  0
 15 20  1  0  0  0  0
 15 16  2  0  0  0  0
 16 17  1  0  0  0  0
 16 31  1  0  0  0  0
 17 18  2  0  0  0  0
 17 32  1  0  0  0  0
 18 19  1  0  0  0  0
 18 33  1  0  0  0  0
 19 20  2  0  0  0  0
 19 34  1  0  0  0  0
 20 35  1  0  0  0  0
M  CHG  1   3  -1
M  END
> <s_m_source_file>
AV-unprocessed.smi

> <i_m_source_file_index>
60

> <i_lp_mmshare_version>
43012

> <i_f3d_flags>
0

> <s_epik_input>
W09IXVtDSDJdW0NIMl1PW0NIMl1uKGMoPU8pW25IXWMxPU8pW2NIXWMxW0NIMl1jMltjSF1bY0hdW2NIXVtjSF1bY0hdMg==

> <s_epik_cmdline>
J2VwaWtfcHl0aG9uJywgJy1waCcsICc3LjAnLCAnLXRuJywgJzgnLCAnLW1hJywgJzIwMCcsICctbWV0YWxfYmluZGluZycsICctaW1hZScsICc8aW5maWxlLm1hZT4nLCAnLW9tYWUnLCAnPG91dGZpbGUubWFlPic=

> <r_lp_tautomer_probability>
0.999537

> <r_epik_Ionization_Penalty>
3.13547

> <r_epik_Ionization_Penalty_Charging>
5.3765e-08

> <r_epik_Ionization_Penalty_Neutral>
3.13547

> <r_epik_State_Penalty>
3.13458

> <r_epik_Charging_Adjusted_Penalty>
3.13458

> <i_epik_Tot_Q>
-1

> <i_epik_Tot_abs_Q>
1

> <r_epik_Metal_State_Penalty>
0.106912

> <b_epik_Metal_Only>
1

> <s_epik_Chemistry_Notes>
This compound contains an acetal/aminal-like group ( X-CH(R)-Y where X, Y are N, S, or O) that may be acid/base labile, releasing an aldehyde.

> <s_lp_Force_Field>
OPLS_2005

> <r_lp_Energy>
15.9602

> <b_lp_Chiralities_Consistent>
1

> <s_lp_Variant>
AV-unprocessed.smi:60-2

> <Gold.Version>
5.8.1

> <Gold.Id.Protein>
6NUR|6NUR_protein|mol2

> <Gold.PLP.Fitness>
47.0277

> <Gold.PLP.PLP>
-35.5292

> <Gold.PLP.part.hbond>
-4.8190

> <Gold.PLP.part.metal>
0.0000

> <Gold.PLP.part.buried>
-3.1657

> <Gold.PLP.part.nonpolar>
-31.3939

> <Gold.PLP.part.repulsive>
5.3155

> <Gold.PLP.ligand.clash>
0.0000

> <Gold.PLP.ligand.torsion>
0.3092

> <Gold.PLP.Chemscore.Hbond>
4.0000

> <Gold.PLP.Chemscore.CHOScore>
0.0000

> <Gold.PLP.Chemscore.Metal>
0.0000

> <Gold.Chemscore.Hbonds>
donor molecule, donor type, donor heavy atom, donor atom, acceptor molecule, acceptor atom, score
      L1  H    11    27       P1 10175  1.00
      P1  H  7989  7998       L1     3  1.00
      P1  H  7997  8009       L1     1  1.00
      P1  H  8011  8017       L1     5  1.00

> <Gold.PLP.Chemscore.Internal.Correction>
0.1169

> <Gold.Rescore>
     Score         DG    S(hbond)    S(metal)    S(lipo)     H(rot)  DE(clash)    DE(int)     intcor
     15.73     -18.15       3.22        0.00      86.81       3.22       2.05       0.36       ----

> <Gold.Chemscore.Fitness>
15.7296

> <Gold.Chemscore.DG>
-18.1457

> <Gold.Chemscore.ZeroCoef>
-5.4800

> <Gold.Chemscore.Hbond>
3.2154

> <Gold.Chemscore.Metal>
0.0000

> <Gold.Chemscore.Lipo>
86.8114

> <Gold.Chemscore.Internal_Hbond>
0.0000

> <Gold.Chemscore.DEClash>
2.0521

> <Gold.Chemscore.DEInternal>
0.3641

> <Gold.Chemscore.Rot>
3.2151

> <Gold.Chemscore.Internal.Correction>
   9.000000E+99

> <Gold.Chemscore.Hbonds>
donor molecule, donor type, donor heavy atom, donor atom, acceptor molecule, acceptor atom, score
      L1  H    11    27       P1 10175  1.00
      P1  H  7989  7998       L1     3  0.28
      P1  H  7997  8009       L1     1  0.99
      P1  H  8011  8017       L1     5  0.58

> <Gold.Chemscore.Hbond.Weighted>
-10.7394

> <Gold.Chemscore.Metal.Weighted>
-0.0000

> <Gold.Chemscore.Lipo.Weighted>
-10.1569

> <Gold.Chemscore.Internal_Hbond.Weighted>
0.0000

> <Gold.Chemscore.DEClash.Weighted>
2.0521

> <Gold.Chemscore.DEInternal.Weighted>
0.3641

> <Gold.Chemscore.Rot.Weighted>
8.2306

> <Gold.Chemscore.Internal.Correction.Weighted>
   9.000000E+99

> <Gold.Protein.RotatedTorsions>
[ 6907 6896 6895 6894 ] final  100.14 input  -60.11 | X-H torsion
[ 7974 7965 7964 7962 ] final  -43.80 input  175.53 | X-H torsion
[ 8008 7997 7996 7995 ] final -170.63 input   59.86 | X-H torsion
[ 10167 10162 10161 10158 ] final -132.16 input  -65.29 | X-H torsion
[ 10718 10713 10712 10709 ] final  150.52 input   66.30 | X-H torsion
[ 10763 10752 10751 10750 ] final  -87.01 input  -60.55 | X-H torsion
[ 11005 11000 10999 10996 ] final   32.88 input  -57.11 | X-H torsion

> <Gold.Protein.ActiveResidues>
 VAL166  LYS551  ARG553  GLY616  TRP617  ASP618  TYR619  PRO620  LYS621  CYS622 
 ASP623  PHE694  ASN695  SER759  ASP760  ASP761  ALA762  ILE779  LEU786  VAL792 
 PHE793  MET794  SER795  GLU796  ALA797  LYS798  CYS799  TRP800  GLU811  SER814 

> <Gold.Protein.RotatedAtoms>
  152.5378  134.0321  159.8029 H   0  0  0  0  0  0  0  0  0  0  0  0  # atno 6907 bound_to 6896
  151.0490  133.5632  159.2651 H   0  0  0  0  0  0  0  0  0  0  0  0  # atno 6908 bound_to 6896
  151.2573  135.0650  159.9139 H   0  0  0  0  0  0  0  0  0  0  0  0  # atno 6909 bound_to 6896
  145.9983  140.7103  142.9283 H   0  0  0  0  0  0  0  0  0  0  0  0  # atno 7974 bound_to 7965
  155.9209  140.1074  157.1208 H   0  0  0  0  0  0  0  0  0  0  0  0  # atno 8008 bound_to 7997
  154.4054  140.1256  156.4743 H   0  0  0  0  0  0  0  0  0  0  0  0  # atno 8009 bound_to 7997
  155.7197  140.3470  155.5013 H   0  0  0  0  0  0  0  0  0  0  0  0  # atno 8010 bound_to 7997
  139.9114  143.6489  152.2574 H   0  0  0  0  0  0  0  0  0  0  0  0  # atno 10167 bound_to 10162
  157.2824  131.0838  151.1522 H   0  0  0  0  0  0  0  0  0  0  0  0  # atno 10718 bound_to 10713
  154.6288  135.5428  153.7658 H   0  0  0  0  0  0  0  0  0  0  0  0  # atno 10763 bound_to 10752
  153.0274  135.6431  154.1331 H   0  0  0  0  0  0  0  0  0  0  0  0  # atno 10764 bound_to 10752
  154.1262  135.2917  155.3176 H   0  0  0  0  0  0  0  0  0  0  0  0  # atno 10765 bound_to 10752
  140.2689  134.3105  155.7834 H   0  0  0  0  0  0  0  0  0  0  0  0  # atno 11005 bound_to 11000
  144.6911  140.3189  143.7235 LP  0  0  0  0  0  0  0  0  0  0  0  0  # atno 17320 bound_to 7965
  145.7526  139.1798  143.2313 LP  0  0  0  0  0  0  0  0  0  0  0  0  # atno 17321 bound_to 7965
  139.6939  144.7643  151.1390 LP  0  0  0  0  0  0  0  0  0  0  0  0  # atno 17342 bound_to 10162
  140.7684  143.5551  150.9161 LP  0  0  0  0  0  0  0  0  0  0  0  0  # atno 17343 bound_to 10162
  157.2951  130.6815  149.6134 LP  0  0  0  0  0  0  0  0  0  0  0  0  # atno 17370 bound_to 10713
  155.9664  130.4409  150.5318 LP  0  0  0  0  0  0  0  0  0  0  0  0  # atno 17371 bound_to 10713
  141.2180  133.7455  156.9304 LP  0  0  0  0  0  0  0  0  0  0  0  0  # atno 17394 bound_to 11000
  140.1392  134.9305  157.2443 LP  0  0  0  0  0  0  0  0  0  0  0  0  # atno 17395 bound_to 11000

$$$$
