AV-unprocessed.smi:528|AV-procd|sdf|2832|dock7
  -GOLD-   2262023323D 1   1.00000     0.00000
 Structure written by MMmdl.
 45 47  0  0  0  0  0  0  0  0  1 V2000
  146.4229  137.0633  155.2945 C   0  0  0  0  0  0  0  0  0  0  0  0
  147.9040  137.4453  155.1285 C   0  0  1  0  0  0  0  0  0  0  0  0
  148.6372  136.3287  154.5357 N   0  0  0  0  0  0  0  0  0  0  0  0
  149.0980  135.2561  155.1976 C   0  0  0  0  0  0  0  0  0  0  0  0
  148.9241  135.0802  156.4043 O   0  0  0  0  0  0  0  0  0  0  0  0
  149.8522  134.2213  154.3505 C   0  0  0  0  0  0  0  0  0  0  0  0
  149.0278  133.0606  153.9742 N   0  0  0  0  0  0  0  0  0  0  0  0
  147.9584  133.2931  153.0867 C   0  0  0  0  0  0  0  0  0  0  0  0
  147.1231  132.3202  152.6746 C   0  0  0  0  0  0  0  0  0  0  0  0
  146.0091  132.5915  151.6755 C   0  0  0  0  0  0  0  0  0  0  0  0
  145.3595  131.4695  151.3651 F   0  0  0  0  0  0  0  0  0  0  0  0
  145.1321  133.4482  152.1961 F   0  0  0  0  0  0  0  0  0  0  0  0
  146.4895  133.1218  150.5501 F   0  0  0  0  0  0  0  0  0  0  0  0
  147.3955  130.9844  153.1677 C   0  0  0  0  0  0  0  0  0  0  0  0
  148.4162  130.7441  154.0139 C   0  0  0  0  0  0  0  0  0  0  0  0
  149.3014  131.8173  154.4718 C   0  0  0  0  0  0  0  0  0  0  0  0
  150.2318  131.6118  155.2519 O   0  0  0  0  0  0  0  0  0  0  0  0
  148.0935  138.7031  154.2478 C   0  0  2  0  0  0  0  0  0  0  0  0
  149.5615  139.1559  154.0708 C   0  0  0  0  0  0  0  0  0  0  0  0
  149.5009  140.6617  154.3869 C   0  0  2  0  0  0  0  0  0  0  0  0
  149.3320  140.8495  155.9054 C   0  0  0  0  0  0  0  0  0  0  0  0
  147.8712  140.4224  156.1375 C   0  0  0  0  0  0  0  0  0  0  0  0
  147.4067  140.0070  154.7259 C   0  0  1  0  0  0  0  0  0  0  0  0
  148.1205  141.0457  153.8662 C   0  0  0  0  0  0  0  0  0  0  0  0
  145.8617  137.8577  155.7864 H   0  0  0  0  0  0  0  0  0  0  0  0
  146.3118  136.1667  155.9049 H   0  0  0  0  0  0  0  0  0  0  0  0
  145.9519  136.8701  154.3303 H   0  0  0  0  0  0  0  0  0  0  0  0
  148.3254  137.6395  156.1153 H   0  0  0  0  0  0  0  0  0  0  0  0
  148.8203  136.3845  153.5443 H   0  0  0  0  0  0  0  0  0  0  0  0
  150.2346  134.7251  153.4618 H   0  0  0  0  0  0  0  0  0  0  0  0
  150.7394  133.8887  154.8927 H   0  0  0  0  0  0  0  0  0  0  0  0
  147.8570  134.3193  152.7640 H   0  0  0  0  0  0  0  0  0  0  0  0
  146.7669  130.1624  152.8583 H   0  0  0  0  0  0  0  0  0  0  0  0
  148.5870  129.7367  154.3644 H   0  0  0  0  0  0  0  0  0  0  0  0
  147.6940  138.4736  153.2579 H   0  0  0  0  0  0  0  0  0  0  0  0
  150.2537  138.6345  154.7333 H   0  0  0  0  0  0  0  0  0  0  0  0
  149.8932  138.9832  153.0462 H   0  0  0  0  0  0  0  0  0  0  0  0
  150.3298  141.2311  153.9659 H   0  0  0  0  0  0  0  0  0  0  0  0
  150.0383  140.2478  156.4785 H   0  0  0  0  0  0  0  0  0  0  0  0
  149.4755  141.8933  156.1877 H   0  0  0  0  0  0  0  0  0  0  0  0
  147.7724  139.6317  156.8799 H   0  0  0  0  0  0  0  0  0  0  0  0
  147.2850  141.2706  156.4935 H   0  0  0  0  0  0  0  0  0  0  0  0
  146.3227  139.9977  154.6093 H   0  0  0  0  0  0  0  0  0  0  0  0
  147.8393  142.0736  154.1031 H   0  0  0  0  0  0  0  0  0  0  0  0
  148.0008  140.8813  152.7939 H   0  0  0  0  0  0  0  0  0  0  0  0
  1  2  1  0  0  0  0
  1 25  1  0  0  0  0
  1 26  1  0  0  0  0
  1 27  1  0  0  0  0
  2  3  1  0  0  0  0
  2 18  1  0  0  0  0
  2 28  1  0  0  0  0
  3  4  1  0  0  0  0
  3 29  1  0  0  0  0
  4  5  2  0  0  0  0
  4  6  1  0  0  0  0
  6  7  1  0  0  0  0
  6 30  1  0  0  0  0
  6 31  1  0  0  0  0
  7 16  1  0  0  0  0
  7  8  1  0  0  0  0
  8  9  2  0  0  0  0
  8 32  1  0  0  0  0
  9 10  1  0  0  0  0
  9 14  1  0  0  0  0
 10 11  1  0  0  0  0
 10 12  1  0  0  0  0
 10 13  1  0  0  0  0
 14 15  2  0  0  0  0
 14 33  1  0  0  0  0
 15 16  1  0  0  0  0
 15 34  1  0  0  0  0
 16 17  2  0  0  0  0
 18 23  1  0  0  0  0
 18 19  1  0  0  0  0
 18 35  1  0  0  0  0
 19 20  1  0  0  0  0
 19 36  1  0  0  0  0
 19 37  1  0  0  0  0
 20 24  1  0  0  0  0
 20 21  1  0  0  0  0
 20 38  1  0  0  0  0
 21 22  1  0  0  0  0
 21 39  1  0  0  0  0
 21 40  1  0  0  0  0
 22 23  1  0  0  0  0
 22 41  1  0  0  0  0
 22 42  1  0  0  0  0
 23 24  1  0  0  0  0
 23 43  1  0  0  0  0
 24 44  1  0  0  0  0
 24 45  1  0  0  0  0
M  END
> <s_m_source_file>
AV-unprocessed.smi

> <i_m_source_file_index>
528

> <i_lp_mmshare_version>
43012

> <i_f3d_flags>
0

> <s_epik_input>
W0NIMl0xW0NIMl1bQ0BASF0oW0NIMl0yKVtDQEBIXShbQ0gyXVtDQEhdMTIpW0NASF0oW0NIM10pW05IXUMoPU8pW0NIMl1uM1tjSF1jKEMoRikoRilGKVtjSF1bY0hdYzM9Tw==

> <s_epik_cmdline>
J2VwaWtfcHl0aG9uJywgJy1waCcsICc3LjAnLCAnLXRuJywgJzgnLCAnLW1hJywgJzIwMCcsICctbWV0YWxfYmluZGluZycsICctaW1hZScsICc8aW5maWxlLm1hZT4nLCAnLW9tYWUnLCAnPG91dGZpbGUubWFlPic=

> <r_lp_tautomer_probability>
1

> <r_epik_Ionization_Penalty>
4.09479e-08

> <r_epik_Ionization_Penalty_Charging>
1.9321e-08

> <r_epik_Ionization_Penalty_Neutral>
2.16269e-08

> <r_epik_State_Penalty>
-0

> <r_epik_Charging_Adjusted_Penalty>
1.9321e-08

> <i_epik_Tot_Q>
0

> <i_epik_Tot_abs_Q>
0

> <r_epik_Metal_State_Penalty>
-0

> <b_epik_Metal_Only>
0

> <s_lp_Force_Field>
OPLS_2005

> <r_lp_Energy>
63.1325

> <b_lp_Chiralities_Consistent>
1

> <s_lp_Variant>
AV-unprocessed.smi:528-2

> <Gold.Version>
5.8.1

> <Gold.Id.Protein>
6NUR|6NUR_protein|mol2

> <Gold.PLP.Fitness>
42.5381

> <Gold.PLP.PLP>
-37.7607

> <Gold.PLP.part.hbond>
-1.0000

> <Gold.PLP.part.metal>
0.0000

> <Gold.PLP.part.buried>
-2.2590

> <Gold.PLP.part.nonpolar>
-34.4432

> <Gold.PLP.part.repulsive>
0.0143

> <Gold.PLP.ligand.clash>
0.0000

> <Gold.PLP.ligand.torsion>
0.6717

> <Gold.PLP.Chemscore.Hbond>
1.0000

> <Gold.PLP.Chemscore.CHOScore>
1.0000

> <Gold.PLP.Chemscore.Metal>
0.0000

> <Gold.Chemscore.Hbonds>
donor molecule, donor type, donor heavy atom, donor atom, acceptor molecule, acceptor atom, score
      L1  H     3    29       P1  7948  1.00
      L1  C     8    32       P1  7948  1.00

> <Gold.PLP.Chemscore.Internal.Correction>
0.1207

> <Gold.Rescore>
     Score         DG    S(hbond)    S(metal)    S(lipo)     H(rot)  DE(clash)    DE(int)     intcor
     12.07     -12.78       1.00        0.00      71.31       1.71       0.04       0.67       ----

> <Gold.Chemscore.Fitness>
12.0652

> <Gold.Chemscore.DG>
-12.7787

> <Gold.Chemscore.ZeroCoef>
-5.4800

> <Gold.Chemscore.Hbond>
1.0000

> <Gold.Chemscore.Metal>
0.0000

> <Gold.Chemscore.Lipo>
71.3052

> <Gold.Chemscore.Internal_Hbond>
0.0000

> <Gold.Chemscore.DEClash>
0.0435

> <Gold.Chemscore.DEInternal>
0.6700

> <Gold.Chemscore.Rot>
1.7125

> <Gold.Chemscore.Internal.Correction>
   9.000000E+99

> <Gold.Chemscore.Hbonds>
donor molecule, donor type, donor heavy atom, donor atom, acceptor molecule, acceptor atom, score
      L1  H     3    29       P1  7948  1.00

> <Gold.Chemscore.Hbond.Weighted>
-3.3400

> <Gold.Chemscore.Metal.Weighted>
-0.0000

> <Gold.Chemscore.Lipo.Weighted>
-8.3427

> <Gold.Chemscore.Internal_Hbond.Weighted>
0.0000

> <Gold.Chemscore.DEClash.Weighted>
0.0435

> <Gold.Chemscore.DEInternal.Weighted>
0.6700

> <Gold.Chemscore.Rot.Weighted>
4.3840

> <Gold.Chemscore.Internal.Correction.Weighted>
   9.000000E+99

> <Gold.Protein.RotatedTorsions>
[ 6907 6896 6895 6894 ] final   67.56 input  -60.11 | X-H torsion
[ 7974 7965 7964 7962 ] final -136.50 input  175.53 | X-H torsion
[ 8008 7997 7996 7995 ] final  178.47 input   59.86 | X-H torsion
[ 10167 10162 10161 10158 ] final  -11.59 input  -65.29 | X-H torsion
[ 10718 10713 10712 10709 ] final   59.21 input   66.30 | X-H torsion
[ 10763 10752 10751 10750 ] final   74.36 input  -60.55 | X-H torsion
[ 11005 11000 10999 10996 ] final  179.90 input  -57.11 | X-H torsion

> <Gold.Protein.ActiveResidues>
 VAL166  LYS551  ARG553  GLY616  TRP617  ASP618  TYR619  PRO620  LYS621  CYS622 
 ASP623  PHE694  ASN695  SER759  ASP760  ASP761  ALA762  ILE779  LEU786  VAL792 
 PHE793  MET794  SER795  GLU796  ALA797  LYS798  CYS799  TRP800  GLU811  SER814 

> <Gold.Protein.RotatedAtoms>
  152.4560  134.5289  159.9804 H   0  0  0  0  0  0  0  0  0  0  0  0  # atno 6907 bound_to 6896
  151.5350  133.3436  159.2933 H   0  0  0  0  0  0  0  0  0  0  0  0  # atno 6908 bound_to 6896
  150.8505  134.7859  159.7068 H   0  0  0  0  0  0  0  0  0  0  0  0  # atno 6909 bound_to 6896
  144.8922  140.6657  143.5138 H   0  0  0  0  0  0  0  0  0  0  0  0  # atno 7974 bound_to 7965
  156.0543  140.1332  157.0015 H   0  0  0  0  0  0  0  0  0  0  0  0  # atno 8008 bound_to 7997
  154.4450  140.1004  156.6493 H   0  0  0  0  0  0  0  0  0  0  0  0  # atno 8009 bound_to 7997
  155.5476  140.3462  155.4463 H   0  0  0  0  0  0  0  0  0  0  0  0  # atno 8010 bound_to 7997
  140.7142  143.5624  150.9181 H   0  0  0  0  0  0  0  0  0  0  0  0  # atno 10167 bound_to 10162
  157.5657  130.8869  149.9184 H   0  0  0  0  0  0  0  0  0  0  0  0  # atno 10718 bound_to 10713
  153.0582  135.5028  154.8031 H   0  0  0  0  0  0  0  0  0  0  0  0  # atno 10763 bound_to 10752
  154.6840  135.2973  154.9575 H   0  0  0  0  0  0  0  0  0  0  0  0  # atno 10764 bound_to 10752
  154.0352  135.6724  153.4837 H   0  0  0  0  0  0  0  0  0  0  0  0  # atno 10765 bound_to 10752
  140.4113  134.6689  157.4615 H   0  0  0  0  0  0  0  0  0  0  0  0  # atno 11005 bound_to 11000
  145.3763  139.1647  143.4305 LP  0  0  0  0  0  0  0  0  0  0  0  0  # atno 17320 bound_to 7965
  146.3060  140.3840  142.8687 LP  0  0  0  0  0  0  0  0  0  0  0  0  # atno 17321 bound_to 7965
  139.9349  143.6449  152.3067 LP  0  0  0  0  0  0  0  0  0  0  0  0  # atno 17342 bound_to 10162
  139.6913  144.7646  151.1433 LP  0  0  0  0  0  0  0  0  0  0  0  0  # atno 17343 bound_to 10162
  156.0706  130.3686  150.0784 LP  0  0  0  0  0  0  0  0  0  0  0  0  # atno 17370 bound_to 10713
  156.8943  130.9599  151.3584 LP  0  0  0  0  0  0  0  0  0  0  0  0  # atno 17371 bound_to 10713
  140.0265  134.6469  155.9165 LP  0  0  0  0  0  0  0  0  0  0  0  0  # atno 17394 bound_to 11000
  141.1820  133.6548  156.5059 LP  0  0  0  0  0  0  0  0  0  0  0  0  # atno 17395 bound_to 11000

$$$$
