AV-unprocessed.smi:396|AV-procd|sdf|2487|dock5
  -GOLD-   2262022433D 1   1.00000     0.00000
 Structure written by MMmdl.
 40 42  0  0  0  0  0  0  0  0  1 V2000
  152.5685  136.6873  156.2386 N   0  0  0  0  0  0  0  0  0  0  0  0
  152.3155  137.7863  156.4991 C   0  0  0  0  0  0  0  0  0  0  0  0
  151.9786  139.1298  156.8348 C   0  0  0  0  0  0  0  0  0  0  0  0
  152.2750  139.6569  158.0406 C   0  0  0  0  0  0  0  0  0  0  0  0
  151.9677  140.9572  158.3766 N   0  0  0  0  0  0  0  0  0  0  0  0
  152.1703  141.4557  159.7077 C   0  0  0  0  0  0  0  0  0  0  0  0
  152.8255  142.8057  159.9268 C   0  0  0  0  0  0  0  0  0  0  0  0
  153.5793  141.5400  160.2534 C   0  0  0  0  0  0  0  0  0  0  0  0
  151.2405  141.7696  157.4794 C   0  0  0  0  0  0  0  0  0  0  0  0
  150.8850  142.9083  157.7940 O   0  0  0  0  0  0  0  0  0  0  0  0
  150.9315  141.2362  156.2045 N   0  0  0  0  0  0  0  0  0  0  0  0
  150.2325  142.1000  155.2275 C   0  0  0  0  0  0  0  0  0  0  0  0
  148.8417  141.5778  154.8364 C   0  0  0  0  0  0  0  0  0  0  0  0
  148.6569  140.3862  154.5830 O   0  0  0  0  0  0  0  0  0  0  0  0
  147.8627  142.4940  154.7997 N   0  0  0  0  0  0  0  0  0  0  0  0
  146.4701  142.2173  154.4575 C   0  0  0  0  0  0  0  0  0  0  0  0
  145.9683  143.2033  153.3869 C   0  0  0  0  0  0  0  0  0  0  0  0
  144.9957  144.1416  154.1021 C   0  0  0  0  0  0  0  0  0  0  0  0
  144.3800  143.2746  155.1955 C   0  0  0  0  0  0  0  0  0  0  0  0
  145.5354  142.3933  155.6728 C   0  0  0  0  0  0  0  0  0  0  0  0
  151.2917  139.9205  155.8160 C   0  0  0  0  0  0  0  0  0  0  0  0
  151.0319  139.4973  154.6882 O   0  0  0  0  0  0  0  0  0  0  0  0
  152.7810  139.0409  158.7700 H   0  0  0  0  0  0  0  0  0  0  0  0
  151.4011  141.1810  160.4275 H   0  0  0  0  0  0  0  0  0  0  0  0
  153.1535  143.3672  159.0538 H   0  0  0  0  0  0  0  0  0  0  0  0
  152.4656  143.4073  160.7587 H   0  0  0  0  0  0  0  0  0  0  0  0
  153.7247  141.2979  161.3041 H   0  0  0  0  0  0  0  0  0  0  0  0
  154.4022  141.2679  159.5949 H   0  0  0  0  0  0  0  0  0  0  0  0
  150.1226  143.1169  155.6074 H   0  0  0  0  0  0  0  0  0  0  0  0
  150.8278  142.2216  154.3210 H   0  0  0  0  0  0  0  0  0  0  0  0
  148.0972  143.4504  155.0229 H   0  0  0  0  0  0  0  0  0  0  0  0
  146.3910  141.2019  154.0644 H   0  0  0  0  0  0  0  0  0  0  0  0
  146.7707  143.7473  152.8865 H   0  0  0  0  0  0  0  0  0  0  0  0
  145.4291  142.6509  152.6160 H   0  0  0  0  0  0  0  0  0  0  0  0
  145.5459  144.9680  154.5543 H   0  0  0  0  0  0  0  0  0  0  0  0
  144.2489  144.5647  153.4296 H   0  0  0  0  0  0  0  0  0  0  0  0
  143.9394  143.8623  156.0014 H   0  0  0  0  0  0  0  0  0  0  0  0
  143.5935  142.6507  154.7687 H   0  0  0  0  0  0  0  0  0  0  0  0
  145.1847  141.4373  156.0626 H   0  0  0  0  0  0  0  0  0  0  0  0
  146.0543  142.9012  156.4878 H   0  0  0  0  0  0  0  0  0  0  0  0
  1  2  3  0  0  0  0
  2  3  1  0  0  0  0
  3 21  1  0  0  0  0
  3  4  2  0  0  0  0
  4  5  1  0  0  0  0
  4 23  1  0  0  0  0
  5  6  1  0  0  0  0
  5  9  1  0  0  0  0
  6  8  1  0  0  0  0
  6  7  1  0  0  0  0
  6 24  1  0  0  0  0
  7  8  1  0  0  0  0
  7 25  1  0  0  0  0
  7 26  1  0  0  0  0
  8 27  1  0  0  0  0
  8 28  1  0  0  0  0
  9 10  2  0  0  0  0
  9 11  1  0  0  0  0
 11 12  1  0  0  0  0
 11 21  1  0  0  0  0
 12 13  1  0  0  0  0
 12 29  1  0  0  0  0
 12 30  1  0  0  0  0
 13 14  2  0  0  0  0
 13 15  1  0  0  0  0
 15 16  1  0  0  0  0
 15 31  1  0  0  0  0
 16 20  1  0  0  0  0
 16 17  1  0  0  0  0
 16 32  1  0  0  0  0
 17 18  1  0  0  0  0
 17 33  1  0  0  0  0
 17 34  1  0  0  0  0
 18 19  1  0  0  0  0
 18 35  1  0  0  0  0
 18 36  1  0  0  0  0
 19 20  1  0  0  0  0
 19 37  1  0  0  0  0
 19 38  1  0  0  0  0
 20 39  1  0  0  0  0
 20 40  1  0  0  0  0
 21 22  2  0  0  0  0
M  END
> <s_m_source_file>
AV-unprocessed.smi

> <i_m_source_file_index>
396

> <i_lp_mmshare_version>
43012

> <i_f3d_flags>
0

> <s_epik_input>
TiNDYzFbY0hdbihbQ0hdMltDSDJdW0NIMl0yKWMoPU8pbihjMT1PKVtDSDJdQyg9TylbTkhdW0NIXTNbQ0gyXVtDSDJdW0NIMl1bQ0gyXTM=

> <s_epik_cmdline>
J2VwaWtfcHl0aG9uJywgJy1waCcsICc3LjAnLCAnLXRuJywgJzgnLCAnLW1hJywgJzIwMCcsICctbWV0YWxfYmluZGluZycsICctaW1hZScsICc8aW5maWxlLm1hZT4nLCAnLW9tYWUnLCAnPG91dGZpbGUubWFlPic=

> <r_lp_tautomer_probability>
1

> <r_epik_Ionization_Penalty>
1.93885e-08

> <r_epik_Ionization_Penalty_Charging>
8.67893e-11

> <r_epik_Ionization_Penalty_Neutral>
1.93017e-08

> <r_epik_State_Penalty>
-0

> <r_epik_Charging_Adjusted_Penalty>
8.67893e-11

> <i_epik_Tot_Q>
0

> <i_epik_Tot_abs_Q>
0

> <r_epik_Metal_State_Penalty>
-0

> <b_epik_Metal_Only>
0

> <s_lp_Force_Field>
OPLS_2005

> <r_lp_Energy>
43.3866

> <b_lp_Chiralities_Consistent>
1

> <s_lp_Variant>
AV-unprocessed.smi:396-1

> <Gold.Version>
5.8.1

> <Gold.Id.Protein>
6NUR|6NUR_protein|mol2

> <Gold.PLP.Fitness>
49.3569

> <Gold.PLP.PLP>
-41.0106

> <Gold.PLP.part.hbond>
-3.0000

> <Gold.PLP.part.metal>
0.0000

> <Gold.PLP.part.buried>
-4.7236

> <Gold.PLP.part.nonpolar>
-33.6956

> <Gold.PLP.part.repulsive>
0.4463

> <Gold.PLP.ligand.clash>
0.0000

> <Gold.PLP.ligand.torsion>
0.4150

> <Gold.PLP.Chemscore.Hbond>
2.9920

> <Gold.PLP.Chemscore.CHOScore>
0.0000

> <Gold.PLP.Chemscore.Metal>
0.0000

> <Gold.Chemscore.Hbonds>
donor molecule, donor type, donor heavy atom, donor atom, acceptor molecule, acceptor atom, score
      L1  H    15    31       P1  8028  1.00
      P1  H  7989  7998       L1    22  1.00
      P1  H 10752 10765       L1     1  1.00

> <Gold.PLP.Chemscore.Internal.Correction>
0.2002

> <Gold.Rescore>
     Score         DG    S(hbond)    S(metal)    S(lipo)     H(rot)  DE(clash)    DE(int)     intcor
     13.73     -18.40       2.58        0.00      75.33       1.76       1.46       3.21       ----

> <Gold.Chemscore.Fitness>
13.7272

> <Gold.Chemscore.DG>
-18.4005

> <Gold.Chemscore.ZeroCoef>
-5.4800

> <Gold.Chemscore.Hbond>
2.5805

> <Gold.Chemscore.Metal>
0.0000

> <Gold.Chemscore.Lipo>
75.3336

> <Gold.Chemscore.Internal_Hbond>
0.0000

> <Gold.Chemscore.DEClash>
1.4612

> <Gold.Chemscore.DEInternal>
3.2121

> <Gold.Chemscore.Rot>
1.7627

> <Gold.Chemscore.Internal.Correction>
   9.000000E+99

> <Gold.Chemscore.Hbonds>
donor molecule, donor type, donor heavy atom, donor atom, acceptor molecule, acceptor atom, score
      L1  H    15    31       P1  8028  0.83
      P1  H  7989  7998       L1    22  0.50
      P1  H 10752 10765       L1     1  0.95

> <Gold.Chemscore.Hbond.Weighted>
-8.6190

> <Gold.Chemscore.Metal.Weighted>
-0.0000

> <Gold.Chemscore.Lipo.Weighted>
-8.8140

> <Gold.Chemscore.Internal_Hbond.Weighted>
0.0000

> <Gold.Chemscore.DEClash.Weighted>
1.4612

> <Gold.Chemscore.DEInternal.Weighted>
3.2121

> <Gold.Chemscore.Rot.Weighted>
4.5126

> <Gold.Chemscore.Internal.Correction.Weighted>
   9.000000E+99

> <Gold.Protein.RotatedTorsions>
[ 6907 6896 6895 6894 ] final  -23.82 input  -60.11 | X-H torsion
[ 7974 7965 7964 7962 ] final -106.54 input  175.53 | X-H torsion
[ 8008 7997 7996 7995 ] final -144.99 input   59.86 | X-H torsion
[ 10167 10162 10161 10158 ] final   81.17 input  -65.29 | X-H torsion
[ 10718 10713 10712 10709 ] final -106.22 input   66.30 | X-H torsion
[ 10763 10752 10751 10750 ] final -143.31 input  -60.55 | X-H torsion
[ 11005 11000 10999 10996 ] final  167.48 input  -57.11 | X-H torsion

> <Gold.Protein.ActiveResidues>
 VAL166  LYS551  ARG553  GLY616  TRP617  ASP618  TYR619  PRO620  LYS621  CYS622 
 ASP623  PHE694  ASN695  SER759  ASP760  ASP761  ALA762  ILE779  LEU786  VAL792 
 PHE793  MET794  SER795  GLU796  ALA797  LYS798  CYS799  TRP800  GLU811  SER814 

> <Gold.Protein.RotatedAtoms>
  151.1984  135.0432  159.8861 H   0  0  0  0  0  0  0  0  0  0  0  0  # atno 6907 bound_to 6896
  152.5434  134.0877  159.8273 H   0  0  0  0  0  0  0  0  0  0  0  0  # atno 6908 bound_to 6896
  151.1015  133.5193  159.2642 H   0  0  0  0  0  0  0  0  0  0  0  0  # atno 6909 bound_to 6896
  145.2166  140.9117  143.3284 H   0  0  0  0  0  0  0  0  0  0  0  0  # atno 7974 bound_to 7965
  155.5358  140.0603  157.2880 H   0  0  0  0  0  0  0  0  0  0  0  0  # atno 8008 bound_to 7997
  154.4468  140.1928  156.0585 H   0  0  0  0  0  0  0  0  0  0  0  0  # atno 8009 bound_to 7997
  156.0620  140.3271  155.7476 H   0  0  0  0  0  0  0  0  0  0  0  0  # atno 8010 bound_to 7997
  139.9421  144.6083  150.8242 H   0  0  0  0  0  0  0  0  0  0  0  0  # atno 10167 bound_to 10162
  156.0380  130.5602  150.7650 H   0  0  0  0  0  0  0  0  0  0  0  0  # atno 10718 bound_to 10713
  154.8475  135.3471  154.6167 H   0  0  0  0  0  0  0  0  0  0  0  0  # atno 10763 bound_to 10752
  153.6775  135.6982  153.5132 H   0  0  0  0  0  0  0  0  0  0  0  0  # atno 10764 bound_to 10752
  153.2694  135.4298  155.0929 H   0  0  0  0  0  0  0  0  0  0  0  0  # atno 10765 bound_to 10752
  140.2773  134.7779  157.3727 H   0  0  0  0  0  0  0  0  0  0  0  0  # atno 11005 bound_to 11000
  144.9805  139.3788  143.6264 LP  0  0  0  0  0  0  0  0  0  0  0  0  # atno 17320 bound_to 7965
  146.3385  139.8944  142.8804 LP  0  0  0  0  0  0  0  0  0  0  0  0  # atno 17321 bound_to 7965
  140.7608  143.3159  151.2734 LP  0  0  0  0  0  0  0  0  0  0  0  0  # atno 17342 bound_to 10162
  139.6696  144.0043  152.2745 LP  0  0  0  0  0  0  0  0  0  0  0  0  # atno 17343 bound_to 10162
  157.5159  131.0928  151.0139 LP  0  0  0  0  0  0  0  0  0  0  0  0  # atno 17370 bound_to 10713
  157.0483  130.5776  149.5366 LP  0  0  0  0  0  0  0  0  0  0  0  0  # atno 17371 bound_to 10713
  140.1317  134.5087  155.8101 LP  0  0  0  0  0  0  0  0  0  0  0  0  # atno 17394 bound_to 11000
  141.2168  133.6792  156.7050 LP  0  0  0  0  0  0  0  0  0  0  0  0  # atno 17395 bound_to 11000

$$$$
