AV-unprocessed.smi:3090|AV-procd|sdf|11774|dock1
  -GOLD-   2272017153D 1   1.00000     0.00000
 Structure written by MMmdl.
 22 22  0  0  0  0  0  0  0  0  2 V2000
  143.0495  135.4722  153.7493 C   0  0  0  0  0  0  0  0  0  0  0  0
  143.5964  134.9497  152.5156 N   0  0  0  0  0  0  0  0  0  0  0  0
  143.5575  133.6585  152.0359 C   0  0  0  0  0  0  0  0  0  0  0  0
  144.2053  133.6467  150.8311 C   0  0  0  0  0  0  0  0  0  0  0  0
  144.4553  132.4959  149.8924 C   0  0  2  0  0  0  0  0  0  0  0  0
  145.8372  132.2234  149.7668 O   0  0  0  0  0  0  0  0  0  0  0  0
  143.8906  132.8036  148.4945 C   0  0  0  0  0  0  0  0  0  0  0  0
  142.4198  132.7217  148.4674 N   0  3  0  0  0  0  0  0  0  0  0  0
  144.6099  135.0024  150.6647 C   0  0  0  0  0  0  0  0  0  0  0  0
  144.2450  135.7778  151.6722 N   0  0  0  0  0  0  0  0  0  0  0  0
  142.5634  134.6741  154.3113 H   0  0  0  0  0  0  0  0  0  0  0  0
  142.3153  136.2476  153.5287 H   0  0  0  0  0  0  0  0  0  0  0  0
  143.8488  135.8971  154.3573 H   0  0  0  0  0  0  0  0  0  0  0  0
  143.0777  132.8618  152.5856 H   0  0  0  0  0  0  0  0  0  0  0  0
  143.9808  131.5923  150.2773 H   0  0  0  0  0  0  0  0  0  0  0  0
  145.9884  131.3207  150.0046 H   0  0  0  0  0  0  0  0  0  0  0  0
  144.1747  133.8118  148.1904 H   0  0  0  0  0  0  0  0  0  0  0  0
  144.3011  132.1193  147.7506 H   0  0  0  0  0  0  0  0  0  0  0  0
  142.0277  133.4982  148.9806 H   0  0  0  0  0  0  0  0  0  0  0  0
  142.1224  131.8530  148.8878 H   0  0  0  0  0  0  0  0  0  0  0  0
  145.1576  135.4429  149.8443 H   0  0  0  0  0  0  0  0  0  0  0  0
  142.1039  132.7564  147.5084 H   0  0  0  0  0  0  0  0  0  0  0  0
  1  2  1  0  0  0  0
  1 11  1  0  0  0  0
  1 12  1  0  0  0  0
  1 13  1  0  0  0  0
  2 10  1  0  0  0  0
  2  3  1  0  0  0  0
  3  4  2  0  0  0  0
  3 14  1  0  0  0  0
  4  5  1  0  0  0  0
  4  9  1  0  0  0  0
  5  6  1  0  0  0  0
  5  7  1  0  0  0  0
  5 15  1  0  0  0  0
  6 16  1  0  0  0  0
  7  8  1  0  0  0  0
  7 17  1  0  0  0  0
  7 18  1  0  0  0  0
  8 19  1  0  0  0  0
  8 20  1  0  0  0  0
  8 22  1  0  0  0  0
  9 10  2  0  0  0  0
  9 21  1  0  0  0  0
M  CHG  1   8   1
M  END
> <s_m_source_file>
AV-unprocessed.smi

> <i_m_source_file_index>
3090

> <i_lp_mmshare_version>
43012

> <i_f3d_flags>
0

> <s_epik_input>
W0NIM11uMVtjSF1jKFtjSF1uMSlbQ0BIXShbT0hdKVtDSDJdW05IMl0=

> <s_epik_cmdline>
J2VwaWtfcHl0aG9uJywgJy1waCcsICc3LjAnLCAnLXRuJywgJzgnLCAnLW1hJywgJzIwMCcsICctbWV0YWxfYmluZGluZycsICctaW1hZScsICc8aW5maWxlLm1hZT4nLCAnLW9tYWUnLCAnPG91dGZpbGUubWFlPic=

> <r_lp_tautomer_probability>
1

> <r_epik_Ionization_Penalty>
0.014056

> <r_epik_Ionization_Penalty_Charging>
0.0140431

> <r_epik_Ionization_Penalty_Neutral>
1.29738e-05

> <r_epik_State_Penalty>
0.0109628

> <r_epik_Charging_Adjusted_Penalty>
0.0250059

> <i_epik_Tot_Q>
1

> <i_epik_Tot_abs_Q>
1

> <r_epik_Metal_State_Penalty>
0.0109636

> <b_epik_Metal_Only>
0

> <s_lp_Force_Field>
OPLS_2005

> <r_lp_Energy>
1.35566

> <b_lp_Chiralities_Consistent>
1

> <s_lp_Variant>
AV-unprocessed.smi:3090-1

> <Gold.Version>
5.8.1

> <Gold.Id.Protein>
6NUR|6NUR_protein|mol2

> <Gold.PLP.Fitness>
41.7999

> <Gold.PLP.PLP>
-24.2554

> <Gold.PLP.part.hbond>
-2.9674

> <Gold.PLP.part.metal>
0.0000

> <Gold.PLP.part.buried>
-5.4199

> <Gold.PLP.part.nonpolar>
-16.1736

> <Gold.PLP.part.repulsive>
0.3881

> <Gold.PLP.ligand.clash>
0.0000

> <Gold.PLP.ligand.torsion>
0.1404

> <Gold.PLP.Chemscore.Hbond>
4.0000

> <Gold.PLP.Chemscore.CHOScore>
1.9409

> <Gold.PLP.Chemscore.Metal>
0.0000

> <Gold.Chemscore.Hbonds>
donor molecule, donor type, donor heavy atom, donor atom, acceptor molecule, acceptor atom, score
      L1  H     8    19       P1 10186  1.72
      L1  H     8    20       P1 10952  0.84
      L1  H     8    22       P1 10195  0.99
      L1  C     3    14       P1 10957  0.88
      L1  C     9    21       P1  7921  1.00

> <Gold.PLP.Chemscore.Internal.Correction>
0.0024

> <Gold.Rescore>
     Score         DG    S(hbond)    S(metal)    S(lipo)     H(rot)  DE(clash)    DE(int)     intcor
     16.44     -16.60       2.98        0.00      52.85       1.96       0.00       0.15       ----

> <Gold.Chemscore.Fitness>
16.4448

> <Gold.Chemscore.DG>
-16.5956

> <Gold.Chemscore.ZeroCoef>
-5.4800

> <Gold.Chemscore.Hbond>
2.9752

> <Gold.Chemscore.Metal>
0.0000

> <Gold.Chemscore.Lipo>
52.8524

> <Gold.Chemscore.Internal_Hbond>
0.0000

> <Gold.Chemscore.DEClash>
0.0029

> <Gold.Chemscore.DEInternal>
0.1479

> <Gold.Chemscore.Rot>
1.9551

> <Gold.Chemscore.Internal.Correction>
   9.000000E+99

> <Gold.Chemscore.Hbonds>
donor molecule, donor type, donor heavy atom, donor atom, acceptor molecule, acceptor atom, score
      L1  H     8    19       P1 10186  0.83
      L1  H     8    20       P1 10952  0.82
      L1  H     8    22       P1 10195  0.91

> <Gold.Chemscore.Hbond.Weighted>
-9.9370

> <Gold.Chemscore.Metal.Weighted>
-0.0000

> <Gold.Chemscore.Lipo.Weighted>
-6.1837

> <Gold.Chemscore.Internal_Hbond.Weighted>
0.0000

> <Gold.Chemscore.DEClash.Weighted>
0.0029

> <Gold.Chemscore.DEInternal.Weighted>
0.1479

> <Gold.Chemscore.Rot.Weighted>
5.0051

> <Gold.Chemscore.Internal.Correction.Weighted>
   9.000000E+99

> <Gold.Protein.RotatedTorsions>
[ 6907 6896 6895 6894 ] final  146.67 input  -60.11 | X-H torsion
[ 7974 7965 7964 7962 ] final -105.28 input  175.53 | X-H torsion
[ 8008 7997 7996 7995 ] final   79.02 input   59.86 | X-H torsion
[ 10167 10162 10161 10158 ] final  -65.97 input  -65.29 | X-H torsion
[ 10718 10713 10712 10709 ] final  137.66 input   66.30 | X-H torsion
[ 10763 10752 10751 10750 ] final -162.09 input  -60.55 | X-H torsion
[ 11005 11000 10999 10996 ] final  144.04 input  -57.11 | X-H torsion

> <Gold.Protein.ActiveResidues>
 VAL166  LYS551  ARG553  GLY616  TRP617  ASP618  TYR619  PRO620  LYS621  CYS622 
 ASP623  PHE694  ASN695  SER759  ASP760  ASP761  ALA762  ILE779  LEU786  VAL792 
 PHE793  MET794  SER795  GLU796  ALA797  LYS798  CYS799  TRP800  GLU811  SER814 

> <Gold.Protein.RotatedAtoms>
  152.1649  133.4605  159.4879 H   0  0  0  0  0  0  0  0  0  0  0  0  # atno 6907 bound_to 6896
  150.6911  134.2026  159.4337 H   0  0  0  0  0  0  0  0  0  0  0  0  # atno 6908 bound_to 6896
  151.9930  134.9969  160.0613 H   0  0  0  0  0  0  0  0  0  0  0  0  # atno 6909 bound_to 6896
  145.2325  140.9176  143.3196 H   0  0  0  0  0  0  0  0  0  0  0  0  # atno 7974 bound_to 7965
  155.8639  140.3452  155.5775 H   0  0  0  0  0  0  0  0  0  0  0  0  # atno 8008 bound_to 7997
  155.7903  140.0871  157.2032 H   0  0  0  0  0  0  0  0  0  0  0  0  # atno 8009 bound_to 7997
  154.4013  140.1484  156.3142 H   0  0  0  0  0  0  0  0  0  0  0  0  # atno 8010 bound_to 7997
  140.5691  143.2316  151.6575 H   0  0  0  0  0  0  0  0  0  0  0  0  # atno 10167 bound_to 10162
  157.4337  131.1051  151.0222 H   0  0  0  0  0  0  0  0  0  0  0  0  # atno 10718 bound_to 10713
  154.7245  135.3033  154.8993 H   0  0  0  0  0  0  0  0  0  0  0  0  # atno 10763 bound_to 10752
  153.9855  135.6725  153.4756 H   0  0  0  0  0  0  0  0  0  0  0  0  # atno 10764 bound_to 10752
  153.0863  135.4982  154.8521 H   0  0  0  0  0  0  0  0  0  0  0  0  # atno 10765 bound_to 10752
  140.0601  134.9209  157.1169 H   0  0  0  0  0  0  0  0  0  0  0  0  # atno 11005 bound_to 11000
  144.9663  139.3926  143.6331 LP  0  0  0  0  0  0  0  0  0  0  0  0  # atno 17320 bound_to 7965
  146.3349  139.8740  142.8835 LP  0  0  0  0  0  0  0  0  0  0  0  0  # atno 17321 bound_to 7965
  139.5108  144.3531  152.0634 LP  0  0  0  0  0  0  0  0  0  0  0  0  # atno 17342 bound_to 10162
  140.2666  144.4009  150.6166 LP  0  0  0  0  0  0  0  0  0  0  0  0  # atno 17343 bound_to 10162
  157.1109  130.6021  149.5482 LP  0  0  0  0  0  0  0  0  0  0  0  0  # atno 17370 bound_to 10713
  155.9922  130.4980  150.7332 LP  0  0  0  0  0  0  0  0  0  0  0  0  # atno 17371 bound_to 10713
  140.3783  134.2315  155.7172 LP  0  0  0  0  0  0  0  0  0  0  0  0  # atno 17394 bound_to 11000
  141.1969  133.8071  157.0650 LP  0  0  0  0  0  0  0  0  0  0  0  0  # atno 17395 bound_to 11000

$$$$
