AV-unprocessed.smi:99|AV-procd|sdf|866|dock7
  -GOLD-   2262017323D 1   1.00000     0.00000
 Structure written by MMmdl.
 53 56  0  0  0  0  0  0  0  0  1 V2000
  146.6676  137.7753  160.1700 O   0  0  0  0  0  0  0  0  0  0  0  0
  147.4589  136.8833  159.8575 C   0  0  0  0  0  0  0  0  0  0  0  0
  148.3939  137.0185  158.8978 O   0  0  0  0  0  0  0  0  0  0  0  0
  148.5194  138.2462  158.2009 C   0  0  0  0  0  0  0  0  0  0  0  0
  149.5724  138.0902  157.0893 C   0  0  1  0  0  0  0  0  0  0  0  0
  149.0228  137.3466  156.0009 O   0  0  0  0  0  0  0  0  0  0  0  0
  148.5907  138.1877  154.9648 C   0  0  1  0  0  0  0  0  0  0  0  0
  147.1176  137.9506  154.6936 N   0  0  0  0  0  0  0  0  0  0  0  0
  146.3770  136.9864  155.3676 C   0  0  0  0  0  0  0  0  0  0  0  0
  145.0621  136.7667  155.1309 C   0  0  0  0  0  0  0  0  0  0  0  0
  144.3478  137.5510  154.1291 C   0  0  0  0  0  0  0  0  0  0  0  0
  143.1587  137.4244  153.8453 O   0  0  0  0  0  0  0  0  0  0  0  0
  145.1308  138.5046  153.4726 N   0  0  0  0  0  0  0  0  0  0  0  0
  146.4861  138.7403  153.7081 C   0  0  0  0  0  0  0  0  0  0  0  0
  147.0826  139.6086  153.0720 O   0  0  0  0  0  0  0  0  0  0  0  0
  148.9132  139.6417  155.3782 C   0  0  1  0  0  0  0  0  0  0  0  0
  147.7939  140.3314  155.9142 O   0  0  0  0  0  0  0  0  0  0  0  0
  149.9913  139.4009  156.4252 C   0  0  1  0  0  0  0  0  0  0  0  0
  150.1855  140.4844  157.3282 O   0  0  0  0  0  0  0  0  0  0  0  0
  151.3248  140.6005  158.0421 C   0  0  0  0  0  0  0  0  0  0  0  0
  152.0317  139.6430  158.3625 O   0  0  0  0  0  0  0  0  0  0  0  0
  151.6408  142.0141  158.3959 C   0  0  0  0  0  0  0  0  0  0  0  0
  152.3452  142.2896  159.5911 C   0  0  0  0  0  0  0  0  0  0  0  0
  152.6601  143.6152  159.9485 C   0  0  0  0  0  0  0  0  0  0  0  0
  152.2759  144.6811  159.1143 C   0  0  0  0  0  0  0  0  0  0  0  0
  151.5750  144.4202  157.9225 C   0  0  0  0  0  0  0  0  0  0  0  0
  151.2576  143.0956  157.5641 C   0  0  0  0  0  0  0  0  0  0  0  0
  147.4826  135.5399  160.5043 C   0  0  0  0  0  0  0  0  0  0  0  0
  146.9776  135.3939  161.8175 C   0  0  0  0  0  0  0  0  0  0  0  0
  146.9858  134.1371  162.4534 C   0  0  0  0  0  0  0  0  0  0  0  0
  147.4978  133.0109  161.7831 C   0  0  0  0  0  0  0  0  0  0  0  0
  148.0012  133.1427  160.4758 C   0  0  0  0  0  0  0  0  0  0  0  0
  147.9944  134.3988  159.8384 C   0  0  0  0  0  0  0  0  0  0  0  0
  144.6777  139.0704  152.7697 H   0  0  0  0  0  0  0  0  0  0  0  0
  147.5549  138.5480  157.7929 H   0  0  0  0  0  0  0  0  0  0  0  0
  148.8304  139.0170  158.9071 H   0  0  0  0  0  0  0  0  0  0  0  0
  150.4473  137.5770  157.4897 H   0  0  0  0  0  0  0  0  0  0  0  0
  149.1110  137.8771  154.0562 H   0  0  0  0  0  0  0  0  0  0  0  0
  146.8445  136.3678  156.1173 H   0  0  0  0  0  0  0  0  0  0  0  0
  144.5352  136.0037  155.6856 H   0  0  0  0  0  0  0  0  0  0  0  0
  149.2915  140.1982  154.5202 H   0  0  0  0  0  0  0  0  0  0  0  0
  147.6693  141.1291  155.4231 H   0  0  0  0  0  0  0  0  0  0  0  0
  150.9281  139.1974  155.9032 H   0  0  0  0  0  0  0  0  0  0  0  0
  152.6517  141.4875  160.2471 H   0  0  0  0  0  0  0  0  0  0  0  0
  153.1982  143.8137  160.8638 H   0  0  0  0  0  0  0  0  0  0  0  0
  152.5188  145.6972  159.3881 H   0  0  0  0  0  0  0  0  0  0  0  0
  151.2800  145.2372  157.2804 H   0  0  0  0  0  0  0  0  0  0  0  0
  150.7194  142.9317  156.6419 H   0  0  0  0  0  0  0  0  0  0  0  0
  146.5799  136.2446  162.3523 H   0  0  0  0  0  0  0  0  0  0  0  0
  146.5991  134.0383  163.4571 H   0  0  0  0  0  0  0  0  0  0  0  0
  147.5044  132.0475  162.2710 H   0  0  0  0  0  0  0  0  0  0  0  0
  148.3938  132.2787  159.9598 H   0  0  0  0  0  0  0  0  0  0  0  0
  148.3861  134.4642  158.8337 H   0  0  0  0  0  0  0  0  0  0  0  0
  1  2  2  0  0  0  0
  2  3  1  0  0  0  0
  2 28  1  0  0  0  0
  3  4  1  0  0  0  0
  4  5  1  0  0  0  0
  4 35  1  0  0  0  0
  4 36  1  0  0  0  0
  5 18  1  0  0  0  0
  5  6  1  0  0  0  0
  5 37  1  0  0  0  0
  6  7  1  0  0  0  0
  7  8  1  0  0  0  0
  7 16  1  0  0  0  0
  7 38  1  0  0  0  0
  8 14  1  0  0  0  0
  8  9  1  0  0  0  0
  9 10  2  0  0  0  0
  9 39  1  0  0  0  0
 10 11  1  0  0  0  0
 10 40  1  0  0  0  0
 11 12  2  0  0  0  0
 11 13  1  0  0  0  0
 13 34  1  0  0  0  0
 13 14  1  0  0  0  0
 14 15  2  0  0  0  0
 16 17  1  0  0  0  0
 16 18  1  0  0  0  0
 16 41  1  0  0  0  0
 17 42  1  0  0  0  0
 18 19  1  0  0  0  0
 18 43  1  0  0  0  0
 19 20  1  0  0  0  0
 20 21  2  0  0  0  0
 20 22  1  0  0  0  0
 22 27  1  0  0  0  0
 22 23  2  0  0  0  0
 23 24  1  0  0  0  0
 23 44  1  0  0  0  0
 24 25  2  0  0  0  0
 24 45  1  0  0  0  0
 25 26  1  0  0  0  0
 25 46  1  0  0  0  0
 26 27  2  0  0  0  0
 26 47  1  0  0  0  0
 27 48  1  0  0  0  0
 28 33  1  0  0  0  0
 28 29  2  0  0  0  0
 29 30  1  0  0  0  0
 29 49  1  0  0  0  0
 30 31  2  0  0  0  0
 30 50  1  0  0  0  0
 31 32  1  0  0  0  0
 31 51  1  0  0  0  0
 32 33  2  0  0  0  0
 32 52  1  0  0  0  0
 33 53  1  0  0  0  0
M  END
> <s_m_source_file>
AV-unprocessed.smi

> <i_m_source_file_index>
99

> <i_lp_mmshare_version>
43012

> <i_f3d_flags>
0

> <s_epik_input>
W2NIXTFbY0hdW2NIXVtjSF1bY0hdYzFDKD1PKU9bQ0gyXVtDQEBIXTJPW0NAQEhdKG4zW2NIXVtjSF1jKD1PKVtuSF1jMz1PKVtDQEBIXShbT0hdKVtDQEhdMk9DKD1PKWM0W2NIXVtjSF1bY0hdW2NIXVtjSF00

> <s_epik_cmdline>
J2VwaWtfcHl0aG9uJywgJy1waCcsICc3LjAnLCAnLXRuJywgJzgnLCAnLW1hJywgJzIwMCcsICctbWV0YWxfYmluZGluZycsICctaW1hZScsICc8aW5maWxlLm1hZT4nLCAnLW9tYWUnLCAnPG91dGZpbGUubWFlPic=

> <r_lp_tautomer_probability>
1

> <r_epik_Ionization_Penalty>
0.00454555

> <r_epik_Ionization_Penalty_Charging>
0.0045191

> <r_epik_Ionization_Penalty_Neutral>
2.64449e-05

> <r_epik_State_Penalty>
-0

> <r_epik_Charging_Adjusted_Penalty>
0.0045191

> <i_epik_Tot_Q>
0

> <i_epik_Tot_abs_Q>
0

> <r_epik_Metal_State_Penalty>
1.27877

> <b_epik_Metal_Only>
0

> <s_epik_Chemistry_Notes>
This compound has an ester and may undergo hydrolysis at high or low pH. This compound contains an acetal/aminal-like group ( X-CH(R)-Y where X, Y are N, S, or O) that may be acid/base labile, releasing an aldehyde.

> <s_lp_Force_Field>
OPLS_2005

> <r_lp_Energy>
46.8901

> <b_lp_Chiralities_Consistent>
1

> <s_lp_Variant>
AV-unprocessed.smi:99-2

> <Gold.Version>
5.8.1

> <Gold.Id.Protein>
6NUR|6NUR_protein|mol2

> <Gold.PLP.Fitness>
49.7881

> <Gold.PLP.PLP>
-46.5531

> <Gold.PLP.part.hbond>
-1.8646

> <Gold.PLP.part.metal>
0.0000

> <Gold.PLP.part.buried>
-7.9985

> <Gold.PLP.part.nonpolar>
-37.8837

> <Gold.PLP.part.repulsive>
0.4746

> <Gold.PLP.ligand.clash>
0.0000

> <Gold.PLP.ligand.torsion>
1.3048

> <Gold.PLP.Chemscore.Hbond>
1.8640

> <Gold.PLP.Chemscore.CHOScore>
0.0000

> <Gold.PLP.Chemscore.Metal>
0.0000

> <Gold.Chemscore.Hbonds>
donor molecule, donor type, donor heavy atom, donor atom, acceptor molecule, acceptor atom, score
      L1  H    13    34       P1 10175  0.93
      P1  H  6934  6947       L1     1  1.00

> <Gold.PLP.Chemscore.Internal.Correction>
0.2526

> <Gold.Rescore>
     Score         DG    S(hbond)    S(metal)    S(lipo)     H(rot)  DE(clash)    DE(int)     intcor
     14.53     -17.52       1.96        0.00     116.65       3.19       0.00       2.99       ----

> <Gold.Chemscore.Fitness>
14.5273

> <Gold.Chemscore.DG>
-17.5163

> <Gold.Chemscore.ZeroCoef>
-5.4800

> <Gold.Chemscore.Hbond>
1.9628

> <Gold.Chemscore.Metal>
0.0000

> <Gold.Chemscore.Lipo>
116.6471

> <Gold.Chemscore.Internal_Hbond>
0.0000

> <Gold.Chemscore.DEClash>
0.0000

> <Gold.Chemscore.DEInternal>
2.9890

> <Gold.Chemscore.Rot>
3.1903

> <Gold.Chemscore.Internal.Correction>
   9.000000E+99

> <Gold.Chemscore.Hbonds>
donor molecule, donor type, donor heavy atom, donor atom, acceptor molecule, acceptor atom, score
      L1  H    13    34       P1 10175  0.90
      P1  H  6934  6947       L1     1  0.91

> <Gold.Chemscore.Hbond.Weighted>
-6.5557

> <Gold.Chemscore.Metal.Weighted>
-0.0000

> <Gold.Chemscore.Lipo.Weighted>
-13.6477

> <Gold.Chemscore.Internal_Hbond.Weighted>
0.0000

> <Gold.Chemscore.DEClash.Weighted>
0.0000

> <Gold.Chemscore.DEInternal.Weighted>
2.9890

> <Gold.Chemscore.Rot.Weighted>
8.1671

> <Gold.Chemscore.Internal.Correction.Weighted>
   9.000000E+99

> <Gold.Protein.RotatedTorsions>
[ 6907 6896 6895 6894 ] final  140.68 input  -60.11 | X-H torsion
[ 7974 7965 7964 7962 ] final  164.59 input  175.53 | X-H torsion
[ 8008 7997 7996 7995 ] final  158.10 input   59.86 | X-H torsion
[ 10167 10162 10161 10158 ] final  176.58 input  -65.29 | X-H torsion
[ 10718 10713 10712 10709 ] final -111.34 input   66.30 | X-H torsion
[ 10763 10752 10751 10750 ] final  -87.47 input  -60.55 | X-H torsion
[ 11005 11000 10999 10996 ] final   28.37 input  -57.11 | X-H torsion

> <Gold.Protein.ActiveResidues>
 VAL166  LYS551  ARG553  GLY616  TRP617  ASP618  TYR619  PRO620  LYS621  CYS622 
 ASP623  PHE694  ASN695  SER759  ASP760  ASP761  ALA762  ILE779  LEU786  VAL792 
 PHE793  MET794  SER795  GLU796  ALA797  LYS798  CYS799  TRP800  GLU811  SER814 

> <Gold.Protein.RotatedAtoms>
  152.2401  133.5129  159.5265 H   0  0  0  0  0  0  0  0  0  0  0  0  # atno 6907 bound_to 6896
  150.7062  134.1100  159.4005 H   0  0  0  0  0  0  0  0  0  0  0  0  # atno 6908 bound_to 6896
  151.9021  135.0374  160.0558 H   0  0  0  0  0  0  0  0  0  0  0  0  # atno 6909 bound_to 6896
  144.7538  139.8348  143.6357 H   0  0  0  0  0  0  0  0  0  0  0  0  # atno 7974 bound_to 7965
  156.2323  140.1867  156.7210 H   0  0  0  0  0  0  0  0  0  0  0  0  # atno 8008 bound_to 7997
  154.6044  140.0631  156.9439 H   0  0  0  0  0  0  0  0  0  0  0  0  # atno 8009 bound_to 7997
  155.2119  140.3300  155.4330 H   0  0  0  0  0  0  0  0  0  0  0  0  # atno 8010 bound_to 7997
  139.5220  144.2899  152.0473 H   0  0  0  0  0  0  0  0  0  0  0  0  # atno 10167 bound_to 10162
  156.0641  130.5862  150.8360 H   0  0  0  0  0  0  0  0  0  0  0  0  # atno 10718 bound_to 10713
  154.6339  135.5412  153.7712 H   0  0  0  0  0  0  0  0  0  0  0  0  # atno 10763 bound_to 10752
  153.0299  135.6443  154.1259 H   0  0  0  0  0  0  0  0  0  0  0  0  # atno 10764 bound_to 10752
  154.1188  135.2922  155.3193 H   0  0  0  0  0  0  0  0  0  0  0  0  # atno 10765 bound_to 10752
  140.3163  134.2593  155.7725 H   0  0  0  0  0  0  0  0  0  0  0  0  # atno 11005 bound_to 11000
  146.1524  139.4611  143.0040 LP  0  0  0  0  0  0  0  0  0  0  0  0  # atno 17320 bound_to 7965
  145.6849  141.0181  143.1586 LP  0  0  0  0  0  0  0  0  0  0  0  0  # atno 17321 bound_to 7965
  140.2350  144.4328  150.6284 LP  0  0  0  0  0  0  0  0  0  0  0  0  # atno 17342 bound_to 10162
  140.6329  143.2190  151.6457 LP  0  0  0  0  0  0  0  0  0  0  0  0  # atno 17343 bound_to 10162
  157.5671  131.0946  150.9473 LP  0  0  0  0  0  0  0  0  0  0  0  0  # atno 17370 bound_to 10713
  156.9698  130.5486  149.5290 LP  0  0  0  0  0  0  0  0  0  0  0  0  # atno 17371 bound_to 10713
  141.2097  133.7742  156.9981 LP  0  0  0  0  0  0  0  0  0  0  0  0  # atno 17394 bound_to 11000
  140.0980  134.9552  157.1880 LP  0  0  0  0  0  0  0  0  0  0  0  0  # atno 17395 bound_to 11000

$$$$
