AV-unprocessed.smi:1047|AV-procd|sdf|4570|dock3
  -GOLD-   22720 3 23D 1   1.00000     0.00000
 Structure written by MMmdl.
 56 58  0  0  0  0  0  0  0  0  2 V2000
  150.9155  140.6343  156.3216 C   0  0  0  0  0  0  0  0  0  0  0  0
  150.1650  139.5930  155.4793 C   0  0  0  0  0  0  0  0  0  0  0  0
  148.8124  139.9805  155.0811 N   0  0  0  0  0  0  0  0  0  0  0  0
  148.6585  141.4279  154.9560 C   0  0  0  0  0  0  0  0  0  0  0  0
  147.2401  141.8158  154.5049 C   0  0  0  0  0  0  0  0  0  0  0  0
  146.9280  141.1529  153.2838 O   0  0  0  0  0  0  0  0  0  0  0  0
  147.0086  139.7332  153.3843 C   0  0  1  0  0  0  0  0  0  0  0  0
  146.6429  139.1340  152.0198 C   0  0  0  0  0  0  0  0  0  0  0  0
  146.6661  137.6585  152.0631 N   0  3  0  0  0  0  0  0  0  0  0  0
  146.1425  137.0154  150.8417 C   0  0  0  0  0  0  0  0  0  0  0  0
  145.4068  135.6984  151.1603 C   0  0  1  0  0  0  0  0  0  0  0  0
  144.3473  135.9637  152.0583 O   0  0  0  0  0  0  0  0  0  0  0  0
  144.7949  135.0195  149.9185 C   0  0  0  0  0  0  0  0  0  0  0  0
  144.7458  133.5733  150.0357 N   0  0  0  0  0  0  0  0  0  0  0  0
  143.9322  132.7352  149.3652 C   0  0  0  0  0  0  0  0  0  0  0  0
  144.0467  131.4366  149.6268 N   0  0  0  0  0  0  0  0  0  0  0  0
  145.0574  131.4298  150.5728 C   0  0  0  0  0  0  0  0  0  0  0  0
  145.6587  130.3560  151.2646 C   0  0  0  0  0  0  0  0  0  0  0  0
  146.6870  130.5853  152.2063 C   0  0  0  0  0  0  0  0  0  0  0  0
  147.3067  129.3999  152.9257 C   0  0  0  0  0  0  0  0  0  0  0  0
  147.1282  131.9073  152.4687 C   0  0  0  0  0  0  0  0  0  0  0  0
  148.2308  132.1775  153.4771 C   0  0  0  0  0  0  0  0  0  0  0  0
  146.5398  132.9915  151.7850 C   0  0  0  0  0  0  0  0  0  0  0  0
  145.5176  132.7504  150.8498 C   0  0  0  0  0  0  0  0  0  0  0  0
  148.4383  139.3531  153.8184 C   0  0  0  0  0  0  0  0  0  0  0  0
  151.8709  140.2340  156.6610 H   0  0  0  0  0  0  0  0  0  0  0  0
  150.3417  140.9136  157.2057 H   0  0  0  0  0  0  0  0  0  0  0  0
  151.1288  141.5410  155.7559 H   0  0  0  0  0  0  0  0  0  0  0  0
  150.7560  139.3452  154.5964 H   0  0  0  0  0  0  0  0  0  0  0  0
  150.1093  138.6768  156.0687 H   0  0  0  0  0  0  0  0  0  0  0  0
  148.8661  141.9152  155.9082 H   0  0  0  0  0  0  0  0  0  0  0  0
  149.3841  141.8175  154.2401 H   0  0  0  0  0  0  0  0  0  0  0  0
  146.5063  141.5516  155.2678 H   0  0  0  0  0  0  0  0  0  0  0  0
  147.1715  142.8931  154.3542 H   0  0  0  0  0  0  0  0  0  0  0  0
  146.2980  139.3814  154.1349 H   0  0  0  0  0  0  0  0  0  0  0  0
  145.6561  139.4788  151.7079 H   0  0  0  0  0  0  0  0  0  0  0  0
  147.3552  139.4716  151.2656 H   0  0  0  0  0  0  0  0  0  0  0  0
  147.6183  137.3538  152.2073 H   0  0  0  0  0  0  0  0  0  0  0  0
  145.4801  137.7035  150.3142 H   0  0  0  0  0  0  0  0  0  0  0  0
  146.9913  136.8246  150.1848 H   0  0  0  0  0  0  0  0  0  0  0  0
  146.0938  135.0008  151.6417 H   0  0  0  0  0  0  0  0  0  0  0  0
  144.2522  135.2316  152.6476 H   0  0  0  0  0  0  0  0  0  0  0  0
  143.7779  135.3795  149.7542 H   0  0  0  0  0  0  0  0  0  0  0  0
  145.3623  135.2768  149.0229 H   0  0  0  0  0  0  0  0  0  0  0  0
  143.2121  133.1000  148.6473 H   0  0  0  0  0  0  0  0  0  0  0  0
  145.3226  129.3490  151.0649 H   0  0  0  0  0  0  0  0  0  0  0  0
  148.3821  129.3641  152.7488 H   0  0  0  0  0  0  0  0  0  0  0  0
  146.8807  128.4572  152.5807 H   0  0  0  0  0  0  0  0  0  0  0  0
  147.1341  129.4721  153.9998 H   0  0  0  0  0  0  0  0  0  0  0  0
  148.4236  133.2459  153.5796 H   0  0  0  0  0  0  0  0  0  0  0  0
  149.1586  131.6981  153.1642 H   0  0  0  0  0  0  0  0  0  0  0  0
  147.9553  131.7923  154.4590 H   0  0  0  0  0  0  0  0  0  0  0  0
  146.8678  134.0027  151.9754 H   0  0  0  0  0  0  0  0  0  0  0  0
  149.1449  139.6436  153.0389 H   0  0  0  0  0  0  0  0  0  0  0  0
  148.5091  138.2687  153.9128 H   0  0  0  0  0  0  0  0  0  0  0  0
  146.1070  137.3568  152.8484 H   0  0  0  0  0  0  0  0  0  0  0  0
  1  2  1  0  0  0  0
  1 26  1  0  0  0  0
  1 27  1  0  0  0  0
  1 28  1  0  0  0  0
  2  3  1  0  0  0  0
  2 29  1  0  0  0  0
  2 30  1  0  0  0  0
  3 25  1  0  0  0  0
  3  4  1  0  0  0  0
  4  5  1  0  0  0  0
  4 31  1  0  0  0  0
  4 32  1  0  0  0  0
  5  6  1  0  0  0  0
  5 33  1  0  0  0  0
  5 34  1  0  0  0  0
  6  7  1  0  0  0  0
  7  8  1  0  0  0  0
  7 25  1  0  0  0  0
  7 35  1  0  0  0  0
  8  9  1  0  0  0  0
  8 36  1  0  0  0  0
  8 37  1  0  0  0  0
  9 10  1  0  0  0  0
  9 38  1  0  0  0  0
  9 56  1  0  0  0  0
 10 11  1  0  0  0  0
 10 39  1  0  0  0  0
 10 40  1  0  0  0  0
 11 12  1  0  0  0  0
 11 13  1  0  0  0  0
 11 41  1  0  0  0  0
 12 42  1  0  0  0  0
 13 14  1  0  0  0  0
 13 43  1  0  0  0  0
 13 44  1  0  0  0  0
 14 24  1  0  0  0  0
 14 15  1  0  0  0  0
 15 16  2  0  0  0  0
 15 45  1  0  0  0  0
 16 17  1  0  0  0  0
 17 24  2  0  0  0  0
 17 18  1  0  0  0  0
 18 19  2  0  0  0  0
 18 46  1  0  0  0  0
 19 20  1  0  0  0  0
 19 21  1  0  0  0  0
 20 47  1  0  0  0  0
 20 48  1  0  0  0  0
 20 49  1  0  0  0  0
 21 22  1  0  0  0  0
 21 23  2  0  0  0  0
 22 50  1  0  0  0  0
 22 51  1  0  0  0  0
 22 52  1  0  0  0  0
 23 24  1  0  0  0  0
 23 53  1  0  0  0  0
 25 54  1  0  0  0  0
 25 55  1  0  0  0  0
M  CHG  1   9   1
M  END
> <s_m_source_file>
AV-unprocessed.smi

> <i_m_source_file_index>
1047

> <i_lp_mmshare_version>
43012

> <i_f3d_flags>
0

> <s_epik_input>
W0NIM11bQ0gyXU4xW0NIMl1bQ0gyXU9bQ0BIXShbQ0gyXTEpW0NIMl1bTkhdW0NIMl1bQ0BIXShbT0hdKVtDSDJdbihbY0hdbjIpYyhjMjMpW2NIXWMoW0NIM10pYyhbY0hdMylbQ0gzXQ==

> <s_epik_cmdline>
J2VwaWtfcHl0aG9uJywgJy1waCcsICc3LjAnLCAnLXRuJywgJzgnLCAnLW1hJywgJzIwMCcsICctbWV0YWxfYmluZGluZycsICctaW1hZScsICc8aW5maWxlLm1hZT4nLCAnLW9tYWUnLCAnPG91dGZpbGUubWFlPic=

> <r_epik_Ionization_Penalty>
0.692425

> <r_epik_Ionization_Penalty_Charging>
0.0243549

> <r_epik_Ionization_Penalty_Neutral>
0.66807

> <r_epik_State_Penalty>
0.592789

> <r_epik_Charging_Adjusted_Penalty>
0.617144

> <i_epik_Tot_Q>
1

> <i_epik_Tot_abs_Q>
1

> <r_epik_Metal_State_Penalty>
0.508021

> <b_epik_Metal_Only>
0

> <s_lp_Force_Field>
OPLS_2005

> <r_lp_Energy>
31.2277

> <b_lp_Chiralities_Consistent>
1

> <s_lp_Variant>
AV-unprocessed.smi:1047-11

> <Gold.Version>
5.8.1

> <Gold.Id.Protein>
6NUR|6NUR_protein|mol2

> <Gold.PLP.Fitness>
57.9056

> <Gold.PLP.PLP>
-49.1183

> <Gold.PLP.part.hbond>
-2.0000

> <Gold.PLP.part.metal>
0.0000

> <Gold.PLP.part.buried>
3.3945

> <Gold.PLP.part.nonpolar>
-50.6927

> <Gold.PLP.part.repulsive>
0.4954

> <Gold.PLP.ligand.clash>
0.0000

> <Gold.PLP.ligand.torsion>
1.3231

> <Gold.PLP.Chemscore.Hbond>
2.7520

> <Gold.PLP.Chemscore.CHOScore>
1.0000

> <Gold.PLP.Chemscore.Metal>
0.0000

> <Gold.Chemscore.Hbonds>
donor molecule, donor type, donor heavy atom, donor atom, acceptor molecule, acceptor atom, score
      L1  H     9    38       P1  7948  1.98
      P1  H 10785 10796       L1    16  0.64
      L1  C    15    45       P1 10186  0.43

> <Gold.PLP.Chemscore.Internal.Correction>
0.1775

> <Gold.Rescore>
     Score         DG    S(hbond)    S(metal)    S(lipo)     H(rot)  DE(clash)    DE(int)     intcor
     15.16     -19.00       1.67        0.00     124.77       2.60       1.36       2.48       ----

> <Gold.Chemscore.Fitness>
15.1575

> <Gold.Chemscore.DG>
-18.9962

> <Gold.Chemscore.ZeroCoef>
-5.4800

> <Gold.Chemscore.Hbond>
1.6727

> <Gold.Chemscore.Metal>
0.0000

> <Gold.Chemscore.Lipo>
124.7669

> <Gold.Chemscore.Internal_Hbond>
0.0000

> <Gold.Chemscore.DEClash>
1.3555

> <Gold.Chemscore.DEInternal>
2.4832

> <Gold.Chemscore.Rot>
2.6049

> <Gold.Chemscore.Internal.Correction>
   9.000000E+99

> <Gold.Chemscore.Hbonds>
donor molecule, donor type, donor heavy atom, donor atom, acceptor molecule, acceptor atom, score
      L1  H     9    38       P1  7948  0.94
      P1  H 10785 10796       L1    16  0.64

> <Gold.Chemscore.Hbond.Weighted>
-5.5869

> <Gold.Chemscore.Metal.Weighted>
-0.0000

> <Gold.Chemscore.Lipo.Weighted>
-14.5977

> <Gold.Chemscore.Internal_Hbond.Weighted>
0.0000

> <Gold.Chemscore.DEClash.Weighted>
1.3555

> <Gold.Chemscore.DEInternal.Weighted>
2.4832

> <Gold.Chemscore.Rot.Weighted>
6.6685

> <Gold.Chemscore.Internal.Correction.Weighted>
   9.000000E+99

> <Gold.Protein.RotatedTorsions>
[ 6907 6896 6895 6894 ] final  -46.70 input  -60.11 | X-H torsion
[ 7974 7965 7964 7962 ] final  -52.55 input  175.53 | X-H torsion
[ 8008 7997 7996 7995 ] final   34.49 input   59.86 | X-H torsion
[ 10167 10162 10161 10158 ] final -137.47 input  -65.29 | X-H torsion
[ 10718 10713 10712 10709 ] final  -31.64 input   66.30 | X-H torsion
[ 10763 10752 10751 10750 ] final  -68.22 input  -60.55 | X-H torsion
[ 11005 11000 10999 10996 ] final   33.02 input  -57.11 | X-H torsion

> <Gold.Protein.ActiveResidues>
 VAL166  LYS551  ARG553  GLY616  TRP617  ASP618  TYR619  PRO620  LYS621  CYS622 
 ASP623  PHE694  ASN695  SER759  ASP760  ASP761  ALA762  ILE779  LEU786  VAL792 
 PHE793  MET794  SER795  GLU796  ALA797  LYS798  CYS799  TRP800  GLU811  SER814 

> <Gold.Protein.RotatedAtoms>
  150.9085  134.8501  159.7408 H   0  0  0  0  0  0  0  0  0  0  0  0  # atno 6907 bound_to 6896
  152.4931  134.4394  159.9548 H   0  0  0  0  0  0  0  0  0  0  0  0  # atno 6908 bound_to 6896
  151.4439  133.3596  159.2821 H   0  0  0  0  0  0  0  0  0  0  0  0  # atno 6909 bound_to 6896
  145.9067  140.7949  142.9715 H   0  0  0  0  0  0  0  0  0  0  0  0  # atno 7974 bound_to 7965
  155.1556  140.3279  155.4422 H   0  0  0  0  0  0  0  0  0  0  0  0  # atno 8008 bound_to 7997
  156.2560  140.1969  156.6616 H   0  0  0  0  0  0  0  0  0  0  0  0  # atno 8009 bound_to 7997
  154.6442  140.0566  156.9867 H   0  0  0  0  0  0  0  0  0  0  0  0  # atno 8010 bound_to 7997
  139.8574  143.7120  152.2653 H   0  0  0  0  0  0  0  0  0  0  0  0  # atno 10167 bound_to 10162
  156.3847  130.4362  149.7441 H   0  0  0  0  0  0  0  0  0  0  0  0  # atno 10718 bound_to 10713
  154.3859  135.6063  153.5816 H   0  0  0  0  0  0  0  0  0  0  0  0  # atno 10763 bound_to 10752
  152.9787  135.5872  154.4355 H   0  0  0  0  0  0  0  0  0  0  0  0  # atno 10764 bound_to 10752
  154.4131  135.2844  155.2002 H   0  0  0  0  0  0  0  0  0  0  0  0  # atno 10765 bound_to 10752
  140.2674  134.3121  155.7838 H   0  0  0  0  0  0  0  0  0  0  0  0  # atno 11005 bound_to 11000
  144.6740  140.1762  143.7410 LP  0  0  0  0  0  0  0  0  0  0  0  0  # atno 17320 bound_to 7965
  145.8722  139.2278  143.1654 LP  0  0  0  0  0  0  0  0  0  0  0  0  # atno 17321 bound_to 7965
  139.7406  144.7560  151.0658 LP  0  0  0  0  0  0  0  0  0  0  0  0  # atno 17342 bound_to 10162
  140.7779  143.4977  150.9811 LP  0  0  0  0  0  0  0  0  0  0  0  0  # atno 17343 bound_to 10162
  156.4517  130.7910  151.2931 LP  0  0  0  0  0  0  0  0  0  0  0  0  # atno 17370 bound_to 10713
  157.7495  131.0093  150.3262 LP  0  0  0  0  0  0  0  0  0  0  0  0  # atno 17371 bound_to 10713
  141.2182  133.7446  156.9282 LP  0  0  0  0  0  0  0  0  0  0  0  0  # atno 17394 bound_to 11000
  140.1406  134.9296  157.2461 LP  0  0  0  0  0  0  0  0  0  0  0  0  # atno 17395 bound_to 11000

$$$$
