AV-unprocessed.smi:361|AV-procd|sdf|2420|dock3
  -GOLD-   2262022353D 1   1.00000     0.00000
 Structure written by MMmdl.
 34 35  0  0  0  0  0  0  0  0  1 V2000
  146.0550  137.7961  152.2978 C   0  0  0  0  0  0  0  0  0  0  0  0
  146.8682  139.0923  152.1520 C   0  0  0  0  0  0  0  0  0  0  0  0
  147.3655  139.6653  153.4840 C   0  0  0  0  0  0  0  0  0  0  0  0
  146.5762  139.8805  154.4048 O   0  0  0  0  0  0  0  0  0  0  0  0
  148.6902  139.8970  153.5454 N   0  0  0  0  0  0  0  0  0  0  0  0
  149.4443  140.4211  154.6291 C   0  0  0  0  0  0  0  0  0  0  0  0
  148.7681  141.3675  155.4273 C   0  0  0  0  0  0  0  0  0  0  0  0
  149.4281  141.9455  156.5284 C   0  0  0  0  0  0  0  0  0  0  0  0
  150.7598  141.5665  156.8215 C   0  0  0  0  0  0  0  0  0  0  0  0
  151.4862  142.1037  157.9064 N   0  0  0  0  0  0  0  0  0  0  0  0
  151.0547  143.3827  158.4628 C   0  0  0  0  0  0  0  0  0  0  0  0
  152.1316  143.9475  159.4047 C   0  0  0  0  0  0  0  0  0  0  0  0
  152.4396  142.9878  160.4099 O   0  0  0  0  0  0  0  0  0  0  0  0
  152.9659  141.7882  159.8519 C   0  0  0  0  0  0  0  0  0  0  0  0
  151.9257  141.1451  158.9177 C   0  0  0  0  0  0  0  0  0  0  0  0
  151.3508  140.6143  155.9593 C   0  0  0  0  0  0  0  0  0  0  0  0
  150.7204  140.0600  154.9031 N   0  0  0  0  0  0  0  0  0  0  0  0
  145.7255  137.4373  151.3228 H   0  0  0  0  0  0  0  0  0  0  0  0
  145.1650  137.9505  152.9087 H   0  0  0  0  0  0  0  0  0  0  0  0
  146.6470  137.0032  152.7564 H   0  0  0  0  0  0  0  0  0  0  0  0
  147.7301  138.9102  151.5094 H   0  0  0  0  0  0  0  0  0  0  0  0
  146.2587  139.8469  151.6535 H   0  0  0  0  0  0  0  0  0  0  0  0
  149.2204  139.6711  152.7168 H   0  0  0  0  0  0  0  0  0  0  0  0
  147.7501  141.6518  155.2035 H   0  0  0  0  0  0  0  0  0  0  0  0
  148.8941  142.6632  157.1324 H   0  0  0  0  0  0  0  0  0  0  0  0
  150.8664  144.0988  157.6622 H   0  0  0  0  0  0  0  0  0  0  0  0
  150.1201  143.2437  159.0081 H   0  0  0  0  0  0  0  0  0  0  0  0
  153.0332  144.2126  158.8501 H   0  0  0  0  0  0  0  0  0  0  0  0
  151.7722  144.8591  159.8822 H   0  0  0  0  0  0  0  0  0  0  0  0
  153.8919  141.9999  159.3149 H   0  0  0  0  0  0  0  0  0  0  0  0
  153.2179  141.1017  160.6603 H   0  0  0  0  0  0  0  0  0  0  0  0
  151.0583  140.8206  159.4942 H   0  0  0  0  0  0  0  0  0  0  0  0
  152.3588  140.2526  158.4687 H   0  0  0  0  0  0  0  0  0  0  0  0
  152.3716  140.2919  156.1006 H   0  0  0  0  0  0  0  0  0  0  0  0
  1  2  1  0  0  0  0
  1 18  1  0  0  0  0
  1 19  1  0  0  0  0
  1 20  1  0  0  0  0
  2  3  1  0  0  0  0
  2 21  1  0  0  0  0
  2 22  1  0  0  0  0
  3  4  2  0  0  0  0
  3  5  1  0  0  0  0
  5  6  1  0  0  0  0
  5 23  1  0  0  0  0
  6 17  1  0  0  0  0
  6  7  2  0  0  0  0
  7  8  1  0  0  0  0
  7 24  1  0  0  0  0
  8  9  2  0  0  0  0
  8 25  1  0  0  0  0
  9 10  1  0  0  0  0
  9 16  1  0  0  0  0
 10 15  1  0  0  0  0
 10 11  1  0  0  0  0
 11 12  1  0  0  0  0
 11 26  1  0  0  0  0
 11 27  1  0  0  0  0
 12 13  1  0  0  0  0
 12 28  1  0  0  0  0
 12 29  1  0  0  0  0
 13 14  1  0  0  0  0
 14 15  1  0  0  0  0
 14 30  1  0  0  0  0
 14 31  1  0  0  0  0
 15 32  1  0  0  0  0
 15 33  1  0  0  0  0
 16 17  2  0  0  0  0
 16 34  1  0  0  0  0
M  END
> <s_m_source_file>
AV-unprocessed.smi

> <i_m_source_file_index>
361

> <i_lp_mmshare_version>
43012

> <i_f3d_flags>
0

> <s_epik_input>
W0NIM11bQ0gyXUMoPU8pW05IXWMxW2NIXVtjSF1jKFtjSF1uMSlOMltDSDJdW0NIMl1PW0NIMl1bQ0gyXTI=

> <s_epik_cmdline>
J2VwaWtfcHl0aG9uJywgJy1waCcsICc3LjAnLCAnLXRuJywgJzgnLCAnLW1hJywgJzIwMCcsICctbWV0YWxfYmluZGluZycsICctaW1hZScsICc8aW5maWxlLm1hZT4nLCAnLW9tYWUnLCAnPG91dGZpbGUubWFlPic=

> <r_lp_tautomer_probability>
1

> <r_epik_Ionization_Penalty>
0.00304557

> <r_epik_Ionization_Penalty_Charging>
0

> <r_epik_Ionization_Penalty_Neutral>
0.00304557

> <r_epik_State_Penalty>
0.0028457

> <r_epik_Charging_Adjusted_Penalty>
0.0028457

> <i_epik_Tot_Q>
0

> <i_epik_Tot_abs_Q>
0

> <r_epik_Metal_State_Penalty>
-0

> <b_epik_Metal_Only>
0

> <s_lp_Force_Field>
OPLS_2005

> <r_lp_Energy>
24.065

> <b_lp_Chiralities_Consistent>
1

> <s_lp_Variant>
AV-unprocessed.smi:361-1

> <Gold.Version>
5.8.1

> <Gold.Id.Protein>
6NUR|6NUR_protein|mol2

> <Gold.PLP.Fitness>
39.2651

> <Gold.PLP.PLP>
-34.0254

> <Gold.PLP.part.hbond>
-2.0000

> <Gold.PLP.part.metal>
0.0000

> <Gold.PLP.part.buried>
-2.3597

> <Gold.PLP.part.nonpolar>
-30.0771

> <Gold.PLP.part.repulsive>
0.3293

> <Gold.PLP.ligand.clash>
0.0000

> <Gold.PLP.ligand.torsion>
0.5699

> <Gold.PLP.Chemscore.Hbond>
2.0000

> <Gold.PLP.Chemscore.CHOScore>
0.0000

> <Gold.PLP.Chemscore.Metal>
0.0000

> <Gold.Chemscore.Hbonds>
donor molecule, donor type, donor heavy atom, donor atom, acceptor molecule, acceptor atom, score
      L1  H     5    23       P1  7957  0.98
      P1  H  7989  7998       L1    17  1.00

> <Gold.PLP.Chemscore.Internal.Correction>
0.3795

> <Gold.Rescore>
     Score         DG    S(hbond)    S(metal)    S(lipo)     H(rot)  DE(clash)    DE(int)     intcor
     15.17     -17.37       1.65        0.00      80.45       1.18       0.18       2.02       ----

> <Gold.Chemscore.Fitness>
15.1718

> <Gold.Chemscore.DG>
-17.3680

> <Gold.Chemscore.ZeroCoef>
-5.4800

> <Gold.Chemscore.Hbond>
1.6492

> <Gold.Chemscore.Metal>
0.0000

> <Gold.Chemscore.Lipo>
80.4525

> <Gold.Chemscore.Internal_Hbond>
0.0000

> <Gold.Chemscore.DEClash>
0.1781

> <Gold.Chemscore.DEInternal>
2.0181

> <Gold.Chemscore.Rot>
1.1848

> <Gold.Chemscore.Internal.Correction>
   9.000000E+99

> <Gold.Chemscore.Hbonds>
donor molecule, donor type, donor heavy atom, donor atom, acceptor molecule, acceptor atom, score
      L1  H     5    23       P1  7957  0.93
      P1  H  7989  7998       L1    17  0.09

> <Gold.Chemscore.Hbond.Weighted>
-5.5082

> <Gold.Chemscore.Metal.Weighted>
-0.0000

> <Gold.Chemscore.Lipo.Weighted>
-9.4129

> <Gold.Chemscore.Internal_Hbond.Weighted>
0.0000

> <Gold.Chemscore.DEClash.Weighted>
0.1781

> <Gold.Chemscore.DEInternal.Weighted>
2.0181

> <Gold.Chemscore.Rot.Weighted>
3.0331

> <Gold.Chemscore.Internal.Correction.Weighted>
   9.000000E+99

> <Gold.Protein.RotatedTorsions>
[ 6907 6896 6895 6894 ] final  -51.45 input  -60.11 | X-H torsion
[ 7974 7965 7964 7962 ] final    3.14 input  175.53 | X-H torsion
[ 8008 7997 7996 7995 ] final  100.55 input   59.86 | X-H torsion
[ 10167 10162 10161 10158 ] final   81.29 input  -65.29 | X-H torsion
[ 10718 10713 10712 10709 ] final  141.11 input   66.30 | X-H torsion
[ 10763 10752 10751 10750 ] final  156.67 input  -60.55 | X-H torsion
[ 11005 11000 10999 10996 ] final -145.97 input  -57.11 | X-H torsion

> <Gold.Protein.ActiveResidues>
 VAL166  LYS551  ARG553  GLY616  TRP617  ASP618  TYR619  PRO620  LYS621  CYS622 
 ASP623  PHE694  ASN695  SER759  ASP760  ASP761  ALA762  ILE779  LEU786  VAL792 
 PHE793  MET794  SER795  GLU796  ALA797  LYS798  CYS799  TRP800  GLU811  SER814 

> <Gold.Protein.RotatedAtoms>
  150.8611  134.7962  159.7082 H   0  0  0  0  0  0  0  0  0  0  0  0  # atno 6907 bound_to 6896
  152.4647  134.5099  159.9760 H   0  0  0  0  0  0  0  0  0  0  0  0  # atno 6908 bound_to 6896
  151.5203  133.3429  159.2936 H   0  0  0  0  0  0  0  0  0  0  0  0  # atno 6909 bound_to 6896
  146.2445  140.0731  142.8361 H   0  0  0  0  0  0  0  0  0  0  0  0  # atno 7974 bound_to 7965
  156.1214  140.3211  155.8213 H   0  0  0  0  0  0  0  0  0  0  0  0  # atno 8008 bound_to 7997
  155.4498  140.0531  157.3019 H   0  0  0  0  0  0  0  0  0  0  0  0  # atno 8009 bound_to 7997
  154.4830  140.2061  155.9733 H   0  0  0  0  0  0  0  0  0  0  0  0  # atno 8010 bound_to 7997
  139.9408  144.6091  150.8254 H   0  0  0  0  0  0  0  0  0  0  0  0  # atno 10167 bound_to 10162
  157.3957  131.1010  151.0602 H   0  0  0  0  0  0  0  0  0  0  0  0  # atno 10718 bound_to 10713
  154.1880  135.2796  155.3031 H   0  0  0  0  0  0  0  0  0  0  0  0  # atno 10763 bound_to 10752
  154.5951  135.5547  153.7321 H   0  0  0  0  0  0  0  0  0  0  0  0  # atno 10764 bound_to 10752
  153.0120  135.6378  154.2018 H   0  0  0  0  0  0  0  0  0  0  0  0  # atno 10765 bound_to 10752
  140.7868  134.3014  157.5027 H   0  0  0  0  0  0  0  0  0  0  0  0  # atno 11005 bound_to 11000
  145.0799  140.9213  143.4832 LP  0  0  0  0  0  0  0  0  0  0  0  0  # atno 17320 bound_to 7965
  145.0882  139.2910  143.5749 LP  0  0  0  0  0  0  0  0  0  0  0  0  # atno 17321 bound_to 7965
  140.7611  143.3167  151.2716 LP  0  0  0  0  0  0  0  0  0  0  0  0  # atno 17342 bound_to 10162
  139.6706  144.0027  152.2750 LP  0  0  0  0  0  0  0  0  0  0  0  0  # atno 17343 bound_to 10162
  157.1620  130.6229  149.5613 LP  0  0  0  0  0  0  0  0  0  0  0  0  # atno 17370 bound_to 10713
  155.9810  130.4814  150.6802 LP  0  0  0  0  0  0  0  0  0  0  0  0  # atno 17371 bound_to 10713
  139.8736  134.9351  156.3625 LP  0  0  0  0  0  0  0  0  0  0  0  0  # atno 17394 bound_to 11000
  140.9428  133.7503  156.0169 LP  0  0  0  0  0  0  0  0  0  0  0  0  # atno 17395 bound_to 11000

$$$$
