AV-unprocessed.smi:442|AV-procd|sdf|2583|dock7
  -GOLD-   2262022573D 1   1.00000     0.00000
 Structure written by MMmdl.
 37 37  0  0  0  0  0  0  0  0  3 V2000
  148.6695  144.3676  160.8011 C   0  0  0  0  0  0  0  0  0  0  0  0
  150.0396  144.8836  160.3376 C   0  0  0  0  0  0  0  0  0  0  0  0
  150.9428  143.7970  159.7213 C   0  0  2  0  0  0  0  0  0  0  0  0
  152.1267  144.4102  158.9606 C   0  0  0  0  0  0  0  0  0  0  0  0
  150.1792  142.9459  158.8099 N   0  0  0  0  0  0  0  0  0  0  0  0
  150.6027  141.7959  158.2621 C   0  0  0  0  0  0  0  0  0  0  0  0
  151.7090  141.3031  158.4870 O   0  0  0  0  0  0  0  0  0  0  0  0
  149.6026  141.0889  157.3361 C   0  0  0  0  0  0  0  0  0  0  0  0
  149.9418  139.6763  157.0839 N   0  0  0  0  0  0  0  0  0  0  0  0
  149.5099  138.7462  158.0462 C   0  0  0  0  0  0  0  0  0  0  0  0
  149.7639  137.4305  157.9366 C   0  0  0  0  0  0  0  0  0  0  0  0
  149.3145  136.4941  158.9444 N   0  3  0  0  0  0  0  0  0  0  0  0
  149.8175  135.3756  158.9764 O   0  0  0  0  0  0  0  0  0  0  0  0
  148.4441  136.8434  159.7363 O   0  5  0  0  0  0  0  0  0  0  0  0
  150.5069  136.9789  156.7783 C   0  0  0  0  0  0  0  0  0  0  0  0
  150.9382  137.8592  155.8390 C   0  0  0  0  0  0  0  0  0  0  0  0
  151.6991  137.4424  154.6396 C   0  0  0  0  0  0  0  0  0  0  0  0
  151.2796  136.2949  154.0917 N   0  0  0  0  0  0  0  0  0  0  0  0
  152.6463  138.0338  154.1222 O   0  0  0  0  0  0  0  0  0  0  0  0
  150.6567  139.3145  155.9727 C   0  0  0  0  0  0  0  0  0  0  0  0
  151.0189  140.1788  155.1699 O   0  0  0  0  0  0  0  0  0  0  0  0
  148.0993  145.1635  161.2805 H   0  0  0  0  0  0  0  0  0  0  0  0
  148.7778  143.5563  161.5214 H   0  0  0  0  0  0  0  0  0  0  0  0
  148.0760  143.9970  159.9651 H   0  0  0  0  0  0  0  0  0  0  0  0
  149.8946  145.6938  159.6216 H   0  0  0  0  0  0  0  0  0  0  0  0
  150.5494  145.3256  161.1945 H   0  0  0  0  0  0  0  0  0  0  0  0
  151.3577  143.2000  160.5355 H   0  0  0  0  0  0  0  0  0  0  0  0
  152.7356  145.0319  159.6177 H   0  0  0  0  0  0  0  0  0  0  0  0
  151.7887  145.0340  158.1323 H   0  0  0  0  0  0  0  0  0  0  0  0
  152.7746  143.6345  158.5510 H   0  0  0  0  0  0  0  0  0  0  0  0
  149.2517  143.2642  158.5701 H   0  0  0  0  0  0  0  0  0  0  0  0
  148.6116  141.1725  157.7841 H   0  0  0  0  0  0  0  0  0  0  0  0
  149.5303  141.6356  156.3938 H   0  0  0  0  0  0  0  0  0  0  0  0
  148.9716  139.1782  158.8774 H   0  0  0  0  0  0  0  0  0  0  0  0
  150.7044  135.9215  156.6855 H   0  0  0  0  0  0  0  0  0  0  0  0
  151.7353  135.9291  153.2686 H   0  0  0  0  0  0  0  0  0  0  0  0
  150.5038  135.7989  154.5061 H   0  0  0  0  0  0  0  0  0  0  0  0
  1  2  1  0  0  0  0
  1 22  1  0  0  0  0
  1 23  1  0  0  0  0
  1 24  1  0  0  0  0
  2  3  1  0  0  0  0
  2 25  1  0  0  0  0
  2 26  1  0  0  0  0
  3  4  1  0  0  0  0
  3  5  1  0  0  0  0
  3 27  1  0  0  0  0
  4 28  1  0  0  0  0
  4 29  1  0  0  0  0
  4 30  1  0  0  0  0
  5  6  1  0  0  0  0
  5 31  1  0  0  0  0
  6  7  2  0  0  0  0
  6  8  1  0  0  0  0
  8  9  1  0  0  0  0
  8 32  1  0  0  0  0
  8 33  1  0  0  0  0
  9 20  1  0  0  0  0
  9 10  1  0  0  0  0
 10 11  2  0  0  0  0
 10 34  1  0  0  0  0
 11 12  1  0  0  0  0
 11 15  1  0  0  0  0
 12 13  2  0  0  0  0
 12 14  1  0  0  0  0
 15 16  2  0  0  0  0
 15 35  1  0  0  0  0
 16 17  1  0  0  0  0
 16 20  1  0  0  0  0
 17 18  1  0  0  0  0
 17 19  2  0  0  0  0
 18 36  1  0  0  0  0
 18 37  1  0  0  0  0
 20 21  2  0  0  0  0
M  CHG  1  12   1
M  CHG  1  14  -1
M  END
> <s_m_source_file>
AV-unprocessed.smi

> <i_m_source_file_index>
442

> <i_lp_mmshare_version>
43012

> <i_f3d_flags>
0

> <s_epik_input>
W0NIM11bQ0gyXVtDQEhdKFtDSDNdKVtOSF1DKD1PKVtDSDJdbjFbY0hdYyhbTitdKD1PKVtPLV0pW2NIXWMoYzE9TylDKD1PKVtOSDJd

> <s_epik_cmdline>
J2VwaWtfcHl0aG9uJywgJy1waCcsICc3LjAnLCAnLXRuJywgJzgnLCAnLW1hJywgJzIwMCcsICctbWV0YWxfYmluZGluZycsICctaW1hZScsICc8aW5maWxlLm1hZT4nLCAnLW9tYWUnLCAnPG91dGZpbGUubWFlPic=

> <r_lp_tautomer_probability>
1

> <r_epik_Ionization_Penalty>
2.86914e-06

> <r_epik_Ionization_Penalty_Charging>
2.2828e-12

> <r_epik_Ionization_Penalty_Neutral>
2.86914e-06

> <r_epik_State_Penalty>
-0

> <r_epik_Charging_Adjusted_Penalty>
2.2828e-12

> <i_epik_Tot_Q>
0

> <i_epik_Tot_abs_Q>
2

> <r_epik_Metal_State_Penalty>
-0

> <b_epik_Metal_Only>
0

> <s_lp_Force_Field>
OPLS_2005

> <r_lp_Energy>
21.8648

> <b_lp_Chiralities_Consistent>
1

> <s_lp_Variant>
AV-unprocessed.smi:442-1

> <Gold.Version>
5.8.1

> <Gold.Id.Protein>
6NUR|6NUR_protein|mol2

> <Gold.PLP.Fitness>
43.6920

> <Gold.PLP.PLP>
-34.8327

> <Gold.PLP.part.hbond>
-7.0000

> <Gold.PLP.part.metal>
0.0000

> <Gold.PLP.part.buried>
-6.3203

> <Gold.PLP.part.nonpolar>
-22.9356

> <Gold.PLP.part.repulsive>
0.3364

> <Gold.PLP.ligand.clash>
0.0000

> <Gold.PLP.ligand.torsion>
1.4709

> <Gold.PLP.Chemscore.Hbond>
3.9056

> <Gold.PLP.Chemscore.CHOScore>
0.0000

> <Gold.PLP.Chemscore.Metal>
0.0000

> <Gold.Chemscore.Hbonds>
donor molecule, donor type, donor heavy atom, donor atom, acceptor molecule, acceptor atom, score
      L1  H    18    36       P1  7949  0.59
      P1  H  6896  6909       L1    13  0.41
      P1  H  7989  7998       L1    21  1.00

> <Gold.PLP.Chemscore.Internal.Correction>
0.0842

> <Gold.Rescore>
     Score         DG    S(hbond)    S(metal)    S(lipo)     H(rot)  DE(clash)    DE(int)     intcor
     15.22     -17.84       3.38        0.00      53.66       2.03       0.27       2.34       ----

> <Gold.Chemscore.Fitness>
15.2209

> <Gold.Chemscore.DG>
-17.8380

> <Gold.Chemscore.ZeroCoef>
-5.4800

> <Gold.Chemscore.Hbond>
3.3791

> <Gold.Chemscore.Metal>
0.0000

> <Gold.Chemscore.Lipo>
53.6647

> <Gold.Chemscore.Internal_Hbond>
0.0000

> <Gold.Chemscore.DEClash>
0.2740

> <Gold.Chemscore.DEInternal>
2.3432

> <Gold.Chemscore.Rot>
2.0340

> <Gold.Chemscore.Internal.Correction>
   9.000000E+99

> <Gold.Chemscore.Hbonds>
donor molecule, donor type, donor heavy atom, donor atom, acceptor molecule, acceptor atom, score
      L1  H    18    36       P1  7949  0.58
      P1  H  6896  6909       L1    13  0.41
      P1  H  7989  7998       L1    21  0.99

> <Gold.Chemscore.Hbond.Weighted>
-11.2863

> <Gold.Chemscore.Metal.Weighted>
-0.0000

> <Gold.Chemscore.Lipo.Weighted>
-6.2788

> <Gold.Chemscore.Internal_Hbond.Weighted>
0.0000

> <Gold.Chemscore.DEClash.Weighted>
0.2740

> <Gold.Chemscore.DEInternal.Weighted>
2.3432

> <Gold.Chemscore.Rot.Weighted>
5.2071

> <Gold.Chemscore.Internal.Correction.Weighted>
   9.000000E+99

> <Gold.Protein.RotatedTorsions>
[ 6907 6896 6895 6894 ] final   53.79 input  -60.11 | X-H torsion
[ 7974 7965 7964 7962 ] final  135.30 input  175.53 | X-H torsion
[ 8008 7997 7996 7995 ] final   92.43 input   59.86 | X-H torsion
[ 10167 10162 10161 10158 ] final  144.87 input  -65.29 | X-H torsion
[ 10718 10713 10712 10709 ] final  -31.34 input   66.30 | X-H torsion
[ 10763 10752 10751 10750 ] final  133.99 input  -60.55 | X-H torsion
[ 11005 11000 10999 10996 ] final  156.07 input  -57.11 | X-H torsion

> <Gold.Protein.ActiveResidues>
 VAL166  LYS551  ARG553  GLY616  TRP617  ASP618  TYR619  PRO620  LYS621  CYS622 
 ASP623  PHE694  ASN695  SER759  ASP760  ASP761  ALA762  ILE779  LEU786  VAL792 
 PHE793  MET794  SER795  GLU796  ALA797  LYS798  CYS799  TRP800  GLU811  SER814 

> <Gold.Protein.RotatedAtoms>
  152.3373  134.7181  160.0273 H   0  0  0  0  0  0  0  0  0  0  0  0  # atno 6907 bound_to 6896
  151.7578  133.3326  159.3417 H   0  0  0  0  0  0  0  0  0  0  0  0  # atno 6908 bound_to 6896
  150.7458  134.6066  159.6108 H   0  0  0  0  0  0  0  0  0  0  0  0  # atno 6909 bound_to 6896
  144.9677  139.4640  143.5448 H   0  0  0  0  0  0  0  0  0  0  0  0  # atno 7974 bound_to 7965
  156.0353  140.3325  155.7184 H   0  0  0  0  0  0  0  0  0  0  0  0  # atno 8008 bound_to 7997
  155.5824  140.0638  157.2797 H   0  0  0  0  0  0  0  0  0  0  0  0  # atno 8009 bound_to 7997
  154.4370  140.1841  156.0979 H   0  0  0  0  0  0  0  0  0  0  0  0  # atno 8010 bound_to 7997
  139.4938  144.5941  151.6619 H   0  0  0  0  0  0  0  0  0  0  0  0  # atno 10167 bound_to 10162
  156.3885  130.4368  149.7413 H   0  0  0  0  0  0  0  0  0  0  0  0  # atno 10718 bound_to 10713
  153.8162  135.3122  155.3406 H   0  0  0  0  0  0  0  0  0  0  0  0  # atno 10763 bound_to 10752
  154.8031  135.4714  154.0328 H   0  0  0  0  0  0  0  0  0  0  0  0  # atno 10764 bound_to 10752
  153.1722  135.6879  153.8681 H   0  0  0  0  0  0  0  0  0  0  0  0  # atno 10765 bound_to 10752
  140.1641  134.8589  157.2610 H   0  0  0  0  0  0  0  0  0  0  0  0  # atno 11005 bound_to 11000
  146.3372  139.8868  142.8815 LP  0  0  0  0  0  0  0  0  0  0  0  0  # atno 17320 bound_to 7965
  145.2606  141.0075  143.3829 LP  0  0  0  0  0  0  0  0  0  0  0  0  # atno 17321 bound_to 7965
  140.5575  144.0324  150.6154 LP  0  0  0  0  0  0  0  0  0  0  0  0  # atno 17342 bound_to 10162
  140.3398  143.3026  152.0600 LP  0  0  0  0  0  0  0  0  0  0  0  0  # atno 17343 bound_to 10162
  156.4476  130.7891  151.2912 LP  0  0  0  0  0  0  0  0  0  0  0  0  # atno 17370 bound_to 10713
  157.7497  131.0105  150.3310 LP  0  0  0  0  0  0  0  0  0  0  0  0  # atno 17371 bound_to 10713
  140.2455  134.3745  155.7463 LP  0  0  0  0  0  0  0  0  0  0  0  0  # atno 17394 bound_to 11000
  141.2212  133.7288  156.8855 LP  0  0  0  0  0  0  0  0  0  0  0  0  # atno 17395 bound_to 11000

$$$$
