AV-unprocessed.smi:3264|AV-procd|sdf|12494|dock2
  -GOLD-   2272018393D 1   1.00000     0.00000
 Structure written by MMmdl.
 32 33  0  0  0  0  0  0  0  0  1 V2000
  154.3179  141.1411  161.0300 C   0  0  0  0  0  0  0  0  0  0  0  0
  153.3773  142.1355  160.4410 C   0  0  0  0  0  0  0  0  0  0  0  0
  152.9173  142.0631  159.1894 N   0  0  0  0  0  0  0  0  0  0  0  0
  152.0458  143.1109  158.8747 C   0  0  0  0  0  0  0  0  0  0  0  0
  151.4289  143.1874  157.5111 C   0  0  0  0  0  0  0  0  0  0  0  0
  150.5771  141.9483  157.1890 C   0  0  0  0  0  0  0  0  0  0  0  0
  151.4001  140.8296  156.7440 N   0  0  0  0  0  0  0  0  0  0  0  0
  151.2830  140.2072  155.5612 C   0  0  0  0  0  0  0  0  0  0  0  0
  150.4461  140.5203  154.7135 O   0  0  0  0  0  0  0  0  0  0  0  0
  152.2533  139.0484  155.3053 C   0  0  2  0  0  0  0  0  0  0  0  0
  151.5726  137.6734  155.1617 C   0  0  0  0  0  0  0  0  0  0  0  0
  152.0394  136.9079  156.3852 C   0  0  0  0  0  0  0  0  0  0  0  0
  153.3811  137.5643  156.6764 C   0  0  0  0  0  0  0  0  0  0  0  0
  153.1195  138.9366  156.4323 O   0  0  0  0  0  0  0  0  0  0  0  0
  151.8499  143.9831  159.9163 C   0  0  0  0  0  0  0  0  0  0  0  0
  152.7550  143.5196  161.3310 S   0  0  0  0  0  0  0  0  0  0  0  0
  154.9618  140.7210  160.2565 H   0  0  0  0  0  0  0  0  0  0  0  0
  153.7578  140.3324  161.4991 H   0  0  0  0  0  0  0  0  0  0  0  0
  154.9446  141.6173  161.7841 H   0  0  0  0  0  0  0  0  0  0  0  0
  150.8146  144.0854  157.4359 H   0  0  0  0  0  0  0  0  0  0  0  0
  152.2097  143.2973  156.7574 H   0  0  0  0  0  0  0  0  0  0  0  0
  150.0319  141.6306  158.0784 H   0  0  0  0  0  0  0  0  0  0  0  0
  149.8264  142.1857  156.4333 H   0  0  0  0  0  0  0  0  0  0  0  0
  152.1086  140.5006  157.3840 H   0  0  0  0  0  0  0  0  0  0  0  0
  152.8546  139.2505  154.4173 H   0  0  0  0  0  0  0  0  0  0  0  0
  150.4844  137.7162  155.0998 H   0  0  0  0  0  0  0  0  0  0  0  0
  151.9287  137.1815  154.2557 H   0  0  0  0  0  0  0  0  0  0  0  0
  151.3539  137.0770  157.2168 H   0  0  0  0  0  0  0  0  0  0  0  0
  152.1164  135.8336  156.2157 H   0  0  0  0  0  0  0  0  0  0  0  0
  153.7230  137.3947  157.6976 H   0  0  0  0  0  0  0  0  0  0  0  0
  154.1491  137.2082  155.9881 H   0  0  0  0  0  0  0  0  0  0  0  0
  151.2282  144.8660  159.9376 H   0  0  0  0  0  0  0  0  0  0  0  0
  1  2  1  0  0  0  0
  1 17  1  0  0  0  0
  1 18  1  0  0  0  0
  1 19  1  0  0  0  0
  2 16  1  0  0  0  0
  2  3  2  0  0  0  0
  3  4  1  0  0  0  0
  4  5  1  0  0  0  0
  4 15  2  0  0  0  0
  5  6  1  0  0  0  0
  5 20  1  0  0  0  0
  5 21  1  0  0  0  0
  6  7  1  0  0  0  0
  6 22  1  0  0  0  0
  6 23  1  0  0  0  0
  7  8  1  0  0  0  0
  7 24  1  0  0  0  0
  8  9  2  0  0  0  0
  8 10  1  0  0  0  0
 10 14  1  0  0  0  0
 10 11  1  0  0  0  0
 10 25  1  0  0  0  0
 11 12  1  0  0  0  0
 11 26  1  0  0  0  0
 11 27  1  0  0  0  0
 12 13  1  0  0  0  0
 12 28  1  0  0  0  0
 12 29  1  0  0  0  0
 13 14  1  0  0  0  0
 13 30  1  0  0  0  0
 13 31  1  0  0  0  0
 15 16  1  0  0  0  0
 15 32  1  0  0  0  0
M  END
> <s_m_source_file>
AV-unprocessed.smi

> <i_m_source_file_index>
3264

> <i_lp_mmshare_version>
43012

> <i_f3d_flags>
0

> <s_epik_input>
W0NIM11jMW5jKFtjSF1zMSlbQ0gyXVtDSDJdW05IXUMoPU8pW0NAQEhdMltDSDJdW0NIMl1bQ0gyXU8y

> <s_epik_cmdline>
J2VwaWtfcHl0aG9uJywgJy1waCcsICc3LjAnLCAnLXRuJywgJzgnLCAnLW1hJywgJzIwMCcsICctbWV0YWxfYmluZGluZycsICctaW1hZScsICc8aW5maWxlLm1hZT4nLCAnLW9tYWUnLCAnPG91dGZpbGUubWFlPic=

> <r_epik_Ionization_Penalty>
0.00112246

> <r_epik_Ionization_Penalty_Charging>
0

> <r_epik_Ionization_Penalty_Neutral>
0.00112246

> <r_epik_State_Penalty>
0.000737392

> <r_epik_Charging_Adjusted_Penalty>
0.000737392

> <i_epik_Tot_Q>
0

> <i_epik_Tot_abs_Q>
0

> <r_epik_Metal_State_Penalty>
-0

> <b_epik_Metal_Only>
0

> <s_lp_Force_Field>
OPLS_2005

> <r_lp_Energy>
12.7546

> <b_lp_Chiralities_Consistent>
1

> <s_lp_Variant>
AV-unprocessed.smi:3264-1

> <Gold.Version>
5.8.1

> <Gold.Id.Protein>
6NUR|6NUR_protein|mol2

> <Gold.PLP.Fitness>
41.6629

> <Gold.PLP.PLP>
-35.8946

> <Gold.PLP.part.hbond>
-2.0000

> <Gold.PLP.part.metal>
0.0000

> <Gold.PLP.part.buried>
-4.3737

> <Gold.PLP.part.nonpolar>
-29.6588

> <Gold.PLP.part.repulsive>
0.2020

> <Gold.PLP.ligand.clash>
0.0000

> <Gold.PLP.ligand.torsion>
0.1244

> <Gold.PLP.Chemscore.Hbond>
2.0000

> <Gold.PLP.Chemscore.CHOScore>
0.0000

> <Gold.PLP.Chemscore.Metal>
0.0000

> <Gold.Chemscore.Hbonds>
donor molecule, donor type, donor heavy atom, donor atom, acceptor molecule, acceptor atom, score
      P1  H  7989  7998       L1     9  0.74
      P1  H  7997  8008       L1    14  1.00

> <Gold.PLP.Chemscore.Internal.Correction>
0.0171

> <Gold.Rescore>
     Score         DG    S(hbond)    S(metal)    S(lipo)     H(rot)  DE(clash)    DE(int)     intcor
     18.04     -18.23       1.58        0.00      97.10       1.52       0.08       0.11       ----

> <Gold.Chemscore.Fitness>
18.0372

> <Gold.Chemscore.DG>
-18.2292

> <Gold.Chemscore.ZeroCoef>
-5.4800

> <Gold.Chemscore.Hbond>
1.5777

> <Gold.Chemscore.Metal>
0.0000

> <Gold.Chemscore.Lipo>
97.0956

> <Gold.Chemscore.Internal_Hbond>
0.0000

> <Gold.Chemscore.DEClash>
0.0834

> <Gold.Chemscore.DEInternal>
0.1086

> <Gold.Chemscore.Rot>
1.5159

> <Gold.Chemscore.Internal.Correction>
   9.000000E+99

> <Gold.Chemscore.Hbonds>
donor molecule, donor type, donor heavy atom, donor atom, acceptor molecule, acceptor atom, score
      P1  H  7989  7998       L1     9  0.09
      P1  H  7997  8008       L1    14  0.93

> <Gold.Chemscore.Hbond.Weighted>
-5.2697

> <Gold.Chemscore.Metal.Weighted>
-0.0000

> <Gold.Chemscore.Lipo.Weighted>
-11.3602

> <Gold.Chemscore.Internal_Hbond.Weighted>
0.0000

> <Gold.Chemscore.DEClash.Weighted>
0.0834

> <Gold.Chemscore.DEInternal.Weighted>
0.1086

> <Gold.Chemscore.Rot.Weighted>
3.8807

> <Gold.Chemscore.Internal.Correction.Weighted>
   9.000000E+99

> <Gold.Protein.RotatedTorsions>
[ 6907 6896 6895 6894 ] final   87.37 input  -60.11 | X-H torsion
[ 7974 7965 7964 7962 ] final  -21.00 input  175.53 | X-H torsion
[ 8008 7997 7996 7995 ] final  -61.06 input   59.86 | X-H torsion
[ 10167 10162 10161 10158 ] final  -22.92 input  -65.29 | X-H torsion
[ 10718 10713 10712 10709 ] final  115.00 input   66.30 | X-H torsion
[ 10763 10752 10751 10750 ] final -103.92 input  -60.55 | X-H torsion
[ 11005 11000 10999 10996 ] final -165.95 input  -57.11 | X-H torsion

> <Gold.Protein.ActiveResidues>
 VAL166  LYS551  ARG553  GLY616  TRP617  ASP618  TYR619  PRO620  LYS621  CYS622 
 ASP623  PHE694  ASN695  SER759  ASP760  ASP761  ALA762  ILE779  LEU786  VAL792 
 PHE793  MET794  SER795  GLU796  ALA797  LYS798  CYS799  TRP800  GLU811  SER814 

> <Gold.Protein.RotatedAtoms>
  152.5410  134.2287  159.8816 H   0  0  0  0  0  0  0  0  0  0  0  0  # atno 6907 bound_to 6896
  151.2260  133.4469  159.2610 H   0  0  0  0  0  0  0  0  0  0  0  0  # atno 6908 bound_to 6896
  151.0760  134.9842  159.8388 H   0  0  0  0  0  0  0  0  0  0  0  0  # atno 6909 bound_to 6896
  146.1757  140.4280  142.8514 H   0  0  0  0  0  0  0  0  0  0  0  0  # atno 7974 bound_to 7965
  154.4429  140.1026  156.6372 H   0  0  0  0  0  0  0  0  0  0  0  0  # atno 8008 bound_to 7997
  155.5541  140.3486  155.4457 H   0  0  0  0  0  0  0  0  0  0  0  0  # atno 8009 bound_to 7997
  156.0507  140.1303  157.0042 H   0  0  0  0  0  0  0  0  0  0  0  0  # atno 8010 bound_to 7997
  140.7287  143.4490  151.0544 H   0  0  0  0  0  0  0  0  0  0  0  0  # atno 10167 bound_to 10162
  157.6248  131.1006  150.7266 H   0  0  0  0  0  0  0  0  0  0  0  0  # atno 10718 bound_to 10713
  154.7842  135.4805  153.9910 H   0  0  0  0  0  0  0  0  0  0  0  0  # atno 10763 bound_to 10752
  153.1536  135.6796  153.8852 H   0  0  0  0  0  0  0  0  0  0  0  0  # atno 10764 bound_to 10752
  153.8488  135.3170  155.3409 H   0  0  0  0  0  0  0  0  0  0  0  0  # atno 10765 bound_to 10752
  140.5700  134.5248  157.5160 H   0  0  0  0  0  0  0  0  0  0  0  0  # atno 11005 bound_to 11000
  144.8233  140.6586  143.6338 LP  0  0  0  0  0  0  0  0  0  0  0  0  # atno 17320 bound_to 7965
  145.4217  139.1563  143.4070 LP  0  0  0  0  0  0  0  0  0  0  0  0  # atno 17321 bound_to 7965
  139.8164  143.7880  152.3174 LP  0  0  0  0  0  0  0  0  0  0  0  0  # atno 17342 bound_to 10162
  139.7947  144.7397  150.9906 LP  0  0  0  0  0  0  0  0  0  0  0  0  # atno 17343 bound_to 10162
  156.7617  130.4800  149.5435 LP  0  0  0  0  0  0  0  0  0  0  0  0  # atno 17370 bound_to 10713
  156.1414  130.6247  151.0472 LP  0  0  0  0  0  0  0  0  0  0  0  0  # atno 17371 bound_to 10713
  139.9366  134.7863  156.0786 LP  0  0  0  0  0  0  0  0  0  0  0  0  # atno 17394 bound_to 11000
  141.1062  133.6659  156.2870 LP  0  0  0  0  0  0  0  0  0  0  0  0  # atno 17395 bound_to 11000

$$$$
