AV-unprocessed.smi:1496|AV-procd|sdf|6057|dock5
  -GOLD-   22720 6173D 1   1.00000     0.00000
 Structure written by MMmdl.
 43 44  0  0  0  0  0  0  0  0  2 V2000
  150.1802  135.9209  157.0470 C   0  0  0  0  0  0  0  0  0  0  0  0
  150.2638  136.5015  155.6262 C   0  0  0  0  0  0  0  0  0  0  0  0
  150.3647  135.3418  154.6120 C   0  0  0  0  0  0  0  0  0  0  0  0
  149.0356  137.4023  155.3550 C   0  0  0  0  0  0  0  0  0  0  0  0
  149.2042  138.1994  154.1163 N   0  3  1  0  0  0  0  0  0  0  0  0
  148.0050  139.0149  153.8015 C   0  0  0  0  0  0  0  0  0  0  0  0
  146.7085  138.1826  153.8165 C   0  0  0  0  0  0  0  0  0  0  0  0
  146.8119  137.0166  152.9465 N   0  0  0  0  0  0  0  0  0  0  0  0
  145.7993  136.1877  152.6550 C   0  0  0  0  0  0  0  0  0  0  0  0
  144.6609  136.3304  153.1008 O   0  0  0  0  0  0  0  0  0  0  0  0
  146.1919  135.2138  151.8160 N   0  0  0  0  0  0  0  0  0  0  0  0
  145.4249  134.1418  151.2846 C   0  0  0  0  0  0  0  0  0  0  0  0
  145.9189  133.1880  150.3616 C   0  0  0  0  0  0  0  0  0  0  0  0
  145.0511  132.1829  149.8928 C   0  0  0  0  0  0  0  0  0  0  0  0
  143.7218  132.1709  150.3575 C   0  0  0  0  0  0  0  0  0  0  0  0
  143.2338  133.0809  151.2265 N   0  0  0  0  0  0  0  0  0  0  0  0
  144.0711  134.0424  151.6707 C   0  0  0  0  0  0  0  0  0  0  0  0
  150.4549  138.9918  154.1856 C   0  0  0  0  0  0  0  0  0  0  0  0
  151.6563  138.0689  154.4332 C   0  0  0  0  0  0  0  0  0  0  0  0
  151.4494  137.3012  155.6151 O   0  0  0  0  0  0  0  0  0  0  0  0
  149.2949  135.2963  157.1695 H   0  0  0  0  0  0  0  0  0  0  0  0
  150.1330  136.7119  157.7963 H   0  0  0  0  0  0  0  0  0  0  0  0
  151.0525  135.3071  157.2746 H   0  0  0  0  0  0  0  0  0  0  0  0
  149.5098  134.6708  154.7015 H   0  0  0  0  0  0  0  0  0  0  0  0
  151.2649  134.7498  154.7804 H   0  0  0  0  0  0  0  0  0  0  0  0
  150.3865  135.6893  153.5795 H   0  0  0  0  0  0  0  0  0  0  0  0
  148.1367  136.7881  155.2835 H   0  0  0  0  0  0  0  0  0  0  0  0
  148.8806  138.0883  156.1897 H   0  0  0  0  0  0  0  0  0  0  0  0
  147.9049  139.8064  154.5458 H   0  0  0  0  0  0  0  0  0  0  0  0
  148.1446  139.5126  152.8406 H   0  0  0  0  0  0  0  0  0  0  0  0
  146.4552  137.8530  154.8244 H   0  0  0  0  0  0  0  0  0  0  0  0
  145.8727  138.7914  153.4704 H   0  0  0  0  0  0  0  0  0  0  0  0
  147.7147  136.8313  152.5336 H   0  0  0  0  0  0  0  0  0  0  0  0
  147.1392  135.2775  151.4726 H   0  0  0  0  0  0  0  0  0  0  0  0
  146.9329  133.2148  149.9944 H   0  0  0  0  0  0  0  0  0  0  0  0
  145.3962  131.4399  149.1890 H   0  0  0  0  0  0  0  0  0  0  0  0
  143.0308  131.4136  150.0177 H   0  0  0  0  0  0  0  0  0  0  0  0
  143.6455  134.7545  152.3626 H   0  0  0  0  0  0  0  0  0  0  0  0
  150.6137  139.5446  153.2606 H   0  0  0  0  0  0  0  0  0  0  0  0
  150.3793  139.7281  154.9875 H   0  0  0  0  0  0  0  0  0  0  0  0
  151.8366  137.4212  153.5754 H   0  0  0  0  0  0  0  0  0  0  0  0
  152.5601  138.6647  154.5622 H   0  0  0  0  0  0  0  0  0  0  0  0
  149.3106  137.5349  153.3630 H   0  0  0  0  0  0  0  0  0  0  0  0
  1  2  1  0  0  0  0
  1 21  1  0  0  0  0
  1 22  1  0  0  0  0
  1 23  1  0  0  0  0
  2 20  1  0  0  0  0
  2  3  1  0  0  0  0
  2  4  1  0  0  0  0
  3 24  1  0  0  0  0
  3 25  1  0  0  0  0
  3 26  1  0  0  0  0
  4  5  1  0  0  0  0
  4 27  1  0  0  0  0
  4 28  1  0  0  0  0
  5  6  1  0  0  0  0
  5 18  1  0  0  0  0
  5 43  1  0  0  0  0
  6  7  1  0  0  0  0
  6 29  1  0  0  0  0
  6 30  1  0  0  0  0
  7  8  1  0  0  0  0
  7 31  1  0  0  0  0
  7 32  1  0  0  0  0
  8  9  1  0  0  0  0
  8 33  1  0  0  0  0
  9 10  2  0  0  0  0
  9 11  1  0  0  0  0
 11 12  1  0  0  0  0
 11 34  1  0  0  0  0
 12 17  1  0  0  0  0
 12 13  2  0  0  0  0
 13 14  1  0  0  0  0
 13 35  1  0  0  0  0
 14 15  2  0  0  0  0
 14 36  1  0  0  0  0
 15 16  1  0  0  0  0
 15 37  1  0  0  0  0
 16 17  2  0  0  0  0
 17 38  1  0  0  0  0
 18 19  1  0  0  0  0
 18 39  1  0  0  0  0
 18 40  1  0  0  0  0
 19 20  1  0  0  0  0
 19 41  1  0  0  0  0
 19 42  1  0  0  0  0
M  CHG  1   5   1
M  END
> <s_m_source_file>
AV-unprocessed.smi

> <i_m_source_file_index>
1496

> <i_lp_mmshare_version>
43012

> <i_f3d_flags>
0

> <s_epik_input>
W0NIM11DMShbQ0gzXSlbQ0gyXU4oW0NIMl1bQ0gyXU8xKVtDSDJdW0NIMl1bTkhdQyg9TylbTkhdYzJbY0hdW2NIXVtjSF1uW2NIXTI=

> <s_epik_cmdline>
J2VwaWtfcHl0aG9uJywgJy1waCcsICc3LjAnLCAnLXRuJywgJzgnLCAnLW1hJywgJzIwMCcsICctbWV0YWxfYmluZGluZycsICctaW1hZScsICc8aW5maWxlLm1hZT4nLCAnLW9tYWUnLCAnPG91dGZpbGUubWFlPic=

> <r_epik_Ionization_Penalty>
0.606681

> <r_epik_Ionization_Penalty_Charging>
0.602531

> <r_epik_Ionization_Penalty_Neutral>
0.00415082

> <r_epik_State_Penalty>
0.607427

> <r_epik_Charging_Adjusted_Penalty>
1.20996

> <i_epik_Tot_Q>
1

> <i_epik_Tot_abs_Q>
1

> <r_epik_Metal_State_Penalty>
0.604583

> <b_epik_Metal_Only>
0

> <s_lp_Force_Field>
OPLS_2005

> <r_lp_Energy>
21.2927

> <b_lp_Chiralities_Consistent>
1

> <s_lp_Variant>
AV-unprocessed.smi:1496-3

> <Gold.Version>
5.8.1

> <Gold.Id.Protein>
6NUR|6NUR_protein|mol2

> <Gold.PLP.Fitness>
45.9519

> <Gold.PLP.PLP>
-31.4363

> <Gold.PLP.part.hbond>
-2.9580

> <Gold.PLP.part.metal>
0.0000

> <Gold.PLP.part.buried>
-5.5208

> <Gold.PLP.part.nonpolar>
-23.3429

> <Gold.PLP.part.repulsive>
0.4757

> <Gold.PLP.ligand.clash>
0.0000

> <Gold.PLP.ligand.torsion>
0.0591

> <Gold.PLP.Chemscore.Hbond>
3.8713

> <Gold.PLP.Chemscore.CHOScore>
0.9996

> <Gold.PLP.Chemscore.Metal>
0.0000

> <Gold.Chemscore.Hbonds>
donor molecule, donor type, donor heavy atom, donor atom, acceptor molecule, acceptor atom, score
      L1  H     5    43       P1  7948  2.00
      L1  H     8    33       P1  7948  0.99
      L1  H    11    34       P1  7948  0.84
      L1  C    15    37       P1 10952  1.00

> <Gold.PLP.Chemscore.Internal.Correction>
0.0213

> <Gold.Rescore>
     Score         DG    S(hbond)    S(metal)    S(lipo)     H(rot)  DE(clash)    DE(int)     intcor
     18.23     -19.82       2.63        0.00      80.18       1.50       0.06       1.53       ----

> <Gold.Chemscore.Fitness>
18.2318

> <Gold.Chemscore.DG>
-19.8186

> <Gold.Chemscore.ZeroCoef>
-5.4800

> <Gold.Chemscore.Hbond>
2.6349

> <Gold.Chemscore.Metal>
0.0000

> <Gold.Chemscore.Lipo>
80.1760

> <Gold.Chemscore.Internal_Hbond>
0.0000

> <Gold.Chemscore.DEClash>
0.0572

> <Gold.Chemscore.DEInternal>
1.5296

> <Gold.Chemscore.Rot>
1.5010

> <Gold.Chemscore.Internal.Correction>
   9.000000E+99

> <Gold.Chemscore.Hbonds>
donor molecule, donor type, donor heavy atom, donor atom, acceptor molecule, acceptor atom, score
      L1  H     5    43       P1  7948  0.95
      L1  H     8    33       P1  7948  0.92
      L1  H    11    34       P1  7948  0.73

> <Gold.Chemscore.Hbond.Weighted>
-8.8007

> <Gold.Chemscore.Metal.Weighted>
-0.0000

> <Gold.Chemscore.Lipo.Weighted>
-9.3806

> <Gold.Chemscore.Internal_Hbond.Weighted>
0.0000

> <Gold.Chemscore.DEClash.Weighted>
0.0572

> <Gold.Chemscore.DEInternal.Weighted>
1.5296

> <Gold.Chemscore.Rot.Weighted>
3.8426

> <Gold.Chemscore.Internal.Correction.Weighted>
   9.000000E+99

> <Gold.Protein.RotatedTorsions>
[ 6907 6896 6895 6894 ] final    9.25 input  -60.11 | X-H torsion
[ 7974 7965 7964 7962 ] final -136.88 input  175.53 | X-H torsion
[ 8008 7997 7996 7995 ] final  102.49 input   59.86 | X-H torsion
[ 10167 10162 10161 10158 ] final  -36.32 input  -65.29 | X-H torsion
[ 10718 10713 10712 10709 ] final  108.28 input   66.30 | X-H torsion
[ 10763 10752 10751 10750 ] final   -6.50 input  -60.55 | X-H torsion
[ 11005 11000 10999 10996 ] final  -10.37 input  -57.11 | X-H torsion

> <Gold.Protein.ActiveResidues>
 VAL166  LYS551  ARG553  GLY616  TRP617  ASP618  TYR619  PRO620  LYS621  CYS622 
 ASP623  PHE694  ASN695  SER759  ASP760  ASP761  ALA762  ILE779  LEU786  VAL792 
 PHE793  MET794  SER795  GLU796  ALA797  LYS798  CYS799  TRP800  GLU811  SER814 

> <Gold.Protein.RotatedAtoms>
  151.7192  135.0897  160.0280 H   0  0  0  0  0  0  0  0  0  0  0  0  # atno 6907 bound_to 6896
  152.3613  133.6296  159.6025 H   0  0  0  0  0  0  0  0  0  0  0  0  # atno 6908 bound_to 6896
  150.7606  133.9336  159.3476 H   0  0  0  0  0  0  0  0  0  0  0  0  # atno 6909 bound_to 6896
  144.8889  140.6614  143.5158 H   0  0  0  0  0  0  0  0  0  0  0  0  # atno 7974 bound_to 7965
  156.1397  140.3180  155.8477 H   0  0  0  0  0  0  0  0  0  0  0  0  # atno 8008 bound_to 7997
  155.4177  140.0510  157.3045 H   0  0  0  0  0  0  0  0  0  0  0  0  # atno 8009 bound_to 7997
  154.4966  140.2113  155.9446 H   0  0  0  0  0  0  0  0  0  0  0  0  # atno 8010 bound_to 7997
  140.7145  143.3417  151.2343 H   0  0  0  0  0  0  0  0  0  0  0  0  # atno 10167 bound_to 10162
  157.6593  131.0890  150.6281 H   0  0  0  0  0  0  0  0  0  0  0  0  # atno 10718 bound_to 10713
  153.4132  135.7008  153.6344 H   0  0  0  0  0  0  0  0  0  0  0  0  # atno 10763 bound_to 10752
  153.4830  135.3689  155.2452 H   0  0  0  0  0  0  0  0  0  0  0  0  # atno 10764 bound_to 10752
  154.8718  135.4070  154.3488 H   0  0  0  0  0  0  0  0  0  0  0  0  # atno 10765 bound_to 10752
  140.7440  133.8647  155.8991 H   0  0  0  0  0  0  0  0  0  0  0  0  # atno 11005 bound_to 11000
  145.3819  139.1635  143.4276 LP  0  0  0  0  0  0  0  0  0  0  0  0  # atno 17320 bound_to 7965
  146.3041  140.3900  142.8693 LP  0  0  0  0  0  0  0  0  0  0  0  0  # atno 17321 bound_to 7965
  139.6926  143.9666  152.2867 LP  0  0  0  0  0  0  0  0  0  0  0  0  # atno 17342 bound_to 10162
  139.9333  144.6728  150.8340 LP  0  0  0  0  0  0  0  0  0  0  0  0  # atno 17343 bound_to 10162
  156.6585  130.4505  149.5695 LP  0  0  0  0  0  0  0  0  0  0  0  0  # atno 17370 bound_to 10713
  156.2084  130.6664  151.1244 LP  0  0  0  0  0  0  0  0  0  0  0  0  # atno 17371 bound_to 10713
  140.9811  134.1404  157.4493 LP  0  0  0  0  0  0  0  0  0  0  0  0  # atno 17394 bound_to 11000
  139.8800  135.0010  156.6046 LP  0  0  0  0  0  0  0  0  0  0  0  0  # atno 17395 bound_to 11000

$$$$
