AV-unprocessed.smi:3198|AV-procd|sdf|12230|dock10
  -GOLD-   2272018 63D 1   1.00000     0.00000
 Structure written by MMmdl.
 37 38  0  0  0  0  0  0  0  0  1 V2000
  152.7958  142.7693  161.7960 C   0  0  0  0  0  0  0  0  0  0  0  0
  152.2557  143.5734  160.6324 C   0  0  0  0  0  0  0  0  0  0  0  0
  153.0371  143.7982  159.4805 C   0  0  0  0  0  0  0  0  0  0  0  0
  152.4770  144.5511  158.4313 C   0  0  0  0  0  0  0  0  0  0  0  0
  151.1658  145.0449  158.5735 C   0  0  0  0  0  0  0  0  0  0  0  0
  150.4590  144.7669  159.7623 C   0  0  0  0  0  0  0  0  0  0  0  0
  149.1536  145.2616  159.8973 N   0  0  0  0  0  0  0  0  0  0  0  0
  148.5376  145.4358  161.2076 C   0  0  0  0  0  0  0  0  0  0  0  0
  147.0533  145.0426  161.2140 C   0  0  0  0  0  0  0  0  0  0  0  0
  146.9492  143.6289  161.2196 O   0  0  0  0  0  0  0  0  0  0  0  0
  145.7641  143.1683  161.8488 C   0  0  0  0  0  0  0  0  0  0  0  0
  144.7970  142.6123  160.7945 C   0  0  1  0  0  0  0  0  0  0  0  0
  144.3388  143.6172  159.7270 C   0  0  0  0  0  0  0  0  0  0  0  0
  144.4739  142.8535  158.4174 C   0  0  0  0  0  0  0  0  0  0  0  0
  144.6858  141.4088  158.8585 C   0  0  0  0  0  0  0  0  0  0  0  0
  145.3982  141.5439  160.0762 O   0  0  0  0  0  0  0  0  0  0  0  0
  150.9981  144.0456  160.7744 N   0  0  0  0  0  0  0  0  0  0  0  0
  153.8476  142.5212  161.6514 H   0  0  0  0  0  0  0  0  0  0  0  0
  152.2374  141.8390  161.9034 H   0  0  0  0  0  0  0  0  0  0  0  0
  152.7044  143.3344  162.7241 H   0  0  0  0  0  0  0  0  0  0  0  0
  154.0398  143.4046  159.3998 H   0  0  0  0  0  0  0  0  0  0  0  0
  153.0428  144.7459  157.5324 H   0  0  0  0  0  0  0  0  0  0  0  0
  150.7137  145.6243  157.7817 H   0  0  0  0  0  0  0  0  0  0  0  0
  148.5543  145.2845  159.0850 H   0  0  0  0  0  0  0  0  0  0  0  0
  149.0843  144.8519  161.9489 H   0  0  0  0  0  0  0  0  0  0  0  0
  148.6445  146.4789  161.5055 H   0  0  0  0  0  0  0  0  0  0  0  0
  146.5379  145.4731  162.0741 H   0  0  0  0  0  0  0  0  0  0  0  0
  146.5702  145.4347  160.3180 H   0  0  0  0  0  0  0  0  0  0  0  0
  146.0014  142.3918  162.5776 H   0  0  0  0  0  0  0  0  0  0  0  0
  145.2892  143.9894  162.3879 H   0  0  0  0  0  0  0  0  0  0  0  0
  143.9170  142.2073  161.2970 H   0  0  0  0  0  0  0  0  0  0  0  0
  143.3081  143.9239  159.9077 H   0  0  0  0  0  0  0  0  0  0  0  0
  144.9515  144.5190  159.7072 H   0  0  0  0  0  0  0  0  0  0  0  0
  143.6088  142.9698  157.7644 H   0  0  0  0  0  0  0  0  0  0  0  0
  145.3539  143.2052  157.8773 H   0  0  0  0  0  0  0  0  0  0  0  0
  143.7317  140.9128  159.0453 H   0  0  0  0  0  0  0  0  0  0  0  0
  145.2434  140.8224  158.1282 H   0  0  0  0  0  0  0  0  0  0  0  0
  1  2  1  0  0  0  0
  1 18  1  0  0  0  0
  1 19  1  0  0  0  0
  1 20  1  0  0  0  0
  2 17  1  0  0  0  0
  2  3  2  0  0  0  0
  3  4  1  0  0  0  0
  3 21  1  0  0  0  0
  4  5  2  0  0  0  0
  4 22  1  0  0  0  0
  5  6  1  0  0  0  0
  5 23  1  0  0  0  0
  6  7  1  0  0  0  0
  6 17  2  0  0  0  0
  7  8  1  0  0  0  0
  7 24  1  0  0  0  0
  8  9  1  0  0  0  0
  8 25  1  0  0  0  0
  8 26  1  0  0  0  0
  9 10  1  0  0  0  0
  9 27  1  0  0  0  0
  9 28  1  0  0  0  0
 10 11  1  0  0  0  0
 11 12  1  0  0  0  0
 11 29  1  0  0  0  0
 11 30  1  0  0  0  0
 12 16  1  0  0  0  0
 12 13  1  0  0  0  0
 12 31  1  0  0  0  0
 13 14  1  0  0  0  0
 13 32  1  0  0  0  0
 13 33  1  0  0  0  0
 14 15  1  0  0  0  0
 14 34  1  0  0  0  0
 14 35  1  0  0  0  0
 15 16  1  0  0  0  0
 15 36  1  0  0  0  0
 15 37  1  0  0  0  0
M  END
> <s_m_source_file>
AV-unprocessed.smi

> <i_m_source_file_index>
3198

> <i_lp_mmshare_version>
43012

> <i_f3d_flags>
0

> <s_epik_input>
W0NIM11jMVtjSF1bY0hdW2NIXWMobjEpW05IXVtDSDJdW0NIMl1PW0NIMl1bQ0BASF0yW0NIMl1bQ0gyXVtDSDJdTzI=

> <s_epik_cmdline>
J2VwaWtfcHl0aG9uJywgJy1waCcsICc3LjAnLCAnLXRuJywgJzgnLCAnLW1hJywgJzIwMCcsICctbWV0YWxfYmluZGluZycsICctaW1hZScsICc8aW5maWxlLm1hZT4nLCAnLW9tYWUnLCAnPG91dGZpbGUubWFlPic=

> <r_lp_tautomer_probability>
1

> <r_epik_Ionization_Penalty>
1.29225

> <r_epik_Ionization_Penalty_Charging>
0

> <r_epik_Ionization_Penalty_Neutral>
1.29225

> <r_epik_State_Penalty>
1.3654

> <r_epik_Charging_Adjusted_Penalty>
1.3654

> <i_epik_Tot_Q>
0

> <i_epik_Tot_abs_Q>
0

> <r_epik_Metal_State_Penalty>
0.00531989

> <b_epik_Metal_Only>
0

> <s_lp_Force_Field>
OPLS_2005

> <r_lp_Energy>
18.8909

> <b_lp_Chiralities_Consistent>
1

> <s_lp_Variant>
AV-unprocessed.smi:3198-4

> <Gold.Version>
5.8.1

> <Gold.Id.Protein>
6NUR|6NUR_protein|mol2

> <Gold.PLP.Fitness>
48.6020

> <Gold.PLP.PLP>
-41.2057

> <Gold.PLP.part.hbond>
-3.4245

> <Gold.PLP.part.metal>
0.0000

> <Gold.PLP.part.buried>
-6.7134

> <Gold.PLP.part.nonpolar>
-31.2885

> <Gold.PLP.part.repulsive>
0.4382

> <Gold.PLP.ligand.clash>
0.0000

> <Gold.PLP.ligand.torsion>
0.8271

> <Gold.PLP.Chemscore.Hbond>
3.0000

> <Gold.PLP.Chemscore.CHOScore>
0.0000

> <Gold.PLP.Chemscore.Metal>
0.0000

> <Gold.Chemscore.Hbonds>
donor molecule, donor type, donor heavy atom, donor atom, acceptor molecule, acceptor atom, score
      L1  H     7    24       P1  8029  0.99
      P1  H  6933  6944       L1    10  1.00
      P1  H  6934  6946       L1    16  1.00

> <Gold.PLP.Chemscore.Internal.Correction>
0.0504

> <Gold.Rescore>
     Score         DG    S(hbond)    S(metal)    S(lipo)     H(rot)  DE(clash)    DE(int)     intcor
     20.33     -21.09       2.76        0.00      90.44       1.63       0.02       0.74       ----

> <Gold.Chemscore.Fitness>
20.3311

> <Gold.Chemscore.DG>
-21.0893

> <Gold.Chemscore.ZeroCoef>
-5.4800

> <Gold.Chemscore.Hbond>
2.7555

> <Gold.Chemscore.Metal>
0.0000

> <Gold.Chemscore.Lipo>
90.4413

> <Gold.Chemscore.Internal_Hbond>
0.0000

> <Gold.Chemscore.DEClash>
0.0198

> <Gold.Chemscore.DEInternal>
0.7384

> <Gold.Chemscore.Rot>
1.6311

> <Gold.Chemscore.Internal.Correction>
   9.000000E+99

> <Gold.Chemscore.Hbonds>
donor molecule, donor type, donor heavy atom, donor atom, acceptor molecule, acceptor atom, score
      L1  H     7    24       P1  8029  0.91
      P1  H  6933  6944       L1    10  0.78
      P1  H  6934  6946       L1    16  0.93

> <Gold.Chemscore.Hbond.Weighted>
-9.2033

> <Gold.Chemscore.Metal.Weighted>
-0.0000

> <Gold.Chemscore.Lipo.Weighted>
-10.5816

> <Gold.Chemscore.Internal_Hbond.Weighted>
0.0000

> <Gold.Chemscore.DEClash.Weighted>
0.0198

> <Gold.Chemscore.DEInternal.Weighted>
0.7384

> <Gold.Chemscore.Rot.Weighted>
4.1757

> <Gold.Chemscore.Internal.Correction.Weighted>
   9.000000E+99

> <Gold.Protein.RotatedTorsions>
[ 6907 6896 6895 6894 ] final  124.69 input  -60.11 | X-H torsion
[ 7974 7965 7964 7962 ] final  -58.34 input  175.53 | X-H torsion
[ 8008 7997 7996 7995 ] final -143.80 input   59.86 | X-H torsion
[ 10167 10162 10161 10158 ] final -176.27 input  -65.29 | X-H torsion
[ 10718 10713 10712 10709 ] final  -65.51 input   66.30 | X-H torsion
[ 10763 10752 10751 10750 ] final   61.14 input  -60.55 | X-H torsion
[ 11005 11000 10999 10996 ] final  -15.34 input  -57.11 | X-H torsion

> <Gold.Protein.ActiveResidues>
 VAL166  LYS551  ARG553  GLY616  TRP617  ASP618  TYR619  PRO620  LYS621  CYS622 
 ASP623  PHE694  ASN695  SER759  ASP760  ASP761  ALA762  ILE779  LEU786  VAL792 
 PHE793  MET794  SER795  GLU796  ALA797  LYS798  CYS799  TRP800  GLU811  SER814 

> <Gold.Protein.RotatedAtoms>
  152.4056  133.6884  159.6353 H   0  0  0  0  0  0  0  0  0  0  0  0  # atno 6907 bound_to 6896
  150.7941  133.8715  159.3269 H   0  0  0  0  0  0  0  0  0  0  0  0  # atno 6908 bound_to 6896
  151.6470  135.1008  160.0204 H   0  0  0  0  0  0  0  0  0  0  0  0  # atno 6909 bound_to 6896
  145.8404  140.8421  143.0037 H   0  0  0  0  0  0  0  0  0  0  0  0  # atno 7974 bound_to 7965
  155.5165  140.0588  157.2914 H   0  0  0  0  0  0  0  0  0  0  0  0  # atno 8008 bound_to 7997
  154.4533  140.1960  156.0401 H   0  0  0  0  0  0  0  0  0  0  0  0  # atno 8009 bound_to 7997
  156.0748  140.3255  155.7624 H   0  0  0  0  0  0  0  0  0  0  0  0  # atno 8010 bound_to 7997
  139.5538  144.2041  152.1124 H   0  0  0  0  0  0  0  0  0  0  0  0  # atno 10167 bound_to 10162
  156.0665  130.4248  150.1575 H   0  0  0  0  0  0  0  0  0  0  0  0  # atno 10718 bound_to 10713
  152.9941  135.5511  154.5986 H   0  0  0  0  0  0  0  0  0  0  0  0  # atno 10763 bound_to 10752
  154.5332  135.2815  155.1164 H   0  0  0  0  0  0  0  0  0  0  0  0  # atno 10764 bound_to 10752
  154.2471  135.6406  153.5280 H   0  0  0  0  0  0  0  0  0  0  0  0  # atno 10765 bound_to 10752
  140.7957  133.8253  155.9421 H   0  0  0  0  0  0  0  0  0  0  0  0  # atno 11005 bound_to 11000
  144.6734  140.0804  143.7469 LP  0  0  0  0  0  0  0  0  0  0  0  0  # atno 17320 bound_to 7965
  145.9471  139.2708  143.1234 LP  0  0  0  0  0  0  0  0  0  0  0  0  # atno 17321 bound_to 7965
  140.1542  144.5086  150.6670 LP  0  0  0  0  0  0  0  0  0  0  0  0  # atno 17342 bound_to 10162
  140.6806  143.2325  151.5393 LP  0  0  0  0  0  0  0  0  0  0  0  0  # atno 17343 bound_to 10162
  156.9634  130.9812  151.3474 LP  0  0  0  0  0  0  0  0  0  0  0  0  # atno 17370 bound_to 10713
  157.5710  130.8310  149.8391 LP  0  0  0  0  0  0  0  0  0  0  0  0  # atno 17371 bound_to 10713
  140.9345  134.1979  157.4841 LP  0  0  0  0  0  0  0  0  0  0  0  0  # atno 17394 bound_to 11000
  139.8726  134.9847  156.5249 LP  0  0  0  0  0  0  0  0  0  0  0  0  # atno 17395 bound_to 11000

$$$$
