AV-unprocessed.smi:244|AV-procd|sdf|1870|dock9
  -GOLD-   2262020513D 1   1.00000     0.00000
 Structure written by MMmdl.
 57 61  0  0  0  0  0  0  0  0  2 V2000
  150.1132  144.3850  159.7134 C   0  0  0  0  0  0  0  0  0  0  0  0
  151.3391  144.3315  158.8837 N   0  3  1  0  0  0  0  0  0  0  0  0
  152.5844  144.1458  159.6735 C   0  0  0  0  0  0  0  0  0  0  0  0
  152.7660  142.6889  160.1395 C   0  0  0  0  0  0  0  0  0  0  0  0
  152.7071  141.7301  158.9437 C   0  0  1  0  0  0  0  0  0  0  0  0
  152.8189  140.3862  159.3983 O   0  0  0  0  0  0  0  0  0  0  0  0
  152.8351  139.4634  158.3135 C   0  0  0  0  0  0  0  0  0  0  0  0
  151.5203  139.5778  157.5250 C   0  0  0  0  0  0  0  0  0  0  0  0
  151.3076  140.9537  157.0845 N   0  0  0  0  0  0  0  0  0  0  0  0
  150.2154  141.0724  156.2967 C   0  0  0  0  0  0  0  0  0  0  0  0
  150.2636  140.6733  154.9982 N   0  0  0  0  0  0  0  0  0  0  0  0
  149.1710  140.7642  154.2335 C   0  0  0  0  0  0  0  0  0  0  0  0
  147.9540  141.2020  154.5650 N   0  0  0  0  0  0  0  0  0  0  0  0
  147.9057  141.5963  155.8702 C   0  0  0  0  0  0  0  0  0  0  0  0
  148.9850  141.5709  156.7960 C   0  0  0  0  0  0  0  0  0  0  0  0
  148.5690  142.0470  158.0319 N   0  0  0  0  0  0  0  0  0  0  0  0
  147.3109  142.3417  157.8465 C   0  0  0  0  0  0  0  0  0  0  0  0
  146.8244  142.0821  156.5841 N   0  0  0  0  0  0  0  0  0  0  0  0
  145.4651  142.2976  156.1127 C   0  0  0  0  0  0  0  0  0  0  0  0
  144.6439  140.9980  155.9120 C   0  0  0  0  0  0  0  0  0  0  0  0
  145.1604  140.4070  154.7334 O   0  0  0  0  0  0  0  0  0  0  0  0
  144.8123  139.9949  157.0737 C   0  0  0  0  0  0  0  0  0  0  0  0
  143.9160  138.7560  156.8970 C   0  0  0  0  0  0  0  0  0  0  0  0
  142.5575  139.1551  156.7562 O   0  0  0  0  0  0  0  0  0  0  0  0
  142.3328  139.9535  155.6001 C   0  0  0  0  0  0  0  0  0  0  0  0
  143.1367  141.2624  155.7013 C   0  0  0  0  0  0  0  0  0  0  0  0
  151.3718  141.9114  158.1911 C   0  0  2  0  0  0  0  0  0  0  0  0
  151.2401  143.3887  157.7389 C   0  0  0  0  0  0  0  0  0  0  0  0
  149.9212  143.4387  160.2191 H   0  0  0  0  0  0  0  0  0  0  0  0
  149.2450  144.6213  159.0975 H   0  0  0  0  0  0  0  0  0  0  0  0
  150.1996  145.1629  160.4724 H   0  0  0  0  0  0  0  0  0  0  0  0
  153.4303  144.4326  159.0473 H   0  0  0  0  0  0  0  0  0  0  0  0
  152.5921  144.8249  160.5269 H   0  0  0  0  0  0  0  0  0  0  0  0
  153.7210  142.5820  160.6546 H   0  0  0  0  0  0  0  0  0  0  0  0
  151.9956  142.4267  160.8653 H   0  0  0  0  0  0  0  0  0  0  0  0
  153.5444  141.9500  158.2777 H   0  0  0  0  0  0  0  0  0  0  0  0
  153.6938  139.6551  157.6684 H   0  0  0  0  0  0  0  0  0  0  0  0
  152.9515  138.4534  158.7068 H   0  0  0  0  0  0  0  0  0  0  0  0
  151.5460  138.9111  156.6617 H   0  0  0  0  0  0  0  0  0  0  0  0
  150.6895  139.2571  158.1553 H   0  0  0  0  0  0  0  0  0  0  0  0
  149.2868  140.4352  153.2111 H   0  0  0  0  0  0  0  0  0  0  0  0
  146.6933  142.7461  158.6355 H   0  0  0  0  0  0  0  0  0  0  0  0
  144.9633  142.9513  156.8275 H   0  0  0  0  0  0  0  0  0  0  0  0
  145.5163  142.8570  155.1772 H   0  0  0  0  0  0  0  0  0  0  0  0
  144.4783  140.3959  154.0794 H   0  0  0  0  0  0  0  0  0  0  0  0
  145.8561  139.6941  157.1726 H   0  0  0  0  0  0  0  0  0  0  0  0
  144.5391  140.4699  158.0156 H   0  0  0  0  0  0  0  0  0  0  0  0
  144.2249  138.1639  156.0343 H   0  0  0  0  0  0  0  0  0  0  0  0
  144.0012  138.1080  157.7693 H   0  0  0  0  0  0  0  0  0  0  0  0
  142.5961  139.3953  154.7004 H   0  0  0  0  0  0  0  0  0  0  0  0
  141.2679  140.1758  155.5311 H   0  0  0  0  0  0  0  0  0  0  0  0
  142.7377  141.8288  156.5424 H   0  0  0  0  0  0  0  0  0  0  0  0
  142.9742  141.8745  154.8134 H   0  0  0  0  0  0  0  0  0  0  0  0
  150.5554  141.6759  158.8756 H   0  0  0  0  0  0  0  0  0  0  0  0
  150.2980  143.5676  157.2197 H   0  0  0  0  0  0  0  0  0  0  0  0
  152.0315  143.6261  157.0263 H   0  0  0  0  0  0  0  0  0  0  0  0
  151.4112  145.2516  158.4730 H   0  0  0  0  0  0  0  0  0  0  0  0
  1  2  1  0  0  0  0
  1 29  1  0  0  0  0
  1 30  1  0  0  0  0
  1 31  1  0  0  0  0
  2 28  1  0  0  0  0
  2  3  1  0  0  0  0
  2 57  1  0  0  0  0
  3  4  1  0  0  0  0
  3 32  1  0  0  0  0
  3 33  1  0  0  0  0
  4  5  1  0  0  0  0
  4 34  1  0  0  0  0
  4 35  1  0  0  0  0
  5 27  1  0  0  0  0
  5  6  1  0  0  0  0
  5 36  1  0  0  0  0
  6  7  1  0  0  0  0
  7  8  1  0  0  0  0
  7 37  1  0  0  0  0
  7 38  1  0  0  0  0
  8  9  1  0  0  0  0
  8 39  1  0  0  0  0
  8 40  1  0  0  0  0
  9 10  1  0  0  0  0
  9 27  1  0  0  0  0
 10 15  1  0  0  0  0
 10 11  2  0  0  0  0
 11 12  1  0  0  0  0
 12 13  2  0  0  0  0
 12 41  1  0  0  0  0
 13 14  1  0  0  0  0
 14 18  1  0  0  0  0
 14 15  2  0  0  0  0
 15 16  1  0  0  0  0
 16 17  2  0  0  0  0
 17 18  1  0  0  0  0
 17 42  1  0  0  0  0
 18 19  1  0  0  0  0
 19 20  1  0  0  0  0
 19 43  1  0  0  0  0
 19 44  1  0  0  0  0
 20 26  1  0  0  0  0
 20 21  1  0  0  0  0
 20 22  1  0  0  0  0
 21 45  1  0  0  0  0
 22 23  1  0  0  0  0
 22 46  1  0  0  0  0
 22 47  1  0  0  0  0
 23 24  1  0  0  0  0
 23 48  1  0  0  0  0
 23 49  1  0  0  0  0
 24 25  1  0  0  0  0
 25 26  1  0  0  0  0
 25 50  1  0  0  0  0
 25 51  1  0  0  0  0
 26 52  1  0  0  0  0
 26 53  1  0  0  0  0
 27 28  1  0  0  0  0
 27 54  1  0  0  0  0
 28 55  1  0  0  0  0
 28 56  1  0  0  0  0
M  CHG  1   2   1
M  END
> <s_m_source_file>
AV-unprocessed.smi

> <i_m_source_file_index>
244

> <i_lp_mmshare_version>
43012

> <i_f3d_flags>
0

> <s_epik_input>
W0NIMl0xW0NIMl1OKFtDSDNdKVtDSDJdW0NAQEhdKFtDQEhdMTIpTihbQ0gyXVtDSDJdTzIpYyhuW2NIXW4zKWMoYzM0KW5bY0hdbjRbQ0gyXUM1KFtPSF0pW0NIMl1bQ0gyXU9bQ0gyXVtDSDJdNQ==

> <s_epik_cmdline>
J2VwaWtfcHl0aG9uJywgJy1waCcsICc3LjAnLCAnLXRuJywgJzgnLCAnLW1hJywgJzIwMCcsICctbWV0YWxfYmluZGluZycsICctaW1hZScsICc8aW5maWxlLm1hZT4nLCAnLW9tYWUnLCAnPG91dGZpbGUubWFlPic=

> <r_lp_tautomer_probability>
1

> <r_epik_Ionization_Penalty>
0.0136215

> <r_epik_Ionization_Penalty_Charging>
0.0131385

> <r_epik_Ionization_Penalty_Neutral>
0.000483022

> <r_epik_State_Penalty>
0.0104001

> <r_epik_Charging_Adjusted_Penalty>
0.0235387

> <i_epik_Tot_Q>
1

> <i_epik_Tot_abs_Q>
1

> <r_epik_Metal_State_Penalty>
0.0104469

> <b_epik_Metal_Only>
0

> <s_lp_Force_Field>
OPLS_2005

> <r_lp_Energy>
43.6006

> <b_lp_Chiralities_Consistent>
1

> <s_lp_Variant>
AV-unprocessed.smi:244-7

> <Gold.Version>
5.8.1

> <Gold.Id.Protein>
6NUR|6NUR_protein|mol2

> <Gold.PLP.Fitness>
43.0019

> <Gold.PLP.PLP>
-36.4258

> <Gold.PLP.part.hbond>
-2.0000

> <Gold.PLP.part.metal>
0.0000

> <Gold.PLP.part.buried>
-5.9680

> <Gold.PLP.part.nonpolar>
-28.6052

> <Gold.PLP.part.repulsive>
0.4648

> <Gold.PLP.ligand.clash>
0.0000

> <Gold.PLP.ligand.torsion>
0.9070

> <Gold.PLP.Chemscore.Hbond>
1.7616

> <Gold.PLP.Chemscore.CHOScore>
1.0000

> <Gold.PLP.Chemscore.Metal>
0.0000

> <Gold.Chemscore.Hbonds>
donor molecule, donor type, donor heavy atom, donor atom, acceptor molecule, acceptor atom, score
      L1  H    21    45       P1 10175  1.00
      P1  H  7989  7998       L1    11  0.74
      L1  C    12    41       P1  7957  1.00

> <Gold.PLP.Chemscore.Internal.Correction>
0.1053

> <Gold.Rescore>
     Score         DG    S(hbond)    S(metal)    S(lipo)     H(rot)  DE(clash)    DE(int)     intcor
     11.56     -13.72       1.09        0.00      85.18       2.09       0.05       2.11       ----

> <Gold.Chemscore.Fitness>
11.5577

> <Gold.Chemscore.DG>
-13.7227

> <Gold.Chemscore.ZeroCoef>
-5.4800

> <Gold.Chemscore.Hbond>
1.0866

> <Gold.Chemscore.Metal>
0.0000

> <Gold.Chemscore.Lipo>
85.1835

> <Gold.Chemscore.Internal_Hbond>
0.0000

> <Gold.Chemscore.DEClash>
0.0540

> <Gold.Chemscore.DEInternal>
2.1110

> <Gold.Chemscore.Rot>
2.0911

> <Gold.Chemscore.Internal.Correction>
   9.000000E+99

> <Gold.Chemscore.Hbonds>
donor molecule, donor type, donor heavy atom, donor atom, acceptor molecule, acceptor atom, score
      L1  H    21    45       P1 10175  1.00
      P1  H  7989  7998       L1    11  0.12

> <Gold.Chemscore.Hbond.Weighted>
-3.6293

> <Gold.Chemscore.Metal.Weighted>
-0.0000

> <Gold.Chemscore.Lipo.Weighted>
-9.9665

> <Gold.Chemscore.Internal_Hbond.Weighted>
0.0000

> <Gold.Chemscore.DEClash.Weighted>
0.0540

> <Gold.Chemscore.DEInternal.Weighted>
2.1110

> <Gold.Chemscore.Rot.Weighted>
5.3531

> <Gold.Chemscore.Internal.Correction.Weighted>
   9.000000E+99

> <Gold.Protein.RotatedTorsions>
[ 6907 6896 6895 6894 ] final   91.59 input  -60.11 | X-H torsion
[ 7974 7965 7964 7962 ] final -125.25 input  175.53 | X-H torsion
[ 8008 7997 7996 7995 ] final  -26.95 input   59.86 | X-H torsion
[ 10167 10162 10161 10158 ] final   40.48 input  -65.29 | X-H torsion
[ 10718 10713 10712 10709 ] final  173.42 input   66.30 | X-H torsion
[ 10763 10752 10751 10750 ] final  176.66 input  -60.55 | X-H torsion
[ 11005 11000 10999 10996 ] final  -85.24 input  -57.11 | X-H torsion

> <Gold.Protein.ActiveResidues>
 VAL166  LYS551  ARG553  GLY616  TRP617  ASP618  TYR619  PRO620  LYS621  CYS622 
 ASP623  PHE694  ASN695  SER759  ASP760  ASP761  ALA762  ILE779  LEU786  VAL792 
 PHE793  MET794  SER795  GLU796  ALA797  LYS798  CYS799  TRP800  GLU811  SER814 

> <Gold.Protein.RotatedAtoms>
  152.5450  134.1633  159.8566 H   0  0  0  0  0  0  0  0  0  0  0  0  # atno 6907 bound_to 6896
  151.1650  133.4814  159.2601 H   0  0  0  0  0  0  0  0  0  0  0  0  # atno 6908 bound_to 6896
  151.1334  135.0153  159.8648 H   0  0  0  0  0  0  0  0  0  0  0  0  # atno 6909 bound_to 6896
  144.9995  140.7807  143.4505 H   0  0  0  0  0  0  0  0  0  0  0  0  # atno 7974 bound_to 7965
  154.4400  140.1885  156.0856 H   0  0  0  0  0  0  0  0  0  0  0  0  # atno 8008 bound_to 7997
  156.0405  140.3320  155.7212 H   0  0  0  0  0  0  0  0  0  0  0  0  # atno 8009 bound_to 7997
  155.5706  140.0612  157.2798 H   0  0  0  0  0  0  0  0  0  0  0  0  # atno 8010 bound_to 7997
  140.3737  144.2071  150.6132 H   0  0  0  0  0  0  0  0  0  0  0  0  # atno 10167 bound_to 10162
  156.9645  131.0071  151.2920 H   0  0  0  0  0  0  0  0  0  0  0  0  # atno 10718 bound_to 10713
  154.4841  135.2776  155.1547 H   0  0  0  0  0  0  0  0  0  0  0  0  # atno 10763 bound_to 10752
  154.3246  135.6202  153.5527 H   0  0  0  0  0  0  0  0  0  0  0  0  # atno 10764 bound_to 10752
  152.9879  135.5751  154.5248 H   0  0  0  0  0  0  0  0  0  0  0  0  # atno 10765 bound_to 10752
  141.1643  133.7389  156.8986 H   0  0  0  0  0  0  0  0  0  0  0  0  # atno 11005 bound_to 11000
  145.2173  139.2176  143.5111 LP  0  0  0  0  0  0  0  0  0  0  0  0  # atno 17320 bound_to 7965
  146.3449  140.2023  142.8589 LP  0  0  0  0  0  0  0  0  0  0  0  0  # atno 17321 bound_to 7965
  140.5007  143.2319  151.8682 LP  0  0  0  0  0  0  0  0  0  0  0  0  # atno 17342 bound_to 10162
  139.4801  144.5062  151.8994 LP  0  0  0  0  0  0  0  0  0  0  0  0  # atno 17343 bound_to 10162
  157.5635  130.8262  149.8297 LP  0  0  0  0  0  0  0  0  0  0  0  0  # atno 17370 bound_to 10713
  156.0308  130.3765  150.1693 LP  0  0  0  0  0  0  0  0  0  0  0  0  # atno 17371 bound_to 10713
  140.1598  134.9173  157.2701 LP  0  0  0  0  0  0  0  0  0  0  0  0  # atno 17394 bound_to 11000
  140.2624  134.3555  155.7402 LP  0  0  0  0  0  0  0  0  0  0  0  0  # atno 17395 bound_to 11000

$$$$
