AV-unprocessed.smi:1225|AV-procd|sdf|5138|dock8
  -GOLD-   22720 4203D 1   1.00000     0.00000
 Structure written by MMmdl.
 49 51  0  0  0  0  0  0  0  0  2 V2000
  150.1363  130.3008  155.0094 C   0  0  0  0  0  0  0  0  0  0  0  0
  149.9155  131.7621  154.8163 C   0  0  0  0  0  0  0  0  0  0  0  0
  149.0413  132.2694  153.9443 N   0  0  0  0  0  0  0  0  0  0  0  0
  149.0243  133.6660  153.9580 C   0  0  0  0  0  0  0  0  0  0  0  0
  149.8967  134.2237  154.8598 C   0  0  0  0  0  0  0  0  0  0  0  0
  150.1265  135.6784  155.1232 C   0  0  0  0  0  0  0  0  0  0  0  0
  150.9079  135.9449  156.3319 N   0  0  0  0  0  0  0  0  0  0  0  0
  150.0352  136.2404  157.4681 C   0  0  0  0  0  0  0  0  0  0  0  0
  151.8669  137.0259  156.0917 C   0  0  0  0  0  0  0  0  0  0  0  0
  151.2505  138.4186  155.8538 C   0  0  2  0  0  0  0  0  0  0  0  0
  150.9643  138.5409  154.4752 O   0  0  0  0  0  0  0  0  0  0  0  0
  152.1987  139.5604  156.2738 C   0  0  0  0  0  0  0  0  0  0  0  0
  151.4876  140.8053  156.5913 N   0  0  0  0  0  0  0  0  0  0  0  0
  150.4822  141.4361  155.9259 C   0  0  0  0  0  0  0  0  0  0  0  0
  150.1689  142.5603  156.6284 N   0  3  0  0  0  0  0  0  0  0  0  0
  150.9894  142.6496  157.7553 C   0  0  0  0  0  0  0  0  0  0  0  0
  151.0521  143.6030  158.7645 C   0  0  0  0  0  0  0  0  0  0  0  0
  152.0112  143.4019  159.7832 C   0  0  0  0  0  0  0  0  0  0  0  0
  152.1056  144.4258  160.9017 C   0  0  0  0  0  0  0  0  0  0  0  0
  152.8686  142.2709  159.7666 C   0  0  0  0  0  0  0  0  0  0  0  0
  153.8959  142.0641  160.8666 C   0  0  0  0  0  0  0  0  0  0  0  0
  152.7896  141.3129  158.7307 C   0  0  0  0  0  0  0  0  0  0  0  0
  151.8387  141.5267  157.7362 C   0  0  0  0  0  0  0  0  0  0  0  0
  150.7863  132.9936  155.7217 S   0  0  0  0  0  0  0  0  0  0  0  0
  149.5737  129.7259  154.2730 H   0  0  0  0  0  0  0  0  0  0  0  0
  149.8116  130.0047  156.0069 H   0  0  0  0  0  0  0  0  0  0  0  0
  151.1953  130.0661  154.9009 H   0  0  0  0  0  0  0  0  0  0  0  0
  148.3538  134.1870  153.2906 H   0  0  0  0  0  0  0  0  0  0  0  0
  150.6437  136.0946  154.2579 H   0  0  0  0  0  0  0  0  0  0  0  0
  149.1696  136.1996  155.1790 H   0  0  0  0  0  0  0  0  0  0  0  0
  150.6047  136.3607  158.3882 H   0  0  0  0  0  0  0  0  0  0  0  0
  149.3286  135.4295  157.6448 H   0  0  0  0  0  0  0  0  0  0  0  0
  149.4638  137.1539  157.2986 H   0  0  0  0  0  0  0  0  0  0  0  0
  152.5378  137.1060  156.9485 H   0  0  0  0  0  0  0  0  0  0  0  0
  152.5012  136.7602  155.2441 H   0  0  0  0  0  0  0  0  0  0  0  0
  150.3000  138.5077  156.3780 H   0  0  0  0  0  0  0  0  0  0  0  0
  150.1929  138.0300  154.2835 H   0  0  0  0  0  0  0  0  0  0  0  0
  152.7948  139.2777  157.1426 H   0  0  0  0  0  0  0  0  0  0  0  0
  152.9065  139.7804  155.4734 H   0  0  0  0  0  0  0  0  0  0  0  0
  150.0166  141.1038  155.0089 H   0  0  0  0  0  0  0  0  0  0  0  0
  150.3964  144.4614  158.7702 H   0  0  0  0  0  0  0  0  0  0  0  0
  151.8804  143.9632  161.8629 H   0  0  0  0  0  0  0  0  0  0  0  0
  151.4020  145.2454  160.7527 H   0  0  0  0  0  0  0  0  0  0  0  0
  153.1077  144.8525  160.9484 H   0  0  0  0  0  0  0  0  0  0  0  0
  154.4533  141.1381  160.7229 H   0  0  0  0  0  0  0  0  0  0  0  0
  153.4098  142.0112  161.8410 H   0  0  0  0  0  0  0  0  0  0  0  0
  154.6121  142.8860  160.8801 H   0  0  0  0  0  0  0  0  0  0  0  0
  153.4419  140.4520  158.7157 H   0  0  0  0  0  0  0  0  0  0  0  0
  149.4490  143.2172  156.3555 H   0  0  0  0  0  0  0  0  0  0  0  0
  1  2  1  0  0  0  0
  1 25  1  0  0  0  0
  1 26  1  0  0  0  0
  1 27  1  0  0  0  0
  2 24  1  0  0  0  0
  2  3  2  0  0  0  0
  3  4  1  0  0  0  0
  4  5  2  0  0  0  0
  4 28  1  0  0  0  0
  5  6  1  0  0  0  0
  5 24  1  0  0  0  0
  6  7  1  0  0  0  0
  6 29  1  0  0  0  0
  6 30  1  0  0  0  0
  7  8  1  0  0  0  0
  7  9  1  0  0  0  0
  8 31  1  0  0  0  0
  8 32  1  0  0  0  0
  8 33  1  0  0  0  0
  9 10  1  0  0  0  0
  9 34  1  0  0  0  0
  9 35  1  0  0  0  0
 10 11  1  0  0  0  0
 10 12  1  0  0  0  0
 10 36  1  0  0  0  0
 11 37  1  0  0  0  0
 12 13  1  0  0  0  0
 12 38  1  0  0  0  0
 12 39  1  0  0  0  0
 13 23  1  0  0  0  0
 13 14  1  0  0  0  0
 14 15  2  0  0  0  0
 14 40  1  0  0  0  0
 15 16  1  0  0  0  0
 15 49  1  0  0  0  0
 16 23  2  0  0  0  0
 16 17  1  0  0  0  0
 17 18  2  0  0  0  0
 17 41  1  0  0  0  0
 18 19  1  0  0  0  0
 18 20  1  0  0  0  0
 19 42  1  0  0  0  0
 19 43  1  0  0  0  0
 19 44  1  0  0  0  0
 20 21  1  0  0  0  0
 20 22  2  0  0  0  0
 21 45  1  0  0  0  0
 21 46  1  0  0  0  0
 21 47  1  0  0  0  0
 22 23  1  0  0  0  0
 22 48  1  0  0  0  0
M  CHG  1  15   1
M  END
> <s_m_source_file>
AV-unprocessed.smi

> <i_m_source_file_index>
1225

> <i_lp_mmshare_version>
43012

> <i_f3d_flags>
0

> <s_epik_input>
W0NIM11jMW5bY0hdYyhzMSlbQ0gyXU4oW0NIM10pW0NIMl1bQ0BIXShbT0hdKVtDSDJdbihbY0hdbjIpYyhjMjMpW2NIXWMoW0NIM10pYyhbY0hdMylbQ0gzXQ==

> <s_epik_cmdline>
J2VwaWtfcHl0aG9uJywgJy1waCcsICc3LjAnLCAnLXRuJywgJzgnLCAnLW1hJywgJzIwMCcsICctbWV0YWxfYmluZGluZycsICctaW1hZScsICc8aW5maWxlLm1hZT4nLCAnLW9tYWUnLCAnPG91dGZpbGUubWFlPic=

> <r_epik_Ionization_Penalty>
1.25968

> <r_epik_Ionization_Penalty_Charging>
1.21782

> <r_epik_Ionization_Penalty_Neutral>
0.0418565

> <r_epik_State_Penalty>
1.29962

> <r_epik_Charging_Adjusted_Penalty>
2.51745

> <i_epik_Tot_Q>
1

> <i_epik_Tot_abs_Q>
1

> <r_epik_Metal_State_Penalty>
1.36802

> <b_epik_Metal_Only>
0

> <s_lp_Force_Field>
OPLS_2005

> <r_lp_Energy>
21.2232

> <b_lp_Chiralities_Consistent>
1

> <s_lp_Variant>
AV-unprocessed.smi:1225-3

> <Gold.Version>
5.8.1

> <Gold.Id.Protein>
6NUR|6NUR_protein|mol2

> <Gold.PLP.Fitness>
53.6372

> <Gold.PLP.PLP>
-47.5096

> <Gold.PLP.part.hbond>
-1.0000

> <Gold.PLP.part.metal>
0.0000

> <Gold.PLP.part.buried>
-5.2696

> <Gold.PLP.part.nonpolar>
-40.3711

> <Gold.PLP.part.repulsive>
0.1850

> <Gold.PLP.ligand.clash>
0.0000

> <Gold.PLP.ligand.torsion>
1.4631

> <Gold.PLP.Chemscore.Hbond>
2.0000

> <Gold.PLP.Chemscore.CHOScore>
0.9386

> <Gold.PLP.Chemscore.Metal>
0.0000

> <Gold.Chemscore.Hbonds>
donor molecule, donor type, donor heavy atom, donor atom, acceptor molecule, acceptor atom, score
      L1  H    15    49       P1  8028  2.00
      L1  C     4    28       P1  7948  0.90

> <Gold.PLP.Chemscore.Internal.Correction>
0.2379

> <Gold.Rescore>
     Score         DG    S(hbond)    S(metal)    S(lipo)     H(rot)  DE(clash)    DE(int)     intcor
     18.40     -20.52       1.57        0.00     135.51       2.36       0.42       1.70       ----

> <Gold.Chemscore.Fitness>
18.3986

> <Gold.Chemscore.DG>
-20.5150

> <Gold.Chemscore.ZeroCoef>
-5.4800

> <Gold.Chemscore.Hbond>
1.5673

> <Gold.Chemscore.Metal>
0.0000

> <Gold.Chemscore.Lipo>
135.5054

> <Gold.Chemscore.Internal_Hbond>
0.0000

> <Gold.Chemscore.DEClash>
0.4203

> <Gold.Chemscore.DEInternal>
1.6962

> <Gold.Chemscore.Rot>
2.3649

> <Gold.Chemscore.Internal.Correction>
   9.000000E+99

> <Gold.Chemscore.Hbonds>
donor molecule, donor type, donor heavy atom, donor atom, acceptor molecule, acceptor atom, score
      L1  H    15    49       P1  8028  0.97

> <Gold.Chemscore.Hbond.Weighted>
-5.2349

> <Gold.Chemscore.Metal.Weighted>
-0.0000

> <Gold.Chemscore.Lipo.Weighted>
-15.8541

> <Gold.Chemscore.Internal_Hbond.Weighted>
0.0000

> <Gold.Chemscore.DEClash.Weighted>
0.4203

> <Gold.Chemscore.DEInternal.Weighted>
1.6962

> <Gold.Chemscore.Rot.Weighted>
6.0540

> <Gold.Chemscore.Internal.Correction.Weighted>
   9.000000E+99

> <Gold.Protein.RotatedTorsions>
[ 6907 6896 6895 6894 ] final  118.85 input  -60.11 | X-H torsion
[ 7974 7965 7964 7962 ] final  -23.57 input  175.53 | X-H torsion
[ 8008 7997 7996 7995 ] final  102.02 input   59.86 | X-H torsion
[ 10167 10162 10161 10158 ] final   -0.90 input  -65.29 | X-H torsion
[ 10718 10713 10712 10709 ] final   35.52 input   66.30 | X-H torsion
[ 10763 10752 10751 10750 ] final   61.25 input  -60.55 | X-H torsion
[ 11005 11000 10999 10996 ] final  -24.00 input  -57.11 | X-H torsion

> <Gold.Protein.ActiveResidues>
 VAL166  LYS551  ARG553  GLY616  TRP617  ASP618  TYR619  PRO620  LYS621  CYS622 
 ASP623  PHE694  ASN695  SER759  ASP760  ASP761  ALA762  ILE779  LEU786  VAL792 
 PHE793  MET794  SER795  GLU796  ALA797  LYS798  CYS799  TRP800  GLU811  SER814 

> <Gold.Protein.RotatedAtoms>
  152.4514  133.7636  159.6760 H   0  0  0  0  0  0  0  0  0  0  0  0  # atno 6907 bound_to 6896
  150.8427  133.7900  159.3061 H   0  0  0  0  0  0  0  0  0  0  0  0  # atno 6908 bound_to 6896
  151.5520  135.1070  160.0004 H   0  0  0  0  0  0  0  0  0  0  0  0  # atno 6909 bound_to 6896
  146.1608  140.4634  142.8572 H   0  0  0  0  0  0  0  0  0  0  0  0  # atno 7974 bound_to 7965
  156.1353  140.3188  155.8412 H   0  0  0  0  0  0  0  0  0  0  0  0  # atno 8008 bound_to 7997
  155.4255  140.0515  157.3039 H   0  0  0  0  0  0  0  0  0  0  0  0  # atno 8009 bound_to 7997
  154.4932  140.2100  155.9515 H   0  0  0  0  0  0  0  0  0  0  0  0  # atno 8010 bound_to 7997
  140.6787  143.6839  150.8083 H   0  0  0  0  0  0  0  0  0  0  0  0  # atno 10167 bound_to 10162
  157.3237  130.7462  149.6802 H   0  0  0  0  0  0  0  0  0  0  0  0  # atno 10718 bound_to 10713
  152.9945  135.5507  154.6004 H   0  0  0  0  0  0  0  0  0  0  0  0  # atno 10763 bound_to 10752
  154.5347  135.2816  155.1151 H   0  0  0  0  0  0  0  0  0  0  0  0  # atno 10764 bound_to 10752
  154.2453  135.6409  153.5274 H   0  0  0  0  0  0  0  0  0  0  0  0  # atno 10765 bound_to 10752
  140.8804  133.7658  156.0295 H   0  0  0  0  0  0  0  0  0  0  0  0  # atno 11005 bound_to 11000
  144.8024  140.6238  143.6469 LP  0  0  0  0  0  0  0  0  0  0  0  0  # atno 17320 bound_to 7965
  145.4593  139.1514  143.3875 LP  0  0  0  0  0  0  0  0  0  0  0  0  # atno 17321 bound_to 7965
  140.0536  143.5225  152.2662 LP  0  0  0  0  0  0  0  0  0  0  0  0  # atno 17342 bound_to 10162
  139.6096  144.7605  151.2982 LP  0  0  0  0  0  0  0  0  0  0  0  0  # atno 17343 bound_to 10162
  155.9688  130.4215  150.4474 LP  0  0  0  0  0  0  0  0  0  0  0  0  # atno 17370 bound_to 10713
  157.2494  131.0543  151.2388 LP  0  0  0  0  0  0  0  0  0  0  0  0  # atno 17371 bound_to 10713
  140.8468  134.3002  157.5292 LP  0  0  0  0  0  0  0  0  0  0  0  0  # atno 17394 bound_to 11000
  139.8719  134.9446  156.3885 LP  0  0  0  0  0  0  0  0  0  0  0  0  # atno 17395 bound_to 11000

$$$$
