AV-unprocessed.smi:2192|AV-procd|sdf|8897|dock4
  -GOLD-   2272012103D 1   1.00000     0.00000
 Structure written by MMmdl.
 42 44  0  0  0  0  0  0  0  0  1 V2000
  145.0521  142.5760  158.8041 C   0  0  0  0  0  0  0  0  0  0  0  0
  145.3953  142.4633  157.3737 N   0  0  0  0  0  0  0  0  0  0  0  0
  146.3536  141.5553  157.0067 C   0  0  0  0  0  0  0  0  0  0  0  0
  146.9680  140.8259  157.7864 O   0  0  0  0  0  0  0  0  0  0  0  0
  146.6082  141.5116  155.5632 C   0  0  0  0  0  0  0  0  0  0  0  0
  145.9658  142.3113  154.6779 C   0  0  0  0  0  0  0  0  0  0  0  0
  146.3957  142.0763  153.3770 N   0  0  0  0  0  0  0  0  0  0  0  0
  147.3037  141.1159  153.5545 C   0  0  0  0  0  0  0  0  0  0  0  0
  147.4915  140.7196  154.8299 N   0  0  0  0  0  0  0  0  0  0  0  0
  148.4213  139.6946  155.2803 C   0  0  0  0  0  0  0  0  0  0  0  0
  149.8900  140.1616  155.2191 C   0  0  1  0  0  0  0  0  0  0  0  0
  150.3609  140.2596  153.8898 O   0  0  0  0  0  0  0  0  0  0  0  0
  150.1447  141.4958  155.9382 C   0  0  0  0  0  0  0  0  0  0  0  0
  151.1086  141.3115  156.9677 O   0  0  0  0  0  0  0  0  0  0  0  0
  151.2871  142.3245  157.8847 C   0  0  0  0  0  0  0  0  0  0  0  0
  152.2500  142.1110  158.8929 C   0  0  0  0  0  0  0  0  0  0  0  0
  152.4962  143.0905  159.8740 C   0  0  0  0  0  0  0  0  0  0  0  0
  151.7792  144.3008  159.8542 C   0  0  0  0  0  0  0  0  0  0  0  0
  152.0133  145.2439  160.7970 F   0  0  0  0  0  0  0  0  0  0  0  0
  150.8181  144.5291  158.8519 C   0  0  0  0  0  0  0  0  0  0  0  0
  150.5709  143.5485  157.8712 C   0  0  0  0  0  0  0  0  0  0  0  0
  144.9999  143.2268  155.1642 N   0  0  0  0  0  0  0  0  0  0  0  0
  144.3310  144.0803  154.1777 C   0  0  0  0  0  0  0  0  0  0  0  0
  144.7129  143.2998  156.5061 C   0  0  0  0  0  0  0  0  0  0  0  0
  143.8668  144.0937  156.9266 O   0  0  0  0  0  0  0  0  0  0  0  0
  145.5869  141.8892  159.4605 H   0  0  0  0  0  0  0  0  0  0  0  0
  143.9892  142.3816  158.9575 H   0  0  0  0  0  0  0  0  0  0  0  0
  145.2649  143.5828  159.1676 H   0  0  0  0  0  0  0  0  0  0  0  0
  147.8515  140.6860  152.7287 H   0  0  0  0  0  0  0  0  0  0  0  0
  148.1455  139.3745  156.2841 H   0  0  0  0  0  0  0  0  0  0  0  0
  148.2917  138.8183  154.6439 H   0  0  0  0  0  0  0  0  0  0  0  0
  150.5092  139.4038  155.7003 H   0  0  0  0  0  0  0  0  0  0  0  0
  149.6188  140.2056  153.3063 H   0  0  0  0  0  0  0  0  0  0  0  0
  150.5278  142.2185  155.2161 H   0  0  0  0  0  0  0  0  0  0  0  0
  149.2102  141.8913  156.3403 H   0  0  0  0  0  0  0  0  0  0  0  0
  152.8039  141.1839  158.9159 H   0  0  0  0  0  0  0  0  0  0  0  0
  153.2349  142.9121  160.6415 H   0  0  0  0  0  0  0  0  0  0  0  0
  150.2685  145.4586  158.8351 H   0  0  0  0  0  0  0  0  0  0  0  0
  149.8272  143.7608  157.1185 H   0  0  0  0  0  0  0  0  0  0  0  0
  143.5820  144.7532  154.5959 H   0  0  0  0  0  0  0  0  0  0  0  0
  143.8295  143.4639  153.4311 H   0  0  0  0  0  0  0  0  0  0  0  0
  145.0675  144.6963  153.6609 H   0  0  0  0  0  0  0  0  0  0  0  0
  1  2  1  0  0  0  0
  1 26  1  0  0  0  0
  1 27  1  0  0  0  0
  1 28  1  0  0  0  0
  2 24  1  0  0  0  0
  2  3  1  0  0  0  0
  3  4  2  0  0  0  0
  3  5  1  0  0  0  0
  5  9  1  0  0  0  0
  5  6  2  0  0  0  0
  6  7  1  0  0  0  0
  6 22  1  0  0  0  0
  7  8  2  0  0  0  0
  8  9  1  0  0  0  0
  8 29  1  0  0  0  0
  9 10  1  0  0  0  0
 10 11  1  0  0  0  0
 10 30  1  0  0  0  0
 10 31  1  0  0  0  0
 11 12  1  0  0  0  0
 11 13  1  0  0  0  0
 11 32  1  0  0  0  0
 12 33  1  0  0  0  0
 13 14  1  0  0  0  0
 13 34  1  0  0  0  0
 13 35  1  0  0  0  0
 14 15  1  0  0  0  0
 15 21  1  0  0  0  0
 15 16  2  0  0  0  0
 16 17  1  0  0  0  0
 16 36  1  0  0  0  0
 17 18  2  0  0  0  0
 17 37  1  0  0  0  0
 18 19  1  0  0  0  0
 18 20  1  0  0  0  0
 20 21  2  0  0  0  0
 20 38  1  0  0  0  0
 21 39  1  0  0  0  0
 22 23  1  0  0  0  0
 22 24  1  0  0  0  0
 23 40  1  0  0  0  0
 23 41  1  0  0  0  0
 23 42  1  0  0  0  0
 24 25  2  0  0  0  0
M  END
> <s_m_source_file>
AV-unprocessed.smi

> <i_m_source_file_index>
2192

> <i_lp_mmshare_version>
43012

> <i_f3d_flags>
0

> <s_epik_input>
Tz1jMW4oW0NIM10pYyg9TyluKFtDSDNdKWMoYzEyKW5bY0hdbjJbQ0gyXVtDQEhdKFtPSF0pW0NIMl1PYzNbY0hdW2NIXWMoRilbY0hdW2NIXTM=

> <s_epik_cmdline>
J2VwaWtfcHl0aG9uJywgJy1waCcsICc3LjAnLCAnLXRuJywgJzgnLCAnLW1hJywgJzIwMCcsICctbWV0YWxfYmluZGluZycsICctaW1hZScsICc8aW5maWxlLm1hZT4nLCAnLW9tYWUnLCAnPG91dGZpbGUubWFlPic=

> <r_lp_tautomer_probability>
1

> <r_epik_Ionization_Penalty>
1.0344e-06

> <r_epik_Ionization_Penalty_Charging>
3.2247e-09

> <r_epik_Ionization_Penalty_Neutral>
1.03118e-06

> <r_epik_State_Penalty>
-0

> <r_epik_Charging_Adjusted_Penalty>
3.2247e-09

> <i_epik_Tot_Q>
0

> <i_epik_Tot_abs_Q>
0

> <r_epik_Metal_State_Penalty>
-0

> <b_epik_Metal_Only>
0

> <s_lp_Force_Field>
OPLS_2005

> <r_lp_Energy>
39.8918

> <b_lp_Chiralities_Consistent>
1

> <s_lp_Variant>
AV-unprocessed.smi:2192-2

> <Gold.Version>
5.8.1

> <Gold.Id.Protein>
6NUR|6NUR_protein|mol2

> <Gold.PLP.Fitness>
47.7805

> <Gold.PLP.PLP>
-42.4751

> <Gold.PLP.part.hbond>
-1.7953

> <Gold.PLP.part.metal>
0.0000

> <Gold.PLP.part.buried>
-1.0114

> <Gold.PLP.part.nonpolar>
-39.9323

> <Gold.PLP.part.repulsive>
0.3869

> <Gold.PLP.ligand.clash>
0.0000

> <Gold.PLP.ligand.torsion>
0.9726

> <Gold.PLP.Chemscore.Hbond>
1.3872

> <Gold.PLP.Chemscore.CHOScore>
1.0000

> <Gold.PLP.Chemscore.Metal>
0.0000

> <Gold.Chemscore.Hbonds>
donor molecule, donor type, donor heavy atom, donor atom, acceptor molecule, acceptor atom, score
      L1  H    12    33       P1  7957  0.39
      P1  H  7989  7998       L1    12  0.71
      L1  C     8    29       P1  7957  1.00

> <Gold.PLP.Chemscore.Internal.Correction>
0.0890

> <Gold.Rescore>
     Score         DG    S(hbond)    S(metal)    S(lipo)     H(rot)  DE(clash)    DE(int)     intcor
      9.63     -12.54       1.23        0.00      88.03       2.88       1.61       1.30       ----

> <Gold.Chemscore.Fitness>
9.6268

> <Gold.Chemscore.DG>
-12.5357

> <Gold.Chemscore.ZeroCoef>
-5.4800

> <Gold.Chemscore.Hbond>
1.2334

> <Gold.Chemscore.Metal>
0.0000

> <Gold.Chemscore.Lipo>
88.0281

> <Gold.Chemscore.Internal_Hbond>
0.0000

> <Gold.Chemscore.DEClash>
1.6073

> <Gold.Chemscore.DEInternal>
1.3015

> <Gold.Chemscore.Rot>
2.8762

> <Gold.Chemscore.Internal.Correction>
   9.000000E+99

> <Gold.Chemscore.Hbonds>
donor molecule, donor type, donor heavy atom, donor atom, acceptor molecule, acceptor atom, score
      L1  H    12    33       P1  7957  0.39
      P1  H  7989  7998       L1    12  0.67

> <Gold.Chemscore.Hbond.Weighted>
-4.1195

> <Gold.Chemscore.Metal.Weighted>
-0.0000

> <Gold.Chemscore.Lipo.Weighted>
-10.2993

> <Gold.Chemscore.Internal_Hbond.Weighted>
0.0000

> <Gold.Chemscore.DEClash.Weighted>
1.6073

> <Gold.Chemscore.DEInternal.Weighted>
1.3015

> <Gold.Chemscore.Rot.Weighted>
7.3631

> <Gold.Chemscore.Internal.Correction.Weighted>
   9.000000E+99

> <Gold.Protein.RotatedTorsions>
[ 6907 6896 6895 6894 ] final -102.13 input  -60.11 | X-H torsion
[ 7974 7965 7964 7962 ] final   66.21 input  175.53 | X-H torsion
[ 8008 7997 7996 7995 ] final   61.44 input   59.86 | X-H torsion
[ 10167 10162 10161 10158 ] final  166.96 input  -65.29 | X-H torsion
[ 10718 10713 10712 10709 ] final -113.11 input   66.30 | X-H torsion
[ 10763 10752 10751 10750 ] final   59.91 input  -60.55 | X-H torsion
[ 11005 11000 10999 10996 ] final   32.33 input  -57.11 | X-H torsion

> <Gold.Protein.ActiveResidues>
 VAL166  LYS551  ARG553  GLY616  TRP617  ASP618  TYR619  PRO620  LYS621  CYS622 
 ASP623  PHE694  ASN695  SER759  ASP760  ASP761  ALA762  ILE779  LEU786  VAL792 
 PHE793  MET794  SER795  GLU796  ALA797  LYS798  CYS799  TRP800  GLU811  SER814 

> <Gold.Protein.RotatedAtoms>
  150.7183  134.0629  159.3837 H   0  0  0  0  0  0  0  0  0  0  0  0  # atno 6907 bound_to 6896
  151.8609  135.0522  160.0478 H   0  0  0  0  0  0  0  0  0  0  0  0  # atno 6908 bound_to 6896
  152.2718  133.5353  159.5480 H   0  0  0  0  0  0  0  0  0  0  0  0  # atno 6909 bound_to 6896
  145.8293  139.3130  143.0997 H   0  0  0  0  0  0  0  0  0  0  0  0  # atno 7974 bound_to 7965
  155.5984  140.3493  155.4586 H   0  0  0  0  0  0  0  0  0  0  0  0  # atno 8008 bound_to 7997
  156.0247  140.1261  157.0345 H   0  0  0  0  0  0  0  0  0  0  0  0  # atno 8009 bound_to 7997
  154.4329  140.1055  156.6000 H   0  0  0  0  0  0  0  0  0  0  0  0  # atno 8010 bound_to 7997
  139.4935  144.3972  151.9450 H   0  0  0  0  0  0  0  0  0  0  0  0  # atno 10167 bound_to 10162
  156.0746  130.5956  150.8599 H   0  0  0  0  0  0  0  0  0  0  0  0  # atno 10718 bound_to 10713
  152.9907  135.5555  154.5789 H   0  0  0  0  0  0  0  0  0  0  0  0  # atno 10763 bound_to 10752
  154.5174  135.2805  155.1293 H   0  0  0  0  0  0  0  0  0  0  0  0  # atno 10764 bound_to 10752
  154.2660  135.6372  153.5345 H   0  0  0  0  0  0  0  0  0  0  0  0  # atno 10765 bound_to 10752
  140.2746  134.3043  155.7818 H   0  0  0  0  0  0  0  0  0  0  0  0  # atno 11005 bound_to 11000
  145.9589  140.8851  143.0221 LP  0  0  0  0  0  0  0  0  0  0  0  0  # atno 17320 bound_to 7965
  144.6741  140.1784  143.7408 LP  0  0  0  0  0  0  0  0  0  0  0  0  # atno 17321 bound_to 7965
  140.3411  144.3202  150.5967 LP  0  0  0  0  0  0  0  0  0  0  0  0  # atno 17342 bound_to 10162
  140.5565  143.2198  151.7838 LP  0  0  0  0  0  0  0  0  0  0  0  0  # atno 17343 bound_to 10162
  157.5836  131.0946  150.9233 LP  0  0  0  0  0  0  0  0  0  0  0  0  # atno 17370 bound_to 10713
  156.9423  130.5389  149.5280 LP  0  0  0  0  0  0  0  0  0  0  0  0  # atno 17371 bound_to 10713
  141.2172  133.7487  156.9386 LP  0  0  0  0  0  0  0  0  0  0  0  0  # atno 17394 bound_to 11000
  140.1341  134.9337  157.2377 LP  0  0  0  0  0  0  0  0  0  0  0  0  # atno 17395 bound_to 11000

$$$$
