AV-unprocessed.smi:1301|AV-procd|sdf|5423|dock10
  -GOLD-   22720 4583D 1   1.00000     0.00000
 Structure written by MMmdl.
 44 45  0  0  0  0  0  0  0  0  3 V2000
  147.0794  136.1802  162.9960 C   0  0  0  0  0  0  0  0  0  0  0  0
  147.6933  136.0982  161.6401 C   0  0  0  0  0  0  0  0  0  0  0  0
  147.9882  135.0474  160.8186 C   0  0  0  0  0  0  0  0  0  0  0  0
  148.5520  135.6769  159.6755 C   0  0  0  0  0  0  0  0  0  0  0  0
  149.0163  135.0525  158.5821 N   0  5  0  0  0  0  0  0  0  0  0  0
  148.1553  134.5398  157.6739 C   0  0  0  0  0  0  0  0  0  0  0  0
  146.9712  134.2542  157.8666 O   0  0  0  0  0  0  0  0  0  0  0  0
  148.7020  134.3466  156.4651 N   0  0  0  0  0  0  0  0  0  0  0  0
  148.0206  133.8086  155.2918 C   0  0  2  0  0  0  0  0  0  0  0  0
  149.0483  133.4979  154.1928 C   0  0  0  0  0  0  0  0  0  0  0  0
  148.3578  133.0193  152.9057 C   0  0  0  0  0  0  0  0  0  0  0  0
  147.3686  134.0172  152.4231 N   0  3  1  0  0  0  0  0  0  0  0  0
  146.7946  133.6454  151.1039 C   0  0  0  0  0  0  0  0  0  0  0  0
  145.7603  132.5016  151.1897 C   0  0  0  0  0  0  0  0  0  0  0  0
  145.7160  131.7159  149.8708 C   0  0  0  0  0  0  0  0  0  0  0  0
  144.3582  133.0200  151.5517 C   0  0  0  0  0  0  0  0  0  0  0  0
  146.3379  134.3022  153.4565 C   0  0  0  0  0  0  0  0  0  0  0  0
  146.9818  134.8104  154.7563 C   0  0  0  0  0  0  0  0  0  0  0  0
  148.6093  136.9925  159.7990 N   0  0  0  0  0  0  0  0  0  0  0  0
  148.0537  137.2716  161.0535 O   0  0  0  0  0  0  0  0  0  0  0  0
  147.6256  135.5575  163.7044 H   0  0  0  0  0  0  0  0  0  0  0  0
  146.0452  135.8367  162.9713 H   0  0  0  0  0  0  0  0  0  0  0  0
  147.0864  137.2039  163.3711 H   0  0  0  0  0  0  0  0  0  0  0  0
  147.8247  133.9961  161.0031 H   0  0  0  0  0  0  0  0  0  0  0  0
  149.6744  134.5948  156.3560 H   0  0  0  0  0  0  0  0  0  0  0  0
  147.5165  132.8786  155.5620 H   0  0  0  0  0  0  0  0  0  0  0  0
  149.6410  134.3880  153.9754 H   0  0  0  0  0  0  0  0  0  0  0  0
  149.7487  132.7374  154.5403 H   0  0  0  0  0  0  0  0  0  0  0  0
  149.1155  132.8498  152.1399 H   0  0  0  0  0  0  0  0  0  0  0  0
  147.8595  132.0637  153.0773 H   0  0  0  0  0  0  0  0  0  0  0  0
  146.3020  134.5135  150.6634 H   0  0  0  0  0  0  0  0  0  0  0  0
  147.6058  133.3814  150.4235 H   0  0  0  0  0  0  0  0  0  0  0  0
  146.0662  131.7967  151.9619 H   0  0  0  0  0  0  0  0  0  0  0  0
  145.4009  132.3493  149.0408 H   0  0  0  0  0  0  0  0  0  0  0  0
  145.0187  130.8799  149.9340 H   0  0  0  0  0  0  0  0  0  0  0  0
  146.6958  131.3061  149.6234 H   0  0  0  0  0  0  0  0  0  0  0  0
  143.9962  133.7364  150.8133 H   0  0  0  0  0  0  0  0  0  0  0  0
  144.3522  133.5120  152.5245 H   0  0  0  0  0  0  0  0  0  0  0  0
  143.6387  132.2018  151.5986 H   0  0  0  0  0  0  0  0  0  0  0  0
  145.6349  135.0530  153.0986 H   0  0  0  0  0  0  0  0  0  0  0  0
  145.7591  133.3989  153.6556 H   0  0  0  0  0  0  0  0  0  0  0  0
  146.2070  134.9862  155.5035 H   0  0  0  0  0  0  0  0  0  0  0  0
  147.4575  135.7752  154.5728 H   0  0  0  0  0  0  0  0  0  0  0  0
  147.8846  134.8732  152.2778 H   0  0  0  0  0  0  0  0  0  0  0  0
  1  2  1  0  0  0  0
  1 21  1  0  0  0  0
  1 22  1  0  0  0  0
  1 23  1  0  0  0  0
  2 20  1  0  0  0  0
  2  3  2  0  0  0  0
  3  4  1  0  0  0  0
  3 24  1  0  0  0  0
  4  5  1  0  0  0  0
  4 19  2  0  0  0  0
  5  6  1  0  0  0  0
  6  7  2  0  0  0  0
  6  8  1  0  0  0  0
  8  9  1  0  0  0  0
  8 25  1  0  0  0  0
  9 18  1  0  0  0  0
  9 10  1  0  0  0  0
  9 26  1  0  0  0  0
 10 11  1  0  0  0  0
 10 27  1  0  0  0  0
 10 28  1  0  0  0  0
 11 12  1  0  0  0  0
 11 29  1  0  0  0  0
 11 30  1  0  0  0  0
 12 13  1  0  0  0  0
 12 17  1  0  0  0  0
 12 44  1  0  0  0  0
 13 14  1  0  0  0  0
 13 31  1  0  0  0  0
 13 32  1  0  0  0  0
 14 15  1  0  0  0  0
 14 16  1  0  0  0  0
 14 33  1  0  0  0  0
 15 34  1  0  0  0  0
 15 35  1  0  0  0  0
 15 36  1  0  0  0  0
 16 37  1  0  0  0  0
 16 38  1  0  0  0  0
 16 39  1  0  0  0  0
 17 18  1  0  0  0  0
 17 40  1  0  0  0  0
 17 41  1  0  0  0  0
 18 42  1  0  0  0  0
 18 43  1  0  0  0  0
 19 20  1  0  0  0  0
M  CHG  1   5  -1
M  CHG  1  12   1
M  END
> <s_m_source_file>
AV-unprocessed.smi

> <i_m_source_file_index>
1301

> <i_lp_mmshare_version>
43012

> <i_f3d_flags>
0

> <s_epik_input>
W0NIM11jMVtjSF1jKG5vMSlbTkhdQyg9TylbTkhdW0NIXTJbQ0gyXVtDSDJdTihbQ0gyXVtDSDJdMilbQ0gyXVtDSF0oW0NIM10pW0NIM10=

> <s_epik_cmdline>
J2VwaWtfcHl0aG9uJywgJy1waCcsICc3LjAnLCAnLXRuJywgJzgnLCAnLW1hJywgJzIwMCcsICctbWV0YWxfYmluZGluZycsICctaW1hZScsICc8aW5maWxlLm1hZT4nLCAnLW9tYWUnLCAnPG91dGZpbGUubWFlPic=

> <r_epik_Ionization_Penalty>
6.28597

> <r_epik_Ionization_Penalty_Charging>
6.28587

> <r_epik_Ionization_Penalty_Neutral>
9.69304e-05

> <r_epik_State_Penalty>
6.28524

> <r_epik_Charging_Adjusted_Penalty>
12.5711

> <i_epik_Tot_Q>
0

> <i_epik_Tot_abs_Q>
2

> <r_epik_Metal_State_Penalty>
2.21973

> <b_epik_Metal_Only>
1

> <s_lp_Force_Field>
OPLS_2005

> <r_lp_Energy>
7.73982

> <b_lp_Chiralities_Consistent>
1

> <s_lp_Variant>
AV-unprocessed.smi:1301-3

> <Gold.Version>
5.8.1

> <Gold.Id.Protein>
6NUR|6NUR_protein|mol2

> <Gold.PLP.Fitness>
46.8333

> <Gold.PLP.PLP>
-32.1908

> <Gold.PLP.part.hbond>
-4.3601

> <Gold.PLP.part.metal>
0.0000

> <Gold.PLP.part.buried>
-4.1668

> <Gold.PLP.part.nonpolar>
-23.9017

> <Gold.PLP.part.repulsive>
0.0442

> <Gold.PLP.ligand.clash>
0.0000

> <Gold.PLP.ligand.torsion>
1.2485

> <Gold.PLP.Chemscore.Hbond>
5.6960

> <Gold.PLP.Chemscore.CHOScore>
0.0000

> <Gold.PLP.Chemscore.Metal>
0.0000

> <Gold.Chemscore.Hbonds>
donor molecule, donor type, donor heavy atom, donor atom, acceptor molecule, acceptor atom, score
      L1  H    12    44       P1  7948  2.00
      P1  H  6896  6908       L1     5  1.92
      P1  H  6931  6943       L1    20  0.93
      P1  H  6934  6947       L1    20  0.69

> <Gold.PLP.Chemscore.Internal.Correction>
0.0515

> <Gold.Rescore>
     Score         DG    S(hbond)    S(metal)    S(lipo)     H(rot)  DE(clash)    DE(int)     intcor
     17.32     -18.70       2.35        0.00      76.60       1.41       0.06       1.32       ----

> <Gold.Chemscore.Fitness>
17.3165

> <Gold.Chemscore.DG>
-18.7007

> <Gold.Chemscore.ZeroCoef>
-5.4800

> <Gold.Chemscore.Hbond>
2.3528

> <Gold.Chemscore.Metal>
0.0000

> <Gold.Chemscore.Lipo>
76.6030

> <Gold.Chemscore.Internal_Hbond>
0.0000

> <Gold.Chemscore.DEClash>
0.0621

> <Gold.Chemscore.DEInternal>
1.3220

> <Gold.Chemscore.Rot>
1.4063

> <Gold.Chemscore.Internal.Correction>
   9.000000E+99

> <Gold.Chemscore.Hbonds>
donor molecule, donor type, donor heavy atom, donor atom, acceptor molecule, acceptor atom, score
      L1  H    12    44       P1  7948  0.74
      P1  H  6896  6908       L1     5  0.22
      P1  H  6931  6943       L1    20  0.63
      P1  H  6934  6947       L1    20  0.41

> <Gold.Chemscore.Hbond.Weighted>
-7.8584

> <Gold.Chemscore.Metal.Weighted>
-0.0000

> <Gold.Chemscore.Lipo.Weighted>
-8.9625

> <Gold.Chemscore.Internal_Hbond.Weighted>
0.0000

> <Gold.Chemscore.DEClash.Weighted>
0.0621

> <Gold.Chemscore.DEInternal.Weighted>
1.3220

> <Gold.Chemscore.Rot.Weighted>
3.6002

> <Gold.Chemscore.Internal.Correction.Weighted>
   9.000000E+99

> <Gold.Protein.RotatedTorsions>
[ 6907 6896 6895 6894 ] final  138.74 input  -60.11 | X-H torsion
[ 7974 7965 7964 7962 ] final  -15.30 input  175.53 | X-H torsion
[ 8008 7997 7996 7995 ] final  129.58 input   59.86 | X-H torsion
[ 10167 10162 10161 10158 ] final  171.07 input  -65.29 | X-H torsion
[ 10718 10713 10712 10709 ] final -159.23 input   66.30 | X-H torsion
[ 10763 10752 10751 10750 ] final   96.36 input  -60.55 | X-H torsion
[ 11005 11000 10999 10996 ] final  -96.86 input  -57.11 | X-H torsion

> <Gold.Protein.ActiveResidues>
 VAL166  LYS551  ARG553  GLY616  TRP617  ASP618  TYR619  PRO620  LYS621  CYS622 
 ASP623  PHE694  ASN695  SER759  ASP760  ASP761  ALA762  ILE779  LEU786  VAL792 
 PHE793  MET794  SER795  GLU796  ALA797  LYS798  CYS799  TRP800  GLU811  SER814 

> <Gold.Protein.RotatedAtoms>
  152.2631  133.5315  159.5393 H   0  0  0  0  0  0  0  0  0  0  0  0  # atno 6907 bound_to 6896
  150.7132  134.0802  159.3904 H   0  0  0  0  0  0  0  0  0  0  0  0  # atno 6908 bound_to 6896
  151.8719  135.0486  160.0531 H   0  0  0  0  0  0  0  0  0  0  0  0  # atno 6909 bound_to 6896
  146.2038  140.3472  142.8414 H   0  0  0  0  0  0  0  0  0  0  0  0  # atno 7974 bound_to 7965
  156.2939  140.2617  156.2622 H   0  0  0  0  0  0  0  0  0  0  0  0  # atno 8008 bound_to 7997
  154.9777  140.0390  157.2282 H   0  0  0  0  0  0  0  0  0  0  0  0  # atno 8009 bound_to 7997
  154.7800  140.2793  155.6076 H   0  0  0  0  0  0  0  0  0  0  0  0  # atno 8010 bound_to 7997
  139.5036  144.3526  151.9907 H   0  0  0  0  0  0  0  0  0  0  0  0  # atno 10167 bound_to 10162
  156.5653  130.8665  151.2821 H   0  0  0  0  0  0  0  0  0  0  0  0  # atno 10718 bound_to 10713
  153.2640  135.4221  155.0922 H   0  0  0  0  0  0  0  0  0  0  0  0  # atno 10763 bound_to 10752
  154.8431  135.3456  154.6337 H   0  0  0  0  0  0  0  0  0  0  0  0  # atno 10764 bound_to 10752
  153.6757  135.7041  153.5190 H   0  0  0  0  0  0  0  0  0  0  0  0  # atno 10765 bound_to 10752
  141.1398  133.8128  157.0628 H   0  0  0  0  0  0  0  0  0  0  0  0  # atno 11005 bound_to 11000
  144.8744  140.7316  143.6026 LP  0  0  0  0  0  0  0  0  0  0  0  0  # atno 17320 bound_to 7965
  145.3392  139.1737  143.4495 LP  0  0  0  0  0  0  0  0  0  0  0  0  # atno 17321 bound_to 7965
  140.2963  144.3697  150.6073 LP  0  0  0  0  0  0  0  0  0  0  0  0  # atno 17342 bound_to 10162
  140.5908  143.2168  151.7256 LP  0  0  0  0  0  0  0  0  0  0  0  0  # atno 17343 bound_to 10162
  157.7360  130.9771  150.2112 LP  0  0  0  0  0  0  0  0  0  0  0  0  # atno 17370 bound_to 10713
  156.2763  130.3728  149.7980 LP  0  0  0  0  0  0  0  0  0  0  0  0  # atno 17371 bound_to 10713
  140.0560  134.9780  157.1221 LP  0  0  0  0  0  0  0  0  0  0  0  0  # atno 17394 bound_to 11000
  140.3918  134.2176  155.7166 LP  0  0  0  0  0  0  0  0  0  0  0  0  # atno 17395 bound_to 11000

$$$$
