AV-unprocessed.smi:2812|AV-procd|sdf|10836|dock3
  -GOLD-   2272015273D 1   1.00000     0.00000
 Structure written by MMmdl.
 55 56  0  0  0  0  0  0  0  0  2 V2000
  144.4210  135.4686  149.8689 C   0  0  0  0  0  0  0  0  0  0  0  0
  144.8397  134.1540  150.5077 C   0  0  0  0  0  0  0  0  0  0  0  0
  144.1657  132.9336  150.1153 C   0  0  0  0  0  0  0  0  0  0  0  0
  144.5209  131.7726  150.6818 C   0  0  0  0  0  0  0  0  0  0  0  0
  145.5439  131.7025  151.6381 N   0  0  0  0  0  0  0  0  0  0  0  0
  145.8697  130.3838  152.1876 C   0  0  0  0  0  0  0  0  0  0  0  0
  146.2469  132.8017  152.0357 C   0  0  0  0  0  0  0  0  0  0  0  0
  147.1917  132.6965  152.8217 O   0  0  0  0  0  0  0  0  0  0  0  0
  145.8153  134.0956  151.4520 C   0  0  0  0  0  0  0  0  0  0  0  0
  146.4788  135.2770  151.8200 N   0  0  0  0  0  0  0  0  0  0  0  0
  145.9020  136.3882  152.3107 C   0  0  0  0  0  0  0  0  0  0  0  0
  144.6925  136.5310  152.4955 O   0  0  0  0  0  0  0  0  0  0  0  0
  146.8075  137.3407  152.5729 N   0  0  0  0  0  0  0  0  0  0  0  0
  146.4917  138.6472  153.1409 C   0  0  0  0  0  0  0  0  0  0  0  0
  146.9858  138.7904  154.6077 C   0  0  1  0  0  0  0  0  0  0  0  0
  148.3166  138.0531  154.8856 C   0  0  0  0  0  0  0  0  0  0  0  0
  149.5126  138.7590  154.2294 C   0  0  0  0  0  0  0  0  0  0  0  0
  149.5621  140.2281  154.6682 C   0  0  0  0  0  0  0  0  0  0  0  0
  148.2243  140.9375  154.4012 C   0  0  0  0  0  0  0  0  0  0  0  0
  147.0990  140.2113  155.0500 N   0  3  1  0  0  0  0  0  0  0  0  0
  145.8119  140.9544  155.0259 C   0  0  0  0  0  0  0  0  0  0  0  0
  146.0043  142.4767  155.1893 C   0  0  0  0  0  0  0  0  0  0  0  0
  144.8040  143.1308  155.8947 C   0  0  0  0  0  0  0  0  0  0  0  0
  146.2520  143.1397  153.8263 C   0  0  0  0  0  0  0  0  0  0  0  0
  143.5780  135.3277  149.1923 H   0  0  0  0  0  0  0  0  0  0  0  0
  145.2454  135.8933  149.2956 H   0  0  0  0  0  0  0  0  0  0  0  0
  144.1207  136.1886  150.6308 H   0  0  0  0  0  0  0  0  0  0  0  0
  143.3769  132.9536  149.3776 H   0  0  0  0  0  0  0  0  0  0  0  0
  144.0527  130.8317  150.4316 H   0  0  0  0  0  0  0  0  0  0  0  0
  145.8363  130.4001  153.2782 H   0  0  0  0  0  0  0  0  0  0  0  0
  146.8721  130.0811  151.8822 H   0  0  0  0  0  0  0  0  0  0  0  0
  145.1780  129.6081  151.8575 H   0  0  0  0  0  0  0  0  0  0  0  0
  147.4616  135.3191  151.5941 H   0  0  0  0  0  0  0  0  0  0  0  0
  147.7795  137.1443  152.3825 H   0  0  0  0  0  0  0  0  0  0  0  0
  146.9473  139.3998  152.4986 H   0  0  0  0  0  0  0  0  0  0  0  0
  145.4147  138.8051  153.0710 H   0  0  0  0  0  0  0  0  0  0  0  0
  146.2381  138.3295  155.2549 H   0  0  0  0  0  0  0  0  0  0  0  0
  148.4802  138.0130  155.9634 H   0  0  0  0  0  0  0  0  0  0  0  0
  148.2660  137.0149  154.5567 H   0  0  0  0  0  0  0  0  0  0  0  0
  150.4406  138.2563  154.5032 H   0  0  0  0  0  0  0  0  0  0  0  0
  149.4376  138.6964  153.1434 H   0  0  0  0  0  0  0  0  0  0  0  0
  149.7949  140.2817  155.7326 H   0  0  0  0  0  0  0  0  0  0  0  0
  150.3697  140.7454  154.1495 H   0  0  0  0  0  0  0  0  0  0  0  0
  148.2856  141.9543  154.7873 H   0  0  0  0  0  0  0  0  0  0  0  0
  148.0476  141.0283  153.3292 H   0  0  0  0  0  0  0  0  0  0  0  0
  145.2841  140.7297  154.0976 H   0  0  0  0  0  0  0  0  0  0  0  0
  145.1669  140.6049  155.8339 H   0  0  0  0  0  0  0  0  0  0  0  0
  146.8900  142.6617  155.7966 H   0  0  0  0  0  0  0  0  0  0  0  0
  143.8832  142.9858  155.3287 H   0  0  0  0  0  0  0  0  0  0  0  0
  144.9555  144.2043  156.0107 H   0  0  0  0  0  0  0  0  0  0  0  0
  144.6505  142.7169  156.8916 H   0  0  0  0  0  0  0  0  0  0  0  0
  145.4045  142.9967  153.1551 H   0  0  0  0  0  0  0  0  0  0  0  0
  147.1349  142.7235  153.3404 H   0  0  0  0  0  0  0  0  0  0  0  0
  146.4131  144.2128  153.9341 H   0  0  0  0  0  0  0  0  0  0  0  0
  147.3434  140.1511  156.0281 H   0  0  0  0  0  0  0  0  0  0  0  0
  1  2  1  0  0  0  0
  1 25  1  0  0  0  0
  1 26  1  0  0  0  0
  1 27  1  0  0  0  0
  2  9  2  0  0  0  0
  2  3  1  0  0  0  0
  3  4  2  0  0  0  0
  3 28  1  0  0  0  0
  4  5  1  0  0  0  0
  4 29  1  0  0  0  0
  5  6  1  0  0  0  0
  5  7  1  0  0  0  0
  6 30  1  0  0  0  0
  6 31  1  0  0  0  0
  6 32  1  0  0  0  0
  7  8  2  0  0  0  0
  7  9  1  0  0  0  0
  9 10  1  0  0  0  0
 10 11  1  0  0  0  0
 10 33  1  0  0  0  0
 11 12  2  0  0  0  0
 11 13  1  0  0  0  0
 13 14  1  0  0  0  0
 13 34  1  0  0  0  0
 14 15  1  0  0  0  0
 14 35  1  0  0  0  0
 14 36  1  0  0  0  0
 15 20  1  0  0  0  0
 15 16  1  0  0  0  0
 15 37  1  0  0  0  0
 16 17  1  0  0  0  0
 16 38  1  0  0  0  0
 16 39  1  0  0  0  0
 17 18  1  0  0  0  0
 17 40  1  0  0  0  0
 17 41  1  0  0  0  0
 18 19  1  0  0  0  0
 18 42  1  0  0  0  0
 18 43  1  0  0  0  0
 19 20  1  0  0  0  0
 19 44  1  0  0  0  0
 19 45  1  0  0  0  0
 20 21  1  0  0  0  0
 20 55  1  0  0  0  0
 21 22  1  0  0  0  0
 21 46  1  0  0  0  0
 21 47  1  0  0  0  0
 22 23  1  0  0  0  0
 22 24  1  0  0  0  0
 22 48  1  0  0  0  0
 23 49  1  0  0  0  0
 23 50  1  0  0  0  0
 23 51  1  0  0  0  0
 24 52  1  0  0  0  0
 24 53  1  0  0  0  0
 24 54  1  0  0  0  0
M  CHG  1  20   1
M  END
> <s_m_source_file>
AV-unprocessed.smi

> <i_m_source_file_index>
2812

> <i_lp_mmshare_version>
43012

> <i_f3d_flags>
0

> <s_epik_input>
W0NIM11jMVtjSF1bY0hdbihbQ0gzXSljKD1PKWMxW05IXUMoPU8pW05IXVtDSDJdW0NAQEhdMltDSDJdW0NIMl1bQ0gyXVtDSDJdTjJbQ0gyXVtDSF0oW0NIM10pW0NIM10=

> <s_epik_cmdline>
J2VwaWtfcHl0aG9uJywgJy1waCcsICc3LjAnLCAnLXRuJywgJzgnLCAnLW1hJywgJzIwMCcsICctbWV0YWxfYmluZGluZycsICctaW1hZScsICc8aW5maWxlLm1hZT4nLCAnLW9tYWUnLCAnPG91dGZpbGUubWFlPic=

> <r_lp_tautomer_probability>
1

> <r_epik_Ionization_Penalty>
0.0010902

> <r_epik_Ionization_Penalty_Charging>
0.00107091

> <r_epik_Ionization_Penalty_Neutral>
1.92854e-05

> <r_epik_State_Penalty>
0.000697184

> <r_epik_Charging_Adjusted_Penalty>
0.0017681

> <i_epik_Tot_Q>
1

> <i_epik_Tot_abs_Q>
1

> <r_epik_Metal_State_Penalty>
-0

> <b_epik_Metal_Only>
0

> <s_lp_Force_Field>
OPLS_2005

> <r_lp_Energy>
38.3811

> <b_lp_Chiralities_Consistent>
1

> <s_lp_Variant>
AV-unprocessed.smi:2812-4

> <Gold.Version>
5.8.1

> <Gold.Id.Protein>
6NUR|6NUR_protein|mol2

> <Gold.PLP.Fitness>
44.7572

> <Gold.PLP.PLP>
-40.9234

> <Gold.PLP.part.hbond>
-1.9192

> <Gold.PLP.part.metal>
0.0000

> <Gold.PLP.part.buried>
-3.9229

> <Gold.PLP.part.nonpolar>
-35.0483

> <Gold.PLP.part.repulsive>
0.3897

> <Gold.PLP.ligand.clash>
0.0000

> <Gold.PLP.ligand.torsion>
1.3195

> <Gold.PLP.Chemscore.Hbond>
1.9120

> <Gold.PLP.Chemscore.CHOScore>
0.0000

> <Gold.PLP.Chemscore.Metal>
0.0000

> <Gold.Chemscore.Hbonds>
donor molecule, donor type, donor heavy atom, donor atom, acceptor molecule, acceptor atom, score
      L1  H    10    33       P1  7948  0.91
      L1  H    13    34       P1  7948  1.00

> <Gold.PLP.Chemscore.Internal.Correction>
0.7369

> <Gold.Rescore>
     Score         DG    S(hbond)    S(metal)    S(lipo)     H(rot)  DE(clash)    DE(int)     intcor
     15.00     -18.72       1.79        0.00      95.14       1.52       0.19       3.53       ----

> <Gold.Chemscore.Fitness>
15.0041

> <Gold.Chemscore.DG>
-18.7200

> <Gold.Chemscore.ZeroCoef>
-5.4800

> <Gold.Chemscore.Hbond>
1.7931

> <Gold.Chemscore.Metal>
0.0000

> <Gold.Chemscore.Lipo>
95.1385

> <Gold.Chemscore.Internal_Hbond>
0.0000

> <Gold.Chemscore.DEClash>
0.1898

> <Gold.Chemscore.DEInternal>
3.5261

> <Gold.Chemscore.Rot>
1.5157

> <Gold.Chemscore.Internal.Correction>
   9.000000E+99

> <Gold.Chemscore.Hbonds>
donor molecule, donor type, donor heavy atom, donor atom, acceptor molecule, acceptor atom, score
      L1  H    10    33       P1  7948  0.81
      L1  H    13    34       P1  7948  0.94

> <Gold.Chemscore.Hbond.Weighted>
-5.9891

> <Gold.Chemscore.Metal.Weighted>
-0.0000

> <Gold.Chemscore.Lipo.Weighted>
-11.1312

> <Gold.Chemscore.Internal_Hbond.Weighted>
0.0000

> <Gold.Chemscore.DEClash.Weighted>
0.1898

> <Gold.Chemscore.DEInternal.Weighted>
3.5261

> <Gold.Chemscore.Rot.Weighted>
3.8803

> <Gold.Chemscore.Internal.Correction.Weighted>
   9.000000E+99

> <Gold.Protein.RotatedTorsions>
[ 6907 6896 6895 6894 ] final    1.58 input  -60.11 | X-H torsion
[ 7974 7965 7964 7962 ] final  -19.65 input  175.53 | X-H torsion
[ 8008 7997 7996 7995 ] final  -88.88 input   59.86 | X-H torsion
[ 10167 10162 10161 10158 ] final  162.83 input  -65.29 | X-H torsion
[ 10718 10713 10712 10709 ] final -155.30 input   66.30 | X-H torsion
[ 10763 10752 10751 10750 ] final   40.72 input  -60.55 | X-H torsion
[ 11005 11000 10999 10996 ] final  146.87 input  -57.11 | X-H torsion

> <Gold.Protein.ActiveResidues>
 VAL166  LYS551  ARG553  GLY616  TRP617  ASP618  TYR619  PRO620  LYS621  CYS622 
 ASP623  PHE694  ASN695  SER759  ASP760  ASP761  ALA762  ILE779  LEU786  VAL792 
 PHE793  MET794  SER795  GLU796  ALA797  LYS798  CYS799  TRP800  GLU811  SER814 

> <Gold.Protein.RotatedAtoms>
  151.5950  135.1051  160.0047 H   0  0  0  0  0  0  0  0  0  0  0  0  # atno 6907 bound_to 6896
  152.4287  133.7235  159.6557 H   0  0  0  0  0  0  0  0  0  0  0  0  # atno 6908 bound_to 6896
  150.8177  133.8236  159.3175 H   0  0  0  0  0  0  0  0  0  0  0  0  # atno 6909 bound_to 6896
  146.1830  140.4091  142.8487 H   0  0  0  0  0  0  0  0  0  0  0  0  # atno 7974 bound_to 7965
  154.6800  140.0548  157.0256 H   0  0  0  0  0  0  0  0  0  0  0  0  # atno 8008 bound_to 7997
  155.0965  140.3224  155.4540 H   0  0  0  0  0  0  0  0  0  0  0  0  # atno 8009 bound_to 7997
  156.2690  140.2039  156.6091 H   0  0  0  0  0  0  0  0  0  0  0  0  # atno 8010 bound_to 7997
  139.4865  144.4398  151.8966 H   0  0  0  0  0  0  0  0  0  0  0  0  # atno 10167 bound_to 10162
  156.5110  130.8435  151.2646 H   0  0  0  0  0  0  0  0  0  0  0  0  # atno 10718 bound_to 10713
  152.9928  135.6183  154.2672 H   0  0  0  0  0  0  0  0  0  0  0  0  # atno 10763 bound_to 10752
  154.2406  135.2789  155.2857 H   0  0  0  0  0  0  0  0  0  0  0  0  # atno 10764 bound_to 10752
  154.5372  135.5771  153.6866 H   0  0  0  0  0  0  0  0  0  0  0  0  # atno 10765 bound_to 10752
  140.0829  134.9086  157.1529 H   0  0  0  0  0  0  0  0  0  0  0  0  # atno 11005 bound_to 11000
  144.8348  140.6764  143.6267 LP  0  0  0  0  0  0  0  0  0  0  0  0  # atno 17320 bound_to 7965
  145.4021  139.1596  143.4172 LP  0  0  0  0  0  0  0  0  0  0  0  0  # atno 17321 bound_to 7965
  140.3849  144.2689  150.5905 LP  0  0  0  0  0  0  0  0  0  0  0  0  # atno 17342 bound_to 10162
  140.5199  143.2268  151.8405 LP  0  0  0  0  0  0  0  0  0  0  0  0  # atno 17343 bound_to 10162
  157.7450  130.9949  150.2726 LP  0  0  0  0  0  0  0  0  0  0  0  0  # atno 17370 bound_to 10713
  156.3240  130.3790  149.7549 LP  0  0  0  0  0  0  0  0  0  0  0  0  # atno 17371 bound_to 10713
  140.3462  134.2649  155.7205 LP  0  0  0  0  0  0  0  0  0  0  0  0  # atno 17394 bound_to 11000
  141.2053  133.7864  157.0241 LP  0  0  0  0  0  0  0  0  0  0  0  0  # atno 17395 bound_to 11000

$$$$
