AV-unprocessed.smi:1231|AV-procd|sdf|5162|dock2
  -GOLD-   22720 4233D 1   1.00000     0.00000
 Structure written by MMmdl.
 42 43  0  0  0  0  0  0  0  0  1 V2000
  150.8850  137.6010  155.5881 C   0  0  0  0  0  0  0  0  0  0  0  0
  150.9642  138.6807  154.4954 C   0  0  1  0  0  0  0  0  0  0  0  0
  149.6690  138.8147  153.6694 C   0  0  0  0  0  0  0  0  0  0  0  0
  148.5905  139.4693  154.4034 N   0  0  0  0  0  0  0  0  0  0  0  0
  147.3930  139.5858  153.5721 C   0  0  0  0  0  0  0  0  0  0  0  0
  146.3313  138.4931  153.7999 C   0  0  0  0  0  0  0  0  0  0  0  0
  146.6036  137.3125  152.9891 N   0  0  0  0  0  0  0  0  0  0  0  0
  145.6797  136.4454  152.5511 C   0  0  0  0  0  0  0  0  0  0  0  0
  144.4769  136.5567  152.7906 O   0  0  0  0  0  0  0  0  0  0  0  0
  146.2432  135.4584  151.8321 N   0  0  0  0  0  0  0  0  0  0  0  0
  145.6076  134.3538  151.2051 C   0  0  0  0  0  0  0  0  0  0  0  0
  146.4842  133.4134  150.6181 C   0  0  0  0  0  0  0  0  0  0  0  0
  145.9532  132.2802  149.9719 C   0  0  0  0  0  0  0  0  0  0  0  0
  144.5573  132.1172  149.9285 C   0  0  0  0  0  0  0  0  0  0  0  0
  143.7554  133.1003  150.5372 C   0  0  0  0  0  0  0  0  0  0  0  0
  144.2622  134.1866  151.1576 N   0  0  0  0  0  0  0  0  0  0  0  0
  149.0645  140.7632  154.8864 C   0  0  0  0  0  0  0  0  0  0  0  0
  150.3228  140.6270  155.7627 C   0  0  2  0  0  0  0  0  0  0  0  0
  150.8739  141.9900  156.1945 C   0  0  0  0  0  0  0  0  0  0  0  0
  151.3421  139.9497  155.0306 O   0  0  0  0  0  0  0  0  0  0  0  0
  150.7159  136.6178  155.1489 H   0  0  0  0  0  0  0  0  0  0  0  0
  150.0733  137.7869  156.2911 H   0  0  0  0  0  0  0  0  0  0  0  0
  151.8147  137.5537  156.1554 H   0  0  0  0  0  0  0  0  0  0  0  0
  151.7645  138.3857  153.8162 H   0  0  0  0  0  0  0  0  0  0  0  0
  149.8881  139.3867  152.7660 H   0  0  0  0  0  0  0  0  0  0  0  0
  149.3476  137.8276  153.3354 H   0  0  0  0  0  0  0  0  0  0  0  0
  146.9418  140.5690  153.7145 H   0  0  0  0  0  0  0  0  0  0  0  0
  147.6924  139.5440  152.5239 H   0  0  0  0  0  0  0  0  0  0  0  0
  146.2815  138.2219  154.8558 H   0  0  0  0  0  0  0  0  0  0  0  0
  145.3399  138.8478  153.5213 H   0  0  0  0  0  0  0  0  0  0  0  0
  147.5684  137.1434  152.7450 H   0  0  0  0  0  0  0  0  0  0  0  0
  147.2455  135.5006  151.7229 H   0  0  0  0  0  0  0  0  0  0  0  0
  147.5546  133.5543  150.6604 H   0  0  0  0  0  0  0  0  0  0  0  0
  146.6067  131.5498  149.5179 H   0  0  0  0  0  0  0  0  0  0  0  0
  144.1125  131.2617  149.4419 H   0  0  0  0  0  0  0  0  0  0  0  0
  142.6790  133.0128  150.5262 H   0  0  0  0  0  0  0  0  0  0  0  0
  149.2778  141.4173  154.0395 H   0  0  0  0  0  0  0  0  0  0  0  0
  148.2897  141.2546  155.4734 H   0  0  0  0  0  0  0  0  0  0  0  0
  150.0811  140.0560  156.6594 H   0  0  0  0  0  0  0  0  0  0  0  0
  150.1315  142.5515  156.7623 H   0  0  0  0  0  0  0  0  0  0  0  0
  151.1607  142.5910  155.3312 H   0  0  0  0  0  0  0  0  0  0  0  0
  151.7551  141.8715  156.8255 H   0  0  0  0  0  0  0  0  0  0  0  0
  1  2  1  0  0  0  0
  1 21  1  0  0  0  0
  1 22  1  0  0  0  0
  1 23  1  0  0  0  0
  2 20  1  0  0  0  0
  2  3  1  0  0  0  0
  2 24  1  0  0  0  0
  3  4  1  0  0  0  0
  3 25  1  0  0  0  0
  3 26  1  0  0  0  0
  4  5  1  0  0  0  0
  4 17  1  0  0  0  0
  5  6  1  0  0  0  0
  5 27  1  0  0  0  0
  5 28  1  0  0  0  0
  6  7  1  0  0  0  0
  6 29  1  0  0  0  0
  6 30  1  0  0  0  0
  7  8  1  0  0  0  0
  7 31  1  0  0  0  0
  8  9  2  0  0  0  0
  8 10  1  0  0  0  0
 10 11  1  0  0  0  0
 10 32  1  0  0  0  0
 11 16  1  0  0  0  0
 11 12  2  0  0  0  0
 12 13  1  0  0  0  0
 12 33  1  0  0  0  0
 13 14  2  0  0  0  0
 13 34  1  0  0  0  0
 14 15  1  0  0  0  0
 14 35  1  0  0  0  0
 15 16  2  0  0  0  0
 15 36  1  0  0  0  0
 17 18  1  0  0  0  0
 17 37  1  0  0  0  0
 17 38  1  0  0  0  0
 18 19  1  0  0  0  0
 18 20  1  0  0  0  0
 18 39  1  0  0  0  0
 19 40  1  0  0  0  0
 19 41  1  0  0  0  0
 19 42  1  0  0  0  0
M  END
> <s_m_source_file>
AV-unprocessed.smi

> <i_m_source_file_index>
1231

> <i_lp_mmshare_version>
43012

> <i_f3d_flags>
0

> <s_epik_input>
W0NIM11bQ0BASF0xW0NIMl1OKFtDSDJdW0NASF0oTzEpW0NIM10pW0NIMl1bQ0gyXVtOSF1DKD1PKVtOSF1jMltjSF1bY0hdW2NIXVtjSF1uMg==

> <s_epik_cmdline>
J2VwaWtfcHl0aG9uJywgJy1waCcsICc3LjAnLCAnLXRuJywgJzgnLCAnLW1hJywgJzIwMCcsICctbWV0YWxfYmluZGluZycsICctaW1hZScsICc8aW5maWxlLm1hZT4nLCAnLW9tYWUnLCAnPG91dGZpbGUubWFlPic=

> <r_epik_Ionization_Penalty>
0.266037

> <r_epik_Ionization_Penalty_Charging>
0

> <r_epik_Ionization_Penalty_Neutral>
0.266037

> <r_epik_State_Penalty>
0.257924

> <r_epik_Charging_Adjusted_Penalty>
0.257924

> <i_epik_Tot_Q>
0

> <i_epik_Tot_abs_Q>
0

> <r_epik_Metal_State_Penalty>
0.257923

> <b_epik_Metal_Only>
0

> <s_lp_Force_Field>
OPLS_2005

> <r_lp_Energy>
24.2682

> <b_lp_Chiralities_Consistent>
1

> <s_lp_Variant>
AV-unprocessed.smi:1231-3

> <Gold.Version>
5.8.1

> <Gold.Id.Protein>
6NUR|6NUR_protein|mol2

> <Gold.PLP.Fitness>
44.0738

> <Gold.PLP.PLP>
-33.8230

> <Gold.PLP.part.hbond>
-3.0000

> <Gold.PLP.part.metal>
0.0000

> <Gold.PLP.part.buried>
-3.8141

> <Gold.PLP.part.nonpolar>
-28.4903

> <Gold.PLP.part.repulsive>
0.5382

> <Gold.PLP.ligand.clash>
0.0000

> <Gold.PLP.ligand.torsion>
0.8860

> <Gold.PLP.Chemscore.Hbond>
3.0000

> <Gold.PLP.Chemscore.CHOScore>
1.0000

> <Gold.PLP.Chemscore.Metal>
0.0000

> <Gold.Chemscore.Hbonds>
donor molecule, donor type, donor heavy atom, donor atom, acceptor molecule, acceptor atom, score
      L1  H     7    31       P1  7948  1.00
      L1  H    10    32       P1  7948  1.00
      P1  H  7989  7998       L1    20  1.00
      L1  C    15    36       P1 10186  1.00

> <Gold.PLP.Chemscore.Internal.Correction>
0.0227

> <Gold.Rescore>
     Score         DG    S(hbond)    S(metal)    S(lipo)     H(rot)  DE(clash)    DE(int)     intcor
     16.77     -18.83       2.09        0.00      87.74       1.52       0.05       2.01       ----

> <Gold.Chemscore.Fitness>
16.7696

> <Gold.Chemscore.DG>
-18.8341

> <Gold.Chemscore.ZeroCoef>
-5.4800

> <Gold.Chemscore.Hbond>
2.0869

> <Gold.Chemscore.Metal>
0.0000

> <Gold.Chemscore.Lipo>
87.7381

> <Gold.Chemscore.Internal_Hbond>
0.0000

> <Gold.Chemscore.DEClash>
0.0501

> <Gold.Chemscore.DEInternal>
2.0145

> <Gold.Chemscore.Rot>
1.5162

> <Gold.Chemscore.Internal.Correction>
   9.000000E+99

> <Gold.Chemscore.Hbonds>
donor molecule, donor type, donor heavy atom, donor atom, acceptor molecule, acceptor atom, score
      L1  H     7    31       P1  7948  0.98
      L1  H    10    32       P1  7948  0.99
      P1  H  7989  7998       L1    20  0.17

> <Gold.Chemscore.Hbond.Weighted>
-6.9702

> <Gold.Chemscore.Metal.Weighted>
-0.0000

> <Gold.Chemscore.Lipo.Weighted>
-10.2654

> <Gold.Chemscore.Internal_Hbond.Weighted>
0.0000

> <Gold.Chemscore.DEClash.Weighted>
0.0501

> <Gold.Chemscore.DEInternal.Weighted>
2.0145

> <Gold.Chemscore.Rot.Weighted>
3.8814

> <Gold.Chemscore.Internal.Correction.Weighted>
   9.000000E+99

> <Gold.Protein.RotatedTorsions>
[ 6907 6896 6895 6894 ] final -117.24 input  -60.11 | X-H torsion
[ 7974 7965 7964 7962 ] final  -54.83 input  175.53 | X-H torsion
[ 8008 7997 7996 7995 ] final -162.29 input   59.86 | X-H torsion
[ 10167 10162 10161 10158 ] final   47.25 input  -65.29 | X-H torsion
[ 10718 10713 10712 10709 ] final   53.44 input   66.30 | X-H torsion
[ 10763 10752 10751 10750 ] final -169.60 input  -60.55 | X-H torsion
[ 11005 11000 10999 10996 ] final  -93.69 input  -57.11 | X-H torsion

> <Gold.Protein.ActiveResidues>
 VAL166  LYS551  ARG553  GLY616  TRP617  ASP618  TYR619  PRO620  LYS621  CYS622 
 ASP623  PHE694  ASN695  SER759  ASP760  ASP761  ALA762  ILE779  LEU786  VAL792 
 PHE793  MET794  SER795  GLU796  ALA797  LYS798  CYS799  TRP800  GLU811  SER814 

> <Gold.Protein.RotatedAtoms>
  150.8121  133.8403  159.3177 H   0  0  0  0  0  0  0  0  0  0  0  0  # atno 6907 bound_to 6896
  151.6186  135.1032  160.0106 H   0  0  0  0  0  0  0  0  0  0  0  0  # atno 6908 bound_to 6896
  152.4213  133.7080  159.6519 H   0  0  0  0  0  0  0  0  0  0  0  0  # atno 6909 bound_to 6896
  145.8812  140.8143  142.9839 H   0  0  0  0  0  0  0  0  0  0  0  0  # atno 7974 bound_to 7965
  155.8047  140.0897  157.1937 H   0  0  0  0  0  0  0  0  0  0  0  0  # atno 8008 bound_to 7997
  154.3981  140.1466  156.3375 H   0  0  0  0  0  0  0  0  0  0  0  0  # atno 8009 bound_to 7997
  155.8426  140.3438  155.5644 H   0  0  0  0  0  0  0  0  0  0  0  0  # atno 8010 bound_to 7997
  140.3056  144.2882  150.6210 H   0  0  0  0  0  0  0  0  0  0  0  0  # atno 10167 bound_to 10162
  157.5167  130.8537  149.8505 H   0  0  0  0  0  0  0  0  0  0  0  0  # atno 10718 bound_to 10713
  154.6505  135.2911  154.9992 H   0  0  0  0  0  0  0  0  0  0  0  0  # atno 10763 bound_to 10752
  154.1087  135.6566  153.4885 H   0  0  0  0  0  0  0  0  0  0  0  0  # atno 10764 bound_to 10752
  153.0374  135.5260  154.7412 H   0  0  0  0  0  0  0  0  0  0  0  0  # atno 10765 bound_to 10752
  141.1490  133.7905  157.0194 H   0  0  0  0  0  0  0  0  0  0  0  0  # atno 11005 bound_to 11000
  144.6727  140.1386  143.7438 LP  0  0  0  0  0  0  0  0  0  0  0  0  # atno 17320 bound_to 7965
  145.9022  139.2437  143.1487 LP  0  0  0  0  0  0  0  0  0  0  0  0  # atno 17321 bound_to 7965
  140.5613  143.2192  151.7760 LP  0  0  0  0  0  0  0  0  0  0  0  0  # atno 17342 bound_to 10162
  139.4905  144.4344  151.9835 LP  0  0  0  0  0  0  0  0  0  0  0  0  # atno 17343 bound_to 10162
  156.0325  130.3760  150.1648 LP  0  0  0  0  0  0  0  0  0  0  0  0  # atno 17370 bound_to 10713
  156.9837  130.9872  151.3431 LP  0  0  0  0  0  0  0  0  0  0  0  0  # atno 17371 bound_to 10713
  140.0825  134.9640  157.1647 LP  0  0  0  0  0  0  0  0  0  0  0  0  # atno 17394 bound_to 11000
  140.3557  134.2550  155.7193 LP  0  0  0  0  0  0  0  0  0  0  0  0  # atno 17395 bound_to 11000

$$$$
