AV-unprocessed.smi:215|AV-procd|sdf|1653|dock9
  -GOLD-   2262020 43D 1   1.00000     0.00000
 Structure written by MMmdl.
 59 62  0  0  0  0  0  0  0  0  2 V2000
  148.1185  141.9549  153.9974 C   0  0  0  0  0  0  0  0  0  0  0  0
  148.4137  140.7024  154.8566 C   0  0  1  0  0  0  0  0  0  0  0  0
  148.5031  140.9899  156.3708 C   0  0  1  0  0  0  0  0  0  0  0  0
  149.3137  142.1913  156.7330 N   0  3  2  0  0  0  0  0  0  0  0  0
  150.7495  142.0129  156.3940 C   0  0  0  0  0  0  0  0  0  0  0  0
  149.1373  142.6403  158.1432 C   0  0  0  0  0  0  0  0  0  0  0  0
  150.2721  143.5686  158.6107 C   0  0  0  0  0  0  0  0  0  0  0  0
  149.8084  144.9003  158.6879 O   0  0  0  0  0  0  0  0  0  0  0  0
  147.0187  141.0320  156.7755 C   0  0  0  0  0  0  0  0  0  0  0  0
  146.3471  140.0162  155.8419 C   0  0  0  0  0  0  0  0  0  0  0  0
  147.3148  139.7497  154.7830 N   0  0  0  0  0  0  0  0  0  0  0  0
  146.9834  139.0464  153.6657 C   0  0  0  0  0  0  0  0  0  0  0  0
  147.2656  139.5986  152.4560 N   0  0  0  0  0  0  0  0  0  0  0  0
  146.9652  138.9554  151.3250 C   0  0  0  0  0  0  0  0  0  0  0  0
  146.3832  137.7660  151.1734 N   0  0  0  0  0  0  0  0  0  0  0  0
  146.0837  137.2043  152.3792 C   0  0  0  0  0  0  0  0  0  0  0  0
  146.3418  137.7705  153.6625 C   0  0  0  0  0  0  0  0  0  0  0  0
  145.8782  136.9066  154.6493 N   0  0  0  0  0  0  0  0  0  0  0  0
  145.3844  135.8941  153.9924 C   0  0  0  0  0  0  0  0  0  0  0  0
  145.4737  135.9850  152.6227 N   0  0  0  0  0  0  0  0  0  0  0  0
  145.0034  135.0229  151.6665 C   0  0  0  0  0  0  0  0  0  0  0  0
  144.4636  133.6669  152.1218 C   0  0  0  0  0  0  0  0  0  0  0  0
  145.0106  133.0237  150.8273 C   0  0  0  0  0  0  0  0  0  0  0  0
  145.6752  131.6493  151.0112 C   0  0  0  0  0  0  0  0  0  0  0  0
  146.5034  131.3302  149.9114 O   0  0  0  0  0  0  0  0  0  0  0  0
  144.0074  132.9482  149.6586 C   0  0  0  0  0  0  0  0  0  0  0  0
  144.6674  132.7771  148.4204 O   0  0  0  0  0  0  0  0  0  0  0  0
  145.9758  134.2313  150.7895 C   0  0  0  0  0  0  0  0  0  0  0  0
  149.3422  140.2349  154.5322 H   0  0  0  0  0  0  0  0  0  0  0  0
  148.9538  140.1226  156.8584 H   0  0  0  0  0  0  0  0  0  0  0  0
  148.9246  142.6854  154.0551 H   0  0  0  0  0  0  0  0  0  0  0  0
  147.1998  142.4542  154.3054 H   0  0  0  0  0  0  0  0  0  0  0  0
  148.0058  141.6946  152.9449 H   0  0  0  0  0  0  0  0  0  0  0  0
  151.1865  141.1991  156.9738 H   0  0  0  0  0  0  0  0  0  0  0  0
  151.3263  142.9146  156.5934 H   0  0  0  0  0  0  0  0  0  0  0  0
  150.8922  141.7831  155.3389 H   0  0  0  0  0  0  0  0  0  0  0  0
  148.2035  143.1816  158.2825 H   0  0  0  0  0  0  0  0  0  0  0  0
  149.0715  141.7671  158.7940 H   0  0  0  0  0  0  0  0  0  0  0  0
  150.6106  143.2689  159.6028 H   0  0  0  0  0  0  0  0  0  0  0  0
  151.1428  143.5215  157.9581 H   0  0  0  0  0  0  0  0  0  0  0  0
  149.0360  144.9854  158.1494 H   0  0  0  0  0  0  0  0  0  0  0  0
  146.8533  140.7777  157.8227 H   0  0  0  0  0  0  0  0  0  0  0  0
  146.6017  142.0249  156.6010 H   0  0  0  0  0  0  0  0  0  0  0  0
  146.1331  139.0876  156.3724 H   0  0  0  0  0  0  0  0  0  0  0  0
  145.4099  140.4085  155.4447 H   0  0  0  0  0  0  0  0  0  0  0  0
  147.2298  139.4668  150.4109 H   0  0  0  0  0  0  0  0  0  0  0  0
  144.9361  135.0489  154.4944 H   0  0  0  0  0  0  0  0  0  0  0  0
  144.2685  135.5305  151.0397 H   0  0  0  0  0  0  0  0  0  0  0  0
  144.9590  133.2981  153.0221 H   0  0  0  0  0  0  0  0  0  0  0  0
  143.3794  133.6270  152.2309 H   0  0  0  0  0  0  0  0  0  0  0  0
  146.2670  131.6071  151.9260 H   0  0  0  0  0  0  0  0  0  0  0  0
  144.9232  130.8645  151.0986 H   0  0  0  0  0  0  0  0  0  0  0  0
  147.4006  131.3095  150.2073 H   0  0  0  0  0  0  0  0  0  0  0  0
  143.2979  132.1315  149.7933 H   0  0  0  0  0  0  0  0  0  0  0  0
  143.4099  133.8577  149.5928 H   0  0  0  0  0  0  0  0  0  0  0  0
  145.2970  133.4743  148.3174 H   0  0  0  0  0  0  0  0  0  0  0  0
  146.1387  134.6624  149.8013 H   0  0  0  0  0  0  0  0  0  0  0  0
  146.9275  134.0291  151.2835 H   0  0  0  0  0  0  0  0  0  0  0  0
  148.9633  142.9437  156.1567 H   0  0  0  0  0  0  0  0  0  0  0  0
  1  2  1  0  0  0  0
  1 31  1  0  0  0  0
  1 32  1  0  0  0  0
  1 33  1  0  0  0  0
  2 29  1  0  0  0  0
  2 11  1  0  0  0  0
  2  3  1  0  0  0  0
  3 30  1  0  0  0  0
  3  4  1  0  0  0  0
  3  9  1  0  0  0  0
  4  5  1  0  0  0  0
  4  6  1  0  0  0  0
  4 59  1  0  0  0  0
  5 34  1  0  0  0  0
  5 35  1  0  0  0  0
  5 36  1  0  0  0  0
  6  7  1  0  0  0  0
  6 37  1  0  0  0  0
  6 38  1  0  0  0  0
  7  8  1  0  0  0  0
  7 39  1  0  0  0  0
  7 40  1  0  0  0  0
  8 41  1  0  0  0  0
  9 10  1  0  0  0  0
  9 42  1  0  0  0  0
  9 43  1  0  0  0  0
 10 11  1  0  0  0  0
 10 44  1  0  0  0  0
 10 45  1  0  0  0  0
 11 12  1  0  0  0  0
 12 17  1  0  0  0  0
 12 13  2  0  0  0  0
 13 14  1  0  0  0  0
 14 15  2  0  0  0  0
 14 46  1  0  0  0  0
 15 16  1  0  0  0  0
 16 20  1  0  0  0  0
 16 17  2  0  0  0  0
 17 18  1  0  0  0  0
 18 19  2  0  0  0  0
 19 20  1  0  0  0  0
 19 47  1  0  0  0  0
 20 21  1  0  0  0  0
 21 28  1  0  0  0  0
 21 22  1  0  0  0  0
 21 48  1  0  0  0  0
 22 23  1  0  0  0  0
 22 49  1  0  0  0  0
 22 50  1  0  0  0  0
 23 24  1  0  0  0  0
 23 26  1  0  0  0  0
 23 28  1  0  0  0  0
 24 25  1  0  0  0  0
 24 51  1  0  0  0  0
 24 52  1  0  0  0  0
 25 53  1  0  0  0  0
 26 27  1  0  0  0  0
 26 54  1  0  0  0  0
 26 55  1  0  0  0  0
 27 56  1  0  0  0  0
 28 57  1  0  0  0  0
 28 58  1  0  0  0  0
M  CHG  1   4   1
M  END
> <s_m_source_file>
AV-unprocessed.smi

> <i_m_source_file_index>
215

> <i_lp_mmshare_version>
43012

> <i_f3d_flags>
0

> <s_epik_input>
W09IXVtDSDJdW0NIMl1OKFtDSDNdKVtDQEBIXShbQ0BIXTFbQ0gzXSlbQ0gyXVtDSDJdTjFjKG5bY0hdbjIpYyhjMjMpbltjSF1uM1tDSF0oW0NIMl00KVtDSDJdQzQoW0NIMl1bT0hdKVtDSDJdW09IXQ==

> <s_epik_cmdline>
J2VwaWtfcHl0aG9uJywgJy1waCcsICc3LjAnLCAnLXRuJywgJzgnLCAnLW1hJywgJzIwMCcsICctbWV0YWxfYmluZGluZycsICctaW1hZScsICc8aW5maWxlLm1hZT4nLCAnLW9tYWUnLCAnPG91dGZpbGUubWFlPic=

> <r_lp_tautomer_probability>
1

> <r_epik_Ionization_Penalty>
0.0036237

> <r_epik_Ionization_Penalty_Charging>
0.0032725

> <r_epik_Ionization_Penalty_Neutral>
0.000351196

> <r_epik_State_Penalty>
-0

> <r_epik_Charging_Adjusted_Penalty>
0.0032725

> <i_epik_Tot_Q>
1

> <i_epik_Tot_abs_Q>
1

> <r_epik_Metal_State_Penalty>
-0

> <b_epik_Metal_Only>
0

> <s_lp_Force_Field>
OPLS_2005

> <r_lp_Energy>
66.6502

> <b_lp_Chiralities_Consistent>
1

> <s_lp_Variant>
AV-unprocessed.smi:215-4

> <Gold.Version>
5.8.1

> <Gold.Id.Protein>
6NUR|6NUR_protein|mol2

> <Gold.PLP.Fitness>
51.7987

> <Gold.PLP.PLP>
-38.7208

> <Gold.PLP.part.hbond>
-5.3331

> <Gold.PLP.part.metal>
0.0000

> <Gold.PLP.part.buried>
-4.7778

> <Gold.PLP.part.nonpolar>
-31.0961

> <Gold.PLP.part.repulsive>
4.0528

> <Gold.PLP.ligand.clash>
0.0044

> <Gold.PLP.ligand.torsion>
1.5793

> <Gold.PLP.Chemscore.Hbond>
4.9760

> <Gold.PLP.Chemscore.CHOScore>
0.1944

> <Gold.PLP.Chemscore.Metal>
0.0000

> <Gold.Chemscore.Hbonds>
donor molecule, donor type, donor heavy atom, donor atom, acceptor molecule, acceptor atom, score
      L1  H     4    59       P1  8028  2.00
      L1  H     8    41       P1  8029  1.00
      L1  H    25    53       P1 10747  1.00
      L1  H    27    56       P1  7921  1.00
      L1  C    14    46       P1  7957  0.32

> <Gold.PLP.Chemscore.Internal.Correction>
0.7296

> <Gold.Rescore>
     Score         DG    S(hbond)    S(metal)    S(lipo)     H(rot)  DE(clash)    DE(int)     intcor
     11.43     -14.91       3.67        0.00      73.96       4.48       0.62       2.86       ----

> <Gold.Chemscore.Fitness>
11.4343

> <Gold.Chemscore.DG>
-14.9095

> <Gold.Chemscore.ZeroCoef>
-5.4800

> <Gold.Chemscore.Hbond>
3.6652

> <Gold.Chemscore.Metal>
0.0000

> <Gold.Chemscore.Lipo>
73.9589

> <Gold.Chemscore.Internal_Hbond>
0.0000

> <Gold.Chemscore.DEClash>
0.6189

> <Gold.Chemscore.DEInternal>
2.8562

> <Gold.Chemscore.Rot>
4.4787

> <Gold.Chemscore.Internal.Correction>
   9.000000E+99

> <Gold.Chemscore.Hbonds>
donor molecule, donor type, donor heavy atom, donor atom, acceptor molecule, acceptor atom, score
      L1  H     4    59       P1  8028  0.97
      L1  H     8    41       P1  8029  0.48
      L1  H    25    53       P1 10747  0.98
      L1  H    27    56       P1  7921  0.34

> <Gold.Chemscore.Hbond.Weighted>
-12.2418

> <Gold.Chemscore.Metal.Weighted>
-0.0000

> <Gold.Chemscore.Lipo.Weighted>
-8.6532

> <Gold.Chemscore.Internal_Hbond.Weighted>
0.0000

> <Gold.Chemscore.DEClash.Weighted>
0.6189

> <Gold.Chemscore.DEInternal.Weighted>
2.8562

> <Gold.Chemscore.Rot.Weighted>
11.4655

> <Gold.Chemscore.Internal.Correction.Weighted>
   9.000000E+99

> <Gold.Protein.RotatedTorsions>
[ 6907 6896 6895 6894 ] final -117.94 input  -60.11 | X-H torsion
[ 7974 7965 7964 7962 ] final  149.83 input  175.53 | X-H torsion
[ 8008 7997 7996 7995 ] final -139.54 input   59.86 | X-H torsion
[ 10167 10162 10161 10158 ] final -132.71 input  -65.29 | X-H torsion
[ 10718 10713 10712 10709 ] final  112.39 input   66.30 | X-H torsion
[ 10763 10752 10751 10750 ] final  -56.75 input  -60.55 | X-H torsion
[ 11005 11000 10999 10996 ] final -125.14 input  -57.11 | X-H torsion

> <Gold.Protein.ActiveResidues>
 VAL166  LYS551  ARG553  GLY616  TRP617  ASP618  TYR619  PRO620  LYS621  CYS622 
 ASP623  PHE694  ASN695  SER759  ASP760  ASP761  ALA762  ILE779  LEU786  VAL792 
 PHE793  MET794  SER795  GLU796  ALA797  LYS798  CYS799  TRP800  GLU811  SER814 

> <Gold.Protein.RotatedAtoms>
  150.8178  133.8306  159.3152 H   0  0  0  0  0  0  0  0  0  0  0  0  # atno 6907 bound_to 6896
  151.6073  135.1041  160.0083 H   0  0  0  0  0  0  0  0  0  0  0  0  # atno 6908 bound_to 6896
  152.4269  133.7169  159.6568 H   0  0  0  0  0  0  0  0  0  0  0  0  # atno 6909 bound_to 6896
  144.8409  139.6331  143.6017 H   0  0  0  0  0  0  0  0  0  0  0  0  # atno 7974 bound_to 7965
  155.4465  140.0535  157.3005 H   0  0  0  0  0  0  0  0  0  0  0  0  # atno 8008 bound_to 7997
  154.4795  140.2075  155.9753 H   0  0  0  0  0  0  0  0  0  0  0  0  # atno 8009 bound_to 7997
  156.1184  140.3192  155.8177 H   0  0  0  0  0  0  0  0  0  0  0  0  # atno 8010 bound_to 7997
  139.9058  143.6553  152.2586 H   0  0  0  0  0  0  0  0  0  0  0  0  # atno 10167 bound_to 10162
  157.6395  131.0967  150.6888 H   0  0  0  0  0  0  0  0  0  0  0  0  # atno 10718 bound_to 10713
  154.2116  135.6393  153.5117 H   0  0  0  0  0  0  0  0  0  0  0  0  # atno 10763 bound_to 10752
  152.9989  135.5475  154.6209 H   0  0  0  0  0  0  0  0  0  0  0  0  # atno 10764 bound_to 10752
  154.5647  135.2912  155.0859 H   0  0  0  0  0  0  0  0  0  0  0  0  # atno 10765 bound_to 10752
  140.9786  134.0705  157.3791 H   0  0  0  0  0  0  0  0  0  0  0  0  # atno 11005 bound_to 11000
  146.2701  139.6615  142.9302 LP  0  0  0  0  0  0  0  0  0  0  0  0  # atno 17320 bound_to 7965
  145.4697  141.0435  143.2705 LP  0  0  0  0  0  0  0  0  0  0  0  0  # atno 17321 bound_to 7965
  139.6986  144.7638  151.1313 LP  0  0  0  0  0  0  0  0  0  0  0  0  # atno 17342 bound_to 10162
  140.7697  143.5490  150.9226 LP  0  0  0  0  0  0  0  0  0  0  0  0  # atno 17343 bound_to 10162
  156.7214  130.4681  149.5522 LP  0  0  0  0  0  0  0  0  0  0  0  0  # atno 17370 bound_to 10713
  156.1663  130.6407  151.0782 LP  0  0  0  0  0  0  0  0  0  0  0  0  # atno 17371 bound_to 10713
  139.8940  135.0134  156.6931 LP  0  0  0  0  0  0  0  0  0  0  0  0  # atno 17394 bound_to 11000
  140.7221  133.9131  155.8154 LP  0  0  0  0  0  0  0  0  0  0  0  0  # atno 17395 bound_to 11000

$$$$
