AV-unprocessed.smi:218|AV-procd|sdf|1662|dock4
  -GOLD-   2262020 63D 1   1.00000     0.00000
 Structure written by MMmdl.
 54 57  0  0  0  0  0  0  0  0  1 V2000
  152.6759  141.1860  159.2184 C   0  0  0  0  0  0  0  0  0  0  0  0
  151.6718  140.4043  158.3627 C   0  0  0  0  0  0  0  0  0  0  0  0
  151.4017  139.0106  158.9557 C   0  0  0  0  0  0  0  0  0  0  0  0
  152.2423  140.2880  157.0576 O   0  0  0  0  0  0  0  0  0  0  0  0
  151.5138  139.7237  156.0281 C   0  0  0  0  0  0  0  0  0  0  0  0
  150.2913  140.3262  155.6668 C   0  0  0  0  0  0  0  0  0  0  0  0
  149.5322  139.7617  154.6216 C   0  0  0  0  0  0  0  0  0  0  0  0
  148.2057  140.3813  154.2221 C   0  0  0  0  0  0  0  0  0  0  0  0
  147.5510  139.7138  153.1041 N   0  0  0  0  0  0  0  0  0  0  0  0
  146.7124  138.6807  153.3318 C   0  0  0  0  0  0  0  0  0  0  0  0
  146.1855  138.4647  154.5658 N   0  0  0  0  0  0  0  0  0  0  0  0
  145.3605  137.4326  154.7692 C   0  0  0  0  0  0  0  0  0  0  0  0
  144.9427  136.5130  153.8958 N   0  0  0  0  0  0  0  0  0  0  0  0
  145.4719  136.7274  152.6567 C   0  0  0  0  0  0  0  0  0  0  0  0
  146.3536  137.7824  152.2943 C   0  0  0  0  0  0  0  0  0  0  0  0
  146.6756  137.6832  150.9469 N   0  0  0  0  0  0  0  0  0  0  0  0
  146.0211  136.6274  150.5421 C   0  0  0  0  0  0  0  0  0  0  0  0
  145.2748  135.9899  151.5107 N   0  0  0  0  0  0  0  0  0  0  0  0
  144.4194  134.7701  151.3961 C   0  0  2  0  0  0  0  0  0  0  0  0
  144.8940  133.8290  152.3150 O   0  0  0  0  0  0  0  0  0  0  0  0
  145.3144  132.6358  151.6548 C   0  0  2  0  0  0  0  0  0  0  0  0
  146.5190  132.0264  152.3885 C   0  0  0  0  0  0  0  0  0  0  0  0
  147.6689  132.8141  152.1673 O   0  0  0  0  0  0  0  0  0  0  0  0
  145.6378  133.1082  150.2371 C   0  0  1  0  0  0  0  0  0  0  0  0
  145.6045  132.0706  149.2762 O   0  0  0  0  0  0  0  0  0  0  0  0
  144.5747  134.1689  149.9942 C   0  0  1  0  0  0  0  0  0  0  0  0
  143.3467  133.6316  149.5363 O   0  0  0  0  0  0  0  0  0  0  0  0
  150.0248  138.6039  153.9830 C   0  0  0  0  0  0  0  0  0  0  0  0
  151.2560  138.0732  154.4134 C   0  0  0  0  0  0  0  0  0  0  0  0
  151.9882  138.6135  155.4101 N   0  0  0  0  0  0  0  0  0  0  0  0
  143.4125  135.1122  151.6394 H   0  0  0  0  0  0  0  0  0  0  0  0
  144.4766  131.9366  151.6222 H   0  0  0  0  0  0  0  0  0  0  0  0
  146.6233  133.5763  150.2216 H   0  0  0  0  0  0  0  0  0  0  0  0
  144.9039  134.9214  149.2759 H   0  0  0  0  0  0  0  0  0  0  0  0
  152.3059  141.3205  160.2352 H   0  0  0  0  0  0  0  0  0  0  0  0
  152.8572  142.1758  158.7987 H   0  0  0  0  0  0  0  0  0  0  0  0
  153.6338  140.6683  159.2764 H   0  0  0  0  0  0  0  0  0  0  0  0
  150.7486  140.9850  158.3386 H   0  0  0  0  0  0  0  0  0  0  0  0
  151.0010  139.0882  159.9667 H   0  0  0  0  0  0  0  0  0  0  0  0
  152.3172  138.4206  159.0055 H   0  0  0  0  0  0  0  0  0  0  0  0
  150.6796  138.4505  158.3621 H   0  0  0  0  0  0  0  0  0  0  0  0
  149.9443  141.2072  156.1869 H   0  0  0  0  0  0  0  0  0  0  0  0
  147.5477  140.3604  155.0919 H   0  0  0  0  0  0  0  0  0  0  0  0
  148.3665  141.4290  153.9642 H   0  0  0  0  0  0  0  0  0  0  0  0
  147.7966  140.0422  152.1812 H   0  0  0  0  0  0  0  0  0  0  0  0
  144.9827  137.3277  155.7757 H   0  0  0  0  0  0  0  0  0  0  0  0
  146.0702  136.2850  149.5189 H   0  0  0  0  0  0  0  0  0  0  0  0
  146.3351  132.0122  153.4632 H   0  0  0  0  0  0  0  0  0  0  0  0
  146.6978  130.9971  152.0772 H   0  0  0  0  0  0  0  0  0  0  0  0
  148.2812  132.3139  151.6499 H   0  0  0  0  0  0  0  0  0  0  0  0
  146.4106  132.0987  148.7830 H   0  0  0  0  0  0  0  0  0  0  0  0
  142.6520  134.2266  149.7742 H   0  0  0  0  0  0  0  0  0  0  0  0
  149.4752  138.1251  153.1859 H   0  0  0  0  0  0  0  0  0  0  0  0
  151.6621  137.1877  153.9469 H   0  0  0  0  0  0  0  0  0  0  0  0
  1  2  1  0  0  0  0
  1 35  1  0  0  0  0
  1 36  1  0  0  0  0
  1 37  1  0  0  0  0
  2  3  1  0  0  0  0
  2  4  1  0  0  0  0
  2 38  1  0  0  0  0
  3 39  1  0  0  0  0
  3 40  1  0  0  0  0
  3 41  1  0  0  0  0
  4  5  1  0  0  0  0
  5 30  1  0  0  0  0
  5  6  2  0  0  0  0
  6  7  1  0  0  0  0
  6 42  1  0  0  0  0
  7  8  1  0  0  0  0
  7 28  2  0  0  0  0
  8  9  1  0  0  0  0
  8 43  1  0  0  0  0
  8 44  1  0  0  0  0
  9 10  1  0  0  0  0
  9 45  1  0  0  0  0
 10 15  1  0  0  0  0
 10 11  2  0  0  0  0
 11 12  1  0  0  0  0
 12 13  2  0  0  0  0
 12 46  1  0  0  0  0
 13 14  1  0  0  0  0
 14 18  1  0  0  0  0
 14 15  2  0  0  0  0
 15 16  1  0  0  0  0
 16 17  2  0  0  0  0
 17 18  1  0  0  0  0
 17 47  1  0  0  0  0
 18 19  1  0  0  0  0
 19 31  1  0  0  0  0
 19 26  1  0  0  0  0
 19 20  1  0  0  0  0
 20 21  1  0  0  0  0
 21 32  1  0  0  0  0
 21 22  1  0  0  0  0
 21 24  1  0  0  0  0
 22 23  1  0  0  0  0
 22 48  1  0  0  0  0
 22 49  1  0  0  0  0
 23 50  1  0  0  0  0
 24 33  1  0  0  0  0
 24 25  1  0  0  0  0
 24 26  1  0  0  0  0
 25 51  1  0  0  0  0
 26 34  1  0  0  0  0
 26 27  1  0  0  0  0
 27 52  1  0  0  0  0
 28 29  1  0  0  0  0
 28 53  1  0  0  0  0
 29 30  2  0  0  0  0
 29 54  1  0  0  0  0
M  END
> <s_m_source_file>
AV-unprocessed.smi

> <i_m_source_file_index>
218

> <i_lp_mmshare_version>
43012

> <i_f3d_flags>
0

> <s_epik_input>
W0NIM11bQ0hdKFtDSDNdKU9jMVtjSF1jKFtjSF1bY0hdbjEpW0NIMl1bTkhdYyhuW2NIXW4yKWMoYzIzKW5bY0hdbjNbQ0BASF00T1tDQEhdKFtDSDJdW09IXSlbQ0BASF0oW09IXSlbQ0BIXTRbT0hd

> <s_epik_cmdline>
J2VwaWtfcHl0aG9uJywgJy1waCcsICc3LjAnLCAnLXRuJywgJzgnLCAnLW1hJywgJzIwMCcsICctbWV0YWxfYmluZGluZycsICctaW1hZScsICc8aW5maWxlLm1hZT4nLCAnLW9tYWUnLCAnPG91dGZpbGUubWFlPic=

> <r_lp_tautomer_probability>
1

> <r_epik_Ionization_Penalty>
0.00457014

> <r_epik_Ionization_Penalty_Charging>
0

> <r_epik_Ionization_Penalty_Neutral>
0.00457014

> <r_epik_State_Penalty>
-0

> <r_epik_Charging_Adjusted_Penalty>
0

> <i_epik_Tot_Q>
0

> <i_epik_Tot_abs_Q>
0

> <r_epik_Metal_State_Penalty>
-0

> <b_epik_Metal_Only>
0

> <s_epik_Chemistry_Notes>
This compound contains an acetal/aminal-like group ( X-CH(R)-Y where X, Y are N, S, or O) that may be acid/base labile, releasing an aldehyde.

> <s_lp_Force_Field>
OPLS_2005

> <r_lp_Energy>
38.2737

> <b_lp_Chiralities_Consistent>
1

> <s_lp_Variant>
AV-unprocessed.smi:218-1

> <Gold.Version>
5.8.1

> <Gold.Id.Protein>
6NUR|6NUR_protein|mol2

> <Gold.PLP.Fitness>
60.8561

> <Gold.PLP.PLP>
-42.3926

> <Gold.PLP.part.hbond>
-4.5549

> <Gold.PLP.part.metal>
0.0000

> <Gold.PLP.part.buried>
-1.3859

> <Gold.PLP.part.nonpolar>
-38.9767

> <Gold.PLP.part.repulsive>
2.6934

> <Gold.PLP.ligand.clash>
0.0000

> <Gold.PLP.ligand.torsion>
0.4147

> <Gold.PLP.Chemscore.Hbond>
4.3760

> <Gold.PLP.Chemscore.CHOScore>
1.9907

> <Gold.PLP.Chemscore.Metal>
0.0000

> <Gold.Chemscore.Hbonds>
donor molecule, donor type, donor heavy atom, donor atom, acceptor molecule, acceptor atom, score
      L1  H     9    45       P1  7957  0.61
      L1  H    23    50       P1 10747  0.80
      L1  H    27    52       P1 10186  0.80
      P1  H  7954  7966       L1    16  1.00
      P1  H  7997  8010       L1     4  0.48
      L1  C    17    47       P1  7921  1.00
      L1  C    29    54       P1  7949  0.39

> <Gold.PLP.Chemscore.Internal.Correction>
0.1927

> <Gold.Rescore>
     Score         DG    S(hbond)    S(metal)    S(lipo)     H(rot)  DE(clash)    DE(int)     intcor
     12.63     -16.63       3.86        0.00      92.39       4.90       3.57       0.43       ----

> <Gold.Chemscore.Fitness>
12.6314

> <Gold.Chemscore.DG>
-16.6340

> <Gold.Chemscore.ZeroCoef>
-5.4800

> <Gold.Chemscore.Hbond>
3.8612

> <Gold.Chemscore.Metal>
0.0000

> <Gold.Chemscore.Lipo>
92.3859

> <Gold.Chemscore.Internal_Hbond>
0.0000

> <Gold.Chemscore.DEClash>
3.5726

> <Gold.Chemscore.DEInternal>
0.4301

> <Gold.Chemscore.Rot>
4.9029

> <Gold.Chemscore.Internal.Correction>
   9.000000E+99

> <Gold.Chemscore.Hbonds>
donor molecule, donor type, donor heavy atom, donor atom, acceptor molecule, acceptor atom, score
      L1  H     9    45       P1  7957  0.58
      L1  H    23    50       P1 10747  0.78
      L1  H    27    52       P1 10186  0.79
      P1  H  7954  7966       L1    16  0.65
      P1  H  7997  8010       L1     4  0.21

> <Gold.Chemscore.Hbond.Weighted>
-12.8964

> <Gold.Chemscore.Metal.Weighted>
-0.0000

> <Gold.Chemscore.Lipo.Weighted>
-10.8092

> <Gold.Chemscore.Internal_Hbond.Weighted>
0.0000

> <Gold.Chemscore.DEClash.Weighted>
3.5726

> <Gold.Chemscore.DEInternal.Weighted>
0.4301

> <Gold.Chemscore.Rot.Weighted>
12.5515

> <Gold.Chemscore.Internal.Correction.Weighted>
   9.000000E+99

> <Gold.Protein.RotatedTorsions>
[ 6907 6896 6895 6894 ] final -109.39 input  -60.11 | X-H torsion
[ 7974 7965 7964 7962 ] final  114.82 input  175.53 | X-H torsion
[ 8008 7997 7996 7995 ] final   78.19 input   59.86 | X-H torsion
[ 10167 10162 10161 10158 ] final  163.79 input  -65.29 | X-H torsion
[ 10718 10713 10712 10709 ] final  -10.35 input   66.30 | X-H torsion
[ 10763 10752 10751 10750 ] final -176.20 input  -60.55 | X-H torsion
[ 11005 11000 10999 10996 ] final   25.08 input  -57.11 | X-H torsion

> <Gold.Protein.ActiveResidues>
 VAL166  LYS551  ARG553  GLY616  TRP617  ASP618  TYR619  PRO620  LYS621  CYS622 
 ASP623  PHE694  ASN695  SER759  ASP760  ASP761  ALA762  ILE779  LEU786  VAL792 
 PHE793  MET794  SER795  GLU796  ALA797  LYS798  CYS799  TRP800  GLU811  SER814 

> <Gold.Protein.RotatedAtoms>
  150.7559  133.9536  159.3493 H   0  0  0  0  0  0  0  0  0  0  0  0  # atno 6907 bound_to 6896
  151.7456  135.0842  160.0332 H   0  0  0  0  0  0  0  0  0  0  0  0  # atno 6908 bound_to 6896
  152.3500  133.6131  159.5974 H   0  0  0  0  0  0  0  0  0  0  0  0  # atno 6909 bound_to 6896
  145.1997  139.2958  143.4325 H   0  0  0  0  0  0  0  0  0  0  0  0  # atno 7974 bound_to 7965
  155.8523  140.3457  155.5701 H   0  0  0  0  0  0  0  0  0  0  0  0  # atno 8008 bound_to 7997
  155.8024  140.0887  157.1969 H   0  0  0  0  0  0  0  0  0  0  0  0  # atno 8009 bound_to 7997
  154.4008  140.1463  156.3278 H   0  0  0  0  0  0  0  0  0  0  0  0  # atno 8010 bound_to 7997
  139.4879  144.4301  151.9080 H   0  0  0  0  0  0  0  0  0  0  0  0  # atno 10167 bound_to 10162
  156.6748  130.5020  149.5989 H   0  0  0  0  0  0  0  0  0  0  0  0  # atno 10718 bound_to 10713
  154.5752  135.2831  155.0788 H   0  0  0  0  0  0  0  0  0  0  0  0  # atno 10763 bound_to 10752
  154.2145  135.6402  153.5129 H   0  0  0  0  0  0  0  0  0  0  0  0  # atno 10764 bound_to 10752
  153.0070  135.5500  154.6388 H   0  0  0  0  0  0  0  0  0  0  0  0  # atno 10765 bound_to 10752
  140.3517  134.2222  155.7679 H   0  0  0  0  0  0  0  0  0  0  0  0  # atno 11005 bound_to 11000
  146.3420  140.2237  142.8592 LP  0  0  0  0  0  0  0  0  0  0  0  0  # atno 17320 bound_to 7965
  144.9960  140.8589  143.5310 LP  0  0  0  0  0  0  0  0  0  0  0  0  # atno 17321 bound_to 7965
  140.3749  144.2809  150.5915 LP  0  0  0  0  0  0  0  0  0  0  0  0  # atno 17342 bound_to 10162
  140.5286  143.2248  151.8275 LP  0  0  0  0  0  0  0  0  0  0  0  0  # atno 17343 bound_to 10162
  156.1912  130.6561  151.1063 LP  0  0  0  0  0  0  0  0  0  0  0  0  # atno 17370 bound_to 10713
  157.7064  131.0754  150.6651 LP  0  0  0  0  0  0  0  0  0  0  0  0  # atno 17371 bound_to 10713
  141.2010  133.7973  157.0461 LP  0  0  0  0  0  0  0  0  0  0  0  0  # atno 17394 bound_to 11000
  140.0698  134.9709  157.1447 LP  0  0  0  0  0  0  0  0  0  0  0  0  # atno 17395 bound_to 11000

$$$$
