AV-unprocessed.smi:72|AV-procd|sdf|674|dock5
  -GOLD-   2262016583D 1   1.00000     0.00000
 Structure written by MMmdl.
 29 30  0  0  0  0  0  0  0  0  1 V2000
  147.9486  142.8853  158.2310 N   0  0  0  0  0  0  0  0  0  0  0  0
  148.2862  141.9053  157.4711 C   0  0  0  0  0  0  0  0  0  0  0  0
  148.3700  140.5631  157.8680 N   0  0  0  0  0  0  0  0  0  0  0  0
  148.6878  139.6706  156.9819 C   0  0  0  0  0  0  0  0  0  0  0  0
  148.9146  140.0054  155.5801 N   0  0  0  0  0  0  0  0  0  0  0  0
  149.3279  138.9505  154.5614 C   0  0  1  0  0  0  0  0  0  0  0  0
  150.5832  139.2753  154.0273 O   0  0  0  0  0  0  0  0  0  0  0  0
  151.6153  138.4384  154.5472 C   0  0  1  0  0  0  0  0  0  0  0  0
  152.2086  139.0346  155.8445 C   0  0  0  0  0  0  0  0  0  0  0  0
  153.5590  138.6455  155.9778 O   0  0  0  0  0  0  0  0  0  0  0  0
  150.8671  137.1132  154.7231 C   0  0  1  0  0  0  0  0  0  0  0  0
  151.4824  136.2442  155.6539 O   0  0  0  0  0  0  0  0  0  0  0  0
  149.4791  137.5403  155.1831 C   0  0  2  0  0  0  0  0  0  0  0  0
  148.5211  136.6341  154.6743 O   0  0  0  0  0  0  0  0  0  0  0  0
  148.9413  141.3715  155.1954 C   0  0  0  0  0  0  0  0  0  0  0  0
  149.2599  141.7376  154.0647 O   0  0  0  0  0  0  0  0  0  0  0  0
  148.5941  142.2592  156.1520 N   0  0  0  0  0  0  0  0  0  0  0  0
  148.5685  139.0158  153.7803 H   0  0  0  0  0  0  0  0  0  0  0  0
  152.4089  138.3218  153.8080 H   0  0  0  0  0  0  0  0  0  0  0  0
  150.8091  136.6169  153.7526 H   0  0  0  0  0  0  0  0  0  0  0  0
  149.4343  137.5961  156.2719 H   0  0  0  0  0  0  0  0  0  0  0  0
  147.9689  143.7551  157.7192 H   0  0  0  0  0  0  0  0  0  0  0  0
  148.8009  138.6174  157.2392 H   0  0  0  0  0  0  0  0  0  0  0  0
  152.1144  140.1185  155.8894 H   0  0  0  0  0  0  0  0  0  0  0  0
  151.6896  138.6403  156.7178 H   0  0  0  0  0  0  0  0  0  0  0  0
  153.5933  137.7058  156.0722 H   0  0  0  0  0  0  0  0  0  0  0  0
  151.7148  136.7461  156.4204 H   0  0  0  0  0  0  0  0  0  0  0  0
  148.6694  136.5356  153.7457 H   0  0  0  0  0  0  0  0  0  0  0  0
  148.5798  143.2358  155.8968 H   0  0  0  0  0  0  0  0  0  0  0  0
  1  2  2  0  0  0  0
  1 22  1  0  0  0  0
  2 17  1  0  0  0  0
  2  3  1  0  0  0  0
  3  4  2  0  0  0  0
  4  5  1  0  0  0  0
  4 23  1  0  0  0  0
  5  6  1  0  0  0  0
  5 15  1  0  0  0  0
  6 18  1  0  0  0  0
  6 13  1  0  0  0  0
  6  7  1  0  0  0  0
  7  8  1  0  0  0  0
  8 19  1  0  0  0  0
  8  9  1  0  0  0  0
  8 11  1  0  0  0  0
  9 10  1  0  0  0  0
  9 24  1  0  0  0  0
  9 25  1  0  0  0  0
 10 26  1  0  0  0  0
 11 20  1  0  0  0  0
 11 12  1  0  0  0  0
 11 13  1  0  0  0  0
 12 27  1  0  0  0  0
 13 21  1  0  0  0  0
 13 14  1  0  0  0  0
 14 28  1  0  0  0  0
 15 16  2  0  0  0  0
 15 17  1  0  0  0  0
 17 29  1  0  0  0  0
M  END
> <s_m_source_file>
AV-unprocessed.smi

> <i_m_source_file_index>
72

> <i_lp_mmshare_version>
43012

> <i_f3d_flags>
0

> <s_epik_input>
W05IMl1jMW5bY0hdbihjKD1PKW4xKVtDQEBIXTJPW0NASF0oW0NIMl1bT0hdKVtDQEBIXShbT0hdKVtDQEhdMltPSF0=

> <s_epik_cmdline>
J2VwaWtfcHl0aG9uJywgJy1waCcsICc3LjAnLCAnLXRuJywgJzgnLCAnLW1hJywgJzIwMCcsICctbWV0YWxfYmluZGluZycsICctaW1hZScsICc8aW5maWxlLm1hZT4nLCAnLW9tYWUnLCAnPG91dGZpbGUubWFlPic=

> <r_lp_tautomer_probability>
7.17554e-07

> <r_epik_Ionization_Penalty>
0.0066451

> <r_epik_Ionization_Penalty_Charging>
0.00663793

> <r_epik_Ionization_Penalty_Neutral>
7.17052e-06

> <r_epik_State_Penalty>
0.419231

> <r_epik_Charging_Adjusted_Penalty>
0.425868

> <i_epik_Tot_Q>
0

> <i_epik_Tot_abs_Q>
0

> <r_epik_Metal_State_Penalty>
1.44144

> <b_epik_Metal_Only>
0

> <s_epik_Chemistry_Notes>
This compound contains an acetal/aminal-like group ( X-CH(R)-Y where X, Y are N, S, or O) that may be acid/base labile, releasing an aldehyde.

> <s_lp_Force_Field>
OPLS_2005

> <r_lp_Energy>
41.469

> <b_lp_Chiralities_Consistent>
1

> <s_lp_Variant>
AV-unprocessed.smi:72-12

> <Gold.Version>
5.8.1

> <Gold.Id.Protein>
6NUR|6NUR_protein|mol2

> <Gold.PLP.Fitness>
39.6463

> <Gold.PLP.PLP>
-23.8024

> <Gold.PLP.part.hbond>
-7.6310

> <Gold.PLP.part.metal>
0.0000

> <Gold.PLP.part.buried>
-4.0419

> <Gold.PLP.part.nonpolar>
-13.6026

> <Gold.PLP.part.repulsive>
0.6496

> <Gold.PLP.ligand.clash>
0.0000

> <Gold.PLP.ligand.torsion>
0.4884

> <Gold.PLP.Chemscore.Hbond>
5.5740

> <Gold.PLP.Chemscore.CHOScore>
0.0000

> <Gold.PLP.Chemscore.Metal>
0.0000

> <Gold.Chemscore.Hbonds>
donor molecule, donor type, donor heavy atom, donor atom, acceptor molecule, acceptor atom, score
      L1  H     1    22       P1  8029  0.19
      L1  H    14    28       P1  7948  1.00
      L1  H    17    29       P1  8028  0.99
      P1  H  7989  7998       L1     7  1.00
      P1  H  7997  8009       L1    10  0.82
      P1  H  8011  8017       L1    16  0.54
      P1  H 10752 10765       L1    12  1.00

> <Gold.PLP.Chemscore.Internal.Correction>
0.0987

> <Gold.Rescore>
     Score         DG    S(hbond)    S(metal)    S(lipo)     H(rot)  DE(clash)    DE(int)     intcor
     10.06     -12.36       4.24        0.00      26.69       4.06       0.34       1.95       ----

> <Gold.Chemscore.Fitness>
10.0617

> <Gold.Chemscore.DG>
-12.3589

> <Gold.Chemscore.ZeroCoef>
-5.4800

> <Gold.Chemscore.Hbond>
4.2366

> <Gold.Chemscore.Metal>
0.0000

> <Gold.Chemscore.Lipo>
26.6867

> <Gold.Chemscore.Internal_Hbond>
0.0000

> <Gold.Chemscore.DEClash>
0.3428

> <Gold.Chemscore.DEInternal>
1.9544

> <Gold.Chemscore.Rot>
4.0600

> <Gold.Chemscore.Internal.Correction>
   9.000000E+99

> <Gold.Chemscore.Hbonds>
donor molecule, donor type, donor heavy atom, donor atom, acceptor molecule, acceptor atom, score
      L1  H    14    28       P1  7948  1.00
      L1  H    17    29       P1  8028  0.91
      P1  H  7989  7998       L1     7  0.29
      P1  H  7997  8009       L1    10  0.36
      P1  H  8011  8017       L1    16  0.54
      P1  H 10752 10765       L1    12  0.47

> <Gold.Chemscore.Hbond.Weighted>
-14.1501

> <Gold.Chemscore.Metal.Weighted>
-0.0000

> <Gold.Chemscore.Lipo.Weighted>
-3.1223

> <Gold.Chemscore.Internal_Hbond.Weighted>
0.0000

> <Gold.Chemscore.DEClash.Weighted>
0.3428

> <Gold.Chemscore.DEInternal.Weighted>
1.9544

> <Gold.Chemscore.Rot.Weighted>
10.3936

> <Gold.Chemscore.Internal.Correction.Weighted>
   9.000000E+99

> <Gold.Protein.RotatedTorsions>
[ 6907 6896 6895 6894 ] final -163.81 input  -60.11 | X-H torsion
[ 7974 7965 7964 7962 ] final  129.50 input  175.53 | X-H torsion
[ 8008 7997 7996 7995 ] final -162.16 input   59.86 | X-H torsion
[ 10167 10162 10161 10158 ] final   54.93 input  -65.29 | X-H torsion
[ 10718 10713 10712 10709 ] final  -90.65 input   66.30 | X-H torsion
[ 10763 10752 10751 10750 ] final -167.09 input  -60.55 | X-H torsion
[ 11005 11000 10999 10996 ] final  -56.06 input  -57.11 | X-H torsion

> <Gold.Protein.ActiveResidues>
 VAL166  LYS551  ARG553  GLY616  TRP617  ASP618  TYR619  PRO620  LYS621  CYS622 
 ASP623  PHE694  ASN695  SER759  ASP760  ASP761  ALA762  ILE779  LEU786  VAL792 
 PHE793  MET794  SER795  GLU796  ALA797  LYS798  CYS799  TRP800  GLU811  SER814 

> <Gold.Protein.RotatedAtoms>
  151.4019  133.3755  159.2732 H   0  0  0  0  0  0  0  0  0  0  0  0  # atno 6907 bound_to 6896
  150.9427  134.8836  159.7633 H   0  0  0  0  0  0  0  0  0  0  0  0  # atno 6908 bound_to 6896
  152.5078  134.3970  159.9455 H   0  0  0  0  0  0  0  0  0  0  0  0  # atno 6909 bound_to 6896
  145.0280  139.4071  143.5164 H   0  0  0  0  0  0  0  0  0  0  0  0  # atno 7974 bound_to 7965
  155.8027  140.0894  157.1948 H   0  0  0  0  0  0  0  0  0  0  0  0  # atno 8008 bound_to 7997
  154.3981  140.1469  156.3352 H   0  0  0  0  0  0  0  0  0  0  0  0  # atno 8009 bound_to 7997
  155.8446  140.3437  155.5656 H   0  0  0  0  0  0  0  0  0  0  0  0  # atno 8010 bound_to 7997
  140.2249  144.3749  150.6436 H   0  0  0  0  0  0  0  0  0  0  0  0  # atno 10167 bound_to 10162
  155.9989  130.4918  150.5355 H   0  0  0  0  0  0  0  0  0  0  0  0  # atno 10718 bound_to 10713
  154.6767  135.2948  154.9668 H   0  0  0  0  0  0  0  0  0  0  0  0  # atno 10763 bound_to 10752
  154.0677  135.6622  153.4824 H   0  0  0  0  0  0  0  0  0  0  0  0  # atno 10764 bound_to 10752
  153.0521  135.5167  154.7790 H   0  0  0  0  0  0  0  0  0  0  0  0  # atno 10765 bound_to 10752
  141.1103  133.6611  156.4562 H   0  0  0  0  0  0  0  0  0  0  0  0  # atno 11005 bound_to 11000
  146.3495  139.9815  142.8695 LP  0  0  0  0  0  0  0  0  0  0  0  0  # atno 17320 bound_to 7965
  145.1808  140.9766  143.4267 LP  0  0  0  0  0  0  0  0  0  0  0  0  # atno 17321 bound_to 7965
  140.6228  143.2178  151.6659 LP  0  0  0  0  0  0  0  0  0  0  0  0  # atno 17342 bound_to 10162
  139.5131  144.3455  152.0701 LP  0  0  0  0  0  0  0  0  0  0  0  0  # atno 17343 bound_to 10162
  157.3299  131.0697  151.1869 LP  0  0  0  0  0  0  0  0  0  0  0  0  # atno 17370 bound_to 10713
  157.2753  130.6724  149.6039 LP  0  0  0  0  0  0  0  0  0  0  0  0  # atno 17371 bound_to 10713
  140.4794  134.6679  157.5164 LP  0  0  0  0  0  0  0  0  0  0  0  0  # atno 17394 bound_to 11000
  139.9993  134.6862  155.9557 LP  0  0  0  0  0  0  0  0  0  0  0  0  # atno 17395 bound_to 11000

$$$$
