AV-unprocessed.smi:2168|AV-procd|sdf|8818|dock4
  -GOLD-   2272012 13D 1   1.00000     0.00000
 Structure written by MMmdl.
 46 47  0  0  0  0  0  0  0  0  1 V2000
  137.8057  140.6824  153.2026 C   0  0  0  0  0  0  0  0  0  0  0  0
  138.8512  140.2265  154.2314 C   0  0  0  0  0  0  0  0  0  0  0  0
  140.0492  141.0854  154.2235 N   0  0  0  0  0  0  0  0  0  0  0  0
  139.7830  142.5354  154.1492 C   0  0  0  0  0  0  0  0  0  0  0  0
  139.1000  143.0383  155.4287 C   0  0  0  0  0  0  0  0  0  0  0  0
  141.4261  140.5459  155.1333 S   0  0  0  0  0  0  0  0  0  0  0  0
  142.4309  141.6201  155.1530 O   0  0  0  0  0  0  0  0  0  0  0  0
  140.9641  139.9263  156.3850 O   0  0  0  0  0  0  0  0  0  0  0  0
  141.9919  139.2939  154.0961 N   0  0  0  0  0  0  0  0  0  0  0  0
  141.1026  138.2256  153.6528 C   0  0  0  0  0  0  0  0  0  0  0  0
  141.8720  137.0096  153.1796 C   0  0  0  0  0  0  0  0  0  0  0  0
  141.4812  135.7141  153.5686 C   0  0  0  0  0  0  0  0  0  0  0  0
  142.2366  134.6126  153.1237 C   0  0  0  0  0  0  0  0  0  0  0  0
  143.3677  134.8361  152.3021 C   0  0  0  0  0  0  0  0  0  0  0  0
  144.1462  133.7469  151.8523 N   0  0  0  0  0  0  0  0  0  0  0  0
  145.4529  134.0889  151.2946 C   0  0  0  0  0  0  0  0  0  0  0  0
  146.3147  132.8248  151.1319 C   0  0  0  0  0  0  0  0  0  0  0  0
  145.6158  131.8615  150.3511 O   0  0  0  0  0  0  0  0  0  0  0  0
  144.4001  131.4593  150.9726 C   0  0  0  0  0  0  0  0  0  0  0  0
  143.4697  132.6743  151.1248 C   0  0  0  0  0  0  0  0  0  0  0  0
  143.7321  136.0869  151.9231 N   0  0  0  0  0  0  0  0  0  0  0  0
  143.0053  137.1400  152.3530 C   0  0  0  0  0  0  0  0  0  0  0  0
  136.9659  139.9879  153.1765 H   0  0  0  0  0  0  0  0  0  0  0  0
  138.2331  140.7218  152.2003 H   0  0  0  0  0  0  0  0  0  0  0  0
  137.4032  141.6677  153.4371 H   0  0  0  0  0  0  0  0  0  0  0  0
  138.4247  140.2070  155.2348 H   0  0  0  0  0  0  0  0  0  0  0  0
  139.1399  139.2014  153.9997 H   0  0  0  0  0  0  0  0  0  0  0  0
  140.7087  143.0856  153.9776 H   0  0  0  0  0  0  0  0  0  0  0  0
  139.1486  142.7452  153.2876 H   0  0  0  0  0  0  0  0  0  0  0  0
  138.9106  144.1100  155.3675 H   0  0  0  0  0  0  0  0  0  0  0  0
  139.7213  142.8632  156.3067 H   0  0  0  0  0  0  0  0  0  0  0  0
  138.1425  142.5459  155.5964 H   0  0  0  0  0  0  0  0  0  0  0  0
  142.7401  139.5565  153.4551 H   0  0  0  0  0  0  0  0  0  0  0  0
  140.4376  137.9498  154.4718 H   0  0  0  0  0  0  0  0  0  0  0  0
  140.4732  138.5971  152.8431 H   0  0  0  0  0  0  0  0  0  0  0  0
  140.6172  135.5649  154.1995 H   0  0  0  0  0  0  0  0  0  0  0  0
  141.9337  133.6158  153.4071 H   0  0  0  0  0  0  0  0  0  0  0  0
  145.3064  134.5671  150.3253 H   0  0  0  0  0  0  0  0  0  0  0  0
  145.9875  134.8013  151.9210 H   0  0  0  0  0  0  0  0  0  0  0  0
  147.2524  133.0717  150.6341 H   0  0  0  0  0  0  0  0  0  0  0  0
  146.5725  132.4027  152.1046 H   0  0  0  0  0  0  0  0  0  0  0  0
  143.9227  130.6958  150.3584 H   0  0  0  0  0  0  0  0  0  0  0  0
  144.6077  131.0045  151.9425 H   0  0  0  0  0  0  0  0  0  0  0  0
  142.5648  132.3710  151.6530 H   0  0  0  0  0  0  0  0  0  0  0  0
  143.1681  133.0385  150.1415 H   0  0  0  0  0  0  0  0  0  0  0  0
  143.3444  138.1139  152.0319 H   0  0  0  0  0  0  0  0  0  0  0  0
  1  2  1  0  0  0  0
  1 23  1  0  0  0  0
  1 24  1  0  0  0  0
  1 25  1  0  0  0  0
  2  3  1  0  0  0  0
  2 26  1  0  0  0  0
  2 27  1  0  0  0  0
  3  4  1  0  0  0  0
  3  6  1  0  0  0  0
  4  5  1  0  0  0  0
  4 28  1  0  0  0  0
  4 29  1  0  0  0  0
  5 30  1  0  0  0  0
  5 31  1  0  0  0  0
  5 32  1  0  0  0  0
  6  7  2  0  0  0  0
  6  8  2  0  0  0  0
  6  9  1  0  0  0  0
  9 10  1  0  0  0  0
  9 33  1  0  0  0  0
 10 11  1  0  0  0  0
 10 34  1  0  0  0  0
 10 35  1  0  0  0  0
 11 22  1  0  0  0  0
 11 12  2  0  0  0  0
 12 13  1  0  0  0  0
 12 36  1  0  0  0  0
 13 14  2  0  0  0  0
 13 37  1  0  0  0  0
 14 15  1  0  0  0  0
 14 21  1  0  0  0  0
 15 20  1  0  0  0  0
 15 16  1  0  0  0  0
 16 17  1  0  0  0  0
 16 38  1  0  0  0  0
 16 39  1  0  0  0  0
 17 18  1  0  0  0  0
 17 40  1  0  0  0  0
 17 41  1  0  0  0  0
 18 19  1  0  0  0  0
 19 20  1  0  0  0  0
 19 42  1  0  0  0  0
 19 43  1  0  0  0  0
 20 44  1  0  0  0  0
 20 45  1  0  0  0  0
 21 22  2  0  0  0  0
 22 46  1  0  0  0  0
M  END
> <s_m_source_file>
AV-unprocessed.smi

> <i_m_source_file_index>
2168

> <i_lp_mmshare_version>
43012

> <i_f3d_flags>
0

> <s_epik_input>
W0NIM11bQ0gyXU4oW0NIMl1bQ0gzXSlTKD1PKSg9TylbTkhdW0NIMl1jMVtjSF1bY0hdYyhuW2NIXTEpTjJbQ0gyXVtDSDJdT1tDSDJdW0NIMl0y

> <s_epik_cmdline>
J2VwaWtfcHl0aG9uJywgJy1waCcsICc3LjAnLCAnLXRuJywgJzgnLCAnLW1hJywgJzIwMCcsICctbWV0YWxfYmluZGluZycsICctaW1hZScsICc8aW5maWxlLm1hZT4nLCAnLW9tYWUnLCAnPG91dGZpbGUubWFlPic=

> <r_lp_tautomer_probability>
1

> <r_epik_Ionization_Penalty>
0.0173889

> <r_epik_Ionization_Penalty_Charging>
0

> <r_epik_Ionization_Penalty_Neutral>
0.0173889

> <r_epik_State_Penalty>
0.0135122

> <r_epik_Charging_Adjusted_Penalty>
0.0135122

> <i_epik_Tot_Q>
0

> <i_epik_Tot_abs_Q>
0

> <r_epik_Metal_State_Penalty>
0.283451

> <b_epik_Metal_Only>
0

> <s_lp_Force_Field>
OPLS_2005

> <r_lp_Energy>
21.8709

> <b_lp_Chiralities_Consistent>
1

> <s_lp_Variant>
AV-unprocessed.smi:2168-1

> <Gold.Version>
5.8.1

> <Gold.Id.Protein>
6NUR|6NUR_protein|mol2

> <Gold.PLP.Fitness>
41.4535

> <Gold.PLP.PLP>
-34.2787

> <Gold.PLP.part.hbond>
-1.0000

> <Gold.PLP.part.metal>
0.0000

> <Gold.PLP.part.buried>
-6.7969

> <Gold.PLP.part.nonpolar>
-27.0090

> <Gold.PLP.part.repulsive>
0.5912

> <Gold.PLP.ligand.clash>
0.0000

> <Gold.PLP.ligand.torsion>
2.4764

> <Gold.PLP.Chemscore.Hbond>
1.0000

> <Gold.PLP.Chemscore.CHOScore>
1.7099

> <Gold.PLP.Chemscore.Metal>
0.0000

> <Gold.Chemscore.Hbonds>
donor molecule, donor type, donor heavy atom, donor atom, acceptor molecule, acceptor atom, score
      L1  H     9    33       P1 10175  1.00
      L1  C    22    46       P1 10171  0.86
      L1  C    22    46       P1 10175  1.00

> <Gold.PLP.Chemscore.Internal.Correction>
3.9979

> <Gold.Rescore>
     Score         DG    S(hbond)    S(metal)    S(lipo)     H(rot)  DE(clash)    DE(int)     intcor
     10.60     -13.11       1.00        0.00      74.26       1.72       0.00       2.51       ----

> <Gold.Chemscore.Fitness>
10.6013

> <Gold.Chemscore.DG>
-13.1088

> <Gold.Chemscore.ZeroCoef>
-5.4800

> <Gold.Chemscore.Hbond>
0.9992

> <Gold.Chemscore.Metal>
0.0000

> <Gold.Chemscore.Lipo>
74.2630

> <Gold.Chemscore.Internal_Hbond>
0.0000

> <Gold.Chemscore.DEClash>
0.0021

> <Gold.Chemscore.DEInternal>
2.5053

> <Gold.Chemscore.Rot>
1.7177

> <Gold.Chemscore.Internal.Correction>
   9.000000E+99

> <Gold.Chemscore.Hbonds>
donor molecule, donor type, donor heavy atom, donor atom, acceptor molecule, acceptor atom, score
      L1  H     9    33       P1 10175  0.97

> <Gold.Chemscore.Hbond.Weighted>
-3.3374

> <Gold.Chemscore.Metal.Weighted>
-0.0000

> <Gold.Chemscore.Lipo.Weighted>
-8.6888

> <Gold.Chemscore.Internal_Hbond.Weighted>
0.0000

> <Gold.Chemscore.DEClash.Weighted>
0.0021

> <Gold.Chemscore.DEInternal.Weighted>
2.5053

> <Gold.Chemscore.Rot.Weighted>
4.3974

> <Gold.Chemscore.Internal.Correction.Weighted>
   9.000000E+99

> <Gold.Protein.RotatedTorsions>
[ 6907 6896 6895 6894 ] final  100.18 input  -60.11 | X-H torsion
[ 7974 7965 7964 7962 ] final   94.54 input  175.53 | X-H torsion
[ 8008 7997 7996 7995 ] final   -9.95 input   59.86 | X-H torsion
[ 10167 10162 10161 10158 ] final -129.09 input  -65.29 | X-H torsion
[ 10718 10713 10712 10709 ] final  -10.31 input   66.30 | X-H torsion
[ 10763 10752 10751 10750 ] final   59.96 input  -60.55 | X-H torsion
[ 11005 11000 10999 10996 ] final  133.28 input  -57.11 | X-H torsion

> <Gold.Protein.ActiveResidues>
 VAL166  LYS551  ARG553  GLY616  TRP617  ASP618  TYR619  PRO620  LYS621  CYS622 
 ASP623  PHE694  ASN695  SER759  ASP760  ASP761  ALA762  ILE779  LEU786  VAL792 
 PHE793  MET794  SER795  GLU796  ALA797  LYS798  CYS799  TRP800  GLU811  SER814 

> <Gold.Protein.RotatedAtoms>
  152.5377  134.0316  159.8027 H   0  0  0  0  0  0  0  0  0  0  0  0  # atno 6907 bound_to 6896
  151.0486  133.5636  159.2651 H   0  0  0  0  0  0  0  0  0  0  0  0  # atno 6908 bound_to 6896
  151.2578  135.0651  159.9140 H   0  0  0  0  0  0  0  0  0  0  0  0  # atno 6909 bound_to 6896
  145.4642  139.2285  143.2970 H   0  0  0  0  0  0  0  0  0  0  0  0  # atno 7974 bound_to 7965
  154.5600  140.2342  155.8351 H   0  0  0  0  0  0  0  0  0  0  0  0  # atno 8008 bound_to 7997
  156.2021  140.3049  155.9508 H   0  0  0  0  0  0  0  0  0  0  0  0  # atno 8009 bound_to 7997
  155.2908  140.0426  157.3013 H   0  0  0  0  0  0  0  0  0  0  0  0  # atno 8010 bound_to 7997
  139.9434  143.6137  152.2497 H   0  0  0  0  0  0  0  0  0  0  0  0  # atno 10167 bound_to 10162
  156.6754  130.5021  149.5987 H   0  0  0  0  0  0  0  0  0  0  0  0  # atno 10718 bound_to 10713
  152.9908  135.5553  154.5798 H   0  0  0  0  0  0  0  0  0  0  0  0  # atno 10763 bound_to 10752
  154.5181  135.2806  155.1288 H   0  0  0  0  0  0  0  0  0  0  0  0  # atno 10764 bound_to 10752
  154.2652  135.6373  153.5342 H   0  0  0  0  0  0  0  0  0  0  0  0  # atno 10765 bound_to 10752
  139.9842  134.9538  156.9702 H   0  0  0  0  0  0  0  0  0  0  0  0  # atno 11005 bound_to 11000
  146.2434  140.5414  142.8924 LP  0  0  0  0  0  0  0  0  0  0  0  0  # atno 17320 bound_to 7965
  144.7984  140.6167  143.6494 LP  0  0  0  0  0  0  0  0  0  0  0  0  # atno 17321 bound_to 7965
  139.6686  144.7661  151.1826 LP  0  0  0  0  0  0  0  0  0  0  0  0  # atno 17342 bound_to 10162
  140.7604  143.5899  150.8807 LP  0  0  0  0  0  0  0  0  0  0  0  0  # atno 17343 bound_to 10162
  156.1907  130.6558  151.1058 LP  0  0  0  0  0  0  0  0  0  0  0  0  # atno 17370 bound_to 10713
  157.7062  131.0755  150.6657 LP  0  0  0  0  0  0  0  0  0  0  0  0  # atno 17371 bound_to 10713
  140.5036  134.1072  155.7255 LP  0  0  0  0  0  0  0  0  0  0  0  0  # atno 17394 bound_to 11000
  141.1509  133.8970  157.2099 LP  0  0  0  0  0  0  0  0  0  0  0  0  # atno 17395 bound_to 11000

$$$$
