AV-unprocessed.smi:2329|AV-procd|sdf|9306|dock1
  -GOLD-   2272012523D 1   1.00000     0.00000
 Structure written by MMmdl.
 45 48  0  0  0  0  0  0  0  0  1 V2000
  153.7390  141.3494  160.4186 C   0  0  0  0  0  0  0  0  0  0  0  0
  152.8131  142.4943  160.0650 C   0  0  0  0  0  0  0  0  0  0  0  0
  152.8993  143.7284  160.7386 C   0  0  0  0  0  0  0  0  0  0  0  0
  152.0127  144.7528  160.3610 C   0  0  0  0  0  0  0  0  0  0  0  0
  151.0844  144.5031  159.3321 C   0  0  0  0  0  0  0  0  0  0  0  0
  151.0652  143.2367  158.7059 C   0  0  0  0  0  0  0  0  0  0  0  0
  150.0971  143.0910  157.6787 N   0  0  0  0  0  0  0  0  0  0  0  0
  149.4395  141.9786  157.2963 C   0  0  0  0  0  0  0  0  0  0  0  0
  149.5399  140.8804  157.8404 O   0  0  0  0  0  0  0  0  0  0  0  0
  148.6374  142.1589  156.2319 N   0  0  0  0  0  0  0  0  0  0  0  0
  147.7928  141.1603  155.5733 C   0  0  2  0  0  0  0  0  0  0  0  0
  148.1229  141.0225  154.0779 C   0  0  1  0  0  0  0  0  0  0  0  0
  148.7048  139.7372  153.5556 C   0  0  0  0  0  0  0  0  0  0  0  0
  147.4705  138.9838  153.0522 C   0  0  0  0  0  0  0  0  0  0  0  0
  146.3778  139.5727  153.7539 O   0  0  0  0  0  0  0  0  0  0  0  0
  146.6228  140.9751  153.8333 C   0  0  1  0  0  0  0  0  0  0  0  0
  146.3706  141.6475  155.1996 C   0  0  0  0  0  0  0  0  0  0  0  0
  145.1780  141.1431  156.0087 C   0  0  0  0  0  0  0  0  0  0  0  0
  143.9718  142.0013  155.6161 C   0  0  0  0  0  0  0  0  0  0  0  0
  144.5524  143.2903  155.0259 C   0  0  0  0  0  0  0  0  0  0  0  0
  146.0713  143.1485  155.1466 C   0  0  0  0  0  0  0  0  0  0  0  0
  151.9240  142.2548  159.0769 N   0  0  0  0  0  0  0  0  0  0  0  0
  154.2067  141.5090  161.3906 H   0  0  0  0  0  0  0  0  0  0  0  0
  154.5264  141.2574  159.6702 H   0  0  0  0  0  0  0  0  0  0  0  0
  153.1901  140.4080  160.4581 H   0  0  0  0  0  0  0  0  0  0  0  0
  153.6243  143.8886  161.5231 H   0  0  0  0  0  0  0  0  0  0  0  0
  152.0440  145.7146  160.8514 H   0  0  0  0  0  0  0  0  0  0  0  0
  150.3970  145.2795  159.0287 H   0  0  0  0  0  0  0  0  0  0  0  0
  149.9022  143.9252  157.1451 H   0  0  0  0  0  0  0  0  0  0  0  0
  148.6190  143.0857  155.8314 H   0  0  0  0  0  0  0  0  0  0  0  0
  147.7781  140.1881  156.0713 H   0  0  0  0  0  0  0  0  0  0  0  0
  148.5656  141.9281  153.6587 H   0  0  0  0  0  0  0  0  0  0  0  0
  149.4300  139.8982  152.7575 H   0  0  0  0  0  0  0  0  0  0  0  0
  149.2009  139.1820  154.3523 H   0  0  0  0  0  0  0  0  0  0  0  0
  147.3335  139.1449  151.9819 H   0  0  0  0  0  0  0  0  0  0  0  0
  147.5303  137.9101  153.2311 H   0  0  0  0  0  0  0  0  0  0  0  0
  146.2948  141.5285  152.9522 H   0  0  0  0  0  0  0  0  0  0  0  0
  144.9786  140.0828  155.8530 H   0  0  0  0  0  0  0  0  0  0  0  0
  145.3718  141.2679  157.0740 H   0  0  0  0  0  0  0  0  0  0  0  0
  143.3697  141.4884  154.8656 H   0  0  0  0  0  0  0  0  0  0  0  0
  143.3295  142.1979  156.4749 H   0  0  0  0  0  0  0  0  0  0  0  0
  144.2658  143.3778  153.9775 H   0  0  0  0  0  0  0  0  0  0  0  0
  144.1894  144.1797  155.5419 H   0  0  0  0  0  0  0  0  0  0  0  0
  146.3912  143.6364  156.0679 H   0  0  0  0  0  0  0  0  0  0  0  0
  146.5866  143.6513  154.3273 H   0  0  0  0  0  0  0  0  0  0  0  0
  1  2  1  0  0  0  0
  1 23  1  0  0  0  0
  1 24  1  0  0  0  0
  1 25  1  0  0  0  0
  2 22  1  0  0  0  0
  2  3  2  0  0  0  0
  3  4  1  0  0  0  0
  3 26  1  0  0  0  0
  4  5  2  0  0  0  0
  4 27  1  0  0  0  0
  5  6  1  0  0  0  0
  5 28  1  0  0  0  0
  6  7  1  0  0  0  0
  6 22  2  0  0  0  0
  7  8  1  0  0  0  0
  7 29  1  0  0  0  0
  8  9  2  0  0  0  0
  8 10  1  0  0  0  0
 10 11  1  0  0  0  0
 10 30  1  0  0  0  0
 11 17  1  0  0  0  0
 11 12  1  0  0  0  0
 11 31  1  0  0  0  0
 12 16  1  0  0  0  0
 12 13  1  0  0  0  0
 12 32  1  0  0  0  0
 13 14  1  0  0  0  0
 13 33  1  0  0  0  0
 13 34  1  0  0  0  0
 14 15  1  0  0  0  0
 14 35  1  0  0  0  0
 14 36  1  0  0  0  0
 15 16  1  0  0  0  0
 16 17  1  0  0  0  0
 16 37  1  0  0  0  0
 17 21  1  0  0  0  0
 17 18  1  0  0  0  0
 18 19  1  0  0  0  0
 18 38  1  0  0  0  0
 18 39  1  0  0  0  0
 19 20  1  0  0  0  0
 19 40  1  0  0  0  0
 19 41  1  0  0  0  0
 20 21  1  0  0  0  0
 20 42  1  0  0  0  0
 20 43  1  0  0  0  0
 21 44  1  0  0  0  0
 21 45  1  0  0  0  0
M  END
> <s_m_source_file>
AV-unprocessed.smi

> <i_m_source_file_index>
2329

> <i_lp_mmshare_version>
43012

> <i_f3d_flags>
0

> <s_epik_input>
W0NIM11jMVtjSF1bY0hdW2NIXWMobjEpW05IXUMoPU8pW05IXVtDQEBIXTJbQ0BASF0oW0NIMl1bQ0gyXU8zKVtDQEhdM0MyNFtDSDJdW0NIMl1bQ0gyXVtDSDJdNA==

> <s_epik_cmdline>
J2VwaWtfcHl0aG9uJywgJy1waCcsICc3LjAnLCAnLXRuJywgJzgnLCAnLW1hJywgJzIwMCcsICctbWV0YWxfYmluZGluZycsICctaW1hZScsICc8aW5maWxlLm1hZT4nLCAnLW9tYWUnLCAnPG91dGZpbGUubWFlPic=

> <r_lp_tautomer_probability>
1

> <r_epik_Ionization_Penalty>
8.97002e-05

> <r_epik_Ionization_Penalty_Charging>
0

> <r_epik_Ionization_Penalty_Neutral>
8.97002e-05

> <r_epik_State_Penalty>
-0

> <r_epik_Charging_Adjusted_Penalty>
0

> <i_epik_Tot_Q>
0

> <i_epik_Tot_abs_Q>
0

> <r_epik_Metal_State_Penalty>
-0

> <b_epik_Metal_Only>
0

> <s_lp_Force_Field>
OPLS_2005

> <r_lp_Energy>
64.3151

> <b_lp_Chiralities_Consistent>
1

> <s_lp_Variant>
AV-unprocessed.smi:2329-5

> <Gold.Version>
5.8.1

> <Gold.Id.Protein>
6NUR|6NUR_protein|mol2

> <Gold.PLP.Fitness>
41.5800

> <Gold.PLP.PLP>
-36.1921

> <Gold.PLP.part.hbond>
-2.0000

> <Gold.PLP.part.metal>
0.0000

> <Gold.PLP.part.buried>
-0.4133

> <Gold.PLP.part.nonpolar>
-33.5672

> <Gold.PLP.part.repulsive>
0.2740

> <Gold.PLP.ligand.clash>
0.0000

> <Gold.PLP.ligand.torsion>
0.3138

> <Gold.PLP.Chemscore.Hbond>
1.9440

> <Gold.PLP.Chemscore.CHOScore>
0.0000

> <Gold.PLP.Chemscore.Metal>
0.0000

> <Gold.Chemscore.Hbonds>
donor molecule, donor type, donor heavy atom, donor atom, acceptor molecule, acceptor atom, score
      L1  H     7    29       P1  8028  0.96
      L1  H    10    30       P1  8028  1.00

> <Gold.PLP.Chemscore.Internal.Correction>
0.1834

> <Gold.Rescore>
     Score         DG    S(hbond)    S(metal)    S(lipo)     H(rot)  DE(clash)    DE(int)     intcor
     20.09     -21.25       1.89        0.00     102.66       1.00       0.16       0.99       ----

> <Gold.Chemscore.Fitness>
20.0949

> <Gold.Chemscore.DG>
-21.2493

> <Gold.Chemscore.ZeroCoef>
-5.4800

> <Gold.Chemscore.Hbond>
1.8917

> <Gold.Chemscore.Metal>
0.0000

> <Gold.Chemscore.Lipo>
102.6578

> <Gold.Chemscore.Internal_Hbond>
0.0000

> <Gold.Chemscore.DEClash>
0.1600

> <Gold.Chemscore.DEInternal>
0.9944

> <Gold.Chemscore.Rot>
1.0000

> <Gold.Chemscore.Internal.Correction>
   9.000000E+99

> <Gold.Chemscore.Hbonds>
donor molecule, donor type, donor heavy atom, donor atom, acceptor molecule, acceptor atom, score
      L1  H     7    29       P1  8028  0.78
      L1  H    10    30       P1  8028  0.99

> <Gold.Chemscore.Hbond.Weighted>
-6.3183

> <Gold.Chemscore.Metal.Weighted>
-0.0000

> <Gold.Chemscore.Lipo.Weighted>
-12.0110

> <Gold.Chemscore.Internal_Hbond.Weighted>
0.0000

> <Gold.Chemscore.DEClash.Weighted>
0.1600

> <Gold.Chemscore.DEInternal.Weighted>
0.9944

> <Gold.Chemscore.Rot.Weighted>
2.5600

> <Gold.Chemscore.Internal.Correction.Weighted>
   9.000000E+99

> <Gold.Protein.RotatedTorsions>
[ 6907 6896 6895 6894 ] final  -50.56 input  -60.11 | X-H torsion
[ 7974 7965 7964 7962 ] final   50.92 input  175.53 | X-H torsion
[ 8008 7997 7996 7995 ] final  -12.72 input   59.86 | X-H torsion
[ 10167 10162 10161 10158 ] final  112.07 input  -65.29 | X-H torsion
[ 10718 10713 10712 10709 ] final  -42.08 input   66.30 | X-H torsion
[ 10763 10752 10751 10750 ] final  106.70 input  -60.55 | X-H torsion
[ 11005 11000 10999 10996 ] final -164.98 input  -57.11 | X-H torsion

> <Gold.Protein.ActiveResidues>
 VAL166  LYS551  ARG553  GLY616  TRP617  ASP618  TYR619  PRO620  LYS621  CYS622 
 ASP623  PHE694  ASN695  SER759  ASP760  ASP761  ALA762  ILE779  LEU786  VAL792 
 PHE793  MET794  SER795  GLU796  ALA797  LYS798  CYS799  TRP800  GLU811  SER814 

> <Gold.Protein.RotatedAtoms>
  150.8696  134.8066  159.7144 H   0  0  0  0  0  0  0  0  0  0  0  0  # atno 6907 bound_to 6896
  152.4705  134.4969  159.9722 H   0  0  0  0  0  0  0  0  0  0  0  0  # atno 6908 bound_to 6896
  151.5059  133.3456  159.2912 H   0  0  0  0  0  0  0  0  0  0  0  0  # atno 6909 bound_to 6896
  145.9964  139.4393  143.0042 H   0  0  0  0  0  0  0  0  0  0  0  0  # atno 7974 bound_to 7965
  154.5353  140.2268  155.8734 H   0  0  0  0  0  0  0  0  0  0  0  0  # atno 8008 bound_to 7997
  156.1805  140.3101  155.9102 H   0  0  0  0  0  0  0  0  0  0  0  0  # atno 8009 bound_to 7997
  155.3368  140.0448  157.3034 H   0  0  0  0  0  0  0  0  0  0  0  0  # atno 8010 bound_to 7997
  139.6563  144.7129  151.1950 H   0  0  0  0  0  0  0  0  0  0  0  0  # atno 10167 bound_to 10162
  156.2634  130.4199  149.8517 H   0  0  0  0  0  0  0  0  0  0  0  0  # atno 10718 bound_to 10713
  153.3966  135.3868  155.1959 H   0  0  0  0  0  0  0  0  0  0  0  0  # atno 10763 bound_to 10752
  154.8725  135.3761  154.4671 H   0  0  0  0  0  0  0  0  0  0  0  0  # atno 10764 bound_to 10752
  153.5164  135.7087  153.5816 H   0  0  0  0  0  0  0  0  0  0  0  0  # atno 10765 bound_to 10752
  140.5808  134.5143  157.5178 H   0  0  0  0  0  0  0  0  0  0  0  0  # atno 11005 bound_to 11000
  145.7553  140.9956  143.1228 LP  0  0  0  0  0  0  0  0  0  0  0  0  # atno 17320 bound_to 7965
  144.6905  139.9264  143.7470 LP  0  0  0  0  0  0  0  0  0  0  0  0  # atno 17321 bound_to 7965
  140.7561  143.6066  150.8646 LP  0  0  0  0  0  0  0  0  0  0  0  0  # atno 17342 bound_to 10162
  139.9719  143.6047  152.2971 LP  0  0  0  0  0  0  0  0  0  0  0  0  # atno 17343 bound_to 10162
  156.6024  130.8552  151.3435 LP  0  0  0  0  0  0  0  0  0  0  0  0  # atno 17370 bound_to 10713
  157.7259  130.9622  150.1632 LP  0  0  0  0  0  0  0  0  0  0  0  0  # atno 17371 bound_to 10713
  139.9318  134.7949  156.0910 LP  0  0  0  0  0  0  0  0  0  0  0  0  # atno 17394 bound_to 11000
  141.0997  133.6682  156.2726 LP  0  0  0  0  0  0  0  0  0  0  0  0  # atno 17395 bound_to 11000

$$$$
