AV-unprocessed.smi:69|AV-procd|sdf|646|dock1
  -GOLD-   2262016543D 1   1.00000     0.00000
 Structure written by MMmdl.
 32 34  0  0  0  0  0  0  0  0  1 V2000
  154.7315  140.2450  160.9928 N   0  0  0  0  0  0  0  0  0  0  0  0
  153.7971  141.1016  160.5583 C   0  0  0  0  0  0  0  0  0  0  0  0
  153.5302  142.1963  161.3084 N   0  0  0  0  0  0  0  0  0  0  0  0
  152.6027  143.0663  160.8955 C   0  0  0  0  0  0  0  0  0  0  0  0
  151.8516  143.0254  159.7922 N   0  0  0  0  0  0  0  0  0  0  0  0
  152.1229  141.9216  159.0358 C   0  0  0  0  0  0  0  0  0  0  0  0
  153.0778  140.9153  159.3507 C   0  0  0  0  0  0  0  0  0  0  0  0
  153.0851  139.9425  158.3604 N   0  0  0  0  0  0  0  0  0  0  0  0
  152.1838  140.3546  157.5097 C   0  0  0  0  0  0  0  0  0  0  0  0
  151.5604  141.5401  157.8338 N   0  0  0  0  0  0  0  0  0  0  0  0
  150.5050  142.2603  157.0520 C   0  0  1  0  0  0  0  0  0  0  0  0
  150.3470  141.6205  155.8253 O   0  0  0  0  0  0  0  0  0  0  0  0
  148.9801  141.6888  155.4384 C   0  0  1  0  0  0  0  0  0  0  0  0
  148.6595  140.6419  154.3572 C   0  0  0  0  0  0  0  0  0  0  0  0
  149.5290  140.7998  153.2564 O   0  0  0  0  0  0  0  0  0  0  0  0
  148.2315  141.5218  156.7694 C   0  0  1  0  0  0  0  0  0  0  0  0
  148.0764  140.1523  157.1012 O   0  0  0  0  0  0  0  0  0  0  0  0
  149.1295  142.2696  157.7538 C   0  0  1  0  0  0  0  0  0  0  0  0
  149.1005  141.7357  159.0682 O   0  0  0  0  0  0  0  0  0  0  0  0
  150.9073  143.2632  156.9009 H   0  0  0  0  0  0  0  0  0  0  0  0
  148.7785  142.6932  155.0605 H   0  0  0  0  0  0  0  0  0  0  0  0
  147.2362  141.9651  156.7261 H   0  0  0  0  0  0  0  0  0  0  0  0
  148.8087  143.3109  157.8064 H   0  0  0  0  0  0  0  0  0  0  0  0
  154.9497  139.4214  160.4502 H   0  0  0  0  0  0  0  0  0  0  0  0
  155.2183  140.4271  161.8582 H   0  0  0  0  0  0  0  0  0  0  0  0
  152.4391  143.9175  161.5395 H   0  0  0  0  0  0  0  0  0  0  0  0
  151.9508  139.8027  156.6108 H   0  0  0  0  0  0  0  0  0  0  0  0
  148.7293  139.6280  154.7527 H   0  0  0  0  0  0  0  0  0  0  0  0
  147.6422  140.7800  153.9895 H   0  0  0  0  0  0  0  0  0  0  0  0
  149.2964  140.1636  152.5974 H   0  0  0  0  0  0  0  0  0  0  0  0
  148.8540  139.6903  156.8263 H   0  0  0  0  0  0  0  0  0  0  0  0
  149.3181  142.4250  159.6769 H   0  0  0  0  0  0  0  0  0  0  0  0
  1  2  1  0  0  0  0
  1 24  1  0  0  0  0
  1 25  1  0  0  0  0
  2  7  1  0  0  0  0
  2  3  2  0  0  0  0
  3  4  1  0  0  0  0
  4  5  2  0  0  0  0
  4 26  1  0  0  0  0
  5  6  1  0  0  0  0
  6 10  1  0  0  0  0
  6  7  2  0  0  0  0
  7  8  1  0  0  0  0
  8  9  2  0  0  0  0
  9 10  1  0  0  0  0
  9 27  1  0  0  0  0
 10 11  1  0  0  0  0
 11 20  1  0  0  0  0
 11 18  1  0  0  0  0
 11 12  1  0  0  0  0
 12 13  1  0  0  0  0
 13 21  1  0  0  0  0
 13 14  1  0  0  0  0
 13 16  1  0  0  0  0
 14 15  1  0  0  0  0
 14 28  1  0  0  0  0
 14 29  1  0  0  0  0
 15 30  1  0  0  0  0
 16 22  1  0  0  0  0
 16 17  1  0  0  0  0
 16 18  1  0  0  0  0
 17 31  1  0  0  0  0
 18 23  1  0  0  0  0
 18 19  1  0  0  0  0
 19 32  1  0  0  0  0
M  END
> <s_m_source_file>
AV-unprocessed.smi

> <i_m_source_file_index>
69

> <i_lp_mmshare_version>
43012

> <i_f3d_flags>
0

> <s_epik_input>
bjFbY0hdbmMoW05IMl0pYyhjMTIpbltjSF1uMltDQEBIXTNPW0NASF0oW0NIMl1bT0hdKVtDQEBIXShbT0hdKVtDQEhdM1tPSF0=

> <s_epik_cmdline>
J2VwaWtfcHl0aG9uJywgJy1waCcsICc3LjAnLCAnLXRuJywgJzgnLCAnLW1hJywgJzIwMCcsICctbWV0YWxfYmluZGluZycsICctaW1hZScsICc8aW5maWxlLm1hZT4nLCAnLW9tYWUnLCAnPG91dGZpbGUubWFlPic=

> <r_lp_tautomer_probability>
1

> <r_epik_Ionization_Penalty>
0.000428445

> <r_epik_Ionization_Penalty_Charging>
0

> <r_epik_Ionization_Penalty_Neutral>
0.000428445

> <r_epik_State_Penalty>
-0

> <r_epik_Charging_Adjusted_Penalty>
0

> <i_epik_Tot_Q>
0

> <i_epik_Tot_abs_Q>
0

> <r_epik_Metal_State_Penalty>
-0

> <b_epik_Metal_Only>
0

> <s_epik_Chemistry_Notes>
This compound contains an acetal/aminal-like group ( X-CH(R)-Y where X, Y are N, S, or O) that may be acid/base labile, releasing an aldehyde.

> <s_lp_Force_Field>
OPLS_2005

> <r_lp_Energy>
45.7014

> <b_lp_Chiralities_Consistent>
1

> <s_lp_Variant>
AV-unprocessed.smi:69-4

> <Gold.Version>
5.8.1

> <Gold.Id.Protein>
6NUR|6NUR_protein|mol2

> <Gold.PLP.Fitness>
36.6531

> <Gold.PLP.PLP>
-28.4936

> <Gold.PLP.part.hbond>
-4.9677

> <Gold.PLP.part.metal>
0.0000

> <Gold.PLP.part.buried>
-1.1796

> <Gold.PLP.part.nonpolar>
-22.1090

> <Gold.PLP.part.repulsive>
0.1127

> <Gold.PLP.ligand.clash>
0.0000

> <Gold.PLP.ligand.torsion>
0.1295

> <Gold.PLP.Chemscore.Hbond>
2.8053

> <Gold.PLP.Chemscore.CHOScore>
0.0000

> <Gold.PLP.Chemscore.Metal>
0.0000

> <Gold.Chemscore.Hbonds>
donor molecule, donor type, donor heavy atom, donor atom, acceptor molecule, acceptor atom, score
      L1  H    15    30       P1  7957  0.56
      P1  H  7989  7998       L1    15  0.22
      P1  H  7997  8010       L1     8  0.90
      P1  H  8011  8017       L1    15  1.00

> <Gold.PLP.Chemscore.Internal.Correction>
0.0026

> <Gold.Rescore>
     Score         DG    S(hbond)    S(metal)    S(lipo)     H(rot)  DE(clash)    DE(int)     intcor
      3.24      -4.57       1.77        0.00      29.82       4.03       0.17       1.16       ----

> <Gold.Chemscore.Fitness>
3.2368

> <Gold.Chemscore.DG>
-4.5659

> <Gold.Chemscore.ZeroCoef>
-5.4800

> <Gold.Chemscore.Hbond>
1.7689

> <Gold.Chemscore.Metal>
0.0000

> <Gold.Chemscore.Lipo>
29.8191

> <Gold.Chemscore.Internal_Hbond>
0.0000

> <Gold.Chemscore.DEClash>
0.1654

> <Gold.Chemscore.DEInternal>
1.1637

> <Gold.Chemscore.Rot>
4.0277

> <Gold.Chemscore.Internal.Correction>
   9.000000E+99

> <Gold.Chemscore.Hbonds>
donor molecule, donor type, donor heavy atom, donor atom, acceptor molecule, acceptor atom, score
      L1  H    15    30       P1  7957  0.55
      P1  H  7989  7998       L1    15  0.15
      P1  H  7997  8010       L1     8  0.16
      P1  H  8011  8017       L1    15  0.50

> <Gold.Chemscore.Hbond.Weighted>
-5.9080

> <Gold.Chemscore.Metal.Weighted>
-0.0000

> <Gold.Chemscore.Lipo.Weighted>
-3.4888

> <Gold.Chemscore.Internal_Hbond.Weighted>
0.0000

> <Gold.Chemscore.DEClash.Weighted>
0.1654

> <Gold.Chemscore.DEInternal.Weighted>
1.1637

> <Gold.Chemscore.Rot.Weighted>
10.3110

> <Gold.Chemscore.Internal.Correction.Weighted>
   9.000000E+99

> <Gold.Protein.RotatedTorsions>
[ 6907 6896 6895 6894 ] final -109.38 input  -60.11 | X-H torsion
[ 7974 7965 7964 7962 ] final  122.82 input  175.53 | X-H torsion
[ 8008 7997 7996 7995 ] final   22.05 input   59.86 | X-H torsion
[ 10167 10162 10161 10158 ] final -143.87 input  -65.29 | X-H torsion
[ 10718 10713 10712 10709 ] final  134.41 input   66.30 | X-H torsion
[ 10763 10752 10751 10750 ] final   82.00 input  -60.55 | X-H torsion
[ 11005 11000 10999 10996 ] final -176.43 input  -57.11 | X-H torsion

> <Gold.Protein.ActiveResidues>
 VAL166  LYS551  ARG553  GLY616  TRP617  ASP618  TYR619  PRO620  LYS621  CYS622 
 ASP623  PHE694  ASN695  SER759  ASP760  ASP761  ALA762  ILE779  LEU786  VAL792 
 PHE793  MET794  SER795  GLU796  ALA797  LYS798  CYS799  TRP800  GLU811  SER814 

> <Gold.Protein.RotatedAtoms>
  150.7558  133.9538  159.3493 H   0  0  0  0  0  0  0  0  0  0  0  0  # atno 6907 bound_to 6896
  151.7458  135.0842  160.0332 H   0  0  0  0  0  0  0  0  0  0  0  0  # atno 6908 bound_to 6896
  152.3499  133.6129  159.5973 H   0  0  0  0  0  0  0  0  0  0  0  0  # atno 6909 bound_to 6896
  145.1030  139.3505  143.4802 H   0  0  0  0  0  0  0  0  0  0  0  0  # atno 7974 bound_to 7965
  154.9598  140.3076  155.5036 H   0  0  0  0  0  0  0  0  0  0  0  0  # atno 8008 bound_to 7997
  156.2978  140.2303  156.4621 H   0  0  0  0  0  0  0  0  0  0  0  0  # atno 8009 bound_to 7997
  154.7976  140.0436  157.1236 H   0  0  0  0  0  0  0  0  0  0  0  0  # atno 8010 bound_to 7997
  139.7952  143.7909  152.2653 H   0  0  0  0  0  0  0  0  0  0  0  0  # atno 10167 bound_to 10162
  157.4675  131.1078  150.9844 H   0  0  0  0  0  0  0  0  0  0  0  0  # atno 10718 bound_to 10713
  153.1165  135.4744  154.9124 H   0  0  0  0  0  0  0  0  0  0  0  0  # atno 10763 bound_to 10752
  154.7533  135.3112  154.8518 H   0  0  0  0  0  0  0  0  0  0  0  0  # atno 10764 bound_to 10752
  153.9094  135.6867  153.4805 H   0  0  0  0  0  0  0  0  0  0  0  0  # atno 10765 bound_to 10752
  140.4521  134.6333  157.4806 H   0  0  0  0  0  0  0  0  0  0  0  0  # atno 11005 bound_to 11000
  146.3529  140.0916  142.8612 LP  0  0  0  0  0  0  0  0  0  0  0  0  # atno 17320 bound_to 7965
  145.0933  140.9299  143.4756 LP  0  0  0  0  0  0  0  0  0  0  0  0  # atno 17321 bound_to 7965
  139.8013  144.7373  150.9821 LP  0  0  0  0  0  0  0  0  0  0  0  0  # atno 17342 bound_to 10162
  140.7820  143.4342  151.0648 LP  0  0  0  0  0  0  0  0  0  0  0  0  # atno 17343 bound_to 10162
  157.0620  130.5829  149.5387 LP  0  0  0  0  0  0  0  0  0  0  0  0  # atno 17370 bound_to 10713
  156.0057  130.5143  150.7822 LP  0  0  0  0  0  0  0  0  0  0  0  0  # atno 17371 bound_to 10713
  140.0000  134.6852  155.9546 LP  0  0  0  0  0  0  0  0  0  0  0  0  # atno 17394 bound_to 11000
  141.1659  133.6537  156.4478 LP  0  0  0  0  0  0  0  0  0  0  0  0  # atno 17395 bound_to 11000

$$$$
