AV-unprocessed.smi:598|AV-procd|sdf|3025|dock5
  -GOLD-   2262023533D 1   1.00000     0.00000
 Structure written by MMmdl.
 43 44  0  0  0  0  0  0  0  0  3 V2000
  151.7649  144.3329  157.9163 C   0  0  0  0  0  0  0  0  0  0  0  0
  150.9913  143.6043  159.0346 C   0  0  2  0  0  0  0  0  0  0  0  0
  151.4435  144.0701  160.4337 C   0  0  0  0  0  0  0  0  0  0  0  0
  152.8340  143.5307  160.8037 C   0  0  0  0  0  0  0  0  0  0  0  0
  152.8777  141.9997  160.7070 C   0  0  0  0  0  0  0  0  0  0  0  0
  152.4361  141.4969  159.3170 C   0  0  1  0  0  0  0  0  0  0  0  0
  152.4184  140.0353  159.3090 N   0  0  0  0  0  0  0  0  0  0  0  0
  152.4602  139.2620  158.2137 C   0  0  0  0  0  0  0  0  0  0  0  0
  152.5443  139.7129  157.0705 O   0  0  0  0  0  0  0  0  0  0  0  0
  152.4209  137.7473  158.4597 C   0  0  0  0  0  0  0  0  0  0  0  0
  151.0878  137.1599  158.2434 N   0  0  0  0  0  0  0  0  0  0  0  0
  150.1638  137.2595  159.3025 C   0  0  0  0  0  0  0  0  0  0  0  0
  148.9187  136.7510  159.2165 C   0  0  0  0  0  0  0  0  0  0  0  0
  147.9849  136.8571  160.3161 N   0  3  0  0  0  0  0  0  0  0  0  0
  146.8058  136.5839  160.1153 O   0  0  0  0  0  0  0  0  0  0  0  0
  148.3973  137.2172  161.4149 O   0  5  0  0  0  0  0  0  0  0  0  0
  148.5453  136.0871  157.9825 C   0  0  0  0  0  0  0  0  0  0  0  0
  149.4257  135.9860  156.9672 C   0  0  0  0  0  0  0  0  0  0  0  0
  150.7814  136.5370  157.0644 C   0  0  0  0  0  0  0  0  0  0  0  0
  151.5919  136.4438  156.1424 O   0  0  0  0  0  0  0  0  0  0  0  0
  151.0401  142.0556  158.9371 C   0  0  2  0  0  0  0  0  0  0  0  0
  150.5347  141.5368  157.5761 C   0  0  0  0  0  0  0  0  0  0  0  0
  152.8192  144.0588  157.8978 H   0  0  0  0  0  0  0  0  0  0  0  0
  151.7105  145.4138  158.0481 H   0  0  0  0  0  0  0  0  0  0  0  0
  151.3494  144.1139  156.9329 H   0  0  0  0  0  0  0  0  0  0  0  0
  149.9478  143.9039  158.9271 H   0  0  0  0  0  0  0  0  0  0  0  0
  151.4388  145.1591  160.4906 H   0  0  0  0  0  0  0  0  0  0  0  0
  150.7218  143.7274  161.1763 H   0  0  0  0  0  0  0  0  0  0  0  0
  153.5904  143.9631  160.1481 H   0  0  0  0  0  0  0  0  0  0  0  0
  153.0932  143.8435  161.8154 H   0  0  0  0  0  0  0  0  0  0  0  0
  153.8864  141.6505  160.9307 H   0  0  0  0  0  0  0  0  0  0  0  0
  152.2286  141.5751  161.4743 H   0  0  0  0  0  0  0  0  0  0  0  0
  153.1566  141.8423  158.5737 H   0  0  0  0  0  0  0  0  0  0  0  0
  152.3570  139.5790  160.2076 H   0  0  0  0  0  0  0  0  0  0  0  0
  153.1571  137.2791  157.8052 H   0  0  0  0  0  0  0  0  0  0  0  0
  152.7652  137.5337  159.4736 H   0  0  0  0  0  0  0  0  0  0  0  0
  150.5405  137.7650  160.1799 H   0  0  0  0  0  0  0  0  0  0  0  0
  147.5578  135.6656  157.8637 H   0  0  0  0  0  0  0  0  0  0  0  0
  149.1265  135.4862  156.0575 H   0  0  0  0  0  0  0  0  0  0  0  0
  150.3354  141.6819  159.6822 H   0  0  0  0  0  0  0  0  0  0  0  0
  151.2424  141.7538  156.7756 H   0  0  0  0  0  0  0  0  0  0  0  0
  149.5800  141.9923  157.3125 H   0  0  0  0  0  0  0  0  0  0  0  0
  150.3811  140.4576  157.5909 H   0  0  0  0  0  0  0  0  0  0  0  0
  1  2  1  0  0  0  0
  1 23  1  0  0  0  0
  1 24  1  0  0  0  0
  1 25  1  0  0  0  0
  2 21  1  0  0  0  0
  2  3  1  0  0  0  0
  2 26  1  0  0  0  0
  3  4  1  0  0  0  0
  3 27  1  0  0  0  0
  3 28  1  0  0  0  0
  4  5  1  0  0  0  0
  4 29  1  0  0  0  0
  4 30  1  0  0  0  0
  5  6  1  0  0  0  0
  5 31  1  0  0  0  0
  5 32  1  0  0  0  0
  6  7  1  0  0  0  0
  6 21  1  0  0  0  0
  6 33  1  0  0  0  0
  7  8  1  0  0  0  0
  7 34  1  0  0  0  0
  8  9  2  0  0  0  0
  8 10  1  0  0  0  0
 10 11  1  0  0  0  0
 10 35  1  0  0  0  0
 10 36  1  0  0  0  0
 11 19  1  0  0  0  0
 11 12  1  0  0  0  0
 12 13  2  0  0  0  0
 12 37  1  0  0  0  0
 13 14  1  0  0  0  0
 13 17  1  0  0  0  0
 14 15  2  0  0  0  0
 14 16  1  0  0  0  0
 17 18  2  0  0  0  0
 17 38  1  0  0  0  0
 18 19  1  0  0  0  0
 18 39  1  0  0  0  0
 19 20  2  0  0  0  0
 21 22  1  0  0  0  0
 21 40  1  0  0  0  0
 22 41  1  0  0  0  0
 22 42  1  0  0  0  0
 22 43  1  0  0  0  0
M  CHG  1  14   1
M  CHG  1  16  -1
M  END
> <s_m_source_file>
AV-unprocessed.smi

> <i_m_source_file_index>
598

> <i_lp_mmshare_version>
43012

> <i_f3d_flags>
0

> <s_epik_input>
W0NIM11bQ0BASF0xW0NIMl1bQ0gyXVtDSDJdW0NASF0oW0NASF0xW0NIM10pW05IXUMoPU8pW0NIMl1uMltjSF1jKFtOK10oPU8pW08tXSlbY0hdW2NIXWMyPU8=

> <s_epik_cmdline>
J2VwaWtfcHl0aG9uJywgJy1waCcsICc3LjAnLCAnLXRuJywgJzgnLCAnLW1hJywgJzIwMCcsICctbWV0YWxfYmluZGluZycsICctaW1hZScsICc8aW5maWxlLm1hZT4nLCAnLW9tYWUnLCAnPG91dGZpbGUubWFlPic=

> <r_lp_tautomer_probability>
1

> <r_epik_Ionization_Penalty>
1.91291e-08

> <r_epik_Ionization_Penalty_Charging>
8.21931e-11

> <r_epik_Ionization_Penalty_Neutral>
1.90469e-08

> <r_epik_State_Penalty>
-0

> <r_epik_Charging_Adjusted_Penalty>
8.21931e-11

> <i_epik_Tot_Q>
0

> <i_epik_Tot_abs_Q>
2

> <r_epik_Metal_State_Penalty>
-0

> <b_epik_Metal_Only>
0

> <s_lp_Force_Field>
OPLS_2005

> <r_lp_Energy>
25.21

> <b_lp_Chiralities_Consistent>
1

> <s_lp_Variant>
AV-unprocessed.smi:598-5

> <Gold.Version>
5.8.1

> <Gold.Id.Protein>
6NUR|6NUR_protein|mol2

> <Gold.PLP.Fitness>
45.6321

> <Gold.PLP.PLP>
-36.7592

> <Gold.PLP.part.hbond>
-4.0000

> <Gold.PLP.part.metal>
0.0000

> <Gold.PLP.part.buried>
-5.0325

> <Gold.PLP.part.nonpolar>
-28.1284

> <Gold.PLP.part.repulsive>
0.1461

> <Gold.PLP.ligand.clash>
0.0000

> <Gold.PLP.ligand.torsion>
0.9203

> <Gold.PLP.Chemscore.Hbond>
3.5680

> <Gold.PLP.Chemscore.CHOScore>
0.0000

> <Gold.PLP.Chemscore.Metal>
0.0000

> <Gold.Chemscore.Hbonds>
donor molecule, donor type, donor heavy atom, donor atom, acceptor molecule, acceptor atom, score
      P1  H  6931  6943       L1    16  0.44
      P1  H  6934  6947       L1    16  0.04
      P1  H  7997  8009       L1     9  1.00
      P1  H 10752 10763       L1    20  0.68

> <Gold.PLP.Chemscore.Internal.Correction>
0.0096

> <Gold.Rescore>
     Score         DG    S(hbond)    S(metal)    S(lipo)     H(rot)  DE(clash)    DE(int)     intcor
     22.43     -23.45       3.30        0.00      93.06       1.54       0.08       0.94       ----

> <Gold.Chemscore.Fitness>
22.4297

> <Gold.Chemscore.DG>
-23.4499

> <Gold.Chemscore.ZeroCoef>
-5.4800

> <Gold.Chemscore.Hbond>
3.3002

> <Gold.Chemscore.Metal>
0.0000

> <Gold.Chemscore.Lipo>
93.0595

> <Gold.Chemscore.Internal_Hbond>
0.0000

> <Gold.Chemscore.DEClash>
0.0756

> <Gold.Chemscore.DEInternal>
0.9446

> <Gold.Chemscore.Rot>
1.5393

> <Gold.Chemscore.Internal.Correction>
   9.000000E+99

> <Gold.Chemscore.Hbonds>
donor molecule, donor type, donor heavy atom, donor atom, acceptor molecule, acceptor atom, score
      P1  H  6931  6943       L1    16  0.43
      P1  H  7997  8009       L1     9  0.78
      P1  H 10752 10763       L1    20  0.66

> <Gold.Chemscore.Hbond.Weighted>
-11.0226

> <Gold.Chemscore.Metal.Weighted>
-0.0000

> <Gold.Chemscore.Lipo.Weighted>
-10.8880

> <Gold.Chemscore.Internal_Hbond.Weighted>
0.0000

> <Gold.Chemscore.DEClash.Weighted>
0.0756

> <Gold.Chemscore.DEInternal.Weighted>
0.9446

> <Gold.Chemscore.Rot.Weighted>
3.9407

> <Gold.Chemscore.Internal.Correction.Weighted>
   9.000000E+99

> <Gold.Protein.RotatedTorsions>
[ 6907 6896 6895 6894 ] final  -99.08 input  -60.11 | X-H torsion
[ 7974 7965 7964 7962 ] final  154.19 input  175.53 | X-H torsion
[ 8008 7997 7996 7995 ] final -178.32 input   59.86 | X-H torsion
[ 10167 10162 10161 10158 ] final  -36.28 input  -65.29 | X-H torsion
[ 10718 10713 10712 10709 ] final   29.22 input   66.30 | X-H torsion
[ 10763 10752 10751 10750 ] final   67.22 input  -60.55 | X-H torsion
[ 11005 11000 10999 10996 ] final  -99.31 input  -57.11 | X-H torsion

> <Gold.Protein.ActiveResidues>
 VAL166  LYS551  ARG553  GLY616  TRP617  ASP618  TYR619  PRO620  LYS621  CYS622 
 ASP623  PHE694  ASN695  SER759  ASP760  ASP761  ALA762  ILE779  LEU786  VAL792 
 PHE793  MET794  SER795  GLU796  ALA797  LYS798  CYS799  TRP800  GLU811  SER814 

> <Gold.Protein.RotatedAtoms>
  150.7068  134.1096  159.3994 H   0  0  0  0  0  0  0  0  0  0  0  0  # atno 6907 bound_to 6896
  151.9082  135.0347  160.0521 H   0  0  0  0  0  0  0  0  0  0  0  0  # atno 6908 bound_to 6896
  152.2357  133.5059  159.5278 H   0  0  0  0  0  0  0  0  0  0  0  0  # atno 6909 bound_to 6896
  144.8105  139.6900  143.6143 H   0  0  0  0  0  0  0  0  0  0  0  0  # atno 7974 bound_to 7965
  156.0174  140.1254  157.0392 H   0  0  0  0  0  0  0  0  0  0  0  0  # atno 8008 bound_to 7997
  154.4298  140.1075  156.5985 H   0  0  0  0  0  0  0  0  0  0  0  0  # atno 8009 bound_to 7997
  155.5993  140.3470  155.4591 H   0  0  0  0  0  0  0  0  0  0  0  0  # atno 8010 bound_to 7997
  140.7146  143.3419  151.2338 H   0  0  0  0  0  0  0  0  0  0  0  0  # atno 10167 bound_to 10162
  157.2437  130.7081  149.6371 H   0  0  0  0  0  0  0  0  0  0  0  0  # atno 10718 bound_to 10713
  153.0176  135.5292  154.6946 H   0  0  0  0  0  0  0  0  0  0  0  0  # atno 10763 bound_to 10752
  154.6071  135.2874  155.0474 H   0  0  0  0  0  0  0  0  0  0  0  0  # atno 10764 bound_to 10752
  154.1510  135.6563  153.5016 H   0  0  0  0  0  0  0  0  0  0  0  0  # atno 10765 bound_to 10752
  141.1313  133.8312  157.0955 H   0  0  0  0  0  0  0  0  0  0  0  0  # atno 11005 bound_to 11000
  146.2403  139.5987  142.9496 LP  0  0  0  0  0  0  0  0  0  0  0  0  # atno 17320 bound_to 7965
  145.5335  141.0425  143.2370 LP  0  0  0  0  0  0  0  0  0  0  0  0  # atno 17321 bound_to 7965
  139.6929  143.9662  152.2868 LP  0  0  0  0  0  0  0  0  0  0  0  0  # atno 17342 bound_to 10162
  139.9329  144.6730  150.8344 LP  0  0  0  0  0  0  0  0  0  0  0  0  # atno 17343 bound_to 10162
  155.9669  130.4450  150.5483 LP  0  0  0  0  0  0  0  0  0  0  0  0  # atno 17370 bound_to 10713
  157.3352  131.0707  151.1831 LP  0  0  0  0  0  0  0  0  0  0  0  0  # atno 17371 bound_to 10713
  140.0366  134.9875  157.0882 LP  0  0  0  0  0  0  0  0  0  0  0  0  # atno 17394 bound_to 11000
  140.4201  134.1890  155.7164 LP  0  0  0  0  0  0  0  0  0  0  0  0  # atno 17395 bound_to 11000

$$$$
