AV-unprocessed.smi:561|AV-procd|sdf|2941|dock4
  -GOLD-   2262023443D 1   1.00000     0.00000
 Structure written by MMmdl.
 36 37  0  0  0  0  0  0  0  0  3 V2000
  147.7132  138.1601  156.5657 C   0  0  0  0  0  0  0  0  0  0  0  0
  149.2134  138.3482  156.3020 C   0  0  1  0  0  0  0  0  0  0  0  0
  149.4649  138.9690  154.9032 C   0  0  0  0  0  0  0  0  0  0  0  0
  148.3754  139.8359  154.4167 N   0  0  0  0  0  0  0  0  0  0  0  0
  148.3201  141.2070  154.4719 C   0  0  0  0  0  0  0  0  0  0  0  0
  147.1316  141.5765  153.8980 C   0  0  0  0  0  0  0  0  0  0  0  0
  146.5032  140.4180  153.5281 N   0  3  0  0  0  0  0  0  0  0  0  0
  147.2557  139.3612  153.8504 C   0  0  0  0  0  0  0  0  0  0  0  0
  149.7704  139.2153  157.3468 N   0  5  0  0  0  0  0  0  0  0  0  0
  151.0709  139.6265  157.4275 C   0  0  0  0  0  0  0  0  0  0  0  0
  152.0293  139.1402  156.8111 O   0  0  0  0  0  0  0  0  0  0  0  0
  151.3829  140.7822  158.3192 C   0  0  0  0  0  0  0  0  0  0  0  0
  152.3773  140.6820  159.1446 N   0  0  0  0  0  0  0  0  0  0  0  0
  152.7199  141.6981  160.0125 N   0  0  0  0  0  0  0  0  0  0  0  0
  153.6790  141.3209  161.0487 C   0  0  0  0  0  0  0  0  0  0  0  0
  152.2591  142.9705  159.9303 C   0  0  0  0  0  0  0  0  0  0  0  0
  152.5701  143.8636  160.7186 O   0  0  0  0  0  0  0  0  0  0  0  0
  151.3283  143.2846  158.7567 C   0  0  0  0  0  0  0  0  0  0  0  0
  150.5395  142.0465  158.2870 C   0  0  0  0  0  0  0  0  0  0  0  0
  147.2623  137.5130  155.8129 H   0  0  0  0  0  0  0  0  0  0  0  0
  147.1809  139.1119  156.5463 H   0  0  0  0  0  0  0  0  0  0  0  0
  147.5390  137.6996  157.5388 H   0  0  0  0  0  0  0  0  0  0  0  0
  149.6664  137.3556  156.3129 H   0  0  0  0  0  0  0  0  0  0  0  0
  150.3752  139.5698  154.9190 H   0  0  0  0  0  0  0  0  0  0  0  0
  149.6239  138.1866  154.1595 H   0  0  0  0  0  0  0  0  0  0  0  0
  149.1209  141.7994  154.8908 H   0  0  0  0  0  0  0  0  0  0  0  0
  146.6987  142.5514  153.7286 H   0  0  0  0  0  0  0  0  0  0  0  0
  147.0163  138.3278  153.6738 H   0  0  0  0  0  0  0  0  0  0  0  0
  154.6082  141.8805  160.9322 H   0  0  0  0  0  0  0  0  0  0  0  0
  153.9258  140.2584  161.0109 H   0  0  0  0  0  0  0  0  0  0  0  0
  153.2761  141.5288  162.0412 H   0  0  0  0  0  0  0  0  0  0  0  0
  150.6448  144.0910  159.0239 H   0  0  0  0  0  0  0  0  0  0  0  0
  151.9476  143.6552  157.9392 H   0  0  0  0  0  0  0  0  0  0  0  0
  150.1754  142.2477  157.2789 H   0  0  0  0  0  0  0  0  0  0  0  0
  149.6567  141.9056  158.9116 H   0  0  0  0  0  0  0  0  0  0  0  0
  145.6019  140.3654  153.0707 H   0  0  0  0  0  0  0  0  0  0  0  0
  1  2  1  0  0  0  0
  1 20  1  0  0  0  0
  1 21  1  0  0  0  0
  1 22  1  0  0  0  0
  2  3  1  0  0  0  0
  2  9  1  0  0  0  0
  2 23  1  0  0  0  0
  3  4  1  0  0  0  0
  3 24  1  0  0  0  0
  3 25  1  0  0  0  0
  4  8  1  0  0  0  0
  4  5  1  0  0  0  0
  5  6  2  0  0  0  0
  5 26  1  0  0  0  0
  6  7  1  0  0  0  0
  6 27  1  0  0  0  0
  7  8  2  0  0  0  0
  7 36  1  0  0  0  0
  8 28  1  0  0  0  0
  9 10  1  0  0  0  0
 10 11  2  0  0  0  0
 10 12  1  0  0  0  0
 12 19  1  0  0  0  0
 12 13  2  0  0  0  0
 13 14  1  0  0  0  0
 14 15  1  0  0  0  0
 14 16  1  0  0  0  0
 15 29  1  0  0  0  0
 15 30  1  0  0  0  0
 15 31  1  0  0  0  0
 16 17  2  0  0  0  0
 16 18  1  0  0  0  0
 18 19  1  0  0  0  0
 18 32  1  0  0  0  0
 18 33  1  0  0  0  0
 19 34  1  0  0  0  0
 19 35  1  0  0  0  0
M  CHG  1   7   1
M  CHG  1   9  -1
M  END
> <s_m_source_file>
AV-unprocessed.smi

> <i_m_source_file_index>
561

> <i_lp_mmshare_version>
43012

> <i_f3d_flags>
0

> <s_epik_input>
W2NIXTFuW2NIXVtjSF1uMVtDSDJdW0NAQEhdKFtDSDNdKVtOSF1DKD1PKUMyPU5OKFtDSDNdKUMoPU8pW0NIMl1bQ0gyXTI=

> <s_epik_cmdline>
J2VwaWtfcHl0aG9uJywgJy1waCcsICc3LjAnLCAnLXRuJywgJzgnLCAnLW1hJywgJzIwMCcsICctbWV0YWxfYmluZGluZycsICctaW1hZScsICc8aW5maWxlLm1hZT4nLCAnLW9tYWUnLCAnPG91dGZpbGUubWFlPic=

> <r_lp_tautomer_probability>
1

> <r_epik_Ionization_Penalty>
5.37239

> <r_epik_Ionization_Penalty_Charging>
5.18263

> <r_epik_Ionization_Penalty_Neutral>
0.189756

> <r_epik_State_Penalty>
5.53772

> <r_epik_Charging_Adjusted_Penalty>
10.7204

> <i_epik_Tot_Q>
0

> <i_epik_Tot_abs_Q>
2

> <r_epik_Metal_State_Penalty>
1.80836

> <b_epik_Metal_Only>
1

> <s_epik_Chemistry_Notes>
This compound has an imine and may undergo hydrolysis.

> <s_lp_Force_Field>
OPLS_2005

> <r_lp_Energy>
21.245

> <b_lp_Chiralities_Consistent>
1

> <s_lp_Variant>
AV-unprocessed.smi:561-6

> <Gold.Version>
5.8.1

> <Gold.Id.Protein>
6NUR|6NUR_protein|mol2

> <Gold.PLP.Fitness>
45.1080

> <Gold.PLP.PLP>
-36.2170

> <Gold.PLP.part.hbond>
-1.9803

> <Gold.PLP.part.metal>
0.0000

> <Gold.PLP.part.buried>
-3.5633

> <Gold.PLP.part.nonpolar>
-30.4045

> <Gold.PLP.part.repulsive>
0.1125

> <Gold.PLP.ligand.clash>
0.0000

> <Gold.PLP.ligand.torsion>
1.5891

> <Gold.PLP.Chemscore.Hbond>
3.0000

> <Gold.PLP.Chemscore.CHOScore>
1.0000

> <Gold.PLP.Chemscore.Metal>
0.0000

> <Gold.Chemscore.Hbonds>
donor molecule, donor type, donor heavy atom, donor atom, acceptor molecule, acceptor atom, score
      L1  H     7    36       P1 10175  2.00

> <Gold.PLP.Chemscore.Internal.Correction>
0.0693

> <Gold.Rescore>
     Score         DG    S(hbond)    S(metal)    S(lipo)     H(rot)  DE(clash)    DE(int)     intcor
     12.52     -14.40       1.96        0.00      58.08       1.73       0.00       1.88       ----

> <Gold.Chemscore.Fitness>
12.5234

> <Gold.Chemscore.DG>
-14.3997

> <Gold.Chemscore.ZeroCoef>
-5.4800

> <Gold.Chemscore.Hbond>
1.9620

> <Gold.Chemscore.Metal>
0.0000

> <Gold.Chemscore.Lipo>
58.0789

> <Gold.Chemscore.Internal_Hbond>
0.0000

> <Gold.Chemscore.DEClash>
0.0000

> <Gold.Chemscore.DEInternal>
1.8762

> <Gold.Chemscore.Rot>
1.7299

> <Gold.Chemscore.Internal.Correction>
   9.000000E+99

> <Gold.Chemscore.Hbonds>
donor molecule, donor type, donor heavy atom, donor atom, acceptor molecule, acceptor atom, score
      L1  H     7    36       P1 10175  0.90
      P1  H  7997  8008       L1    11  0.01

> <Gold.Chemscore.Hbond.Weighted>
-6.5531

> <Gold.Chemscore.Metal.Weighted>
-0.0000

> <Gold.Chemscore.Lipo.Weighted>
-6.7952

> <Gold.Chemscore.Internal_Hbond.Weighted>
0.0000

> <Gold.Chemscore.DEClash.Weighted>
0.0000

> <Gold.Chemscore.DEInternal.Weighted>
1.8762

> <Gold.Chemscore.Rot.Weighted>
4.4286

> <Gold.Chemscore.Internal.Correction.Weighted>
   9.000000E+99

> <Gold.Protein.RotatedTorsions>
[ 6907 6896 6895 6894 ] final  148.57 input  -60.11 | X-H torsion
[ 7974 7965 7964 7962 ] final   56.61 input  175.53 | X-H torsion
[ 8008 7997 7996 7995 ] final  -55.48 input   59.86 | X-H torsion
[ 10167 10162 10161 10158 ] final  177.40 input  -65.29 | X-H torsion
[ 10718 10713 10712 10709 ] final  159.02 input   66.30 | X-H torsion
[ 10763 10752 10751 10750 ] final   72.93 input  -60.55 | X-H torsion
[ 11005 11000 10999 10996 ] final -127.84 input  -57.11 | X-H torsion

> <Gold.Protein.ActiveResidues>
 VAL166  LYS551  ARG553  GLY616  TRP617  ASP618  TYR619  PRO620  LYS621  CYS622 
 ASP623  PHE694  ASN695  SER759  ASP760  ASP761  ALA762  ILE779  LEU786  VAL792 
 PHE793  MET794  SER795  GLU796  ALA797  LYS798  CYS799  TRP800  GLU811  SER814 

> <Gold.Protein.RotatedAtoms>
  152.1396  133.4456  159.4760 H   0  0  0  0  0  0  0  0  0  0  0  0  # atno 6907 bound_to 6896
  150.6885  134.2321  159.4448 H   0  0  0  0  0  0  0  0  0  0  0  0  # atno 6908 bound_to 6896
  152.0211  134.9822  160.0621 H   0  0  0  0  0  0  0  0  0  0  0  0  # atno 6909 bound_to 6896
  145.9380  139.3864  143.0381 H   0  0  0  0  0  0  0  0  0  0  0  0  # atno 7974 bound_to 7965
  154.4196  140.1152  156.5484 H   0  0  0  0  0  0  0  0  0  0  0  0  # atno 8008 bound_to 7997
  155.6435  140.3496  155.4704 H   0  0  0  0  0  0  0  0  0  0  0  0  # atno 8009 bound_to 7997
  155.9851  140.1168  157.0680 H   0  0  0  0  0  0  0  0  0  0  0  0  # atno 8010 bound_to 7997
  139.5252  144.2802  152.0553 H   0  0  0  0  0  0  0  0  0  0  0  0  # atno 10167 bound_to 10162
  157.1700  131.0607  151.2188 H   0  0  0  0  0  0  0  0  0  0  0  0  # atno 10718 bound_to 10713
  153.0490  135.5081  154.7818 H   0  0  0  0  0  0  0  0  0  0  0  0  # atno 10763 bound_to 10752
  154.6696  135.2951  154.9762 H   0  0  0  0  0  0  0  0  0  0  0  0  # atno 10764 bound_to 10752
  154.0585  135.6694  153.4861 H   0  0  0  0  0  0  0  0  0  0  0  0  # atno 10765 bound_to 10752
  140.9566  134.0994  157.4010 H   0  0  0  0  0  0  0  0  0  0  0  0  # atno 11005 bound_to 11000
  145.8338  140.9617  143.0835 LP  0  0  0  0  0  0  0  0  0  0  0  0  # atno 17320 bound_to 7965
  144.6774  140.0196  143.7484 LP  0  0  0  0  0  0  0  0  0  0  0  0  # atno 17321 bound_to 7965
  140.2258  144.4420  150.6322 LP  0  0  0  0  0  0  0  0  0  0  0  0  # atno 17342 bound_to 10162
  140.6388  143.2200  151.6335 LP  0  0  0  0  0  0  0  0  0  0  0  0  # atno 17343 bound_to 10162
  157.4052  130.7355  149.6797 LP  0  0  0  0  0  0  0  0  0  0  0  0  # atno 17370 bound_to 10713
  155.9740  130.4110  150.3958 LP  0  0  0  0  0  0  0  0  0  0  0  0  # atno 17371 bound_to 10713
  139.8864  135.0081  156.6496 LP  0  0  0  0  0  0  0  0  0  0  0  0  # atno 17394 bound_to 11000
  140.7528  133.8883  155.8359 LP  0  0  0  0  0  0  0  0  0  0  0  0  # atno 17395 bound_to 11000

$$$$
