AV-unprocessed.smi:506|AV-procd|sdf|2751|dock9
  -GOLD-   2262023223D 1   1.00000     0.00000
 Structure written by MMmdl.
 41 43  0  0  0  0  0  0  0  0  2 V2000
  155.0690  137.8168  164.9257 C   0  0  0  0  0  0  0  0  0  0  0  0
  155.3669  138.7045  163.8580 O   0  0  0  0  0  0  0  0  0  0  0  0
  154.7499  138.4888  162.6444 C   0  0  0  0  0  0  0  0  0  0  0  0
  154.9496  139.4581  161.6421 C   0  0  0  0  0  0  0  0  0  0  0  0
  154.3597  139.3138  160.3723 C   0  0  0  0  0  0  0  0  0  0  0  0
  153.5553  138.1967  160.0736 C   0  0  0  0  0  0  0  0  0  0  0  0
  153.0217  138.1303  158.8045 O   0  0  0  0  0  0  0  0  0  0  0  0
  152.8105  139.3454  158.1005 C   0  0  0  0  0  0  0  0  0  0  0  0
  151.3827  139.8279  158.3821 C   0  0  0  0  0  0  0  0  0  0  0  0
  151.1742  141.2092  157.9300 N   0  0  0  0  0  0  0  0  0  0  0  0
  150.6127  141.6850  156.7817 C   0  0  0  0  0  0  0  0  0  0  0  0
  150.0515  140.8674  155.6619 C   0  0  0  0  0  0  0  0  0  0  0  0
  151.0341  140.1370  154.9579 O   0  0  0  0  0  0  0  0  0  0  0  0
  150.6582  143.0467  156.8481 N   0  3  0  0  0  0  0  0  0  0  0  0
  151.2464  143.4438  158.0493 C   0  0  0  0  0  0  0  0  0  0  0  0
  151.5062  144.7106  158.5631 C   0  0  0  0  0  0  0  0  0  0  0  0
  152.1188  144.7651  159.8325 C   0  0  0  0  0  0  0  0  0  0  0  0
  152.4473  143.5907  160.5405 C   0  0  0  0  0  0  0  0  0  0  0  0
  152.1798  142.3117  160.0090 C   0  0  0  0  0  0  0  0  0  0  0  0
  151.5769  142.2671  158.7522 C   0  0  0  0  0  0  0  0  0  0  0  0
  153.3470  137.2216  161.0800 C   0  0  0  0  0  0  0  0  0  0  0  0
  153.9382  137.3656  162.3505 C   0  0  0  0  0  0  0  0  0  0  0  0
  155.6339  138.1145  165.8090 H   0  0  0  0  0  0  0  0  0  0  0  0
  155.3524  136.7917  164.6828 H   0  0  0  0  0  0  0  0  0  0  0  0
  154.0101  137.8476  165.1862 H   0  0  0  0  0  0  0  0  0  0  0  0
  155.5644  140.3221  161.8478 H   0  0  0  0  0  0  0  0  0  0  0  0
  154.5292  140.0687  159.6186 H   0  0  0  0  0  0  0  0  0  0  0  0
  153.5233  140.1030  158.4300 H   0  0  0  0  0  0  0  0  0  0  0  0
  152.9486  139.1884  157.0295 H   0  0  0  0  0  0  0  0  0  0  0  0
  150.6456  139.1815  157.9047 H   0  0  0  0  0  0  0  0  0  0  0  0
  151.1781  139.7926  159.4526 H   0  0  0  0  0  0  0  0  0  0  0  0
  149.3123  140.1733  156.0624 H   0  0  0  0  0  0  0  0  0  0  0  0
  149.5348  141.5250  154.9622 H   0  0  0  0  0  0  0  0  0  0  0  0
  150.7254  139.2507  154.8443 H   0  0  0  0  0  0  0  0  0  0  0  0
  151.2534  145.6116  158.0235 H   0  0  0  0  0  0  0  0  0  0  0  0
  152.3402  145.7268  160.2725 H   0  0  0  0  0  0  0  0  0  0  0  0
  152.9141  143.6722  161.5115 H   0  0  0  0  0  0  0  0  0  0  0  0
  152.4337  141.4183  160.5602 H   0  0  0  0  0  0  0  0  0  0  0  0
  152.7367  136.3493  160.9029 H   0  0  0  0  0  0  0  0  0  0  0  0
  153.7532  136.5960  163.0845 H   0  0  0  0  0  0  0  0  0  0  0  0
  150.3052  143.6551  156.1203 H   0  0  0  0  0  0  0  0  0  0  0  0
  1  2  1  0  0  0  0
  1 23  1  0  0  0  0
  1 24  1  0  0  0  0
  1 25  1  0  0  0  0
  2  3  1  0  0  0  0
  3 22  1  0  0  0  0
  3  4  2  0  0  0  0
  4  5  1  0  0  0  0
  4 26  1  0  0  0  0
  5  6  2  0  0  0  0
  5 27  1  0  0  0  0
  6  7  1  0  0  0  0
  6 21  1  0  0  0  0
  7  8  1  0  0  0  0
  8  9  1  0  0  0  0
  8 28  1  0  0  0  0
  8 29  1  0  0  0  0
  9 10  1  0  0  0  0
  9 30  1  0  0  0  0
  9 31  1  0  0  0  0
 10 20  1  0  0  0  0
 10 11  1  0  0  0  0
 11 12  1  0  0  0  0
 11 14  2  0  0  0  0
 12 13  1  0  0  0  0
 12 32  1  0  0  0  0
 12 33  1  0  0  0  0
 13 34  1  0  0  0  0
 14 15  1  0  0  0  0
 14 41  1  0  0  0  0
 15 20  2  0  0  0  0
 15 16  1  0  0  0  0
 16 17  2  0  0  0  0
 16 35  1  0  0  0  0
 17 18  1  0  0  0  0
 17 36  1  0  0  0  0
 18 19  2  0  0  0  0
 18 37  1  0  0  0  0
 19 20  1  0  0  0  0
 19 38  1  0  0  0  0
 21 22  2  0  0  0  0
 21 39  1  0  0  0  0
 22 40  1  0  0  0  0
M  CHG  1  14   1
M  END
> <s_m_source_file>
AV-unprocessed.smi

> <i_m_source_file_index>
506

> <i_lp_mmshare_version>
43012

> <i_f3d_flags>
0

> <s_epik_input>
W0NIM11PYzFbY0hdW2NIXWMoW2NIXVtjSF0xKU9bQ0gyXVtDSDJdbihjKG4yKVtDSDJdW09IXSljKGMyMylbY0hdW2NIXVtjSF1bY0hdMw==

> <s_epik_cmdline>
J2VwaWtfcHl0aG9uJywgJy1waCcsICc3LjAnLCAnLXRuJywgJzgnLCAnLW1hJywgJzIwMCcsICctbWV0YWxfYmluZGluZycsICctaW1hZScsICc8aW5maWxlLm1hZT4nLCAnLW9tYWUnLCAnPG91dGZpbGUubWFlPic=

> <r_lp_tautomer_probability>
1

> <r_epik_Ionization_Penalty>
1.51027

> <r_epik_Ionization_Penalty_Charging>
1.50942

> <r_epik_Ionization_Penalty_Neutral>
0.000855784

> <r_epik_State_Penalty>
1.60032

> <r_epik_Charging_Adjusted_Penalty>
3.10973

> <i_epik_Tot_Q>
1

> <i_epik_Tot_abs_Q>
1

> <r_epik_Metal_State_Penalty>
5.65193

> <b_epik_Metal_Only>
0

> <s_lp_Force_Field>
OPLS_2005

> <r_lp_Energy>
22.2088

> <b_lp_Chiralities_Consistent>
1

> <s_lp_Variant>
AV-unprocessed.smi:506-2

> <Gold.Version>
5.8.1

> <Gold.Id.Protein>
6NUR|6NUR_protein|mol2

> <Gold.PLP.Fitness>
53.6322

> <Gold.PLP.PLP>
-47.1762

> <Gold.PLP.part.hbond>
-2.0000

> <Gold.PLP.part.metal>
0.0000

> <Gold.PLP.part.buried>
-6.6158

> <Gold.PLP.part.nonpolar>
-38.6211

> <Gold.PLP.part.repulsive>
0.0337

> <Gold.PLP.ligand.clash>
0.0005

> <Gold.PLP.ligand.torsion>
1.0168

> <Gold.PLP.Chemscore.Hbond>
2.8240

> <Gold.PLP.Chemscore.CHOScore>
0.0000

> <Gold.PLP.Chemscore.Metal>
0.0000

> <Gold.Chemscore.Hbonds>
donor molecule, donor type, donor heavy atom, donor atom, acceptor molecule, acceptor atom, score
      L1  H    14    41       P1  8028  1.76
      P1  H  7989  7998       L1    13  1.00

> <Gold.PLP.Chemscore.Internal.Correction>
0.0179

> <Gold.Rescore>
     Score         DG    S(hbond)    S(metal)    S(lipo)     H(rot)  DE(clash)    DE(int)     intcor
     19.97     -20.83       1.92        0.00     132.16       2.54       0.06       0.80       ----

> <Gold.Chemscore.Fitness>
19.9693

> <Gold.Chemscore.DG>
-20.8300

> <Gold.Chemscore.ZeroCoef>
-5.4800

> <Gold.Chemscore.Hbond>
1.9155

> <Gold.Chemscore.Metal>
0.0000

> <Gold.Chemscore.Lipo>
132.1576

> <Gold.Chemscore.Internal_Hbond>
0.0000

> <Gold.Chemscore.DEClash>
0.0593

> <Gold.Chemscore.DEInternal>
0.8014

> <Gold.Chemscore.Rot>
2.5431

> <Gold.Chemscore.Internal.Correction>
   9.000000E+99

> <Gold.Chemscore.Hbonds>
donor molecule, donor type, donor heavy atom, donor atom, acceptor molecule, acceptor atom, score
      L1  H    14    41       P1  8028  0.87
      P1  H  7989  7998       L1    13  0.82

> <Gold.Chemscore.Hbond.Weighted>
-6.3978

> <Gold.Chemscore.Metal.Weighted>
-0.0000

> <Gold.Chemscore.Lipo.Weighted>
-15.4624

> <Gold.Chemscore.Internal_Hbond.Weighted>
0.0000

> <Gold.Chemscore.DEClash.Weighted>
0.0593

> <Gold.Chemscore.DEInternal.Weighted>
0.8014

> <Gold.Chemscore.Rot.Weighted>
6.5103

> <Gold.Chemscore.Internal.Correction.Weighted>
   9.000000E+99

> <Gold.Protein.RotatedTorsions>
[ 6907 6896 6895 6894 ] final    3.70 input  -60.11 | X-H torsion
[ 7974 7965 7964 7962 ] final  106.26 input  175.53 | X-H torsion
[ 8008 7997 7996 7995 ] final    6.73 input   59.86 | X-H torsion
[ 10167 10162 10161 10158 ] final -157.30 input  -65.29 | X-H torsion
[ 10718 10713 10712 10709 ] final  112.86 input   66.30 | X-H torsion
[ 10763 10752 10751 10750 ] final   56.21 input  -60.55 | X-H torsion
[ 11005 11000 10999 10996 ] final -116.83 input  -57.11 | X-H torsion

> <Gold.Protein.ActiveResidues>
 VAL166  LYS551  ARG553  GLY616  TRP617  ASP618  TYR619  PRO620  LYS621  CYS622 
 ASP623  PHE694  ASN695  SER759  ASP760  ASP761  ALA762  ILE779  LEU786  VAL792 
 PHE793  MET794  SER795  GLU796  ALA797  LYS798  CYS799  TRP800  GLU811  SER814 

> <Gold.Protein.RotatedAtoms>
  151.6293  135.1024  160.0118 H   0  0  0  0  0  0  0  0  0  0  0  0  # atno 6907 bound_to 6896
  152.4115  133.6966  159.6410 H   0  0  0  0  0  0  0  0  0  0  0  0  # atno 6908 bound_to 6896
  150.8005  133.8533  159.3252 H   0  0  0  0  0  0  0  0  0  0  0  0  # atno 6909 bound_to 6896
  145.3090  139.2546  143.3773 H   0  0  0  0  0  0  0  0  0  0  0  0  # atno 7974 bound_to 7965
  154.7447  140.2755  155.6343 H   0  0  0  0  0  0  0  0  0  0  0  0  # atno 8008 bound_to 7997
  156.2882  140.2690  156.2110 H   0  0  0  0  0  0  0  0  0  0  0  0  # atno 8009 bound_to 7997
  155.0213  140.0371  157.2428 H   0  0  0  0  0  0  0  0  0  0  0  0  # atno 8010 bound_to 7997
  139.6781  143.9628  152.2322 H   0  0  0  0  0  0  0  0  0  0  0  0  # atno 10167 bound_to 10162
  157.6370  131.0974  150.6957 H   0  0  0  0  0  0  0  0  0  0  0  0  # atno 10718 bound_to 10713
  152.9828  135.5684  154.5192 H   0  0  0  0  0  0  0  0  0  0  0  0  # atno 10763 bound_to 10752
  154.4683  135.2784  155.1663 H   0  0  0  0  0  0  0  0  0  0  0  0  # atno 10764 bound_to 10752
  154.3222  135.6266  153.5566 H   0  0  0  0  0  0  0  0  0  0  0  0  # atno 10765 bound_to 10752
  141.0396  133.9856  157.3016 H   0  0  0  0  0  0  0  0  0  0  0  0  # atno 11005 bound_to 11000
  146.3125  140.3621  142.8666 LP  0  0  0  0  0  0  0  0  0  0  0  0  # atno 17320 bound_to 7965
  144.9031  140.7667  143.5854 LP  0  0  0  0  0  0  0  0  0  0  0  0  # atno 17321 bound_to 7965
  139.9410  144.6681  150.8266 LP  0  0  0  0  0  0  0  0  0  0  0  0  # atno 17342 bound_to 10162
  140.7643  143.3244  151.2548 LP  0  0  0  0  0  0  0  0  0  0  0  0  # atno 17343 bound_to 10162
  156.7287  130.4703  149.5505 LP  0  0  0  0  0  0  0  0  0  0  0  0  # atno 17370 bound_to 10713
  156.1617  130.6378  151.0727 LP  0  0  0  0  0  0  0  0  0  0  0  0  # atno 17371 bound_to 10713
  139.9266  135.0201  156.8255 LP  0  0  0  0  0  0  0  0  0  0  0  0  # atno 17394 bound_to 11000
  140.6259  133.9951  155.7639 LP  0  0  0  0  0  0  0  0  0  0  0  0  # atno 17395 bound_to 11000

$$$$
