AV-unprocessed.smi:2438|AV-procd|sdf|9600|dock7
  -GOLD-   2272013233D 1   1.00000     0.00000
 Structure written by MMmdl.
 44 45  0  0  0  0  0  0  0  0  2 V2000
  145.3927  142.1581  155.0548 C   0  0  0  0  0  0  0  0  0  0  0  0
  146.4914  142.3561  154.1195 N   0  0  0  0  0  0  0  0  0  0  0  0
  146.2474  143.2929  153.0296 C   0  0  0  0  0  0  0  0  0  0  0  0
  147.1678  141.1654  153.7862 C   0  0  0  0  0  0  0  0  0  0  0  0
  146.5355  140.2804  152.9815 N   0  0  0  0  0  0  0  0  0  0  0  0
  147.1358  139.1319  152.6549 C   0  0  0  0  0  0  0  0  0  0  0  0
  148.3591  138.8027  153.0886 N   0  3  0  0  0  0  0  0  0  0  0  0
  149.0369  139.6548  153.8941 C   0  0  0  0  0  0  0  0  0  0  0  0
  148.4627  140.8876  154.2880 C   0  0  0  0  0  0  0  0  0  0  0  0
  149.1282  141.8514  155.1008 N   0  0  0  0  0  0  0  0  0  0  0  0
  150.3011  141.7509  155.7485 C   0  0  0  0  0  0  0  0  0  0  0  0
  151.0266  140.7574  155.7544 O   0  0  0  0  0  0  0  0  0  0  0  0
  150.5834  142.8838  156.4076 N   0  0  0  0  0  0  0  0  0  0  0  0
  151.7783  143.1342  157.2098 C   0  0  1  0  0  0  0  0  0  0  0  0
  151.6945  144.5343  157.8439 C   0  0  0  0  0  0  0  0  0  0  0  0
  152.8960  144.8019  158.7624 C   0  0  0  0  0  0  0  0  0  0  0  0
  153.0282  143.7134  159.8391 C   0  0  0  0  0  0  0  0  0  0  0  0
  153.1265  142.3044  159.2166 C   0  0  1  0  0  0  0  0  0  0  0  0
  153.2779  141.2073  160.2904 C   0  0  0  0  0  0  0  0  0  0  0  0
  152.4156  141.3980  161.2892 F   0  0  0  0  0  0  0  0  0  0  0  0
  153.0560  140.0078  159.7526 F   0  0  0  0  0  0  0  0  0  0  0  0
  154.5165  141.2184  160.7830 F   0  0  0  0  0  0  0  0  0  0  0  0
  151.9162  142.0472  158.2926 C   0  0  0  0  0  0  0  0  0  0  0  0
  145.6989  141.5761  155.9242 H   0  0  0  0  0  0  0  0  0  0  0  0
  144.5684  141.6355  154.5683 H   0  0  0  0  0  0  0  0  0  0  0  0
  145.0216  143.1191  155.4121 H   0  0  0  0  0  0  0  0  0  0  0  0
  147.1432  143.4246  152.4210 H   0  0  0  0  0  0  0  0  0  0  0  0
  145.9678  144.2688  153.4271 H   0  0  0  0  0  0  0  0  0  0  0  0
  145.4382  142.9434  152.3869 H   0  0  0  0  0  0  0  0  0  0  0  0
  146.6389  138.4205  152.0118 H   0  0  0  0  0  0  0  0  0  0  0  0
  150.0201  139.3086  154.1711 H   0  0  0  0  0  0  0  0  0  0  0  0
  148.6246  142.7168  155.2341 H   0  0  0  0  0  0  0  0  0  0  0  0
  149.9201  143.6424  156.3447 H   0  0  0  0  0  0  0  0  0  0  0  0
  152.6710  143.0988  156.5826 H   0  0  0  0  0  0  0  0  0  0  0  0
  151.6504  145.2967  157.0651 H   0  0  0  0  0  0  0  0  0  0  0  0
  150.7724  144.6266  158.4198 H   0  0  0  0  0  0  0  0  0  0  0  0
  153.8094  144.8415  158.1676 H   0  0  0  0  0  0  0  0  0  0  0  0
  152.7918  145.7796  159.2338 H   0  0  0  0  0  0  0  0  0  0  0  0
  153.9082  143.9163  160.4499 H   0  0  0  0  0  0  0  0  0  0  0  0
  152.1702  143.7621  160.5107 H   0  0  0  0  0  0  0  0  0  0  0  0
  154.0252  142.2784  158.5981 H   0  0  0  0  0  0  0  0  0  0  0  0
  151.0039  142.0053  158.8897 H   0  0  0  0  0  0  0  0  0  0  0  0
  152.0160  141.0716  157.8155 H   0  0  0  0  0  0  0  0  0  0  0  0
  148.7895  137.9193  152.8137 H   0  0  0  0  0  0  0  0  0  0  0  0
  1  2  1  0  0  0  0
  1 24  1  0  0  0  0
  1 25  1  0  0  0  0
  1 26  1  0  0  0  0
  2  3  1  0  0  0  0
  2  4  1  0  0  0  0
  3 27  1  0  0  0  0
  3 28  1  0  0  0  0
  3 29  1  0  0  0  0
  4  9  1  0  0  0  0
  4  5  2  0  0  0  0
  5  6  1  0  0  0  0
  6  7  2  0  0  0  0
  6 30  1  0  0  0  0
  7  8  1  0  0  0  0
  7 44  1  0  0  0  0
  8  9  2  0  0  0  0
  8 31  1  0  0  0  0
  9 10  1  0  0  0  0
 10 11  1  0  0  0  0
 10 32  1  0  0  0  0
 11 12  2  0  0  0  0
 11 13  1  0  0  0  0
 13 14  1  0  0  0  0
 13 33  1  0  0  0  0
 14 23  1  0  0  0  0
 14 15  1  0  0  0  0
 14 34  1  0  0  0  0
 15 16  1  0  0  0  0
 15 35  1  0  0  0  0
 15 36  1  0  0  0  0
 16 17  1  0  0  0  0
 16 37  1  0  0  0  0
 16 38  1  0  0  0  0
 17 18  1  0  0  0  0
 17 39  1  0  0  0  0
 17 40  1  0  0  0  0
 18 19  1  0  0  0  0
 18 23  1  0  0  0  0
 18 41  1  0  0  0  0
 19 20  1  0  0  0  0
 19 21  1  0  0  0  0
 19 22  1  0  0  0  0
 23 42  1  0  0  0  0
 23 43  1  0  0  0  0
M  CHG  1   7   1
M  END
> <s_m_source_file>
AV-unprocessed.smi

> <i_m_source_file_index>
2438

> <i_lp_mmshare_version>
43012

> <i_f3d_flags>
0

> <s_epik_input>
W0NIM11OKFtDSDNdKWMxbltjSF1uW2NIXWMxW05IXUMoPU8pW05IXVtDQEBIXTJbQ0gyXVtDSDJdW0NIMl1bQ0BASF0oQyhGKShGKUYpW0NIMl0y

> <s_epik_cmdline>
J2VwaWtfcHl0aG9uJywgJy1waCcsICc3LjAnLCAnLXRuJywgJzgnLCAnLW1hJywgJzIwMCcsICctbWV0YWxfYmluZGluZycsICctaW1hZScsICc8aW5maWxlLm1hZT4nLCAnLW9tYWUnLCAnPG91dGZpbGUubWFlPic=

> <r_lp_tautomer_probability>
0.999336

> <r_epik_Ionization_Penalty>
2.11643

> <r_epik_Ionization_Penalty_Charging>
2.11639

> <r_epik_Ionization_Penalty_Neutral>
4.47523e-05

> <r_epik_State_Penalty>
2.25369

> <r_epik_Charging_Adjusted_Penalty>
4.37008

> <i_epik_Tot_Q>
1

> <i_epik_Tot_abs_Q>
1

> <r_epik_Metal_State_Penalty>
2.27019

> <b_epik_Metal_Only>
0

> <s_lp_Force_Field>
OPLS_2005

> <r_lp_Energy>
18.5988

> <b_lp_Chiralities_Consistent>
1

> <s_lp_Variant>
AV-unprocessed.smi:2438-6

> <Gold.Version>
5.8.1

> <Gold.Id.Protein>
6NUR|6NUR_protein|mol2

> <Gold.PLP.Fitness>
52.6376

> <Gold.PLP.PLP>
-42.2278

> <Gold.PLP.part.hbond>
-4.3389

> <Gold.PLP.part.metal>
0.0000

> <Gold.PLP.part.buried>
-2.4428

> <Gold.PLP.part.nonpolar>
-36.4732

> <Gold.PLP.part.repulsive>
2.6444

> <Gold.PLP.ligand.clash>
0.0000

> <Gold.PLP.ligand.torsion>
0.6108

> <Gold.PLP.Chemscore.Hbond>
3.7557

> <Gold.PLP.Chemscore.CHOScore>
0.0000

> <Gold.PLP.Chemscore.Metal>
0.0000

> <Gold.Chemscore.Hbonds>
donor molecule, donor type, donor heavy atom, donor atom, acceptor molecule, acceptor atom, score
      L1  H     7    44       P1  7948  2.00
      L1  H    10    32       P1  8028  0.81
      L1  H    13    33       P1  8028  1.00
      P1  H  7989  7998       L1    12  0.16

> <Gold.PLP.Chemscore.Internal.Correction>
0.3643

> <Gold.Rescore>
     Score         DG    S(hbond)    S(metal)    S(lipo)     H(rot)  DE(clash)    DE(int)     intcor
     16.03     -20.91       2.04        0.00     102.17       1.31       1.80       3.07       ----

> <Gold.Chemscore.Fitness>
16.0338

> <Gold.Chemscore.DG>
-20.9067

> <Gold.Chemscore.ZeroCoef>
-5.4800

> <Gold.Chemscore.Hbond>
2.0422

> <Gold.Chemscore.Metal>
0.0000

> <Gold.Chemscore.Lipo>
102.1702

> <Gold.Chemscore.Internal_Hbond>
0.0000

> <Gold.Chemscore.DEClash>
1.7988

> <Gold.Chemscore.DEInternal>
3.0741

> <Gold.Chemscore.Rot>
1.3078

> <Gold.Chemscore.Internal.Correction>
   9.000000E+99

> <Gold.Chemscore.Hbonds>
donor molecule, donor type, donor heavy atom, donor atom, acceptor molecule, acceptor atom, score
      L1  H     7    44       P1  7948  0.99
      L1  H    10    32       P1  8028  0.78
      L1  H    13    33       P1  8028  0.99
      P1  H  7989  7998       L1    12  0.02

> <Gold.Chemscore.Hbond.Weighted>
-6.8209

> <Gold.Chemscore.Metal.Weighted>
-0.0000

> <Gold.Chemscore.Lipo.Weighted>
-11.9539

> <Gold.Chemscore.Internal_Hbond.Weighted>
0.0000

> <Gold.Chemscore.DEClash.Weighted>
1.7988

> <Gold.Chemscore.DEInternal.Weighted>
3.0741

> <Gold.Chemscore.Rot.Weighted>
3.3481

> <Gold.Chemscore.Internal.Correction.Weighted>
   9.000000E+99

> <Gold.Protein.RotatedTorsions>
[ 6907 6896 6895 6894 ] final   61.79 input  -60.11 | X-H torsion
[ 7974 7965 7964 7962 ] final  -41.24 input  175.53 | X-H torsion
[ 8008 7997 7996 7995 ] final   81.14 input   59.86 | X-H torsion
[ 10167 10162 10161 10158 ] final  177.26 input  -65.29 | X-H torsion
[ 10718 10713 10712 10709 ] final -156.85 input   66.30 | X-H torsion
[ 10763 10752 10751 10750 ] final   40.53 input  -60.55 | X-H torsion
[ 11005 11000 10999 10996 ] final   76.88 input  -57.11 | X-H torsion

> <Gold.Protein.ActiveResidues>
 VAL166  LYS551  ARG553  GLY616  TRP617  ASP618  TYR619  PRO620  LYS621  CYS622 
 ASP623  PHE694  ASN695  SER759  ASP760  ASP761  ALA762  ILE779  LEU786  VAL792 
 PHE793  MET794  SER795  GLU796  ALA797  LYS798  CYS799  TRP800  GLU811  SER814 

> <Gold.Protein.RotatedAtoms>
  152.4118  134.6111  160.0025 H   0  0  0  0  0  0  0  0  0  0  0  0  # atno 6907 bound_to 6896
  151.6286  133.3328  159.3112 H   0  0  0  0  0  0  0  0  0  0  0  0  # atno 6908 bound_to 6896
  150.8009  134.7141  159.6665 H   0  0  0  0  0  0  0  0  0  0  0  0  # atno 6909 bound_to 6896
  146.0230  140.6827  142.9169 H   0  0  0  0  0  0  0  0  0  0  0  0  # atno 7974 bound_to 7965
  155.8930  140.3437  155.5970 H   0  0  0  0  0  0  0  0  0  0  0  0  # atno 8008 bound_to 7997
  155.7588  140.0830  157.2184 H   0  0  0  0  0  0  0  0  0  0  0  0  # atno 8009 bound_to 7997
  154.4035  140.1539  156.2796 H   0  0  0  0  0  0  0  0  0  0  0  0  # atno 8010 bound_to 7997
  139.5246  144.2819  152.0539 H   0  0  0  0  0  0  0  0  0  0  0  0  # atno 10167 bound_to 10162
  156.5322  130.8526  151.2720 H   0  0  0  0  0  0  0  0  0  0  0  0  # atno 10718 bound_to 10713
  152.9934  135.6189  154.2640 H   0  0  0  0  0  0  0  0  0  0  0  0  # atno 10763 bound_to 10752
  154.2375  135.2790  155.2868 H   0  0  0  0  0  0  0  0  0  0  0  0  # atno 10764 bound_to 10752
  154.5397  135.5764  153.6887 H   0  0  0  0  0  0  0  0  0  0  0  0  # atno 10765 bound_to 10752
  139.9279  134.7637  156.1451 H   0  0  0  0  0  0  0  0  0  0  0  0  # atno 11005 bound_to 11000
  144.6998  140.3599  143.7166 LP  0  0  0  0  0  0  0  0  0  0  0  0  # atno 17320 bound_to 7965
  145.7163  139.1698  143.2510 LP  0  0  0  0  0  0  0  0  0  0  0  0  # atno 17321 bound_to 7965
  140.2274  144.4403  150.6315 LP  0  0  0  0  0  0  0  0  0  0  0  0  # atno 17342 bound_to 10162
  140.6378  143.2198  151.6357 LP  0  0  0  0  0  0  0  0  0  0  0  0  # atno 17343 bound_to 10162
  157.7420  130.9881  150.2483 LP  0  0  0  0  0  0  0  0  0  0  0  0  # atno 17370 bound_to 10713
  156.3049  130.3763  149.7716 LP  0  0  0  0  0  0  0  0  0  0  0  0  # atno 17371 bound_to 10713
  141.0848  133.6738  156.2414 LP  0  0  0  0  0  0  0  0  0  0  0  0  # atno 17394 bound_to 11000
  140.6285  134.5289  157.5556 LP  0  0  0  0  0  0  0  0  0  0  0  0  # atno 17395 bound_to 11000

$$$$
