AV-unprocessed.smi:99|AV-procd|sdf|896|dock2
  -GOLD-   2262017393D 1   1.00000     0.00000
 Structure written by MMmdl.
 52 55  0  0  0  0  0  0  0  0  2 V2000
  145.0999  135.6185  153.3611 O   0  0  0  0  0  0  0  0  0  0  0  0
  145.6488  134.5172  153.2930 C   0  0  0  0  0  0  0  0  0  0  0  0
  146.6946  134.1538  154.0599 O   0  0  0  0  0  0  0  0  0  0  0  0
  147.2381  135.0499  155.0159 C   0  0  0  0  0  0  0  0  0  0  0  0
  148.1824  134.2733  155.9423 C   0  0  1  0  0  0  0  0  0  0  0  0
  149.2765  133.7526  155.1948 O   0  0  0  0  0  0  0  0  0  0  0  0
  150.3790  133.5482  156.0358 C   0  0  2  0  0  0  0  0  0  0  0  0
  150.6435  132.0604  156.1705 N   0  0  0  0  0  0  0  0  0  0  0  0
  149.8454  131.1218  155.5366 C   0  0  0  0  0  0  0  0  0  0  0  0
  150.0829  129.7998  155.6623 C   0  0  0  0  0  0  0  0  0  0  0  0
  151.2024  129.3467  156.4829 C   0  0  0  0  0  0  0  0  0  0  0  0
  151.4136  128.1402  156.5882 O   0  0  0  0  0  0  0  0  0  0  0  0
  151.9686  130.2905  157.1023 N   0  5  0  0  0  0  0  0  0  0  0  0
  151.7282  131.6285  156.9804 C   0  0  0  0  0  0  0  0  0  0  0  0
  152.4006  132.4899  157.5480 O   0  0  0  0  0  0  0  0  0  0  0  0
  150.0621  134.2330  157.3879 C   0  0  2  0  0  0  0  0  0  0  0  0
  149.6897  133.3094  158.4005 O   0  0  0  0  0  0  0  0  0  0  0  0
  148.8950  135.1246  156.9918 C   0  0  2  0  0  0  0  0  0  0  0  0
  148.0919  135.4881  158.1121 O   0  0  0  0  0  0  0  0  0  0  0  0
  148.6320  136.0627  159.2087 C   0  0  0  0  0  0  0  0  0  0  0  0
  149.7213  136.6394  159.2172 O   0  0  0  0  0  0  0  0  0  0  0  0
  147.7472  135.9657  160.4044 C   0  0  0  0  0  0  0  0  0  0  0  0
  148.0570  136.7226  161.5584 C   0  0  0  0  0  0  0  0  0  0  0  0
  147.2253  136.6719  162.6936 C   0  0  0  0  0  0  0  0  0  0  0  0
  146.0755  135.8612  162.6898 C   0  0  0  0  0  0  0  0  0  0  0  0
  145.7586  135.1006  161.5493 C   0  0  0  0  0  0  0  0  0  0  0  0
  146.5881  135.1515  160.4122 C   0  0  0  0  0  0  0  0  0  0  0  0
  145.2093  133.4313  152.3697 C   0  0  0  0  0  0  0  0  0  0  0  0
  146.1790  132.5898  151.7767 C   0  0  0  0  0  0  0  0  0  0  0  0
  145.7944  131.5719  150.8823 C   0  0  0  0  0  0  0  0  0  0  0  0
  144.4356  131.3830  150.5702 C   0  0  0  0  0  0  0  0  0  0  0  0
  143.4609  132.2106  151.1570 C   0  0  0  0  0  0  0  0  0  0  0  0
  143.8434  133.2273  152.0531 C   0  0  0  0  0  0  0  0  0  0  0  0
  147.7834  135.8348  154.4910 H   0  0  0  0  0  0  0  0  0  0  0  0
  146.4536  135.5296  155.6034 H   0  0  0  0  0  0  0  0  0  0  0  0
  147.6564  133.4418  156.4145 H   0  0  0  0  0  0  0  0  0  0  0  0
  151.2553  133.9621  155.5340 H   0  0  0  0  0  0  0  0  0  0  0  0
  149.0103  131.4361  154.9298 H   0  0  0  0  0  0  0  0  0  0  0  0
  149.4495  129.0817  155.1626 H   0  0  0  0  0  0  0  0  0  0  0  0
  150.9235  134.8087  157.7275 H   0  0  0  0  0  0  0  0  0  0  0  0
  148.7454  133.2800  158.4405 H   0  0  0  0  0  0  0  0  0  0  0  0
  149.3097  136.0061  156.5001 H   0  0  0  0  0  0  0  0  0  0  0  0
  148.9303  137.3584  161.5815 H   0  0  0  0  0  0  0  0  0  0  0  0
  147.4690  137.2587  163.5668 H   0  0  0  0  0  0  0  0  0  0  0  0
  145.4372  135.8226  163.5601 H   0  0  0  0  0  0  0  0  0  0  0  0
  144.8771  134.4768  161.5454 H   0  0  0  0  0  0  0  0  0  0  0  0
  146.3153  134.5573  159.5524 H   0  0  0  0  0  0  0  0  0  0  0  0
  147.2290  132.7202  151.9958 H   0  0  0  0  0  0  0  0  0  0  0  0
  146.5441  130.9373  150.4332 H   0  0  0  0  0  0  0  0  0  0  0  0
  144.1414  130.6051  149.8815 H   0  0  0  0  0  0  0  0  0  0  0  0
  142.4176  132.0703  150.9161 H   0  0  0  0  0  0  0  0  0  0  0  0
  143.0697  133.8492  152.4790 H   0  0  0  0  0  0  0  0  0  0  0  0
  1  2  2  0  0  0  0
  2  3  1  0  0  0  0
  2 28  1  0  0  0  0
  3  4  1  0  0  0  0
  4  5  1  0  0  0  0
  4 34  1  0  0  0  0
  4 35  1  0  0  0  0
  5 18  1  0  0  0  0
  5  6  1  0  0  0  0
  5 36  1  0  0  0  0
  6  7  1  0  0  0  0
  7  8  1  0  0  0  0
  7 16  1  0  0  0  0
  7 37  1  0  0  0  0
  8 14  1  0  0  0  0
  8  9  1  0  0  0  0
  9 10  2  0  0  0  0
  9 38  1  0  0  0  0
 10 11  1  0  0  0  0
 10 39  1  0  0  0  0
 11 12  2  0  0  0  0
 11 13  1  0  0  0  0
 13 14  1  0  0  0  0
 14 15  2  0  0  0  0
 16 17  1  0  0  0  0
 16 18  1  0  0  0  0
 16 40  1  0  0  0  0
 17 41  1  0  0  0  0
 18 19  1  0  0  0  0
 18 42  1  0  0  0  0
 19 20  1  0  0  0  0
 20 21  2  0  0  0  0
 20 22  1  0  0  0  0
 22 27  1  0  0  0  0
 22 23  2  0  0  0  0
 23 24  1  0  0  0  0
 23 43  1  0  0  0  0
 24 25  2  0  0  0  0
 24 44  1  0  0  0  0
 25 26  1  0  0  0  0
 25 45  1  0  0  0  0
 26 27  2  0  0  0  0
 26 46  1  0  0  0  0
 27 47  1  0  0  0  0
 28 33  1  0  0  0  0
 28 29  2  0  0  0  0
 29 30  1  0  0  0  0
 29 48  1  0  0  0  0
 30 31  2  0  0  0  0
 30 49  1  0  0  0  0
 31 32  1  0  0  0  0
 31 50  1  0  0  0  0
 32 33  2  0  0  0  0
 32 51  1  0  0  0  0
 33 52  1  0  0  0  0
M  CHG  1  13  -1
M  END
> <s_m_source_file>
AV-unprocessed.smi

> <i_m_source_file_index>
99

> <i_lp_mmshare_version>
43012

> <i_f3d_flags>
0

> <s_epik_input>
W2NIXTFbY0hdW2NIXVtjSF1bY0hdYzFDKD1PKU9bQ0gyXVtDQEBIXTJPW0NAQEhdKG4zW2NIXVtjSF1jKD1PKVtuSF1jMz1PKVtDQEBIXShbT0hdKVtDQEhdMk9DKD1PKWM0W2NIXVtjSF1bY0hdW2NIXVtjSF00

> <s_epik_cmdline>
J2VwaWtfcHl0aG9uJywgJy1waCcsICc3LjAnLCAnLXRuJywgJzgnLCAnLW1hJywgJzIwMCcsICctbWV0YWxfYmluZGluZycsICctaW1hZScsICc8aW5maWxlLm1hZT4nLCAnLW9tYWUnLCAnPG91dGZpbGUubWFlPic=

> <r_lp_tautomer_probability>
1

> <r_epik_Ionization_Penalty>
2.89159

> <r_epik_Ionization_Penalty_Charging>
2.1077e-08

> <r_epik_Ionization_Penalty_Neutral>
2.89159

> <r_epik_State_Penalty>
2.88671

> <r_epik_Charging_Adjusted_Penalty>
2.88671

> <i_epik_Tot_Q>
-1

> <i_epik_Tot_abs_Q>
1

> <r_epik_Metal_State_Penalty>
0.0727308

> <b_epik_Metal_Only>
1

> <s_epik_Chemistry_Notes>
This compound has an ester and may undergo hydrolysis at high or low pH. This compound contains an acetal/aminal-like group ( X-CH(R)-Y where X, Y are N, S, or O) that may be acid/base labile, releasing an aldehyde.

> <s_lp_Force_Field>
OPLS_2005

> <r_lp_Energy>
52.3549

> <b_lp_Chiralities_Consistent>
1

> <s_lp_Variant>
AV-unprocessed.smi:99-32

> <Gold.Version>
5.8.1

> <Gold.Id.Protein>
6NUR|6NUR_protein|mol2

> <Gold.PLP.Fitness>
51.3818

> <Gold.PLP.PLP>
-46.5782

> <Gold.PLP.part.hbond>
-2.0000

> <Gold.PLP.part.metal>
0.0000

> <Gold.PLP.part.buried>
-6.0041

> <Gold.PLP.part.nonpolar>
-38.2814

> <Gold.PLP.part.repulsive>
0.3443

> <Gold.PLP.ligand.clash>
0.0128

> <Gold.PLP.ligand.torsion>
0.9118

> <Gold.PLP.Chemscore.Hbond>
1.9913

> <Gold.PLP.Chemscore.CHOScore>
0.0000

> <Gold.PLP.Chemscore.Metal>
0.0000

> <Gold.Chemscore.Hbonds>
donor molecule, donor type, donor heavy atom, donor atom, acceptor molecule, acceptor atom, score
      P1  H  6896  6907       L1    17  0.57
      P1  H  6896  6908       L1    21  0.59

> <Gold.PLP.Chemscore.Internal.Correction>
0.6664

> <Gold.Rescore>
     Score         DG    S(hbond)    S(metal)    S(lipo)     H(rot)  DE(clash)    DE(int)     intcor
     11.27     -12.66       0.90        0.00     104.17       3.13       0.12       1.27       ----

> <Gold.Chemscore.Fitness>
11.2714

> <Gold.Chemscore.DG>
-12.6630

> <Gold.Chemscore.ZeroCoef>
-5.4800

> <Gold.Chemscore.Hbond>
0.9040

> <Gold.Chemscore.Metal>
0.0000

> <Gold.Chemscore.Lipo>
104.1727

> <Gold.Chemscore.Internal_Hbond>
0.0000

> <Gold.Chemscore.DEClash>
0.1214

> <Gold.Chemscore.DEInternal>
1.2701

> <Gold.Chemscore.Rot>
3.1346

> <Gold.Chemscore.Internal.Correction>
   9.000000E+99

> <Gold.Chemscore.Hbonds>
donor molecule, donor type, donor heavy atom, donor atom, acceptor molecule, acceptor atom, score
      P1  H  6896  6907       L1    15  0.12
      P1  H  6896  6908       L1    21  0.26

> <Gold.Chemscore.Hbond.Weighted>
-3.0193

> <Gold.Chemscore.Metal.Weighted>
-0.0000

> <Gold.Chemscore.Lipo.Weighted>
-12.1882

> <Gold.Chemscore.Internal_Hbond.Weighted>
0.0000

> <Gold.Chemscore.DEClash.Weighted>
0.1214

> <Gold.Chemscore.DEInternal.Weighted>
1.2701

> <Gold.Chemscore.Rot.Weighted>
8.0246

> <Gold.Chemscore.Internal.Correction.Weighted>
   9.000000E+99

> <Gold.Protein.RotatedTorsions>
[ 6907 6896 6895 6894 ] final -145.57 input  -60.11 | X-H torsion
[ 7974 7965 7964 7962 ] final    6.04 input  175.53 | X-H torsion
[ 8008 7997 7996 7995 ] final  -93.33 input   59.86 | X-H torsion
[ 10167 10162 10161 10158 ] final -128.98 input  -65.29 | X-H torsion
[ 10718 10713 10712 10709 ] final  -97.73 input   66.30 | X-H torsion
[ 10763 10752 10751 10750 ] final  128.48 input  -60.55 | X-H torsion
[ 11005 11000 10999 10996 ] final  -41.78 input  -57.11 | X-H torsion

> <Gold.Protein.ActiveResidues>
 VAL166  LYS551  ARG553  GLY616  TRP617  ASP618  TYR619  PRO620  LYS621  CYS622 
 ASP623  PHE694  ASN695  SER759  ASP760  ASP761  ALA762  ILE779  LEU786  VAL792 
 PHE793  MET794  SER795  GLU796  ALA797  LYS798  CYS799  TRP800  GLU811  SER814 

> <Gold.Protein.RotatedAtoms>
  151.1296  133.5046  159.2599 H   0  0  0  0  0  0  0  0  0  0  0  0  # atno 6907 bound_to 6896
  151.1772  135.0344  159.8787 H   0  0  0  0  0  0  0  0  0  0  0  0  # atno 6908 bound_to 6896
  152.5459  134.1153  159.8429 H   0  0  0  0  0  0  0  0  0  0  0  0  # atno 6909 bound_to 6896
  146.2437  140.0294  142.8391 H   0  0  0  0  0  0  0  0  0  0  0  0  # atno 7974 bound_to 7965
  154.7343  140.0500  157.0755 H   0  0  0  0  0  0  0  0  0  0  0  0  # atno 8008 bound_to 7997
  155.0261  140.3152  155.4756 H   0  0  0  0  0  0  0  0  0  0  0  0  # atno 8009 bound_to 7997
  156.2849  140.2158  156.5380 H   0  0  0  0  0  0  0  0  0  0  0  0  # atno 8010 bound_to 7997
  139.9446  143.6124  152.2493 H   0  0  0  0  0  0  0  0  0  0  0  0  # atno 10167 bound_to 10162
  156.0090  130.5207  150.6418 H   0  0  0  0  0  0  0  0  0  0  0  0  # atno 10718 bound_to 10713
  153.7262  135.3245  155.3277 H   0  0  0  0  0  0  0  0  0  0  0  0  # atno 10763 bound_to 10752
  154.8340  135.4511  154.1167 H   0  0  0  0  0  0  0  0  0  0  0  0  # atno 10764 bound_to 10752
  153.2302  135.6959  153.7979 H   0  0  0  0  0  0  0  0  0  0  0  0  # atno 10765 bound_to 10752
  141.0270  133.6837  156.2505 H   0  0  0  0  0  0  0  0  0  0  0  0  # atno 11005 bound_to 11000
  145.1169  140.9439  143.4623 LP  0  0  0  0  0  0  0  0  0  0  0  0  # atno 17320 bound_to 7965
  145.0520  139.3174  143.5924 LP  0  0  0  0  0  0  0  0  0  0  0  0  # atno 17321 bound_to 7965
  139.6677  144.7662  151.1842 LP  0  0  0  0  0  0  0  0  0  0  0  0  # atno 17342 bound_to 10162
  140.7601  143.5913  150.8794 LP  0  0  0  0  0  0  0  0  0  0  0  0  # atno 17343 bound_to 10162
  157.4196  131.0835  151.1143 LP  0  0  0  0  0  0  0  0  0  0  0  0  # atno 17370 bound_to 10713
  157.1749  130.6284  149.5652 LP  0  0  0  0  0  0  0  0  0  0  0  0  # atno 17371 bound_to 10713
  140.6474  134.5103  157.5575 LP  0  0  0  0  0  0  0  0  0  0  0  0  # atno 17394 bound_to 11000
  139.9182  134.8202  156.1295 LP  0  0  0  0  0  0  0  0  0  0  0  0  # atno 17395 bound_to 11000

$$$$
