AV-unprocessed.smi:1493|AV-procd|sdf|6051|dock6
  -GOLD-   22720 6163D 1   1.00000     0.00000
 Structure written by MMmdl.
 34 34  0  0  0  0  0  0  0  0  1 V2000
  151.7885  145.5466  159.5729 C   0  0  0  0  0  0  0  0  0  0  0  0
  152.3497  144.3576  160.3600 C   0  0  0  0  0  0  0  0  0  0  0  0
  152.4671  143.0850  159.5027 C   0  0  0  0  0  0  0  0  0  0  0  0
  153.1864  141.9238  160.2156 C   0  0  1  0  0  0  0  0  0  0  0  0
  153.2737  142.1521  161.7312 C   0  0  0  0  0  0  0  0  0  0  0  0
  152.4936  140.6631  159.9562 N   0  0  0  0  0  0  0  0  0  0  0  0
  153.0022  139.6001  159.3139 C   0  0  0  0  0  0  0  0  0  0  0  0
  154.1420  139.5703  158.8476 O   0  0  0  0  0  0  0  0  0  0  0  0
  152.0579  138.3980  159.1643 C   0  0  0  0  0  0  0  0  0  0  0  0
  151.6301  138.1559  157.7789 N   0  0  0  0  0  0  0  0  0  0  0  0
  152.0621  139.1162  156.8767 N   0  0  0  0  0  0  0  0  0  0  0  0
  151.7610  139.0081  155.6268 C   0  0  0  0  0  0  0  0  0  0  0  0
  152.2121  139.9797  154.7677 O   0  0  0  0  0  0  0  0  0  0  0  0
  150.9715  137.8982  155.1401 C   0  0  0  0  0  0  0  0  0  0  0  0
  150.5518  136.9697  156.0272 C   0  0  0  0  0  0  0  0  0  0  0  0
  150.8756  137.0617  157.4521 C   0  0  0  0  0  0  0  0  0  0  0  0
  150.5056  136.2319  158.2825 O   0  0  0  0  0  0  0  0  0  0  0  0
  152.9273  139.5827  154.2948 H   0  0  0  0  0  0  0  0  0  0  0  0
  151.7175  146.4321  160.2048 H   0  0  0  0  0  0  0  0  0  0  0  0
  150.7905  145.3304  159.1904 H   0  0  0  0  0  0  0  0  0  0  0  0
  152.4273  145.7935  158.7246 H   0  0  0  0  0  0  0  0  0  0  0  0
  153.3256  144.6302  160.7625 H   0  0  0  0  0  0  0  0  0  0  0  0
  151.7070  144.1607  161.2189 H   0  0  0  0  0  0  0  0  0  0  0  0
  151.4651  142.7603  159.2193 H   0  0  0  0  0  0  0  0  0  0  0  0
  152.9838  143.3194  158.5708 H   0  0  0  0  0  0  0  0  0  0  0  0
  154.2066  141.8807  159.8306 H   0  0  0  0  0  0  0  0  0  0  0  0
  153.8000  143.0795  161.9588 H   0  0  0  0  0  0  0  0  0  0  0  0
  153.8139  141.3401  162.2194 H   0  0  0  0  0  0  0  0  0  0  0  0
  152.2827  142.2119  162.1824 H   0  0  0  0  0  0  0  0  0  0  0  0
  151.5458  140.5934  160.2973 H   0  0  0  0  0  0  0  0  0  0  0  0
  152.5406  137.5047  159.5655 H   0  0  0  0  0  0  0  0  0  0  0  0
  151.1889  138.5710  159.8016 H   0  0  0  0  0  0  0  0  0  0  0  0
  150.7285  137.8223  154.0904 H   0  0  0  0  0  0  0  0  0  0  0  0
  149.9618  136.1352  155.6777 H   0  0  0  0  0  0  0  0  0  0  0  0
  1  2  1  0  0  0  0
  1 19  1  0  0  0  0
  1 20  1  0  0  0  0
  1 21  1  0  0  0  0
  2  3  1  0  0  0  0
  2 22  1  0  0  0  0
  2 23  1  0  0  0  0
  3  4  1  0  0  0  0
  3 24  1  0  0  0  0
  3 25  1  0  0  0  0
  4  5  1  0  0  0  0
  4  6  1  0  0  0  0
  4 26  1  0  0  0  0
  5 27  1  0  0  0  0
  5 28  1  0  0  0  0
  5 29  1  0  0  0  0
  6  7  1  0  0  0  0
  6 30  1  0  0  0  0
  7  8  2  0  0  0  0
  7  9  1  0  0  0  0
  9 31  1  0  0  0  0
  9 32  1  0  0  0  0
  9 10  1  0  0  0  0
 10 11  1  0  0  0  0
 10 16  1  0  0  0  0
 11 12  2  0  0  0  0
 12 13  1  0  0  0  0
 12 14  1  0  0  0  0
 13 18  1  0  0  0  0
 14 33  1  0  0  0  0
 14 15  2  0  0  0  0
 15 34  1  0  0  0  0
 15 16  1  0  0  0  0
 16 17  2  0  0  0  0
M  END
> <s_m_source_file>
AV-unprocessed.smi

> <i_m_source_file_index>
1493

> <i_lp_mmshare_version>
43012

> <i_f3d_flags>
0

> <s_epik_input>
W0NIM11bQ0gyXVtDSDJdW0NASF0oW0NIM10pW05IXUMoPU8pW0NIMl1uMVtuSF1jKD1PKVtjSF1bY0hdYzE9Tw==

> <s_epik_cmdline>
J2VwaWtfcHl0aG9uJywgJy1waCcsICc3LjAnLCAnLXRuJywgJzgnLCAnLW1hJywgJzIwMCcsICctbWV0YWxfYmluZGluZycsICctaW1hZScsICc8aW5maWxlLm1hZT4nLCAnLW9tYWUnLCAnPG91dGZpbGUubWFlPic=

> <r_lp_tautomer_probability>
0.9996

> <r_epik_Ionization_Penalty>
2.12047

> <r_epik_Ionization_Penalty_Charging>
3.81971e-08

> <r_epik_Ionization_Penalty_Neutral>
2.12047

> <r_epik_State_Penalty>
1.69728

> <r_epik_Charging_Adjusted_Penalty>
1.69728

> <i_epik_Tot_Q>
0

> <i_epik_Tot_abs_Q>
0

> <r_epik_Metal_State_Penalty>
1.69728

> <b_epik_Metal_Only>
0

> <s_lp_Force_Field>
OPLS_2005

> <r_lp_Energy>
15.6532

> <b_lp_Chiralities_Consistent>
1

> <s_lp_Variant>
AV-unprocessed.smi:1493-4

> <Gold.Version>
5.8.1

> <Gold.Id.Protein>
6NUR|6NUR_protein|mol2

> <Gold.PLP.Fitness>
39.5912

> <Gold.PLP.PLP>
-33.3478

> <Gold.PLP.part.hbond>
-2.9344

> <Gold.PLP.part.metal>
0.0000

> <Gold.PLP.part.buried>
-4.0946

> <Gold.PLP.part.nonpolar>
-25.9287

> <Gold.PLP.part.repulsive>
0.1418

> <Gold.PLP.ligand.clash>
0.0000

> <Gold.PLP.ligand.torsion>
0.7223

> <Gold.PLP.Chemscore.Hbond>
2.5520

> <Gold.PLP.Chemscore.CHOScore>
0.0000

> <Gold.PLP.Chemscore.Metal>
0.0000

> <Gold.Chemscore.Hbonds>
donor molecule, donor type, donor heavy atom, donor atom, acceptor molecule, acceptor atom, score
      P1  H  6896  6909       L1    17  0.82
      P1  H  7989  7998       L1    13  0.54
      P1  H  7997  8008       L1     8  1.00

> <Gold.PLP.Chemscore.Internal.Correction>
0.0319

> <Gold.Rescore>
     Score         DG    S(hbond)    S(metal)    S(lipo)     H(rot)  DE(clash)    DE(int)     intcor
     13.57     -15.54       2.50        0.00      75.39       2.78       0.08       1.89       ----

> <Gold.Chemscore.Fitness>
13.5733

> <Gold.Chemscore.DG>
-15.5445

> <Gold.Chemscore.ZeroCoef>
-5.4800

> <Gold.Chemscore.Hbond>
2.5021

> <Gold.Chemscore.Metal>
0.0000

> <Gold.Chemscore.Lipo>
75.3866

> <Gold.Chemscore.Internal_Hbond>
0.0000

> <Gold.Chemscore.DEClash>
0.0764

> <Gold.Chemscore.DEInternal>
1.8948

> <Gold.Chemscore.Rot>
2.7785

> <Gold.Chemscore.Internal.Correction>
   9.000000E+99

> <Gold.Chemscore.Hbonds>
donor molecule, donor type, donor heavy atom, donor atom, acceptor molecule, acceptor atom, score
      P1  H  6896  6909       L1    17  0.79
      P1  H  7989  7998       L1    13  0.07
      P1  H  7997  8008       L1     8  0.95

> <Gold.Chemscore.Hbond.Weighted>
-8.3572

> <Gold.Chemscore.Metal.Weighted>
-0.0000

> <Gold.Chemscore.Lipo.Weighted>
-8.8202

> <Gold.Chemscore.Internal_Hbond.Weighted>
0.0000

> <Gold.Chemscore.DEClash.Weighted>
0.0764

> <Gold.Chemscore.DEInternal.Weighted>
1.8948

> <Gold.Chemscore.Rot.Weighted>
7.1129

> <Gold.Chemscore.Internal.Correction.Weighted>
   9.000000E+99

> <Gold.Protein.RotatedTorsions>
[ 6907 6896 6895 6894 ] final   70.88 input  -60.11 | X-H torsion
[ 7974 7965 7964 7962 ] final  -69.75 input  175.53 | X-H torsion
[ 8008 7997 7996 7995 ] final -125.78 input   59.86 | X-H torsion
[ 10167 10162 10161 10158 ] final -152.24 input  -65.29 | X-H torsion
[ 10718 10713 10712 10709 ] final    5.80 input   66.30 | X-H torsion
[ 10763 10752 10751 10750 ] final   23.01 input  -60.55 | X-H torsion
[ 11005 11000 10999 10996 ] final  -51.25 input  -57.11 | X-H torsion

> <Gold.Protein.ActiveResidues>
 VAL166  LYS551  ARG553  GLY616  TRP617  ASP618  TYR619  PRO620  LYS621  CYS622 
 ASP623  PHE694  ASN695  SER759  ASP760  ASP761  ALA762  ILE779  LEU786  VAL792 
 PHE793  MET794  SER795  GLU796  ALA797  LYS798  CYS799  TRP800  GLU811  SER814 

> <Gold.Protein.RotatedAtoms>
  152.4777  134.4802  159.9662 H   0  0  0  0  0  0  0  0  0  0  0  0  # atno 6907 bound_to 6896
  151.4815  133.3539  159.2847 H   0  0  0  0  0  0  0  0  0  0  0  0  # atno 6908 bound_to 6896
  150.8826  134.8246  159.7297 H   0  0  0  0  0  0  0  0  0  0  0  0  # atno 6909 bound_to 6896
  145.6998  140.9121  143.0737 H   0  0  0  0  0  0  0  0  0  0  0  0  # atno 7974 bound_to 7965
  155.2189  140.0421  157.2945 H   0  0  0  0  0  0  0  0  0  0  0  0  # atno 8008 bound_to 7997
  154.5962  140.2440  155.7824 H   0  0  0  0  0  0  0  0  0  0  0  0  # atno 8009 bound_to 7997
  156.2292  140.2944  156.0153 H   0  0  0  0  0  0  0  0  0  0  0  0  # atno 8010 bound_to 7997
  139.7198  143.8975  152.2499 H   0  0  0  0  0  0  0  0  0  0  0  0  # atno 10167 bound_to 10162
  156.9127  130.5762  149.5647 H   0  0  0  0  0  0  0  0  0  0  0  0  # atno 10718 bound_to 10713
  153.0871  135.6636  153.9928 H   0  0  0  0  0  0  0  0  0  0  0  0  # atno 10763 bound_to 10752
  153.9534  135.2981  155.3439 H   0  0  0  0  0  0  0  0  0  0  0  0  # atno 10764 bound_to 10752
  154.7280  135.5135  153.8991 H   0  0  0  0  0  0  0  0  0  0  0  0  # atno 10765 bound_to 10752
  141.0860  133.6642  156.3849 H   0  0  0  0  0  0  0  0  0  0  0  0  # atno 11005 bound_to 11000
  144.6972  139.8933  143.7454 LP  0  0  0  0  0  0  0  0  0  0  0  0  # atno 17320 bound_to 7965
  146.0808  139.3795  143.0466 LP  0  0  0  0  0  0  0  0  0  0  0  0  # atno 17321 bound_to 7965
  139.8867  144.6988  150.8816 LP  0  0  0  0  0  0  0  0  0  0  0  0  # atno 17342 bound_to 10162
  140.7751  143.3618  151.1814 LP  0  0  0  0  0  0  0  0  0  0  0  0  # atno 17343 bound_to 10162
  156.0528  130.5595  150.9027 LP  0  0  0  0  0  0  0  0  0  0  0  0  # atno 17370 bound_to 10713
  157.5957  131.0943  150.9045 LP  0  0  0  0  0  0  0  0  0  0  0  0  # atno 17371 bound_to 10713
  140.5361  134.6166  157.5365 LP  0  0  0  0  0  0  0  0  0  0  0  0  # atno 17394 bound_to 11000
  139.9679  134.7342  156.0101 LP  0  0  0  0  0  0  0  0  0  0  0  0  # atno 17395 bound_to 11000

$$$$
