AV-unprocessed.smi:2416|AV-procd|sdf|9545|dock9
  -GOLD-   2272013173D 1   1.00000     0.00000
 Structure written by MMmdl.
 40 41  0  0  0  0  0  0  0  0  1 V2000
  155.7142  134.2539  161.6156 C   0  0  0  0  0  0  0  0  0  0  0  0
  156.2601  135.3493  162.3401 O   0  0  0  0  0  0  0  0  0  0  0  0
  155.3875  136.0427  163.2432 C   0  0  2  0  0  0  0  0  0  0  0  0
  154.8834  135.0945  164.3385 C   0  0  0  0  0  0  0  0  0  0  0  0
  154.3730  136.8942  162.4552 C   0  0  0  0  0  0  0  0  0  0  0  0
  155.4588  137.9642  162.3597 C   0  0  1  0  0  0  0  0  0  0  0  0
  154.9296  139.3195  162.4748 N   0  0  0  0  0  0  0  0  0  0  0  0
  154.2326  139.9410  161.5134 C   0  0  0  0  0  0  0  0  0  0  0  0
  153.9742  139.4263  160.4250 O   0  0  0  0  0  0  0  0  0  0  0  0
  153.8665  141.1774  161.8960 N   0  0  0  0  0  0  0  0  0  0  0  0
  153.1191  142.1376  161.1625 C   0  0  0  0  0  0  0  0  0  0  0  0
  152.3562  143.0306  161.9493 C   0  0  0  0  0  0  0  0  0  0  0  0
  151.5775  144.0197  161.3172 C   0  0  0  0  0  0  0  0  0  0  0  0
  151.5838  144.0896  159.9128 C   0  0  0  0  0  0  0  0  0  0  0  0
  150.8512  145.0232  159.2605 F   0  0  0  0  0  0  0  0  0  0  0  0
  152.3716  143.1648  159.2031 C   0  0  0  0  0  0  0  0  0  0  0  0
  153.1177  142.2160  159.8079 N   0  0  0  0  0  0  0  0  0  0  0  0
  156.0738  137.3851  163.6601 C   0  0  0  0  0  0  0  0  0  0  0  0
  155.5962  138.0032  164.9881 C   0  0  0  0  0  0  0  0  0  0  0  0
  157.6049  137.3797  163.7318 C   0  0  0  0  0  0  0  0  0  0  0  0
  156.4321  133.9357  160.8598 H   0  0  0  0  0  0  0  0  0  0  0  0
  154.7883  134.5132  161.1035 H   0  0  0  0  0  0  0  0  0  0  0  0
  155.5285  133.3976  162.2636 H   0  0  0  0  0  0  0  0  0  0  0  0
  154.3016  135.6213  165.0940 H   0  0  0  0  0  0  0  0  0  0  0  0
  155.7121  134.6030  164.8484 H   0  0  0  0  0  0  0  0  0  0  0  0
  154.2282  134.3206  163.9390 H   0  0  0  0  0  0  0  0  0  0  0  0
  154.0542  136.4944  161.4931 H   0  0  0  0  0  0  0  0  0  0  0  0
  153.5137  137.1945  163.0574 H   0  0  0  0  0  0  0  0  0  0  0  0
  156.0953  137.8123  161.4846 H   0  0  0  0  0  0  0  0  0  0  0  0
  155.1010  139.8085  163.3411 H   0  0  0  0  0  0  0  0  0  0  0  0
  154.1503  141.4627  162.8214 H   0  0  0  0  0  0  0  0  0  0  0  0
  152.3635  142.9615  163.0273 H   0  0  0  0  0  0  0  0  0  0  0  0
  150.9865  144.7107  161.9001 H   0  0  0  0  0  0  0  0  0  0  0  0
  152.4042  143.1856  158.1238 H   0  0  0  0  0  0  0  0  0  0  0  0
  155.9793  139.0154  165.1217 H   0  0  0  0  0  0  0  0  0  0  0  0
  155.9315  137.4176  165.8447 H   0  0  0  0  0  0  0  0  0  0  0  0
  154.5095  138.0646  165.0471 H   0  0  0  0  0  0  0  0  0  0  0  0
  157.9994  138.3703  163.9595 H   0  0  0  0  0  0  0  0  0  0  0  0
  158.0567  137.0752  162.7875 H   0  0  0  0  0  0  0  0  0  0  0  0
  157.9657  136.6952  164.5000 H   0  0  0  0  0  0  0  0  0  0  0  0
  1  2  1  0  0  0  0
  1 21  1  0  0  0  0
  1 22  1  0  0  0  0
  1 23  1  0  0  0  0
  2  3  1  0  0  0  0
  3 18  1  0  0  0  0
  3  4  1  0  0  0  0
  3  5  1  0  0  0  0
  4 24  1  0  0  0  0
  4 25  1  0  0  0  0
  4 26  1  0  0  0  0
  5  6  1  0  0  0  0
  5 27  1  0  0  0  0
  5 28  1  0  0  0  0
  6  7  1  0  0  0  0
  6 18  1  0  0  0  0
  6 29  1  0  0  0  0
  7  8  1  0  0  0  0
  7 30  1  0  0  0  0
  8  9  2  0  0  0  0
  8 10  1  0  0  0  0
 10 11  1  0  0  0  0
 10 31  1  0  0  0  0
 11 17  1  0  0  0  0
 11 12  2  0  0  0  0
 12 13  1  0  0  0  0
 12 32  1  0  0  0  0
 13 14  2  0  0  0  0
 13 33  1  0  0  0  0
 14 15  1  0  0  0  0
 14 16  1  0  0  0  0
 16 17  2  0  0  0  0
 16 34  1  0  0  0  0
 18 19  1  0  0  0  0
 18 20  1  0  0  0  0
 19 35  1  0  0  0  0
 19 36  1  0  0  0  0
 19 37  1  0  0  0  0
 20 38  1  0  0  0  0
 20 39  1  0  0  0  0
 20 40  1  0  0  0  0
M  END
> <s_m_source_file>
AV-unprocessed.smi

> <i_m_source_file_index>
2416

> <i_lp_mmshare_version>
43012

> <i_f3d_flags>
0

> <s_epik_input>
W0NIM11PW0NAQF0xKFtDSDNdKVtDSDJdW0NASF0oQzEoW0NIM10pW0NIM10pW05IXUMoPU8pW05IXWMyW2NIXVtjSF1jKEYpW2NIXW4y

> <s_epik_cmdline>
J2VwaWtfcHl0aG9uJywgJy1waCcsICc3LjAnLCAnLXRuJywgJzgnLCAnLW1hJywgJzIwMCcsICctbWV0YWxfYmluZGluZycsICctaW1hZScsICc8aW5maWxlLm1hZT4nLCAnLW9tYWUnLCAnPG91dGZpbGUubWFlPic=

> <r_lp_tautomer_probability>
1

> <r_epik_Ionization_Penalty>
3.67756e-05

> <r_epik_Ionization_Penalty_Charging>
0

> <r_epik_Ionization_Penalty_Neutral>
3.67756e-05

> <r_epik_State_Penalty>
-0

> <r_epik_Charging_Adjusted_Penalty>
0

> <i_epik_Tot_Q>
0

> <i_epik_Tot_abs_Q>
0

> <r_epik_Metal_State_Penalty>
-0

> <b_epik_Metal_Only>
0

> <s_lp_Force_Field>
OPLS_2005

> <r_lp_Energy>
27.4355

> <b_lp_Chiralities_Consistent>
1

> <s_lp_Variant>
AV-unprocessed.smi:2416-2

> <Gold.Version>
5.8.1

> <Gold.Id.Protein>
6NUR|6NUR_protein|mol2

> <Gold.PLP.Fitness>
42.1135

> <Gold.PLP.PLP>
-42.4707

> <Gold.PLP.part.hbond>
0.0000

> <Gold.PLP.part.metal>
0.0000

> <Gold.PLP.part.buried>
-6.0575

> <Gold.PLP.part.nonpolar>
-36.2113

> <Gold.PLP.part.repulsive>
0.0083

> <Gold.PLP.ligand.clash>
0.0000

> <Gold.PLP.ligand.torsion>
0.3651

> <Gold.PLP.Chemscore.Hbond>
0.0000

> <Gold.PLP.Chemscore.CHOScore>
0.0000

> <Gold.PLP.Chemscore.Metal>
0.0000

> <Gold.PLP.Chemscore.Internal.Correction>
0.3730

> <Gold.Rescore>
     Score         DG    S(hbond)    S(metal)    S(lipo)     H(rot)  DE(clash)    DE(int)     intcor
     12.57     -13.94       0.00        0.00     100.02       1.27       0.00       1.37       ----

> <Gold.Chemscore.Fitness>
12.5670

> <Gold.Chemscore.DG>
-13.9428

> <Gold.Chemscore.ZeroCoef>
-5.4800

> <Gold.Chemscore.Hbond>
0.0000

> <Gold.Chemscore.Metal>
0.0000

> <Gold.Chemscore.Lipo>
100.0178

> <Gold.Chemscore.Internal_Hbond>
0.0000

> <Gold.Chemscore.DEClash>
0.0019

> <Gold.Chemscore.DEInternal>
1.3740

> <Gold.Chemscore.Rot>
1.2653

> <Gold.Chemscore.Internal.Correction>
   9.000000E+99

> <Gold.Chemscore.Hbond.Weighted>
-0.0000

> <Gold.Chemscore.Metal.Weighted>
-0.0000

> <Gold.Chemscore.Lipo.Weighted>
-11.7021

> <Gold.Chemscore.Internal_Hbond.Weighted>
0.0000

> <Gold.Chemscore.DEClash.Weighted>
0.0019

> <Gold.Chemscore.DEInternal.Weighted>
1.3740

> <Gold.Chemscore.Rot.Weighted>
3.2392

> <Gold.Chemscore.Internal.Correction.Weighted>
   9.000000E+99

> <Gold.Protein.RotatedTorsions>
[ 6907 6896 6895 6894 ] final   49.78 input  -60.11 | X-H torsion
[ 7974 7965 7964 7962 ] final   11.63 input  175.53 | X-H torsion
[ 8008 7997 7996 7995 ] final -134.97 input   59.86 | X-H torsion
[ 10167 10162 10161 10158 ] final  -22.42 input  -65.29 | X-H torsion
[ 10718 10713 10712 10709 ] final  -53.31 input   66.30 | X-H torsion
[ 10763 10752 10751 10750 ] final  -29.18 input  -60.55 | X-H torsion
[ 11005 11000 10999 10996 ] final -122.87 input  -57.11 | X-H torsion

> <Gold.Protein.ActiveResidues>
 VAL166  LYS551  ARG553  GLY616  TRP617  ASP618  TYR619  PRO620  LYS621  CYS622 
 ASP623  PHE694  ASN695  SER759  ASP760  ASP761  ALA762  ILE779  LEU786  VAL792 
 PHE793  MET794  SER795  GLU796  ALA797  LYS798  CYS799  TRP800  GLU811  SER814 

> <Gold.Protein.RotatedAtoms>
  152.2945  134.7683  160.0370 H   0  0  0  0  0  0  0  0  0  0  0  0  # atno 6907 bound_to 6896
  151.8217  133.3390  159.3594 H   0  0  0  0  0  0  0  0  0  0  0  0  # atno 6908 bound_to 6896
  150.7245  134.5496  159.5832 H   0  0  0  0  0  0  0  0  0  0  0  0  # atno 6909 bound_to 6896
  146.2367  139.9456  142.8477 H   0  0  0  0  0  0  0  0  0  0  0  0  # atno 7974 bound_to 7965
  155.3709  140.0488  157.3045 H   0  0  0  0  0  0  0  0  0  0  0  0  # atno 8008 bound_to 7997
  154.5130  140.2198  155.9082 H   0  0  0  0  0  0  0  0  0  0  0  0  # atno 8009 bound_to 7997
  156.1605  140.3117  155.8804 H   0  0  0  0  0  0  0  0  0  0  0  0  # atno 8010 bound_to 7997
  140.7286  143.4537  151.0479 H   0  0  0  0  0  0  0  0  0  0  0  0  # atno 10167 bound_to 10162
  156.1546  130.4150  149.9890 H   0  0  0  0  0  0  0  0  0  0  0  0  # atno 10718 bound_to 10713
  153.7604  135.6919  153.4927 H   0  0  0  0  0  0  0  0  0  0  0  0  # atno 10763 bound_to 10752
  153.1942  135.4460  155.0186 H   0  0  0  0  0  0  0  0  0  0  0  0  # atno 10764 bound_to 10752
  154.8155  135.3397  154.7119 H   0  0  0  0  0  0  0  0  0  0  0  0  # atno 10765 bound_to 10752
  140.9963  134.0468  157.3594 H   0  0  0  0  0  0  0  0  0  0  0  0  # atno 11005 bound_to 11000
  145.1910  140.9812  143.4211 LP  0  0  0  0  0  0  0  0  0  0  0  0  # atno 17320 bound_to 7965
  144.9857  139.3739  143.6240 LP  0  0  0  0  0  0  0  0  0  0  0  0  # atno 17321 bound_to 7965
  139.8215  143.7813  152.3177 LP  0  0  0  0  0  0  0  0  0  0  0  0  # atno 17342 bound_to 10162
  139.7897  144.7414  150.9972 LP  0  0  0  0  0  0  0  0  0  0  0  0  # atno 17343 bound_to 10162
  156.7737  130.9196  151.3645 LP  0  0  0  0  0  0  0  0  0  0  0  0  # atno 17370 bound_to 10713
  157.6684  130.9029  149.9985 LP  0  0  0  0  0  0  0  0  0  0  0  0  # atno 17371 bound_to 10713
  139.9016  135.0166  156.7295 LP  0  0  0  0  0  0  0  0  0  0  0  0  # atno 17394 bound_to 11000
  140.6961  133.9347  155.7996 LP  0  0  0  0  0  0  0  0  0  0  0  0  # atno 17395 bound_to 11000

$$$$
