AV-unprocessed.smi:2997|AV-procd|sdf|11414|dock10
  -GOLD-   2272016333D 1   1.00000     0.00000
 Structure written by MMmdl.
 39 41  0  0  0  0  0  0  0  0  2 V2000
  152.4859  144.0472  161.1768 C   0  0  0  0  0  0  0  0  0  0  0  0
  152.2037  143.1564  159.9788 C   0  0  0  0  0  0  0  0  0  0  0  0
  151.4355  143.6806  158.9146 C   0  0  0  0  0  0  0  0  0  0  0  0
  151.1920  142.8406  157.8343 C   0  0  0  0  0  0  0  0  0  0  0  0
  150.4819  143.0533  156.6506 N   0  3  0  0  0  0  0  0  0  0  0  0
  150.5207  141.9251  155.8885 C   0  0  0  0  0  0  0  0  0  0  0  0
  151.2441  140.9956  156.5697 N   0  0  0  0  0  0  0  0  0  0  0  0
  151.5963  139.6182  156.2009 C   0  0  0  0  0  0  0  0  0  0  0  0
  150.8262  139.1166  154.9645 C   0  0  2  0  0  0  0  0  0  0  0  0
  149.4781  138.8683  155.3184 O   0  0  0  0  0  0  0  0  0  0  0  0
  151.4572  137.8424  154.3724 C   0  0  0  0  0  0  0  0  0  0  0  0
  151.0648  136.6431  155.0916 N   0  0  0  0  0  0  0  0  0  0  0  0
  149.9004  135.9147  154.9679 C   0  0  0  0  0  0  0  0  0  0  0  0
  149.9745  134.8763  155.8513 C   0  0  0  0  0  0  0  0  0  0  0  0
  151.2399  135.0547  156.4771 C   0  0  0  0  0  0  0  0  0  0  0  0
  151.8895  136.1135  156.0210 N   0  0  0  0  0  0  0  0  0  0  0  0
  151.6845  141.5220  157.7878 C   0  0  0  0  0  0  0  0  0  0  0  0
  152.4456  140.9904  158.8256 C   0  0  0  0  0  0  0  0  0  0  0  0
  152.7030  141.8286  159.9343 C   0  0  0  0  0  0  0  0  0  0  0  0
  153.5273  141.2755  161.0844 C   0  0  0  0  0  0  0  0  0  0  0  0
  152.0172  145.0255  161.0664 H   0  0  0  0  0  0  0  0  0  0  0  0
  153.5586  144.2032  161.2937 H   0  0  0  0  0  0  0  0  0  0  0  0
  152.0994  143.5948  162.0902 H   0  0  0  0  0  0  0  0  0  0  0  0
  151.0538  144.6907  158.9409 H   0  0  0  0  0  0  0  0  0  0  0  0
  150.0656  141.7926  154.9175 H   0  0  0  0  0  0  0  0  0  0  0  0
  152.6739  139.5672  156.0397 H   0  0  0  0  0  0  0  0  0  0  0  0
  151.3828  138.9840  157.0624 H   0  0  0  0  0  0  0  0  0  0  0  0
  150.8280  139.8966  154.2021 H   0  0  0  0  0  0  0  0  0  0  0  0
  148.9942  138.6674  154.5312 H   0  0  0  0  0  0  0  0  0  0  0  0
  151.1536  137.7239  153.3317 H   0  0  0  0  0  0  0  0  0  0  0  0
  152.5460  137.9182  154.3719 H   0  0  0  0  0  0  0  0  0  0  0  0
  149.1244  136.1942  154.2707 H   0  0  0  0  0  0  0  0  0  0  0  0
  149.2378  134.1057  156.0241 H   0  0  0  0  0  0  0  0  0  0  0  0
  151.7022  134.4511  157.2442 H   0  0  0  0  0  0  0  0  0  0  0  0
  152.8251  139.9800  158.7904 H   0  0  0  0  0  0  0  0  0  0  0  0
  153.8583  140.2561  160.8842 H   0  0  0  0  0  0  0  0  0  0  0  0
  152.9398  141.2611  162.0025 H   0  0  0  0  0  0  0  0  0  0  0  0
  154.4148  141.8867  161.2494 H   0  0  0  0  0  0  0  0  0  0  0  0
  150.0069  143.9047  156.3791 H   0  0  0  0  0  0  0  0  0  0  0  0
  1  2  1  0  0  0  0
  1 21  1  0  0  0  0
  1 22  1  0  0  0  0
  1 23  1  0  0  0  0
  2 19  1  0  0  0  0
  2  3  2  0  0  0  0
  3  4  1  0  0  0  0
  3 24  1  0  0  0  0
  4 17  2  0  0  0  0
  4  5  1  0  0  0  0
  5  6  2  0  0  0  0
  5 39  1  0  0  0  0
  6  7  1  0  0  0  0
  6 25  1  0  0  0  0
  7  8  1  0  0  0  0
  7 17  1  0  0  0  0
  8  9  1  0  0  0  0
  8 26  1  0  0  0  0
  8 27  1  0  0  0  0
  9 10  1  0  0  0  0
  9 11  1  0  0  0  0
  9 28  1  0  0  0  0
 10 29  1  0  0  0  0
 11 12  1  0  0  0  0
 11 30  1  0  0  0  0
 11 31  1  0  0  0  0
 12 16  1  0  0  0  0
 12 13  1  0  0  0  0
 13 14  2  0  0  0  0
 13 32  1  0  0  0  0
 14 15  1  0  0  0  0
 14 33  1  0  0  0  0
 15 16  2  0  0  0  0
 15 34  1  0  0  0  0
 17 18  1  0  0  0  0
 18 19  2  0  0  0  0
 18 35  1  0  0  0  0
 19 20  1  0  0  0  0
 20 36  1  0  0  0  0
 20 37  1  0  0  0  0
 20 38  1  0  0  0  0
M  CHG  1   5   1
M  END
> <s_m_source_file>
AV-unprocessed.smi

> <i_m_source_file_index>
2997

> <i_lp_mmshare_version>
43012

> <i_f3d_flags>
0

> <s_epik_input>
W0NIM11jKFtjSF0xKWMoW0NIM10pW2NIXWMoYzEyKW4oW2NIXW4yKVtDSDJdW0NASF0oW09IXSlbQ0gyXW4zW2NIXVtjSF1bY0hdbjM=

> <s_epik_cmdline>
J2VwaWtfcHl0aG9uJywgJy1waCcsICc3LjAnLCAnLXRuJywgJzgnLCAnLW1hJywgJzIwMCcsICctbWV0YWxfYmluZGluZycsICctaW1hZScsICc8aW5maWxlLm1hZT4nLCAnLW9tYWUnLCAnPG91dGZpbGUubWFlPic=

> <r_lp_tautomer_probability>
1

> <r_epik_Ionization_Penalty>
1.09215

> <r_epik_Ionization_Penalty_Charging>
1.09214

> <r_epik_Ionization_Penalty_Neutral>
1.42327e-05

> <r_epik_State_Penalty>
1.14852

> <r_epik_Charging_Adjusted_Penalty>
2.24066

> <i_epik_Tot_Q>
1

> <i_epik_Tot_abs_Q>
1

> <r_epik_Metal_State_Penalty>
1.23686

> <b_epik_Metal_Only>
0

> <s_lp_Force_Field>
OPLS_2005

> <r_lp_Energy>
13.1956

> <b_lp_Chiralities_Consistent>
1

> <s_lp_Variant>
AV-unprocessed.smi:2997-3

> <Gold.Version>
5.8.1

> <Gold.Id.Protein>
6NUR|6NUR_protein|mol2

> <Gold.PLP.Fitness>
53.5920

> <Gold.PLP.PLP>
-42.9653

> <Gold.PLP.part.hbond>
-1.9231

> <Gold.PLP.part.metal>
0.0000

> <Gold.PLP.part.buried>
-5.2629

> <Gold.PLP.part.nonpolar>
-35.9846

> <Gold.PLP.part.repulsive>
0.0736

> <Gold.PLP.ligand.clash>
0.0000

> <Gold.PLP.ligand.torsion>
0.6923

> <Gold.PLP.Chemscore.Hbond>
3.0000

> <Gold.PLP.Chemscore.CHOScore>
1.0000

> <Gold.PLP.Chemscore.Metal>
0.0000

> <Gold.Chemscore.Hbonds>
donor molecule, donor type, donor heavy atom, donor atom, acceptor molecule, acceptor atom, score
      L1  H     5    39       P1  8028  2.00
      P1  H 10752 10765       L1    16  1.00
      L1  C    13    32       P1  7948  1.00

> <Gold.PLP.Chemscore.Internal.Correction>
0.0112

> <Gold.Rescore>
     Score         DG    S(hbond)    S(metal)    S(lipo)     H(rot)  DE(clash)    DE(int)     intcor
     16.18     -16.94       1.24        0.00     110.88       2.21       0.10       0.67       ----

> <Gold.Chemscore.Fitness>
16.1770

> <Gold.Chemscore.DG>
-16.9398

> <Gold.Chemscore.ZeroCoef>
-5.4800

> <Gold.Chemscore.Hbond>
1.2429

> <Gold.Chemscore.Metal>
0.0000

> <Gold.Chemscore.Lipo>
110.8840

> <Gold.Chemscore.Internal_Hbond>
0.0000

> <Gold.Chemscore.DEClash>
0.0951

> <Gold.Chemscore.DEInternal>
0.6677

> <Gold.Chemscore.Rot>
2.2129

> <Gold.Chemscore.Internal.Correction>
   9.000000E+99

> <Gold.Chemscore.Hbonds>
donor molecule, donor type, donor heavy atom, donor atom, acceptor molecule, acceptor atom, score
      L1  H     5    39       P1  8028  0.94
      P1  H 10752 10765       L1    16  0.17

> <Gold.Chemscore.Hbond.Weighted>
-4.1513

> <Gold.Chemscore.Metal.Weighted>
-0.0000

> <Gold.Chemscore.Lipo.Weighted>
-12.9734

> <Gold.Chemscore.Internal_Hbond.Weighted>
0.0000

> <Gold.Chemscore.DEClash.Weighted>
0.0951

> <Gold.Chemscore.DEInternal.Weighted>
0.6677

> <Gold.Chemscore.Rot.Weighted>
5.6649

> <Gold.Chemscore.Internal.Correction.Weighted>
   9.000000E+99

> <Gold.Protein.RotatedTorsions>
[ 6907 6896 6895 6894 ] final -178.20 input  -60.11 | X-H torsion
[ 7974 7965 7964 7962 ] final  -88.51 input  175.53 | X-H torsion
[ 8008 7997 7996 7995 ] final  -54.38 input   59.86 | X-H torsion
[ 10167 10162 10161 10158 ] final   21.64 input  -65.29 | X-H torsion
[ 10718 10713 10712 10709 ] final   49.64 input   66.30 | X-H torsion
[ 10763 10752 10751 10750 ] final -148.82 input  -60.55 | X-H torsion
[ 11005 11000 10999 10996 ] final  177.27 input  -57.11 | X-H torsion

> <Gold.Protein.ActiveResidues>
 VAL166  LYS551  ARG553  GLY616  TRP617  ASP618  TYR619  PRO620  LYS621  CYS622 
 ASP623  PHE694  ASN695  SER759  ASP760  ASP761  ALA762  ILE779  LEU786  VAL792 
 PHE793  MET794  SER795  GLU796  ALA797  LYS798  CYS799  TRP800  GLU811  SER814 

> <Gold.Protein.RotatedAtoms>
  151.6334  133.3330  159.3113 H   0  0  0  0  0  0  0  0  0  0  0  0  # atno 6907 bound_to 6896
  150.8045  134.7164  159.6643 H   0  0  0  0  0  0  0  0  0  0  0  0  # atno 6908 bound_to 6896
  152.4139  134.6080  160.0069 H   0  0  0  0  0  0  0  0  0  0  0  0  # atno 6909 bound_to 6896
  145.4523  140.9561  143.2016 H   0  0  0  0  0  0  0  0  0  0  0  0  # atno 7974 bound_to 7965
  154.4161  140.1177  156.5307 H   0  0  0  0  0  0  0  0  0  0  0  0  # atno 8008 bound_to 7997
  155.6609  140.3496  155.4763 H   0  0  0  0  0  0  0  0  0  0  0  0  # atno 8009 bound_to 7997
  155.9714  140.1142  157.0798 H   0  0  0  0  0  0  0  0  0  0  0  0  # atno 8010 bound_to 7997
  140.5411  143.9675  150.6520 H   0  0  0  0  0  0  0  0  0  0  0  0  # atno 10167 bound_to 10162
  157.4806  130.8313  149.8089 H   0  0  0  0  0  0  0  0  0  0  0  0  # atno 10718 bound_to 10713
  154.8212  135.3325  154.7032 H   0  0  0  0  0  0  0  0  0  0  0  0  # atno 10763 bound_to 10752
  153.7665  135.6929  153.4919 H   0  0  0  0  0  0  0  0  0  0  0  0  # atno 10764 bound_to 10752
  153.2074  135.4494  155.0288 H   0  0  0  0  0  0  0  0  0  0  0  0  # atno 10765 bound_to 10752
  140.3823  134.6935  157.4458 H   0  0  0  0  0  0  0  0  0  0  0  0  # atno 11005 bound_to 11000
  144.8054  139.6061  143.7053 LP  0  0  0  0  0  0  0  0  0  0  0  0  # atno 17320 bound_to 7965
  146.2498  139.6174  142.9435 LP  0  0  0  0  0  0  0  0  0  0  0  0  # atno 17321 bound_to 7965
  140.3076  143.3219  152.0910 LP  0  0  0  0  0  0  0  0  0  0  0  0  # atno 17342 bound_to 10162
  139.4989  144.6657  151.6362 LP  0  0  0  0  0  0  0  0  0  0  0  0  # atno 17343 bound_to 10162
  156.0119  130.3829  150.2235 LP  0  0  0  0  0  0  0  0  0  0  0  0  # atno 17370 bound_to 10713
  157.0421  131.0038  151.3280 LP  0  0  0  0  0  0  0  0  0  0  0  0  # atno 17371 bound_to 10713
  140.0469  134.6186  155.8910 LP  0  0  0  0  0  0  0  0  0  0  0  0  # atno 17394 bound_to 11000
  141.1919  133.6573  156.5478 LP  0  0  0  0  0  0  0  0  0  0  0  0  # atno 17395 bound_to 11000

$$$$
