AV-unprocessed.smi:1444|AV-procd|sdf|5884|dock6
  -GOLD-   22720 5563D 1   1.00000     0.00000
 Structure written by MMmdl.
 44 45  0  0  0  0  0  0  0  0  2 V2000
  151.6387  138.3942  154.6381 C   0  0  0  0  0  0  0  0  0  0  0  0
  150.3024  138.2676  154.1644 O   0  0  0  0  0  0  0  0  0  0  0  0
  149.4801  139.3780  154.2002 C   0  0  0  0  0  0  0  0  0  0  0  0
  149.9926  140.5436  154.6677 N   0  0  0  0  0  0  0  0  0  0  0  0
  149.1931  141.6286  154.7039 C   0  0  0  0  0  0  0  0  0  0  0  0
  147.8516  141.6096  154.2814 C   0  0  0  0  0  0  0  0  0  0  0  0
  147.3170  140.4019  153.7957 C   0  0  0  0  0  0  0  0  0  0  0  0
  148.1444  139.2520  153.7496 C   0  0  0  0  0  0  0  0  0  0  0  0
  147.7282  137.9729  153.2811 N   0  0  0  0  0  0  0  0  0  0  0  0
  146.5109  137.4040  153.2887 C   0  0  0  0  0  0  0  0  0  0  0  0
  145.4849  137.9038  153.7475 O   0  0  0  0  0  0  0  0  0  0  0  0
  146.5503  136.1842  152.7324 N   0  0  0  0  0  0  0  0  0  0  0  0
  145.4105  135.2887  152.5307 C   0  0  1  0  0  0  0  0  0  0  0  0
  144.3299  136.0321  151.7339 C   0  0  0  0  0  0  0  0  0  0  0  0
  145.8343  133.9853  151.8152 C   0  0  0  0  0  0  0  0  0  0  0  0
  146.5189  133.0216  152.7138 N   0  3  0  0  0  0  0  0  0  0  0  0
  146.3179  131.6045  152.3245 C   0  0  0  0  0  0  0  0  0  0  0  0
  146.9941  130.6721  153.3432 C   0  0  0  0  0  0  0  0  0  0  0  0
  148.3774  130.9908  153.4357 O   0  0  0  0  0  0  0  0  0  0  0  0
  148.5884  132.3245  153.8832 C   0  0  0  0  0  0  0  0  0  0  0  0
  147.9617  133.3115  152.8835 C   0  0  0  0  0  0  0  0  0  0  0  0
  152.1478  137.4356  154.5407 H   0  0  0  0  0  0  0  0  0  0  0  0
  151.6641  138.6761  155.6917 H   0  0  0  0  0  0  0  0  0  0  0  0
  152.2004  139.1271  154.0572 H   0  0  0  0  0  0  0  0  0  0  0  0
  149.6359  142.5387  155.0812 H   0  0  0  0  0  0  0  0  0  0  0  0
  147.2464  142.5030  154.3282 H   0  0  0  0  0  0  0  0  0  0  0  0
  146.2887  140.3949  153.4738 H   0  0  0  0  0  0  0  0  0  0  0  0
  148.4649  137.4197  152.8673 H   0  0  0  0  0  0  0  0  0  0  0  0
  147.4414  135.8579  152.3870 H   0  0  0  0  0  0  0  0  0  0  0  0
  144.9732  135.0441  153.4996 H   0  0  0  0  0  0  0  0  0  0  0  0
  143.4464  135.4086  151.5948 H   0  0  0  0  0  0  0  0  0  0  0  0
  144.6903  136.3221  150.7462 H   0  0  0  0  0  0  0  0  0  0  0  0
  144.0124  136.9380  152.2517 H   0  0  0  0  0  0  0  0  0  0  0  0
  144.9732  133.5014  151.3515 H   0  0  0  0  0  0  0  0  0  0  0  0
  146.5067  134.2517  150.9982 H   0  0  0  0  0  0  0  0  0  0  0  0
  145.2550  131.3707  152.2718 H   0  0  0  0  0  0  0  0  0  0  0  0
  146.7325  131.4334  151.3300 H   0  0  0  0  0  0  0  0  0  0  0  0
  146.5207  130.7569  154.3230 H   0  0  0  0  0  0  0  0  0  0  0  0
  146.8911  129.6335  153.0283 H   0  0  0  0  0  0  0  0  0  0  0  0
  148.1641  132.4576  154.8796 H   0  0  0  0  0  0  0  0  0  0  0  0
  149.6606  132.5039  153.9668 H   0  0  0  0  0  0  0  0  0  0  0  0
  148.4665  133.2418  151.9187 H   0  0  0  0  0  0  0  0  0  0  0  0
  148.0958  134.3316  153.2450 H   0  0  0  0  0  0  0  0  0  0  0  0
  146.0992  133.1366  153.6257 H   0  0  0  0  0  0  0  0  0  0  0  0
  1  2  1  0  0  0  0
  1 22  1  0  0  0  0
  1 23  1  0  0  0  0
  1 24  1  0  0  0  0
  2  3  1  0  0  0  0
  3  8  1  0  0  0  0
  3  4  2  0  0  0  0
  4  5  1  0  0  0  0
  5  6  2  0  0  0  0
  5 25  1  0  0  0  0
  6  7  1  0  0  0  0
  6 26  1  0  0  0  0
  7  8  2  0  0  0  0
  7 27  1  0  0  0  0
  8  9  1  0  0  0  0
  9 10  1  0  0  0  0
  9 28  1  0  0  0  0
 10 11  2  0  0  0  0
 10 12  1  0  0  0  0
 12 13  1  0  0  0  0
 12 29  1  0  0  0  0
 13 14  1  0  0  0  0
 13 15  1  0  0  0  0
 13 30  1  0  0  0  0
 14 31  1  0  0  0  0
 14 32  1  0  0  0  0
 14 33  1  0  0  0  0
 15 16  1  0  0  0  0
 15 34  1  0  0  0  0
 15 35  1  0  0  0  0
 16 21  1  0  0  0  0
 16 17  1  0  0  0  0
 16 44  1  0  0  0  0
 17 18  1  0  0  0  0
 17 36  1  0  0  0  0
 17 37  1  0  0  0  0
 18 19  1  0  0  0  0
 18 38  1  0  0  0  0
 18 39  1  0  0  0  0
 19 20  1  0  0  0  0
 20 21  1  0  0  0  0
 20 40  1  0  0  0  0
 20 41  1  0  0  0  0
 21 42  1  0  0  0  0
 21 43  1  0  0  0  0
M  CHG  1  16   1
M  END
> <s_m_source_file>
AV-unprocessed.smi

> <i_m_source_file_index>
1444

> <i_lp_mmshare_version>
43012

> <i_f3d_flags>
0

> <s_epik_input>
W0NIM11PYzFuW2NIXVtjSF1bY0hdYzFbTkhdQyg9TylbTkhdW0NASF0oW0NIM10pW0NIMl1OMltDSDJdW0NIMl1PW0NIMl1bQ0gyXTI=

> <s_epik_cmdline>
J2VwaWtfcHl0aG9uJywgJy1waCcsICc3LjAnLCAnLXRuJywgJzgnLCAnLW1hJywgJzIwMCcsICctbWV0YWxfYmluZGluZycsICctaW1hZScsICc8aW5maWxlLm1hZT4nLCAnLW9tYWUnLCAnPG91dGZpbGUubWFlPic=

> <r_lp_tautomer_probability>
1

> <r_epik_Ionization_Penalty>
0.602604

> <r_epik_Ionization_Penalty_Charging>
0.602531

> <r_epik_Ionization_Penalty_Neutral>
7.37688e-05

> <r_epik_State_Penalty>
0.617039

> <r_epik_Charging_Adjusted_Penalty>
1.21957

> <i_epik_Tot_Q>
1

> <i_epik_Tot_abs_Q>
1

> <r_epik_Metal_State_Penalty>
0.617045

> <b_epik_Metal_Only>
0

> <s_lp_Force_Field>
OPLS_2005

> <r_lp_Energy>
24.8141

> <b_lp_Chiralities_Consistent>
1

> <s_lp_Variant>
AV-unprocessed.smi:1444-4

> <Gold.Version>
5.8.1

> <Gold.Id.Protein>
6NUR|6NUR_protein|mol2

> <Gold.PLP.Fitness>
43.1228

> <Gold.PLP.PLP>
-32.7112

> <Gold.PLP.part.hbond>
-3.0000

> <Gold.PLP.part.metal>
0.0000

> <Gold.PLP.part.buried>
-2.2754

> <Gold.PLP.part.nonpolar>
-27.9668

> <Gold.PLP.part.repulsive>
0.6414

> <Gold.PLP.ligand.clash>
0.0000

> <Gold.PLP.ligand.torsion>
0.6477

> <Gold.PLP.Chemscore.Hbond>
2.8720

> <Gold.PLP.Chemscore.CHOScore>
1.0000

> <Gold.PLP.Chemscore.Metal>
0.0000

> <Gold.Chemscore.Hbonds>
donor molecule, donor type, donor heavy atom, donor atom, acceptor molecule, acceptor atom, score
      L1  H     9    28       P1  7948  1.00
      L1  H    12    29       P1  7948  0.98
      P1  H  7989  7998       L1     4  0.87
      L1  C     5    25       P1  8028  1.00

> <Gold.PLP.Chemscore.Internal.Correction>
0.0910

> <Gold.Rescore>
     Score         DG    S(hbond)    S(metal)    S(lipo)     H(rot)  DE(clash)    DE(int)     intcor
     15.18     -16.88       2.34        0.00      69.69       1.78       0.15       1.55       ----

> <Gold.Chemscore.Fitness>
15.1750

> <Gold.Chemscore.DG>
-16.8787

> <Gold.Chemscore.ZeroCoef>
-5.4800

> <Gold.Chemscore.Hbond>
2.3359

> <Gold.Chemscore.Metal>
0.0000

> <Gold.Chemscore.Lipo>
69.6900

> <Gold.Chemscore.Internal_Hbond>
0.0000

> <Gold.Chemscore.DEClash>
0.1537

> <Gold.Chemscore.DEInternal>
1.5500

> <Gold.Chemscore.Rot>
1.7801

> <Gold.Chemscore.Internal.Correction>
   9.000000E+99

> <Gold.Chemscore.Hbonds>
donor molecule, donor type, donor heavy atom, donor atom, acceptor molecule, acceptor atom, score
      L1  H     9    28       P1  7948  0.95
      L1  H    12    29       P1  7948  0.93
      P1  H  7989  7998       L1     4  0.27

> <Gold.Chemscore.Hbond.Weighted>
-7.8020

> <Gold.Chemscore.Metal.Weighted>
-0.0000

> <Gold.Chemscore.Lipo.Weighted>
-8.1537

> <Gold.Chemscore.Internal_Hbond.Weighted>
0.0000

> <Gold.Chemscore.DEClash.Weighted>
0.1537

> <Gold.Chemscore.DEInternal.Weighted>
1.5500

> <Gold.Chemscore.Rot.Weighted>
4.5570

> <Gold.Chemscore.Internal.Correction.Weighted>
   9.000000E+99

> <Gold.Protein.RotatedTorsions>
[ 6907 6896 6895 6894 ] final -162.53 input  -60.11 | X-H torsion
[ 7974 7965 7964 7962 ] final   97.60 input  175.53 | X-H torsion
[ 8008 7997 7996 7995 ] final -156.08 input   59.86 | X-H torsion
[ 10167 10162 10161 10158 ] final  -81.63 input  -65.29 | X-H torsion
[ 10718 10713 10712 10709 ] final   96.12 input   66.30 | X-H torsion
[ 10763 10752 10751 10750 ] final   65.17 input  -60.55 | X-H torsion
[ 11005 11000 10999 10996 ] final   72.31 input  -57.11 | X-H torsion

> <Gold.Protein.ActiveResidues>
 VAL166  LYS551  ARG553  GLY616  TRP617  ASP618  TYR619  PRO620  LYS621  CYS622 
 ASP623  PHE694  ASN695  SER759  ASP760  ASP761  ALA762  ILE779  LEU786  VAL792 
 PHE793  MET794  SER795  GLU796  ALA797  LYS798  CYS799  TRP800  GLU811  SER814 

> <Gold.Protein.RotatedAtoms>
  151.3817  133.3819  159.2710 H   0  0  0  0  0  0  0  0  0  0  0  0  # atno 6907 bound_to 6896
  150.9572  134.8966  159.7719 H   0  0  0  0  0  0  0  0  0  0  0  0  # atno 6908 bound_to 6896
  152.5135  134.3775  159.9392 H   0  0  0  0  0  0  0  0  0  0  0  0  # atno 6909 bound_to 6896
  145.4234  139.2319  143.3184 H   0  0  0  0  0  0  0  0  0  0  0  0  # atno 7974 bound_to 7965
  155.7117  140.0779  157.2368 H   0  0  0  0  0  0  0  0  0  0  0  0  # atno 8008 bound_to 7997
  154.4057  140.1629  156.2357 H   0  0  0  0  0  0  0  0  0  0  0  0  # atno 8009 bound_to 7997
  155.9277  140.3393  155.6226 H   0  0  0  0  0  0  0  0  0  0  0  0  # atno 8010 bound_to 7997
  140.4394  143.2520  151.8647 H   0  0  0  0  0  0  0  0  0  0  0  0  # atno 10167 bound_to 10162
  157.6931  131.0568  150.4443 H   0  0  0  0  0  0  0  0  0  0  0  0  # atno 10718 bound_to 10713
  153.0085  135.5366  154.6625 H   0  0  0  0  0  0  0  0  0  0  0  0  # atno 10763 bound_to 10752
  154.5830  135.2851  155.0715 H   0  0  0  0  0  0  0  0  0  0  0  0  # atno 10764 bound_to 10752
  154.1837  135.6512  153.5093 H   0  0  0  0  0  0  0  0  0  0  0  0  # atno 10765 bound_to 10752
  139.9497  134.7248  156.0891 H   0  0  0  0  0  0  0  0  0  0  0  0  # atno 11005 bound_to 11000
  146.2645  140.4961  142.8840 LP  0  0  0  0  0  0  0  0  0  0  0  0  # atno 17320 bound_to 7965
  144.8230  140.6582  143.6340 LP  0  0  0  0  0  0  0  0  0  0  0  0  # atno 17321 bound_to 7965
  139.4788  144.5246  151.8753 LP  0  0  0  0  0  0  0  0  0  0  0  0  # atno 17342 bound_to 10162
  140.4336  144.2082  150.5888 LP  0  0  0  0  0  0  0  0  0  0  0  0  # atno 17343 bound_to 10162
  156.4799  130.4071  149.6468 LP  0  0  0  0  0  0  0  0  0  0  0  0  # atno 17370 bound_to 10713
  156.3517  130.7435  151.2396 LP  0  0  0  0  0  0  0  0  0  0  0  0  # atno 17371 bound_to 10713
  141.1157  133.6628  156.3089 LP  0  0  0  0  0  0  0  0  0  0  0  0  # atno 17394 bound_to 11000
  140.5748  134.5805  157.5466 LP  0  0  0  0  0  0  0  0  0  0  0  0  # atno 17395 bound_to 11000

$$$$
