AV-unprocessed.smi:170|AV-procd|sdf|1408|dock10
  -GOLD-   2262019163D 1   1.00000     0.00000
 Structure written by MMmdl.
 57 61  0  0  0  0  0  0  0  0  1 V2000
  146.8862  137.5487  162.1385 O   0  0  0  0  0  0  0  0  0  0  0  0
  146.4778  136.2110  161.9213 C   0  0  2  0  0  0  0  0  0  0  0  0
  146.3167  135.9672  160.4079 C   0  0  0  0  0  0  0  0  0  0  0  0
  147.3884  136.5659  159.6324 N   0  0  0  0  0  0  0  0  0  0  0  0
  148.7365  136.3124  159.7520 C   0  0  0  0  0  0  0  0  0  0  0  0
  149.5033  136.9816  158.9342 N   0  0  0  0  0  0  0  0  0  0  0  0
  148.6140  137.7526  158.1962 C   0  0  0  0  0  0  0  0  0  0  0  0
  148.7641  138.7009  157.1498 C   0  0  0  0  0  0  0  0  0  0  0  0
  149.9795  139.0126  156.6382 N   0  0  0  0  0  0  0  0  0  0  0  0
  150.2249  138.2231  155.4356 C   0  0  0  0  0  0  0  0  0  0  0  0
  151.6611  138.4295  154.9389 C   0  0  0  0  0  0  0  0  0  0  0  0
  151.8719  139.8157  154.7132 O   0  0  0  0  0  0  0  0  0  0  0  0
  151.7440  140.5698  155.9125 C   0  0  0  0  0  0  0  0  0  0  0  0
  150.3169  140.4369  156.4975 C   0  0  2  0  0  0  0  0  0  0  0  0
  150.1933  141.2033  157.8416 C   0  0  0  0  0  0  0  0  0  0  0  0
  150.8970  142.5595  157.8575 C   0  0  0  0  0  0  0  0  0  0  0  0
  152.3175  142.6749  158.4312 C   0  0  0  0  0  0  0  0  0  0  0  0
  151.9452  144.0683  158.9459 C   0  0  0  0  0  0  0  0  0  0  0  0
  150.4804  143.6284  158.8794 C   0  0  0  0  0  0  0  0  0  0  0  0
  147.6366  139.2657  156.6401 N   0  0  0  0  0  0  0  0  0  0  0  0
  146.4402  138.9369  157.1373 C   0  0  0  0  0  0  0  0  0  0  0  0
  146.1500  138.0782  158.1177 N   0  0  0  0  0  0  0  0  0  0  0  0
  147.2796  137.5026  158.6211 C   0  0  0  0  0  0  0  0  0  0  0  0
  145.1763  135.9166  162.6953 C   0  0  2  0  0  0  0  0  0  0  0  0
  144.5887  134.5069  162.5672 C   0  0  0  0  0  0  0  0  0  0  0  0
  143.1337  134.7660  162.8866 C   0  0  0  0  0  0  0  0  0  0  0  0
  142.9043  136.1156  162.2110 C   0  0  0  0  0  0  0  0  0  0  0  0
  144.1395  136.8188  162.3174 O   0  0  0  0  0  0  0  0  0  0  0  0
  146.4955  137.8502  162.9447 H   0  0  0  0  0  0  0  0  0  0  0  0
  147.2632  135.5539  162.2973 H   0  0  0  0  0  0  0  0  0  0  0  0
  146.3025  134.8972  160.1973 H   0  0  0  0  0  0  0  0  0  0  0  0
  145.3660  136.3669  160.0528 H   0  0  0  0  0  0  0  0  0  0  0  0
  149.1345  135.6080  160.4680 H   0  0  0  0  0  0  0  0  0  0  0  0
  150.0583  137.1638  155.6366 H   0  0  0  0  0  0  0  0  0  0  0  0
  149.5181  138.5181  154.6584 H   0  0  0  0  0  0  0  0  0  0  0  0
  152.3858  138.0456  155.6589 H   0  0  0  0  0  0  0  0  0  0  0  0
  151.8180  137.8889  154.0056 H   0  0  0  0  0  0  0  0  0  0  0  0
  152.4940  140.2443  156.6355 H   0  0  0  0  0  0  0  0  0  0  0  0
  151.9669  141.6084  155.6699 H   0  0  0  0  0  0  0  0  0  0  0  0
  149.6221  140.8743  155.7791 H   0  0  0  0  0  0  0  0  0  0  0  0
  149.1437  141.3605  158.0880 H   0  0  0  0  0  0  0  0  0  0  0  0
  150.5872  140.5802  158.6455 H   0  0  0  0  0  0  0  0  0  0  0  0
  150.8975  143.0097  156.8630 H   0  0  0  0  0  0  0  0  0  0  0  0
  152.5110  141.9675  159.2394 H   0  0  0  0  0  0  0  0  0  0  0  0
  153.1138  142.6609  157.6865 H   0  0  0  0  0  0  0  0  0  0  0  0
  152.3093  144.2992  159.9474 H   0  0  0  0  0  0  0  0  0  0  0  0
  152.1821  144.8604  158.2336 H   0  0  0  0  0  0  0  0  0  0  0  0
  149.7920  144.3821  158.4959 H   0  0  0  0  0  0  0  0  0  0  0  0
  150.1252  143.2004  159.8185 H   0  0  0  0  0  0  0  0  0  0  0  0
  145.5940  139.4312  156.6831 H   0  0  0  0  0  0  0  0  0  0  0  0
  145.3522  136.1122  163.7544 H   0  0  0  0  0  0  0  0  0  0  0  0
  144.6751  134.1214  161.5510 H   0  0  0  0  0  0  0  0  0  0  0  0
  145.0542  133.7897  163.2438 H   0  0  0  0  0  0  0  0  0  0  0  0
  142.4663  133.9858  162.5196 H   0  0  0  0  0  0  0  0  0  0  0  0
  142.9964  134.8566  163.9650 H   0  0  0  0  0  0  0  0  0  0  0  0
  142.6773  135.9750  161.1534 H   0  0  0  0  0  0  0  0  0  0  0  0
  142.0845  136.6754  162.6619 H   0  0  0  0  0  0  0  0  0  0  0  0
  1  2  1  0  0  0  0
  1 29  1  0  0  0  0
  2  3  1  0  0  0  0
  2 24  1  0  0  0  0
  2 30  1  0  0  0  0
  3  4  1  0  0  0  0
  3 31  1  0  0  0  0
  3 32  1  0  0  0  0
  4 23  1  0  0  0  0
  4  5  1  0  0  0  0
  5  6  2  0  0  0  0
  5 33  1  0  0  0  0
  6  7  1  0  0  0  0
  7 23  2  0  0  0  0
  7  8  1  0  0  0  0
  8  9  1  0  0  0  0
  8 20  2  0  0  0  0
  9 14  1  0  0  0  0
  9 10  1  0  0  0  0
 10 11  1  0  0  0  0
 10 34  1  0  0  0  0
 10 35  1  0  0  0  0
 11 12  1  0  0  0  0
 11 36  1  0  0  0  0
 11 37  1  0  0  0  0
 12 13  1  0  0  0  0
 13 14  1  0  0  0  0
 13 38  1  0  0  0  0
 13 39  1  0  0  0  0
 14 15  1  0  0  0  0
 14 40  1  0  0  0  0
 15 16  1  0  0  0  0
 15 41  1  0  0  0  0
 15 42  1  0  0  0  0
 16 19  1  0  0  0  0
 16 17  1  0  0  0  0
 16 43  1  0  0  0  0
 17 18  1  0  0  0  0
 17 44  1  0  0  0  0
 17 45  1  0  0  0  0
 18 19  1  0  0  0  0
 18 46  1  0  0  0  0
 18 47  1  0  0  0  0
 19 48  1  0  0  0  0
 19 49  1  0  0  0  0
 20 21  1  0  0  0  0
 21 22  2  0  0  0  0
 21 50  1  0  0  0  0
 22 23  1  0  0  0  0
 24 28  1  0  0  0  0
 24 25  1  0  0  0  0
 24 51  1  0  0  0  0
 25 26  1  0  0  0  0
 25 52  1  0  0  0  0
 25 53  1  0  0  0  0
 26 27  1  0  0  0  0
 26 54  1  0  0  0  0
 26 55  1  0  0  0  0
 27 28  1  0  0  0  0
 27 56  1  0  0  0  0
 27 57  1  0  0  0  0
M  END
> <s_m_source_file>
AV-unprocessed.smi

> <i_m_source_file_index>
170

> <i_lp_mmshare_version>
43012

> <i_f3d_flags>
0

> <s_epik_input>
TzFbQ0gyXVtDSDJdW0NIMl1bQ0BIXTFbQ0BIXShbT0hdKVtDSDJdbihbY0hdbjIpYyhjMjMpbltjSF1uYzNONFtDSDJdW0NIMl1PW0NIMl1bQ0BIXTRbQ0gyXVtDSF01W0NIMl1bQ0gyXVtDSDJdNQ==

> <s_epik_cmdline>
J2VwaWtfcHl0aG9uJywgJy1waCcsICc3LjAnLCAnLXRuJywgJzgnLCAnLW1hJywgJzIwMCcsICctbWV0YWxfYmluZGluZycsICctaW1hZScsICc8aW5maWxlLm1hZT4nLCAnLW9tYWUnLCAnPG91dGZpbGUubWFlPic=

> <r_lp_tautomer_probability>
1

> <r_epik_Ionization_Penalty>
4.98275e-05

> <r_epik_Ionization_Penalty_Charging>
0

> <r_epik_Ionization_Penalty_Neutral>
4.98275e-05

> <r_epik_State_Penalty>
-0

> <r_epik_Charging_Adjusted_Penalty>
0

> <i_epik_Tot_Q>
0

> <i_epik_Tot_abs_Q>
0

> <r_epik_Metal_State_Penalty>
-0

> <b_epik_Metal_Only>
0

> <s_lp_Force_Field>
OPLS_2005

> <r_lp_Energy>
52.7672

> <b_lp_Chiralities_Consistent>
1

> <s_lp_Variant>
AV-unprocessed.smi:170-3

> <Gold.Version>
5.8.1

> <Gold.Id.Protein>
6NUR|6NUR_protein|mol2

> <Gold.PLP.Fitness>
45.7297

> <Gold.PLP.PLP>
-41.0383

> <Gold.PLP.part.hbond>
-2.8119

> <Gold.PLP.part.metal>
0.0000

> <Gold.PLP.part.buried>
-6.9621

> <Gold.PLP.part.nonpolar>
-30.0202

> <Gold.PLP.part.repulsive>
0.0997

> <Gold.PLP.ligand.clash>
0.0000

> <Gold.PLP.ligand.torsion>
1.0746

> <Gold.PLP.Chemscore.Hbond>
2.1897

> <Gold.PLP.Chemscore.CHOScore>
0.0000

> <Gold.PLP.Chemscore.Metal>
0.0000

> <Gold.Chemscore.Hbonds>
donor molecule, donor type, donor heavy atom, donor atom, acceptor molecule, acceptor atom, score
      P1  H  6931  6943       L1     1  0.27
      P1  H  6934  6947       L1     1  0.69
      P1  H  7989  7998       L1    12  0.96

> <Gold.PLP.Chemscore.Internal.Correction>
0.2715

> <Gold.Rescore>
     Score         DG    S(hbond)    S(metal)    S(lipo)     H(rot)  DE(clash)    DE(int)     intcor
     15.81     -16.89       1.53        0.00     110.91       2.61       0.12       0.96       ----

> <Gold.Chemscore.Fitness>
15.8079

> <Gold.Chemscore.DG>
-16.8874

> <Gold.Chemscore.ZeroCoef>
-5.4800

> <Gold.Chemscore.Hbond>
1.5342

> <Gold.Chemscore.Metal>
0.0000

> <Gold.Chemscore.Lipo>
110.9076

> <Gold.Chemscore.Internal_Hbond>
0.0000

> <Gold.Chemscore.DEClash>
0.1153

> <Gold.Chemscore.DEInternal>
0.9642

> <Gold.Chemscore.Rot>
2.6144

> <Gold.Chemscore.Internal.Correction>
   9.000000E+99

> <Gold.Chemscore.Hbonds>
donor molecule, donor type, donor heavy atom, donor atom, acceptor molecule, acceptor atom, score
      P1  H  6931  6943       L1     1  0.20
      P1  H  6934  6947       L1     1  0.47
      P1  H  7989  7998       L1    12  0.50

> <Gold.Chemscore.Hbond.Weighted>
-5.1241

> <Gold.Chemscore.Metal.Weighted>
-0.0000

> <Gold.Chemscore.Lipo.Weighted>
-12.9762

> <Gold.Chemscore.Internal_Hbond.Weighted>
0.0000

> <Gold.Chemscore.DEClash.Weighted>
0.1153

> <Gold.Chemscore.DEInternal.Weighted>
0.9642

> <Gold.Chemscore.Rot.Weighted>
6.6929

> <Gold.Chemscore.Internal.Correction.Weighted>
   9.000000E+99

> <Gold.Protein.RotatedTorsions>
[ 6907 6896 6895 6894 ] final -145.93 input  -60.11 | X-H torsion
[ 7974 7965 7964 7962 ] final -169.82 input  175.53 | X-H torsion
[ 8008 7997 7996 7995 ] final   13.70 input   59.86 | X-H torsion
[ 10167 10162 10161 10158 ] final  -98.23 input  -65.29 | X-H torsion
[ 10718 10713 10712 10709 ] final  140.44 input   66.30 | X-H torsion
[ 10763 10752 10751 10750 ] final   43.72 input  -60.55 | X-H torsion
[ 11005 11000 10999 10996 ] final   44.44 input  -57.11 | X-H torsion

> <Gold.Protein.ActiveResidues>
 VAL166  LYS551  ARG553  GLY616  TRP617  ASP618  TYR619  PRO620  LYS621  CYS622 
 ASP623  PHE694  ASN695  SER759  ASP760  ASP761  ALA762  ILE779  LEU786  VAL792 
 PHE793  MET794  SER795  GLU796  ALA797  LYS798  CYS799  TRP800  GLU811  SER814 

> <Gold.Protein.RotatedAtoms>
  151.1346  133.5013  159.2598 H   0  0  0  0  0  0  0  0  0  0  0  0  # atno 6907 bound_to 6896
  151.1721  135.0322  159.8766 H   0  0  0  0  0  0  0  0  0  0  0  0  # atno 6908 bound_to 6896
  152.5461  134.1208  159.8451 H   0  0  0  0  0  0  0  0  0  0  0  0  # atno 6909 bound_to 6896
  144.7179  140.2163  143.6321 H   0  0  0  0  0  0  0  0  0  0  0  0  # atno 7974 bound_to 7965
  154.8381  140.2910  155.5678 H   0  0  0  0  0  0  0  0  0  0  0  0  # atno 8008 bound_to 7997
  156.3010  140.2519  156.3250 H   0  0  0  0  0  0  0  0  0  0  0  0  # atno 8009 bound_to 7997
  154.9156  140.0387  157.1959 H   0  0  0  0  0  0  0  0  0  0  0  0  # atno 8010 bound_to 7997
  140.2751  143.3318  152.0496 H   0  0  0  0  0  0  0  0  0  0  0  0  # atno 10167 bound_to 10162
  157.4032  131.1019  151.0530 H   0  0  0  0  0  0  0  0  0  0  0  0  # atno 10718 bound_to 10713
  152.9855  135.6093  154.3157 H   0  0  0  0  0  0  0  0  0  0  0  0  # atno 10763 bound_to 10752
  154.2869  135.2775  155.2674 H   0  0  0  0  0  0  0  0  0  0  0  0  # atno 10764 bound_to 10752
  154.4987  135.5872  153.6571 H   0  0  0  0  0  0  0  0  0  0  0  0  # atno 10765 bound_to 10752
  140.1552  134.4411  155.8355 H   0  0  0  0  0  0  0  0  0  0  0  0  # atno 11005 bound_to 11000
  145.8543  139.2191  143.1754 LP  0  0  0  0  0  0  0  0  0  0  0  0  # atno 17320 bound_to 7965
  146.0232  140.8328  142.9913 LP  0  0  0  0  0  0  0  0  0  0  0  0  # atno 17321 bound_to 7965
  139.4978  144.6630  151.6421 LP  0  0  0  0  0  0  0  0  0  0  0  0  # atno 17342 bound_to 10162
  140.5858  143.9867  150.6294 LP  0  0  0  0  0  0  0  0  0  0  0  0  # atno 17343 bound_to 10162
  157.1521  130.6189  149.5585 LP  0  0  0  0  0  0  0  0  0  0  0  0  # atno 17370 bound_to 10713
  155.9829  130.4845  150.6906 LP  0  0  0  0  0  0  0  0  0  0  0  0  # atno 17371 bound_to 10713
  141.2203  133.6889  156.7493 LP  0  0  0  0  0  0  0  0  0  0  0  0  # atno 17394 bound_to 11000
  140.2557  134.8506  157.3710 LP  0  0  0  0  0  0  0  0  0  0  0  0  # atno 17395 bound_to 11000

$$$$
