AV-unprocessed.smi:246|AV-procd|sdf|1882|dock9
  -GOLD-   2262020533D 1   1.00000     0.00000
 Structure written by MMmdl.
 57 60  0  0  0  0  0  0  0  0  1 V2000
  145.5153  131.9745  149.6597 C   0  0  0  0  0  0  0  0  0  0  0  0
  145.5081  132.6353  151.0451 C   0  0  0  0  0  0  0  0  0  0  0  0
  146.6714  132.3030  151.7891 O   0  0  0  0  0  0  0  0  0  0  0  0
  146.7988  133.0008  153.0194 C   0  0  0  0  0  0  0  0  0  0  0  0
  148.0187  132.4563  153.7678 C   0  0  0  0  0  0  0  0  0  0  0  0
  148.1733  133.1895  154.9739 O   0  0  0  0  0  0  0  0  0  0  0  0
  149.4942  133.1785  155.4996 C   0  0  1  0  0  0  0  0  0  0  0  0
  150.4069  133.9251  154.5244 C   0  0  0  0  0  0  0  0  0  0  0  0
  150.2760  135.3953  154.9285 C   0  0  0  0  0  0  0  0  0  0  0  0
  149.8787  135.3757  156.3274 N   0  0  0  0  0  0  0  0  0  0  0  0
  150.1550  136.3912  157.1849 C   0  0  0  0  0  0  0  0  0  0  0  0
  149.9931  136.1774  158.5177 N   0  0  0  0  0  0  0  0  0  0  0  0
  150.2555  137.1473  159.3980 C   0  0  0  0  0  0  0  0  0  0  0  0
  150.6767  138.3912  159.1670 N   0  0  0  0  0  0  0  0  0  0  0  0
  150.8285  138.6202  157.8318 C   0  0  0  0  0  0  0  0  0  0  0  0
  150.5940  137.6868  156.7810 C   0  0  0  0  0  0  0  0  0  0  0  0
  150.8489  138.2931  155.5551 N   0  0  0  0  0  0  0  0  0  0  0  0
  151.2129  139.5073  155.8628 C   0  0  0  0  0  0  0  0  0  0  0  0
  151.2197  139.7916  157.2084 N   0  0  0  0  0  0  0  0  0  0  0  0
  151.5666  141.0585  157.8267 C   0  0  0  0  0  0  0  0  0  0  0  0
  150.8099  142.2625  157.2241 C   0  0  1  0  0  0  0  0  0  0  0  0
  149.4621  141.8657  157.0661 O   0  0  0  0  0  0  0  0  0  0  0  0
  150.8619  143.5522  158.0756 C   0  0  2  0  0  0  0  0  0  0  0  0
  152.1786  144.3265  157.9636 C   0  0  0  0  0  0  0  0  0  0  0  0
  152.2003  145.0993  159.2615 C   0  0  0  0  0  0  0  0  0  0  0  0
  151.6330  144.0741  160.2355 C   0  0  0  0  0  0  0  0  0  0  0  0
  150.7543  143.2568  159.4686 O   0  0  0  0  0  0  0  0  0  0  0  0
  149.5922  134.0214  156.7792 C   0  0  0  0  0  0  0  0  0  0  0  0
  149.8381  132.1537  155.6491 H   0  0  0  0  0  0  0  0  0  0  0  0
  144.5732  132.1556  149.1421 H   0  0  0  0  0  0  0  0  0  0  0  0
  145.6465  130.8953  149.7432 H   0  0  0  0  0  0  0  0  0  0  0  0
  146.3140  132.3621  149.0281 H   0  0  0  0  0  0  0  0  0  0  0  0
  145.3874  133.7168  150.9663 H   0  0  0  0  0  0  0  0  0  0  0  0
  144.6470  132.2675  151.6038 H   0  0  0  0  0  0  0  0  0  0  0  0
  146.9001  134.0758  152.8692 H   0  0  0  0  0  0  0  0  0  0  0  0
  145.9012  132.8365  153.6172 H   0  0  0  0  0  0  0  0  0  0  0  0
  147.8655  131.4010  153.9934 H   0  0  0  0  0  0  0  0  0  0  0  0
  148.9097  132.5318  153.1425 H   0  0  0  0  0  0  0  0  0  0  0  0
  151.4371  133.6024  154.6793 H   0  0  0  0  0  0  0  0  0  0  0  0
  150.1579  133.7465  153.4780 H   0  0  0  0  0  0  0  0  0  0  0  0
  151.2147  135.9275  154.7713 H   0  0  0  0  0  0  0  0  0  0  0  0
  149.4960  135.8882  154.3477 H   0  0  0  0  0  0  0  0  0  0  0  0
  150.1046  136.8901  160.4361 H   0  0  0  0  0  0  0  0  0  0  0  0
  151.4767  140.2363  155.1103 H   0  0  0  0  0  0  0  0  0  0  0  0
  151.3603  140.9799  158.8950 H   0  0  0  0  0  0  0  0  0  0  0  0
  152.6432  141.2048  157.7277 H   0  0  0  0  0  0  0  0  0  0  0  0
  151.2034  142.4774  156.2301 H   0  0  0  0  0  0  0  0  0  0  0  0
  149.3588  141.0034  157.4385 H   0  0  0  0  0  0  0  0  0  0  0  0
  150.0359  144.2139  157.8094 H   0  0  0  0  0  0  0  0  0  0  0  0
  153.0272  143.6413  157.9258 H   0  0  0  0  0  0  0  0  0  0  0  0
  152.2200  144.9711  157.0849 H   0  0  0  0  0  0  0  0  0  0  0  0
  153.1949  145.4485  159.5397 H   0  0  0  0  0  0  0  0  0  0  0  0
  151.5382  145.9637  159.1944 H   0  0  0  0  0  0  0  0  0  0  0  0
  152.4289  143.4442  160.6347 H   0  0  0  0  0  0  0  0  0  0  0  0
  151.1149  144.5387  161.0745 H   0  0  0  0  0  0  0  0  0  0  0  0
  148.6860  133.9844  157.3833 H   0  0  0  0  0  0  0  0  0  0  0  0
  150.4227  133.6696  157.3928 H   0  0  0  0  0  0  0  0  0  0  0  0
  1  2  1  0  0  0  0
  1 30  1  0  0  0  0
  1 31  1  0  0  0  0
  1 32  1  0  0  0  0
  2  3  1  0  0  0  0
  2 33  1  0  0  0  0
  2 34  1  0  0  0  0
  3  4  1  0  0  0  0
  4  5  1  0  0  0  0
  4 35  1  0  0  0  0
  4 36  1  0  0  0  0
  5  6  1  0  0  0  0
  5 37  1  0  0  0  0
  5 38  1  0  0  0  0
  6  7  1  0  0  0  0
  7 29  1  0  0  0  0
  7 28  1  0  0  0  0
  7  8  1  0  0  0  0
  8  9  1  0  0  0  0
  8 39  1  0  0  0  0
  8 40  1  0  0  0  0
  9 10  1  0  0  0  0
  9 41  1  0  0  0  0
  9 42  1  0  0  0  0
 10 11  1  0  0  0  0
 10 28  1  0  0  0  0
 11 16  1  0  0  0  0
 11 12  2  0  0  0  0
 12 13  1  0  0  0  0
 13 14  2  0  0  0  0
 13 43  1  0  0  0  0
 14 15  1  0  0  0  0
 15 19  1  0  0  0  0
 15 16  2  0  0  0  0
 16 17  1  0  0  0  0
 17 18  2  0  0  0  0
 18 19  1  0  0  0  0
 18 44  1  0  0  0  0
 19 20  1  0  0  0  0
 20 21  1  0  0  0  0
 20 45  1  0  0  0  0
 20 46  1  0  0  0  0
 21 22  1  0  0  0  0
 21 23  1  0  0  0  0
 21 47  1  0  0  0  0
 22 48  1  0  0  0  0
 23 27  1  0  0  0  0
 23 24  1  0  0  0  0
 23 49  1  0  0  0  0
 24 25  1  0  0  0  0
 24 50  1  0  0  0  0
 24 51  1  0  0  0  0
 25 26  1  0  0  0  0
 25 52  1  0  0  0  0
 25 53  1  0  0  0  0
 26 27  1  0  0  0  0
 26 54  1  0  0  0  0
 26 55  1  0  0  0  0
 28 56  1  0  0  0  0
 28 57  1  0  0  0  0
M  END
> <s_m_source_file>
AV-unprocessed.smi

> <i_m_source_file_index>
246

> <i_lp_mmshare_version>
43012

> <i_f3d_flags>
0

> <s_epik_input>
W0NIM11bQ0gyXU9bQ0gyXVtDSDJdT1tDQEhdMVtDSDJdW0NIMl1OKFtDSDJdMSljKG5bY0hdbjIpYyhjMjMpbltjSF1uM1tDSDJdW0NASF0oW09IXSlbQ0BASF00W0NIMl1bQ0gyXVtDSDJdTzQ=

> <s_epik_cmdline>
J2VwaWtfcHl0aG9uJywgJy1waCcsICc3LjAnLCAnLXRuJywgJzgnLCAnLW1hJywgJzIwMCcsICctbWV0YWxfYmluZGluZycsICctaW1hZScsICc8aW5maWxlLm1hZT4nLCAnLW9tYWUnLCAnPG91dGZpbGUubWFlPic=

> <r_lp_tautomer_probability>
1

> <r_epik_Ionization_Penalty>
0.0024631

> <r_epik_Ionization_Penalty_Charging>
0

> <r_epik_Ionization_Penalty_Neutral>
0.0024631

> <r_epik_State_Penalty>
0.00162428

> <r_epik_Charging_Adjusted_Penalty>
0.00162428

> <i_epik_Tot_Q>
0

> <i_epik_Tot_abs_Q>
0

> <r_epik_Metal_State_Penalty>
-0

> <b_epik_Metal_Only>
0

> <s_lp_Force_Field>
OPLS_2005

> <r_lp_Energy>
52.0053

> <b_lp_Chiralities_Consistent>
1

> <s_lp_Variant>
AV-unprocessed.smi:246-3

> <Gold.Version>
5.8.1

> <Gold.Id.Protein>
6NUR|6NUR_protein|mol2

> <Gold.PLP.Fitness>
46.7476

> <Gold.PLP.PLP>
-45.2546

> <Gold.PLP.part.hbond>
-2.6030

> <Gold.PLP.part.metal>
0.0000

> <Gold.PLP.part.buried>
-8.5173

> <Gold.PLP.part.nonpolar>
-35.9505

> <Gold.PLP.part.repulsive>
0.5780

> <Gold.PLP.ligand.clash>
0.0000

> <Gold.PLP.ligand.torsion>
0.7641

> <Gold.PLP.Chemscore.Hbond>
0.9035

> <Gold.PLP.Chemscore.CHOScore>
0.0000

> <Gold.PLP.Chemscore.Metal>
0.0000

> <Gold.Chemscore.Hbonds>
donor molecule, donor type, donor heavy atom, donor atom, acceptor molecule, acceptor atom, score
      P1  H  6896  6908       L1    12  0.88

> <Gold.PLP.Chemscore.Internal.Correction>
0.3106

> <Gold.Rescore>
     Score         DG    S(hbond)    S(metal)    S(lipo)     H(rot)  DE(clash)    DE(int)     intcor
     10.81     -12.62       0.62        0.00     111.22       3.10       0.19       1.61       ----

> <Gold.Chemscore.Fitness>
10.8089

> <Gold.Chemscore.DG>
-12.6177

> <Gold.Chemscore.ZeroCoef>
-5.4800

> <Gold.Chemscore.Hbond>
0.6191

> <Gold.Chemscore.Metal>
0.0000

> <Gold.Chemscore.Lipo>
111.2180

> <Gold.Chemscore.Internal_Hbond>
0.0000

> <Gold.Chemscore.DEClash>
0.1946

> <Gold.Chemscore.DEInternal>
1.6142

> <Gold.Chemscore.Rot>
3.1026

> <Gold.Chemscore.Internal.Correction>
   9.000000E+99

> <Gold.Chemscore.Hbonds>
donor molecule, donor type, donor heavy atom, donor atom, acceptor molecule, acceptor atom, score
      P1  H  6896  6908       L1    12  0.16

> <Gold.Chemscore.Hbond.Weighted>
-2.0679

> <Gold.Chemscore.Metal.Weighted>
-0.0000

> <Gold.Chemscore.Lipo.Weighted>
-13.0125

> <Gold.Chemscore.Internal_Hbond.Weighted>
0.0000

> <Gold.Chemscore.DEClash.Weighted>
0.1946

> <Gold.Chemscore.DEInternal.Weighted>
1.6142

> <Gold.Chemscore.Rot.Weighted>
7.9426

> <Gold.Chemscore.Internal.Correction.Weighted>
   9.000000E+99

> <Gold.Protein.RotatedTorsions>
[ 6907 6896 6895 6894 ] final  172.05 input  -60.11 | X-H torsion
[ 7974 7965 7964 7962 ] final  -95.04 input  175.53 | X-H torsion
[ 8008 7997 7996 7995 ] final    2.82 input   59.86 | X-H torsion
[ 10167 10162 10161 10158 ] final   -1.58 input  -65.29 | X-H torsion
[ 10718 10713 10712 10709 ] final  -63.23 input   66.30 | X-H torsion
[ 10763 10752 10751 10750 ] final   82.16 input  -60.55 | X-H torsion
[ 11005 11000 10999 10996 ] final -157.99 input  -57.11 | X-H torsion

> <Gold.Protein.ActiveResidues>
 VAL166  LYS551  ARG553  GLY616  TRP617  ASP618  TYR619  PRO620  LYS621  CYS622 
 ASP623  PHE694  ASN695  SER759  ASP760  ASP761  ALA762  ILE779  LEU786  VAL792 
 PHE793  MET794  SER795  GLU796  ALA797  LYS798  CYS799  TRP800  GLU811  SER814 

> <Gold.Protein.RotatedAtoms>
  151.7904  133.3359  159.3497 H   0  0  0  0  0  0  0  0  0  0  0  0  # atno 6907 bound_to 6896
  150.7394  134.5848  159.5966 H   0  0  0  0  0  0  0  0  0  0  0  0  # atno 6908 bound_to 6896
  152.3214  134.7377  160.0364 H   0  0  0  0  0  0  0  0  0  0  0  0  # atno 6909 bound_to 6896
  145.3653  140.9498  143.2477 H   0  0  0  0  0  0  0  0  0  0  0  0  # atno 7974 bound_to 7965
  154.6962  140.2663  155.6764 H   0  0  0  0  0  0  0  0  0  0  0  0  # atno 8008 bound_to 7997
  156.2749  140.2781  156.1481 H   0  0  0  0  0  0  0  0  0  0  0  0  # atno 8009 bound_to 7997
  155.0828  140.0373  157.2634 H   0  0  0  0  0  0  0  0  0  0  0  0  # atno 8010 bound_to 7997
  140.6816  143.6758  150.8147 H   0  0  0  0  0  0  0  0  0  0  0  0  # atno 10167 bound_to 10162
  156.0804  130.4218  150.1247 H   0  0  0  0  0  0  0  0  0  0  0  0  # atno 10718 bound_to 10713
  153.1178  135.4739  154.9145 H   0  0  0  0  0  0  0  0  0  0  0  0  # atno 10763 bound_to 10752
  154.7546  135.3115  154.8496 H   0  0  0  0  0  0  0  0  0  0  0  0  # atno 10764 bound_to 10752
  153.9068  135.6869  153.4806 H   0  0  0  0  0  0  0  0  0  0  0  0  # atno 10765 bound_to 10752
  140.6586  134.4374  157.5234 H   0  0  0  0  0  0  0  0  0  0  0  0  # atno 11005 bound_to 11000
  144.8616  139.5169  143.6809 LP  0  0  0  0  0  0  0  0  0  0  0  0  # atno 17320 bound_to 7965
  146.2909  139.7137  142.9161 LP  0  0  0  0  0  0  0  0  0  0  0  0  # atno 17321 bound_to 7965
  140.0459  143.5298  152.2696 LP  0  0  0  0  0  0  0  0  0  0  0  0  # atno 17342 bound_to 10162
  139.6143  144.7616  151.2882 LP  0  0  0  0  0  0  0  0  0  0  0  0  # atno 17343 bound_to 10162
  156.9279  130.9704  151.3538 LP  0  0  0  0  0  0  0  0  0  0  0  0  # atno 17370 bound_to 10713
  157.5919  130.8450  149.8671 LP  0  0  0  0  0  0  0  0  0  0  0  0  # atno 17371 bound_to 10713
  139.9021  134.8532  156.1854 LP  0  0  0  0  0  0  0  0  0  0  0  0  # atno 17394 bound_to 11000
  141.0483  133.6902  156.1724 LP  0  0  0  0  0  0  0  0  0  0  0  0  # atno 17395 bound_to 11000

$$$$
