AV-unprocessed.smi:2191|AV-procd|sdf|8892|dock9
  -GOLD-   2272012103D 1   1.00000     0.00000
 Structure written by MMmdl.
 36 38  0  0  0  0  0  0  0  0  1 V2000
  156.5914  138.9686  163.0160 O   0  0  0  0  0  0  0  0  0  0  0  0
  155.7224  138.6964  161.9336 C   0  0  2  0  0  0  0  0  0  0  0  0
  155.3419  140.0303  161.2726 C   0  0  0  0  0  0  0  0  0  0  0  0
  154.4465  140.7276  162.1284 O   0  0  0  0  0  0  0  0  0  0  0  0
  153.6672  141.7267  161.5853 C   0  0  0  0  0  0  0  0  0  0  0  0
  153.2879  142.7791  162.4442 C   0  0  0  0  0  0  0  0  0  0  0  0
  152.4940  143.8431  161.9746 C   0  0  0  0  0  0  0  0  0  0  0  0
  152.0688  143.8646  160.6336 C   0  0  0  0  0  0  0  0  0  0  0  0
  152.4383  142.8204  159.7654 C   0  0  0  0  0  0  0  0  0  0  0  0
  153.2334  141.7566  160.2352 C   0  0  0  0  0  0  0  0  0  0  0  0
  154.4847  137.9423  162.4579 C   0  0  0  0  0  0  0  0  0  0  0  0
  154.5829  136.5054  162.2695 N   0  0  0  0  0  0  0  0  0  0  0  0
  154.5264  135.8365  161.1019 C   0  0  0  0  0  0  0  0  0  0  0  0
  154.6349  134.5119  161.1519 N   0  0  0  0  0  0  0  0  0  0  0  0
  154.7775  134.2949  162.5117 C   0  0  0  0  0  0  0  0  0  0  0  0
  154.9365  133.0918  163.2363 C   0  0  0  0  0  0  0  0  0  0  0  0
  155.0614  133.1150  164.6412 C   0  0  0  0  0  0  0  0  0  0  0  0
  155.0319  134.3385  165.3417 C   0  0  0  0  0  0  0  0  0  0  0  0
  154.8764  135.5502  164.6412 C   0  0  0  0  0  0  0  0  0  0  0  0
  154.7488  135.5227  163.2398 C   0  0  0  0  0  0  0  0  0  0  0  0
  156.9411  139.8398  162.9059 H   0  0  0  0  0  0  0  0  0  0  0  0
  156.2423  138.0642  161.2125 H   0  0  0  0  0  0  0  0  0  0  0  0
  156.2384  140.6394  161.1447 H   0  0  0  0  0  0  0  0  0  0  0  0
  154.9090  139.8613  160.2847 H   0  0  0  0  0  0  0  0  0  0  0  0
  153.6101  142.7704  163.4753 H   0  0  0  0  0  0  0  0  0  0  0  0
  152.2115  144.6422  162.6437 H   0  0  0  0  0  0  0  0  0  0  0  0
  151.4603  144.6801  160.2714 H   0  0  0  0  0  0  0  0  0  0  0  0
  152.1117  142.8351  158.7361 H   0  0  0  0  0  0  0  0  0  0  0  0
  153.4968  140.9752  159.5388 H   0  0  0  0  0  0  0  0  0  0  0  0
  154.3347  138.1474  163.5185 H   0  0  0  0  0  0  0  0  0  0  0  0
  153.5869  138.2899  161.9449 H   0  0  0  0  0  0  0  0  0  0  0  0
  154.3990  136.3523  160.1613 H   0  0  0  0  0  0  0  0  0  0  0  0
  154.9611  132.1489  162.7102 H   0  0  0  0  0  0  0  0  0  0  0  0
  155.1808  132.1889  165.1840 H   0  0  0  0  0  0  0  0  0  0  0  0
  155.1298  134.3468  166.4175 H   0  0  0  0  0  0  0  0  0  0  0  0
  154.8567  136.4891  165.1741 H   0  0  0  0  0  0  0  0  0  0  0  0
  1  2  1  0  0  0  0
  1 21  1  0  0  0  0
  2  3  1  0  0  0  0
  2 11  1  0  0  0  0
  2 22  1  0  0  0  0
  3  4  1  0  0  0  0
  3 23  1  0  0  0  0
  3 24  1  0  0  0  0
  4  5  1  0  0  0  0
  5 10  1  0  0  0  0
  5  6  2  0  0  0  0
  6  7  1  0  0  0  0
  6 25  1  0  0  0  0
  7  8  2  0  0  0  0
  7 26  1  0  0  0  0
  8  9  1  0  0  0  0
  8 27  1  0  0  0  0
  9 10  2  0  0  0  0
  9 28  1  0  0  0  0
 10 29  1  0  0  0  0
 11 12  1  0  0  0  0
 11 30  1  0  0  0  0
 11 31  1  0  0  0  0
 12 20  1  0  0  0  0
 12 13  1  0  0  0  0
 13 14  2  0  0  0  0
 13 32  1  0  0  0  0
 14 15  1  0  0  0  0
 15 20  2  0  0  0  0
 15 16  1  0  0  0  0
 16 17  2  0  0  0  0
 16 33  1  0  0  0  0
 17 18  1  0  0  0  0
 17 34  1  0  0  0  0
 18 19  2  0  0  0  0
 18 35  1  0  0  0  0
 19 20  1  0  0  0  0
 19 36  1  0  0  0  0
M  END
> <s_m_source_file>
AV-unprocessed.smi

> <i_m_source_file_index>
2191

> <i_lp_mmshare_version>
43012

> <i_f3d_flags>
0

> <s_epik_input>
W2NIXTFbY0hdW2NIXVtjSF1jKGMxMiluKFtjSF1uMilbQ0gyXVtDQEhdKFtPSF0pW0NIMl1PYzNbY0hdW2NIXVtjSF1bY0hdW2NIXTM=

> <s_epik_cmdline>
J2VwaWtfcHl0aG9uJywgJy1waCcsICc3LjAnLCAnLXRuJywgJzgnLCAnLW1hJywgJzIwMCcsICctbWV0YWxfYmluZGluZycsICctaW1hZScsICc8aW5maWxlLm1hZT4nLCAnLW9tYWUnLCAnPG91dGZpbGUubWFlPic=

> <r_lp_tautomer_probability>
1

> <r_epik_Ionization_Penalty>
0.0640132

> <r_epik_Ionization_Penalty_Charging>
0

> <r_epik_Ionization_Penalty_Neutral>
0.0640132

> <r_epik_State_Penalty>
0.0557325

> <r_epik_Charging_Adjusted_Penalty>
0.0557325

> <i_epik_Tot_Q>
0

> <i_epik_Tot_abs_Q>
0

> <r_epik_Metal_State_Penalty>
5.8435e-05

> <b_epik_Metal_Only>
0

> <s_lp_Force_Field>
OPLS_2005

> <r_lp_Energy>
16.2786

> <b_lp_Chiralities_Consistent>
1

> <s_lp_Variant>
AV-unprocessed.smi:2191-1

> <Gold.Version>
5.8.1

> <Gold.Id.Protein>
6NUR|6NUR_protein|mol2

> <Gold.PLP.Fitness>
44.1282

> <Gold.PLP.PLP>
-44.7259

> <Gold.PLP.part.hbond>
-0.7613

> <Gold.PLP.part.metal>
0.0000

> <Gold.PLP.part.buried>
-4.4385

> <Gold.PLP.part.nonpolar>
-39.7107

> <Gold.PLP.part.repulsive>
0.0000

> <Gold.PLP.ligand.clash>
0.0000

> <Gold.PLP.ligand.torsion>
1.1614

> <Gold.PLP.Chemscore.Hbond>
0.5663

> <Gold.PLP.Chemscore.CHOScore>
0.0000

> <Gold.PLP.Chemscore.Metal>
0.0000

> <Gold.Chemscore.Hbonds>
donor molecule, donor type, donor heavy atom, donor atom, acceptor molecule, acceptor atom, score
      P1  H  6896  6907       L1    14  0.03

> <Gold.PLP.Chemscore.Internal.Correction>
0.0261

> <Gold.Rescore>
     Score         DG    S(hbond)    S(metal)    S(lipo)     H(rot)  DE(clash)    DE(int)     intcor
     14.32     -15.44       0.00        0.00     133.71       2.22       0.06       1.06       ----

> <Gold.Chemscore.Fitness>
14.3223

> <Gold.Chemscore.DG>
-15.4412

> <Gold.Chemscore.ZeroCoef>
-5.4800

> <Gold.Chemscore.Hbond>
0.0000

> <Gold.Chemscore.Metal>
0.0000

> <Gold.Chemscore.Lipo>
133.7131

> <Gold.Chemscore.Internal_Hbond>
0.0000

> <Gold.Chemscore.DEClash>
0.0561

> <Gold.Chemscore.DEInternal>
1.0628

> <Gold.Chemscore.Rot>
2.2200

> <Gold.Chemscore.Internal.Correction>
   9.000000E+99

> <Gold.Chemscore.Hbond.Weighted>
-0.0000

> <Gold.Chemscore.Metal.Weighted>
-0.0000

> <Gold.Chemscore.Lipo.Weighted>
-15.6444

> <Gold.Chemscore.Internal_Hbond.Weighted>
0.0000

> <Gold.Chemscore.DEClash.Weighted>
0.0561

> <Gold.Chemscore.DEInternal.Weighted>
1.0628

> <Gold.Chemscore.Rot.Weighted>
5.6832

> <Gold.Chemscore.Internal.Correction.Weighted>
   9.000000E+99

> <Gold.Protein.RotatedTorsions>
[ 6907 6896 6895 6894 ] final   90.48 input  -60.11 | X-H torsion
[ 7974 7965 7964 7962 ] final  122.29 input  175.53 | X-H torsion
[ 8008 7997 7996 7995 ] final  -63.34 input   59.86 | X-H torsion
[ 10167 10162 10161 10158 ] final   66.22 input  -65.29 | X-H torsion
[ 10718 10713 10712 10709 ] final -136.53 input   66.30 | X-H torsion
[ 10763 10752 10751 10750 ] final -159.35 input  -60.55 | X-H torsion
[ 11005 11000 10999 10996 ] final  -44.48 input  -57.11 | X-H torsion

> <Gold.Protein.ActiveResidues>
 VAL166  LYS551  ARG553  GLY616  TRP617  ASP618  TYR619  PRO620  LYS621  CYS622 
 ASP623  PHE694  ASN695  SER759  ASP760  ASP761  ALA762  ILE779  LEU786  VAL792 
 PHE793  MET794  SER795  GLU796  ALA797  LYS798  CYS799  TRP800  GLU811  SER814 

> <Gold.Protein.RotatedAtoms>
  152.5445  134.1805  159.8633 H   0  0  0  0  0  0  0  0  0  0  0  0  # atno 6907 bound_to 6896
  151.1808  133.4719  159.2601 H   0  0  0  0  0  0  0  0  0  0  0  0  # atno 6908 bound_to 6896
  151.1181  135.0075  159.8581 H   0  0  0  0  0  0  0  0  0  0  0  0  # atno 6909 bound_to 6896
  145.1092  139.3464  143.4772 H   0  0  0  0  0  0  0  0  0  0  0  0  # atno 7974 bound_to 7965
  154.4549  140.0977  156.6728 H   0  0  0  0  0  0  0  0  0  0  0  0  # atno 8008 bound_to 7997
  155.5169  140.3478  155.4381 H   0  0  0  0  0  0  0  0  0  0  0  0  # atno 8009 bound_to 7997
  156.0757  140.1360  156.9763 H   0  0  0  0  0  0  0  0  0  0  0  0  # atno 8010 bound_to 7997
  140.1027  144.4889  150.7027 H   0  0  0  0  0  0  0  0  0  0  0  0  # atno 10167 bound_to 10162
  156.2780  130.7304  151.1293 H   0  0  0  0  0  0  0  0  0  0  0  0  # atno 10718 bound_to 10713
  154.7482  135.3085  154.8606 H   0  0  0  0  0  0  0  0  0  0  0  0  # atno 10763 bound_to 10752
  153.9401  135.6775  153.4748 H   0  0  0  0  0  0  0  0  0  0  0  0  # atno 10764 bound_to 10752
  153.1078  135.4881  154.8909 H   0  0  0  0  0  0  0  0  0  0  0  0  # atno 10765 bound_to 10752
  141.0453  133.6763  156.2879 H   0  0  0  0  0  0  0  0  0  0  0  0  # atno 11005 bound_to 11000
  146.3527  140.1004  142.8608 LP  0  0  0  0  0  0  0  0  0  0  0  0  # atno 17320 bound_to 7965
  145.0866  140.9257  143.4794 LP  0  0  0  0  0  0  0  0  0  0  0  0  # atno 17321 bound_to 7965
  140.6969  143.2409  151.4976 LP  0  0  0  0  0  0  0  0  0  0  0  0  # atno 17342 bound_to 10162
  139.5662  144.2037  152.1768 LP  0  0  0  0  0  0  0  0  0  0  0  0  # atno 17343 bound_to 10162
  157.7305  131.0615  150.5721 LP  0  0  0  0  0  0  0  0  0  0  0  0  # atno 17370 bound_to 10713
  156.5824  130.4308  149.5971 LP  0  0  0  0  0  0  0  0  0  0  0  0  # atno 17371 bound_to 10713
  140.6158  134.5412  157.5540 LP  0  0  0  0  0  0  0  0  0  0  0  0  # atno 17394 bound_to 11000
  139.9307  134.7969  156.0939 LP  0  0  0  0  0  0  0  0  0  0  0  0  # atno 17395 bound_to 11000

$$$$
