AV-unprocessed.smi:1355|AV-procd|sdf|5538|dock2
  -GOLD-   22720 5133D 1   1.00000     0.00000
 Structure written by MMmdl.
 33 34  0  0  0  0  0  0  0  0  2 V2000
  153.8785  138.7212  154.5397 C   0  0  0  0  0  0  0  0  0  0  0  0
  153.1047  139.2389  155.6070 O   0  0  0  0  0  0  0  0  0  0  0  0
  151.8038  138.6766  155.6616 C   0  0  0  0  0  0  0  0  0  0  0  0
  151.0402  139.2698  156.8539 C   0  0  0  0  0  0  0  0  0  0  0  0
  150.9414  140.7359  156.7761 N   0  0  0  0  0  0  0  0  0  0  0  0
  150.2523  141.5404  155.9128 C   0  0  0  0  0  0  0  0  0  0  0  0
  149.3782  141.1195  154.7709 C   0  0  2  0  0  0  0  0  0  0  0  0
  148.1639  140.3233  155.2688 C   0  0  0  0  0  0  0  0  0  0  0  0
  150.0835  140.3299  153.8371 O   0  0  0  0  0  0  0  0  0  0  0  0
  150.5021  142.8296  156.2813 N   0  3  0  0  0  0  0  0  0  0  0  0
  151.3659  142.8530  157.3754 C   0  0  0  0  0  0  0  0  0  0  0  0
  151.9030  143.9198  158.0889 C   0  0  0  0  0  0  0  0  0  0  0  0
  152.7603  143.5959  159.1608 C   0  0  0  0  0  0  0  0  0  0  0  0
  153.0552  142.2558  159.4855 C   0  0  0  0  0  0  0  0  0  0  0  0
  152.5052  141.1829  158.7537 C   0  0  0  0  0  0  0  0  0  0  0  0
  151.6554  141.5115  157.6973 C   0  0  0  0  0  0  0  0  0  0  0  0
  154.8595  139.1964  154.5367 H   0  0  0  0  0  0  0  0  0  0  0  0
  153.4054  138.9182  153.5769 H   0  0  0  0  0  0  0  0  0  0  0  0
  154.0257  137.6456  154.6453 H   0  0  0  0  0  0  0  0  0  0  0  0
  151.2663  138.8874  154.7360 H   0  0  0  0  0  0  0  0  0  0  0  0
  151.8687  137.5921  155.7615 H   0  0  0  0  0  0  0  0  0  0  0  0
  150.0303  138.8627  156.8960 H   0  0  0  0  0  0  0  0  0  0  0  0
  151.5131  138.9929  157.7963 H   0  0  0  0  0  0  0  0  0  0  0  0
  149.0212  142.0034  154.2442 H   0  0  0  0  0  0  0  0  0  0  0  0
  147.5717  140.9106  155.9709 H   0  0  0  0  0  0  0  0  0  0  0  0
  148.4660  139.4060  155.7757 H   0  0  0  0  0  0  0  0  0  0  0  0
  147.5102  140.0455  154.4414 H   0  0  0  0  0  0  0  0  0  0  0  0
  149.6446  140.3878  153.0020 H   0  0  0  0  0  0  0  0  0  0  0  0
  151.6794  144.9469  157.8399 H   0  0  0  0  0  0  0  0  0  0  0  0
  153.2008  144.3909  159.7449 H   0  0  0  0  0  0  0  0  0  0  0  0
  153.7171  142.0461  160.3132 H   0  0  0  0  0  0  0  0  0  0  0  0
  152.7403  140.1609  159.0109 H   0  0  0  0  0  0  0  0  0  0  0  0
  150.1058  143.6333  155.8115 H   0  0  0  0  0  0  0  0  0  0  0  0
  1  2  1  0  0  0  0
  1 17  1  0  0  0  0
  1 18  1  0  0  0  0
  1 19  1  0  0  0  0
  2  3  1  0  0  0  0
  3  4  1  0  0  0  0
  3 20  1  0  0  0  0
  3 21  1  0  0  0  0
  4  5  1  0  0  0  0
  4 22  1  0  0  0  0
  4 23  1  0  0  0  0
  5 16  1  0  0  0  0
  5  6  1  0  0  0  0
  6  7  1  0  0  0  0
  6 10  2  0  0  0  0
  7  8  1  0  0  0  0
  7  9  1  0  0  0  0
  7 24  1  0  0  0  0
  8 25  1  0  0  0  0
  8 26  1  0  0  0  0
  8 27  1  0  0  0  0
  9 28  1  0  0  0  0
 10 11  1  0  0  0  0
 10 33  1  0  0  0  0
 11 16  2  0  0  0  0
 11 12  1  0  0  0  0
 12 13  2  0  0  0  0
 12 29  1  0  0  0  0
 13 14  1  0  0  0  0
 13 30  1  0  0  0  0
 14 15  2  0  0  0  0
 14 31  1  0  0  0  0
 15 16  1  0  0  0  0
 15 32  1  0  0  0  0
M  CHG  1  10   1
M  END
> <s_m_source_file>
AV-unprocessed.smi

> <i_m_source_file_index>
1355

> <i_lp_mmshare_version>
43012

> <i_f3d_flags>
0

> <s_epik_input>
W0NIM11PW0NIMl1bQ0gyXW4oYyhuMSlbQ0BIXShbQ0gzXSlbT0hdKWMoYzEyKVtjSF1bY0hdW2NIXVtjSF0y

> <s_epik_cmdline>
J2VwaWtfcHl0aG9uJywgJy1waCcsICc3LjAnLCAnLXRuJywgJzgnLCAnLW1hJywgJzIwMCcsICctbWV0YWxfYmluZGluZycsICctaW1hZScsICc8aW5maWxlLm1hZT4nLCAnLW9tYWUnLCAnPG91dGZpbGUubWFlPic=

> <r_epik_Ionization_Penalty>
1.43426

> <r_epik_Ionization_Penalty_Charging>
1.43423

> <r_epik_Ionization_Penalty_Neutral>
2.92192e-05

> <r_epik_State_Penalty>
1.51908

> <r_epik_Charging_Adjusted_Penalty>
2.95331

> <i_epik_Tot_Q>
1

> <i_epik_Tot_abs_Q>
1

> <r_epik_Metal_State_Penalty>
5.5644

> <b_epik_Metal_Only>
0

> <s_lp_Force_Field>
OPLS_2005

> <r_lp_Energy>
10.4801

> <b_lp_Chiralities_Consistent>
1

> <s_lp_Variant>
AV-unprocessed.smi:1355-3

> <Gold.Version>
5.8.1

> <Gold.Id.Protein>
6NUR|6NUR_protein|mol2

> <Gold.PLP.Fitness>
49.9171

> <Gold.PLP.PLP>
-36.1604

> <Gold.PLP.part.hbond>
-3.8890

> <Gold.PLP.part.metal>
0.0000

> <Gold.PLP.part.buried>
-3.5662

> <Gold.PLP.part.nonpolar>
-29.3229

> <Gold.PLP.part.repulsive>
0.1059

> <Gold.PLP.ligand.clash>
0.0000

> <Gold.PLP.ligand.torsion>
0.0901

> <Gold.PLP.Chemscore.Hbond>
4.6368

> <Gold.PLP.Chemscore.CHOScore>
0.0000

> <Gold.PLP.Chemscore.Metal>
0.0000

> <Gold.Chemscore.Hbonds>
donor molecule, donor type, donor heavy atom, donor atom, acceptor molecule, acceptor atom, score
      L1  H     9    28       P1  7957  0.99
      L1  H    10    33       P1  8028  2.00
      P1  H  7989  7998       L1     9  0.75
      P1  H  7997  8009       L1     2  0.89

> <Gold.PLP.Chemscore.Internal.Correction>
0.0266

> <Gold.Rescore>
     Score         DG    S(hbond)    S(metal)    S(lipo)     H(rot)  DE(clash)    DE(int)     intcor
     19.16     -19.37       2.43        0.00      95.19       2.10       0.08       0.12       ----

> <Gold.Chemscore.Fitness>
19.1636

> <Gold.Chemscore.DG>
-19.3684

> <Gold.Chemscore.ZeroCoef>
-5.4800

> <Gold.Chemscore.Hbond>
2.4346

> <Gold.Chemscore.Metal>
0.0000

> <Gold.Chemscore.Lipo>
95.1881

> <Gold.Chemscore.Internal_Hbond>
0.0000

> <Gold.Chemscore.DEClash>
0.0850

> <Gold.Chemscore.DEInternal>
0.1198

> <Gold.Chemscore.Rot>
2.1017

> <Gold.Chemscore.Internal.Correction>
   9.000000E+99

> <Gold.Chemscore.Hbonds>
donor molecule, donor type, donor heavy atom, donor atom, acceptor molecule, acceptor atom, score
      L1  H     9    28       P1  7957  0.94
      L1  H    10    33       P1  8028  0.94
      P1  H  7989  7998       L1     9  0.23
      P1  H  7997  8009       L1     2  0.17

> <Gold.Chemscore.Hbond.Weighted>
-8.1317

> <Gold.Chemscore.Metal.Weighted>
-0.0000

> <Gold.Chemscore.Lipo.Weighted>
-11.1370

> <Gold.Chemscore.Internal_Hbond.Weighted>
0.0000

> <Gold.Chemscore.DEClash.Weighted>
0.0850

> <Gold.Chemscore.DEInternal.Weighted>
0.1198

> <Gold.Chemscore.Rot.Weighted>
5.3803

> <Gold.Chemscore.Internal.Correction.Weighted>
   9.000000E+99

> <Gold.Protein.RotatedTorsions>
[ 6907 6896 6895 6894 ] final -121.65 input  -60.11 | X-H torsion
[ 7974 7965 7964 7962 ] final  104.50 input  175.53 | X-H torsion
[ 8008 7997 7996 7995 ] final -167.66 input   59.86 | X-H torsion
[ 10167 10162 10161 10158 ] final -158.22 input  -65.29 | X-H torsion
[ 10718 10713 10712 10709 ] final  170.91 input   66.30 | X-H torsion
[ 10763 10752 10751 10750 ] final   -7.32 input  -60.55 | X-H torsion
[ 11005 11000 10999 10996 ] final  -11.40 input  -57.11 | X-H torsion

> <Gold.Protein.ActiveResidues>
 VAL166  LYS551  ARG553  GLY616  TRP617  ASP618  TYR619  PRO620  LYS621  CYS622 
 ASP623  PHE694  ASN695  SER759  ASP760  ASP761  ALA762  ILE779  LEU786  VAL792 
 PHE793  MET794  SER795  GLU796  ALA797  LYS798  CYS799  TRP800  GLU811  SER814 

> <Gold.Protein.RotatedAtoms>
  150.8503  133.7797  159.3027 H   0  0  0  0  0  0  0  0  0  0  0  0  # atno 6907 bound_to 6896
  151.5471  135.1066  159.9950 H   0  0  0  0  0  0  0  0  0  0  0  0  # atno 6908 bound_to 6896
  152.4547  133.7656  159.6827 H   0  0  0  0  0  0  0  0  0  0  0  0  # atno 6909 bound_to 6896
  145.3319  139.2484  143.3656 H   0  0  0  0  0  0  0  0  0  0  0  0  # atno 7974 bound_to 7965
  155.8808  140.1008  157.1487 H   0  0  0  0  0  0  0  0  0  0  0  0  # atno 8008 bound_to 7997
  154.4005  140.1329  156.4257 H   0  0  0  0  0  0  0  0  0  0  0  0  # atno 8009 bound_to 7997
  155.7645  140.3462  155.5217 H   0  0  0  0  0  0  0  0  0  0  0  0  # atno 8010 bound_to 7997
  139.6709  143.9746  152.2283 H   0  0  0  0  0  0  0  0  0  0  0  0  # atno 10167 bound_to 10162
  157.0012  131.0176  151.2830 H   0  0  0  0  0  0  0  0  0  0  0  0  # atno 10718 bound_to 10713
  153.4247  135.7011  153.6270 H   0  0  0  0  0  0  0  0  0  0  0  0  # atno 10763 bound_to 10752
  153.4710  135.3715  155.2391 H   0  0  0  0  0  0  0  0  0  0  0  0  # atno 10764 bound_to 10752
  154.8723  135.4043  154.3621 H   0  0  0  0  0  0  0  0  0  0  0  0  # atno 10765 bound_to 10752
  140.7549  133.8562  155.9075 H   0  0  0  0  0  0  0  0  0  0  0  0  # atno 11005 bound_to 11000
  146.3042  140.3899  142.8693 LP  0  0  0  0  0  0  0  0  0  0  0  0  # atno 17320 bound_to 7965
  144.8857  140.7459  143.5958 LP  0  0  0  0  0  0  0  0  0  0  0  0  # atno 17321 bound_to 7965
  139.9511  144.6620  150.8171 LP  0  0  0  0  0  0  0  0  0  0  0  0  # atno 17342 bound_to 10162
  140.7618  143.3182  151.2684 LP  0  0  0  0  0  0  0  0  0  0  0  0  # atno 17343 bound_to 10162
  157.5389  130.8107  149.8005 LP  0  0  0  0  0  0  0  0  0  0  0  0  # atno 17370 bound_to 10713
  156.0170  130.3810  150.2079 LP  0  0  0  0  0  0  0  0  0  0  0  0  # atno 17371 bound_to 10713
  140.9717  134.1522  157.4570 LP  0  0  0  0  0  0  0  0  0  0  0  0  # atno 17394 bound_to 11000
  139.8781  134.9981  156.5880 LP  0  0  0  0  0  0  0  0  0  0  0  0  # atno 17395 bound_to 11000

$$$$
