AV-unprocessed.smi:228|AV-procd|sdf|1743|dock6
  -GOLD-   2262020253D 1   1.00000     0.00000
 Structure written by MMmdl.
 60 63  0  0  0  0  0  0  0  0  2 V2000
  148.9429  138.4229  156.5442 C   0  0  0  0  0  0  0  0  0  0  0  0
  148.1889  138.3791  155.2964 N   0  0  0  0  0  0  0  0  0  0  0  0
  148.5799  139.3128  154.2375 C   0  0  0  0  0  0  0  0  0  0  0  0
  147.4996  140.3542  153.8590 C   0  0  2  0  0  0  0  0  0  0  0  0
  147.2478  140.1932  152.4793 O   0  0  0  0  0  0  0  0  0  0  0  0
  147.9261  141.8230  154.0834 C   0  0  0  0  0  0  0  0  0  0  0  0
  148.0368  142.1941  155.5186 N   0  3  0  0  0  0  0  0  0  0  0  0
  146.7531  142.0262  156.2406 C   0  0  0  0  0  0  0  0  0  0  0  0
  146.8963  142.4451  157.7133 C   0  0  0  0  0  0  0  0  0  0  0  0
  147.9295  141.6854  158.3262 O   0  0  0  0  0  0  0  0  0  0  0  0
  149.1896  141.9130  157.7099 C   0  0  0  0  0  0  0  0  0  0  0  0
  149.1325  141.4885  156.2320 C   0  0  0  0  0  0  0  0  0  0  0  0
  147.7222  137.1447  154.9767 C   0  0  0  0  0  0  0  0  0  0  0  0
  148.2222  136.0432  155.5958 N   0  0  0  0  0  0  0  0  0  0  0  0
  147.7817  134.8253  155.2667 C   0  0  0  0  0  0  0  0  0  0  0  0
  146.8683  134.4878  154.3548 N   0  0  0  0  0  0  0  0  0  0  0  0
  146.3580  135.5887  153.7331 C   0  0  0  0  0  0  0  0  0  0  0  0
  146.7168  136.9416  153.9902 C   0  0  0  0  0  0  0  0  0  0  0  0
  145.9880  137.7892  153.1650 N   0  0  0  0  0  0  0  0  0  0  0  0
  145.2331  136.9845  152.4680 C   0  0  0  0  0  0  0  0  0  0  0  0
  145.4210  135.6435  152.7162 N   0  0  0  0  0  0  0  0  0  0  0  0
  144.7232  134.5492  152.1076 C   0  0  0  0  0  0  0  0  0  0  0  0
  145.2480  133.1168  152.2399 C   0  0  0  0  0  0  0  0  0  0  0  0
  144.7905  132.8013  150.7988 C   0  0  0  0  0  0  0  0  0  0  0  0
  145.8255  132.0689  149.9306 C   0  0  0  0  0  0  0  0  0  0  0  0
  146.4097  130.9859  150.6254 O   0  0  0  0  0  0  0  0  0  0  0  0
  143.4483  132.0533  150.6346 C   0  0  0  0  0  0  0  0  0  0  0  0
  142.9517  132.0781  149.3118 O   0  0  0  0  0  0  0  0  0  0  0  0
  144.7526  134.3322  150.5908 C   0  0  0  0  0  0  0  0  0  0  0  0
  148.2761  138.6310  157.3811 H   0  0  0  0  0  0  0  0  0  0  0  0
  149.7016  139.2057  156.5221 H   0  0  0  0  0  0  0  0  0  0  0  0
  149.4522  137.4774  156.7372 H   0  0  0  0  0  0  0  0  0  0  0  0
  149.4780  139.8414  154.5598 H   0  0  0  0  0  0  0  0  0  0  0  0
  148.8693  138.7386  153.3559 H   0  0  0  0  0  0  0  0  0  0  0  0
  146.5560  140.1431  154.3571 H   0  0  0  0  0  0  0  0  0  0  0  0
  148.0675  140.2587  152.0127 H   0  0  0  0  0  0  0  0  0  0  0  0
  148.8811  141.9880  153.5818 H   0  0  0  0  0  0  0  0  0  0  0  0
  147.2164  142.5034  153.6092 H   0  0  0  0  0  0  0  0  0  0  0  0
  145.9799  142.6293  155.7634 H   0  0  0  0  0  0  0  0  0  0  0  0
  146.4330  140.9848  156.1791 H   0  0  0  0  0  0  0  0  0  0  0  0
  147.1092  143.5111  157.7994 H   0  0  0  0  0  0  0  0  0  0  0  0
  145.9629  142.2644  158.2463 H   0  0  0  0  0  0  0  0  0  0  0  0
  149.4686  142.9614  157.8082 H   0  0  0  0  0  0  0  0  0  0  0  0
  149.9496  141.3354  158.2361 H   0  0  0  0  0  0  0  0  0  0  0  0
  148.9765  140.4107  156.1659 H   0  0  0  0  0  0  0  0  0  0  0  0
  150.0937  141.7012  155.7659 H   0  0  0  0  0  0  0  0  0  0  0  0
  148.2295  134.0035  155.8061 H   0  0  0  0  0  0  0  0  0  0  0  0
  144.5268  137.3515  151.7374 H   0  0  0  0  0  0  0  0  0  0  0  0
  143.6961  134.6169  152.4678 H   0  0  0  0  0  0  0  0  0  0  0  0
  146.3328  133.0827  152.3563 H   0  0  0  0  0  0  0  0  0  0  0  0
  144.7558  132.5286  153.0151 H   0  0  0  0  0  0  0  0  0  0  0  0
  145.3756  131.6977  149.0092 H   0  0  0  0  0  0  0  0  0  0  0  0
  146.6296  132.7421  149.6315 H   0  0  0  0  0  0  0  0  0  0  0  0
  147.2736  130.8337  150.2740 H   0  0  0  0  0  0  0  0  0  0  0  0
  143.5498  131.0083  150.9291 H   0  0  0  0  0  0  0  0  0  0  0  0
  142.6800  132.4844  151.2770 H   0  0  0  0  0  0  0  0  0  0  0  0
  142.2858  132.7461  149.2534 H   0  0  0  0  0  0  0  0  0  0  0  0
  143.8707  134.7031  150.0674 H   0  0  0  0  0  0  0  0  0  0  0  0
  145.6646  134.7186  150.1328 H   0  0  0  0  0  0  0  0  0  0  0  0
  148.2488  143.1816  155.5472 H   0  0  0  0  0  0  0  0  0  0  0  0
  1  2  1  0  0  0  0
  1 30  1  0  0  0  0
  1 31  1  0  0  0  0
  1 32  1  0  0  0  0
  2  3  1  0  0  0  0
  2 13  1  0  0  0  0
  3  4  1  0  0  0  0
  3 33  1  0  0  0  0
  3 34  1  0  0  0  0
  4  5  1  0  0  0  0
  4  6  1  0  0  0  0
  4 35  1  0  0  0  0
  5 36  1  0  0  0  0
  6  7  1  0  0  0  0
  6 37  1  0  0  0  0
  6 38  1  0  0  0  0
  7 12  1  0  0  0  0
  7  8  1  0  0  0  0
  7 60  1  0  0  0  0
  8  9  1  0  0  0  0
  8 39  1  0  0  0  0
  8 40  1  0  0  0  0
  9 10  1  0  0  0  0
  9 41  1  0  0  0  0
  9 42  1  0  0  0  0
 10 11  1  0  0  0  0
 11 12  1  0  0  0  0
 11 43  1  0  0  0  0
 11 44  1  0  0  0  0
 12 45  1  0  0  0  0
 12 46  1  0  0  0  0
 13 18  1  0  0  0  0
 13 14  2  0  0  0  0
 14 15  1  0  0  0  0
 15 16  2  0  0  0  0
 15 47  1  0  0  0  0
 16 17  1  0  0  0  0
 17 21  1  0  0  0  0
 17 18  2  0  0  0  0
 18 19  1  0  0  0  0
 19 20  2  0  0  0  0
 20 21  1  0  0  0  0
 20 48  1  0  0  0  0
 21 22  1  0  0  0  0
 22 29  1  0  0  0  0
 22 23  1  0  0  0  0
 22 49  1  0  0  0  0
 23 24  1  0  0  0  0
 23 50  1  0  0  0  0
 23 51  1  0  0  0  0
 24 25  1  0  0  0  0
 24 27  1  0  0  0  0
 24 29  1  0  0  0  0
 25 26  1  0  0  0  0
 25 52  1  0  0  0  0
 25 53  1  0  0  0  0
 26 54  1  0  0  0  0
 27 28  1  0  0  0  0
 27 55  1  0  0  0  0
 27 56  1  0  0  0  0
 28 57  1  0  0  0  0
 29 58  1  0  0  0  0
 29 59  1  0  0  0  0
M  CHG  1   7   1
M  END
> <s_m_source_file>
AV-unprocessed.smi

> <i_m_source_file_index>
228

> <i_lp_mmshare_version>
43012

> <i_f3d_flags>
0

> <s_epik_input>
W0NIMl0xW0NIMl1PW0NIMl1bQ0gyXU4xW0NIMl1bQ0BASF0oW09IXSlbQ0gyXU4oW0NIM10pYyhuW2NIXW4yKWMoYzIzKW5bY0hdbjNbQ0hdKFtDSDJdNClbQ0gyXUM0KFtDSDJdW09IXSlbQ0gyXVtPSF0=

> <s_epik_cmdline>
J2VwaWtfcHl0aG9uJywgJy1waCcsICc3LjAnLCAnLXRuJywgJzgnLCAnLW1hJywgJzIwMCcsICctbWV0YWxfYmluZGluZycsICctaW1hZScsICc8aW5maWxlLm1hZT4nLCAnLW9tYWUnLCAnPG91dGZpbGUubWFlPic=

> <r_lp_tautomer_probability>
1

> <r_epik_Ionization_Penalty>
0.403032

> <r_epik_Ionization_Penalty_Charging>
0.40072

> <r_epik_Ionization_Penalty_Neutral>
0.00231206

> <r_epik_State_Penalty>
0.387266

> <r_epik_Charging_Adjusted_Penalty>
0.787986

> <i_epik_Tot_Q>
1

> <i_epik_Tot_abs_Q>
1

> <r_epik_Metal_State_Penalty>
0.385845

> <b_epik_Metal_Only>
0

> <s_lp_Force_Field>
OPLS_2005

> <r_lp_Energy>
45.878

> <b_lp_Chiralities_Consistent>
1

> <s_lp_Variant>
AV-unprocessed.smi:228-1

> <Gold.Version>
5.8.1

> <Gold.Id.Protein>
6NUR|6NUR_protein|mol2

> <Gold.PLP.Fitness>
56.7253

> <Gold.PLP.PLP>
-39.4780

> <Gold.PLP.part.hbond>
-6.5707

> <Gold.PLP.part.metal>
0.0000

> <Gold.PLP.part.buried>
-7.5961

> <Gold.PLP.part.nonpolar>
-26.8292

> <Gold.PLP.part.repulsive>
0.5142

> <Gold.PLP.ligand.clash>
0.0000

> <Gold.PLP.ligand.torsion>
2.1647

> <Gold.PLP.Chemscore.Hbond>
5.8200

> <Gold.PLP.Chemscore.CHOScore>
1.0000

> <Gold.PLP.Chemscore.Metal>
0.0000

> <Gold.Chemscore.Hbonds>
donor molecule, donor type, donor heavy atom, donor atom, acceptor molecule, acceptor atom, score
      L1  H     5    36       P1  7957  1.00
      L1  H     7    60       P1  8028  2.00
      L1  H    26    54       P1 10747  1.00
      L1  H    28    57       P1 10186  0.78
      P1  H 10785 10796       L1    28  0.99
      L1  C    20    48       P1 10171  1.00

> <Gold.PLP.Chemscore.Internal.Correction>
1.1167

> <Gold.Rescore>
     Score         DG    S(hbond)    S(metal)    S(lipo)     H(rot)  DE(clash)    DE(int)     intcor
     12.47     -17.07       4.37        0.00      78.82       4.77       0.11       4.49       ----

> <Gold.Chemscore.Fitness>
12.4707

> <Gold.Chemscore.DG>
-17.0727

> <Gold.Chemscore.ZeroCoef>
-5.4800

> <Gold.Chemscore.Hbond>
4.3687

> <Gold.Chemscore.Metal>
0.0000

> <Gold.Chemscore.Lipo>
78.8214

> <Gold.Chemscore.Internal_Hbond>
0.0000

> <Gold.Chemscore.DEClash>
0.1091

> <Gold.Chemscore.DEInternal>
4.4930

> <Gold.Chemscore.Rot>
4.7738

> <Gold.Chemscore.Internal.Correction>
   9.000000E+99

> <Gold.Chemscore.Hbonds>
donor molecule, donor type, donor heavy atom, donor atom, acceptor molecule, acceptor atom, score
      L1  H     5    36       P1  7957  1.00
      L1  H     7    60       P1  8028  0.92
      L1  H    26    54       P1 10747  0.99
      L1  H    28    57       P1 10186  0.77
      P1  H 10785 10796       L1    28  0.32

> <Gold.Chemscore.Hbond.Weighted>
-14.5915

> <Gold.Chemscore.Metal.Weighted>
-0.0000

> <Gold.Chemscore.Lipo.Weighted>
-9.2221

> <Gold.Chemscore.Internal_Hbond.Weighted>
0.0000

> <Gold.Chemscore.DEClash.Weighted>
0.1091

> <Gold.Chemscore.DEInternal.Weighted>
4.4930

> <Gold.Chemscore.Rot.Weighted>
12.2208

> <Gold.Chemscore.Internal.Correction.Weighted>
   9.000000E+99

> <Gold.Protein.RotatedTorsions>
[ 6907 6896 6895 6894 ] final -123.18 input  -60.11 | X-H torsion
[ 7974 7965 7964 7962 ] final  -53.69 input  175.53 | X-H torsion
[ 8008 7997 7996 7995 ] final  -40.24 input   59.86 | X-H torsion
[ 10167 10162 10161 10158 ] final   91.54 input  -65.29 | X-H torsion
[ 10718 10713 10712 10709 ] final  112.37 input   66.30 | X-H torsion
[ 10763 10752 10751 10750 ] final -163.63 input  -60.55 | X-H torsion
[ 11005 11000 10999 10996 ] final -114.75 input  -57.11 | X-H torsion

> <Gold.Protein.ActiveResidues>
 VAL166  LYS551  ARG553  GLY616  TRP617  ASP618  TYR619  PRO620  LYS621  CYS622 
 ASP623  PHE694  ASN695  SER759  ASP760  ASP761  ALA762  ILE779  LEU786  VAL792 
 PHE793  MET794  SER795  GLU796  ALA797  LYS798  CYS799  TRP800  GLU811  SER814 

> <Gold.Protein.RotatedAtoms>
  150.8647  133.7593  159.2980 H   0  0  0  0  0  0  0  0  0  0  0  0  # atno 6907 bound_to 6896
  151.5224  135.1066  159.9891 H   0  0  0  0  0  0  0  0  0  0  0  0  # atno 6908 bound_to 6896
  152.4652  133.7863  159.6933 H   0  0  0  0  0  0  0  0  0  0  0  0  # atno 6909 bound_to 6896
  145.8940  140.8047  142.9777 H   0  0  0  0  0  0  0  0  0  0  0  0  # atno 7974 bound_to 7965
  154.4014  140.1530  156.2995 H   0  0  0  0  0  0  0  0  0  0  0  0  # atno 8008 bound_to 7997
  155.8713  140.3448  155.5802 H   0  0  0  0  0  0  0  0  0  0  0  0  # atno 8009 bound_to 7997
  155.7771  140.0838  157.2069 H   0  0  0  0  0  0  0  0  0  0  0  0  # atno 8010 bound_to 7997
  139.8364  144.6662  150.9337 H   0  0  0  0  0  0  0  0  0  0  0  0  # atno 10167 bound_to 10162
  157.6396  131.0966  150.6886 H   0  0  0  0  0  0  0  0  0  0  0  0  # atno 10718 bound_to 10713
  154.7104  135.3005  154.9205 H   0  0  0  0  0  0  0  0  0  0  0  0  # atno 10763 bound_to 10752
  154.0109  135.6695  153.4769 H   0  0  0  0  0  0  0  0  0  0  0  0  # atno 10764 bound_to 10752
  153.0751  135.5039  154.8300 H   0  0  0  0  0  0  0  0  0  0  0  0  # atno 10765 bound_to 10752
  141.0532  133.9654  157.2800 H   0  0  0  0  0  0  0  0  0  0  0  0  # atno 11005 bound_to 11000
  144.6732  140.1574  143.7425 LP  0  0  0  0  0  0  0  0  0  0  0  0  # atno 17320 bound_to 7965
  145.8873  139.2356  143.1570 LP  0  0  0  0  0  0  0  0  0  0  0  0  # atno 17321 bound_to 7965
  140.7802  143.3953  151.1240 LP  0  0  0  0  0  0  0  0  0  0  0  0  # atno 17342 bound_to 10162
  139.7603  143.8646  152.3098 LP  0  0  0  0  0  0  0  0  0  0  0  0  # atno 17343 bound_to 10162
  156.7212  130.4681  149.5522 LP  0  0  0  0  0  0  0  0  0  0  0  0  # atno 17370 bound_to 10713
  156.1664  130.6408  151.0783 LP  0  0  0  0  0  0  0  0  0  0  0  0  # atno 17371 bound_to 10713
  139.9368  135.0195  156.8581 LP  0  0  0  0  0  0  0  0  0  0  0  0  # atno 17394 bound_to 11000
  140.6015  134.0168  155.7539 LP  0  0  0  0  0  0  0  0  0  0  0  0  # atno 17395 bound_to 11000

$$$$
