AV-unprocessed.smi:254|AV-procd|sdf|1945|dock3
  -GOLD-   2262021 73D 1   1.00000     0.00000
 Structure written by MMmdl.
 50 53  0  0  0  0  0  0  0  0  1 V2000
  153.4645  141.8376  159.6050 O   0  0  0  0  0  0  0  0  0  0  0  0
  152.6063  141.7960  158.7250 C   0  0  0  0  0  0  0  0  0  0  0  0
  152.0908  140.4980  158.1313 C   0  0  0  0  0  0  0  0  0  0  0  0
  151.0970  140.9896  157.1846 N   0  0  0  0  0  0  0  0  0  0  0  0
  150.3508  140.1705  156.3993 C   0  0  0  0  0  0  0  0  0  0  0  0
  150.2583  140.4637  155.0755 N   0  0  0  0  0  0  0  0  0  0  0  0
  149.5354  139.6947  154.2579 C   0  0  0  0  0  0  0  0  0  0  0  0
  148.8360  138.5981  154.5493 N   0  0  0  0  0  0  0  0  0  0  0  0
  148.9255  138.2882  155.8733 C   0  0  0  0  0  0  0  0  0  0  0  0
  149.6500  139.0164  156.8621 C   0  0  0  0  0  0  0  0  0  0  0  0
  149.4913  138.4008  158.0986 N   0  0  0  0  0  0  0  0  0  0  0  0
  148.7216  137.3767  157.8558 C   0  0  0  0  0  0  0  0  0  0  0  0
  148.3471  137.2207  156.5406 N   0  0  0  0  0  0  0  0  0  0  0  0
  147.4984  136.1674  155.9971 C   0  0  0  0  0  0  0  0  0  0  0  0
  148.1727  135.3039  154.8974 C   0  0  2  0  0  0  0  0  0  0  0  0
  147.1084  134.5276  154.0845 C   0  0  0  0  0  0  0  0  0  0  0  0
  147.1259  134.8795  152.7169 O   0  0  0  0  0  0  0  0  0  0  0  0
  149.2774  134.3788  155.4796 C   0  0  2  0  0  0  0  0  0  0  0  0
  149.8083  133.3413  154.5030 C   0  0  0  0  0  0  0  0  0  0  0  0
  150.5130  132.3538  155.4265 C   0  0  0  0  0  0  0  0  0  0  0  0
  149.7942  132.3946  156.6537 O   0  0  0  0  0  0  0  0  0  0  0  0
  148.8415  133.4518  156.6191 C   0  0  0  0  0  0  0  0  0  0  0  0
  151.0017  142.4426  157.1781 C   0  0  0  0  0  0  0  0  0  0  0  0
  151.9927  142.8438  158.1633 N   0  0  0  0  0  0  0  0  0  0  0  0
  152.2044  144.2543  158.4811 C   0  0  0  0  0  0  0  0  0  0  0  0
  151.6869  144.6255  159.8824 C   0  0  0  0  0  0  0  0  0  0  0  0
  150.3805  144.3715  159.9421 F   0  0  0  0  0  0  0  0  0  0  0  0
  152.2991  143.9133  160.8280 F   0  0  0  0  0  0  0  0  0  0  0  0
  151.8780  145.9235  160.1182 F   0  0  0  0  0  0  0  0  0  0  0  0
  152.8930  139.9564  157.6284 H   0  0  0  0  0  0  0  0  0  0  0  0
  151.6412  139.8686  158.9001 H   0  0  0  0  0  0  0  0  0  0  0  0
  149.5154  140.0014  153.2226 H   0  0  0  0  0  0  0  0  0  0  0  0
  148.4083  136.6999  158.6373 H   0  0  0  0  0  0  0  0  0  0  0  0
  147.1941  135.5265  156.8256 H   0  0  0  0  0  0  0  0  0  0  0  0
  146.5778  136.6181  155.6268 H   0  0  0  0  0  0  0  0  0  0  0  0
  148.6530  136.0063  154.2143 H   0  0  0  0  0  0  0  0  0  0  0  0
  147.2446  133.4504  154.1862 H   0  0  0  0  0  0  0  0  0  0  0  0
  146.1089  134.7606  154.4519 H   0  0  0  0  0  0  0  0  0  0  0  0
  147.7885  135.5404  152.5842 H   0  0  0  0  0  0  0  0  0  0  0  0
  150.1101  134.9837  155.8408 H   0  0  0  0  0  0  0  0  0  0  0  0
  148.9826  132.8454  153.9907 H   0  0  0  0  0  0  0  0  0  0  0  0
  150.4771  133.7455  153.7450 H   0  0  0  0  0  0  0  0  0  0  0  0
  150.5424  131.3455  155.0134 H   0  0  0  0  0  0  0  0  0  0  0  0
  151.5381  132.6746  155.6152 H   0  0  0  0  0  0  0  0  0  0  0  0
  148.7926  133.9626  157.5808 H   0  0  0  0  0  0  0  0  0  0  0  0
  147.8615  133.0190  156.4130 H   0  0  0  0  0  0  0  0  0  0  0  0
  151.2485  142.8515  156.1973 H   0  0  0  0  0  0  0  0  0  0  0  0
  150.0064  142.7758  157.4757 H   0  0  0  0  0  0  0  0  0  0  0  0
  153.2704  144.4756  158.4151 H   0  0  0  0  0  0  0  0  0  0  0  0
  151.7184  144.8747  157.7264 H   0  0  0  0  0  0  0  0  0  0  0  0
  1  2  2  0  0  0  0
  2 24  1  0  0  0  0
  2  3  1  0  0  0  0
  3  4  1  0  0  0  0
  3 30  1  0  0  0  0
  3 31  1  0  0  0  0
  4  5  1  0  0  0  0
  4 23  1  0  0  0  0
  5 10  1  0  0  0  0
  5  6  2  0  0  0  0
  6  7  1  0  0  0  0
  7  8  2  0  0  0  0
  7 32  1  0  0  0  0
  8  9  1  0  0  0  0
  9 13  1  0  0  0  0
  9 10  2  0  0  0  0
 10 11  1  0  0  0  0
 11 12  2  0  0  0  0
 12 13  1  0  0  0  0
 12 33  1  0  0  0  0
 13 14  1  0  0  0  0
 14 15  1  0  0  0  0
 14 34  1  0  0  0  0
 14 35  1  0  0  0  0
 15 16  1  0  0  0  0
 15 18  1  0  0  0  0
 15 36  1  0  0  0  0
 16 17  1  0  0  0  0
 16 37  1  0  0  0  0
 16 38  1  0  0  0  0
 17 39  1  0  0  0  0
 18 22  1  0  0  0  0
 18 19  1  0  0  0  0
 18 40  1  0  0  0  0
 19 20  1  0  0  0  0
 19 41  1  0  0  0  0
 19 42  1  0  0  0  0
 20 21  1  0  0  0  0
 20 43  1  0  0  0  0
 20 44  1  0  0  0  0
 21 22  1  0  0  0  0
 22 45  1  0  0  0  0
 22 46  1  0  0  0  0
 23 24  1  0  0  0  0
 23 47  1  0  0  0  0
 23 48  1  0  0  0  0
 24 25  1  0  0  0  0
 25 26  1  0  0  0  0
 25 49  1  0  0  0  0
 25 50  1  0  0  0  0
 26 27  1  0  0  0  0
 26 28  1  0  0  0  0
 26 29  1  0  0  0  0
M  END
> <s_m_source_file>
AV-unprocessed.smi

> <i_m_source_file_index>
254

> <i_lp_mmshare_version>
43012

> <i_f3d_flags>
0

> <s_epik_input>
RkMoRikoRilbQ0gyXU4xW0NIMl1OKFtDSDJdQzE9TyljKG5bY0hdbjIpYyhjMjMpbltjSF1uM1tDSDJdW0NASF0oW0NIMl1bT0hdKVtDQEBIXTRbQ0gyXVtDSDJdT1tDSDJdNA==

> <s_epik_cmdline>
J2VwaWtfcHl0aG9uJywgJy1waCcsICc3LjAnLCAnLXRuJywgJzgnLCAnLW1hJywgJzIwMCcsICctbWV0YWxfYmluZGluZycsICctaW1hZScsICc8aW5maWxlLm1hZT4nLCAnLW9tYWUnLCAnPG91dGZpbGUubWFlPic=

> <r_lp_tautomer_probability>
1

> <r_epik_Ionization_Penalty>
0.000292924

> <r_epik_Ionization_Penalty_Charging>
0

> <r_epik_Ionization_Penalty_Neutral>
0.000292924

> <r_epik_State_Penalty>
-0

> <r_epik_Charging_Adjusted_Penalty>
0

> <i_epik_Tot_Q>
0

> <i_epik_Tot_abs_Q>
0

> <r_epik_Metal_State_Penalty>
-0

> <b_epik_Metal_Only>
0

> <s_epik_Chemistry_Notes>
This compound contains an acetal/aminal-like group ( X-CH(R)-Y where X, Y are N, S, or O) that may be acid/base labile, releasing an aldehyde.

> <s_lp_Force_Field>
OPLS_2005

> <r_lp_Energy>
38.7096

> <b_lp_Chiralities_Consistent>
1

> <s_lp_Variant>
AV-unprocessed.smi:254-1

> <Gold.Version>
5.8.1

> <Gold.Id.Protein>
6NUR|6NUR_protein|mol2

> <Gold.PLP.Fitness>
48.3357

> <Gold.PLP.PLP>
-44.3263

> <Gold.PLP.part.hbond>
-1.6098

> <Gold.PLP.part.metal>
0.0000

> <Gold.PLP.part.buried>
-6.0405

> <Gold.PLP.part.nonpolar>
-36.3788

> <Gold.PLP.part.repulsive>
0.2320

> <Gold.PLP.ligand.clash>
0.0000

> <Gold.PLP.ligand.torsion>
1.8856

> <Gold.PLP.Chemscore.Hbond>
1.4167

> <Gold.PLP.Chemscore.CHOScore>
1.0000

> <Gold.PLP.Chemscore.Metal>
0.0000

> <Gold.Chemscore.Hbonds>
donor molecule, donor type, donor heavy atom, donor atom, acceptor molecule, acceptor atom, score
      L1  H    17    39       P1  7948  0.96
      P1  H  7989  7998       L1     6  0.38
      L1  C     7    32       P1  7957  1.00

> <Gold.PLP.Chemscore.Internal.Correction>
0.5306

> <Gold.Rescore>
     Score         DG    S(hbond)    S(metal)    S(lipo)     H(rot)  DE(clash)    DE(int)     intcor
      3.23      -7.31       0.99        0.00      59.66       3.30       0.04       4.04       ----

> <Gold.Chemscore.Fitness>
3.2350

> <Gold.Chemscore.DG>
-7.3107

> <Gold.Chemscore.ZeroCoef>
-5.4800

> <Gold.Chemscore.Hbond>
0.9855

> <Gold.Chemscore.Metal>
0.0000

> <Gold.Chemscore.Lipo>
59.6614

> <Gold.Chemscore.Internal_Hbond>
0.0000

> <Gold.Chemscore.DEClash>
0.0359

> <Gold.Chemscore.DEInternal>
4.0398

> <Gold.Chemscore.Rot>
3.2974

> <Gold.Chemscore.Internal.Correction>
   9.000000E+99

> <Gold.Chemscore.Hbonds>
donor molecule, donor type, donor heavy atom, donor atom, acceptor molecule, acceptor atom, score
      L1  H    17    39       P1  7948  0.89
      P1  H  7989  7998       L1     6  0.02

> <Gold.Chemscore.Hbond.Weighted>
-3.2917

> <Gold.Chemscore.Metal.Weighted>
-0.0000

> <Gold.Chemscore.Lipo.Weighted>
-6.9804

> <Gold.Chemscore.Internal_Hbond.Weighted>
0.0000

> <Gold.Chemscore.DEClash.Weighted>
0.0359

> <Gold.Chemscore.DEInternal.Weighted>
4.0398

> <Gold.Chemscore.Rot.Weighted>
8.4414

> <Gold.Chemscore.Internal.Correction.Weighted>
   9.000000E+99

> <Gold.Protein.RotatedTorsions>
[ 6907 6896 6895 6894 ] final  146.01 input  -60.11 | X-H torsion
[ 7974 7965 7964 7962 ] final   22.05 input  175.53 | X-H torsion
[ 8008 7997 7996 7995 ] final  125.70 input   59.86 | X-H torsion
[ 10167 10162 10161 10158 ] final   35.47 input  -65.29 | X-H torsion
[ 10718 10713 10712 10709 ] final   74.48 input   66.30 | X-H torsion
[ 10763 10752 10751 10750 ] final   -7.64 input  -60.55 | X-H torsion
[ 11005 11000 10999 10996 ] final  -59.02 input  -57.11 | X-H torsion

> <Gold.Protein.ActiveResidues>
 VAL166  LYS551  ARG553  GLY616  TRP617  ASP618  TYR619  PRO620  LYS621  CYS622 
 ASP623  PHE694  ASN695  SER759  ASP760  ASP761  ALA762  ILE779  LEU786  VAL792 
 PHE793  MET794  SER795  GLU796  ALA797  LYS798  CYS799  TRP800  GLU811  SER814 

> <Gold.Protein.RotatedAtoms>
  152.1735  133.4659  159.4920 H   0  0  0  0  0  0  0  0  0  0  0  0  # atno 6907 bound_to 6896
  150.6923  134.1923  159.4299 H   0  0  0  0  0  0  0  0  0  0  0  0  # atno 6908 bound_to 6896
  151.9831  135.0018  160.0609 H   0  0  0  0  0  0  0  0  0  0  0  0  # atno 6909 bound_to 6896
  146.2045  139.7940  142.8736 H   0  0  0  0  0  0  0  0  0  0  0  0  # atno 7974 bound_to 7965
  156.2842  140.2710  156.1992 H   0  0  0  0  0  0  0  0  0  0  0  0  # atno 8008 bound_to 7997
  155.0379  140.0386  157.2516 H   0  0  0  0  0  0  0  0  0  0  0  0  # atno 8009 bound_to 7997
  154.7299  140.2704  155.6470 H   0  0  0  0  0  0  0  0  0  0  0  0  # atno 8010 bound_to 7997
  140.4219  144.1448  150.6149 H   0  0  0  0  0  0  0  0  0  0  0  0  # atno 10167 bound_to 10162
  157.6594  130.9680  150.1218 H   0  0  0  0  0  0  0  0  0  0  0  0  # atno 10718 bound_to 10713
  153.4292  135.7011  153.6242 H   0  0  0  0  0  0  0  0  0  0  0  0  # atno 10763 bound_to 10752
  153.4664  135.3724  155.2367 H   0  0  0  0  0  0  0  0  0  0  0  0  # atno 10764 bound_to 10752
  154.8725  135.4032  154.3673 H   0  0  0  0  0  0  0  0  0  0  0  0  # atno 10765 bound_to 10752
  141.1231  133.6614  156.5009 H   0  0  0  0  0  0  0  0  0  0  0  0  # atno 11005 bound_to 11000
  145.3367  141.0279  143.3415 LP  0  0  0  0  0  0  0  0  0  0  0  0  # atno 17320 bound_to 7965
  144.8761  139.4970  143.6745 LP  0  0  0  0  0  0  0  0  0  0  0  0  # atno 17321 bound_to 7965
  140.4524  143.2481  151.9329 LP  0  0  0  0  0  0  0  0  0  0  0  0  # atno 17342 bound_to 10162
  139.4783  144.5548  151.8330 LP  0  0  0  0  0  0  0  0  0  0  0  0  # atno 17343 bound_to 10162
  156.2087  130.3665  149.8697 LP  0  0  0  0  0  0  0  0  0  0  0  0  # atno 17370 bound_to 10713
  156.6581  130.8771  151.3543 LP  0  0  0  0  0  0  0  0  0  0  0  0  # atno 17371 bound_to 10713
  140.4447  134.6984  157.5009 LP  0  0  0  0  0  0  0  0  0  0  0  0  # atno 17394 bound_to 11000
  140.0206  134.6553  155.9246 LP  0  0  0  0  0  0  0  0  0  0  0  0  # atno 17395 bound_to 11000

$$$$
