AV-unprocessed.smi:3212|AV-procd|sdf|12281|dock3
  -GOLD-   2272018113D 1   1.00000     0.00000
 Structure written by MMmdl.
 39 39  0  0  0  0  0  0  0  0  1 V2000
  146.5876  138.9790  151.1486 C   0  0  0  0  0  0  0  0  0  0  0  0
  146.1999  138.1403  152.3762 C   0  0  1  0  0  0  0  0  0  0  0  0
  146.3281  136.7041  152.0565 N   0  0  0  0  0  0  0  0  0  0  0  0
  145.3692  135.8007  152.6949 C   0  0  0  0  0  0  0  0  0  0  0  0
  144.3156  135.2318  151.7221 C   0  0  0  0  0  0  0  0  0  0  0  0
  144.8111  134.0988  150.9617 N   0  0  0  0  0  0  0  0  0  0  0  0
  144.1337  133.3147  150.0520 C   0  0  0  0  0  0  0  0  0  0  0  0
  145.0102  132.3724  149.5961 C   0  0  0  0  0  0  0  0  0  0  0  0
  146.2145  132.6648  150.2951 C   0  0  0  0  0  0  0  0  0  0  0  0
  146.0913  133.6963  151.1145 N   0  0  0  0  0  0  0  0  0  0  0  0
  147.0170  138.5722  153.6048 C   0  0  0  0  0  0  0  0  0  0  0  0
  146.4626  139.1543  154.5370 O   0  0  0  0  0  0  0  0  0  0  0  0
  148.3344  138.3043  153.5634 N   0  0  0  0  0  0  0  0  0  0  0  0
  149.3670  138.6388  154.5503 C   0  0  0  0  0  0  0  0  0  0  0  0
  149.4274  140.1744  154.6278 C   0  0  0  0  0  0  0  0  0  0  0  0
  150.7456  138.1046  154.1075 C   0  0  0  0  0  0  0  0  0  0  0  0
  148.9859  138.0805  155.9374 C   0  0  0  0  0  0  0  0  0  0  0  0
  146.4871  140.0465  151.3489 H   0  0  0  0  0  0  0  0  0  0  0  0
  145.9443  138.7463  150.2992 H   0  0  0  0  0  0  0  0  0  0  0  0
  147.6180  138.7933  150.8423 H   0  0  0  0  0  0  0  0  0  0  0  0
  145.1484  138.3480  152.5785 H   0  0  0  0  0  0  0  0  0  0  0  0
  147.2627  136.3758  152.2541 H   0  0  0  0  0  0  0  0  0  0  0  0
  145.9385  134.9756  153.1240 H   0  0  0  0  0  0  0  0  0  0  0  0
  144.8817  136.2864  153.5404 H   0  0  0  0  0  0  0  0  0  0  0  0
  143.4398  134.9053  152.2842 H   0  0  0  0  0  0  0  0  0  0  0  0
  143.9589  135.9941  151.0297 H   0  0  0  0  0  0  0  0  0  0  0  0
  143.0972  133.4928  149.8059 H   0  0  0  0  0  0  0  0  0  0  0  0
  144.8208  131.5937  148.8724 H   0  0  0  0  0  0  0  0  0  0  0  0
  147.1676  132.1607  150.2332 H   0  0  0  0  0  0  0  0  0  0  0  0
  148.6657  137.8255  152.7387 H   0  0  0  0  0  0  0  0  0  0  0  0
  150.1751  140.5075  155.3485 H   0  0  0  0  0  0  0  0  0  0  0  0
  148.4686  140.5955  154.9335 H   0  0  0  0  0  0  0  0  0  0  0  0
  149.6858  140.6117  153.6625 H   0  0  0  0  0  0  0  0  0  0  0  0
  151.0059  138.4572  153.1089 H   0  0  0  0  0  0  0  0  0  0  0  0
  150.7800  137.0152  154.0919 H   0  0  0  0  0  0  0  0  0  0  0  0
  151.5309  138.4369  154.7873 H   0  0  0  0  0  0  0  0  0  0  0  0
  149.6999  138.3981  156.6978 H   0  0  0  0  0  0  0  0  0  0  0  0
  148.9697  136.9908  155.9500 H   0  0  0  0  0  0  0  0  0  0  0  0
  147.9998  138.4281  156.2478 H   0  0  0  0  0  0  0  0  0  0  0  0
  1  2  1  0  0  0  0
  1 18  1  0  0  0  0
  1 19  1  0  0  0  0
  1 20  1  0  0  0  0
  2  3  1  0  0  0  0
  2 11  1  0  0  0  0
  2 21  1  0  0  0  0
  3  4  1  0  0  0  0
  3 22  1  0  0  0  0
  4  5  1  0  0  0  0
  4 23  1  0  0  0  0
  4 24  1  0  0  0  0
  5  6  1  0  0  0  0
  5 25  1  0  0  0  0
  5 26  1  0  0  0  0
  6 10  1  0  0  0  0
  6  7  1  0  0  0  0
  7  8  2  0  0  0  0
  7 27  1  0  0  0  0
  8  9  1  0  0  0  0
  8 28  1  0  0  0  0
  9 10  2  0  0  0  0
  9 29  1  0  0  0  0
 11 12  2  0  0  0  0
 11 13  1  0  0  0  0
 13 14  1  0  0  0  0
 13 30  1  0  0  0  0
 14 15  1  0  0  0  0
 14 16  1  0  0  0  0
 14 17  1  0  0  0  0
 15 31  1  0  0  0  0
 15 32  1  0  0  0  0
 15 33  1  0  0  0  0
 16 34  1  0  0  0  0
 16 35  1  0  0  0  0
 16 36  1  0  0  0  0
 17 37  1  0  0  0  0
 17 38  1  0  0  0  0
 17 39  1  0  0  0  0
M  END
> <s_m_source_file>
AV-unprocessed.smi

> <i_m_source_file_index>
3212

> <i_lp_mmshare_version>
43012

> <i_f3d_flags>
0

> <s_epik_input>
W0NIM11DKFtDSDNdKShbQ0gzXSlbTkhdQyg9TylbQ0BIXShbQ0gzXSlbTkhdW0NIMl1bQ0gyXW4xW2NIXVtjSF1bY0hdbjE=

> <s_epik_cmdline>
J2VwaWtfcHl0aG9uJywgJy1waCcsICc3LjAnLCAnLXRuJywgJzgnLCAnLW1hJywgJzIwMCcsICctbWV0YWxfYmluZGluZycsICctaW1hZScsICc8aW5maWxlLm1hZT4nLCAnLW9tYWUnLCAnPG91dGZpbGUubWFlPic=

> <r_lp_tautomer_probability>
1

> <r_epik_Ionization_Penalty>
0.745735

> <r_epik_Ionization_Penalty_Charging>
0

> <r_epik_Ionization_Penalty_Neutral>
0.745735

> <r_epik_State_Penalty>
0.771152

> <r_epik_Charging_Adjusted_Penalty>
0.771152

> <i_epik_Tot_Q>
0

> <i_epik_Tot_abs_Q>
0

> <r_epik_Metal_State_Penalty>
0.770403

> <b_epik_Metal_Only>
0

> <s_lp_Force_Field>
OPLS_2005

> <r_lp_Energy>
7.05168

> <b_lp_Chiralities_Consistent>
1

> <s_lp_Variant>
AV-unprocessed.smi:3212-4

> <Gold.Version>
5.8.1

> <Gold.Id.Protein>
6NUR|6NUR_protein|mol2

> <Gold.PLP.Fitness>
41.1045

> <Gold.PLP.PLP>
-31.0048

> <Gold.PLP.part.hbond>
-2.3991

> <Gold.PLP.part.metal>
0.0000

> <Gold.PLP.part.buried>
-2.5141

> <Gold.PLP.part.nonpolar>
-27.6928

> <Gold.PLP.part.repulsive>
0.2962

> <Gold.PLP.ligand.clash>
0.0000

> <Gold.PLP.ligand.torsion>
0.9728

> <Gold.PLP.Chemscore.Hbond>
1.9920

> <Gold.PLP.Chemscore.CHOScore>
2.0000

> <Gold.PLP.Chemscore.Metal>
0.0000

> <Gold.Chemscore.Hbonds>
donor molecule, donor type, donor heavy atom, donor atom, acceptor molecule, acceptor atom, score
      L1  H     3    22       P1  7948  1.00
      L1  H    13    30       P1  7948  0.99
      L1  C     7    27       P1 10186  1.00
      L1  C     9    29       P1 10747  1.00

> <Gold.PLP.Chemscore.Internal.Correction>
0.0693

> <Gold.Rescore>
     Score         DG    S(hbond)    S(metal)    S(lipo)     H(rot)  DE(clash)    DE(int)     intcor
     14.79     -16.13       1.91        0.00      79.94       1.99       0.38       0.96       ----

> <Gold.Chemscore.Fitness>
14.7925

> <Gold.Chemscore.DG>
-16.1348

> <Gold.Chemscore.ZeroCoef>
-5.4800

> <Gold.Chemscore.Hbond>
1.9136

> <Gold.Chemscore.Metal>
0.0000

> <Gold.Chemscore.Lipo>
79.9367

> <Gold.Chemscore.Internal_Hbond>
0.0000

> <Gold.Chemscore.DEClash>
0.3820

> <Gold.Chemscore.DEInternal>
0.9604

> <Gold.Chemscore.Rot>
1.9880

> <Gold.Chemscore.Internal.Correction>
   9.000000E+99

> <Gold.Chemscore.Hbonds>
donor molecule, donor type, donor heavy atom, donor atom, acceptor molecule, acceptor atom, score
      L1  H     3    22       P1  7948  0.95
      L1  H    13    30       P1  7948  0.94

> <Gold.Chemscore.Hbond.Weighted>
-6.3915

> <Gold.Chemscore.Metal.Weighted>
-0.0000

> <Gold.Chemscore.Lipo.Weighted>
-9.3526

> <Gold.Chemscore.Internal_Hbond.Weighted>
0.0000

> <Gold.Chemscore.DEClash.Weighted>
0.3820

> <Gold.Chemscore.DEInternal.Weighted>
0.9604

> <Gold.Chemscore.Rot.Weighted>
5.0893

> <Gold.Chemscore.Internal.Correction.Weighted>
   9.000000E+99

> <Gold.Protein.RotatedTorsions>
[ 6907 6896 6895 6894 ] final   45.49 input  -60.11 | X-H torsion
[ 7974 7965 7964 7962 ] final -103.06 input  175.53 | X-H torsion
[ 8008 7997 7996 7995 ] final  -82.02 input   59.86 | X-H torsion
[ 10167 10162 10161 10158 ] final  -79.35 input  -65.29 | X-H torsion
[ 10718 10713 10712 10709 ] final  100.27 input   66.30 | X-H torsion
[ 10763 10752 10751 10750 ] final  164.84 input  -60.55 | X-H torsion
[ 11005 11000 10999 10996 ] final   60.36 input  -57.11 | X-H torsion

> <Gold.Protein.ActiveResidues>
 VAL166  LYS551  ARG553  GLY616  TRP617  ASP618  TYR619  PRO620  LYS621  CYS622 
 ASP623  PHE694  ASN695  SER759  ASP760  ASP761  ALA762  ILE779  LEU786  VAL792 
 PHE793  MET794  SER795  GLU796  ALA797  LYS798  CYS799  TRP800  GLU811  SER814 

> <Gold.Protein.RotatedAtoms>
  152.2452  134.8189  160.0454 H   0  0  0  0  0  0  0  0  0  0  0  0  # atno 6907 bound_to 6896
  151.8889  133.3506  159.3799 H   0  0  0  0  0  0  0  0  0  0  0  0  # atno 6908 bound_to 6896
  150.7066  134.4870  159.5542 H   0  0  0  0  0  0  0  0  0  0  0  0  # atno 6909 bound_to 6896
  145.2607  140.9268  143.3042 H   0  0  0  0  0  0  0  0  0  0  0  0  # atno 7974 bound_to 7965
  154.6043  140.0639  156.9410 H   0  0  0  0  0  0  0  0  0  0  0  0  # atno 8008 bound_to 7997
  155.2080  140.3320  155.4315 H   0  0  0  0  0  0  0  0  0  0  0  0  # atno 8009 bound_to 7997
  156.2337  140.1853  156.7158 H   0  0  0  0  0  0  0  0  0  0  0  0  # atno 8010 bound_to 7997
  140.4601  143.2456  151.8362 H   0  0  0  0  0  0  0  0  0  0  0  0  # atno 10167 bound_to 10162
  157.6858  131.0693  150.5074 H   0  0  0  0  0  0  0  0  0  0  0  0  # atno 10718 bound_to 10713
  154.3150  135.2757  155.2547 H   0  0  0  0  0  0  0  0  0  0  0  0  # atno 10763 bound_to 10752
  154.4926  135.5829  153.6474 H   0  0  0  0  0  0  0  0  0  0  0  0  # atno 10764 bound_to 10752
  152.9883  135.6138  154.3330 H   0  0  0  0  0  0  0  0  0  0  0  0  # atno 10765 bound_to 10752
  140.0237  134.6114  155.9602 H   0  0  0  0  0  0  0  0  0  0  0  0  # atno 11005 bound_to 11000
  144.9420  139.4178  143.6444 LP  0  0  0  0  0  0  0  0  0  0  0  0  # atno 17320 bound_to 7965
  146.3276  139.8385  142.8895 LP  0  0  0  0  0  0  0  0  0  0  0  0  # atno 17321 bound_to 7965
  139.4805  144.5018  151.9050 LP  0  0  0  0  0  0  0  0  0  0  0  0  # atno 17342 bound_to 10162
  140.4104  144.2377  150.5889 LP  0  0  0  0  0  0  0  0  0  0  0  0  # atno 17343 bound_to 10162
  156.5393  130.4204  149.6162 LP  0  0  0  0  0  0  0  0  0  0  0  0  # atno 17370 bound_to 10713
  156.2999  130.7171  151.2040 LP  0  0  0  0  0  0  0  0  0  0  0  0  # atno 17371 bound_to 10713
  141.1790  133.6544  156.4942 LP  0  0  0  0  0  0  0  0  0  0  0  0  # atno 17394 bound_to 11000
  140.4342  134.7074  157.4958 LP  0  0  0  0  0  0  0  0  0  0  0  0  # atno 17395 bound_to 11000

$$$$
