AV-unprocessed.smi:2149|AV-procd|sdf|8755|dock3
  -GOLD-   2272011533D 1   1.00000     0.00000
 Structure written by MMmdl.
 43 44  0  0  0  0  0  0  0  0  2 V2000
  143.1380  147.3016  154.7189 C   0  0  0  0  0  0  0  0  0  0  0  0
  143.3268  145.8298  155.8077 S   0  0  0  0  0  0  0  0  0  0  0  0
  143.8828  146.2936  157.0884 O   0  0  0  0  0  0  0  0  0  0  0  0
  142.0788  145.0518  155.7876 O   0  0  0  0  0  0  0  0  0  0  0  0
  144.5474  144.8942  155.0047 N   0  0  0  0  0  0  0  0  0  0  0  0
  144.3769  144.6557  153.5571 C   0  0  0  0  0  0  0  0  0  0  0  0
  145.6855  144.1820  152.9051 C   0  0  0  0  0  0  0  0  0  0  0  0
  146.2438  142.9484  153.6197 C   0  0  0  0  0  0  0  0  0  0  0  0
  146.4483  143.2730  155.1083 C   0  0  2  0  0  0  0  0  0  0  0  0
  147.0090  142.0613  155.8647 C   0  0  0  0  0  0  0  0  0  0  0  0
  146.3353  141.0376  155.9871 O   0  0  0  0  0  0  0  0  0  0  0  0
  148.2441  142.1905  156.3738 N   0  0  0  0  0  0  0  0  0  0  0  0
  148.9445  141.1637  157.1361 C   0  0  0  0  0  0  0  0  0  0  0  0
  150.4648  141.2330  156.9123 C   0  0  0  0  0  0  0  0  0  0  0  0
  151.1250  142.2939  157.7709 C   0  0  0  0  0  0  0  0  0  0  0  0
  152.0157  141.9690  158.8171 C   0  0  0  0  0  0  0  0  0  0  0  0
  152.5928  143.0077  159.5776 C   0  0  0  0  0  0  0  0  0  0  0  0
  152.2661  144.3466  159.2777 C   0  0  0  0  0  0  0  0  0  0  0  0
  151.3692  144.6139  158.2232 C   0  0  0  0  0  0  0  0  0  0  0  0
  150.8382  143.5914  157.5170 N   0  3  0  0  0  0  0  0  0  0  0  0
  145.1229  143.7496  155.7411 C   0  0  0  0  0  0  0  0  0  0  0  0
  142.4430  148.0020  155.1817 H   0  0  0  0  0  0  0  0  0  0  0  0
  142.7464  147.0031  153.7477 H   0  0  0  0  0  0  0  0  0  0  0  0
  144.1054  147.7863  154.5907 H   0  0  0  0  0  0  0  0  0  0  0  0
  143.5925  143.9116  153.4122 H   0  0  0  0  0  0  0  0  0  0  0  0
  144.0385  145.5676  153.0676 H   0  0  0  0  0  0  0  0  0  0  0  0
  145.5137  143.9557  151.8525 H   0  0  0  0  0  0  0  0  0  0  0  0
  146.4203  144.9877  152.9318 H   0  0  0  0  0  0  0  0  0  0  0  0
  145.5536  142.1118  153.4994 H   0  0  0  0  0  0  0  0  0  0  0  0
  147.1865  142.6486  153.1601 H   0  0  0  0  0  0  0  0  0  0  0  0
  147.1707  144.0882  155.1831 H   0  0  0  0  0  0  0  0  0  0  0  0
  148.7300  143.0634  156.2251 H   0  0  0  0  0  0  0  0  0  0  0  0
  148.7058  141.2616  158.1967 H   0  0  0  0  0  0  0  0  0  0  0  0
  148.5665  140.1905  156.8217 H   0  0  0  0  0  0  0  0  0  0  0  0
  150.9176  140.2644  157.1284 H   0  0  0  0  0  0  0  0  0  0  0  0
  150.6850  141.4478  155.8655 H   0  0  0  0  0  0  0  0  0  0  0  0
  152.2546  140.9381  159.0358 H   0  0  0  0  0  0  0  0  0  0  0  0
  153.2778  142.7798  160.3813 H   0  0  0  0  0  0  0  0  0  0  0  0
  152.6969  145.1564  159.8484 H   0  0  0  0  0  0  0  0  0  0  0  0
  151.0633  145.6063  157.9253 H   0  0  0  0  0  0  0  0  0  0  0  0
  145.3058  144.0367  156.7766 H   0  0  0  0  0  0  0  0  0  0  0  0
  144.3865  142.9445  155.7631 H   0  0  0  0  0  0  0  0  0  0  0  0
  150.1920  143.8073  156.7572 H   0  0  0  0  0  0  0  0  0  0  0  0
  1  2  1  0  0  0  0
  1 22  1  0  0  0  0
  1 23  1  0  0  0  0
  1 24  1  0  0  0  0
  2  3  2  0  0  0  0
  2  4  2  0  0  0  0
  2  5  1  0  0  0  0
  5 21  1  0  0  0  0
  5  6  1  0  0  0  0
  6  7  1  0  0  0  0
  6 25  1  0  0  0  0
  6 26  1  0  0  0  0
  7  8  1  0  0  0  0
  7 27  1  0  0  0  0
  7 28  1  0  0  0  0
  8  9  1  0  0  0  0
  8 29  1  0  0  0  0
  8 30  1  0  0  0  0
  9 10  1  0  0  0  0
  9 21  1  0  0  0  0
  9 31  1  0  0  0  0
 10 11  2  0  0  0  0
 10 12  1  0  0  0  0
 12 13  1  0  0  0  0
 12 32  1  0  0  0  0
 13 14  1  0  0  0  0
 13 33  1  0  0  0  0
 13 34  1  0  0  0  0
 14 15  1  0  0  0  0
 14 35  1  0  0  0  0
 14 36  1  0  0  0  0
 15 20  1  0  0  0  0
 15 16  2  0  0  0  0
 16 17  1  0  0  0  0
 16 37  1  0  0  0  0
 17 18  2  0  0  0  0
 17 38  1  0  0  0  0
 18 19  1  0  0  0  0
 18 39  1  0  0  0  0
 19 20  2  0  0  0  0
 19 40  1  0  0  0  0
 20 43  1  0  0  0  0
 21 41  1  0  0  0  0
 21 42  1  0  0  0  0
M  CHG  1  20   1
M  END
> <s_m_source_file>
AV-unprocessed.smi

> <i_m_source_file_index>
2149

> <i_lp_mmshare_version>
43012

> <i_f3d_flags>
0

> <s_epik_input>
W0NIM11TKD1PKSg9TylOMVtDSDJdW0NIMl1bQ0gyXVtDQEhdKFtDSDJdMSlDKD1PKVtOSF1bQ0gyXVtDSDJdYzJbY0hdW2NIXVtjSF1bY0hdbjI=

> <s_epik_cmdline>
J2VwaWtfcHl0aG9uJywgJy1waCcsICc3LjAnLCAnLXRuJywgJzgnLCAnLW1hJywgJzIwMCcsICctbWV0YWxfYmluZGluZycsICctaW1hZScsICc8aW5maWxlLm1hZT4nLCAnLW9tYWUnLCAnPG91dGZpbGUubWFlPic=

> <r_epik_Ionization_Penalty>
1.83523

> <r_epik_Ionization_Penalty_Charging>
1.83523

> <r_epik_Ionization_Penalty_Neutral>
2.62835e-08

> <r_epik_State_Penalty>
1.95153

> <r_epik_Charging_Adjusted_Penalty>
3.78676

> <i_epik_Tot_Q>
1

> <i_epik_Tot_abs_Q>
1

> <r_epik_Metal_State_Penalty>
1.97791

> <b_epik_Metal_Only>
0

> <s_lp_Force_Field>
OPLS_2005

> <r_lp_Energy>
9.7414

> <b_lp_Chiralities_Consistent>
1

> <s_lp_Variant>
AV-unprocessed.smi:2149-4

> <Gold.Version>
5.8.1

> <Gold.Id.Protein>
6NUR|6NUR_protein|mol2

> <Gold.PLP.Fitness>
45.6382

> <Gold.PLP.PLP>
-37.3557

> <Gold.PLP.part.hbond>
-2.0000

> <Gold.PLP.part.metal>
0.0000

> <Gold.PLP.part.buried>
-2.2834

> <Gold.PLP.part.nonpolar>
-33.0568

> <Gold.PLP.part.repulsive>
0.2068

> <Gold.PLP.ligand.clash>
0.0000

> <Gold.PLP.ligand.torsion>
0.7357

> <Gold.PLP.Chemscore.Hbond>
3.0000

> <Gold.PLP.Chemscore.CHOScore>
0.0000

> <Gold.PLP.Chemscore.Metal>
0.0000

> <Gold.Chemscore.Hbonds>
donor molecule, donor type, donor heavy atom, donor atom, acceptor molecule, acceptor atom, score
      L1  H    12    32       P1  8028  1.00
      L1  H    20    43       P1  8028  2.00

> <Gold.PLP.Chemscore.Internal.Correction>
0.7538

> <Gold.Rescore>
     Score         DG    S(hbond)    S(metal)    S(lipo)     H(rot)  DE(clash)    DE(int)     intcor
     18.34     -19.75       1.98        0.00     108.14       1.95       0.69       0.72       ----

> <Gold.Chemscore.Fitness>
18.3399

> <Gold.Chemscore.DG>
-19.7492

> <Gold.Chemscore.ZeroCoef>
-5.4800

> <Gold.Chemscore.Hbond>
1.9760

> <Gold.Chemscore.Metal>
0.0000

> <Gold.Chemscore.Lipo>
108.1413

> <Gold.Chemscore.Internal_Hbond>
0.0000

> <Gold.Chemscore.DEClash>
0.6890

> <Gold.Chemscore.DEInternal>
0.7203

> <Gold.Chemscore.Rot>
1.9466

> <Gold.Chemscore.Internal.Correction>
   9.000000E+99

> <Gold.Chemscore.Hbonds>
donor molecule, donor type, donor heavy atom, donor atom, acceptor molecule, acceptor atom, score
      L1  H    12    32       P1  8028  0.96
      L1  H    20    43       P1  8028  0.99

> <Gold.Chemscore.Hbond.Weighted>
-6.5999

> <Gold.Chemscore.Metal.Weighted>
-0.0000

> <Gold.Chemscore.Lipo.Weighted>
-12.6525

> <Gold.Chemscore.Internal_Hbond.Weighted>
0.0000

> <Gold.Chemscore.DEClash.Weighted>
0.6890

> <Gold.Chemscore.DEInternal.Weighted>
0.7203

> <Gold.Chemscore.Rot.Weighted>
4.9832

> <Gold.Chemscore.Internal.Correction.Weighted>
   9.000000E+99

> <Gold.Protein.RotatedTorsions>
[ 6907 6896 6895 6894 ] final  -51.24 input  -60.11 | X-H torsion
[ 7974 7965 7964 7962 ] final  123.41 input  175.53 | X-H torsion
[ 8008 7997 7996 7995 ] final  136.71 input   59.86 | X-H torsion
[ 10167 10162 10161 10158 ] final   -5.32 input  -65.29 | X-H torsion
[ 10718 10713 10712 10709 ] final   -7.72 input   66.30 | X-H torsion
[ 10763 10752 10751 10750 ] final  -77.93 input  -60.55 | X-H torsion
[ 11005 11000 10999 10996 ] final   60.38 input  -57.11 | X-H torsion

> <Gold.Protein.ActiveResidues>
 VAL166  LYS551  ARG553  GLY616  TRP617  ASP618  TYR619  PRO620  LYS621  CYS622 
 ASP623  PHE694  ASN695  SER759  ASP760  ASP761  ALA762  ILE779  LEU786  VAL792 
 PHE793  MET794  SER795  GLU796  ALA797  LYS798  CYS799  TRP800  GLU811  SER814 

> <Gold.Protein.RotatedAtoms>
  150.8630  134.7987  159.7097 H   0  0  0  0  0  0  0  0  0  0  0  0  # atno 6907 bound_to 6896
  152.4661  134.5069  159.9751 H   0  0  0  0  0  0  0  0  0  0  0  0  # atno 6908 bound_to 6896
  151.5169  133.3435  159.2930 H   0  0  0  0  0  0  0  0  0  0  0  0  # atno 6909 bound_to 6896
  145.0963  139.3551  143.4835 H   0  0  0  0  0  0  0  0  0  0  0  0  # atno 7974 bound_to 7965
  156.3003  140.2438  156.3790 H   0  0  0  0  0  0  0  0  0  0  0  0  # atno 8008 bound_to 7997
  154.8718  140.0416  157.1749 H   0  0  0  0  0  0  0  0  0  0  0  0  # atno 8009 bound_to 7997
  154.8787  140.2946  155.5442 H   0  0  0  0  0  0  0  0  0  0  0  0  # atno 8010 bound_to 7997
  140.6959  143.6322  150.8513 H   0  0  0  0  0  0  0  0  0  0  0  0  # atno 10167 bound_to 10162
  156.7132  130.5128  149.5887 H   0  0  0  0  0  0  0  0  0  0  0  0  # atno 10718 bound_to 10713
  154.5193  135.5747  153.6667 H   0  0  0  0  0  0  0  0  0  0  0  0  # atno 10763 bound_to 10752
  152.9913  135.6177  154.2776 H   0  0  0  0  0  0  0  0  0  0  0  0  # atno 10764 bound_to 10752
  154.2696  135.2854  155.2723 H   0  0  0  0  0  0  0  0  0  0  0  0  # atno 10765 bound_to 10752
  140.0236  134.6116  155.9605 H   0  0  0  0  0  0  0  0  0  0  0  0  # atno 11005 bound_to 11000
  146.3530  140.0820  142.8617 LP  0  0  0  0  0  0  0  0  0  0  0  0  # atno 17320 bound_to 7965
  145.1008  140.9344  143.4714 LP  0  0  0  0  0  0  0  0  0  0  0  0  # atno 17321 bound_to 7965
  140.0039  143.5714  152.2865 LP  0  0  0  0  0  0  0  0  0  0  0  0  # atno 17342 bound_to 10162
  139.6414  144.7655  151.2332 LP  0  0  0  0  0  0  0  0  0  0  0  0  # atno 17343 bound_to 10162
  156.1646  130.6397  151.0762 LP  0  0  0  0  0  0  0  0  0  0  0  0  # atno 17370 bound_to 10713
  157.6928  131.0804  150.7058 LP  0  0  0  0  0  0  0  0  0  0  0  0  # atno 17371 bound_to 10713
  141.1789  133.6543  156.4939 LP  0  0  0  0  0  0  0  0  0  0  0  0  # atno 17394 bound_to 11000
  140.4345  134.7072  157.4959 LP  0  0  0  0  0  0  0  0  0  0  0  0  # atno 17395 bound_to 11000

$$$$
