AV-unprocessed.smi:1120|AV-procd|sdf|4819|dock6
  -GOLD-   22720 3373D 1   1.00000     0.00000
 Structure written by MMmdl.
 48 49  0  0  0  0  0  0  0  0  1 V2000
  148.8359  131.7720  153.6625 C   0  0  0  0  0  0  0  0  0  0  0  0
  148.7097  132.9980  154.5776 C   0  0  2  0  0  0  0  0  0  0  0  0
  147.9591  134.1465  153.8797 C   0  0  0  0  0  0  0  0  0  0  0  0
  147.8080  135.3730  154.7955 C   0  0  0  0  0  0  0  0  0  0  0  0
  149.1541  135.8464  155.3768 C   0  0  2  0  0  0  0  0  0  0  0  0
  149.9431  136.5516  154.3624 N   0  0  0  0  0  0  0  0  0  0  0  0
  151.0153  137.8494  154.7470 S   0  0  0  0  0  0  0  0  0  0  0  0
  150.9138  138.0628  156.1985 O   0  0  0  0  0  0  0  0  0  0  0  0
  152.3184  137.5623  154.1267 O   0  0  0  0  0  0  0  0  0  0  0  0
  150.2188  139.2943  153.9088 C   0  0  0  0  0  0  0  0  0  0  0  0
  149.8946  140.4062  154.9062 C   0  0  0  0  0  0  0  0  0  0  0  0
  148.9083  141.1218  154.7339 O   0  0  0  0  0  0  0  0  0  0  0  0
  150.7373  140.5465  155.9412 N   0  0  0  0  0  0  0  0  0  0  0  0
  150.6075  141.5439  156.9973 C   0  0  0  0  0  0  0  0  0  0  0  0
  151.9454  141.7877  157.7147 C   0  0  0  0  0  0  0  0  0  0  0  0
  151.9736  143.1163  158.4461 C   0  0  0  0  0  0  0  0  0  0  0  0
  151.7888  144.3279  157.7469 C   0  0  0  0  0  0  0  0  0  0  0  0
  151.8259  145.5342  158.4731 C   0  0  0  0  0  0  0  0  0  0  0  0
  152.0462  145.4828  159.8632 C   0  0  0  0  0  0  0  0  0  0  0  0
  152.2210  144.2218  160.4673 C   0  0  0  0  0  0  0  0  0  0  0  0
  152.1872  143.0593  159.7802 N   0  0  0  0  0  0  0  0  0  0  0  0
  149.9704  134.6970  155.9973 C   0  0  0  0  0  0  0  0  0  0  0  0
  150.0883  133.4829  155.0611 C   0  0  0  0  0  0  0  0  0  0  0  0
  149.4101  132.0036  152.7651 H   0  0  0  0  0  0  0  0  0  0  0  0
  147.8552  131.4147  153.3475 H   0  0  0  0  0  0  0  0  0  0  0  0
  149.3360  130.9496  154.1749 H   0  0  0  0  0  0  0  0  0  0  0  0
  148.1306  132.6971  155.4520 H   0  0  0  0  0  0  0  0  0  0  0  0
  148.4892  134.4350  152.9711 H   0  0  0  0  0  0  0  0  0  0  0  0
  146.9719  133.8085  153.5631 H   0  0  0  0  0  0  0  0  0  0  0  0
  147.3145  136.1847  154.2596 H   0  0  0  0  0  0  0  0  0  0  0  0
  147.1443  135.1113  155.6202 H   0  0  0  0  0  0  0  0  0  0  0  0
  148.9383  136.5613  156.1705 H   0  0  0  0  0  0  0  0  0  0  0  0
  149.6350  136.4855  153.3923 H   0  0  0  0  0  0  0  0  0  0  0  0
  150.8692  139.6421  153.1059 H   0  0  0  0  0  0  0  0  0  0  0  0
  149.2903  138.9470  153.4553 H   0  0  0  0  0  0  0  0  0  0  0  0
  151.5246  139.9173  156.0036 H   0  0  0  0  0  0  0  0  0  0  0  0
  150.2546  142.4701  156.5429 H   0  0  0  0  0  0  0  0  0  0  0  0
  149.8413  141.2373  157.7115 H   0  0  0  0  0  0  0  0  0  0  0  0
  152.1453  140.9844  158.4252 H   0  0  0  0  0  0  0  0  0  0  0  0
  152.7634  141.7696  156.9946 H   0  0  0  0  0  0  0  0  0  0  0  0
  151.6231  144.3348  156.6796 H   0  0  0  0  0  0  0  0  0  0  0  0
  151.6879  146.4812  157.9728 H   0  0  0  0  0  0  0  0  0  0  0  0
  152.0809  146.3876  160.4519 H   0  0  0  0  0  0  0  0  0  0  0  0
  152.3922  144.1444  161.5307 H   0  0  0  0  0  0  0  0  0  0  0  0
  150.9605  135.0476  156.2911 H   0  0  0  0  0  0  0  0  0  0  0  0
  149.4799  134.3762  156.9169 H   0  0  0  0  0  0  0  0  0  0  0  0
  150.6067  132.6756  155.5795 H   0  0  0  0  0  0  0  0  0  0  0  0
  150.7088  133.7436  154.2028 H   0  0  0  0  0  0  0  0  0  0  0  0
  1  2  1  0  0  0  0
  1 24  1  0  0  0  0
  1 25  1  0  0  0  0
  1 26  1  0  0  0  0
  2 23  1  0  0  0  0
  2  3  1  0  0  0  0
  2 27  1  0  0  0  0
  3  4  1  0  0  0  0
  3 28  1  0  0  0  0
  3 29  1  0  0  0  0
  4  5  1  0  0  0  0
  4 30  1  0  0  0  0
  4 31  1  0  0  0  0
  5  6  1  0  0  0  0
  5 22  1  0  0  0  0
  5 32  1  0  0  0  0
  6  7  1  0  0  0  0
  6 33  1  0  0  0  0
  7  8  2  0  0  0  0
  7  9  2  0  0  0  0
  7 10  1  0  0  0  0
 10 11  1  0  0  0  0
 10 34  1  0  0  0  0
 10 35  1  0  0  0  0
 11 12  2  0  0  0  0
 11 13  1  0  0  0  0
 13 14  1  0  0  0  0
 13 36  1  0  0  0  0
 14 15  1  0  0  0  0
 14 37  1  0  0  0  0
 14 38  1  0  0  0  0
 15 16  1  0  0  0  0
 15 39  1  0  0  0  0
 15 40  1  0  0  0  0
 16 21  1  0  0  0  0
 16 17  2  0  0  0  0
 17 18  1  0  0  0  0
 17 41  1  0  0  0  0
 18 19  2  0  0  0  0
 18 42  1  0  0  0  0
 19 20  1  0  0  0  0
 19 43  1  0  0  0  0
 20 21  2  0  0  0  0
 20 44  1  0  0  0  0
 22 23  1  0  0  0  0
 22 45  1  0  0  0  0
 22 46  1  0  0  0  0
 23 47  1  0  0  0  0
 23 48  1  0  0  0  0
M  END
> <s_m_source_file>
AV-unprocessed.smi

> <i_m_source_file_index>
1120

> <i_lp_mmshare_version>
43012

> <i_f3d_flags>
0

> <s_epik_input>
W0NIM11bQ0BASF0xW0NIMl1bQ0gyXVtDQEhdKFtDSDJdW0NIMl0xKVtOSF1TKD1PKSg9TylbQ0gyXUMoPU8pW05IXVtDSDJdW0NIMl1jMltjSF1bY0hdW2NIXVtjSF1uMg==

> <s_epik_cmdline>
J2VwaWtfcHl0aG9uJywgJy1waCcsICc3LjAnLCAnLXRuJywgJzgnLCAnLW1hJywgJzIwMCcsICctbWV0YWxfYmluZGluZycsICctaW1hZScsICc8aW5maWxlLm1hZT4nLCAnLW9tYWUnLCAnPG91dGZpbGUubWFlPic=

> <r_epik_Ionization_Penalty>
0.0216068

> <r_epik_Ionization_Penalty_Charging>
0

> <r_epik_Ionization_Penalty_Neutral>
0.0216068

> <r_epik_State_Penalty>
0.01735

> <r_epik_Charging_Adjusted_Penalty>
0.01735

> <i_epik_Tot_Q>
0

> <i_epik_Tot_abs_Q>
0

> <r_epik_Metal_State_Penalty>
0.0535325

> <b_epik_Metal_Only>
0

> <s_lp_Force_Field>
OPLS_2005

> <r_lp_Energy>
6.87343

> <b_lp_Chiralities_Consistent>
1

> <s_lp_Variant>
AV-unprocessed.smi:1120-2

> <Gold.Version>
5.8.1

> <Gold.Id.Protein>
6NUR|6NUR_protein|mol2

> <Gold.PLP.Fitness>
47.9870

> <Gold.PLP.PLP>
-44.6478

> <Gold.PLP.part.hbond>
-2.4135

> <Gold.PLP.part.metal>
0.0000

> <Gold.PLP.part.buried>
-5.0342

> <Gold.PLP.part.nonpolar>
-37.4168

> <Gold.PLP.part.repulsive>
0.3917

> <Gold.PLP.ligand.clash>
0.0000

> <Gold.PLP.ligand.torsion>
1.5656

> <Gold.PLP.Chemscore.Hbond>
1.7680

> <Gold.PLP.Chemscore.CHOScore>
0.0000

> <Gold.PLP.Chemscore.Metal>
0.0000

> <Gold.Chemscore.Hbonds>
donor molecule, donor type, donor heavy atom, donor atom, acceptor molecule, acceptor atom, score
      L1  H     6    33       P1  7948  1.00
      P1  H 10752 10763       L1     9  0.75

> <Gold.PLP.Chemscore.Internal.Correction>
1.1664

> <Gold.Rescore>
     Score         DG    S(hbond)    S(metal)    S(lipo)     H(rot)  DE(clash)    DE(int)     intcor
     17.91     -19.60       1.90        0.00     108.65       1.92       0.05       1.64       ----

> <Gold.Chemscore.Fitness>
17.9106

> <Gold.Chemscore.DG>
-19.5972

> <Gold.Chemscore.ZeroCoef>
-5.4800

> <Gold.Chemscore.Hbond>
1.8956

> <Gold.Chemscore.Metal>
0.0000

> <Gold.Chemscore.Lipo>
108.6460

> <Gold.Chemscore.Internal_Hbond>
0.0000

> <Gold.Chemscore.DEClash>
0.0473

> <Gold.Chemscore.DEInternal>
1.6394

> <Gold.Chemscore.Rot>
1.9241

> <Gold.Chemscore.Internal.Correction>
   9.000000E+99

> <Gold.Chemscore.Hbonds>
donor molecule, donor type, donor heavy atom, donor atom, acceptor molecule, acceptor atom, score
      L1  H     6    33       P1  7948  0.45
      P1  H 10752 10763       L1     9  0.69

> <Gold.Chemscore.Hbond.Weighted>
-6.3312

> <Gold.Chemscore.Metal.Weighted>
-0.0000

> <Gold.Chemscore.Lipo.Weighted>
-12.7116

> <Gold.Chemscore.Internal_Hbond.Weighted>
0.0000

> <Gold.Chemscore.DEClash.Weighted>
0.0473

> <Gold.Chemscore.DEInternal.Weighted>
1.6394

> <Gold.Chemscore.Rot.Weighted>
4.9256

> <Gold.Chemscore.Internal.Correction.Weighted>
   9.000000E+99

> <Gold.Protein.RotatedTorsions>
[ 6907 6896 6895 6894 ] final  -47.76 input  -60.11 | X-H torsion
[ 7974 7965 7964 7962 ] final -148.25 input  175.53 | X-H torsion
[ 8008 7997 7996 7995 ] final  -12.69 input   59.86 | X-H torsion
[ 10167 10162 10161 10158 ] final  -69.16 input  -65.29 | X-H torsion
[ 10718 10713 10712 10709 ] final  108.35 input   66.30 | X-H torsion
[ 10763 10752 10751 10750 ] final   34.95 input  -60.55 | X-H torsion
[ 11005 11000 10999 10996 ] final -159.81 input  -57.11 | X-H torsion

> <Gold.Protein.ActiveResidues>
 VAL166  LYS551  ARG553  GLY616  TRP617  ASP618  TYR619  PRO620  LYS621  CYS622 
 ASP623  PHE694  ASN695  SER759  ASP760  ASP761  ALA762  ILE779  LEU786  VAL792 
 PHE793  MET794  SER795  GLU796  ALA797  LYS798  CYS799  TRP800  GLU811  SER814 

> <Gold.Protein.RotatedAtoms>
  150.8975  134.8385  159.7336 H   0  0  0  0  0  0  0  0  0  0  0  0  # atno 6907 bound_to 6896
  152.4873  134.4553  159.9597 H   0  0  0  0  0  0  0  0  0  0  0  0  # atno 6908 bound_to 6896
  151.4609  133.3554  159.2844 H   0  0  0  0  0  0  0  0  0  0  0  0  # atno 6909 bound_to 6896
  144.8041  140.5220  143.5687 H   0  0  0  0  0  0  0  0  0  0  0  0  # atno 7974 bound_to 7965
  154.5356  140.2269  155.8728 H   0  0  0  0  0  0  0  0  0  0  0  0  # atno 8008 bound_to 7997
  156.1808  140.3100  155.9108 H   0  0  0  0  0  0  0  0  0  0  0  0  # atno 8009 bound_to 7997
  155.3362  140.0448  157.3034 H   0  0  0  0  0  0  0  0  0  0  0  0  # atno 8010 bound_to 7997
  140.5452  143.2313  151.7015 H   0  0  0  0  0  0  0  0  0  0  0  0  # atno 10167 bound_to 10162
  157.6590  131.0892  150.6292 H   0  0  0  0  0  0  0  0  0  0  0  0  # atno 10718 bound_to 10713
  153.0141  135.6346  154.1749 H   0  0  0  0  0  0  0  0  0  0  0  0  # atno 10763 bound_to 10752
  154.1489  135.2830  155.3142 H   0  0  0  0  0  0  0  0  0  0  0  0  # atno 10764 bound_to 10752
  154.6068  135.5569  153.7492 H   0  0  0  0  0  0  0  0  0  0  0  0  # atno 10765 bound_to 10752
  140.6385  134.4576  157.5232 H   0  0  0  0  0  0  0  0  0  0  0  0  # atno 11005 bound_to 11000
  145.5481  139.1476  143.3409 LP  0  0  0  0  0  0  0  0  0  0  0  0  # atno 17320 bound_to 7965
  146.2329  140.5619  142.8967 LP  0  0  0  0  0  0  0  0  0  0  0  0  # atno 17321 bound_to 7965
  139.5004  144.3906  152.0283 LP  0  0  0  0  0  0  0  0  0  0  0  0  # atno 17342 bound_to 10162
  140.3018  144.3637  150.6058 LP  0  0  0  0  0  0  0  0  0  0  0  0  # atno 17343 bound_to 10162
  156.6596  130.4508  149.5692 LP  0  0  0  0  0  0  0  0  0  0  0  0  # atno 17370 bound_to 10713
  156.2076  130.6659  151.1235 LP  0  0  0  0  0  0  0  0  0  0  0  0  # atno 17371 bound_to 10713
  139.9089  134.8388  156.1601 LP  0  0  0  0  0  0  0  0  0  0  0  0  # atno 17394 bound_to 11000
  141.0624  133.6835  156.1978 LP  0  0  0  0  0  0  0  0  0  0  0  0  # atno 17395 bound_to 11000

$$$$
