AV-unprocessed.smi:1914|AV-procd|sdf|7756|dock10
  -GOLD-   22720 9493D 1   1.00000     0.00000
 Structure written by MMmdl.
 44 45  0  0  0  0  0  0  0  0  2 V2000
  144.9027  134.4109  151.0432 C   0  0  0  0  0  0  0  0  0  0  0  0
  146.2971  134.3956  151.6854 C   0  0  2  0  0  0  0  0  0  0  0  0
  146.8672  132.9691  151.7553 C   0  0  0  0  0  0  0  0  0  0  0  0
  148.2471  132.9809  152.4247 C   0  0  0  0  0  0  0  0  0  0  0  0
  148.1821  133.6515  153.8061 C   0  0  0  0  0  0  0  0  0  0  0  0
  147.6331  135.0288  153.7078 N   0  3  2  0  0  0  0  0  0  0  0  0
  147.6880  135.7460  155.0067 C   0  0  0  0  0  0  0  0  0  0  0  0
  147.1889  134.8806  156.1806 C   0  0  0  0  0  0  0  0  0  0  0  0
  147.4729  135.5100  157.4648 N   0  0  0  0  0  0  0  0  0  0  0  0
  148.5922  135.3230  158.1806 C   0  0  0  0  0  0  0  0  0  0  0  0
  149.5174  134.6021  157.8046 O   0  0  0  0  0  0  0  0  0  0  0  0
  148.6767  136.0780  159.5146 C   0  0  0  0  0  0  0  0  0  0  0  0
  148.0266  135.3637  160.6262 N   0  0  0  0  0  0  0  0  0  0  0  0
  147.9125  133.9638  160.5125 C   0  0  0  0  0  0  0  0  0  0  0  0
  147.3377  133.2184  161.4697 C   0  0  0  0  0  0  0  0  0  0  0  0
  146.8279  133.8881  162.6427 C   0  0  0  0  0  0  0  0  0  0  0  0
  146.9282  135.2271  162.7598 C   0  0  0  0  0  0  0  0  0  0  0  0
  147.5528  136.0462  161.7146 C   0  0  0  0  0  0  0  0  0  0  0  0
  147.6438  137.2707  161.8101 O   0  0  0  0  0  0  0  0  0  0  0  0
  146.2795  135.0336  153.0894 C   0  0  0  0  0  0  0  0  0  0  0  0
  144.1890  133.8323  151.6307 H   0  0  0  0  0  0  0  0  0  0  0  0
  144.9286  133.9867  150.0391 H   0  0  0  0  0  0  0  0  0  0  0  0
  144.5187  135.4281  150.9603 H   0  0  0  0  0  0  0  0  0  0  0  0
  146.9558  134.9922  151.0523 H   0  0  0  0  0  0  0  0  0  0  0  0
  146.1918  132.3238  152.3190 H   0  0  0  0  0  0  0  0  0  0  0  0
  146.9439  132.5419  150.7546 H   0  0  0  0  0  0  0  0  0  0  0  0
  148.6221  131.9617  152.5226 H   0  0  0  0  0  0  0  0  0  0  0  0
  148.9583  133.5126  151.7912 H   0  0  0  0  0  0  0  0  0  0  0  0
  147.5650  133.0598  154.4847 H   0  0  0  0  0  0  0  0  0  0  0  0
  149.1853  133.6816  154.2336 H   0  0  0  0  0  0  0  0  0  0  0  0
  148.7021  136.1037  155.1908 H   0  0  0  0  0  0  0  0  0  0  0  0
  147.0573  136.6339  154.9447 H   0  0  0  0  0  0  0  0  0  0  0  0
  146.1185  134.6894  156.0879 H   0  0  0  0  0  0  0  0  0  0  0  0
  147.6789  133.9081  156.1843 H   0  0  0  0  0  0  0  0  0  0  0  0
  146.7661  136.1259  157.8409 H   0  0  0  0  0  0  0  0  0  0  0  0
  149.7294  136.2586  159.7350 H   0  0  0  0  0  0  0  0  0  0  0  0
  148.2336  137.0697  159.4036 H   0  0  0  0  0  0  0  0  0  0  0  0
  148.3124  133.5402  159.6027 H   0  0  0  0  0  0  0  0  0  0  0  0
  147.2560  132.1465  161.3638 H   0  0  0  0  0  0  0  0  0  0  0  0
  146.3629  133.3128  163.4295 H   0  0  0  0  0  0  0  0  0  0  0  0
  146.5402  135.7107  163.6442 H   0  0  0  0  0  0  0  0  0  0  0  0
  145.9094  136.0547  153.0064 H   0  0  0  0  0  0  0  0  0  0  0  0
  145.5827  134.4992  153.7377 H   0  0  0  0  0  0  0  0  0  0  0  0
  148.2467  135.5296  153.0808 H   0  0  0  0  0  0  0  0  0  0  0  0
  1  2  1  0  0  0  0
  1 21  1  0  0  0  0
  1 22  1  0  0  0  0
  1 23  1  0  0  0  0
  2 20  1  0  0  0  0
  2  3  1  0  0  0  0
  2 24  1  0  0  0  0
  3  4  1  0  0  0  0
  3 25  1  0  0  0  0
  3 26  1  0  0  0  0
  4  5  1  0  0  0  0
  4 27  1  0  0  0  0
  4 28  1  0  0  0  0
  5  6  1  0  0  0  0
  5 29  1  0  0  0  0
  5 30  1  0  0  0  0
  6  7  1  0  0  0  0
  6 20  1  0  0  0  0
  6 44  1  0  0  0  0
  7  8  1  0  0  0  0
  7 31  1  0  0  0  0
  7 32  1  0  0  0  0
  8  9  1  0  0  0  0
  8 33  1  0  0  0  0
  8 34  1  0  0  0  0
  9 10  1  0  0  0  0
  9 35  1  0  0  0  0
 10 11  2  0  0  0  0
 10 12  1  0  0  0  0
 12 13  1  0  0  0  0
 12 36  1  0  0  0  0
 12 37  1  0  0  0  0
 13 18  1  0  0  0  0
 13 14  1  0  0  0  0
 14 15  2  0  0  0  0
 14 38  1  0  0  0  0
 15 16  1  0  0  0  0
 15 39  1  0  0  0  0
 16 17  2  0  0  0  0
 16 40  1  0  0  0  0
 17 18  1  0  0  0  0
 17 41  1  0  0  0  0
 18 19  2  0  0  0  0
 20 42  1  0  0  0  0
 20 43  1  0  0  0  0
M  CHG  1   6   1
M  END
> <s_m_source_file>
AV-unprocessed.smi

> <i_m_source_file_index>
1914

> <i_lp_mmshare_version>
43012

> <i_f3d_flags>
0

> <s_epik_input>
W0NIM11bQ0BASF0xW0NIMl1bQ0gyXVtDSDJdTihbQ0gyXTEpW0NIMl1bQ0gyXVtOSF1DKD1PKVtDSDJdbjJbY0hdW2NIXVtjSF1bY0hdYzI9Tw==

> <s_epik_cmdline>
J2VwaWtfcHl0aG9uJywgJy1waCcsICc3LjAnLCAnLXRuJywgJzgnLCAnLW1hJywgJzIwMCcsICctbWV0YWxfYmluZGluZycsICctaW1hZScsICc8aW5maWxlLm1hZT4nLCAnLW9tYWUnLCAnPG91dGZpbGUubWFlPic=

> <r_lp_tautomer_probability>
1

> <r_epik_Ionization_Penalty>
0.00192477

> <r_epik_Ionization_Penalty_Charging>
0.00192469

> <r_epik_Ionization_Penalty_Neutral>
8.16761e-08

> <r_epik_State_Penalty>
0.00131115

> <r_epik_Charging_Adjusted_Penalty>
0.00323584

> <i_epik_Tot_Q>
1

> <i_epik_Tot_abs_Q>
1

> <r_epik_Metal_State_Penalty>
-0

> <b_epik_Metal_Only>
0

> <s_lp_Force_Field>
OPLS_2005

> <r_lp_Energy>
24.8324

> <b_lp_Chiralities_Consistent>
1

> <s_lp_Variant>
AV-unprocessed.smi:1914-1

> <Gold.Version>
5.8.1

> <Gold.Id.Protein>
6NUR|6NUR_protein|mol2

> <Gold.PLP.Fitness>
47.1484

> <Gold.PLP.PLP>
-35.2636

> <Gold.PLP.part.hbond>
-4.0000

> <Gold.PLP.part.metal>
0.0000

> <Gold.PLP.part.buried>
-0.8253

> <Gold.PLP.part.nonpolar>
-30.0354

> <Gold.PLP.part.repulsive>
0.0000

> <Gold.PLP.ligand.clash>
0.0000

> <Gold.PLP.ligand.torsion>
1.0631

> <Gold.PLP.Chemscore.Hbond>
4.6640

> <Gold.PLP.Chemscore.CHOScore>
0.0000

> <Gold.PLP.Chemscore.Metal>
0.0000

> <Gold.Chemscore.Hbonds>
donor molecule, donor type, donor heavy atom, donor atom, acceptor molecule, acceptor atom, score
      L1  H     6    44       P1  7948  2.00
      P1  H  6896  6908       L1    11  1.00
      P1  H  6931  6943       L1    19  0.96
      P1  H  6934  6947       L1    19  0.67

> <Gold.PLP.Chemscore.Internal.Correction>
0.0191

> <Gold.Rescore>
     Score         DG    S(hbond)    S(metal)    S(lipo)     H(rot)  DE(clash)    DE(int)     intcor
     19.38     -20.52       3.49        0.00      69.44       1.86       0.03       1.10       ----

> <Gold.Chemscore.Fitness>
19.3800

> <Gold.Chemscore.DG>
-20.5153

> <Gold.Chemscore.ZeroCoef>
-5.4800

> <Gold.Chemscore.Hbond>
3.4938

> <Gold.Chemscore.Metal>
0.0000

> <Gold.Chemscore.Lipo>
69.4358

> <Gold.Chemscore.Internal_Hbond>
0.0000

> <Gold.Chemscore.DEClash>
0.0339

> <Gold.Chemscore.DEInternal>
1.1014

> <Gold.Chemscore.Rot>
1.8586

> <Gold.Chemscore.Internal.Correction>
   9.000000E+99

> <Gold.Chemscore.Hbonds>
donor molecule, donor type, donor heavy atom, donor atom, acceptor molecule, acceptor atom, score
      L1  H     6    44       P1  7948  0.96
      P1  H  6896  6908       L1    11  0.63
      P1  H  6931  6943       L1    19  0.92
      P1  H  6934  6947       L1    19  0.65

> <Gold.Chemscore.Hbond.Weighted>
-11.6694

> <Gold.Chemscore.Metal.Weighted>
-0.0000

> <Gold.Chemscore.Lipo.Weighted>
-8.1240

> <Gold.Chemscore.Internal_Hbond.Weighted>
0.0000

> <Gold.Chemscore.DEClash.Weighted>
0.0339

> <Gold.Chemscore.DEInternal.Weighted>
1.1014

> <Gold.Chemscore.Rot.Weighted>
4.7581

> <Gold.Chemscore.Internal.Correction.Weighted>
   9.000000E+99

> <Gold.Protein.RotatedTorsions>
[ 6907 6896 6895 6894 ] final  144.58 input  -60.11 | X-H torsion
[ 7974 7965 7964 7962 ] final   67.70 input  175.53 | X-H torsion
[ 8008 7997 7996 7995 ] final  -17.28 input   59.86 | X-H torsion
[ 10167 10162 10161 10158 ] final  -56.36 input  -65.29 | X-H torsion
[ 10718 10713 10712 10709 ] final  -63.04 input   66.30 | X-H torsion
[ 10763 10752 10751 10750 ] final  122.20 input  -60.55 | X-H torsion
[ 11005 11000 10999 10996 ] final  -33.86 input  -57.11 | X-H torsion

> <Gold.Protein.ActiveResidues>
 VAL166  LYS551  ARG553  GLY616  TRP617  ASP618  TYR619  PRO620  LYS621  CYS622 
 ASP623  PHE694  ASN695  SER759  ASP760  ASP761  ALA762  ILE779  LEU786  VAL792 
 PHE793  MET794  SER795  GLU796  ALA797  LYS798  CYS799  TRP800  GLU811  SER814 

> <Gold.Protein.RotatedAtoms>
  152.1918  133.4778  159.5011 H   0  0  0  0  0  0  0  0  0  0  0  0  # atno 6907 bound_to 6896
  150.6952  134.1703  159.4218 H   0  0  0  0  0  0  0  0  0  0  0  0  # atno 6908 bound_to 6896
  151.9617  135.0120  160.0598 H   0  0  0  0  0  0  0  0  0  0  0  0  # atno 6909 bound_to 6896
  145.8115  139.3035  143.1096 H   0  0  0  0  0  0  0  0  0  0  0  0  # atno 7974 bound_to 7965
  154.4990  140.2147  155.9386 H   0  0  0  0  0  0  0  0  0  0  0  0  # atno 8008 bound_to 7997
  156.1408  140.3180  155.8461 H   0  0  0  0  0  0  0  0  0  0  0  0  # atno 8009 bound_to 7997
  155.4123  140.0491  157.3021 H   0  0  0  0  0  0  0  0  0  0  0  0  # atno 8010 bound_to 7997
  140.6322  143.2464  151.5212 H   0  0  0  0  0  0  0  0  0  0  0  0  # atno 10167 bound_to 10162
  156.0816  130.4216  150.1220 H   0  0  0  0  0  0  0  0  0  0  0  0  # atno 10718 bound_to 10713
  153.6260  135.3404  155.3026 H   0  0  0  0  0  0  0  0  0  0  0  0  # atno 10763 bound_to 10752
  154.8590  135.4284  154.2157 H   0  0  0  0  0  0  0  0  0  0  0  0  # atno 10764 bound_to 10752
  153.3041  135.7027  153.7249 H   0  0  0  0  0  0  0  0  0  0  0  0  # atno 10765 bound_to 10752
  140.9669  133.7132  156.1460 H   0  0  0  0  0  0  0  0  0  0  0  0  # atno 11005 bound_to 11000
  145.9772  140.8712  143.0132 LP  0  0  0  0  0  0  0  0  0  0  0  0  # atno 17320 bound_to 7965
  144.6757  140.2029  143.7385 LP  0  0  0  0  0  0  0  0  0  0  0  0  # atno 17321 bound_to 7965
  139.5535  144.2335  152.1571 LP  0  0  0  0  0  0  0  0  0  0  0  0  # atno 17342 bound_to 10162
  140.1582  144.5050  150.6648 LP  0  0  0  0  0  0  0  0  0  0  0  0  # atno 17343 bound_to 10162
  156.9250  130.9695  151.3542 LP  0  0  0  0  0  0  0  0  0  0  0  0  # atno 17370 bound_to 10713
  157.5935  130.8461  149.8694 LP  0  0  0  0  0  0  0  0  0  0  0  0  # atno 17371 bound_to 10713
  140.7386  134.4175  157.5557 LP  0  0  0  0  0  0  0  0  0  0  0  0  # atno 17394 bound_to 11000
  139.8898  134.8821  156.2403 LP  0  0  0  0  0  0  0  0  0  0  0  0  # atno 17395 bound_to 11000

$$$$
