AV-unprocessed.smi:3150|AV-procd|sdf|12007|dock3
  -GOLD-   2272017413D 1   1.00000     0.00000
 Structure written by MMmdl.
 33 34  0  0  0  0  0  0  0  0  1 V2000
  153.8692  140.7842  161.0105 C   0  0  0  0  0  0  0  0  0  0  0  0
  153.2345  141.6200  159.8888 C   0  0  2  0  0  0  0  0  0  0  0  0
  152.0494  142.2135  160.4129 O   0  0  0  0  0  0  0  0  0  0  0  0
  152.2090  143.5189  160.9547 C   0  0  0  0  0  0  0  0  0  0  0  0
  151.4999  144.5085  160.0561 C   0  0  0  0  0  0  0  0  0  0  0  0
  152.1841  145.0562  158.8243 C   0  0  0  0  0  0  0  0  0  0  0  0
  151.9417  145.9537  160.0111 C   0  0  0  0  0  0  0  0  0  0  0  0
  152.9022  140.7550  158.6619 C   0  0  0  0  0  0  0  0  0  0  0  0
  153.4871  139.6844  158.4929 O   0  0  0  0  0  0  0  0  0  0  0  0
  151.9510  141.2449  157.8452 N   0  0  0  0  0  0  0  0  0  0  0  0
  151.4247  140.6753  156.6531 C   0  0  0  0  0  0  0  0  0  0  0  0
  151.8959  139.5239  156.1114 N   0  0  0  0  0  0  0  0  0  0  0  0
  151.3407  139.0494  154.9769 C   0  0  0  0  0  0  0  0  0  0  0  0
  150.2823  139.6928  154.3111 C   0  0  0  0  0  0  0  0  0  0  0  0
  149.7834  140.8867  154.8601 C   0  0  0  0  0  0  0  0  0  0  0  0
  150.3589  141.3872  156.0452 C   0  0  0  0  0  0  0  0  0  0  0  0
  149.8775  142.5480  156.5851 O   0  0  0  0  0  0  0  0  0  0  0  0
  154.7777  140.2867  160.6688 H   0  0  0  0  0  0  0  0  0  0  0  0
  153.1849  140.0185  161.3783 H   0  0  0  0  0  0  0  0  0  0  0  0
  154.1391  141.4165  161.8565 H   0  0  0  0  0  0  0  0  0  0  0  0
  153.9391  142.4059  159.6092 H   0  0  0  0  0  0  0  0  0  0  0  0
  151.7701  143.5712  161.9518 H   0  0  0  0  0  0  0  0  0  0  0  0
  153.2612  143.7941  161.0369 H   0  0  0  0  0  0  0  0  0  0  0  0
  150.4280  144.3384  159.9743 H   0  0  0  0  0  0  0  0  0  0  0  0
  153.2083  144.7421  158.6319 H   0  0  0  0  0  0  0  0  0  0  0  0
  151.5713  145.2145  157.9393 H   0  0  0  0  0  0  0  0  0  0  0  0
  151.1678  146.7128  159.9177 H   0  0  0  0  0  0  0  0  0  0  0  0
  152.8060  146.2404  160.6071 H   0  0  0  0  0  0  0  0  0  0  0  0
  151.5485  142.1322  158.1100 H   0  0  0  0  0  0  0  0  0  0  0  0
  151.7531  138.1297  154.5890 H   0  0  0  0  0  0  0  0  0  0  0  0
  149.8651  139.2807  153.4044 H   0  0  0  0  0  0  0  0  0  0  0  0
  148.9708  141.4101  154.3778 H   0  0  0  0  0  0  0  0  0  0  0  0
  149.7219  143.2202  155.9394 H   0  0  0  0  0  0  0  0  0  0  0  0
  1  2  1  0  0  0  0
  1 18  1  0  0  0  0
  1 19  1  0  0  0  0
  1 20  1  0  0  0  0
  2  3  1  0  0  0  0
  2  8  1  0  0  0  0
  2 21  1  0  0  0  0
  3  4  1  0  0  0  0
  4  5  1  0  0  0  0
  4 22  1  0  0  0  0
  4 23  1  0  0  0  0
  5  7  1  0  0  0  0
  5  6  1  0  0  0  0
  5 24  1  0  0  0  0
  6  7  1  0  0  0  0
  6 25  1  0  0  0  0
  6 26  1  0  0  0  0
  7 27  1  0  0  0  0
  7 28  1  0  0  0  0
  8  9  2  0  0  0  0
  8 10  1  0  0  0  0
 10 11  1  0  0  0  0
 10 29  1  0  0  0  0
 11 16  1  0  0  0  0
 11 12  2  0  0  0  0
 12 13  1  0  0  0  0
 13 14  2  0  0  0  0
 13 30  1  0  0  0  0
 14 15  1  0  0  0  0
 14 31  1  0  0  0  0
 15 16  2  0  0  0  0
 15 32  1  0  0  0  0
 16 17  1  0  0  0  0
 17 33  1  0  0  0  0
M  END
> <s_m_source_file>
AV-unprocessed.smi

> <i_m_source_file_index>
3150

> <i_lp_mmshare_version>
43012

> <i_f3d_flags>
0

> <s_epik_input>
W0NIMl0xW0NIMl1bQ0hdMVtDSDJdT1tDQEBIXShbQ0gzXSlDKD1PKVtOSF1jMm5bY0hdW2NIXVtjSF1jMltPSF0=

> <s_epik_cmdline>
J2VwaWtfcHl0aG9uJywgJy1waCcsICc3LjAnLCAnLXRuJywgJzgnLCAnLW1hJywgJzIwMCcsICctbWV0YWxfYmluZGluZycsICctaW1hZScsICc8aW5maWxlLm1hZT4nLCAnLW9tYWUnLCAnPG91dGZpbGUubWFlPic=

> <r_lp_tautomer_probability>
0.43658

> <r_epik_Ionization_Penalty>
0.0204299

> <r_epik_Ionization_Penalty_Charging>
0

> <r_epik_Ionization_Penalty_Neutral>
0.0204299

> <r_epik_State_Penalty>
0.419322

> <r_epik_Charging_Adjusted_Penalty>
0.419322

> <i_epik_Tot_Q>
0

> <i_epik_Tot_abs_Q>
0

> <r_epik_Metal_State_Penalty>
0.377394

> <b_epik_Metal_Only>
0

> <s_lp_Force_Field>
OPLS_2005

> <r_lp_Energy>
16.2266

> <b_lp_Chiralities_Consistent>
1

> <s_lp_Variant>
AV-unprocessed.smi:3150-1

> <Gold.Version>
5.8.1

> <Gold.Id.Protein>
6NUR|6NUR_protein|mol2

> <Gold.PLP.Fitness>
44.8547

> <Gold.PLP.PLP>
-41.7282

> <Gold.PLP.part.hbond>
-2.3543

> <Gold.PLP.part.metal>
0.0000

> <Gold.PLP.part.buried>
-3.5679

> <Gold.PLP.part.nonpolar>
-35.2775

> <Gold.PLP.part.repulsive>
0.1009

> <Gold.PLP.ligand.clash>
0.0000

> <Gold.PLP.ligand.torsion>
1.7034

> <Gold.PLP.Chemscore.Hbond>
1.9920

> <Gold.PLP.Chemscore.CHOScore>
0.0000

> <Gold.PLP.Chemscore.Metal>
0.0000

> <Gold.Chemscore.Hbonds>
donor molecule, donor type, donor heavy atom, donor atom, acceptor molecule, acceptor atom, score
      L1  H    17    33       P1  8028  0.88
      P1  H  7997  8010       L1     9  1.00

> <Gold.PLP.Chemscore.Internal.Correction>
0.5573

> <Gold.Rescore>
     Score         DG    S(hbond)    S(metal)    S(lipo)     H(rot)  DE(clash)    DE(int)     intcor
     13.42     -16.65       1.74        0.00      94.33       2.22       0.05       3.18       ----

> <Gold.Chemscore.Fitness>
13.4235

> <Gold.Chemscore.DG>
-16.6454

> <Gold.Chemscore.ZeroCoef>
-5.4800

> <Gold.Chemscore.Hbond>
1.7394

> <Gold.Chemscore.Metal>
0.0000

> <Gold.Chemscore.Lipo>
94.3346

> <Gold.Chemscore.Internal_Hbond>
0.0000

> <Gold.Chemscore.DEClash>
0.0456

> <Gold.Chemscore.DEInternal>
3.1763

> <Gold.Chemscore.Rot>
2.2192

> <Gold.Chemscore.Internal.Correction>
   9.000000E+99

> <Gold.Chemscore.Hbonds>
donor molecule, donor type, donor heavy atom, donor atom, acceptor molecule, acceptor atom, score
      L1  H    17    33       P1  8028  0.87
      P1  H  7997  8010       L1     9  0.33

> <Gold.Chemscore.Hbond.Weighted>
-5.8095

> <Gold.Chemscore.Metal.Weighted>
-0.0000

> <Gold.Chemscore.Lipo.Weighted>
-11.0371

> <Gold.Chemscore.Internal_Hbond.Weighted>
0.0000

> <Gold.Chemscore.DEClash.Weighted>
0.0456

> <Gold.Chemscore.DEInternal.Weighted>
3.1763

> <Gold.Chemscore.Rot.Weighted>
5.6812

> <Gold.Chemscore.Internal.Correction.Weighted>
   9.000000E+99

> <Gold.Protein.RotatedTorsions>
[ 6907 6896 6895 6894 ] final   45.30 input  -60.11 | X-H torsion
[ 7974 7965 7964 7962 ] final   27.33 input  175.53 | X-H torsion
[ 8008 7997 7996 7995 ] final   42.42 input   59.86 | X-H torsion
[ 10167 10162 10161 10158 ] final -113.83 input  -65.29 | X-H torsion
[ 10718 10713 10712 10709 ] final  -60.87 input   66.30 | X-H torsion
[ 10763 10752 10751 10750 ] final  147.03 input  -60.55 | X-H torsion
[ 11005 11000 10999 10996 ] final -149.54 input  -57.11 | X-H torsion

> <Gold.Protein.ActiveResidues>
 VAL166  LYS551  ARG553  GLY616  TRP617  ASP618  TYR619  PRO620  LYS621  CYS622 
 ASP623  PHE694  ASN695  SER759  ASP760  ASP761  ALA762  ILE779  LEU786  VAL792 
 PHE793  MET794  SER795  GLU796  ALA797  LYS798  CYS799  TRP800  GLU811  SER814 

> <Gold.Protein.RotatedAtoms>
  152.2429  134.8211  160.0457 H   0  0  0  0  0  0  0  0  0  0  0  0  # atno 6907 bound_to 6896
  151.8919  133.3513  159.3809 H   0  0  0  0  0  0  0  0  0  0  0  0  # atno 6908 bound_to 6896
  150.7059  134.4841  159.5529 H   0  0  0  0  0  0  0  0  0  0  0  0  # atno 6909 bound_to 6896
  146.1790  139.7206  142.8914 H   0  0  0  0  0  0  0  0  0  0  0  0  # atno 7974 bound_to 7965
  155.2859  140.3375  155.4255 H   0  0  0  0  0  0  0  0  0  0  0  0  # atno 8008 bound_to 7997
  156.2068  140.1754  156.7822 H   0  0  0  0  0  0  0  0  0  0  0  0  # atno 8009 bound_to 7997
  154.5632  140.0683  156.8836 H   0  0  0  0  0  0  0  0  0  0  0  0  # atno 8010 bound_to 7997
  140.1075  143.4557  152.1773 H   0  0  0  0  0  0  0  0  0  0  0  0  # atno 10167 bound_to 10162
  156.0960  130.4193  150.0915 H   0  0  0  0  0  0  0  0  0  0  0  0  # atno 10718 bound_to 10713
  154.0317  135.2897  155.3367 H   0  0  0  0  0  0  0  0  0  0  0  0  # atno 10763 bound_to 10752
  154.6984  135.5198  153.8494 H   0  0  0  0  0  0  0  0  0  0  0  0  # atno 10764 bound_to 10752
  153.0637  135.6623  154.0529 H   0  0  0  0  0  0  0  0  0  0  0  0  # atno 10765 bound_to 10752
  140.7496  134.3421  157.5129 H   0  0  0  0  0  0  0  0  0  0  0  0  # atno 11005 bound_to 11000
  145.4130  141.0398  143.3006 LP  0  0  0  0  0  0  0  0  0  0  0  0  # atno 17320 bound_to 7965
  144.8283  139.5672  143.6955 LP  0  0  0  0  0  0  0  0  0  0  0  0  # atno 17321 bound_to 7965
  139.5637  144.7422  151.4082 LP  0  0  0  0  0  0  0  0  0  0  0  0  # atno 17342 bound_to 10162
  140.6944  143.7785  150.7304 LP  0  0  0  0  0  0  0  0  0  0  0  0  # atno 17343 bound_to 10162
  156.8913  130.9589  151.3588 LP  0  0  0  0  0  0  0  0  0  0  0  0  # atno 17370 bound_to 10713
  157.6121  130.8591  149.8969 LP  0  0  0  0  0  0  0  0  0  0  0  0  # atno 17371 bound_to 10713
  139.8790  134.9134  156.3082 LP  0  0  0  0  0  0  0  0  0  0  0  0  # atno 17394 bound_to 11000
  140.9762  133.7296  156.0606 LP  0  0  0  0  0  0  0  0  0  0  0  0  # atno 17395 bound_to 11000

$$$$
