AV-unprocessed.smi:446|AV-procd|sdf|2593|dock1
  -GOLD-   2262022583D 1   1.00000     0.00000
 Structure written by MMmdl.
 35 37  0  0  0  0  0  0  0  0  1 V2000
  152.0988  138.3841  155.5899 C   0  0  0  0  0  0  0  0  0  0  0  0
  150.8063  138.9440  155.0870 C   0  0  0  0  0  0  0  0  0  0  0  0
  149.9102  138.1948  154.4440 N   0  0  0  0  0  0  0  0  0  0  0  0
  148.8975  139.0960  154.1768 C   0  0  0  0  0  0  0  0  0  0  0  0
  147.6617  138.9210  153.5135 C   0  0  0  0  0  0  0  0  0  0  0  0
  146.7737  140.0062  153.3605 C   0  0  0  0  0  0  0  0  0  0  0  0
  147.1073  141.2791  153.8672 C   0  0  0  0  0  0  0  0  0  0  0  0
  148.3341  141.4757  154.5299 C   0  0  0  0  0  0  0  0  0  0  0  0
  149.2172  140.3896  154.6786 C   0  0  0  0  0  0  0  0  0  0  0  0
  150.4730  140.2472  155.2592 N   0  0  0  0  0  0  0  0  0  0  0  0
  151.2402  141.3009  155.9096 C   0  0  0  0  0  0  0  0  0  0  0  0
  151.5305  140.9892  157.3912 C   0  0  2  0  0  0  0  0  0  0  0  0
  150.5478  140.1092  157.9019 O   0  0  0  0  0  0  0  0  0  0  0  0
  151.6453  142.2634  158.2131 C   0  0  0  0  0  0  0  0  0  0  0  0
  152.1061  142.2011  159.5459 C   0  0  0  0  0  0  0  0  0  0  0  0
  152.2209  143.3768  160.3134 C   0  0  0  0  0  0  0  0  0  0  0  0
  151.8781  144.6216  159.7517 C   0  0  0  0  0  0  0  0  0  0  0  0
  151.9883  145.7514  160.4897 F   0  0  0  0  0  0  0  0  0  0  0  0
  151.4221  144.6905  158.4213 C   0  0  0  0  0  0  0  0  0  0  0  0
  151.3074  143.5156  157.6531 C   0  0  0  0  0  0  0  0  0  0  0  0
  152.2043  137.3396  155.2946 H   0  0  0  0  0  0  0  0  0  0  0  0
  152.1335  138.4380  156.6782 H   0  0  0  0  0  0  0  0  0  0  0  0
  152.9404  138.9422  155.1800 H   0  0  0  0  0  0  0  0  0  0  0  0
  147.3970  137.9499  153.1221 H   0  0  0  0  0  0  0  0  0  0  0  0
  145.8317  139.8608  152.8523 H   0  0  0  0  0  0  0  0  0  0  0  0
  146.4211  142.1046  153.7469 H   0  0  0  0  0  0  0  0  0  0  0  0
  148.5941  142.4489  154.9190 H   0  0  0  0  0  0  0  0  0  0  0  0
  152.1786  141.4132  155.3651 H   0  0  0  0  0  0  0  0  0  0  0  0
  150.7182  142.2528  155.8110 H   0  0  0  0  0  0  0  0  0  0  0  0
  152.4811  140.4587  157.4580 H   0  0  0  0  0  0  0  0  0  0  0  0
  150.7986  139.8564  158.7773 H   0  0  0  0  0  0  0  0  0  0  0  0
  152.3743  141.2513  159.9852 H   0  0  0  0  0  0  0  0  0  0  0  0
  152.5729  143.3231  161.3331 H   0  0  0  0  0  0  0  0  0  0  0  0
  151.1614  145.6453  157.9892 H   0  0  0  0  0  0  0  0  0  0  0  0
  150.9607  143.5792  156.6320 H   0  0  0  0  0  0  0  0  0  0  0  0
  1  2  1  0  0  0  0
  1 21  1  0  0  0  0
  1 22  1  0  0  0  0
  1 23  1  0  0  0  0
  2 10  1  0  0  0  0
  2  3  2  0  0  0  0
  3  4  1  0  0  0  0
  4  9  2  0  0  0  0
  4  5  1  0  0  0  0
  5  6  2  0  0  0  0
  5 24  1  0  0  0  0
  6  7  1  0  0  0  0
  6 25  1  0  0  0  0
  7  8  2  0  0  0  0
  7 26  1  0  0  0  0
  8  9  1  0  0  0  0
  8 27  1  0  0  0  0
  9 10  1  0  0  0  0
 10 11  1  0  0  0  0
 11 12  1  0  0  0  0
 11 28  1  0  0  0  0
 11 29  1  0  0  0  0
 12 13  1  0  0  0  0
 12 14  1  0  0  0  0
 12 30  1  0  0  0  0
 13 31  1  0  0  0  0
 14 20  1  0  0  0  0
 14 15  2  0  0  0  0
 15 16  1  0  0  0  0
 15 32  1  0  0  0  0
 16 17  2  0  0  0  0
 16 33  1  0  0  0  0
 17 18  1  0  0  0  0
 17 19  1  0  0  0  0
 19 20  2  0  0  0  0
 19 34  1  0  0  0  0
 20 35  1  0  0  0  0
M  END
> <s_m_source_file>
AV-unprocessed.smi

> <i_m_source_file_index>
446

> <i_lp_mmshare_version>
43012

> <i_f3d_flags>
0

> <s_epik_input>
W2NIXTFbY0hdW2NIXVtjSF1jKGMxMiluKGMobjIpW0NIM10pW0NIMl1bQ0BIXShbT0hdKWMzW2NIXVtjSF1jKEYpW2NIXVtjSF0z

> <s_epik_cmdline>
J2VwaWtfcHl0aG9uJywgJy1waCcsICc3LjAnLCAnLXRuJywgJzgnLCAnLW1hJywgJzIwMCcsICctbWV0YWxfYmluZGluZycsICctaW1hZScsICc8aW5maWxlLm1hZT4nLCAnLW9tYWUnLCAnPG91dGZpbGUubWFlPic=

> <r_epik_Ionization_Penalty>
0.129663

> <r_epik_Ionization_Penalty_Charging>
0

> <r_epik_Ionization_Penalty_Neutral>
0.129663

> <r_epik_State_Penalty>
0.119073

> <r_epik_Charging_Adjusted_Penalty>
0.119073

> <i_epik_Tot_Q>
0

> <i_epik_Tot_abs_Q>
0

> <r_epik_Metal_State_Penalty>
0.000131867

> <b_epik_Metal_Only>
0

> <s_lp_Force_Field>
OPLS_2005

> <r_lp_Energy>
11.4063

> <b_lp_Chiralities_Consistent>
1

> <s_lp_Variant>
AV-unprocessed.smi:446-1

> <Gold.Version>
5.8.1

> <Gold.Id.Protein>
6NUR|6NUR_protein|mol2

> <Gold.PLP.Fitness>
45.7872

> <Gold.PLP.PLP>
-46.7988

> <Gold.PLP.part.hbond>
0.0000

> <Gold.PLP.part.metal>
0.0000

> <Gold.PLP.part.buried>
-3.4285

> <Gold.PLP.part.nonpolar>
-43.6223

> <Gold.PLP.part.repulsive>
0.2078

> <Gold.PLP.ligand.clash>
0.0000

> <Gold.PLP.ligand.torsion>
0.5239

> <Gold.PLP.Chemscore.Hbond>
0.0000

> <Gold.PLP.Chemscore.CHOScore>
0.0000

> <Gold.PLP.Chemscore.Metal>
0.0000

> <Gold.PLP.Chemscore.Internal.Correction>
0.0362

> <Gold.Rescore>
     Score         DG    S(hbond)    S(metal)    S(lipo)     H(rot)  DE(clash)    DE(int)     intcor
     14.89     -15.50       0.00        0.00     124.86       1.79       0.03       0.58       ----

> <Gold.Chemscore.Fitness>
14.8902

> <Gold.Chemscore.DG>
-15.4999

> <Gold.Chemscore.ZeroCoef>
-5.4800

> <Gold.Chemscore.Hbond>
0.0000

> <Gold.Chemscore.Metal>
0.0000

> <Gold.Chemscore.Lipo>
124.8629

> <Gold.Chemscore.Internal_Hbond>
0.0000

> <Gold.Chemscore.DEClash>
0.0270

> <Gold.Chemscore.DEInternal>
0.5828

> <Gold.Chemscore.Rot>
1.7926

> <Gold.Chemscore.Internal.Correction>
   9.000000E+99

> <Gold.Chemscore.Hbond.Weighted>
-0.0000

> <Gold.Chemscore.Metal.Weighted>
-0.0000

> <Gold.Chemscore.Lipo.Weighted>
-14.6090

> <Gold.Chemscore.Internal_Hbond.Weighted>
0.0000

> <Gold.Chemscore.DEClash.Weighted>
0.0270

> <Gold.Chemscore.DEInternal.Weighted>
0.5828

> <Gold.Chemscore.Rot.Weighted>
4.5890

> <Gold.Chemscore.Internal.Correction.Weighted>
   9.000000E+99

> <Gold.Protein.RotatedTorsions>
[ 6907 6896 6895 6894 ] final  -76.11 input  -60.11 | X-H torsion
[ 7974 7965 7964 7962 ] final    0.68 input  175.53 | X-H torsion
[ 8008 7997 7996 7995 ] final  -49.30 input   59.86 | X-H torsion
[ 10167 10162 10161 10158 ] final  119.33 input  -65.29 | X-H torsion
[ 10718 10713 10712 10709 ] final  173.38 input   66.30 | X-H torsion
[ 10763 10752 10751 10750 ] final -153.43 input  -60.55 | X-H torsion
[ 11005 11000 10999 10996 ] final    2.13 input  -57.11 | X-H torsion

> <Gold.Protein.ActiveResidues>
 VAL166  LYS551  ARG553  GLY616  TRP617  ASP618  TYR619  PRO620  LYS621  CYS622 
 ASP623  PHE694  ASN695  SER759  ASP760  ASP761  ALA762  ILE779  LEU786  VAL792 
 PHE793  MET794  SER795  GLU796  ALA797  LYS798  CYS799  TRP800  GLU811  SER814 

> <Gold.Protein.RotatedAtoms>
  150.7037  134.4620  159.5384 H   0  0  0  0  0  0  0  0  0  0  0  0  # atno 6907 bound_to 6896
  152.2293  134.8335  160.0485 H   0  0  0  0  0  0  0  0  0  0  0  0  # atno 6908 bound_to 6896
  151.9157  133.3537  159.3916 H   0  0  0  0  0  0  0  0  0  0  0  0  # atno 6909 bound_to 6896
  146.2436  140.1101  142.8344 H   0  0  0  0  0  0  0  0  0  0  0  0  # atno 7974 bound_to 7965
  154.4042  140.1300  156.4480 H   0  0  0  0  0  0  0  0  0  0  0  0  # atno 8008 bound_to 7997
  155.7394  140.3490  155.5077 H   0  0  0  0  0  0  0  0  0  0  0  0  # atno 8009 bound_to 7997
  155.9053  140.1026  157.1310 H   0  0  0  0  0  0  0  0  0  0  0  0  # atno 8010 bound_to 7997
  139.6053  144.7068  151.2968 H   0  0  0  0  0  0  0  0  0  0  0  0  # atno 10167 bound_to 10162
  156.9651  131.0073  151.2918 H   0  0  0  0  0  0  0  0  0  0  0  0  # atno 10718 bound_to 10713
  154.7928  135.3213  154.7737 H   0  0  0  0  0  0  0  0  0  0  0  0  # atno 10763 bound_to 10752
  153.8423  135.6870  153.4806 H   0  0  0  0  0  0  0  0  0  0  0  0  # atno 10764 bound_to 10752
  153.1605  135.4662  154.9707 H   0  0  0  0  0  0  0  0  0  0  0  0  # atno 10765 bound_to 10752
  140.6077  133.9777  155.8162 H   0  0  0  0  0  0  0  0  0  0  0  0  # atno 11005 bound_to 11000
  145.0495  140.9007  143.5004 LP  0  0  0  0  0  0  0  0  0  0  0  0  # atno 17320 bound_to 7965
  145.1196  139.2702  143.5595 LP  0  0  0  0  0  0  0  0  0  0  0  0  # atno 17321 bound_to 7965
  140.7280  143.6947  150.7893 LP  0  0  0  0  0  0  0  0  0  0  0  0  # atno 17342 bound_to 10162
  140.0532  143.5229  152.2664 LP  0  0  0  0  0  0  0  0  0  0  0  0  # atno 17343 bound_to 10162
  157.5631  130.8259  149.8292 LP  0  0  0  0  0  0  0  0  0  0  0  0  # atno 17370 bound_to 10713
  156.0306  130.3766  150.1699 LP  0  0  0  0  0  0  0  0  0  0  0  0  # atno 17371 bound_to 10713
  141.0829  134.0034  157.3358 LP  0  0  0  0  0  0  0  0  0  0  0  0  # atno 17394 bound_to 11000
  139.9205  135.0200  156.8047 LP  0  0  0  0  0  0  0  0  0  0  0  0  # atno 17395 bound_to 11000

$$$$
