AV-unprocessed.smi:1794|AV-procd|sdf|7232|dock5
  -GOLD-   22720 8473D 1   1.00000     0.00000
 Structure written by MMmdl.
 54 56  0  0  0  0  0  0  0  0  1 V2000
  151.1183  140.5999  155.8817 C   0  0  0  0  0  0  0  0  0  0  0  0
  151.2182  140.4851  157.4245 C   0  0  0  0  0  0  0  0  0  0  0  0
  149.7723  140.4302  157.9743 C   0  0  0  0  0  0  0  0  0  0  0  0
  151.8752  139.1047  157.7158 C   0  0  0  0  0  0  0  0  0  0  0  0
  150.9282  138.0001  157.5689 N   0  0  0  0  0  0  0  0  0  0  0  0
  151.0211  136.9951  156.6877 C   0  0  0  0  0  0  0  0  0  0  0  0
  151.9247  136.8943  155.8584 O   0  0  0  0  0  0  0  0  0  0  0  0
  149.9981  136.1367  156.8330 N   0  0  0  0  0  0  0  0  0  0  0  0
  149.6799  134.9857  156.0563 C   0  0  0  0  0  0  0  0  0  0  0  0
  150.2270  134.7408  154.7729 C   0  0  0  0  0  0  0  0  0  0  0  0
  149.8631  133.5688  154.0852 C   0  0  0  0  0  0  0  0  0  0  0  0
  148.9728  132.6762  154.7082 C   0  0  0  0  0  0  0  0  0  0  0  0
  148.4562  132.8856  155.9360 N   0  0  0  0  0  0  0  0  0  0  0  0
  148.8022  134.0140  156.6026 C   0  0  0  0  0  0  0  0  0  0  0  0
  148.2595  134.2065  157.8857 N   0  0  0  0  0  0  0  0  0  0  0  0
  146.8177  134.3740  157.9505 C   0  0  0  0  0  0  0  0  0  0  0  0
  146.4641  134.2116  159.4299 C   0  0  0  0  0  0  0  0  0  0  0  0
  147.6071  133.3727  160.0156 C   0  0  0  0  0  0  0  0  0  0  0  0
  148.5915  133.1786  158.8578 C   0  0  0  0  0  0  0  0  0  0  0  0
  152.0161  141.6075  157.9945 N   0  0  0  0  0  0  0  0  0  0  0  0
  152.3767  141.4537  159.4092 C   0  0  0  0  0  0  0  0  0  0  0  0
  153.2999  142.5834  159.8967 C   0  0  0  0  0  0  0  0  0  0  0  0
  152.6745  143.8415  159.6766 O   0  0  0  0  0  0  0  0  0  0  0  0
  152.3608  144.0582  158.3064 C   0  0  0  0  0  0  0  0  0  0  0  0
  151.4317  142.9401  157.8032 C   0  0  0  0  0  0  0  0  0  0  0  0
  150.6913  139.6985  155.4407 H   0  0  0  0  0  0  0  0  0  0  0  0
  152.0968  140.7511  155.4246 H   0  0  0  0  0  0  0  0  0  0  0  0
  150.4773  141.4237  155.5679 H   0  0  0  0  0  0  0  0  0  0  0  0
  149.2151  139.6064  157.5268 H   0  0  0  0  0  0  0  0  0  0  0  0
  149.2131  141.3397  157.7560 H   0  0  0  0  0  0  0  0  0  0  0  0
  149.7476  140.2757  159.0528 H   0  0  0  0  0  0  0  0  0  0  0  0
  152.7174  138.9185  157.0500 H   0  0  0  0  0  0  0  0  0  0  0  0
  152.3144  139.1085  158.7152 H   0  0  0  0  0  0  0  0  0  0  0  0
  150.1505  137.9918  158.2125 H   0  0  0  0  0  0  0  0  0  0  0  0
  149.3026  136.3931  157.5184 H   0  0  0  0  0  0  0  0  0  0  0  0
  150.9269  135.4180  154.3090 H   0  0  0  0  0  0  0  0  0  0  0  0
  150.2619  133.3568  153.1043 H   0  0  0  0  0  0  0  0  0  0  0  0
  148.6738  131.7657  154.2106 H   0  0  0  0  0  0  0  0  0  0  0  0
  146.5168  135.3507  157.5703 H   0  0  0  0  0  0  0  0  0  0  0  0
  146.3132  133.6093  157.3581 H   0  0  0  0  0  0  0  0  0  0  0  0
  146.4359  135.1868  159.9176 H   0  0  0  0  0  0  0  0  0  0  0  0
  145.4886  133.7435  159.5652 H   0  0  0  0  0  0  0  0  0  0  0  0
  148.0823  133.9102  160.8372 H   0  0  0  0  0  0  0  0  0  0  0  0
  147.2583  132.4150  160.4029 H   0  0  0  0  0  0  0  0  0  0  0  0
  148.4677  132.1865  158.4213 H   0  0  0  0  0  0  0  0  0  0  0  0
  149.6256  133.2738  159.1900 H   0  0  0  0  0  0  0  0  0  0  0  0
  151.4796  141.4413  160.0285 H   0  0  0  0  0  0  0  0  0  0  0  0
  152.8927  140.5108  159.5800 H   0  0  0  0  0  0  0  0  0  0  0  0
  153.5076  142.4707  160.9608 H   0  0  0  0  0  0  0  0  0  0  0  0
  154.2592  142.5488  159.3778 H   0  0  0  0  0  0  0  0  0  0  0  0
  151.8758  145.0287  158.2016 H   0  0  0  0  0  0  0  0  0  0  0  0
  153.2780  144.0925  157.7163 H   0  0  0  0  0  0  0  0  0  0  0  0
  151.2281  143.1284  156.7508 H   0  0  0  0  0  0  0  0  0  0  0  0
  150.4796  143.0140  158.3290 H   0  0  0  0  0  0  0  0  0  0  0  0
  1  2  1  0  0  0  0
  1 26  1  0  0  0  0
  1 27  1  0  0  0  0
  1 28  1  0  0  0  0
  2  3  1  0  0  0  0
  2  4  1  0  0  0  0
  2 20  1  0  0  0  0
  3 29  1  0  0  0  0
  3 30  1  0  0  0  0
  3 31  1  0  0  0  0
  4  5  1  0  0  0  0
  4 32  1  0  0  0  0
  4 33  1  0  0  0  0
  5  6  1  0  0  0  0
  5 34  1  0  0  0  0
  6  7  2  0  0  0  0
  6  8  1  0  0  0  0
  8  9  1  0  0  0  0
  8 35  1  0  0  0  0
  9 14  1  0  0  0  0
  9 10  2  0  0  0  0
 10 11  1  0  0  0  0
 10 36  1  0  0  0  0
 11 12  2  0  0  0  0
 11 37  1  0  0  0  0
 12 13  1  0  0  0  0
 12 38  1  0  0  0  0
 13 14  2  0  0  0  0
 14 15  1  0  0  0  0
 15 19  1  0  0  0  0
 15 16  1  0  0  0  0
 16 17  1  0  0  0  0
 16 39  1  0  0  0  0
 16 40  1  0  0  0  0
 17 18  1  0  0  0  0
 17 41  1  0  0  0  0
 17 42  1  0  0  0  0
 18 19  1  0  0  0  0
 18 43  1  0  0  0  0
 18 44  1  0  0  0  0
 19 45  1  0  0  0  0
 19 46  1  0  0  0  0
 20 25  1  0  0  0  0
 20 21  1  0  0  0  0
 21 22  1  0  0  0  0
 21 47  1  0  0  0  0
 21 48  1  0  0  0  0
 22 23  1  0  0  0  0
 22 49  1  0  0  0  0
 22 50  1  0  0  0  0
 23 24  1  0  0  0  0
 24 25  1  0  0  0  0
 24 51  1  0  0  0  0
 24 52  1  0  0  0  0
 25 53  1  0  0  0  0
 25 54  1  0  0  0  0
M  END
> <s_m_source_file>
AV-unprocessed.smi

> <i_m_source_file_index>
1794

> <i_lp_mmshare_version>
43012

> <i_f3d_flags>
0

> <s_epik_input>
W0NIMl0xW0NIMl1PW0NIMl1bQ0gyXU4xQyhbQ0gzXSkoW0NIM10pW0NIMl1bTkhdQyg9TylbTkhdYzJbY0hdW2NIXVtjSF1uYzJOM1tDSDJdW0NIMl1bQ0gyXVtDSDJdMw==

> <s_epik_cmdline>
J2VwaWtfcHl0aG9uJywgJy1waCcsICc3LjAnLCAnLXRuJywgJzgnLCAnLW1hJywgJzIwMCcsICctbWV0YWxfYmluZGluZycsICctaW1hZScsICc8aW5maWxlLm1hZT4nLCAnLW9tYWUnLCAnPG91dGZpbGUubWFlPic=

> <r_lp_tautomer_probability>
1

> <r_epik_Ionization_Penalty>
0.366523

> <r_epik_Ionization_Penalty_Charging>
0

> <r_epik_Ionization_Penalty_Neutral>
0.366523

> <r_epik_State_Penalty>
0.351681

> <r_epik_Charging_Adjusted_Penalty>
0.351681

> <i_epik_Tot_Q>
0

> <i_epik_Tot_abs_Q>
0

> <r_epik_Metal_State_Penalty>
0.334668

> <b_epik_Metal_Only>
0

> <s_lp_Force_Field>
OPLS_2005

> <r_lp_Energy>
72.3516

> <b_lp_Chiralities_Consistent>
1

> <s_lp_Variant>
AV-unprocessed.smi:1794-1

> <Gold.Version>
5.8.1

> <Gold.Id.Protein>
6NUR|6NUR_protein|mol2

> <Gold.PLP.Fitness>
34.1090

> <Gold.PLP.PLP>
-32.9338

> <Gold.PLP.part.hbond>
-1.0000

> <Gold.PLP.part.metal>
0.0000

> <Gold.PLP.part.buried>
-4.1831

> <Gold.PLP.part.nonpolar>
-26.8423

> <Gold.PLP.part.repulsive>
0.1207

> <Gold.PLP.ligand.clash>
1.0339

> <Gold.PLP.ligand.torsion>
0.4532

> <Gold.PLP.Chemscore.Hbond>
1.0000

> <Gold.PLP.Chemscore.CHOScore>
0.0000

> <Gold.PLP.Chemscore.Metal>
0.0000

> <Gold.Chemscore.Hbonds>
donor molecule, donor type, donor heavy atom, donor atom, acceptor molecule, acceptor atom, score
      P1  H 10752 10763       L1     7  1.00

> <Gold.PLP.Chemscore.Internal.Correction>
0.1156

> <Gold.Rescore>
     Score         DG    S(hbond)    S(metal)    S(lipo)     H(rot)  DE(clash)    DE(int)     intcor
     14.06     -15.70       0.93        0.00      94.81       1.55       0.01       1.63       ----

> <Gold.Chemscore.Fitness>
14.0635

> <Gold.Chemscore.DG>
-15.7005

> <Gold.Chemscore.ZeroCoef>
-5.4800

> <Gold.Chemscore.Hbond>
0.9261

> <Gold.Chemscore.Metal>
0.0000

> <Gold.Chemscore.Lipo>
94.8116

> <Gold.Chemscore.Internal_Hbond>
0.0000

> <Gold.Chemscore.DEClash>
0.0082

> <Gold.Chemscore.DEInternal>
1.6287

> <Gold.Chemscore.Rot>
1.5491

> <Gold.Chemscore.Internal.Correction>
   9.000000E+99

> <Gold.Chemscore.Hbonds>
donor molecule, donor type, donor heavy atom, donor atom, acceptor molecule, acceptor atom, score
      P1  H 10752 10763       L1     7  0.93

> <Gold.Chemscore.Hbond.Weighted>
-3.0933

> <Gold.Chemscore.Metal.Weighted>
-0.0000

> <Gold.Chemscore.Lipo.Weighted>
-11.0930

> <Gold.Chemscore.Internal_Hbond.Weighted>
0.0000

> <Gold.Chemscore.DEClash.Weighted>
0.0082

> <Gold.Chemscore.DEInternal.Weighted>
1.6287

> <Gold.Chemscore.Rot.Weighted>
3.9657

> <Gold.Chemscore.Internal.Correction.Weighted>
   9.000000E+99

> <Gold.Protein.RotatedTorsions>
[ 6907 6896 6895 6894 ] final  -50.98 input  -60.11 | X-H torsion
[ 7974 7965 7964 7962 ] final  124.70 input  175.53 | X-H torsion
[ 8008 7997 7996 7995 ] final  -59.88 input   59.86 | X-H torsion
[ 10167 10162 10161 10158 ] final  178.29 input  -65.29 | X-H torsion
[ 10718 10713 10712 10709 ] final  -65.94 input   66.30 | X-H torsion
[ 10763 10752 10751 10750 ] final   81.12 input  -60.55 | X-H torsion
[ 11005 11000 10999 10996 ] final  176.98 input  -57.11 | X-H torsion

> <Gold.Protein.ActiveResidues>
 VAL166  LYS551  ARG553  GLY616  TRP617  ASP618  TYR619  PRO620  LYS621  CYS622 
 ASP623  PHE694  ASN695  SER759  ASP760  ASP761  ALA762  ILE779  LEU786  VAL792 
 PHE793  MET794  SER795  GLU796  ALA797  LYS798  CYS799  TRP800  GLU811  SER814 

> <Gold.Protein.RotatedAtoms>
  150.8655  134.8017  159.7114 H   0  0  0  0  0  0  0  0  0  0  0  0  # atno 6907 bound_to 6896
  152.4677  134.5031  159.9741 H   0  0  0  0  0  0  0  0  0  0  0  0  # atno 6908 bound_to 6896
  151.5128  133.3443  159.2923 H   0  0  0  0  0  0  0  0  0  0  0  0  # atno 6909 bound_to 6896
  145.0814  139.3654  143.4907 H   0  0  0  0  0  0  0  0  0  0  0  0  # atno 7974 bound_to 7965
  154.4372  140.1052  156.6185 H   0  0  0  0  0  0  0  0  0  0  0  0  # atno 8008 bound_to 7997
  155.5733  140.3489  155.4502 H   0  0  0  0  0  0  0  0  0  0  0  0  # atno 8009 bound_to 7997
  156.0373  140.1274  157.0183 H   0  0  0  0  0  0  0  0  0  0  0  0  # atno 8010 bound_to 7997
  139.5288  144.2697  152.0638 H   0  0  0  0  0  0  0  0  0  0  0  0  # atno 10167 bound_to 10162
  156.0640  130.4254  150.1637 H   0  0  0  0  0  0  0  0  0  0  0  0  # atno 10718 bound_to 10713
  153.1090  135.4777  154.9002 H   0  0  0  0  0  0  0  0  0  0  0  0  # atno 10763 bound_to 10752
  154.7461  135.3094  154.8645 H   0  0  0  0  0  0  0  0  0  0  0  0  # atno 10764 bound_to 10752
  153.9239  135.6852  153.4800 H   0  0  0  0  0  0  0  0  0  0  0  0  # atno 10765 bound_to 10752
  140.3791  134.6962  157.4440 H   0  0  0  0  0  0  0  0  0  0  0  0  # atno 11005 bound_to 11000
  146.3531  140.0606  142.8629 LP  0  0  0  0  0  0  0  0  0  0  0  0  # atno 17320 bound_to 7965
  145.1174  140.9442  143.4620 LP  0  0  0  0  0  0  0  0  0  0  0  0  # atno 17321 bound_to 7965
  140.2157  144.4517  150.6365 LP  0  0  0  0  0  0  0  0  0  0  0  0  # atno 17342 bound_to 10162
  140.6451  143.2212  151.6203 LP  0  0  0  0  0  0  0  0  0  0  0  0  # atno 17343 bound_to 10162
  156.9700  130.9832  151.3461 LP  0  0  0  0  0  0  0  0  0  0  0  0  # atno 17370 bound_to 10713
  157.5669  130.8284  149.8340 LP  0  0  0  0  0  0  0  0  0  0  0  0  # atno 17371 bound_to 10713
  140.0492  134.6155  155.8882 LP  0  0  0  0  0  0  0  0  0  0  0  0  # atno 17394 bound_to 11000
  141.1929  133.6577  156.5525 LP  0  0  0  0  0  0  0  0  0  0  0  0  # atno 17395 bound_to 11000

$$$$
