AV-unprocessed.smi:1575|AV-procd|sdf|6342|dock9
  -GOLD-   22720 6563D 1   1.00000     0.00000
 Structure written by MMmdl.
 40 40  0  0  0  0  0  0  0  0  2 V2000
  146.2227  138.1028  152.0825 C   0  0  0  0  0  0  0  0  0  0  0  0
  146.5279  136.6811  152.1233 N   0  0  0  0  0  0  0  0  0  0  0  0
  145.6177  135.7100  151.9627 C   0  0  0  0  0  0  0  0  0  0  0  0
  144.4201  135.9352  151.7802 O   0  0  0  0  0  0  0  0  0  0  0  0
  146.1405  134.2657  152.0432 C   0  0  1  0  0  0  0  0  0  0  0  0
  146.1948  133.7003  150.6038 C   0  0  0  0  0  0  0  0  0  0  0  0
  145.5858  132.2903  150.4262 C   0  0  0  0  0  0  0  0  0  0  0  0
  145.8830  131.7483  149.0198 C   0  0  0  0  0  0  0  0  0  0  0  0
  144.0730  132.2628  150.7013 C   0  0  0  0  0  0  0  0  0  0  0  0
  147.4919  134.2619  152.6029 N   0  0  0  0  0  0  0  0  0  0  0  0
  147.9651  133.3628  153.4794 C   0  0  0  0  0  0  0  0  0  0  0  0
  147.3071  132.4025  153.8821 O   0  0  0  0  0  0  0  0  0  0  0  0
  149.4117  133.5734  153.9456 C   0  0  0  0  0  0  0  0  0  0  0  0
  149.5024  134.2846  155.2309 N   0  0  0  0  0  0  0  0  0  0  0  0
  149.1880  135.6548  155.2453 C   0  0  0  0  0  0  0  0  0  0  0  0
  149.2461  136.3852  156.3752 C   0  0  0  0  0  0  0  0  0  0  0  0
  149.6482  135.7193  157.6078 C   0  0  0  0  0  0  0  0  0  0  0  0
  149.7015  136.3693  158.6501 O   0  0  0  0  0  0  0  0  0  0  0  0
  149.9486  134.3894  157.5415 N   0  5  0  0  0  0  0  0  0  0  0  0
  149.8871  133.6594  156.3847 C   0  0  0  0  0  0  0  0  0  0  0  0
  150.1640  132.4600  156.3470 O   0  0  0  0  0  0  0  0  0  0  0  0
  147.1327  138.6829  152.2333 H   0  0  0  0  0  0  0  0  0  0  0  0
  145.5133  138.3706  152.8661 H   0  0  0  0  0  0  0  0  0  0  0  0
  145.7972  138.3803  151.1174 H   0  0  0  0  0  0  0  0  0  0  0  0
  147.4910  136.4175  152.2724 H   0  0  0  0  0  0  0  0  0  0  0  0
  145.4684  133.6688  152.6616 H   0  0  0  0  0  0  0  0  0  0  0  0
  145.6849  134.3864  149.9251 H   0  0  0  0  0  0  0  0  0  0  0  0
  147.2339  133.6745  150.2699 H   0  0  0  0  0  0  0  0  0  0  0  0
  146.0642  131.6115  151.1329 H   0  0  0  0  0  0  0  0  0  0  0  0
  145.4292  132.3737  148.2503 H   0  0  0  0  0  0  0  0  0  0  0  0
  145.4958  130.7362  148.8974 H   0  0  0  0  0  0  0  0  0  0  0  0
  146.9561  131.7120  148.8296 H   0  0  0  0  0  0  0  0  0  0  0  0
  143.5392  132.9595  150.0546 H   0  0  0  0  0  0  0  0  0  0  0  0
  143.8472  132.5236  151.7349 H   0  0  0  0  0  0  0  0  0  0  0  0
  143.6619  131.2679  150.5274 H   0  0  0  0  0  0  0  0  0  0  0  0
  148.0993  135.0206  152.3299 H   0  0  0  0  0  0  0  0  0  0  0  0
  149.8907  132.5959  154.0141 H   0  0  0  0  0  0  0  0  0  0  0  0
  149.9723  134.1143  153.1809 H   0  0  0  0  0  0  0  0  0  0  0  0
  148.9058  136.0726  154.2901 H   0  0  0  0  0  0  0  0  0  0  0  0
  149.0045  137.4378  156.3689 H   0  0  0  0  0  0  0  0  0  0  0  0
  1  2  1  0  0  0  0
  1 22  1  0  0  0  0
  1 23  1  0  0  0  0
  1 24  1  0  0  0  0
  2  3  1  0  0  0  0
  2 25  1  0  0  0  0
  3  4  2  0  0  0  0
  3  5  1  0  0  0  0
  5  6  1  0  0  0  0
  5 10  1  0  0  0  0
  5 26  1  0  0  0  0
  6  7  1  0  0  0  0
  6 27  1  0  0  0  0
  6 28  1  0  0  0  0
  7  8  1  0  0  0  0
  7  9  1  0  0  0  0
  7 29  1  0  0  0  0
  8 30  1  0  0  0  0
  8 31  1  0  0  0  0
  8 32  1  0  0  0  0
  9 33  1  0  0  0  0
  9 34  1  0  0  0  0
  9 35  1  0  0  0  0
 10 11  1  0  0  0  0
 10 36  1  0  0  0  0
 11 12  2  0  0  0  0
 11 13  1  0  0  0  0
 13 14  1  0  0  0  0
 13 37  1  0  0  0  0
 13 38  1  0  0  0  0
 14 20  1  0  0  0  0
 14 15  1  0  0  0  0
 15 16  2  0  0  0  0
 15 39  1  0  0  0  0
 16 17  1  0  0  0  0
 16 40  1  0  0  0  0
 17 18  2  0  0  0  0
 17 19  1  0  0  0  0
 19 20  1  0  0  0  0
 20 21  2  0  0  0  0
M  CHG  1  19  -1
M  END
> <s_m_source_file>
AV-unprocessed.smi

> <i_m_source_file_index>
1575

> <i_lp_mmshare_version>
43012

> <i_f3d_flags>
0

> <s_epik_input>
W0NIM11bTkhdQyg9TylbQ0BIXShbQ0gyXVtDSF0oW0NIM10pW0NIM10pW05IXUMoPU8pW0NIMl1uMVtjSF1bY0hdYyg9TylbbkhdYzE9Tw==

> <s_epik_cmdline>
J2VwaWtfcHl0aG9uJywgJy1waCcsICc3LjAnLCAnLXRuJywgJzgnLCAnLW1hJywgJzIwMCcsICctbWV0YWxfYmluZGluZycsICctaW1hZScsICc8aW5maWxlLm1hZT4nLCAnLW9tYWUnLCAnPG91dGZpbGUubWFlPic=

> <r_lp_tautomer_probability>
0.999537

> <r_epik_Ionization_Penalty>
3.03017

> <r_epik_Ionization_Penalty_Charging>
2.35557e-08

> <r_epik_Ionization_Penalty_Neutral>
3.03017

> <r_epik_State_Penalty>
3.02913

> <r_epik_Charging_Adjusted_Penalty>
3.02913

> <i_epik_Tot_Q>
-1

> <i_epik_Tot_abs_Q>
1

> <r_epik_Metal_State_Penalty>
0.455824

> <b_epik_Metal_Only>
1

> <s_lp_Force_Field>
OPLS_2005

> <r_lp_Energy>
14.624

> <b_lp_Chiralities_Consistent>
1

> <s_lp_Variant>
AV-unprocessed.smi:1575-4

> <Gold.Version>
5.8.1

> <Gold.Id.Protein>
6NUR|6NUR_protein|mol2

> <Gold.PLP.Fitness>
44.5762

> <Gold.PLP.PLP>
-33.0557

> <Gold.PLP.part.hbond>
-3.2659

> <Gold.PLP.part.metal>
0.0000

> <Gold.PLP.part.buried>
-4.3164

> <Gold.PLP.part.nonpolar>
-25.9987

> <Gold.PLP.part.repulsive>
0.3115

> <Gold.PLP.ligand.clash>
0.0000

> <Gold.PLP.ligand.torsion>
1.7948

> <Gold.PLP.Chemscore.Hbond>
4.0000

> <Gold.PLP.Chemscore.CHOScore>
1.0000

> <Gold.PLP.Chemscore.Metal>
0.0000

> <Gold.Chemscore.Hbonds>
donor molecule, donor type, donor heavy atom, donor atom, acceptor molecule, acceptor atom, score
      L1  H     2    25       P1  7948  0.98
      L1  H    10    36       P1  7948  0.96
      P1  H  6896  6908       L1    19  1.82
      L1  C    15    39       P1  7948  1.00

> <Gold.PLP.Chemscore.Internal.Correction>
0.1101

> <Gold.Rescore>
     Score         DG    S(hbond)    S(metal)    S(lipo)     H(rot)  DE(clash)    DE(int)     intcor
     13.11     -14.76       2.77        0.00      60.43       2.74       0.01       1.65       ----

> <Gold.Chemscore.Fitness>
13.1070

> <Gold.Chemscore.DG>
-14.7648

> <Gold.Chemscore.ZeroCoef>
-5.4800

> <Gold.Chemscore.Hbond>
2.7658

> <Gold.Chemscore.Metal>
0.0000

> <Gold.Chemscore.Lipo>
60.4286

> <Gold.Chemscore.Internal_Hbond>
0.0000

> <Gold.Chemscore.DEClash>
0.0057

> <Gold.Chemscore.DEInternal>
1.6521

> <Gold.Chemscore.Rot>
2.7435

> <Gold.Chemscore.Internal.Correction>
   9.000000E+99

> <Gold.Chemscore.Hbonds>
donor molecule, donor type, donor heavy atom, donor atom, acceptor molecule, acceptor atom, score
      L1  H     2    25       P1  7948  0.88
      L1  H    10    36       P1  7948  0.68
      P1  H  6896  6908       L1    19  0.27

> <Gold.Chemscore.Hbond.Weighted>
-9.2379

> <Gold.Chemscore.Metal.Weighted>
-0.0000

> <Gold.Chemscore.Lipo.Weighted>
-7.0701

> <Gold.Chemscore.Internal_Hbond.Weighted>
0.0000

> <Gold.Chemscore.DEClash.Weighted>
0.0057

> <Gold.Chemscore.DEInternal.Weighted>
1.6521

> <Gold.Chemscore.Rot.Weighted>
7.0233

> <Gold.Chemscore.Internal.Correction.Weighted>
   9.000000E+99

> <Gold.Protein.RotatedTorsions>
[ 6907 6896 6895 6894 ] final  138.22 input  -60.11 | X-H torsion
[ 7974 7965 7964 7962 ] final  -40.21 input  175.53 | X-H torsion
[ 8008 7997 7996 7995 ] final  -84.83 input   59.86 | X-H torsion
[ 10167 10162 10161 10158 ] final   -0.95 input  -65.29 | X-H torsion
[ 10718 10713 10712 10709 ] final  -67.35 input   66.30 | X-H torsion
[ 10763 10752 10751 10750 ] final  -18.41 input  -60.55 | X-H torsion
[ 11005 11000 10999 10996 ] final -102.50 input  -57.11 | X-H torsion

> <Gold.Protein.ActiveResidues>
 VAL166  LYS551  ARG553  GLY616  TRP617  ASP618  TYR619  PRO620  LYS621  CYS622 
 ASP623  PHE694  ASN695  SER759  ASP760  ASP761  ALA762  ILE779  LEU786  VAL792 
 PHE793  MET794  SER795  GLU796  ALA797  LYS798  CYS799  TRP800  GLU811  SER814 

> <Gold.Protein.RotatedAtoms>
  152.2691  133.5366  159.5427 H   0  0  0  0  0  0  0  0  0  0  0  0  # atno 6907 bound_to 6896
  150.7152  134.0723  159.3877 H   0  0  0  0  0  0  0  0  0  0  0  0  # atno 6908 bound_to 6896
  151.8638  135.0514  160.0523 H   0  0  0  0  0  0  0  0  0  0  0  0  # atno 6909 bound_to 6896
  146.0326  140.6712  142.9125 H   0  0  0  0  0  0  0  0  0  0  0  0  # atno 7974 bound_to 7965
  154.6340  140.0599  156.9767 H   0  0  0  0  0  0  0  0  0  0  0  0  # atno 8008 bound_to 7997
  155.1620  140.3283  155.4391 H   0  0  0  0  0  0  0  0  0  0  0  0  # atno 8009 bound_to 7997
  156.2498  140.1929  156.6727 H   0  0  0  0  0  0  0  0  0  0  0  0  # atno 8010 bound_to 7997
  140.6789  143.6833  150.8087 H   0  0  0  0  0  0  0  0  0  0  0  0  # atno 10167 bound_to 10162
  156.0563  130.4276  150.1841 H   0  0  0  0  0  0  0  0  0  0  0  0  # atno 10718 bound_to 10713
  153.5888  135.7003  153.5432 H   0  0  0  0  0  0  0  0  0  0  0  0  # atno 10763 bound_to 10752
  153.3196  135.4078  155.1405 H   0  0  0  0  0  0  0  0  0  0  0  0  # atno 10764 bound_to 10752
  154.8604  135.3692  154.5419 H   0  0  0  0  0  0  0  0  0  0  0  0  # atno 10765 bound_to 10752
  141.1186  133.8563  157.1367 H   0  0  0  0  0  0  0  0  0  0  0  0  # atno 11005 bound_to 11000
  144.7037  140.3762  143.7135 LP  0  0  0  0  0  0  0  0  0  0  0  0  # atno 17320 bound_to 7965
  145.7016  139.1662  143.2589 LP  0  0  0  0  0  0  0  0  0  0  0  0  # atno 17321 bound_to 7965
  140.0530  143.5230  152.2664 LP  0  0  0  0  0  0  0  0  0  0  0  0  # atno 17342 bound_to 10162
  139.6099  144.7606  151.2976 LP  0  0  0  0  0  0  0  0  0  0  0  0  # atno 17343 bound_to 10162
  156.9917  130.9895  151.3413 LP  0  0  0  0  0  0  0  0  0  0  0  0  # atno 17370 bound_to 10713
  157.5535  130.8198  149.8174 LP  0  0  0  0  0  0  0  0  0  0  0  0  # atno 17371 bound_to 10713
  140.0127  134.9981  157.0428 LP  0  0  0  0  0  0  0  0  0  0  0  0  # atno 17394 bound_to 11000
  140.4572  134.1521  155.7187 LP  0  0  0  0  0  0  0  0  0  0  0  0  # atno 17395 bound_to 11000

$$$$
