AV-unprocessed.smi:2988|AV-procd|sdf|11388|dock9
  -GOLD-   2272016313D 1   1.00000     0.00000
 Structure written by MMmdl.
 37 38  0  0  0  0  0  0  0  0  1 V2000
  151.9200  140.7560  157.5351 C   0  0  0  0  0  0  0  0  0  0  0  0
  150.9892  140.3036  156.3965 C   0  0  1  0  0  0  0  0  0  0  0  0
  151.6911  139.2931  155.4634 C   0  0  0  0  0  0  0  0  0  0  0  0
  150.7823  138.8725  154.2970 C   0  0  0  0  0  0  0  0  0  0  0  0
  149.4420  138.3166  154.8012 C   0  0  0  0  0  0  0  0  0  0  0  0
  148.7382  139.3196  155.7324 C   0  0  0  0  0  0  0  0  0  0  0  0
  149.6391  139.7459  156.9118 C   0  0  1  0  0  0  0  0  0  0  0  0
  149.8648  138.6219  157.8156 N   0  0  0  0  0  0  0  0  0  0  0  0
  148.9309  137.9148  158.4722 C   0  0  0  0  0  0  0  0  0  0  0  0
  147.7298  138.1741  158.4135 O   0  0  0  0  0  0  0  0  0  0  0  0
  149.4075  136.7212  159.3198 C   0  0  0  0  0  0  0  0  0  0  0  0
  148.3438  136.0643  160.1002 N   0  0  0  0  0  0  0  0  0  0  0  0
  147.8032  136.8594  161.0958 N   0  0  0  0  0  0  0  0  0  0  0  0
  146.9080  136.3699  161.8827 C   0  0  0  0  0  0  0  0  0  0  0  0
  146.4388  135.0072  161.7623 C   0  0  0  0  0  0  0  0  0  0  0  0
  145.2424  134.4028  162.8533 Cl  0  0  0  0  0  0  0  0  0  0  0  0
  146.9659  134.2399  160.7753 C   0  0  0  0  0  0  0  0  0  0  0  0
  146.4597  132.5979  160.5724 Cl  0  0  0  0  0  0  0  0  0  0  0  0
  147.9846  134.7657  159.8566 C   0  0  0  0  0  0  0  0  0  0  0  0
  148.4938  134.0991  158.9549 O   0  0  0  0  0  0  0  0  0  0  0  0
  152.2383  139.9177  158.1559 H   0  0  0  0  0  0  0  0  0  0  0  0
  151.4243  141.4807  158.1816 H   0  0  0  0  0  0  0  0  0  0  0  0
  152.8183  141.2300  157.1389 H   0  0  0  0  0  0  0  0  0  0  0  0
  150.7648  141.1910  155.8028 H   0  0  0  0  0  0  0  0  0  0  0  0
  152.6093  139.7281  155.0676 H   0  0  0  0  0  0  0  0  0  0  0  0
  151.9919  138.4089  156.0273 H   0  0  0  0  0  0  0  0  0  0  0  0
  150.5997  139.7313  153.6496 H   0  0  0  0  0  0  0  0  0  0  0  0
  151.2869  138.1254  153.6838 H   0  0  0  0  0  0  0  0  0  0  0  0
  148.7965  138.0811  153.9546 H   0  0  0  0  0  0  0  0  0  0  0  0
  149.6100  137.3763  155.3278 H   0  0  0  0  0  0  0  0  0  0  0  0
  148.4585  140.2037  155.1583 H   0  0  0  0  0  0  0  0  0  0  0  0
  147.8043  138.8927  156.1000 H   0  0  0  0  0  0  0  0  0  0  0  0
  149.1322  140.5371  157.4676 H   0  0  0  0  0  0  0  0  0  0  0  0
  150.8256  138.3340  157.9318 H   0  0  0  0  0  0  0  0  0  0  0  0
  149.8768  135.9998  158.6485 H   0  0  0  0  0  0  0  0  0  0  0  0
  150.2058  137.0588  159.9831 H   0  0  0  0  0  0  0  0  0  0  0  0
  146.4573  136.9566  162.6835 H   0  0  0  0  0  0  0  0  0  0  0  0
  1  2  1  0  0  0  0
  1 21  1  0  0  0  0
  1 22  1  0  0  0  0
  1 23  1  0  0  0  0
  2  7  1  0  0  0  0
  2  3  1  0  0  0  0
  2 24  1  0  0  0  0
  3  4  1  0  0  0  0
  3 25  1  0  0  0  0
  3 26  1  0  0  0  0
  4  5  1  0  0  0  0
  4 27  1  0  0  0  0
  4 28  1  0  0  0  0
  5  6  1  0  0  0  0
  5 29  1  0  0  0  0
  5 30  1  0  0  0  0
  6  7  1  0  0  0  0
  6 31  1  0  0  0  0
  6 32  1  0  0  0  0
  7  8  1  0  0  0  0
  7 33  1  0  0  0  0
  8  9  1  0  0  0  0
  8 34  1  0  0  0  0
  9 10  2  0  0  0  0
  9 11  1  0  0  0  0
 11 12  1  0  0  0  0
 11 35  1  0  0  0  0
 11 36  1  0  0  0  0
 12 19  1  0  0  0  0
 12 13  1  0  0  0  0
 13 14  2  0  0  0  0
 14 15  1  0  0  0  0
 14 37  1  0  0  0  0
 15 16  1  0  0  0  0
 15 17  2  0  0  0  0
 17 18  1  0  0  0  0
 17 19  1  0  0  0  0
 19 20  2  0  0  0  0
M  END
> <s_m_source_file>
AV-unprocessed.smi

> <i_m_source_file_index>
2988

> <i_lp_mmshare_version>
43012

> <i_f3d_flags>
0

> <s_epik_input>
W0NIM11bQ0BASF0xW0NIMl1bQ0gyXVtDSDJdW0NIMl1bQ0BIXTFbTkhdQyg9TylbQ0gyXW4ybltjSF1jKENsKWMoQ2wpYzI9Tw==

> <s_epik_cmdline>
J2VwaWtfcHl0aG9uJywgJy1waCcsICc3LjAnLCAnLXRuJywgJzgnLCAnLW1hJywgJzIwMCcsICctbWV0YWxfYmluZGluZycsICctaW1hZScsICc8aW5maWxlLm1hZT4nLCAnLW9tYWUnLCAnPG91dGZpbGUubWFlPic=

> <r_lp_tautomer_probability>
1

> <r_epik_Ionization_Penalty>
1.90782e-08

> <r_epik_Ionization_Penalty_Charging>
3.13143e-11

> <r_epik_Ionization_Penalty_Neutral>
1.90469e-08

> <r_epik_State_Penalty>
-0

> <r_epik_Charging_Adjusted_Penalty>
3.13143e-11

> <i_epik_Tot_Q>
0

> <i_epik_Tot_abs_Q>
0

> <r_epik_Metal_State_Penalty>
-0

> <b_epik_Metal_Only>
0

> <s_lp_Force_Field>
OPLS_2005

> <r_lp_Energy>
22.2561

> <b_lp_Chiralities_Consistent>
1

> <s_lp_Variant>
AV-unprocessed.smi:2988-2

> <Gold.Version>
5.8.1

> <Gold.Id.Protein>
6NUR|6NUR_protein|mol2

> <Gold.PLP.Fitness>
40.4279

> <Gold.PLP.PLP>
-31.9659

> <Gold.PLP.part.hbond>
-3.4465

> <Gold.PLP.part.metal>
0.0000

> <Gold.PLP.part.buried>
-3.6797

> <Gold.PLP.part.nonpolar>
-25.1162

> <Gold.PLP.part.repulsive>
0.1004

> <Gold.PLP.ligand.clash>
0.0000

> <Gold.PLP.ligand.torsion>
0.0564

> <Gold.PLP.Chemscore.Hbond>
2.8560

> <Gold.PLP.Chemscore.CHOScore>
0.0000

> <Gold.PLP.Chemscore.Metal>
0.0000

> <Gold.Chemscore.Hbonds>
donor molecule, donor type, donor heavy atom, donor atom, acceptor molecule, acceptor atom, score
      P1  H  6896  6907       L1    20  0.62
      P1  H  6931  6943       L1    13  1.00
      P1  H  6934  6947       L1    13  0.38

> <Gold.PLP.Chemscore.Internal.Correction>
0.0068

> <Gold.Rescore>
     Score         DG    S(hbond)    S(metal)    S(lipo)     H(rot)  DE(clash)    DE(int)     intcor
     16.20     -16.87       1.80        0.00      78.67       1.50       0.49       0.18       ----

> <Gold.Chemscore.Fitness>
16.2019

> <Gold.Chemscore.DG>
-16.8675

> <Gold.Chemscore.ZeroCoef>
-5.4800

> <Gold.Chemscore.Hbond>
1.8015

> <Gold.Chemscore.Metal>
0.0000

> <Gold.Chemscore.Lipo>
78.6711

> <Gold.Chemscore.Internal_Hbond>
0.0000

> <Gold.Chemscore.DEClash>
0.4874

> <Gold.Chemscore.DEInternal>
0.1783

> <Gold.Chemscore.Rot>
1.4977

> <Gold.Chemscore.Internal.Correction>
   9.000000E+99

> <Gold.Chemscore.Hbonds>
donor molecule, donor type, donor heavy atom, donor atom, acceptor molecule, acceptor atom, score
      P1  H  6896  6907       L1    20  0.25
      P1  H  6931  6943       L1    13  0.78
      P1  H  6934  6947       L1    13  0.15

> <Gold.Chemscore.Hbond.Weighted>
-6.0171

> <Gold.Chemscore.Metal.Weighted>
-0.0000

> <Gold.Chemscore.Lipo.Weighted>
-9.2045

> <Gold.Chemscore.Internal_Hbond.Weighted>
0.0000

> <Gold.Chemscore.DEClash.Weighted>
0.4874

> <Gold.Chemscore.DEInternal.Weighted>
0.1783

> <Gold.Chemscore.Rot.Weighted>
3.8341

> <Gold.Chemscore.Internal.Correction.Weighted>
   9.000000E+99

> <Gold.Protein.RotatedTorsions>
[ 6907 6896 6895 6894 ] final  -92.03 input  -60.11 | X-H torsion
[ 7974 7965 7964 7962 ] final  -75.91 input  175.53 | X-H torsion
[ 8008 7997 7996 7995 ] final   25.81 input   59.86 | X-H torsion
[ 10167 10162 10161 10158 ] final   65.73 input  -65.29 | X-H torsion
[ 10718 10713 10712 10709 ] final  174.17 input   66.30 | X-H torsion
[ 10763 10752 10751 10750 ] final -174.14 input  -60.55 | X-H torsion
[ 11005 11000 10999 10996 ] final  -86.03 input  -57.11 | X-H torsion

> <Gold.Protein.ActiveResidues>
 VAL166  LYS551  ARG553  GLY616  TRP617  ASP618  TYR619  PRO620  LYS621  CYS622 
 ASP623  PHE694  ASN695  SER759  ASP760  ASP761  ALA762  ILE779  LEU786  VAL792 
 PHE793  MET794  SER795  GLU796  ALA797  LYS798  CYS799  TRP800  GLU811  SER814 

> <Gold.Protein.RotatedAtoms>
  150.6900  134.2185  159.4387 H   0  0  0  0  0  0  0  0  0  0  0  0  # atno 6907 bound_to 6896
  152.0143  134.9856  160.0578 H   0  0  0  0  0  0  0  0  0  0  0  0  # atno 6908 bound_to 6896
  152.1459  133.4457  159.4826 H   0  0  0  0  0  0  0  0  0  0  0  0  # atno 6909 bound_to 6896
  145.6199  140.9366  143.1144 H   0  0  0  0  0  0  0  0  0  0  0  0  # atno 7974 bound_to 7965
  155.0175  140.3144  155.4806 H   0  0  0  0  0  0  0  0  0  0  0  0  # atno 8008 bound_to 7997
  156.2898  140.2203  156.5234 H   0  0  0  0  0  0  0  0  0  0  0  0  # atno 8009 bound_to 7997
  154.7480  140.0468  157.0857 H   0  0  0  0  0  0  0  0  0  0  0  0  # atno 8010 bound_to 7997
  140.1081  144.4843  150.6995 H   0  0  0  0  0  0  0  0  0  0  0  0  # atno 10167 bound_to 10162
  156.9535  131.0038  151.2943 H   0  0  0  0  0  0  0  0  0  0  0  0  # atno 10718 bound_to 10713
  154.5997  135.2853  155.0548 H   0  0  0  0  0  0  0  0  0  0  0  0  # atno 10763 bound_to 10752
  154.1818  135.6455  153.5040 H   0  0  0  0  0  0  0  0  0  0  0  0  # atno 10764 bound_to 10752
  153.0152  135.5425  154.6712 H   0  0  0  0  0  0  0  0  0  0  0  0  # atno 10765 bound_to 10752
  141.1635  133.7432  156.9102 H   0  0  0  0  0  0  0  0  0  0  0  0  # atno 11005 bound_to 11000
  144.7235  139.7950  143.7373 LP  0  0  0  0  0  0  0  0  0  0  0  0  # atno 17320 bound_to 7965
  146.1439  139.4504  143.0091 LP  0  0  0  0  0  0  0  0  0  0  0  0  # atno 17321 bound_to 7965
  140.6941  143.2393  151.5050 LP  0  0  0  0  0  0  0  0  0  0  0  0  # atno 17342 bound_to 10162
  139.5634  144.2100  152.1727 LP  0  0  0  0  0  0  0  0  0  0  0  0  # atno 17343 bound_to 10162
  157.5706  130.8308  149.8386 LP  0  0  0  0  0  0  0  0  0  0  0  0  # atno 17370 bound_to 10713
  156.0352  130.3753  150.1579 LP  0  0  0  0  0  0  0  0  0  0  0  0  # atno 17371 bound_to 10713
  140.1522  134.9222  157.2607 LP  0  0  0  0  0  0  0  0  0  0  0  0  # atno 17394 bound_to 11000
  140.2709  134.3461  155.7374 LP  0  0  0  0  0  0  0  0  0  0  0  0  # atno 17395 bound_to 11000

$$$$
