AV-unprocessed.smi:1863|AV-procd|sdf|7551|dock5
  -GOLD-   22720 9263D 1   1.00000     0.00000
 Structure written by MMmdl.
 37 38  0  0  0  0  0  0  0  0  1 V2000
  152.1287  145.3002  158.2791 C   0  0  0  0  0  0  0  0  0  0  0  0
  151.9438  143.7785  158.2023 C   0  0  1  0  0  0  0  0  0  0  0  0
  151.4520  143.2105  159.5539 C   0  0  0  0  0  0  0  0  0  0  0  0
  152.4864  142.4520  160.2557 N   0  0  0  0  0  0  0  0  0  0  0  0
  153.1947  141.3708  159.5902 C   0  0  0  0  0  0  0  0  0  0  0  0
  154.3697  141.0405  160.5205 C   0  0  0  0  0  0  0  0  0  0  0  0
  154.0137  141.6709  161.8709 C   0  0  0  0  0  0  0  0  0  0  0  0
  152.8839  142.6251  161.5221 C   0  0  0  0  0  0  0  0  0  0  0  0
  152.4274  143.4409  162.3217 O   0  0  0  0  0  0  0  0  0  0  0  0
  150.9824  143.4842  157.1407 N   0  0  0  0  0  0  0  0  0  0  0  0
  150.7720  142.2794  156.5901 C   0  0  0  0  0  0  0  0  0  0  0  0
  151.3868  141.2647  156.9175 O   0  0  0  0  0  0  0  0  0  0  0  0
  149.7921  142.3315  155.6721 N   0  0  0  0  0  0  0  0  0  0  0  0
  149.2444  141.2698  154.9025 C   0  0  0  0  0  0  0  0  0  0  0  0
  148.0507  141.3650  154.1468 C   0  0  0  0  0  0  0  0  0  0  0  0
  147.6033  140.2334  153.4379 C   0  0  0  0  0  0  0  0  0  0  0  0
  148.3597  139.0479  153.5160 C   0  0  0  0  0  0  0  0  0  0  0  0
  149.4915  138.9391  154.2432 N   0  0  0  0  0  0  0  0  0  0  0  0
  149.9137  140.0278  154.9206 C   0  0  0  0  0  0  0  0  0  0  0  0
  152.8626  145.5675  159.0400 H   0  0  0  0  0  0  0  0  0  0  0  0
  151.1936  145.8036  158.5277 H   0  0  0  0  0  0  0  0  0  0  0  0
  152.4822  145.7020  157.3290 H   0  0  0  0  0  0  0  0  0  0  0  0
  152.9167  143.3514  157.9536 H   0  0  0  0  0  0  0  0  0  0  0  0
  151.1376  144.0278  160.2051 H   0  0  0  0  0  0  0  0  0  0  0  0
  150.5679  142.5881  159.4074 H   0  0  0  0  0  0  0  0  0  0  0  0
  152.5251  140.5160  159.4868 H   0  0  0  0  0  0  0  0  0  0  0  0
  153.5350  141.6611  158.5955 H   0  0  0  0  0  0  0  0  0  0  0  0
  154.5372  139.9660  160.5984 H   0  0  0  0  0  0  0  0  0  0  0  0
  155.2862  141.4901  160.1357 H   0  0  0  0  0  0  0  0  0  0  0  0
  153.6513  140.9236  162.5775 H   0  0  0  0  0  0  0  0  0  0  0  0
  154.8587  142.1970  162.3157 H   0  0  0  0  0  0  0  0  0  0  0  0
  150.4251  144.2582  156.8099 H   0  0  0  0  0  0  0  0  0  0  0  0
  149.3322  143.2238  155.5657 H   0  0  0  0  0  0  0  0  0  0  0  0
  147.4651  142.2700  154.1077 H   0  0  0  0  0  0  0  0  0  0  0  0
  146.6974  140.2724  152.8512 H   0  0  0  0  0  0  0  0  0  0  0  0
  148.0437  138.1618  152.9857 H   0  0  0  0  0  0  0  0  0  0  0  0
  150.8210  139.9028  155.4939 H   0  0  0  0  0  0  0  0  0  0  0  0
  1  2  1  0  0  0  0
  1 20  1  0  0  0  0
  1 21  1  0  0  0  0
  1 22  1  0  0  0  0
  2  3  1  0  0  0  0
  2 10  1  0  0  0  0
  2 23  1  0  0  0  0
  3  4  1  0  0  0  0
  3 24  1  0  0  0  0
  3 25  1  0  0  0  0
  4  8  1  0  0  0  0
  4  5  1  0  0  0  0
  5  6  1  0  0  0  0
  5 26  1  0  0  0  0
  5 27  1  0  0  0  0
  6  7  1  0  0  0  0
  6 28  1  0  0  0  0
  6 29  1  0  0  0  0
  7  8  1  0  0  0  0
  7 30  1  0  0  0  0
  7 31  1  0  0  0  0
  8  9  2  0  0  0  0
 10 11  1  0  0  0  0
 10 32  1  0  0  0  0
 11 12  2  0  0  0  0
 11 13  1  0  0  0  0
 13 14  1  0  0  0  0
 13 33  1  0  0  0  0
 14 19  1  0  0  0  0
 14 15  2  0  0  0  0
 15 16  1  0  0  0  0
 15 34  1  0  0  0  0
 16 17  2  0  0  0  0
 16 35  1  0  0  0  0
 17 18  1  0  0  0  0
 17 36  1  0  0  0  0
 18 19  2  0  0  0  0
 19 37  1  0  0  0  0
M  END
> <s_m_source_file>
AV-unprocessed.smi

> <i_m_source_file_index>
1863

> <i_lp_mmshare_version>
43012

> <i_f3d_flags>
0

> <s_epik_input>
Tz1DMVtDSDJdW0NIMl1bQ0gyXU4xW0NIMl1bQ0BASF0oW0NIM10pW05IXUMoPU8pW05IXWMyW2NIXVtjSF1bY0hdbltjSF0y

> <s_epik_cmdline>
J2VwaWtfcHl0aG9uJywgJy1waCcsICc3LjAnLCAnLXRuJywgJzgnLCAnLW1hJywgJzIwMCcsICctbWV0YWxfYmluZGluZycsICctaW1hZScsICc8aW5maWxlLm1hZT4nLCAnLW9tYWUnLCAnPG91dGZpbGUubWFlPic=

> <r_epik_Ionization_Penalty>
0.0047799

> <r_epik_Ionization_Penalty_Charging>
0

> <r_epik_Ionization_Penalty_Neutral>
0.0047799

> <r_epik_State_Penalty>
0.0034394

> <r_epik_Charging_Adjusted_Penalty>
0.0034394

> <i_epik_Tot_Q>
0

> <i_epik_Tot_abs_Q>
0

> <r_epik_Metal_State_Penalty>
-0

> <b_epik_Metal_Only>
0

> <s_lp_Force_Field>
OPLS_2005

> <r_lp_Energy>
21.1293

> <b_lp_Chiralities_Consistent>
1

> <s_lp_Variant>
AV-unprocessed.smi:1863-2

> <Gold.Version>
5.8.1

> <Gold.Id.Protein>
6NUR|6NUR_protein|mol2

> <Gold.PLP.Fitness>
50.5133

> <Gold.PLP.PLP>
-43.7250

> <Gold.PLP.part.hbond>
-2.0000

> <Gold.PLP.part.metal>
0.0000

> <Gold.PLP.part.buried>
-4.3909

> <Gold.PLP.part.nonpolar>
-38.5718

> <Gold.PLP.part.repulsive>
0.5497

> <Gold.PLP.ligand.clash>
0.0000

> <Gold.PLP.ligand.torsion>
0.9310

> <Gold.PLP.Chemscore.Hbond>
1.8800

> <Gold.PLP.Chemscore.CHOScore>
0.9980

> <Gold.PLP.Chemscore.Metal>
0.0000

> <Gold.Chemscore.Hbonds>
donor molecule, donor type, donor heavy atom, donor atom, acceptor molecule, acceptor atom, score
      L1  H    10    32       P1  8028  0.90
      L1  H    13    33       P1  8028  1.00
      L1  C    17    36       P1  7948  1.00

> <Gold.PLP.Chemscore.Internal.Correction>
0.0164

> <Gold.Rescore>
     Score         DG    S(hbond)    S(metal)    S(lipo)     H(rot)  DE(clash)    DE(int)     intcor
     16.07     -18.77       1.70        0.00      98.71       1.54       0.37       2.34       ----

> <Gold.Chemscore.Fitness>
16.0667

> <Gold.Chemscore.DG>
-18.7702

> <Gold.Chemscore.ZeroCoef>
-5.4800

> <Gold.Chemscore.Hbond>
1.7038

> <Gold.Chemscore.Metal>
0.0000

> <Gold.Chemscore.Lipo>
98.7112

> <Gold.Chemscore.Internal_Hbond>
0.0000

> <Gold.Chemscore.DEClash>
0.3658

> <Gold.Chemscore.DEInternal>
2.3377

> <Gold.Chemscore.Rot>
1.5428

> <Gold.Chemscore.Internal.Correction>
   9.000000E+99

> <Gold.Chemscore.Hbonds>
donor molecule, donor type, donor heavy atom, donor atom, acceptor molecule, acceptor atom, score
      L1  H    10    32       P1  8028  0.85
      L1  H    13    33       P1  8028  0.96

> <Gold.Chemscore.Hbond.Weighted>
-5.6907

> <Gold.Chemscore.Metal.Weighted>
-0.0000

> <Gold.Chemscore.Lipo.Weighted>
-11.5492

> <Gold.Chemscore.Internal_Hbond.Weighted>
0.0000

> <Gold.Chemscore.DEClash.Weighted>
0.3658

> <Gold.Chemscore.DEInternal.Weighted>
2.3377

> <Gold.Chemscore.Rot.Weighted>
3.9497

> <Gold.Chemscore.Internal.Correction.Weighted>
   9.000000E+99

> <Gold.Protein.RotatedTorsions>
[ 6907 6896 6895 6894 ] final  100.67 input  -60.11 | X-H torsion
[ 7974 7965 7964 7962 ] final  -66.33 input  175.53 | X-H torsion
[ 8008 7997 7996 7995 ] final  -32.10 input   59.86 | X-H torsion
[ 10167 10162 10161 10158 ] final  -39.24 input  -65.29 | X-H torsion
[ 10718 10713 10712 10709 ] final   86.67 input   66.30 | X-H torsion
[ 10763 10752 10751 10750 ] final   42.53 input  -60.55 | X-H torsion
[ 11005 11000 10999 10996 ] final  -45.90 input  -57.11 | X-H torsion

> <Gold.Protein.ActiveResidues>
 VAL166  LYS551  ARG553  GLY616  TRP617  ASP618  TYR619  PRO620  LYS621  CYS622 
 ASP623  PHE694  ASN695  SER759  ASP760  ASP761  ALA762  ILE779  LEU786  VAL792 
 PHE793  MET794  SER795  GLU796  ALA797  LYS798  CYS799  TRP800  GLU811  SER814 

> <Gold.Protein.RotatedAtoms>
  152.5367  134.0242  159.7995 H   0  0  0  0  0  0  0  0  0  0  0  0  # atno 6907 bound_to 6896
  151.0423  133.5687  159.2657 H   0  0  0  0  0  0  0  0  0  0  0  0  # atno 6908 bound_to 6896
  151.2652  135.0674  159.9167 H   0  0  0  0  0  0  0  0  0  0  0  0  # atno 6909 bound_to 6896
  145.7431  140.8944  143.0519 H   0  0  0  0  0  0  0  0  0  0  0  0  # atno 7974 bound_to 7965
  154.4191  140.1746  156.1672 H   0  0  0  0  0  0  0  0  0  0  0  0  # atno 8008 bound_to 7997
  155.9789  140.3379  155.6621 H   0  0  0  0  0  0  0  0  0  0  0  0  # atno 8009 bound_to 7997
  155.6526  140.0692  157.2572 H   0  0  0  0  0  0  0  0  0  0  0  0  # atno 8010 bound_to 7997
  140.7070  143.3227  151.2754 H   0  0  0  0  0  0  0  0  0  0  0  0  # atno 10167 bound_to 10162
  157.6931  131.0225  150.3008 H   0  0  0  0  0  0  0  0  0  0  0  0  # atno 10718 bound_to 10713
  152.9881  135.6129  154.2963 H   0  0  0  0  0  0  0  0  0  0  0  0  # atno 10763 bound_to 10752
  154.2686  135.2780  155.2749 H   0  0  0  0  0  0  0  0  0  0  0  0  # atno 10764 bound_to 10752
  154.5142  135.5832  153.6686 H   0  0  0  0  0  0  0  0  0  0  0  0  # atno 10765 bound_to 10752
  141.0545  133.6731  156.3079 H   0  0  0  0  0  0  0  0  0  0  0  0  # atno 11005 bound_to 11000
  144.6866  139.9488  143.7477 LP  0  0  0  0  0  0  0  0  0  0  0  0  # atno 17320 bound_to 7965
  146.0429  139.3438  143.0686 LP  0  0  0  0  0  0  0  0  0  0  0  0  # atno 17321 bound_to 7965
  139.6685  144.0062  152.2738 LP  0  0  0  0  0  0  0  0  0  0  0  0  # atno 17342 bound_to 10162
  139.9652  144.6531  150.8041 LP  0  0  0  0  0  0  0  0  0  0  0  0  # atno 17343 bound_to 10162
  156.3524  130.3833  149.7318 LP  0  0  0  0  0  0  0  0  0  0  0  0  # atno 17370 bound_to 10713
  156.4792  130.8033  151.3048 LP  0  0  0  0  0  0  0  0  0  0  0  0  # atno 17371 bound_to 10713
  140.5991  134.5573  157.5514 LP  0  0  0  0  0  0  0  0  0  0  0  0  # atno 17394 bound_to 11000
  139.9378  134.7842  156.0756 LP  0  0  0  0  0  0  0  0  0  0  0  0  # atno 17395 bound_to 11000

$$$$
