AV-unprocessed.smi:1703|AV-procd|sdf|6874|dock8
  -GOLD-   22720 8 73D 1   1.00000     0.00000
 Structure written by MMmdl.
 50 52  0  0  0  0  0  0  0  0  3 V2000
  148.2093  141.5524  153.9570 C   0  0  0  0  0  0  0  0  0  0  0  0
  148.7458  140.2150  154.4787 C   0  0  1  0  0  0  0  0  0  0  0  0
  148.5420  139.0732  153.4628 C   0  0  0  0  0  0  0  0  0  0  0  0
  149.1373  137.8056  153.9510 N   0  3  2  0  0  0  0  0  0  0  0  0
  148.3135  137.1154  154.9797 C   0  0  0  0  0  0  0  0  0  0  0  0
  146.9794  136.5901  154.4073 C   0  0  2  0  0  0  0  0  0  0  0  0
  145.9201  137.3565  154.9424 O   0  0  0  0  0  0  0  0  0  0  0  0
  146.6977  135.1093  154.7337 C   0  0  0  0  0  0  0  0  0  0  0  0
  147.0065  134.2047  153.6138 N   0  0  0  0  0  0  0  0  0  0  0  0
  148.1426  133.4949  153.3504 C   0  0  0  0  0  0  0  0  0  0  0  0
  149.3976  133.4667  154.1592 C   0  0  0  0  0  0  0  0  0  0  0  0
  150.0105  134.7341  154.2377 O   0  0  0  0  0  0  0  0  0  0  0  0
  147.9349  132.8154  152.1881 N   0  3  0  0  0  0  0  0  0  0  0  0
  146.6590  133.0938  151.6983 C   0  0  0  0  0  0  0  0  0  0  0  0
  146.0053  132.6417  150.5563 C   0  0  0  0  0  0  0  0  0  0  0  0
  144.6978  133.1242  150.3426 C   0  0  0  0  0  0  0  0  0  0  0  0
  144.0897  134.0200  151.2459 C   0  0  0  0  0  0  0  0  0  0  0  0
  144.7622  134.4710  152.4011 C   0  0  0  0  0  0  0  0  0  0  0  0
  146.0562  133.9898  152.6060 C   0  0  0  0  0  0  0  0  0  0  0  0
  150.5595  138.0113  154.3283 C   0  0  0  0  0  0  0  0  0  0  0  0
  150.7293  139.2012  155.2988 C   0  0  1  0  0  0  0  0  0  0  0  0
  152.2049  139.5056  155.5789 C   0  0  0  0  0  0  0  0  0  0  0  0
  150.1394  140.3642  154.7276 O   0  0  0  0  0  0  0  0  0  0  0  0
  147.1407  141.4931  153.7490 H   0  0  0  0  0  0  0  0  0  0  0  0
  148.7134  141.8480  153.0363 H   0  0  0  0  0  0  0  0  0  0  0  0
  148.3612  142.3463  154.6890 H   0  0  0  0  0  0  0  0  0  0  0  0
  148.2345  139.9811  155.4142 H   0  0  0  0  0  0  0  0  0  0  0  0
  147.4842  138.9361  153.2347 H   0  0  0  0  0  0  0  0  0  0  0  0
  149.0247  139.3347  152.5198 H   0  0  0  0  0  0  0  0  0  0  0  0
  148.8930  136.3048  155.4187 H   0  0  0  0  0  0  0  0  0  0  0  0
  148.0899  137.8005  155.7989 H   0  0  0  0  0  0  0  0  0  0  0  0
  146.9604  136.7136  153.3254 H   0  0  0  0  0  0  0  0  0  0  0  0
  145.1035  136.9120  154.7713 H   0  0  0  0  0  0  0  0  0  0  0  0
  147.2412  134.7896  155.6226 H   0  0  0  0  0  0  0  0  0  0  0  0
  145.6403  134.9755  154.9669 H   0  0  0  0  0  0  0  0  0  0  0  0
  149.1877  133.1085  155.1665 H   0  0  0  0  0  0  0  0  0  0  0  0
  150.0984  132.7626  153.7098 H   0  0  0  0  0  0  0  0  0  0  0  0
  149.5142  135.3433  153.7124 H   0  0  0  0  0  0  0  0  0  0  0  0
  146.4700  131.9570  149.8615 H   0  0  0  0  0  0  0  0  0  0  0  0
  144.1515  132.8025  149.4675 H   0  0  0  0  0  0  0  0  0  0  0  0
  143.0870  134.3699  151.0470 H   0  0  0  0  0  0  0  0  0  0  0  0
  144.2812  135.1570  153.0819 H   0  0  0  0  0  0  0  0  0  0  0  0
  150.9877  137.1052  154.7551 H   0  0  0  0  0  0  0  0  0  0  0  0
  151.1206  138.2091  153.4140 H   0  0  0  0  0  0  0  0  0  0  0  0
  150.2429  138.9867  156.2514 H   0  0  0  0  0  0  0  0  0  0  0  0
  152.7034  138.6490  156.0337 H   0  0  0  0  0  0  0  0  0  0  0  0
  152.3065  140.3495  156.2617 H   0  0  0  0  0  0  0  0  0  0  0  0
  152.7385  139.7549  154.6611 H   0  0  0  0  0  0  0  0  0  0  0  0
  149.1369  137.1793  153.1578 H   0  0  0  0  0  0  0  0  0  0  0  0
  148.6247  132.2125  151.7574 H   0  0  0  0  0  0  0  0  0  0  0  0
  1  2  1  0  0  0  0
  1 24  1  0  0  0  0
  1 25  1  0  0  0  0
  1 26  1  0  0  0  0
  2 23  1  0  0  0  0
  2  3  1  0  0  0  0
  2 27  1  0  0  0  0
  3  4  1  0  0  0  0
  3 28  1  0  0  0  0
  3 29  1  0  0  0  0
  4  5  1  0  0  0  0
  4 20  1  0  0  0  0
  4 49  1  0  0  0  0
  5  6  1  0  0  0  0
  5 30  1  0  0  0  0
  5 31  1  0  0  0  0
  6  7  1  0  0  0  0
  6  8  1  0  0  0  0
  6 32  1  0  0  0  0
  7 33  1  0  0  0  0
  8  9  1  0  0  0  0
  8 34  1  0  0  0  0
  8 35  1  0  0  0  0
  9 19  1  0  0  0  0
  9 10  1  0  0  0  0
 10 11  1  0  0  0  0
 10 13  2  0  0  0  0
 11 12  1  0  0  0  0
 11 36  1  0  0  0  0
 11 37  1  0  0  0  0
 12 38  1  0  0  0  0
 13 14  1  0  0  0  0
 13 50  1  0  0  0  0
 14 19  2  0  0  0  0
 14 15  1  0  0  0  0
 15 16  2  0  0  0  0
 15 39  1  0  0  0  0
 16 17  1  0  0  0  0
 16 40  1  0  0  0  0
 17 18  2  0  0  0  0
 17 41  1  0  0  0  0
 18 19  1  0  0  0  0
 18 42  1  0  0  0  0
 20 21  1  0  0  0  0
 20 43  1  0  0  0  0
 20 44  1  0  0  0  0
 21 22  1  0  0  0  0
 21 23  1  0  0  0  0
 21 45  1  0  0  0  0
 22 46  1  0  0  0  0
 22 47  1  0  0  0  0
 22 48  1  0  0  0  0
M  CHG  1   4   1
M  CHG  1  13   1
M  END
> <s_m_source_file>
AV-unprocessed.smi

> <i_m_source_file_index>
1703

> <i_lp_mmshare_version>
43012

> <i_f3d_flags>
0

> <s_epik_input>
W0NIM11bQ0BASF0xW0NIMl1OKFtDSDJdW0NASF0oTzEpW0NIM10pW0NIMl1bQ0BIXShbT0hdKVtDSDJdbihjKG4yKVtDSDJdW09IXSljKGMyMylbY0hdW2NIXVtjSF1bY0hdMw==

> <s_epik_cmdline>
J2VwaWtfcHl0aG9uJywgJy1waCcsICc3LjAnLCAnLXRuJywgJzgnLCAnLW1hJywgJzIwMCcsICctbWV0YWxfYmluZGluZycsICctaW1hZScsICc8aW5maWxlLm1hZT4nLCAnLW9tYWUnLCAnPG91dGZpbGUubWFlPic=

> <r_epik_Ionization_Penalty>
2.22579

> <r_epik_Ionization_Penalty_Charging>
2.22492

> <r_epik_Ionization_Penalty_Neutral>
0.000870007

> <r_epik_State_Penalty>
2.3141

> <r_epik_Charging_Adjusted_Penalty>
4.53902

> <i_epik_Tot_Q>
2

> <i_epik_Tot_abs_Q>
2

> <r_epik_Metal_State_Penalty>
6.36517

> <b_epik_Metal_Only>
0

> <s_lp_Force_Field>
OPLS_2005

> <r_lp_Energy>
32.0601

> <b_lp_Chiralities_Consistent>
1

> <s_lp_Variant>
AV-unprocessed.smi:1703-22

> <Gold.Version>
5.8.1

> <Gold.Id.Protein>
6NUR|6NUR_protein|mol2

> <Gold.PLP.Fitness>
47.6971

> <Gold.PLP.PLP>
-36.6502

> <Gold.PLP.part.hbond>
-4.7300

> <Gold.PLP.part.metal>
0.0000

> <Gold.PLP.part.buried>
1.1873

> <Gold.PLP.part.nonpolar>
-33.0557

> <Gold.PLP.part.repulsive>
0.1181

> <Gold.PLP.ligand.clash>
0.0000

> <Gold.PLP.ligand.torsion>
1.7074

> <Gold.PLP.Chemscore.Hbond>
4.8000

> <Gold.PLP.Chemscore.CHOScore>
0.0000

> <Gold.PLP.Chemscore.Metal>
0.0000

> <Gold.Chemscore.Hbonds>
donor molecule, donor type, donor heavy atom, donor atom, acceptor molecule, acceptor atom, score
      L1  H     4    49       P1  7948  2.00
      L1  H    12    38       P1  7948  0.73
      L1  H    13    50       P1 10747  0.93
      P1  H  7989  7998       L1    23  0.95

> <Gold.PLP.Chemscore.Internal.Correction>
0.0617

> <Gold.Rescore>
     Score         DG    S(hbond)    S(metal)    S(lipo)     H(rot)  DE(clash)    DE(int)     intcor
     14.72     -17.57       2.82        0.00      89.22       3.04       1.08       1.77       ----

> <Gold.Chemscore.Fitness>
14.7236

> <Gold.Chemscore.DG>
-17.5701

> <Gold.Chemscore.ZeroCoef>
-5.4800

> <Gold.Chemscore.Hbond>
2.8227

> <Gold.Chemscore.Metal>
0.0000

> <Gold.Chemscore.Lipo>
89.2214

> <Gold.Chemscore.Internal_Hbond>
0.0000

> <Gold.Chemscore.DEClash>
1.0788

> <Gold.Chemscore.DEInternal>
1.7676

> <Gold.Chemscore.Rot>
3.0378

> <Gold.Chemscore.Internal.Correction>
   9.000000E+99

> <Gold.Chemscore.Hbonds>
donor molecule, donor type, donor heavy atom, donor atom, acceptor molecule, acceptor atom, score
      L1  H     4    49       P1  7948  0.98
      L1  H    12    38       P1  7948  0.12
      L1  H    13    50       P1 10747  0.86
      P1  H  7989  7998       L1    23  0.20

> <Gold.Chemscore.Hbond.Weighted>
-9.4279

> <Gold.Chemscore.Metal.Weighted>
-0.0000

> <Gold.Chemscore.Lipo.Weighted>
-10.4389

> <Gold.Chemscore.Internal_Hbond.Weighted>
0.0000

> <Gold.Chemscore.DEClash.Weighted>
1.0788

> <Gold.Chemscore.DEInternal.Weighted>
1.7676

> <Gold.Chemscore.Rot.Weighted>
7.7767

> <Gold.Chemscore.Internal.Correction.Weighted>
   9.000000E+99

> <Gold.Protein.RotatedTorsions>
[ 6907 6896 6895 6894 ] final   37.95 input  -60.11 | X-H torsion
[ 7974 7965 7964 7962 ] final  107.69 input  175.53 | X-H torsion
[ 8008 7997 7996 7995 ] final   -4.96 input   59.86 | X-H torsion
[ 10167 10162 10161 10158 ] final -162.91 input  -65.29 | X-H torsion
[ 10718 10713 10712 10709 ] final  123.71 input   66.30 | X-H torsion
[ 10763 10752 10751 10750 ] final   95.17 input  -60.55 | X-H torsion
[ 11005 11000 10999 10996 ] final -142.92 input  -57.11 | X-H torsion

> <Gold.Protein.ActiveResidues>
 VAL166  LYS551  ARG553  GLY616  TRP617  ASP618  TYR619  PRO620  LYS621  CYS622 
 ASP623  PHE694  ASN695  SER759  ASP760  ASP761  ALA762  ILE779  LEU786  VAL792 
 PHE793  MET794  SER795  GLU796  ALA797  LYS798  CYS799  TRP800  GLU811  SER814 

> <Gold.Protein.RotatedAtoms>
  152.1499  134.8996  160.0548 H   0  0  0  0  0  0  0  0  0  0  0  0  # atno 6907 bound_to 6896
  152.0032  133.3828  159.4198 H   0  0  0  0  0  0  0  0  0  0  0  0  # atno 6908 bound_to 6896
  150.6874  134.3733  159.5045 H   0  0  0  0  0  0  0  0  0  0  0  0  # atno 6909 bound_to 6896
  145.2904  139.2602  143.3868 H   0  0  0  0  0  0  0  0  0  0  0  0  # atno 7974 bound_to 7965
  154.6089  140.2470  155.7695 H   0  0  0  0  0  0  0  0  0  0  0  0  # atno 8008 bound_to 7997
  156.2358  140.2950  156.0259 H   0  0  0  0  0  0  0  0  0  0  0  0  # atno 8009 bound_to 7997
  155.2086  140.0396  157.2920 H   0  0  0  0  0  0  0  0  0  0  0  0  # atno 8010 bound_to 7997
  139.6358  144.0352  152.2053 H   0  0  0  0  0  0  0  0  0  0  0  0  # atno 10167 bound_to 10162
  157.5643  131.1087  150.8482 H   0  0  0  0  0  0  0  0  0  0  0  0  # atno 10718 bound_to 10713
  153.2500  135.4263  155.0788 H   0  0  0  0  0  0  0  0  0  0  0  0  # atno 10763 bound_to 10752
  154.8378  135.3423  154.6526 H   0  0  0  0  0  0  0  0  0  0  0  0  # atno 10764 bound_to 10752
  153.6947  135.7032  153.5136 H   0  0  0  0  0  0  0  0  0  0  0  0  # atno 10765 bound_to 10752
  140.8177  134.2668  157.4914 H   0  0  0  0  0  0  0  0  0  0  0  0  # atno 11005 bound_to 11000
  146.3187  140.3393  142.8646 LP  0  0  0  0  0  0  0  0  0  0  0  0  # atno 17320 bound_to 7965
  144.9178  140.7832  143.5767 LP  0  0  0  0  0  0  0  0  0  0  0  0  # atno 17321 bound_to 7965
  140.0029  144.6280  150.7714 LP  0  0  0  0  0  0  0  0  0  0  0  0  # atno 17342 bound_to 10162
  140.7464  143.2891  151.3380 LP  0  0  0  0  0  0  0  0  0  0  0  0  # atno 17343 bound_to 10162
  156.8971  130.5233  149.5284 LP  0  0  0  0  0  0  0  0  0  0  0  0  # atno 17370 bound_to 10713
  156.0693  130.5729  150.9351 LP  0  0  0  0  0  0  0  0  0  0  0  0  # atno 17371 bound_to 10713
  139.8710  134.9518  156.4096 LP  0  0  0  0  0  0  0  0  0  0  0  0  # atno 17394 bound_to 11000
  140.9132  133.7697  155.9816 LP  0  0  0  0  0  0  0  0  0  0  0  0  # atno 17395 bound_to 11000

$$$$
