AV-unprocessed.smi:1533|AV-procd|sdf|6162|dock10
  -GOLD-   22720 6313D 1   1.00000     0.00000
 Structure written by MMmdl.
 37 39  0  0  0  0  0  0  0  0  1 V2000
  149.9367  134.5524  154.8301 C   0  0  0  0  0  0  0  0  0  0  0  0
  150.3775  135.9743  154.8969 C   0  0  0  0  0  0  0  0  0  0  0  0
  151.6478  136.3143  154.7166 N   0  0  0  0  0  0  0  0  0  0  0  0
  151.6381  137.7057  154.8923 O   0  0  0  0  0  0  0  0  0  0  0  0
  150.3494  138.0370  155.1455 C   0  0  0  0  0  0  0  0  0  0  0  0
  150.0214  139.4558  155.4830 C   0  0  0  0  0  0  0  0  0  0  0  0
  151.2527  140.3807  155.5604 C   0  0  0  0  0  0  0  0  0  0  0  0
  151.1698  141.3301  156.6688 N   0  0  0  0  0  0  0  0  0  0  0  0
  151.9169  141.2939  157.7840 C   0  0  0  0  0  0  0  0  0  0  0  0
  152.8124  140.4682  157.9643 O   0  0  0  0  0  0  0  0  0  0  0  0
  151.5750  142.3375  158.8616 C   0  0  2  0  0  0  0  0  0  0  0  0
  150.5730  143.4223  158.3910 C   0  0  0  0  0  0  0  0  0  0  0  0
  151.3370  144.7385  158.6394 C   0  0  1  0  0  0  0  0  0  0  0  0
  151.4580  144.9797  160.1560 C   0  0  0  0  0  0  0  0  0  0  0  0
  152.4907  143.9201  160.5863 C   0  0  0  0  0  0  0  0  0  0  0  0
  152.8010  143.1958  159.2627 C   0  0  2  0  0  0  0  0  0  0  0  0
  152.7646  144.3568  158.2706 C   0  0  0  0  0  0  0  0  0  0  0  0
  149.5193  136.9963  155.1626 N   0  0  0  0  0  0  0  0  0  0  0  0
  150.6978  133.9302  154.3581 H   0  0  0  0  0  0  0  0  0  0  0  0
  149.0164  134.4681  154.2519 H   0  0  0  0  0  0  0  0  0  0  0  0
  149.7522  134.1709  155.8346 H   0  0  0  0  0  0  0  0  0  0  0  0
  149.3209  139.8363  154.7392 H   0  0  0  0  0  0  0  0  0  0  0  0
  149.4926  139.4682  156.4367 H   0  0  0  0  0  0  0  0  0  0  0  0
  152.1626  139.7830  155.6363 H   0  0  0  0  0  0  0  0  0  0  0  0
  151.3408  140.9478  154.6338 H   0  0  0  0  0  0  0  0  0  0  0  0
  150.4574  142.0426  156.6035 H   0  0  0  0  0  0  0  0  0  0  0  0
  151.1782  141.8167  159.7349 H   0  0  0  0  0  0  0  0  0  0  0  0
  150.3167  143.3269  157.3348 H   0  0  0  0  0  0  0  0  0  0  0  0
  149.6386  143.3842  158.9521 H   0  0  0  0  0  0  0  0  0  0  0  0
  150.9310  145.5899  158.0926 H   0  0  0  0  0  0  0  0  0  0  0  0
  151.8313  145.9837  160.3621 H   0  0  0  0  0  0  0  0  0  0  0  0
  150.5034  144.8648  160.6710 H   0  0  0  0  0  0  0  0  0  0  0  0
  153.3865  144.3983  160.9846 H   0  0  0  0  0  0  0  0  0  0  0  0
  152.1048  143.2464  161.3521 H   0  0  0  0  0  0  0  0  0  0  0  0
  153.7431  142.6469  159.2835 H   0  0  0  0  0  0  0  0  0  0  0  0
  152.8795  144.0593  157.2280 H   0  0  0  0  0  0  0  0  0  0  0  0
  153.4927  145.1387  158.4945 H   0  0  0  0  0  0  0  0  0  0  0  0
  1  2  1  0  0  0  0
  1 19  1  0  0  0  0
  1 20  1  0  0  0  0
  1 21  1  0  0  0  0
  2 18  1  0  0  0  0
  2  3  2  0  0  0  0
  3  4  1  0  0  0  0
  4  5  1  0  0  0  0
  5  6  1  0  0  0  0
  5 18  2  0  0  0  0
  6  7  1  0  0  0  0
  6 22  1  0  0  0  0
  6 23  1  0  0  0  0
  7  8  1  0  0  0  0
  7 24  1  0  0  0  0
  7 25  1  0  0  0  0
  8  9  1  0  0  0  0
  8 26  1  0  0  0  0
  9 10  2  0  0  0  0
  9 11  1  0  0  0  0
 11 16  1  0  0  0  0
 11 12  1  0  0  0  0
 11 27  1  0  0  0  0
 12 13  1  0  0  0  0
 12 28  1  0  0  0  0
 12 29  1  0  0  0  0
 13 17  1  0  0  0  0
 13 14  1  0  0  0  0
 13 30  1  0  0  0  0
 14 15  1  0  0  0  0
 14 31  1  0  0  0  0
 14 32  1  0  0  0  0
 15 16  1  0  0  0  0
 15 33  1  0  0  0  0
 15 34  1  0  0  0  0
 16 17  1  0  0  0  0
 16 35  1  0  0  0  0
 17 36  1  0  0  0  0
 17 37  1  0  0  0  0
M  END
> <s_m_source_file>
AV-unprocessed.smi

> <i_m_source_file_index>
1533

> <i_lp_mmshare_version>
43012

> <i_f3d_flags>
0

> <s_epik_input>
W0NIM11jMW5vYyhuMSlbQ0gyXVtDSDJdW05IXUMoPU8pW0NASF0oW0NIMl1bQ0BASF0yMylbQ0BASF0oW0NIMl0zKVtDSDJdW0NIMl0y

> <s_epik_cmdline>
J2VwaWtfcHl0aG9uJywgJy1waCcsICc3LjAnLCAnLXRuJywgJzgnLCAnLW1hJywgJzIwMCcsICctbWV0YWxfYmluZGluZycsICctaW1hZScsICc8aW5maWxlLm1hZT4nLCAnLW9tYWUnLCAnPG91dGZpbGUubWFlPic=

> <r_lp_tautomer_probability>
1

> <r_epik_Ionization_Penalty>
1.90116e-08

> <r_epik_Ionization_Penalty_Charging>
0

> <r_epik_Ionization_Penalty_Neutral>
1.90116e-08

> <r_epik_State_Penalty>
-0

> <r_epik_Charging_Adjusted_Penalty>
0

> <i_epik_Tot_Q>
0

> <i_epik_Tot_abs_Q>
0

> <r_epik_Metal_State_Penalty>
-0

> <b_epik_Metal_Only>
0

> <s_lp_Force_Field>
OPLS_2005

> <r_lp_Energy>
43.4718

> <b_lp_Chiralities_Consistent>
1

> <s_lp_Variant>
AV-unprocessed.smi:1533-1

> <Gold.Version>
5.8.1

> <Gold.Id.Protein>
6NUR|6NUR_protein|mol2

> <Gold.PLP.Fitness>
42.0550

> <Gold.PLP.PLP>
-37.4992

> <Gold.PLP.part.hbond>
-1.9615

> <Gold.PLP.part.metal>
0.0000

> <Gold.PLP.part.buried>
-3.4209

> <Gold.PLP.part.nonpolar>
-31.5589

> <Gold.PLP.part.repulsive>
0.4825

> <Gold.PLP.ligand.clash>
0.0000

> <Gold.PLP.ligand.torsion>
0.4695

> <Gold.PLP.Chemscore.Hbond>
1.8143

> <Gold.PLP.Chemscore.CHOScore>
0.0000

> <Gold.PLP.Chemscore.Metal>
0.0000

> <Gold.Chemscore.Hbonds>
donor molecule, donor type, donor heavy atom, donor atom, acceptor molecule, acceptor atom, score
      P1  H  7997  8010       L1    10  0.85
      P1  H 10752 10765       L1     3  0.91

> <Gold.PLP.Chemscore.Internal.Correction>
0.0519

> <Gold.Rescore>
     Score         DG    S(hbond)    S(metal)    S(lipo)     H(rot)  DE(clash)    DE(int)     intcor
     17.71     -18.51       1.80        0.00     100.56       1.85       0.36       0.45       ----

> <Gold.Chemscore.Fitness>
17.7064

> <Gold.Chemscore.DG>
-18.5141

> <Gold.Chemscore.ZeroCoef>
-5.4800

> <Gold.Chemscore.Hbond>
1.7968

> <Gold.Chemscore.Metal>
0.0000

> <Gold.Chemscore.Lipo>
100.5646

> <Gold.Chemscore.Internal_Hbond>
0.0000

> <Gold.Chemscore.DEClash>
0.3592

> <Gold.Chemscore.DEInternal>
0.4484

> <Gold.Chemscore.Rot>
1.8490

> <Gold.Chemscore.Internal.Correction>
   9.000000E+99

> <Gold.Chemscore.Hbonds>
donor molecule, donor type, donor heavy atom, donor atom, acceptor molecule, acceptor atom, score
      P1  H  7997  8010       L1    10  0.78
      P1  H 10752 10765       L1     3  0.86

> <Gold.Chemscore.Hbond.Weighted>
-6.0014

> <Gold.Chemscore.Metal.Weighted>
-0.0000

> <Gold.Chemscore.Lipo.Weighted>
-11.7661

> <Gold.Chemscore.Internal_Hbond.Weighted>
0.0000

> <Gold.Chemscore.DEClash.Weighted>
0.3592

> <Gold.Chemscore.DEInternal.Weighted>
0.4484

> <Gold.Chemscore.Rot.Weighted>
4.7334

> <Gold.Chemscore.Internal.Correction.Weighted>
   9.000000E+99

> <Gold.Protein.RotatedTorsions>
[ 6907 6896 6895 6894 ] final  154.53 input  -60.11 | X-H torsion
[ 7974 7965 7964 7962 ] final  -94.00 input  175.53 | X-H torsion
[ 8008 7997 7996 7995 ] final   42.36 input   59.86 | X-H torsion
[ 10167 10162 10161 10158 ] final -141.15 input  -65.29 | X-H torsion
[ 10718 10713 10712 10709 ] final   -1.96 input   66.30 | X-H torsion
[ 10763 10752 10751 10750 ] final -175.08 input  -60.55 | X-H torsion
[ 11005 11000 10999 10996 ] final   39.10 input  -57.11 | X-H torsion

> <Gold.Protein.ActiveResidues>
 VAL166  LYS551  ARG553  GLY616  TRP617  ASP618  TYR619  PRO620  LYS621  CYS622 
 ASP623  PHE694  ASN695  SER759  ASP760  ASP761  ALA762  ILE779  LEU786  VAL792 
 PHE793  MET794  SER795  GLU796  ALA797  LYS798  CYS799  TRP800  GLU811  SER814 

> <Gold.Protein.RotatedAtoms>
  152.0572  133.4045  159.4401 H   0  0  0  0  0  0  0  0  0  0  0  0  # atno 6907 bound_to 6896
  150.6867  134.3242  159.4808 H   0  0  0  0  0  0  0  0  0  0  0  0  # atno 6908 bound_to 6896
  152.1058  134.9309  160.0619 H   0  0  0  0  0  0  0  0  0  0  0  0  # atno 6909 bound_to 6896
  145.3791  140.9515  143.2404 H   0  0  0  0  0  0  0  0  0  0  0  0  # atno 7974 bound_to 7965
  155.2848  140.3375  155.4256 H   0  0  0  0  0  0  0  0  0  0  0  0  # atno 8008 bound_to 7997
  156.2073  140.1756  156.7812 H   0  0  0  0  0  0  0  0  0  0  0  0  # atno 8009 bound_to 7997
  154.5638  140.0682  156.8844 H   0  0  0  0  0  0  0  0  0  0  0  0  # atno 8010 bound_to 7997
  139.8212  143.7571  152.2666 H   0  0  0  0  0  0  0  0  0  0  0  0  # atno 10167 bound_to 10162
  156.7978  130.5383  149.5726 H   0  0  0  0  0  0  0  0  0  0  0  0  # atno 10718 bound_to 10713
  154.5887  135.2843  155.0658 H   0  0  0  0  0  0  0  0  0  0  0  0  # atno 10763 bound_to 10752
  154.1967  135.6431  153.5079 H   0  0  0  0  0  0  0  0  0  0  0  0  # atno 10764 bound_to 10752
  153.0113  135.5459  154.6565 H   0  0  0  0  0  0  0  0  0  0  0  0  # atno 10765 bound_to 10752
  140.2061  134.3811  155.8072 H   0  0  0  0  0  0  0  0  0  0  0  0  # atno 11005 bound_to 11000
  144.8520  139.5307  143.6852 LP  0  0  0  0  0  0  0  0  0  0  0  0  # atno 17320 bound_to 7965
  146.2850  139.6980  142.9202 LP  0  0  0  0  0  0  0  0  0  0  0  0  # atno 17321 bound_to 7965
  139.7750  144.7464  151.0170 LP  0  0  0  0  0  0  0  0  0  0  0  0  # atno 17342 bound_to 10162
  140.7813  143.4604  151.0286 LP  0  0  0  0  0  0  0  0  0  0  0  0  # atno 17343 bound_to 10162
  156.1119  130.6047  151.0061 LP  0  0  0  0  0  0  0  0  0  0  0  0  # atno 17370 bound_to 10713
  157.6569  131.0888  150.7928 LP  0  0  0  0  0  0  0  0  0  0  0  0  # atno 17371 bound_to 10713
  141.2227  133.7119  156.8340 LP  0  0  0  0  0  0  0  0  0  0  0  0  # atno 17394 bound_to 11000
  140.2001  134.8903  157.3159 LP  0  0  0  0  0  0  0  0  0  0  0  0  # atno 17395 bound_to 11000

$$$$
