AV-unprocessed.smi:3114|AV-procd|sdf|11856|dock2
  -GOLD-   2272017243D 1   1.00000     0.00000
 Structure written by MMmdl.
 30 30  0  0  0  0  0  0  0  0  1 V2000
  152.7409  142.8213  162.4081 C   0  0  0  0  0  0  0  0  0  0  0  0
  152.3401  142.2027  161.1909 O   0  0  0  0  0  0  0  0  0  0  0  0
  151.9802  143.0146  160.1354 C   0  0  0  0  0  0  0  0  0  0  0  0
  152.0212  144.4143  160.2949 C   0  0  0  0  0  0  0  0  0  0  0  0
  151.6385  145.1856  159.1798 C   0  0  0  0  0  0  0  0  0  0  0  0
  151.2551  144.6140  158.0182 N   0  0  0  0  0  0  0  0  0  0  0  0
  151.2545  143.2767  157.9693 C   0  0  0  0  0  0  0  0  0  0  0  0
  150.8726  142.6605  156.7912 N   0  0  0  0  0  0  0  0  0  0  0  0
  151.0730  141.2499  156.4873 C   0  0  0  0  0  0  0  0  0  0  0  0
  149.7985  140.5838  155.9508 C   0  0  0  0  0  0  0  0  0  0  0  0
  150.0565  140.0680  154.6555 O   0  0  0  0  0  0  0  0  0  0  0  0
  149.9682  138.6539  154.6015 C   0  0  0  0  0  0  0  0  0  0  0  0
  151.2735  138.0517  155.1339 C   0  0  0  0  0  0  0  0  0  0  0  0
  151.3589  136.6906  154.7714 O   0  0  0  0  0  0  0  0  0  0  0  0
  151.5938  142.4517  158.9628 N   0  0  0  0  0  0  0  0  0  0  0  0
  152.9931  142.0518  163.1375 H   0  0  0  0  0  0  0  0  0  0  0  0
  151.9385  143.4275  162.8308 H   0  0  0  0  0  0  0  0  0  0  0  0
  153.6247  143.4450  162.2665 H   0  0  0  0  0  0  0  0  0  0  0  0
  152.3280  144.8719  161.2237 H   0  0  0  0  0  0  0  0  0  0  0  0
  151.6406  146.2647  159.2195 H   0  0  0  0  0  0  0  0  0  0  0  0
  150.2963  143.1987  156.1606 H   0  0  0  0  0  0  0  0  0  0  0  0
  151.8775  141.1576  155.7575 H   0  0  0  0  0  0  0  0  0  0  0  0
  151.4133  140.7348  157.3863 H   0  0  0  0  0  0  0  0  0  0  0  0
  149.5117  139.7653  156.6125 H   0  0  0  0  0  0  0  0  0  0  0  0
  148.9672  141.2902  155.9304 H   0  0  0  0  0  0  0  0  0  0  0  0
  149.1065  138.2836  155.1597 H   0  0  0  0  0  0  0  0  0  0  0  0
  149.8342  138.3535  153.5612 H   0  0  0  0  0  0  0  0  0  0  0  0
  152.1263  138.5664  154.6906 H   0  0  0  0  0  0  0  0  0  0  0  0
  151.3528  138.1653  156.2156 H   0  0  0  0  0  0  0  0  0  0  0  0
  151.0944  136.6060  153.8679 H   0  0  0  0  0  0  0  0  0  0  0  0
  1  2  1  0  0  0  0
  1 16  1  0  0  0  0
  1 17  1  0  0  0  0
  1 18  1  0  0  0  0
  2  3  1  0  0  0  0
  3 15  1  0  0  0  0
  3  4  2  0  0  0  0
  4  5  1  0  0  0  0
  4 19  1  0  0  0  0
  5  6  2  0  0  0  0
  5 20  1  0  0  0  0
  6  7  1  0  0  0  0
  7  8  1  0  0  0  0
  7 15  2  0  0  0  0
  8  9  1  0  0  0  0
  8 21  1  0  0  0  0
  9 10  1  0  0  0  0
  9 22  1  0  0  0  0
  9 23  1  0  0  0  0
 10 11  1  0  0  0  0
 10 24  1  0  0  0  0
 10 25  1  0  0  0  0
 11 12  1  0  0  0  0
 12 13  1  0  0  0  0
 12 26  1  0  0  0  0
 12 27  1  0  0  0  0
 13 14  1  0  0  0  0
 13 28  1  0  0  0  0
 13 29  1  0  0  0  0
 14 30  1  0  0  0  0
M  END
> <s_m_source_file>
AV-unprocessed.smi

> <i_m_source_file_index>
3114

> <i_lp_mmshare_version>
43012

> <i_f3d_flags>
0

> <s_epik_input>
W0NIM11PYzFbY0hdW2NIXW5jKG4xKVtOSF1bQ0gyXVtDSDJdT1tDSDJdW0NIMl1bT0hd

> <s_epik_cmdline>
J2VwaWtfcHl0aG9uJywgJy1waCcsICc3LjAnLCAnLXRuJywgJzgnLCAnLW1hJywgJzIwMCcsICctbWV0YWxfYmluZGluZycsICctaW1hZScsICc8aW5maWxlLm1hZT4nLCAnLW9tYWUnLCAnPG91dGZpbGUubWFlPic=

> <r_lp_tautomer_probability>
1

> <r_epik_Ionization_Penalty>
0.0343038

> <r_epik_Ionization_Penalty_Charging>
0

> <r_epik_Ionization_Penalty_Neutral>
0.0343038

> <r_epik_State_Penalty>
0.0285297

> <r_epik_Charging_Adjusted_Penalty>
0.0285297

> <i_epik_Tot_Q>
0

> <i_epik_Tot_abs_Q>
0

> <r_epik_Metal_State_Penalty>
0.0269624

> <b_epik_Metal_Only>
0

> <s_lp_Force_Field>
OPLS_2005

> <r_lp_Energy>
-3.75924

> <b_lp_Chiralities_Consistent>
1

> <s_lp_Variant>
AV-unprocessed.smi:3114-1

> <Gold.Version>
5.8.1

> <Gold.Id.Protein>
6NUR|6NUR_protein|mol2

> <Gold.PLP.Fitness>
47.4373

> <Gold.PLP.PLP>
-37.5398

> <Gold.PLP.part.hbond>
-4.0000

> <Gold.PLP.part.metal>
0.0000

> <Gold.PLP.part.buried>
-7.5974

> <Gold.PLP.part.nonpolar>
-26.1680

> <Gold.PLP.part.repulsive>
0.3769

> <Gold.PLP.ligand.clash>
0.2727

> <Gold.PLP.ligand.torsion>
0.9973

> <Gold.PLP.Chemscore.Hbond>
3.9833

> <Gold.PLP.Chemscore.CHOScore>
0.0000

> <Gold.PLP.Chemscore.Metal>
0.0000

> <Gold.Chemscore.Hbonds>
donor molecule, donor type, donor heavy atom, donor atom, acceptor molecule, acceptor atom, score
      L1  H     8    21       P1  8028  0.75
      P1  H  7989  7998       L1    11  0.81
      P1  H 10752 10764       L1    14  0.50

> <Gold.PLP.Chemscore.Internal.Correction>
0.2151

> <Gold.Rescore>
     Score         DG    S(hbond)    S(metal)    S(lipo)     H(rot)  DE(clash)    DE(int)     intcor
     14.97     -16.17       3.28        0.00      68.04       3.21       0.20       1.00       ----

> <Gold.Chemscore.Fitness>
14.9690

> <Gold.Chemscore.DG>
-16.1681

> <Gold.Chemscore.ZeroCoef>
-5.4800

> <Gold.Chemscore.Hbond>
3.2754

> <Gold.Chemscore.Metal>
0.0000

> <Gold.Chemscore.Lipo>
68.0351

> <Gold.Chemscore.Internal_Hbond>
0.0000

> <Gold.Chemscore.DEClash>
0.2035

> <Gold.Chemscore.DEInternal>
0.9956

> <Gold.Chemscore.Rot>
3.2078

> <Gold.Chemscore.Internal.Correction>
   9.000000E+99

> <Gold.Chemscore.Hbonds>
donor molecule, donor type, donor heavy atom, donor atom, acceptor molecule, acceptor atom, score
      L1  H     8    21       P1  8028  0.73
      L1  H    14    30       P1  7949  0.02
      P1  H  7989  7998       L1    11  0.66
      P1  H 10752 10764       L1    14  0.02

> <Gold.Chemscore.Hbond.Weighted>
-10.9400

> <Gold.Chemscore.Metal.Weighted>
-0.0000

> <Gold.Chemscore.Lipo.Weighted>
-7.9601

> <Gold.Chemscore.Internal_Hbond.Weighted>
0.0000

> <Gold.Chemscore.DEClash.Weighted>
0.2035

> <Gold.Chemscore.DEInternal.Weighted>
0.9956

> <Gold.Chemscore.Rot.Weighted>
8.2120

> <Gold.Chemscore.Internal.Correction.Weighted>
   9.000000E+99

> <Gold.Protein.RotatedTorsions>
[ 6907 6896 6895 6894 ] final  136.05 input  -60.11 | X-H torsion
[ 7974 7965 7964 7962 ] final  165.23 input  175.53 | X-H torsion
[ 8008 7997 7996 7995 ] final -101.07 input   59.86 | X-H torsion
[ 10167 10162 10161 10158 ] final   53.08 input  -65.29 | X-H torsion
[ 10718 10713 10712 10709 ] final  106.01 input   66.30 | X-H torsion
[ 10763 10752 10751 10750 ] final  -71.32 input  -60.55 | X-H torsion
[ 11005 11000 10999 10996 ] final   21.05 input  -57.11 | X-H torsion

> <Gold.Protein.ActiveResidues>
 VAL166  LYS551  ARG553  GLY616  TRP617  ASP618  TYR619  PRO620  LYS621  CYS622 
 ASP623  PHE694  ASN695  SER759  ASP760  ASP761  ALA762  ILE779  LEU786  VAL792 
 PHE793  MET794  SER795  GLU796  ALA797  LYS798  CYS799  TRP800  GLU811  SER814 

> <Gold.Protein.RotatedAtoms>
  152.2937  133.5586  159.5573 H   0  0  0  0  0  0  0  0  0  0  0  0  # atno 6907 bound_to 6896
  150.7246  134.0392  159.3769 H   0  0  0  0  0  0  0  0  0  0  0  0  # atno 6908 bound_to 6896
  151.8296  135.0626  160.0486 H   0  0  0  0  0  0  0  0  0  0  0  0  # atno 6909 bound_to 6896
  144.7511  139.8441  143.6366 H   0  0  0  0  0  0  0  0  0  0  0  0  # atno 7974 bound_to 7965
  154.8375  140.0437  157.1518 H   0  0  0  0  0  0  0  0  0  0  0  0  # atno 8008 bound_to 7997
  154.9084  140.3010  155.5259 H   0  0  0  0  0  0  0  0  0  0  0  0  # atno 8009 bound_to 7997
  156.2990  140.2363  156.4120 H   0  0  0  0  0  0  0  0  0  0  0  0  # atno 8010 bound_to 7997
  140.2446  144.3546  150.6368 H   0  0  0  0  0  0  0  0  0  0  0  0  # atno 10167 bound_to 10162
  157.6684  131.0841  150.5943 H   0  0  0  0  0  0  0  0  0  0  0  0  # atno 10718 bound_to 10713
  154.4301  135.5966  153.6063 H   0  0  0  0  0  0  0  0  0  0  0  0  # atno 10763 bound_to 10752
  152.9798  135.5973  154.3849 H   0  0  0  0  0  0  0  0  0  0  0  0  # atno 10764 bound_to 10752
  154.3686  135.2841  155.2258 H   0  0  0  0  0  0  0  0  0  0  0  0  # atno 10765 bound_to 10752
  140.3958  134.1770  155.7663 H   0  0  0  0  0  0  0  0  0  0  0  0  # atno 11005 bound_to 11000
  146.1462  139.4532  143.0077 LP  0  0  0  0  0  0  0  0  0  0  0  0  # atno 17320 bound_to 7965
  145.6941  141.0155  143.1539 LP  0  0  0  0  0  0  0  0  0  0  0  0  # atno 17321 bound_to 7965
  140.6087  143.2168  151.6928 LP  0  0  0  0  0  0  0  0  0  0  0  0  # atno 17342 bound_to 10162
  139.5066  144.3676  152.0502 LP  0  0  0  0  0  0  0  0  0  0  0  0  # atno 17343 bound_to 10162
  156.6243  130.4414  149.5810 LP  0  0  0  0  0  0  0  0  0  0  0  0  # atno 17370 bound_to 10713
  156.2331  130.6806  151.1483 LP  0  0  0  0  0  0  0  0  0  0  0  0  # atno 17371 bound_to 10713
  141.1874  133.8281  157.1031 LP  0  0  0  0  0  0  0  0  0  0  0  0  # atno 17394 bound_to 11000
  140.0373  134.9872  157.0894 LP  0  0  0  0  0  0  0  0  0  0  0  0  # atno 17395 bound_to 11000

$$$$
