AV-unprocessed.smi:3219|AV-procd|sdf|12295|dock9
  -GOLD-   2272018133D 1   1.00000     0.00000
 Structure written by MMmdl.
 41 42  0  0  0  0  0  0  0  0  2 V2000
  147.2718  141.6413  155.6040 C   0  0  0  0  0  0  0  0  0  0  0  0
  148.2137  140.7423  154.8694 C   0  0  0  0  0  0  0  0  0  0  0  0
  147.9770  139.7344  153.9723 C   0  0  0  0  0  0  0  0  0  0  0  0
  146.6652  139.2160  153.4424 C   0  0  0  0  0  0  0  0  0  0  0  0
  146.8311  138.4766  152.1064 C   0  0  0  0  0  0  0  0  0  0  0  0
  146.4865  137.0463  152.2315 N   0  3  0  0  0  0  0  0  0  0  0  0
  145.6616  136.5239  151.1247 C   0  0  0  0  0  0  0  0  0  0  0  0
  145.3406  135.0305  151.3165 C   0  0  2  0  0  0  0  0  0  0  0  0
  146.6230  134.1779  151.4675 C   0  0  0  0  0  0  0  0  0  0  0  0
  146.3520  132.6872  151.3667 C   0  0  0  0  0  0  0  0  0  0  0  0
  145.2066  132.1740  150.8882 C   0  0  0  0  0  0  0  0  0  0  0  0
  144.0566  133.0274  150.3881 C   0  0  0  0  0  0  0  0  0  0  0  0
  144.4743  134.4923  150.1611 C   0  0  0  0  0  0  0  0  0  0  0  0
  149.2800  139.2690  153.6378 C   0  0  0  0  0  0  0  0  0  0  0  0
  150.2375  139.9291  154.2634 N   0  0  0  0  0  0  0  0  0  0  0  0
  149.5846  140.8319  155.0233 N   0  0  0  0  0  0  0  0  0  0  0  0
  150.3453  141.7370  155.8628 C   0  0  0  0  0  0  0  0  0  0  0  0
  146.2436  141.4953  155.2740 H   0  0  0  0  0  0  0  0  0  0  0  0
  147.5268  142.6887  155.4409 H   0  0  0  0  0  0  0  0  0  0  0  0
  147.3098  141.4470  156.6759 H   0  0  0  0  0  0  0  0  0  0  0  0
  146.2131  138.5341  154.1634 H   0  0  0  0  0  0  0  0  0  0  0  0
  145.9437  140.0245  153.3214 H   0  0  0  0  0  0  0  0  0  0  0  0
  146.2011  138.9373  151.3442 H   0  0  0  0  0  0  0  0  0  0  0  0
  147.8632  138.5644  151.7648 H   0  0  0  0  0  0  0  0  0  0  0  0
  147.3425  136.5121  152.2732 H   0  0  0  0  0  0  0  0  0  0  0  0
  144.7359  137.0997  151.0848 H   0  0  0  0  0  0  0  0  0  0  0  0
  146.1769  136.6822  150.1763 H   0  0  0  0  0  0  0  0  0  0  0  0
  144.7540  134.9278  152.2312 H   0  0  0  0  0  0  0  0  0  0  0  0
  147.3483  134.4350  150.6945 H   0  0  0  0  0  0  0  0  0  0  0  0
  147.0976  134.3811  152.4281 H   0  0  0  0  0  0  0  0  0  0  0  0
  147.1415  132.0253  151.6919 H   0  0  0  0  0  0  0  0  0  0  0  0
  145.0694  131.1029  150.8552 H   0  0  0  0  0  0  0  0  0  0  0  0
  143.6712  132.6038  149.4603 H   0  0  0  0  0  0  0  0  0  0  0  0
  143.2508  132.9727  151.1208 H   0  0  0  0  0  0  0  0  0  0  0  0
  143.5824  135.1066  150.0313 H   0  0  0  0  0  0  0  0  0  0  0  0
  145.0349  134.5666  149.2281 H   0  0  0  0  0  0  0  0  0  0  0  0
  149.5557  138.4758  152.9584 H   0  0  0  0  0  0  0  0  0  0  0  0
  150.0277  141.6288  156.9002 H   0  0  0  0  0  0  0  0  0  0  0  0
  150.1750  142.7650  155.5425 H   0  0  0  0  0  0  0  0  0  0  0  0
  151.4124  141.5198  155.7978 H   0  0  0  0  0  0  0  0  0  0  0  0
  145.9822  136.9154  153.0968 H   0  0  0  0  0  0  0  0  0  0  0  0
  1  2  1  0  0  0  0
  1 18  1  0  0  0  0
  1 19  1  0  0  0  0
  1 20  1  0  0  0  0
  2 16  1  0  0  0  0
  2  3  2  0  0  0  0
  3  4  1  0  0  0  0
  3 14  1  0  0  0  0
  4  5  1  0  0  0  0
  4 21  1  0  0  0  0
  4 22  1  0  0  0  0
  5  6  1  0  0  0  0
  5 23  1  0  0  0  0
  5 24  1  0  0  0  0
  6  7  1  0  0  0  0
  6 25  1  0  0  0  0
  6 41  1  0  0  0  0
  7  8  1  0  0  0  0
  7 26  1  0  0  0  0
  7 27  1  0  0  0  0
  8 13  1  0  0  0  0
  8  9  1  0  0  0  0
  8 28  1  0  0  0  0
  9 10  1  0  0  0  0
  9 29  1  0  0  0  0
  9 30  1  0  0  0  0
 10 11  2  0  0  0  0
 10 31  1  0  0  0  0
 11 12  1  0  0  0  0
 11 32  1  0  0  0  0
 12 13  1  0  0  0  0
 12 33  1  0  0  0  0
 12 34  1  0  0  0  0
 13 35  1  0  0  0  0
 13 36  1  0  0  0  0
 14 15  2  0  0  0  0
 14 37  1  0  0  0  0
 15 16  1  0  0  0  0
 16 17  1  0  0  0  0
 17 38  1  0  0  0  0
 17 39  1  0  0  0  0
 17 40  1  0  0  0  0
M  CHG  1   6   1
M  END
> <s_m_source_file>
AV-unprocessed.smi

> <i_m_source_file_index>
3219

> <i_lp_mmshare_version>
43012

> <i_f3d_flags>
0

> <s_epik_input>
W0NIM11uMW5bY0hdYyhjMVtDSDNdKVtDSDJdW0NIMl1bTkhdW0NIMl1bQ0BASF0yW0NIMl1bQ0hdPVtDSF1bQ0gyXVtDSDJdMg==

> <s_epik_cmdline>
J2VwaWtfcHl0aG9uJywgJy1waCcsICc3LjAnLCAnLXRuJywgJzgnLCAnLW1hJywgJzIwMCcsICctbWV0YWxfYmluZGluZycsICctaW1hZScsICc8aW5maWxlLm1hZT4nLCAnLW9tYWUnLCAnPG91dGZpbGUubWFlPic=

> <r_lp_tautomer_probability>
1

> <r_epik_Ionization_Penalty>
0.000661401

> <r_epik_Ionization_Penalty_Charging>
0.00057791

> <r_epik_Ionization_Penalty_Neutral>
8.34914e-05

> <r_epik_State_Penalty>
-0

> <r_epik_Charging_Adjusted_Penalty>
0.00057791

> <i_epik_Tot_Q>
1

> <i_epik_Tot_abs_Q>
1

> <r_epik_Metal_State_Penalty>
-0

> <b_epik_Metal_Only>
0

> <s_lp_Force_Field>
OPLS_2005

> <r_lp_Energy>
9.86252

> <b_lp_Chiralities_Consistent>
1

> <s_lp_Variant>
AV-unprocessed.smi:3219-1

> <Gold.Version>
5.8.1

> <Gold.Id.Protein>
6NUR|6NUR_protein|mol2

> <Gold.PLP.Fitness>
42.6720

> <Gold.PLP.PLP>
-32.0394

> <Gold.PLP.part.hbond>
-2.0000

> <Gold.PLP.part.metal>
0.0000

> <Gold.PLP.part.buried>
3.0848

> <Gold.PLP.part.nonpolar>
-33.3775

> <Gold.PLP.part.repulsive>
0.1875

> <Gold.PLP.ligand.clash>
0.0000

> <Gold.PLP.ligand.torsion>
0.9907

> <Gold.PLP.Chemscore.Hbond>
3.0000

> <Gold.PLP.Chemscore.CHOScore>
1.1982

> <Gold.PLP.Chemscore.Metal>
0.0000

> <Gold.Chemscore.Hbonds>
donor molecule, donor type, donor heavy atom, donor atom, acceptor molecule, acceptor atom, score
      L1  H     6    25       P1  7948  2.00
      P1  H  7989  7998       L1    15  1.00
      L1  C    14    37       P1  7948  1.00
      L1  C    14    37       P1  7957  0.22

> <Gold.PLP.Chemscore.Internal.Correction>
0.0194

> <Gold.Rescore>
     Score         DG    S(hbond)    S(metal)    S(lipo)     H(rot)  DE(clash)    DE(int)     intcor
     15.66     -18.36       1.78        0.00      91.04       1.46       1.73       0.97       ----

> <Gold.Chemscore.Fitness>
15.6593

> <Gold.Chemscore.DG>
-18.3551

> <Gold.Chemscore.ZeroCoef>
-5.4800

> <Gold.Chemscore.Hbond>
1.7845

> <Gold.Chemscore.Metal>
0.0000

> <Gold.Chemscore.Lipo>
91.0408

> <Gold.Chemscore.Internal_Hbond>
0.0000

> <Gold.Chemscore.DEClash>
1.7298

> <Gold.Chemscore.DEInternal>
0.9661

> <Gold.Chemscore.Rot>
1.4597

> <Gold.Chemscore.Internal.Correction>
   9.000000E+99

> <Gold.Chemscore.Hbonds>
donor molecule, donor type, donor heavy atom, donor atom, acceptor molecule, acceptor atom, score
      L1  H     6    25       P1  7948  0.96
      P1  H  7989  7998       L1    15  0.49

> <Gold.Chemscore.Hbond.Weighted>
-5.9601

> <Gold.Chemscore.Metal.Weighted>
-0.0000

> <Gold.Chemscore.Lipo.Weighted>
-10.6518

> <Gold.Chemscore.Internal_Hbond.Weighted>
0.0000

> <Gold.Chemscore.DEClash.Weighted>
1.7298

> <Gold.Chemscore.DEInternal.Weighted>
0.9661

> <Gold.Chemscore.Rot.Weighted>
3.7368

> <Gold.Chemscore.Internal.Correction.Weighted>
   9.000000E+99

> <Gold.Protein.RotatedTorsions>
[ 6907 6896 6895 6894 ] final  -87.36 input  -60.11 | X-H torsion
[ 7974 7965 7964 7962 ] final   34.17 input  175.53 | X-H torsion
[ 8008 7997 7996 7995 ] final -165.71 input   59.86 | X-H torsion
[ 10167 10162 10161 10158 ] final -105.66 input  -65.29 | X-H torsion
[ 10718 10713 10712 10709 ] final   35.99 input   66.30 | X-H torsion
[ 10763 10752 10751 10750 ] final   -1.54 input  -60.55 | X-H torsion
[ 11005 11000 10999 10996 ] final -123.05 input  -57.11 | X-H torsion

> <Gold.Protein.ActiveResidues>
 VAL166  LYS551  ARG553  GLY616  TRP617  ASP618  TYR619  PRO620  LYS621  CYS622 
 ASP623  PHE694  ASN695  SER759  ASP760  ASP761  ALA762  ILE779  LEU786  VAL792 
 PHE793  MET794  SER795  GLU796  ALA797  LYS798  CYS799  TRP800  GLU811  SER814 

> <Gold.Protein.RotatedAtoms>
  150.6866  134.2908  159.4665 H   0  0  0  0  0  0  0  0  0  0  0  0  # atno 6907 bound_to 6896
  152.0813  134.9466  160.0582 H   0  0  0  0  0  0  0  0  0  0  0  0  # atno 6908 bound_to 6896
  152.0818  133.4122  159.4541 H   0  0  0  0  0  0  0  0  0  0  0  0  # atno 6909 bound_to 6896
  146.1371  139.6303  142.9188 H   0  0  0  0  0  0  0  0  0  0  0  0  # atno 7974 bound_to 7965
  155.8536  140.0967  157.1659 H   0  0  0  0  0  0  0  0  0  0  0  0  # atno 8008 bound_to 7997
  154.3986  140.1378  156.3937 H   0  0  0  0  0  0  0  0  0  0  0  0  # atno 8009 bound_to 7997
  155.7934  140.3455  155.5364 H   0  0  0  0  0  0  0  0  0  0  0  0  # atno 8010 bound_to 7997
  140.1962  143.3854  152.1167 H   0  0  0  0  0  0  0  0  0  0  0  0  # atno 10167 bound_to 10162
  157.3295  130.7490  149.6838 H   0  0  0  0  0  0  0  0  0  0  0  0  # atno 10718 bound_to 10713
  153.3463  135.6983  153.6825 H   0  0  0  0  0  0  0  0  0  0  0  0  # atno 10763 bound_to 10752
  153.5570  135.3542  155.2784 H   0  0  0  0  0  0  0  0  0  0  0  0  # atno 10764 bound_to 10752
  154.8645  135.4240  154.2687 H   0  0  0  0  0  0  0  0  0  0  0  0  # atno 10765 bound_to 10752
  140.9948  134.0487  157.3610 H   0  0  0  0  0  0  0  0  0  0  0  0  # atno 11005 bound_to 11000
  145.5131  141.0435  143.2477 LP  0  0  0  0  0  0  0  0  0  0  0  0  # atno 17320 bound_to 7965
  144.7752  139.6647  143.7178 LP  0  0  0  0  0  0  0  0  0  0  0  0  # atno 17321 bound_to 7965
  139.5236  144.7073  151.5315 LP  0  0  0  0  0  0  0  0  0  0  0  0  # atno 17342 bound_to 10162
  140.6422  143.8866  150.6702 LP  0  0  0  0  0  0  0  0  0  0  0  0  # atno 17343 bound_to 10162
  155.9694  130.4199  150.4399 LP  0  0  0  0  0  0  0  0  0  0  0  0  # atno 17370 bound_to 10713
  157.2428  131.0529  151.2426 LP  0  0  0  0  0  0  0  0  0  0  0  0  # atno 17371 bound_to 10713
  139.9009  135.0164  156.7266 LP  0  0  0  0  0  0  0  0  0  0  0  0  # atno 17394 bound_to 11000
  140.6982  133.9329  155.8008 LP  0  0  0  0  0  0  0  0  0  0  0  0  # atno 17395 bound_to 11000

$$$$
