AV-unprocessed.smi:1265|AV-procd|sdf|5316|dock1
  -GOLD-   22720 4443D 1   1.00000     0.00000
 Structure written by MMmdl.
 44 46  0  0  0  0  0  0  0  0  1 V2000
  144.7082  136.2322  153.2139 O   0  0  0  0  0  0  0  0  0  0  0  0
  145.8561  136.2505  152.7704 C   0  0  0  0  0  0  0  0  0  0  0  0
  146.7740  137.1593  153.1292 N   0  0  0  0  0  0  0  0  0  0  0  0
  146.5712  138.2517  154.0808 C   0  0  0  0  0  0  0  0  0  0  0  0
  147.8943  139.0191  154.4128 C   0  0  2  0  0  0  0  0  0  0  0  0
  149.0422  138.0636  154.4921 N   0  0  0  0  0  0  0  0  0  0  0  0
  148.9127  136.9767  155.4735 C   0  0  0  0  0  0  0  0  0  0  0  0
  150.1003  136.0000  155.4282 C   0  0  0  0  0  0  0  0  0  0  0  0
  151.3151  136.7088  155.6309 O   0  0  0  0  0  0  0  0  0  0  0  0
  151.5155  137.7180  154.6509 C   0  0  0  0  0  0  0  0  0  0  0  0
  150.3451  138.7147  154.6877 C   0  0  0  0  0  0  0  0  0  0  0  0
  147.6679  139.8250  155.7253 C   0  0  0  0  0  0  0  0  0  0  0  0
  146.7022  140.9820  155.4475 C   0  0  0  0  0  0  0  0  0  0  0  0
  146.9922  141.5264  153.7478 S   0  0  0  0  0  0  0  0  0  0  0  0
  148.0857  140.1333  153.3517 C   0  0  0  0  0  0  0  0  0  0  0  0
  146.3677  135.3664  151.8963 N   0  0  0  0  0  0  0  0  0  0  0  0
  145.7224  134.2747  151.2538 C   0  0  0  0  0  0  0  0  0  0  0  0
  146.5332  133.2311  150.7611 C   0  0  0  0  0  0  0  0  0  0  0  0
  145.9198  132.1465  150.1031 C   0  0  0  0  0  0  0  0  0  0  0  0
  144.5875  132.0546  149.9082 N   0  0  0  0  0  0  0  0  0  0  0  0
  143.8140  133.0610  150.3674 C   0  0  0  0  0  0  0  0  0  0  0  0
  144.3256  134.1896  151.0391 C   0  0  0  0  0  0  0  0  0  0  0  0
  147.6957  137.0852  152.7241 H   0  0  0  0  0  0  0  0  0  0  0  0
  145.8277  138.9226  153.6534 H   0  0  0  0  0  0  0  0  0  0  0  0
  146.0815  137.8801  154.9806 H   0  0  0  0  0  0  0  0  0  0  0  0
  148.8279  137.3778  156.4828 H   0  0  0  0  0  0  0  0  0  0  0  0
  148.0205  136.3841  155.2858 H   0  0  0  0  0  0  0  0  0  0  0  0
  149.9968  135.2427  156.2055 H   0  0  0  0  0  0  0  0  0  0  0  0
  150.1317  135.4742  154.4726 H   0  0  0  0  0  0  0  0  0  0  0  0
  152.4554  138.2307  154.8561 H   0  0  0  0  0  0  0  0  0  0  0  0
  151.6070  137.2649  153.6625 H   0  0  0  0  0  0  0  0  0  0  0  0
  150.5324  139.4583  153.9164 H   0  0  0  0  0  0  0  0  0  0  0  0
  150.3589  139.2413  155.6425 H   0  0  0  0  0  0  0  0  0  0  0  0
  147.3278  139.2041  156.5538 H   0  0  0  0  0  0  0  0  0  0  0  0
  148.5874  140.3003  156.0588 H   0  0  0  0  0  0  0  0  0  0  0  0
  145.6665  140.6557  155.5423 H   0  0  0  0  0  0  0  0  0  0  0  0
  146.8464  141.8064  156.1462 H   0  0  0  0  0  0  0  0  0  0  0  0
  149.1002  140.5280  153.3661 H   0  0  0  0  0  0  0  0  0  0  0  0
  147.8969  139.7829  152.3365 H   0  0  0  0  0  0  0  0  0  0  0  0
  147.3525  135.4615  151.6970 H   0  0  0  0  0  0  0  0  0  0  0  0
  147.6060  133.2543  150.8864 H   0  0  0  0  0  0  0  0  0  0  0  0
  146.5169  131.3318  149.7208 H   0  0  0  0  0  0  0  0  0  0  0  0
  142.7530  132.9684  150.1877 H   0  0  0  0  0  0  0  0  0  0  0  0
  143.6438  134.9624  151.3589 H   0  0  0  0  0  0  0  0  0  0  0  0
  1  2  2  0  0  0  0
  2  3  1  0  0  0  0
  2 16  1  0  0  0  0
  3  4  1  0  0  0  0
  3 23  1  0  0  0  0
  4  5  1  0  0  0  0
  4 24  1  0  0  0  0
  4 25  1  0  0  0  0
  5 15  1  0  0  0  0
  5  6  1  0  0  0  0
  5 12  1  0  0  0  0
  6 11  1  0  0  0  0
  6  7  1  0  0  0  0
  7  8  1  0  0  0  0
  7 26  1  0  0  0  0
  7 27  1  0  0  0  0
  8  9  1  0  0  0  0
  8 28  1  0  0  0  0
  8 29  1  0  0  0  0
  9 10  1  0  0  0  0
 10 11  1  0  0  0  0
 10 30  1  0  0  0  0
 10 31  1  0  0  0  0
 11 32  1  0  0  0  0
 11 33  1  0  0  0  0
 12 13  1  0  0  0  0
 12 34  1  0  0  0  0
 12 35  1  0  0  0  0
 13 14  1  0  0  0  0
 13 36  1  0  0  0  0
 13 37  1  0  0  0  0
 14 15  1  0  0  0  0
 15 38  1  0  0  0  0
 15 39  1  0  0  0  0
 16 17  1  0  0  0  0
 16 40  1  0  0  0  0
 17 22  1  0  0  0  0
 17 18  2  0  0  0  0
 18 19  1  0  0  0  0
 18 41  1  0  0  0  0
 19 20  2  0  0  0  0
 19 42  1  0  0  0  0
 20 21  1  0  0  0  0
 21 22  2  0  0  0  0
 21 43  1  0  0  0  0
 22 44  1  0  0  0  0
M  END
> <s_m_source_file>
AV-unprocessed.smi

> <i_m_source_file_index>
1265

> <i_lp_mmshare_version>
43012

> <i_f3d_flags>
0

> <s_epik_input>
W2NIXTFbY0hdbltjSF1bY0hdYzFbTkhdQyg9TylbTkhdW0NIMl1bQ0BdMihbQ0gyXVtDSDJdU1tDSDJdMilOM1tDSDJdW0NIMl1PW0NIMl1bQ0gyXTM=

> <s_epik_cmdline>
J2VwaWtfcHl0aG9uJywgJy1waCcsICc3LjAnLCAnLXRuJywgJzgnLCAnLW1hJywgJzIwMCcsICctbWV0YWxfYmluZGluZycsICctaW1hZScsICc8aW5maWxlLm1hZT4nLCAnLW9tYWUnLCAnPG91dGZpbGUubWFlPic=

> <r_epik_Ionization_Penalty>
0.131531

> <r_epik_Ionization_Penalty_Charging>
0

> <r_epik_Ionization_Penalty_Neutral>
0.131531

> <r_epik_State_Penalty>
0.114508

> <r_epik_Charging_Adjusted_Penalty>
0.114508

> <i_epik_Tot_Q>
0

> <i_epik_Tot_abs_Q>
0

> <r_epik_Metal_State_Penalty>
0.0964753

> <b_epik_Metal_Only>
0

> <s_lp_Force_Field>
OPLS_2005

> <r_lp_Energy>
59.7031

> <b_lp_Chiralities_Consistent>
1

> <s_lp_Variant>
AV-unprocessed.smi:1265-2

> <Gold.Version>
5.8.1

> <Gold.Id.Protein>
6NUR|6NUR_protein|mol2

> <Gold.PLP.Fitness>
45.8853

> <Gold.PLP.PLP>
-32.0150

> <Gold.PLP.part.hbond>
-3.0000

> <Gold.PLP.part.metal>
0.0000

> <Gold.PLP.part.buried>
-3.3943

> <Gold.PLP.part.nonpolar>
-27.0027

> <Gold.PLP.part.repulsive>
0.5999

> <Gold.PLP.ligand.clash>
0.0000

> <Gold.PLP.ligand.torsion>
0.5086

> <Gold.PLP.Chemscore.Hbond>
3.0000

> <Gold.PLP.Chemscore.CHOScore>
1.9243

> <Gold.PLP.Chemscore.Metal>
0.0000

> <Gold.Chemscore.Hbonds>
donor molecule, donor type, donor heavy atom, donor atom, acceptor molecule, acceptor atom, score
      L1  H     3    23       P1  7948  1.00
      L1  H    16    40       P1  7948  1.00
      P1  H 10752 10763       L1     9  0.26
      L1  C    19    42       P1 10747  0.91
      L1  C    21    43       P1 10186  1.00

> <Gold.PLP.Chemscore.Internal.Correction>
0.1146

> <Gold.Rescore>
     Score         DG    S(hbond)    S(metal)    S(lipo)     H(rot)  DE(clash)    DE(int)     intcor
     18.33     -19.11       2.29        0.00      82.62       1.44       0.08       0.70       ----

> <Gold.Chemscore.Fitness>
18.3265

> <Gold.Chemscore.DG>
-19.1058

> <Gold.Chemscore.ZeroCoef>
-5.4800

> <Gold.Chemscore.Hbond>
2.2927

> <Gold.Chemscore.Metal>
0.0000

> <Gold.Chemscore.Lipo>
82.6166

> <Gold.Chemscore.Internal_Hbond>
0.0000

> <Gold.Chemscore.DEClash>
0.0771

> <Gold.Chemscore.DEInternal>
0.7022

> <Gold.Chemscore.Rot>
1.4445

> <Gold.Chemscore.Internal.Correction>
   9.000000E+99

> <Gold.Chemscore.Hbonds>
donor molecule, donor type, donor heavy atom, donor atom, acceptor molecule, acceptor atom, score
      L1  H     3    23       P1  7948  0.97
      L1  H    16    40       P1  7948  0.97
      P1  H 10752 10763       L1     9  0.01

> <Gold.Chemscore.Hbond.Weighted>
-7.6576

> <Gold.Chemscore.Metal.Weighted>
-0.0000

> <Gold.Chemscore.Lipo.Weighted>
-9.6661

> <Gold.Chemscore.Internal_Hbond.Weighted>
0.0000

> <Gold.Chemscore.DEClash.Weighted>
0.0771

> <Gold.Chemscore.DEInternal.Weighted>
0.7022

> <Gold.Chemscore.Rot.Weighted>
3.6980

> <Gold.Chemscore.Internal.Correction.Weighted>
   9.000000E+99

> <Gold.Protein.RotatedTorsions>
[ 6907 6896 6895 6894 ] final  -85.38 input  -60.11 | X-H torsion
[ 7974 7965 7964 7962 ] final   52.08 input  175.53 | X-H torsion
[ 8008 7997 7996 7995 ] final   20.27 input   59.86 | X-H torsion
[ 10167 10162 10161 10158 ] final -108.92 input  -65.29 | X-H torsion
[ 10718 10713 10712 10709 ] final  140.44 input   66.30 | X-H torsion
[ 10763 10752 10751 10750 ] final   69.33 input  -60.55 | X-H torsion
[ 11005 11000 10999 10996 ] final  126.29 input  -57.11 | X-H torsion

> <Gold.Protein.ActiveResidues>
 VAL166  LYS551  ARG553  GLY616  TRP617  ASP618  TYR619  PRO620  LYS621  CYS622 
 ASP623  PHE694  ASN695  SER759  ASP760  ASP761  ALA762  ILE779  LEU786  VAL792 
 PHE793  MET794  SER795  GLU796  ALA797  LYS798  CYS799  TRP800  GLU811  SER814 

> <Gold.Protein.RotatedAtoms>
  150.6870  134.3213  159.4787 H   0  0  0  0  0  0  0  0  0  0  0  0  # atno 6907 bound_to 6896
  152.1089  134.9286  160.0576 H   0  0  0  0  0  0  0  0  0  0  0  0  # atno 6908 bound_to 6896
  152.0537  133.3995  159.4425 H   0  0  0  0  0  0  0  0  0  0  0  0  # atno 6909 bound_to 6896
  145.9849  139.4280  143.0109 H   0  0  0  0  0  0  0  0  0  0  0  0  # atno 7974 bound_to 7965
  154.9331  140.3043  155.5157 H   0  0  0  0  0  0  0  0  0  0  0  0  # atno 8008 bound_to 7997
  156.3002  140.2350  156.4330 H   0  0  0  0  0  0  0  0  0  0  0  0  # atno 8009 bound_to 7997
  154.8218  140.0423  157.1404 H   0  0  0  0  0  0  0  0  0  0  0  0  # atno 8010 bound_to 7997
  140.1609  143.4121  152.1426 H   0  0  0  0  0  0  0  0  0  0  0  0  # atno 10167 bound_to 10162
  157.4033  131.1019  151.0529 H   0  0  0  0  0  0  0  0  0  0  0  0  # atno 10718 bound_to 10713
  153.0282  135.5214  154.7272 H   0  0  0  0  0  0  0  0  0  0  0  0  # atno 10763 bound_to 10752
  154.6310  135.2900  155.0218 H   0  0  0  0  0  0  0  0  0  0  0  0  # atno 10764 bound_to 10752
  154.1170  135.6613  153.4948 H   0  0  0  0  0  0  0  0  0  0  0  0  # atno 10765 bound_to 10752
  139.9448  134.9631  156.8684 H   0  0  0  0  0  0  0  0  0  0  0  0  # atno 11005 bound_to 11000
  145.7715  140.9894  143.1147 LP  0  0  0  0  0  0  0  0  0  0  0  0  # atno 17320 bound_to 7965
  144.6872  139.9453  143.7476 LP  0  0  0  0  0  0  0  0  0  0  0  0  # atno 17321 bound_to 7965
  139.5381  144.7230  151.4824 LP  0  0  0  0  0  0  0  0  0  0  0  0  # atno 17342 bound_to 10162
  140.6643  143.8431  150.6924 LP  0  0  0  0  0  0  0  0  0  0  0  0  # atno 17343 bound_to 10162
  157.1521  130.6188  149.5585 LP  0  0  0  0  0  0  0  0  0  0  0  0  # atno 17370 bound_to 10713
  155.9829  130.4846  150.6906 LP  0  0  0  0  0  0  0  0  0  0  0  0  # atno 17371 bound_to 10713
  140.5861  134.0306  155.7482 LP  0  0  0  0  0  0  0  0  0  0  0  0  # atno 17394 bound_to 11000
  141.1095  133.9639  157.2935 LP  0  0  0  0  0  0  0  0  0  0  0  0  # atno 17395 bound_to 11000

$$$$
