AV-unprocessed.smi:1622|AV-procd|sdf|6497|dock3
  -GOLD-   22720 7163D 1   1.00000     0.00000
 Structure written by MMmdl.
 41 42  0  0  0  0  0  0  0  0  2 V2000
  143.5401  137.6408  152.0653 C   0  0  0  0  0  0  0  0  0  0  0  0
  144.5181  137.5432  153.2475 C   0  0  0  0  0  0  0  0  0  0  0  0
  146.0119  137.4015  152.8478 C   0  0  2  0  0  0  0  0  0  0  0  0
  146.5234  138.5930  151.9953 C   0  0  0  0  0  0  0  0  0  0  0  0
  147.9034  138.9575  152.3092 N   0  0  0  0  0  0  0  0  0  0  0  0
  148.3749  139.2402  153.5328 C   0  0  0  0  0  0  0  0  0  0  0  0
  147.6787  139.2296  154.5478 O   0  0  0  0  0  0  0  0  0  0  0  0
  149.6877  139.5292  153.4955 N   0  0  0  0  0  0  0  0  0  0  0  0
  150.5487  139.8403  154.5813 C   0  0  0  0  0  0  0  0  0  0  0  0
  151.8184  140.2426  154.4322 N   0  0  0  0  0  0  0  0  0  0  0  0
  152.4311  140.4860  155.6532 N   0  0  0  0  0  0  0  0  0  0  0  0
  151.6107  140.2606  156.6865 C   0  0  0  0  0  0  0  0  0  0  0  0
  152.0291  140.4516  158.1042 C   0  0  0  0  0  0  0  0  0  0  0  0
  149.9936  139.7274  156.2427 S   0  0  0  0  0  0  0  0  0  0  0  0
  146.2758  136.0937  152.1760 N   0  3  0  0  0  0  0  0  0  0  0  0
  145.8224  134.8942  152.9119 C   0  0  0  0  0  0  0  0  0  0  0  0
  145.7989  133.7617  151.8854 C   0  0  0  0  0  0  0  0  0  0  0  0
  145.6404  134.4502  150.5277 C   0  0  0  0  0  0  0  0  0  0  0  0
  145.7056  135.9532  150.8173 C   0  0  0  0  0  0  0  0  0  0  0  0
  142.5160  137.7452  152.4241 H   0  0  0  0  0  0  0  0  0  0  0  0
  143.5771  136.7503  151.4380 H   0  0  0  0  0  0  0  0  0  0  0  0
  143.7515  138.5023  151.4339 H   0  0  0  0  0  0  0  0  0  0  0  0
  144.3869  138.4190  153.8827 H   0  0  0  0  0  0  0  0  0  0  0  0
  144.2211  136.7065  153.8799 H   0  0  0  0  0  0  0  0  0  0  0  0
  146.5885  137.4030  153.7744 H   0  0  0  0  0  0  0  0  0  0  0  0
  146.5190  138.3333  150.9371 H   0  0  0  0  0  0  0  0  0  0  0  0
  145.8513  139.4466  152.0955 H   0  0  0  0  0  0  0  0  0  0  0  0
  148.5494  138.9959  151.5340 H   0  0  0  0  0  0  0  0  0  0  0  0
  150.1265  139.5164  152.5866 H   0  0  0  0  0  0  0  0  0  0  0  0
  153.1138  140.3851  158.1952 H   0  0  0  0  0  0  0  0  0  0  0  0
  151.5798  139.6842  158.7348 H   0  0  0  0  0  0  0  0  0  0  0  0
  151.7065  141.4307  158.4583 H   0  0  0  0  0  0  0  0  0  0  0  0
  146.4734  134.6574  153.7541 H   0  0  0  0  0  0  0  0  0  0  0  0
  144.8147  135.0620  153.2959 H   0  0  0  0  0  0  0  0  0  0  0  0
  146.7426  133.2151  151.9114 H   0  0  0  0  0  0  0  0  0  0  0  0
  144.9996  133.0475  152.0856 H   0  0  0  0  0  0  0  0  0  0  0  0
  146.4487  134.1508  149.8593 H   0  0  0  0  0  0  0  0  0  0  0  0
  144.6998  134.1835  150.0448 H   0  0  0  0  0  0  0  0  0  0  0  0
  144.6968  136.3691  150.8004 H   0  0  0  0  0  0  0  0  0  0  0  0
  146.3000  136.4813  150.0712 H   0  0  0  0  0  0  0  0  0  0  0  0
  147.2770  136.0037  152.0764 H   0  0  0  0  0  0  0  0  0  0  0  0
  1  2  1  0  0  0  0
  1 20  1  0  0  0  0
  1 21  1  0  0  0  0
  1 22  1  0  0  0  0
  2  3  1  0  0  0  0
  2 23  1  0  0  0  0
  2 24  1  0  0  0  0
  3  4  1  0  0  0  0
  3 15  1  0  0  0  0
  3 25  1  0  0  0  0
  4  5  1  0  0  0  0
  4 26  1  0  0  0  0
  4 27  1  0  0  0  0
  5  6  1  0  0  0  0
  5 28  1  0  0  0  0
  6  7  2  0  0  0  0
  6  8  1  0  0  0  0
  8  9  1  0  0  0  0
  8 29  1  0  0  0  0
  9 14  1  0  0  0  0
  9 10  2  0  0  0  0
 10 11  1  0  0  0  0
 11 12  2  0  0  0  0
 12 13  1  0  0  0  0
 12 14  1  0  0  0  0
 13 30  1  0  0  0  0
 13 31  1  0  0  0  0
 13 32  1  0  0  0  0
 15 19  1  0  0  0  0
 15 16  1  0  0  0  0
 15 41  1  0  0  0  0
 16 17  1  0  0  0  0
 16 33  1  0  0  0  0
 16 34  1  0  0  0  0
 17 18  1  0  0  0  0
 17 35  1  0  0  0  0
 17 36  1  0  0  0  0
 18 19  1  0  0  0  0
 18 37  1  0  0  0  0
 18 38  1  0  0  0  0
 19 39  1  0  0  0  0
 19 40  1  0  0  0  0
M  CHG  1  15   1
M  END
> <s_m_source_file>
AV-unprocessed.smi

> <i_m_source_file_index>
1622

> <i_lp_mmshare_version>
43012

> <i_f3d_flags>
0

> <s_epik_input>
W0NIMl0xW0NIMl1bQ0gyXVtDSDJdTjFbQ0BIXShbQ0gyXVtDSDNdKVtDSDJdW05IXUMoPU8pW05IXWMybm5jKHMyKVtDSDNd

> <s_epik_cmdline>
J2VwaWtfcHl0aG9uJywgJy1waCcsICc3LjAnLCAnLXRuJywgJzgnLCAnLW1hJywgJzIwMCcsICctbWV0YWxfYmluZGluZycsICctaW1hZScsICc8aW5maWxlLm1hZT4nLCAnLW9tYWUnLCAnPG91dGZpbGUubWFlPic=

> <r_lp_tautomer_probability>
1

> <r_epik_Ionization_Penalty>
0.00164835

> <r_epik_Ionization_Penalty_Charging>
0.00115997

> <r_epik_Ionization_Penalty_Neutral>
0.00048838

> <r_epik_State_Penalty>
-0

> <r_epik_Charging_Adjusted_Penalty>
0.00115997

> <i_epik_Tot_Q>
1

> <i_epik_Tot_abs_Q>
1

> <r_epik_Metal_State_Penalty>
0.216651

> <b_epik_Metal_Only>
0

> <s_lp_Force_Field>
OPLS_2005

> <r_lp_Energy>
32.351

> <b_lp_Chiralities_Consistent>
1

> <s_lp_Variant>
AV-unprocessed.smi:1622-1

> <Gold.Version>
5.8.1

> <Gold.Id.Protein>
6NUR|6NUR_protein|mol2

> <Gold.PLP.Fitness>
45.3618

> <Gold.PLP.PLP>
-28.3686

> <Gold.PLP.part.hbond>
-5.9374

> <Gold.PLP.part.metal>
0.0000

> <Gold.PLP.part.buried>
-3.2069

> <Gold.PLP.part.nonpolar>
-19.8131

> <Gold.PLP.part.repulsive>
0.2966

> <Gold.PLP.ligand.clash>
0.0000

> <Gold.PLP.ligand.torsion>
0.5303

> <Gold.PLP.Chemscore.Hbond>
5.9920

> <Gold.PLP.Chemscore.CHOScore>
0.0000

> <Gold.PLP.Chemscore.Metal>
0.0000

> <Gold.Chemscore.Hbonds>
donor molecule, donor type, donor heavy atom, donor atom, acceptor molecule, acceptor atom, score
      L1  H     5    28       P1  7957  0.60
      L1  H     8    29       P1  7957  0.64
      L1  H    15    41       P1  7948  2.00
      P1  H  7997  8010       L1    11  1.00

> <Gold.PLP.Chemscore.Internal.Correction>
0.0778

> <Gold.Rescore>
     Score         DG    S(hbond)    S(metal)    S(lipo)     H(rot)  DE(clash)    DE(int)     intcor
     19.01     -22.37       4.54        0.00      53.49       1.77       1.56       1.80       ----

> <Gold.Chemscore.Fitness>
19.0111

> <Gold.Chemscore.DG>
-22.3741

> <Gold.Chemscore.ZeroCoef>
-5.4800

> <Gold.Chemscore.Hbond>
4.5439

> <Gold.Chemscore.Metal>
0.0000

> <Gold.Chemscore.Lipo>
53.4912

> <Gold.Chemscore.Internal_Hbond>
0.0000

> <Gold.Chemscore.DEClash>
1.5592

> <Gold.Chemscore.DEInternal>
1.8039

> <Gold.Chemscore.Rot>
1.7738

> <Gold.Chemscore.Internal.Correction>
   9.000000E+99

> <Gold.Chemscore.Hbonds>
donor molecule, donor type, donor heavy atom, donor atom, acceptor molecule, acceptor atom, score
      L1  H     5    28       P1  7957  0.35
      L1  H     8    29       P1  7957  0.57
      L1  H    15    41       P1  7948  1.00
      P1  H  7989  7998       L1    10  0.01
      P1  H  7997  8010       L1    11  0.82

> <Gold.Chemscore.Hbond.Weighted>
-15.1767

> <Gold.Chemscore.Metal.Weighted>
-0.0000

> <Gold.Chemscore.Lipo.Weighted>
-6.2585

> <Gold.Chemscore.Internal_Hbond.Weighted>
0.0000

> <Gold.Chemscore.DEClash.Weighted>
1.5592

> <Gold.Chemscore.DEInternal.Weighted>
1.8039

> <Gold.Chemscore.Rot.Weighted>
4.5411

> <Gold.Chemscore.Internal.Correction.Weighted>
   9.000000E+99

> <Gold.Protein.RotatedTorsions>
[ 6907 6896 6895 6894 ] final  -91.54 input  -60.11 | X-H torsion
[ 7974 7965 7964 7962 ] final  146.11 input  175.53 | X-H torsion
[ 8008 7997 7996 7995 ] final   94.57 input   59.86 | X-H torsion
[ 10167 10162 10161 10158 ] final   35.38 input  -65.29 | X-H torsion
[ 10718 10713 10712 10709 ] final -154.47 input   66.30 | X-H torsion
[ 10763 10752 10751 10750 ] final   89.68 input  -60.55 | X-H torsion
[ 11005 11000 10999 10996 ] final   31.25 input  -57.11 | X-H torsion

> <Gold.Protein.ActiveResidues>
 VAL166  LYS551  ARG553  GLY616  TRP617  ASP618  TYR619  PRO620  LYS621  CYS622 
 ASP623  PHE694  ASN695  SER759  ASP760  ASP761  ALA762  ILE779  LEU786  VAL792 
 PHE793  MET794  SER795  GLU796  ALA797  LYS798  CYS799  TRP800  GLU811  SER814 

> <Gold.Protein.RotatedAtoms>
  150.6894  134.2262  159.4415 H   0  0  0  0  0  0  0  0  0  0  0  0  # atno 6907 bound_to 6896
  152.0215  134.9817  160.0580 H   0  0  0  0  0  0  0  0  0  0  0  0  # atno 6908 bound_to 6896
  152.1392  133.4419  159.4795 H   0  0  0  0  0  0  0  0  0  0  0  0  # atno 6909 bound_to 6896
  144.8697  139.5865  143.5892 H   0  0  0  0  0  0  0  0  0  0  0  0  # atno 7974 bound_to 7965
  156.0593  140.3298  155.7443 H   0  0  0  0  0  0  0  0  0  0  0  0  # atno 8008 bound_to 7997
  155.5479  140.0607  157.2873 H   0  0  0  0  0  0  0  0  0  0  0  0  # atno 8009 bound_to 7997
  154.4473  140.1899  156.0645 H   0  0  0  0  0  0  0  0  0  0  0  0  # atno 8010 bound_to 7997
  140.4227  144.1436  150.6150 H   0  0  0  0  0  0  0  0  0  0  0  0  # atno 10167 bound_to 10162
  156.4997  130.8385  151.2604 H   0  0  0  0  0  0  0  0  0  0  0  0  # atno 10718 bound_to 10713
  153.1896  135.4461  155.0133 H   0  0  0  0  0  0  0  0  0  0  0  0  # atno 10763 bound_to 10752
  154.8082  135.3283  154.7378 H   0  0  0  0  0  0  0  0  0  0  0  0  # atno 10764 bound_to 10752
  153.7833  135.6976  153.4939 H   0  0  0  0  0  0  0  0  0  0  0  0  # atno 10765 bound_to 10752
  140.2859  134.2920  155.7788 H   0  0  0  0  0  0  0  0  0  0  0  0  # atno 11005 bound_to 11000
  146.2922  139.7171  142.9153 LP  0  0  0  0  0  0  0  0  0  0  0  0  # atno 17320 bound_to 7965
  145.4153  141.0401  143.2994 LP  0  0  0  0  0  0  0  0  0  0  0  0  # atno 17321 bound_to 7965
  140.4515  143.2485  151.9341 LP  0  0  0  0  0  0  0  0  0  0  0  0  # atno 17342 bound_to 10162
  139.4783  144.5557  151.8317 LP  0  0  0  0  0  0  0  0  0  0  0  0  # atno 17343 bound_to 10162
  157.7464  130.9986  150.2858 LP  0  0  0  0  0  0  0  0  0  0  0  0  # atno 17370 bound_to 10713
  156.3345  130.3805  149.7462 LP  0  0  0  0  0  0  0  0  0  0  0  0  # atno 17371 bound_to 10713
  141.2155  133.7554  156.9551 LP  0  0  0  0  0  0  0  0  0  0  0  0  # atno 17394 bound_to 11000
  140.1240  134.9399  157.2244 LP  0  0  0  0  0  0  0  0  0  0  0  0  # atno 17395 bound_to 11000

$$$$
