AV-unprocessed.smi:223|AV-procd|sdf|1704|dock9
  -GOLD-   2262020163D 1   1.00000     0.00000
 Structure written by MMmdl.
 47 50  0  0  0  0  0  0  0  0  1 V2000
  155.2796  139.4168  160.0281 C   0  0  0  0  0  0  0  0  0  0  0  0
  153.9924  139.1713  159.2327 C   0  0  1  0  0  0  0  0  0  0  0  0
  153.5275  137.7874  159.4224 C   0  0  0  0  0  0  0  0  0  0  0  0
  153.1609  136.6999  159.5702 N   0  0  0  0  0  0  0  0  0  0  0  0
  152.9116  140.2123  159.5934 C   0  0  0  0  0  0  0  0  0  0  0  0
  152.6598  141.1977  158.5416 N   0  0  0  0  0  0  0  0  0  0  0  0
  152.1465  140.7296  157.3716 C   0  0  0  0  0  0  0  0  0  0  0  0
  152.8636  139.8316  156.6436 N   0  0  0  0  0  0  0  0  0  0  0  0
  152.3979  139.3751  155.4783 C   0  0  0  0  0  0  0  0  0  0  0  0
  151.2544  139.6766  154.8625 N   0  0  0  0  0  0  0  0  0  0  0  0
  150.5208  140.5662  155.5899 C   0  0  0  0  0  0  0  0  0  0  0  0
  150.8895  141.1419  156.8399 C   0  0  0  0  0  0  0  0  0  0  0  0
  149.8880  142.0052  157.2696 N   0  0  0  0  0  0  0  0  0  0  0  0
  148.9876  141.9502  156.3273 C   0  0  0  0  0  0  0  0  0  0  0  0
  149.2800  141.1001  155.2855 N   0  0  0  0  0  0  0  0  0  0  0  0
  148.4603  140.8467  154.1095 C   0  0  0  0  0  0  0  0  0  0  0  0
  147.8457  139.4242  154.0544 C   0  0  1  0  0  0  0  0  0  0  0  0
  147.9086  138.9365  152.7270 O   0  0  0  0  0  0  0  0  0  0  0  0
  148.5156  138.4141  154.9894 C   0  0  0  0  0  0  0  0  0  0  0  0
  147.5752  138.3753  156.1855 C   0  0  0  0  0  0  0  0  0  0  0  0
  146.3021  138.4533  155.5709 O   0  0  0  0  0  0  0  0  0  0  0  0
  146.3797  139.4238  154.5341 C   0  0  0  0  0  0  0  0  0  0  0  0
  152.2998  142.5513  158.9577 C   0  0  0  0  0  0  0  0  0  0  0  0
  153.2699  143.6826  158.6990 C   0  0  0  0  0  0  0  0  0  0  0  0
  153.0535  143.1793  160.1066 C   0  0  0  0  0  0  0  0  0  0  0  0
  156.0532  138.7006  159.7494 H   0  0  0  0  0  0  0  0  0  0  0  0
  155.1060  139.3191  161.1001 H   0  0  0  0  0  0  0  0  0  0  0  0
  155.6723  140.4166  159.8411 H   0  0  0  0  0  0  0  0  0  0  0  0
  154.2409  139.2623  158.1753 H   0  0  0  0  0  0  0  0  0  0  0  0
  151.9777  139.6923  159.8100 H   0  0  0  0  0  0  0  0  0  0  0  0
  153.1733  140.7256  160.5173 H   0  0  0  0  0  0  0  0  0  0  0  0
  153.0336  138.6685  154.9655 H   0  0  0  0  0  0  0  0  0  0  0  0
  148.0762  142.5287  156.3705 H   0  0  0  0  0  0  0  0  0  0  0  0
  147.6691  141.5971  154.0812 H   0  0  0  0  0  0  0  0  0  0  0  0
  149.0756  141.0218  153.2259 H   0  0  0  0  0  0  0  0  0  0  0  0
  148.7048  139.2531  152.3287 H   0  0  0  0  0  0  0  0  0  0  0  0
  148.5392  137.4225  154.5343 H   0  0  0  0  0  0  0  0  0  0  0  0
  149.5370  138.6643  155.2704 H   0  0  0  0  0  0  0  0  0  0  0  0
  147.6830  137.4674  156.7792 H   0  0  0  0  0  0  0  0  0  0  0  0
  147.7282  139.2379  156.8360 H   0  0  0  0  0  0  0  0  0  0  0  0
  146.1000  140.3928  154.9504 H   0  0  0  0  0  0  0  0  0  0  0  0
  145.6651  139.1924  153.7431 H   0  0  0  0  0  0  0  0  0  0  0  0
  151.2453  142.8075  158.8822 H   0  0  0  0  0  0  0  0  0  0  0  0
  154.2169  143.4416  158.2195 H   0  0  0  0  0  0  0  0  0  0  0  0
  152.8496  144.6519  158.4397 H   0  0  0  0  0  0  0  0  0  0  0  0
  152.4908  143.8147  160.7875 H   0  0  0  0  0  0  0  0  0  0  0  0
  153.8581  142.6053  160.5621 H   0  0  0  0  0  0  0  0  0  0  0  0
  1  2  1  0  0  0  0
  1 26  1  0  0  0  0
  1 27  1  0  0  0  0
  1 28  1  0  0  0  0
  2  3  1  0  0  0  0
  2  5  1  0  0  0  0
  2 29  1  0  0  0  0
  3  4  3  0  0  0  0
  5  6  1  0  0  0  0
  5 30  1  0  0  0  0
  5 31  1  0  0  0  0
  6  7  1  0  0  0  0
  6 23  1  0  0  0  0
  7 12  1  0  0  0  0
  7  8  2  0  0  0  0
  8  9  1  0  0  0  0
  9 10  2  0  0  0  0
  9 32  1  0  0  0  0
 10 11  1  0  0  0  0
 11 15  1  0  0  0  0
 11 12  2  0  0  0  0
 12 13  1  0  0  0  0
 13 14  2  0  0  0  0
 14 15  1  0  0  0  0
 14 33  1  0  0  0  0
 15 16  1  0  0  0  0
 16 17  1  0  0  0  0
 16 34  1  0  0  0  0
 16 35  1  0  0  0  0
 17 22  1  0  0  0  0
 17 18  1  0  0  0  0
 17 19  1  0  0  0  0
 18 36  1  0  0  0  0
 19 20  1  0  0  0  0
 19 37  1  0  0  0  0
 19 38  1  0  0  0  0
 20 21  1  0  0  0  0
 20 39  1  0  0  0  0
 20 40  1  0  0  0  0
 21 22  1  0  0  0  0
 22 41  1  0  0  0  0
 22 42  1  0  0  0  0
 23 25  1  0  0  0  0
 23 24  1  0  0  0  0
 23 43  1  0  0  0  0
 24 25  1  0  0  0  0
 24 44  1  0  0  0  0
 24 45  1  0  0  0  0
 25 46  1  0  0  0  0
 25 47  1  0  0  0  0
M  END
> <s_m_source_file>
AV-unprocessed.smi

> <i_m_source_file_index>
223

> <i_lp_mmshare_version>
43012

> <i_f3d_flags>
0

> <s_epik_input>
TiNDW0NAQEhdKFtDSDNdKVtDSDJdTihbQ0hdMVtDSDJdW0NIMl0xKWMobltjSF1uMiljKGMyMyluW2NIXW4zW0NIMl1bQ0BAXTQoW09IXSlbQ0gyXVtDSDJdT1tDSDJdNA==

> <s_epik_cmdline>
J2VwaWtfcHl0aG9uJywgJy1waCcsICc3LjAnLCAnLXRuJywgJzgnLCAnLW1hJywgJzIwMCcsICctbWV0YWxfYmluZGluZycsICctaW1hZScsICc8aW5maWxlLm1hZT4nLCAnLW9tYWUnLCAnPG91dGZpbGUubWFlPic=

> <r_lp_tautomer_probability>
1

> <r_epik_Ionization_Penalty>
0.000756152

> <r_epik_Ionization_Penalty_Charging>
0

> <r_epik_Ionization_Penalty_Neutral>
0.000756152

> <r_epik_State_Penalty>
0.00038036

> <r_epik_Charging_Adjusted_Penalty>
0.00038036

> <i_epik_Tot_Q>
0

> <i_epik_Tot_abs_Q>
0

> <r_epik_Metal_State_Penalty>
-0

> <b_epik_Metal_Only>
0

> <s_lp_Force_Field>
OPLS_2005

> <r_lp_Energy>
37.1098

> <b_lp_Chiralities_Consistent>
1

> <s_lp_Variant>
AV-unprocessed.smi:223-2

> <Gold.Version>
5.8.1

> <Gold.Id.Protein>
6NUR|6NUR_protein|mol2

> <Gold.PLP.Fitness>
48.7818

> <Gold.PLP.PLP>
-40.4395

> <Gold.PLP.part.hbond>
-4.6275

> <Gold.PLP.part.metal>
0.0000

> <Gold.PLP.part.buried>
-2.5211

> <Gold.PLP.part.nonpolar>
-32.6403

> <Gold.PLP.part.repulsive>
0.1970

> <Gold.PLP.ligand.clash>
0.0000

> <Gold.PLP.ligand.torsion>
2.9497

> <Gold.PLP.Chemscore.Hbond>
3.9500

> <Gold.PLP.Chemscore.CHOScore>
0.3554

> <Gold.PLP.Chemscore.Metal>
0.0000

> <Gold.Chemscore.Hbonds>
donor molecule, donor type, donor heavy atom, donor atom, acceptor molecule, acceptor atom, score
      L1  H    18    36       P1  7957  1.00
      P1  H  6896  6908       L1     4  0.88
      P1  H  7989  7998       L1    10  0.75
      P1  H  7997  8008       L1     8  0.98
      L1  C    14    33       P1  8028  0.44

> <Gold.PLP.Chemscore.Internal.Correction>
1.3256

> <Gold.Rescore>
     Score         DG    S(hbond)    S(metal)    S(lipo)     H(rot)  DE(clash)    DE(int)     intcor
     13.22     -16.70       2.88        0.00      73.23       2.72       0.05       3.44       ----

> <Gold.Chemscore.Fitness>
13.2175

> <Gold.Chemscore.DG>
-16.7035

> <Gold.Chemscore.ZeroCoef>
-5.4800

> <Gold.Chemscore.Hbond>
2.8777

> <Gold.Chemscore.Metal>
0.0000

> <Gold.Chemscore.Lipo>
73.2294

> <Gold.Chemscore.Internal_Hbond>
0.0000

> <Gold.Chemscore.DEClash>
0.0453

> <Gold.Chemscore.DEInternal>
3.4408

> <Gold.Chemscore.Rot>
2.7171

> <Gold.Chemscore.Internal.Correction>
   9.000000E+99

> <Gold.Chemscore.Hbonds>
donor molecule, donor type, donor heavy atom, donor atom, acceptor molecule, acceptor atom, score
      L1  H    18    36       P1  7957  0.97
      P1  H  6896  6908       L1     4  0.84
      P1  H  7989  7998       L1    10  0.06
      P1  H  7997  8008       L1     8  0.44

> <Gold.Chemscore.Hbond.Weighted>
-9.6115

> <Gold.Chemscore.Metal.Weighted>
-0.0000

> <Gold.Chemscore.Lipo.Weighted>
-8.5678

> <Gold.Chemscore.Internal_Hbond.Weighted>
0.0000

> <Gold.Chemscore.DEClash.Weighted>
0.0453

> <Gold.Chemscore.DEInternal.Weighted>
3.4408

> <Gold.Chemscore.Rot.Weighted>
6.9558

> <Gold.Chemscore.Internal.Correction.Weighted>
   9.000000E+99

> <Gold.Protein.RotatedTorsions>
[ 6907 6896 6895 6894 ] final -100.84 input  -60.11 | X-H torsion
[ 7974 7965 7964 7962 ] final -179.48 input  175.53 | X-H torsion
[ 8008 7997 7996 7995 ] final  -45.58 input   59.86 | X-H torsion
[ 10167 10162 10161 10158 ] final -161.58 input  -65.29 | X-H torsion
[ 10718 10713 10712 10709 ] final   36.61 input   66.30 | X-H torsion
[ 10763 10752 10751 10750 ] final   59.60 input  -60.55 | X-H torsion
[ 11005 11000 10999 10996 ] final  -87.71 input  -57.11 | X-H torsion

> <Gold.Protein.ActiveResidues>
 VAL166  LYS551  ARG553  GLY616  TRP617  ASP618  TYR619  PRO620  LYS621  CYS622 
 ASP623  PHE694  ASN695  SER759  ASP760  ASP761  ALA762  ILE779  LEU786  VAL792 
 PHE793  MET794  SER795  GLU796  ALA797  LYS798  CYS799  TRP800  GLU811  SER814 

> <Gold.Protein.RotatedAtoms>
  150.7131  134.0826  159.3902 H   0  0  0  0  0  0  0  0  0  0  0  0  # atno 6907 bound_to 6896
  151.8810  135.0451  160.0498 H   0  0  0  0  0  0  0  0  0  0  0  0  # atno 6908 bound_to 6896
  152.2568  133.5227  159.5394 H   0  0  0  0  0  0  0  0  0  0  0  0  # atno 6909 bound_to 6896
  144.7137  140.0711  143.6429 H   0  0  0  0  0  0  0  0  0  0  0  0  # atno 7974 bound_to 7965
  154.4002  140.1393  156.3870 H   0  0  0  0  0  0  0  0  0  0  0  0  # atno 8008 bound_to 7997
  155.7950  140.3477  155.5350 H   0  0  0  0  0  0  0  0  0  0  0  0  # atno 8009 bound_to 7997
  155.8541  140.0946  157.1646 H   0  0  0  0  0  0  0  0  0  0  0  0  # atno 8010 bound_to 7997
  139.6455  144.0181  152.2123 H   0  0  0  0  0  0  0  0  0  0  0  0  # atno 10167 bound_to 10162
  157.3369  130.7527  149.6885 H   0  0  0  0  0  0  0  0  0  0  0  0  # atno 10718 bound_to 10713
  152.9898  135.5566  154.5738 H   0  0  0  0  0  0  0  0  0  0  0  0  # atno 10763 bound_to 10752
  154.5133  135.2803  155.1326 H   0  0  0  0  0  0  0  0  0  0  0  0  # atno 10764 bound_to 10752
  154.2709  135.6363  153.5362 H   0  0  0  0  0  0  0  0  0  0  0  0  # atno 10765 bound_to 10752
  141.1613  133.7527  156.9346 H   0  0  0  0  0  0  0  0  0  0  0  0  # atno 11005 bound_to 11000
  145.9782  139.2921  143.1058 LP  0  0  0  0  0  0  0  0  0  0  0  0  # atno 17320 bound_to 7965
  145.9040  140.9224  143.0488 LP  0  0  0  0  0  0  0  0  0  0  0  0  # atno 17321 bound_to 7965
  139.9881  144.6381  150.7839 LP  0  0  0  0  0  0  0  0  0  0  0  0  # atno 17342 bound_to 10162
  140.7512  143.2969  151.3182 LP  0  0  0  0  0  0  0  0  0  0  0  0  # atno 17343 bound_to 10162
  155.9702  130.4179  150.4300 LP  0  0  0  0  0  0  0  0  0  0  0  0  # atno 17370 bound_to 10713
  157.2342  131.0511  151.2475 LP  0  0  0  0  0  0  0  0  0  0  0  0  # atno 17371 bound_to 10713
  140.1363  134.9323  157.2406 LP  0  0  0  0  0  0  0  0  0  0  0  0  # atno 17394 bound_to 11000
  140.2891  134.3261  155.7320 LP  0  0  0  0  0  0  0  0  0  0  0  0  # atno 17395 bound_to 11000

$$$$
