AV-unprocessed.smi:761|AV-procd|sdf|3630|dock2
  -GOLD-   22720 1 23D 1   1.00000     0.00000
 Structure written by MMmdl.
 34 35  0  0  0  0  0  0  0  0  2 V2000
  147.7553  139.8346  154.1306 O   0  0  0  0  0  0  0  0  0  0  0  0
  148.2265  138.9110  153.4670 C   0  0  0  0  0  0  0  0  0  0  0  0
  147.5234  138.2379  152.5448 N   0  0  0  0  0  0  0  0  0  0  0  0
  146.1351  138.5160  152.1959 C   0  0  0  0  0  0  0  0  0  0  0  0
  145.1860  137.4413  152.7576 C   0  0  0  0  0  0  0  0  0  0  0  0
  144.6607  136.5542  151.6944 N   0  3  0  0  0  0  0  0  0  0  0  0
  143.7152  135.5028  152.1694 C   0  0  0  0  0  0  0  0  0  0  0  0
  144.0907  134.3032  151.3463 C   0  0  0  0  0  0  0  0  0  0  0  0
  145.1863  134.5290  150.6303 C   0  0  0  0  0  0  0  0  0  0  0  0
  145.7184  135.9149  150.8619 C   0  0  0  0  0  0  0  0  0  0  0  0
  149.4767  138.4293  153.5755 N   0  0  0  0  0  0  0  0  0  0  0  0
  150.5330  138.8812  154.4127 C   0  0  0  0  0  0  0  0  0  0  0  0
  151.7553  138.1795  154.3638 C   0  0  0  0  0  0  0  0  0  0  0  0
  152.8237  138.6182  155.1712 C   0  0  0  0  0  0  0  0  0  0  0  0
  152.7438  139.6883  155.9896 N   0  0  0  0  0  0  0  0  0  0  0  0
  151.5782  140.3680  156.0241 C   0  0  0  0  0  0  0  0  0  0  0  0
  150.4492  140.0135  155.2587 C   0  0  0  0  0  0  0  0  0  0  0  0
  147.9813  137.4883  152.0465 H   0  0  0  0  0  0  0  0  0  0  0  0
  145.8624  139.5097  152.5554 H   0  0  0  0  0  0  0  0  0  0  0  0
  146.0585  138.5488  151.1087 H   0  0  0  0  0  0  0  0  0  0  0  0
  145.7306  136.8338  153.4820 H   0  0  0  0  0  0  0  0  0  0  0  0
  144.3512  137.8951  153.2940 H   0  0  0  0  0  0  0  0  0  0  0  0
  143.8475  135.2732  153.2279 H   0  0  0  0  0  0  0  0  0  0  0  0
  142.6810  135.7998  151.9942 H   0  0  0  0  0  0  0  0  0  0  0  0
  143.5323  133.3788  151.3709 H   0  0  0  0  0  0  0  0  0  0  0  0
  145.6690  133.8195  149.9742 H   0  0  0  0  0  0  0  0  0  0  0  0
  145.8552  136.4538  149.9240 H   0  0  0  0  0  0  0  0  0  0  0  0
  146.6747  135.8544  151.3835 H   0  0  0  0  0  0  0  0  0  0  0  0
  149.6866  137.6110  153.0230 H   0  0  0  0  0  0  0  0  0  0  0  0
  151.8765  137.3172  153.7244 H   0  0  0  0  0  0  0  0  0  0  0  0
  153.7688  138.0958  155.1568 H   0  0  0  0  0  0  0  0  0  0  0  0
  151.5449  141.2268  156.6781 H   0  0  0  0  0  0  0  0  0  0  0  0
  149.5589  140.6188  155.3269 H   0  0  0  0  0  0  0  0  0  0  0  0
  144.1334  137.1352  151.0585 H   0  0  0  0  0  0  0  0  0  0  0  0
  1  2  2  0  0  0  0
  2  3  1  0  0  0  0
  2 11  1  0  0  0  0
  3  4  1  0  0  0  0
  3 18  1  0  0  0  0
  4  5  1  0  0  0  0
  4 19  1  0  0  0  0
  4 20  1  0  0  0  0
  5  6  1  0  0  0  0
  5 21  1  0  0  0  0
  5 22  1  0  0  0  0
  6 10  1  0  0  0  0
  6  7  1  0  0  0  0
  6 34  1  0  0  0  0
  7  8  1  0  0  0  0
  7 23  1  0  0  0  0
  7 24  1  0  0  0  0
  8  9  2  0  0  0  0
  8 25  1  0  0  0  0
  9 10  1  0  0  0  0
  9 26  1  0  0  0  0
 10 27  1  0  0  0  0
 10 28  1  0  0  0  0
 11 12  1  0  0  0  0
 11 29  1  0  0  0  0
 12 17  1  0  0  0  0
 12 13  2  0  0  0  0
 13 14  1  0  0  0  0
 13 30  1  0  0  0  0
 14 15  2  0  0  0  0
 14 31  1  0  0  0  0
 15 16  1  0  0  0  0
 16 17  2  0  0  0  0
 16 32  1  0  0  0  0
 17 33  1  0  0  0  0
M  CHG  1   6   1
M  END
> <s_m_source_file>
AV-unprocessed.smi

> <i_m_source_file_index>
761

> <i_lp_mmshare_version>
43012

> <i_f3d_flags>
0

> <s_epik_input>
W2NIXTFbY0hdbltjSF1bY0hdYzFbTkhdQyg9TylbTkhdW0NIMl1bQ0gyXU4yW0NIMl1bQ0hdPVtDSF1bQ0gyXTI=

> <s_epik_cmdline>
J2VwaWtfcHl0aG9uJywgJy1waCcsICc3LjAnLCAnLXRuJywgJzgnLCAnLW1hJywgJzIwMCcsICctbWV0YWxfYmluZGluZycsICctaW1hZScsICc8aW5maWxlLm1hZT4nLCAnLW9tYWUnLCAnPG91dGZpbGUubWFlPic=

> <r_epik_Ionization_Penalty>
0.100973

> <r_epik_Ionization_Penalty_Charging>
0.00265978

> <r_epik_Ionization_Penalty_Neutral>
0.098313

> <r_epik_State_Penalty>
0.0959991

> <r_epik_Charging_Adjusted_Penalty>
0.0986589

> <i_epik_Tot_Q>
1

> <i_epik_Tot_abs_Q>
1

> <r_epik_Metal_State_Penalty>
0.0816347

> <b_epik_Metal_Only>
0

> <s_lp_Force_Field>
OPLS_2005

> <r_lp_Energy>
25.6578

> <b_lp_Chiralities_Consistent>
1

> <s_lp_Variant>
AV-unprocessed.smi:761-1

> <Gold.Version>
5.8.1

> <Gold.Id.Protein>
6NUR|6NUR_protein|mol2

> <Gold.PLP.Fitness>
45.3486

> <Gold.PLP.PLP>
-34.1978

> <Gold.PLP.part.hbond>
-5.8794

> <Gold.PLP.part.metal>
0.0000

> <Gold.PLP.part.buried>
-0.3503

> <Gold.PLP.part.nonpolar>
-29.2257

> <Gold.PLP.part.repulsive>
0.3013

> <Gold.PLP.ligand.clash>
0.0000

> <Gold.PLP.ligand.torsion>
0.4275

> <Gold.PLP.Chemscore.Hbond>
3.9920

> <Gold.PLP.Chemscore.CHOScore>
0.0000

> <Gold.PLP.Chemscore.Metal>
0.0000

> <Gold.Chemscore.Hbonds>
donor molecule, donor type, donor heavy atom, donor atom, acceptor molecule, acceptor atom, score
      L1  H     3    18       P1  7948  1.00
      L1  H     6    34       P1 10171  1.00
      L1  H    11    29       P1  7948  0.94
      P1  H  7997  8010       L1    15  1.00

> <Gold.PLP.Chemscore.Internal.Correction>
0.0299

> <Gold.Rescore>
     Score         DG    S(hbond)    S(metal)    S(lipo)     H(rot)  DE(clash)    DE(int)     intcor
     20.51     -22.46       3.64        0.00      74.41       1.51       0.37       1.58       ----

> <Gold.Chemscore.Fitness>
20.5133

> <Gold.Chemscore.DG>
-22.4571

> <Gold.Chemscore.ZeroCoef>
-5.4800

> <Gold.Chemscore.Hbond>
3.6350

> <Gold.Chemscore.Metal>
0.0000

> <Gold.Chemscore.Lipo>
74.4115

> <Gold.Chemscore.Internal_Hbond>
0.0000

> <Gold.Chemscore.DEClash>
0.3655

> <Gold.Chemscore.DEInternal>
1.5783

> <Gold.Chemscore.Rot>
1.5117

> <Gold.Chemscore.Internal.Correction>
   9.000000E+99

> <Gold.Chemscore.Hbonds>
donor molecule, donor type, donor heavy atom, donor atom, acceptor molecule, acceptor atom, score
      L1  H     3    18       P1  7948  0.97
      L1  H     6    34       P1 10171  0.98
      L1  H    11    29       P1  7948  0.59
      P1  H  7997  8010       L1    15  0.50

> <Gold.Chemscore.Hbond.Weighted>
-12.1410

> <Gold.Chemscore.Metal.Weighted>
-0.0000

> <Gold.Chemscore.Lipo.Weighted>
-8.7061

> <Gold.Chemscore.Internal_Hbond.Weighted>
0.0000

> <Gold.Chemscore.DEClash.Weighted>
0.3655

> <Gold.Chemscore.DEInternal.Weighted>
1.5783

> <Gold.Chemscore.Rot.Weighted>
3.8700

> <Gold.Chemscore.Internal.Correction.Weighted>
   9.000000E+99

> <Gold.Protein.RotatedTorsions>
[ 6907 6896 6895 6894 ] final  172.56 input  -60.11 | X-H torsion
[ 7974 7965 7964 7962 ] final  106.32 input  175.53 | X-H torsion
[ 8008 7997 7996 7995 ] final   82.11 input   59.86 | X-H torsion
[ 10167 10162 10161 10158 ] final  -68.97 input  -65.29 | X-H torsion
[ 10718 10713 10712 10709 ] final   41.50 input   66.30 | X-H torsion
[ 10763 10752 10751 10750 ] final -162.62 input  -60.55 | X-H torsion
[ 11005 11000 10999 10996 ] final   -5.96 input  -57.11 | X-H torsion

> <Gold.Protein.ActiveResidues>
 VAL166  LYS551  ARG553  GLY616  TRP617  ASP618  TYR619  PRO620  LYS621  CYS622 
 ASP623  PHE694  ASN695  SER759  ASP760  ASP761  ALA762  ILE779  LEU786  VAL792 
 PHE793  MET794  SER795  GLU796  ALA797  LYS798  CYS799  TRP800  GLU811  SER814 

> <Gold.Protein.RotatedAtoms>
  151.7823  133.3351  159.3474 H   0  0  0  0  0  0  0  0  0  0  0  0  # atno 6907 bound_to 6896
  150.7422  134.5920  159.6001 H   0  0  0  0  0  0  0  0  0  0  0  0  # atno 6908 bound_to 6896
  152.3268  134.7312  160.0351 H   0  0  0  0  0  0  0  0  0  0  0  0  # atno 6909 bound_to 6896
  145.3081  139.2548  143.3777 H   0  0  0  0  0  0  0  0  0  0  0  0  # atno 7974 bound_to 7965
  155.9062  140.3430  155.6064 H   0  0  0  0  0  0  0  0  0  0  0  0  # atno 8008 bound_to 7997
  155.7441  140.0811  157.2250 H   0  0  0  0  0  0  0  0  0  0  0  0  # atno 8009 bound_to 7997
  154.4050  140.1565  156.2637 H   0  0  0  0  0  0  0  0  0  0  0  0  # atno 8010 bound_to 7997
  140.5466  143.2313  151.6989 H   0  0  0  0  0  0  0  0  0  0  0  0  # atno 10167 bound_to 10162
  157.3943  130.7824  149.7295 H   0  0  0  0  0  0  0  0  0  0  0  0  # atno 10718 bound_to 10713
  154.7198  135.3023  154.9066 H   0  0  0  0  0  0  0  0  0  0  0  0  # atno 10763 bound_to 10752
  153.9942  135.6715  153.4759 H   0  0  0  0  0  0  0  0  0  0  0  0  # atno 10764 bound_to 10752
  153.0824  135.5002  154.8446 H   0  0  0  0  0  0  0  0  0  0  0  0  # atno 10765 bound_to 10752
  140.6968  133.9023  155.8656 H   0  0  0  0  0  0  0  0  0  0  0  0  # atno 11005 bound_to 11000
  146.3128  140.3611  142.8665 LP  0  0  0  0  0  0  0  0  0  0  0  0  # atno 17320 bound_to 7965
  144.9038  140.7675  143.5850 LP  0  0  0  0  0  0  0  0  0  0  0  0  # atno 17321 bound_to 7965
  139.5010  144.3884  152.0305 LP  0  0  0  0  0  0  0  0  0  0  0  0  # atno 17342 bound_to 10162
  140.2997  144.3660  150.6064 LP  0  0  0  0  0  0  0  0  0  0  0  0  # atno 17343 bound_to 10162
  155.9806  130.4027  150.3518 LP  0  0  0  0  0  0  0  0  0  0  0  0  # atno 17370 bound_to 10713
  157.1638  131.0351  151.2828 LP  0  0  0  0  0  0  0  0  0  0  0  0  # atno 17371 bound_to 10713
  141.0196  134.0907  157.4135 LP  0  0  0  0  0  0  0  0  0  0  0  0  # atno 17394 bound_to 11000
  139.8908  135.0114  156.6754 LP  0  0  0  0  0  0  0  0  0  0  0  0  # atno 17395 bound_to 11000

$$$$
