AV-unprocessed.smi:3179|AV-procd|sdf|12133|dock6
  -GOLD-   2272017573D 1   1.00000     0.00000
 Structure written by MMmdl.
 34 34  0  0  0  0  0  0  0  0  2 V2000
  150.7898  139.2694  155.2820 C   0  0  0  0  0  0  0  0  0  0  0  0
  149.7471  138.7961  154.2658 C   0  0  0  0  0  0  0  0  0  0  0  0
  148.4996  139.5620  154.3882 N   0  3  0  0  0  0  0  0  0  0  0  0
  147.3885  139.3770  153.6488 C   0  0  0  0  0  0  0  0  0  0  0  0
  146.3040  140.1488  153.8573 N   0  0  0  0  0  0  0  0  0  0  0  0
  146.1963  141.2241  154.8519 C   0  0  0  0  0  0  0  0  0  0  0  0
  146.0897  142.5942  154.1768 C   0  0  0  0  0  0  0  0  0  0  0  0
  147.3618  138.4198  152.7009 N   0  0  0  0  0  0  0  0  0  0  0  0
  146.2219  138.1110  151.8273 C   0  0  0  0  0  0  0  0  0  0  0  0
  145.0955  137.4217  152.6061 C   0  0  0  0  0  0  0  0  0  0  0  0
  144.7585  136.0799  152.0478 C   0  0  0  0  0  0  0  0  0  0  0  0
  143.9011  135.2352  152.6274 N   0  0  0  0  0  0  0  0  0  0  0  0
  143.7346  134.0570  151.8950 C   0  0  0  0  0  0  0  0  0  0  0  0
  144.4681  134.0247  150.7364 C   0  0  0  0  0  0  0  0  0  0  0  0
  145.4001  135.4811  150.5217 S   0  0  0  0  0  0  0  0  0  0  0  0
  151.6922  138.6605  155.2225 H   0  0  0  0  0  0  0  0  0  0  0  0
  150.4086  139.1987  156.3011 H   0  0  0  0  0  0  0  0  0  0  0  0
  151.0756  140.3057  155.0999 H   0  0  0  0  0  0  0  0  0  0  0  0
  150.1341  138.8989  153.2520 H   0  0  0  0  0  0  0  0  0  0  0  0
  149.5290  137.7398  154.4244 H   0  0  0  0  0  0  0  0  0  0  0  0
  145.4878  139.9851  153.2852 H   0  0  0  0  0  0  0  0  0  0  0  0
  145.3177  141.0457  155.4722 H   0  0  0  0  0  0  0  0  0  0  0  0
  147.0673  141.1945  155.5067 H   0  0  0  0  0  0  0  0  0  0  0  0
  145.9779  143.3837  154.9202 H   0  0  0  0  0  0  0  0  0  0  0  0
  145.2269  142.6402  153.5114 H   0  0  0  0  0  0  0  0  0  0  0  0
  146.9811  142.8151  153.5890 H   0  0  0  0  0  0  0  0  0  0  0  0
  148.1919  137.8600  152.5688 H   0  0  0  0  0  0  0  0  0  0  0  0
  145.8572  139.0369  151.3811 H   0  0  0  0  0  0  0  0  0  0  0  0
  146.5635  137.4707  151.0136 H   0  0  0  0  0  0  0  0  0  0  0  0
  145.3810  137.3001  153.6517 H   0  0  0  0  0  0  0  0  0  0  0  0
  144.1975  138.0409  152.5969 H   0  0  0  0  0  0  0  0  0  0  0  0
  143.0706  133.2932  152.2718 H   0  0  0  0  0  0  0  0  0  0  0  0
  144.5147  133.2371  149.9989 H   0  0  0  0  0  0  0  0  0  0  0  0
  148.4904  140.2941  155.0838 H   0  0  0  0  0  0  0  0  0  0  0  0
  1  2  1  0  0  0  0
  1 16  1  0  0  0  0
  1 17  1  0  0  0  0
  1 18  1  0  0  0  0
  2  3  1  0  0  0  0
  2 19  1  0  0  0  0
  2 20  1  0  0  0  0
  3  4  2  0  0  0  0
  3 34  1  0  0  0  0
  4  5  1  0  0  0  0
  4  8  1  0  0  0  0
  5  6  1  0  0  0  0
  5 21  1  0  0  0  0
  6  7  1  0  0  0  0
  6 22  1  0  0  0  0
  6 23  1  0  0  0  0
  7 24  1  0  0  0  0
  7 25  1  0  0  0  0
  7 26  1  0  0  0  0
  8  9  1  0  0  0  0
  8 27  1  0  0  0  0
  9 10  1  0  0  0  0
  9 28  1  0  0  0  0
  9 29  1  0  0  0  0
 10 11  1  0  0  0  0
 10 30  1  0  0  0  0
 10 31  1  0  0  0  0
 11 15  1  0  0  0  0
 11 12  2  0  0  0  0
 12 13  1  0  0  0  0
 13 14  2  0  0  0  0
 13 32  1  0  0  0  0
 14 15  1  0  0  0  0
 14 33  1  0  0  0  0
M  CHG  1   3   1
M  END
> <s_m_source_file>
AV-unprocessed.smi

> <i_m_source_file_index>
3179

> <i_lp_mmshare_version>
43012

> <i_f3d_flags>
0

> <s_epik_input>
W0NIM11bQ0gyXS9OPUMoXFtOSF1bQ0gyXVtDSDNdKVtOSF1bQ0gyXVtDSDJdYzFuW2NIXVtjSF1zMQ==

> <s_epik_cmdline>
J2VwaWtfcHl0aG9uJywgJy1waCcsICc3LjAnLCAnLXRuJywgJzgnLCAnLW1hJywgJzIwMCcsICctbWV0YWxfYmluZGluZycsICctaW1hZScsICc8aW5maWxlLm1hZT4nLCAnLW9tYWUnLCAnPG91dGZpbGUubWFlPic=

> <r_lp_tautomer_probability>
1

> <r_epik_Ionization_Penalty>
3.28801e-05

> <r_epik_Ionization_Penalty_Charging>
8.99277e-08

> <r_epik_Ionization_Penalty_Neutral>
3.27902e-05

> <r_epik_State_Penalty>
-0

> <r_epik_Charging_Adjusted_Penalty>
8.99277e-08

> <i_epik_Tot_Q>
1

> <i_epik_Tot_abs_Q>
1

> <r_epik_Metal_State_Penalty>
-0

> <b_epik_Metal_Only>
0

> <s_epik_Chemistry_Notes>
This compound has an imine and may undergo hydrolysis.

> <s_lp_Force_Field>
OPLS_2005

> <r_lp_Energy>
0.365327

> <b_lp_Chiralities_Consistent>
1

> <s_lp_Variant>
AV-unprocessed.smi:3179-2

> <Gold.Version>
5.8.1

> <Gold.Id.Protein>
6NUR|6NUR_protein|mol2

> <Gold.PLP.Fitness>
42.8629

> <Gold.PLP.PLP>
-29.1996

> <Gold.PLP.part.hbond>
-3.2403

> <Gold.PLP.part.metal>
0.0000

> <Gold.PLP.part.buried>
-1.8093

> <Gold.PLP.part.nonpolar>
-25.5600

> <Gold.PLP.part.repulsive>
0.2187

> <Gold.PLP.ligand.clash>
0.0000

> <Gold.PLP.ligand.torsion>
0.5306

> <Gold.PLP.Chemscore.Hbond>
3.9520

> <Gold.PLP.Chemscore.CHOScore>
0.9515

> <Gold.PLP.Chemscore.Metal>
0.0000

> <Gold.Chemscore.Hbonds>
donor molecule, donor type, donor heavy atom, donor atom, acceptor molecule, acceptor atom, score
      L1  H     5    21       P1 10175  1.95
      L1  H     8    27       P1  7948  1.89

> <Gold.PLP.Chemscore.Internal.Correction>
0.0139

> <Gold.Rescore>
     Score         DG    S(hbond)    S(metal)    S(lipo)     H(rot)  DE(clash)    DE(int)     intcor
     13.90     -14.79       1.98        0.00      60.77       1.72       0.15       0.74       ----

> <Gold.Chemscore.Fitness>
13.8985

> <Gold.Chemscore.DG>
-14.7868

> <Gold.Chemscore.ZeroCoef>
-5.4800

> <Gold.Chemscore.Hbond>
1.9751

> <Gold.Chemscore.Metal>
0.0000

> <Gold.Chemscore.Lipo>
60.7661

> <Gold.Chemscore.Internal_Hbond>
0.0000

> <Gold.Chemscore.DEClash>
0.1526

> <Gold.Chemscore.DEInternal>
0.7357

> <Gold.Chemscore.Rot>
1.7187

> <Gold.Chemscore.Internal.Correction>
   9.000000E+99

> <Gold.Chemscore.Hbonds>
donor molecule, donor type, donor heavy atom, donor atom, acceptor molecule, acceptor atom, score
      L1  H     5    21       P1 10175  0.90
      L1  H     8    27       P1  7948  0.92

> <Gold.Chemscore.Hbond.Weighted>
-6.5969

> <Gold.Chemscore.Metal.Weighted>
-0.0000

> <Gold.Chemscore.Lipo.Weighted>
-7.1096

> <Gold.Chemscore.Internal_Hbond.Weighted>
0.0000

> <Gold.Chemscore.DEClash.Weighted>
0.1526

> <Gold.Chemscore.DEInternal.Weighted>
0.7357

> <Gold.Chemscore.Rot.Weighted>
4.3998

> <Gold.Chemscore.Internal.Correction.Weighted>
   9.000000E+99

> <Gold.Protein.RotatedTorsions>
[ 6907 6896 6895 6894 ] final  164.07 input  -60.11 | X-H torsion
[ 7974 7965 7964 7962 ] final   40.56 input  175.53 | X-H torsion
[ 8008 7997 7996 7995 ] final  130.99 input   59.86 | X-H torsion
[ 10167 10162 10161 10158 ] final   35.99 input  -65.29 | X-H torsion
[ 10718 10713 10712 10709 ] final  115.53 input   66.30 | X-H torsion
[ 10763 10752 10751 10750 ] final -117.74 input  -60.55 | X-H torsion
[ 11005 11000 10999 10996 ] final  113.36 input  -57.11 | X-H torsion

> <Gold.Protein.ActiveResidues>
 VAL166  LYS551  ARG553  GLY616  TRP617  ASP618  TYR619  PRO620  LYS621  CYS622 
 ASP623  PHE694  ASN695  SER759  ASP760  ASP761  ALA762  ILE779  LEU786  VAL792 
 PHE793  MET794  SER795  GLU796  ALA797  LYS798  CYS799  TRP800  GLU811  SER814 

> <Gold.Protein.RotatedAtoms>
  151.9155  133.3572  159.3878 H   0  0  0  0  0  0  0  0  0  0  0  0  # atno 6907 bound_to 6896
  150.7048  134.4689  159.5425 H   0  0  0  0  0  0  0  0  0  0  0  0  # atno 6908 bound_to 6896
  152.2303  134.8329  160.0525 H   0  0  0  0  0  0  0  0  0  0  0  0  # atno 6909 bound_to 6896
  146.0895  139.5519  142.9485 H   0  0  0  0  0  0  0  0  0  0  0  0  # atno 7974 bound_to 7965
  156.2963  140.2582  156.2852 H   0  0  0  0  0  0  0  0  0  0  0  0  # atno 8008 bound_to 7997
  154.9563  140.0393  157.2187 H   0  0  0  0  0  0  0  0  0  0  0  0  # atno 8009 bound_to 7997
  154.7988  140.2824  155.5941 H   0  0  0  0  0  0  0  0  0  0  0  0  # atno 8010 bound_to 7997
  140.4170  144.1514  150.6144 H   0  0  0  0  0  0  0  0  0  0  0  0  # atno 10167 bound_to 10162
  157.6216  131.1013  150.7343 H   0  0  0  0  0  0  0  0  0  0  0  0  # atno 10718 bound_to 10713
  154.8565  135.4299  154.2028 H   0  0  0  0  0  0  0  0  0  0  0  0  # atno 10763 bound_to 10752
  153.3071  135.6973  153.7156 H   0  0  0  0  0  0  0  0  0  0  0  0  # atno 10764 bound_to 10752
  153.6263  135.3493  155.3001 H   0  0  0  0  0  0  0  0  0  0  0  0  # atno 10765 bound_to 10752
  139.8951  134.9548  156.6726 H   0  0  0  0  0  0  0  0  0  0  0  0  # atno 11005 bound_to 11000
  145.6066  141.0346  143.1989 LP  0  0  0  0  0  0  0  0  0  0  0  0  # atno 17320 bound_to 7965
  144.7350  139.7613  143.7333 LP  0  0  0  0  0  0  0  0  0  0  0  0  # atno 17321 bound_to 7965
  140.4576  143.2461  151.9264 LP  0  0  0  0  0  0  0  0  0  0  0  0  # atno 17342 bound_to 10162
  139.4782  144.5500  151.8400 LP  0  0  0  0  0  0  0  0  0  0  0  0  # atno 17343 bound_to 10162
  156.7699  130.4825  149.5420 LP  0  0  0  0  0  0  0  0  0  0  0  0  # atno 17370 bound_to 10713
  156.1365  130.6214  151.0407 LP  0  0  0  0  0  0  0  0  0  0  0  0  # atno 17371 bound_to 10713
  140.7361  133.9017  155.8245 LP  0  0  0  0  0  0  0  0  0  0  0  0  # atno 17394 bound_to 11000
  141.0115  134.1014  157.4217 LP  0  0  0  0  0  0  0  0  0  0  0  0  # atno 17395 bound_to 11000

$$$$
