AV-unprocessed.smi:2771|AV-procd|sdf|10663|dock6
  -GOLD-   2272015113D 1   1.00000     0.00000
 Structure written by MMmdl.
 43 44  0  0  0  0  0  0  0  0  1 V2000
  152.6249  143.5978  162.3608 C   0  0  0  0  0  0  0  0  0  0  0  0
  152.8356  142.4435  161.4037 C   0  0  0  0  0  0  0  0  0  0  0  0
  153.8817  141.5206  161.5989 C   0  0  0  0  0  0  0  0  0  0  0  0
  154.0218  140.4721  160.6723 C   0  0  0  0  0  0  0  0  0  0  0  0
  153.1161  140.3893  159.5971 C   0  0  0  0  0  0  0  0  0  0  0  0
  152.0921  141.3554  159.4751 C   0  0  0  0  0  0  0  0  0  0  0  0
  151.2272  141.1787  158.3625 N   0  0  0  0  0  0  0  0  0  0  0  0
  151.4633  140.5013  157.2250 C   0  0  0  0  0  0  0  0  0  0  0  0
  152.4877  139.8670  156.9710 O   0  0  0  0  0  0  0  0  0  0  0  0
  150.4288  140.6017  156.3795 N   0  0  0  0  0  0  0  0  0  0  0  0
  150.3857  140.0134  155.0453 C   0  0  0  0  0  0  0  0  0  0  0  0
  149.0282  140.2969  154.3681 C   0  0  1  0  0  0  0  0  0  0  0  0
  149.3134  141.0615  153.2109 O   0  0  0  0  0  0  0  0  0  0  0  0
  148.2487  139.0274  153.9276 C   0  0  0  0  0  0  0  0  0  0  0  0
  147.0768  139.3847  152.9784 C   0  0  0  0  0  0  0  0  0  0  0  0
  146.2911  138.1440  152.5262 C   0  0  0  0  0  0  0  0  0  0  0  0
  145.7597  137.3567  153.7299 C   0  0  0  0  0  0  0  0  0  0  0  0
  146.9060  136.9762  154.6756 C   0  0  0  0  0  0  0  0  0  0  0  0
  147.6994  138.2146  155.1257 C   0  0  0  0  0  0  0  0  0  0  0  0
  151.9664  142.3641  160.3733 N   0  0  0  0  0  0  0  0  0  0  0  0
  153.3637  143.5871  163.1626 H   0  0  0  0  0  0  0  0  0  0  0  0
  151.6334  143.5409  162.8111 H   0  0  0  0  0  0  0  0  0  0  0  0
  152.7085  144.5483  161.8331 H   0  0  0  0  0  0  0  0  0  0  0  0
  154.5597  141.6107  162.4349 H   0  0  0  0  0  0  0  0  0  0  0  0
  154.8096  139.7419  160.7835 H   0  0  0  0  0  0  0  0  0  0  0  0
  153.2096  139.5888  158.8776 H   0  0  0  0  0  0  0  0  0  0  0  0
  150.3337  141.6426  158.4306 H   0  0  0  0  0  0  0  0  0  0  0  0
  149.6218  141.1344  156.6699 H   0  0  0  0  0  0  0  0  0  0  0  0
  151.2053  140.3815  154.4250 H   0  0  0  0  0  0  0  0  0  0  0  0
  150.5440  138.9443  155.1778 H   0  0  0  0  0  0  0  0  0  0  0  0
  148.4014  140.8914  155.0346 H   0  0  0  0  0  0  0  0  0  0  0  0
  148.9315  140.6278  152.4635 H   0  0  0  0  0  0  0  0  0  0  0  0
  148.9392  138.3833  153.3803 H   0  0  0  0  0  0  0  0  0  0  0  0
  146.3997  140.0793  153.4773 H   0  0  0  0  0  0  0  0  0  0  0  0
  147.4429  139.9006  152.0906 H   0  0  0  0  0  0  0  0  0  0  0  0
  145.4630  138.4431  151.8830 H   0  0  0  0  0  0  0  0  0  0  0  0
  146.9350  137.5027  151.9227 H   0  0  0  0  0  0  0  0  0  0  0  0
  145.0238  137.9572  154.2660 H   0  0  0  0  0  0  0  0  0  0  0  0
  145.2414  136.4597  153.3899 H   0  0  0  0  0  0  0  0  0  0  0  0
  146.5095  136.4527  155.5460 H   0  0  0  0  0  0  0  0  0  0  0  0
  147.5759  136.2764  154.1741 H   0  0  0  0  0  0  0  0  0  0  0  0
  148.5099  137.8736  155.7675 H   0  0  0  0  0  0  0  0  0  0  0  0
  147.0627  138.8511  155.7417 H   0  0  0  0  0  0  0  0  0  0  0  0
  1  2  1  0  0  0  0
  1 21  1  0  0  0  0
  1 22  1  0  0  0  0
  1 23  1  0  0  0  0
  2 20  1  0  0  0  0
  2  3  2  0  0  0  0
  3  4  1  0  0  0  0
  3 24  1  0  0  0  0
  4  5  2  0  0  0  0
  4 25  1  0  0  0  0
  5  6  1  0  0  0  0
  5 26  1  0  0  0  0
  6  7  1  0  0  0  0
  6 20  2  0  0  0  0
  7  8  1  0  0  0  0
  7 27  1  0  0  0  0
  8  9  2  0  0  0  0
  8 10  1  0  0  0  0
 10 11  1  0  0  0  0
 10 28  1  0  0  0  0
 11 12  1  0  0  0  0
 11 29  1  0  0  0  0
 11 30  1  0  0  0  0
 12 13  1  0  0  0  0
 12 14  1  0  0  0  0
 12 31  1  0  0  0  0
 13 32  1  0  0  0  0
 14 19  1  0  0  0  0
 14 15  1  0  0  0  0
 14 33  1  0  0  0  0
 15 16  1  0  0  0  0
 15 34  1  0  0  0  0
 15 35  1  0  0  0  0
 16 17  1  0  0  0  0
 16 36  1  0  0  0  0
 16 37  1  0  0  0  0
 17 18  1  0  0  0  0
 17 38  1  0  0  0  0
 17 39  1  0  0  0  0
 18 19  1  0  0  0  0
 18 40  1  0  0  0  0
 18 41  1  0  0  0  0
 19 42  1  0  0  0  0
 19 43  1  0  0  0  0
M  END
> <s_m_source_file>
AV-unprocessed.smi

> <i_m_source_file_index>
2771

> <i_lp_mmshare_version>
43012

> <i_f3d_flags>
0

> <s_epik_input>
W0NIM11jMVtjSF1bY0hdW2NIXWMobjEpW05IXUMoPU8pW05IXVtDSDJdW0NASF0oW09IXSlbQ0hdMltDSDJdW0NIMl1bQ0gyXVtDSDJdW0NIMl0y

> <s_epik_cmdline>
J2VwaWtfcHl0aG9uJywgJy1waCcsICc3LjAnLCAnLXRuJywgJzgnLCAnLW1hJywgJzIwMCcsICctbWV0YWxfYmluZGluZycsICctaW1hZScsICc8aW5maWxlLm1hZT4nLCAnLW9tYWUnLCAnPG91dGZpbGUubWFlPic=

> <r_lp_tautomer_probability>
1

> <r_epik_Ionization_Penalty>
8.92802e-05

> <r_epik_Ionization_Penalty_Charging>
0

> <r_epik_Ionization_Penalty_Neutral>
8.92802e-05

> <r_epik_State_Penalty>
-0

> <r_epik_Charging_Adjusted_Penalty>
0

> <i_epik_Tot_Q>
0

> <i_epik_Tot_abs_Q>
0

> <r_epik_Metal_State_Penalty>
-0

> <b_epik_Metal_Only>
0

> <s_lp_Force_Field>
OPLS_2005

> <r_lp_Energy>
17.4783

> <b_lp_Chiralities_Consistent>
1

> <s_lp_Variant>
AV-unprocessed.smi:2771-2

> <Gold.Version>
5.8.1

> <Gold.Id.Protein>
6NUR|6NUR_protein|mol2

> <Gold.PLP.Fitness>
43.4602

> <Gold.PLP.PLP>
-38.1378

> <Gold.PLP.part.hbond>
-3.4909

> <Gold.PLP.part.metal>
0.0000

> <Gold.PLP.part.buried>
-3.0718

> <Gold.PLP.part.nonpolar>
-31.3197

> <Gold.PLP.part.repulsive>
0.1971

> <Gold.PLP.ligand.clash>
0.0000

> <Gold.PLP.ligand.torsion>
0.9689

> <Gold.PLP.Chemscore.Hbond>
2.4150

> <Gold.PLP.Chemscore.CHOScore>
0.0000

> <Gold.PLP.Chemscore.Metal>
0.0000

> <Gold.Chemscore.Hbonds>
donor molecule, donor type, donor heavy atom, donor atom, acceptor molecule, acceptor atom, score
      L1  H    13    32       P1  7957  0.62
      P1  H  7989  7998       L1    13  0.04
      P1  H  7997  8010       L1     9  1.00
      P1  H  8011  8017       L1    13  0.70

> <Gold.PLP.Chemscore.Internal.Correction>
0.0153

> <Gold.Rescore>
     Score         DG    S(hbond)    S(metal)    S(lipo)     H(rot)  DE(clash)    DE(int)     intcor
     14.90     -17.41       1.94        0.00      89.30       1.95       0.15       2.35       ----

> <Gold.Chemscore.Fitness>
14.9025

> <Gold.Chemscore.DG>
-17.4060

> <Gold.Chemscore.ZeroCoef>
-5.4800

> <Gold.Chemscore.Hbond>
1.9399

> <Gold.Chemscore.Metal>
0.0000

> <Gold.Chemscore.Lipo>
89.2999

> <Gold.Chemscore.Internal_Hbond>
0.0000

> <Gold.Chemscore.DEClash>
0.1527

> <Gold.Chemscore.DEInternal>
2.3508

> <Gold.Chemscore.Rot>
1.9536

> <Gold.Chemscore.Internal.Correction>
   9.000000E+99

> <Gold.Chemscore.Hbonds>
donor molecule, donor type, donor heavy atom, donor atom, acceptor molecule, acceptor atom, score
      L1  H    13    32       P1  7957  0.60
      P1  H  7997  8010       L1     9  0.99
      P1  H  8011  8017       L1    13  0.07

> <Gold.Chemscore.Hbond.Weighted>
-6.4791

> <Gold.Chemscore.Metal.Weighted>
-0.0000

> <Gold.Chemscore.Lipo.Weighted>
-10.4481

> <Gold.Chemscore.Internal_Hbond.Weighted>
0.0000

> <Gold.Chemscore.DEClash.Weighted>
0.1527

> <Gold.Chemscore.DEInternal.Weighted>
2.3508

> <Gold.Chemscore.Rot.Weighted>
5.0013

> <Gold.Chemscore.Internal.Correction.Weighted>
   9.000000E+99

> <Gold.Protein.RotatedTorsions>
[ 6907 6896 6895 6894 ] final   71.07 input  -60.11 | X-H torsion
[ 7974 7965 7964 7962 ] final -156.99 input  175.53 | X-H torsion
[ 8008 7997 7996 7995 ] final   57.52 input   59.86 | X-H torsion
[ 10167 10162 10161 10158 ] final  119.37 input  -65.29 | X-H torsion
[ 10718 10713 10712 10709 ] final  172.01 input   66.30 | X-H torsion
[ 10763 10752 10751 10750 ] final  127.82 input  -60.55 | X-H torsion
[ 11005 11000 10999 10996 ] final   85.20 input  -57.11 | X-H torsion

> <Gold.Protein.ActiveResidues>
 VAL166  LYS551  ARG553  GLY616  TRP617  ASP618  TYR619  PRO620  LYS621  CYS622 
 ASP623  PHE694  ASN695  SER759  ASP760  ASP761  ALA762  ILE779  LEU786  VAL792 
 PHE793  MET794  SER795  GLU796  ALA797  LYS798  CYS799  TRP800  GLU811  SER814 

> <Gold.Protein.RotatedAtoms>
  152.4788  134.4775  159.9654 H   0  0  0  0  0  0  0  0  0  0  0  0  # atno 6907 bound_to 6896
  151.4785  133.3546  159.2842 H   0  0  0  0  0  0  0  0  0  0  0  0  # atno 6908 bound_to 6896
  150.8845  134.8267  159.7310 H   0  0  0  0  0  0  0  0  0  0  0  0  # atno 6909 bound_to 6896
  144.7568  140.4032  143.6006 H   0  0  0  0  0  0  0  0  0  0  0  0  # atno 7974 bound_to 7965
  155.5351  140.3483  155.4434 H   0  0  0  0  0  0  0  0  0  0  0  0  # atno 8008 bound_to 7997
  156.0691  140.1358  156.9877 H   0  0  0  0  0  0  0  0  0  0  0  0  # atno 8009 bound_to 7997
  154.4518  140.0969  156.6616 H   0  0  0  0  0  0  0  0  0  0  0  0  # atno 8010 bound_to 7997
  139.6050  144.7067  151.2974 H   0  0  0  0  0  0  0  0  0  0  0  0  # atno 10167 bound_to 10162
  156.9852  131.0131  151.2871 H   0  0  0  0  0  0  0  0  0  0  0  0  # atno 10718 bound_to 10713
  153.7155  135.3261  155.3255 H   0  0  0  0  0  0  0  0  0  0  0  0  # atno 10763 bound_to 10752
  154.8372  135.4487  154.1270 H   0  0  0  0  0  0  0  0  0  0  0  0  # atno 10764 bound_to 10752
  153.2376  135.6967  153.7899 H   0  0  0  0  0  0  0  0  0  0  0  0  # atno 10765 bound_to 10752
  139.8978  134.8270  156.2549 H   0  0  0  0  0  0  0  0  0  0  0  0  # atno 11005 bound_to 11000
  145.6752  139.1607  143.2732 LP  0  0  0  0  0  0  0  0  0  0  0  0  # atno 17320 bound_to 7965
  146.1587  140.6820  142.9287 LP  0  0  0  0  0  0  0  0  0  0  0  0  # atno 17321 bound_to 7965
  140.7278  143.6952  150.7889 LP  0  0  0  0  0  0  0  0  0  0  0  0  # atno 17342 bound_to 10162
  140.0536  143.5225  152.2662 LP  0  0  0  0  0  0  0  0  0  0  0  0  # atno 17343 bound_to 10162
  157.5498  130.8175  149.8131 LP  0  0  0  0  0  0  0  0  0  0  0  0  # atno 17370 bound_to 10713
  156.0229  130.3789  150.1909 LP  0  0  0  0  0  0  0  0  0  0  0  0  # atno 17371 bound_to 10713
  141.0200  133.7047  156.1252 LP  0  0  0  0  0  0  0  0  0  0  0  0  # atno 17394 bound_to 11000
  140.7247  134.4320  157.5571 LP  0  0  0  0  0  0  0  0  0  0  0  0  # atno 17395 bound_to 11000

$$$$
