AV-unprocessed.smi:1400|AV-procd|sdf|5687|dock3
  -GOLD-   22720 5313D 1   1.00000     0.00000
 Structure written by MMmdl.
 33 34  0  0  0  0  0  0  0  0  2 V2000
  152.2362  144.8756  161.3340 C   0  0  0  0  0  0  0  0  0  0  0  0
  152.1932  143.3818  161.0042 C   0  0  0  0  0  0  0  0  0  0  0  0
  151.8978  142.5991  161.9076 O   0  0  0  0  0  0  0  0  0  0  0  0
  152.4743  142.9731  159.7433 N   0  0  0  0  0  0  0  0  0  0  0  0
  152.3735  141.5707  159.3222 C   0  0  0  0  0  0  0  0  0  0  0  0
  151.1767  141.4228  158.3652 C   0  0  0  0  0  0  0  0  0  0  0  0
  151.2998  142.3797  157.1602 C   0  0  0  0  0  0  0  0  0  0  0  0
  150.0718  142.3359  156.3703 N   0  0  0  0  0  0  0  0  0  0  0  0
  149.8006  141.4738  155.3794 C   0  0  0  0  0  0  0  0  0  0  0  0
  150.6328  140.6217  155.0595 O   0  0  0  0  0  0  0  0  0  0  0  0
  148.5816  141.6522  154.8207 N   0  5  0  0  0  0  0  0  0  0  0  0
  148.0376  140.6802  154.0701 C   0  0  0  0  0  0  0  0  0  0  0  0
  147.0240  140.8942  153.2233 N   0  0  0  0  0  0  0  0  0  0  0  0
  146.6113  139.7434  152.5489 C   0  0  0  0  0  0  0  0  0  0  0  0
  147.3217  138.6251  152.8965 C   0  0  0  0  0  0  0  0  0  0  0  0
  148.5362  138.9858  154.0901 S   0  0  0  0  0  0  0  0  0  0  0  0
  151.6043  143.8241  157.6197 C   0  0  0  0  0  0  0  0  0  0  0  0
  152.7807  143.8573  158.6114 C   0  0  0  0  0  0  0  0  0  0  0  0
  151.5447  145.4321  160.7006 H   0  0  0  0  0  0  0  0  0  0  0  0
  153.2423  145.2726  161.1970 H   0  0  0  0  0  0  0  0  0  0  0  0
  151.9485  145.0483  162.3717 H   0  0  0  0  0  0  0  0  0  0  0  0
  153.2953  141.2771  158.8181 H   0  0  0  0  0  0  0  0  0  0  0  0
  152.2626  140.8832  160.1617 H   0  0  0  0  0  0  0  0  0  0  0  0
  151.1027  140.3916  158.0180 H   0  0  0  0  0  0  0  0  0  0  0  0
  150.2554  141.6321  158.9113 H   0  0  0  0  0  0  0  0  0  0  0  0
  152.1319  142.0292  156.5464 H   0  0  0  0  0  0  0  0  0  0  0  0
  149.3617  143.0168  156.5954 H   0  0  0  0  0  0  0  0  0  0  0  0
  145.8018  139.8122  151.8375 H   0  0  0  0  0  0  0  0  0  0  0  0
  147.2051  137.6174  152.5277 H   0  0  0  0  0  0  0  0  0  0  0  0
  151.8291  144.4541  156.7584 H   0  0  0  0  0  0  0  0  0  0  0  0
  150.7218  144.2551  158.0951 H   0  0  0  0  0  0  0  0  0  0  0  0
  152.9900  144.8855  158.9027 H   0  0  0  0  0  0  0  0  0  0  0  0
  153.6890  143.5056  158.1200 H   0  0  0  0  0  0  0  0  0  0  0  0
  1  2  1  0  0  0  0
  1 19  1  0  0  0  0
  1 20  1  0  0  0  0
  1 21  1  0  0  0  0
  2  3  2  0  0  0  0
  2  4  1  0  0  0  0
  4 18  1  0  0  0  0
  4  5  1  0  0  0  0
  5  6  1  0  0  0  0
  5 22  1  0  0  0  0
  5 23  1  0  0  0  0
  6  7  1  0  0  0  0
  6 24  1  0  0  0  0
  6 25  1  0  0  0  0
  7  8  1  0  0  0  0
  7 17  1  0  0  0  0
  7 26  1  0  0  0  0
  8  9  1  0  0  0  0
  8 27  1  0  0  0  0
  9 10  2  0  0  0  0
  9 11  1  0  0  0  0
 11 12  1  0  0  0  0
 12 16  1  0  0  0  0
 12 13  2  0  0  0  0
 13 14  1  0  0  0  0
 14 15  2  0  0  0  0
 14 28  1  0  0  0  0
 15 16  1  0  0  0  0
 15 29  1  0  0  0  0
 17 18  1  0  0  0  0
 17 30  1  0  0  0  0
 17 31  1  0  0  0  0
 18 32  1  0  0  0  0
 18 33  1  0  0  0  0
M  CHG  1  11  -1
M  END
> <s_m_source_file>
AV-unprocessed.smi

> <i_m_source_file_index>
1400

> <i_lp_mmshare_version>
43012

> <i_f3d_flags>
0

> <s_epik_input>
W0NIM11DKD1PKU4xW0NIMl1bQ0gyXVtDSF0oW0NIMl1bQ0gyXTEpW05IXUMoPU8pW05IXWMybltjSF1bY0hdczI=

> <s_epik_cmdline>
J2VwaWtfcHl0aG9uJywgJy1waCcsICc3LjAnLCAnLXRuJywgJzgnLCAnLW1hJywgJzIwMCcsICctbWV0YWxfYmluZGluZycsICctaW1hZScsICc8aW5maWxlLm1hZT4nLCAnLW9tYWUnLCAnPG91dGZpbGUubWFlPic=

> <r_lp_tautomer_probability>
1

> <r_epik_Ionization_Penalty>
6.84544

> <r_epik_Ionization_Penalty_Charging>
5.78648

> <r_epik_Ionization_Penalty_Neutral>
1.05897

> <r_epik_State_Penalty>
5.78644

> <r_epik_Charging_Adjusted_Penalty>
11.5729

> <i_epik_Tot_Q>
-1

> <i_epik_Tot_abs_Q>
1

> <r_epik_Metal_State_Penalty>
1.75808

> <b_epik_Metal_Only>
1

> <s_lp_Force_Field>
OPLS_2005

> <r_lp_Energy>
18.2538

> <b_lp_Chiralities_Consistent>
1

> <s_lp_Variant>
AV-unprocessed.smi:1400-2

> <Gold.Version>
5.8.1

> <Gold.Id.Protein>
6NUR|6NUR_protein|mol2

> <Gold.PLP.Fitness>
47.4420

> <Gold.PLP.PLP>
-36.1400

> <Gold.PLP.part.hbond>
-3.0000

> <Gold.PLP.part.metal>
0.0000

> <Gold.PLP.part.buried>
-0.8599

> <Gold.PLP.part.nonpolar>
-33.0313

> <Gold.PLP.part.repulsive>
0.6061

> <Gold.PLP.ligand.clash>
0.0000

> <Gold.PLP.ligand.torsion>
0.5094

> <Gold.PLP.Chemscore.Hbond>
2.3512

> <Gold.PLP.Chemscore.CHOScore>
1.7505

> <Gold.PLP.Chemscore.Metal>
0.0000

> <Gold.Chemscore.Hbonds>
donor molecule, donor type, donor heavy atom, donor atom, acceptor molecule, acceptor atom, score
      L1  H     8    27       P1  8028  0.61
      P1  H  6933  6945       L1     3  0.80
      P1  H  7989  7998       L1    10  0.94
      L1  C    14    28       P1 10175  0.85
      L1  C    15    29       P1  7948  0.90

> <Gold.PLP.Chemscore.Internal.Correction>
0.0155

> <Gold.Rescore>
     Score         DG    S(hbond)    S(metal)    S(lipo)     H(rot)  DE(clash)    DE(int)     intcor
     16.98     -19.79       2.16        0.00      82.42       1.00       0.96       1.85       ----

> <Gold.Chemscore.Fitness>
16.9764

> <Gold.Chemscore.DG>
-19.7866

> <Gold.Chemscore.ZeroCoef>
-5.4800

> <Gold.Chemscore.Hbond>
2.1627

> <Gold.Chemscore.Metal>
0.0000

> <Gold.Chemscore.Lipo>
82.4201

> <Gold.Chemscore.Internal_Hbond>
0.0000

> <Gold.Chemscore.DEClash>
0.9625

> <Gold.Chemscore.DEInternal>
1.8477

> <Gold.Chemscore.Rot>
1.0000

> <Gold.Chemscore.Internal.Correction>
   9.000000E+99

> <Gold.Chemscore.Hbonds>
donor molecule, donor type, donor heavy atom, donor atom, acceptor molecule, acceptor atom, score
      L1  H     8    27       P1  8028  0.58
      P1  H  6933  6945       L1     3  0.75
      P1  H  7989  7998       L1    10  0.87

> <Gold.Chemscore.Hbond.Weighted>
-7.2235

> <Gold.Chemscore.Metal.Weighted>
-0.0000

> <Gold.Chemscore.Lipo.Weighted>
-9.6431

> <Gold.Chemscore.Internal_Hbond.Weighted>
0.0000

> <Gold.Chemscore.DEClash.Weighted>
0.9625

> <Gold.Chemscore.DEInternal.Weighted>
1.8477

> <Gold.Chemscore.Rot.Weighted>
2.5600

> <Gold.Chemscore.Internal.Correction.Weighted>
   9.000000E+99

> <Gold.Protein.RotatedTorsions>
[ 6907 6896 6895 6894 ] final    2.50 input  -60.11 | X-H torsion
[ 7974 7965 7964 7962 ] final  -17.17 input  175.53 | X-H torsion
[ 8008 7997 7996 7995 ] final  149.96 input   59.86 | X-H torsion
[ 10167 10162 10161 10158 ] final  -38.21 input  -65.29 | X-H torsion
[ 10718 10713 10712 10709 ] final   69.13 input   66.30 | X-H torsion
[ 10763 10752 10751 10750 ] final  -83.73 input  -60.55 | X-H torsion
[ 11005 11000 10999 10996 ] final  -51.90 input  -57.11 | X-H torsion

> <Gold.Protein.ActiveResidues>
 VAL166  LYS551  ARG553  GLY616  TRP617  ASP618  TYR619  PRO620  LYS621  CYS622 
 ASP623  PHE694  ASN695  SER759  ASP760  ASP761  ALA762  ILE779  LEU786  VAL792 
 PHE793  MET794  SER795  GLU796  ALA797  LYS798  CYS799  TRP800  GLU811  SER814 

> <Gold.Protein.RotatedAtoms>
  151.6099  135.1041  160.0078 H   0  0  0  0  0  0  0  0  0  0  0  0  # atno 6907 bound_to 6896
  152.4214  133.7118  159.6494 H   0  0  0  0  0  0  0  0  0  0  0  0  # atno 6908 bound_to 6896
  150.8101  133.8364  159.3208 H   0  0  0  0  0  0  0  0  0  0  0  0  # atno 6909 bound_to 6896
  146.1953  140.3741  142.8443 H   0  0  0  0  0  0  0  0  0  0  0  0  # atno 7974 bound_to 7965
  156.2735  140.2088  156.5941 H   0  0  0  0  0  0  0  0  0  0  0  0  # atno 8008 bound_to 7997
  154.6959  140.0525  157.0433 H   0  0  0  0  0  0  0  0  0  0  0  0  # atno 8009 bound_to 7997
  155.0802  140.3186  155.4607 H   0  0  0  0  0  0  0  0  0  0  0  0  # atno 8010 bound_to 7997
  140.7098  143.3292  151.2609 H   0  0  0  0  0  0  0  0  0  0  0  0  # atno 10167 bound_to 10162
  157.6328  130.9410  150.0472 H   0  0  0  0  0  0  0  0  0  0  0  0  # atno 10718 bound_to 10713
  154.5911  135.5546  153.7280 H   0  0  0  0  0  0  0  0  0  0  0  0  # atno 10763 bound_to 10752
  153.0117  135.6343  154.1847 H   0  0  0  0  0  0  0  0  0  0  0  0  # atno 10764 bound_to 10752
  154.1788  135.2888  155.3038 H   0  0  0  0  0  0  0  0  0  0  0  0  # atno 10765 bound_to 10752
  141.0896  133.6635  156.3945 H   0  0  0  0  0  0  0  0  0  0  0  0  # atno 11005 bound_to 11000
  144.8569  140.7083  143.6132 LP  0  0  0  0  0  0  0  0  0  0  0  0  # atno 17320 bound_to 7965
  145.3662  139.1669  143.4356 LP  0  0  0  0  0  0  0  0  0  0  0  0  # atno 17321 bound_to 7965
  139.6769  143.9923  152.2786 LP  0  0  0  0  0  0  0  0  0  0  0  0  # atno 17342 bound_to 10162
  139.9540  144.6602  150.8144 LP  0  0  0  0  0  0  0  0  0  0  0  0  # atno 17343 bound_to 10162
  156.1545  130.3643  149.9389 LP  0  0  0  0  0  0  0  0  0  0  0  0  # atno 17370 bound_to 10713
  156.7402  130.9076  151.3631 LP  0  0  0  0  0  0  0  0  0  0  0  0  # atno 17371 bound_to 10713
  140.5284  134.6236  157.5342 LP  0  0  0  0  0  0  0  0  0  0  0  0  # atno 17394 bound_to 11000
  139.9719  134.7279  156.0025 LP  0  0  0  0  0  0  0  0  0  0  0  0  # atno 17395 bound_to 11000

$$$$
