AV-unprocessed.smi:1744|AV-procd|sdf|7028|dock2
  -GOLD-   22720 8243D 1   1.00000     0.00000
 Structure written by MMmdl.
 43 44  0  0  0  0  0  0  0  0  3 V2000
  150.9230  145.1959  159.6088 C   0  0  0  0  0  0  0  0  0  0  0  0
  152.3546  144.6665  159.4594 C   0  0  0  0  0  0  0  0  0  0  0  0
  152.3846  143.2212  159.3484 N   0  0  0  0  0  0  0  0  0  0  0  0
  151.5624  142.4042  158.5981 C   0  0  0  0  0  0  0  0  0  0  0  0
  151.9954  141.1323  158.8251 C   0  0  0  0  0  0  0  0  0  0  0  0
  151.4331  139.9690  158.2424 N   0  0  0  0  0  0  0  0  0  0  0  0
  151.7150  139.4493  157.0365 C   0  0  0  0  0  0  0  0  0  0  0  0
  152.5454  139.9002  156.2480 O   0  0  0  0  0  0  0  0  0  0  0  0
  150.9716  138.3615  156.7873 N   0  0  0  0  0  0  0  0  0  0  0  0
  151.0311  137.5612  155.5641 C   0  0  2  0  0  0  0  0  0  0  0  0
  150.8440  138.4269  154.3024 C   0  0  0  0  0  0  0  0  0  0  0  0
  149.4011  138.9440  154.1674 C   0  0  0  0  0  0  0  0  0  0  0  0
  148.4249  137.8212  154.1810 N   0  3  2  0  0  0  0  0  0  0  0  0
  147.0297  138.2569  153.9230 C   0  0  0  0  0  0  0  0  0  0  0  0
  146.9700  139.1341  152.6680 C   0  0  0  0  0  0  0  0  0  0  0  0
  147.1636  138.4286  151.5376 N   0  5  0  0  0  0  0  0  0  0  0  0
  146.7490  140.3383  152.7783 O   0  0  0  0  0  0  0  0  0  0  0  0
  148.5412  137.0098  155.4192 C   0  0  0  0  0  0  0  0  0  0  0  0
  149.9660  136.4515  155.5921 C   0  0  0  0  0  0  0  0  0  0  0  0
  153.0885  141.2497  159.7297 C   0  0  0  0  0  0  0  0  0  0  0  0
  153.3144  142.5173  160.0400 N   0  0  0  0  0  0  0  0  0  0  0  0
  150.9184  146.2827  159.6933 H   0  0  0  0  0  0  0  0  0  0  0  0
  150.4442  144.7904  160.5006 H   0  0  0  0  0  0  0  0  0  0  0  0
  150.3104  144.9273  158.7477 H   0  0  0  0  0  0  0  0  0  0  0  0
  152.8280  145.0964  158.5758 H   0  0  0  0  0  0  0  0  0  0  0  0
  152.9574  144.9637  160.3182 H   0  0  0  0  0  0  0  0  0  0  0  0
  150.7639  142.7913  157.9824 H   0  0  0  0  0  0  0  0  0  0  0  0
  150.7387  139.4905  158.7969 H   0  0  0  0  0  0  0  0  0  0  0  0
  150.3191  138.0623  157.4970 H   0  0  0  0  0  0  0  0  0  0  0  0
  152.0129  137.0857  155.5218 H   0  0  0  0  0  0  0  0  0  0  0  0
  151.5429  139.2640  154.3015 H   0  0  0  0  0  0  0  0  0  0  0  0
  151.0896  137.8317  153.4219 H   0  0  0  0  0  0  0  0  0  0  0  0
  149.1712  139.6394  154.9759 H   0  0  0  0  0  0  0  0  0  0  0  0
  149.3151  139.5076  153.2380 H   0  0  0  0  0  0  0  0  0  0  0  0
  146.3986  137.3886  153.7285 H   0  0  0  0  0  0  0  0  0  0  0  0
  146.6149  138.7500  154.8050 H   0  0  0  0  0  0  0  0  0  0  0  0
  147.5928  137.4979  151.6050 H   0  0  0  0  0  0  0  0  0  0  0  0
  148.2624  137.6186  156.2805 H   0  0  0  0  0  0  0  0  0  0  0  0
  147.8367  136.1779  155.3805 H   0  0  0  0  0  0  0  0  0  0  0  0
  150.1684  135.7433  154.7872 H   0  0  0  0  0  0  0  0  0  0  0  0
  150.0366  135.8821  156.5197 H   0  0  0  0  0  0  0  0  0  0  0  0
  153.7172  140.4867  160.1636 H   0  0  0  0  0  0  0  0  0  0  0  0
  148.6674  137.2100  153.4140 H   0  0  0  0  0  0  0  0  0  0  0  0
  1  2  1  0  0  0  0
  1 22  1  0  0  0  0
  1 23  1  0  0  0  0
  1 24  1  0  0  0  0
  2  3  1  0  0  0  0
  2 25  1  0  0  0  0
  2 26  1  0  0  0  0
  3 21  1  0  0  0  0
  3  4  1  0  0  0  0
  4  5  2  0  0  0  0
  4 27  1  0  0  0  0
  5  6  1  0  0  0  0
  5 20  1  0  0  0  0
  6  7  1  0  0  0  0
  6 28  1  0  0  0  0
  7  8  2  0  0  0  0
  7  9  1  0  0  0  0
  9 10  1  0  0  0  0
  9 29  1  0  0  0  0
 10 19  1  0  0  0  0
 10 11  1  0  0  0  0
 10 30  1  0  0  0  0
 11 12  1  0  0  0  0
 11 31  1  0  0  0  0
 11 32  1  0  0  0  0
 12 13  1  0  0  0  0
 12 33  1  0  0  0  0
 12 34  1  0  0  0  0
 13 14  1  0  0  0  0
 13 18  1  0  0  0  0
 13 43  1  0  0  0  0
 14 15  1  0  0  0  0
 14 35  1  0  0  0  0
 14 36  1  0  0  0  0
 15 16  1  0  0  0  0
 15 17  2  0  0  0  0
 16 37  1  0  0  0  0
 18 19  1  0  0  0  0
 18 38  1  0  0  0  0
 18 39  1  0  0  0  0
 19 40  1  0  0  0  0
 19 41  1  0  0  0  0
 20 21  2  0  0  0  0
 20 42  1  0  0  0  0
M  CHG  1  13   1
M  CHG  1  16  -1
M  END
> <s_m_source_file>
AV-unprocessed.smi

> <i_m_source_file_index>
1744

> <i_lp_mmshare_version>
43012

> <i_f3d_flags>
0

> <s_epik_input>
W0NIM11bQ0gyXW4xW2NIXWMoW2NIXW4xKVtOSF1DKD1PKVtOSF1bQ0hdMltDSDJdW0NIMl1OKFtDSDJdW0NIMl0yKVtDSDJdQyg9TylbTkgyXQ==

> <s_epik_cmdline>
J2VwaWtfcHl0aG9uJywgJy1waCcsICc3LjAnLCAnLXRuJywgJzgnLCAnLW1hJywgJzIwMCcsICctbWV0YWxfYmluZGluZycsICctaW1hZScsICc8aW5maWxlLm1hZT4nLCAnLW9tYWUnLCAnPG91dGZpbGUubWFlPic=

> <r_lp_tautomer_probability>
1

> <r_epik_Ionization_Penalty>
5.72895

> <r_epik_Ionization_Penalty_Charging>
5.7288

> <r_epik_Ionization_Penalty_Neutral>
0.000148676

> <r_epik_State_Penalty>
6.54882

> <r_epik_Charging_Adjusted_Penalty>
12.2776

> <i_epik_Tot_Q>
0

> <i_epik_Tot_abs_Q>
2

> <r_epik_Metal_State_Penalty>
2.51309

> <b_epik_Metal_Only>
1

> <s_lp_Force_Field>
OPLS_2005

> <r_lp_Energy>
11.9421

> <b_lp_Chiralities_Consistent>
1

> <s_lp_Variant>
AV-unprocessed.smi:1744-5

> <Gold.Version>
5.8.1

> <Gold.Id.Protein>
6NUR|6NUR_protein|mol2

> <Gold.PLP.Fitness>
48.5639

> <Gold.PLP.PLP>
-38.7732

> <Gold.PLP.part.hbond>
-5.0000

> <Gold.PLP.part.metal>
0.0000

> <Gold.PLP.part.buried>
-5.4052

> <Gold.PLP.part.nonpolar>
-28.6917

> <Gold.PLP.part.repulsive>
0.4647

> <Gold.PLP.ligand.clash>
0.0000

> <Gold.PLP.ligand.torsion>
1.1237

> <Gold.PLP.Chemscore.Hbond>
4.0000

> <Gold.PLP.Chemscore.CHOScore>
0.0000

> <Gold.PLP.Chemscore.Metal>
0.0000

> <Gold.Chemscore.Hbonds>
donor molecule, donor type, donor heavy atom, donor atom, acceptor molecule, acceptor atom, score
      L1  H    13    43       P1  7948  2.00
      L1  H    16    37       P1  7948  1.00
      P1  H  7997  8008       L1     8  1.00

> <Gold.PLP.Chemscore.Internal.Correction>
0.0381

> <Gold.Rescore>
     Score         DG    S(hbond)    S(metal)    S(lipo)     H(rot)  DE(clash)    DE(int)     intcor
     16.87     -18.82       3.00        0.00      76.23       2.18       1.10       0.86       ----

> <Gold.Chemscore.Fitness>
16.8678

> <Gold.Chemscore.DG>
-18.8239

> <Gold.Chemscore.ZeroCoef>
-5.4800

> <Gold.Chemscore.Hbond>
2.9981

> <Gold.Chemscore.Metal>
0.0000

> <Gold.Chemscore.Lipo>
76.2332

> <Gold.Chemscore.Internal_Hbond>
0.0000

> <Gold.Chemscore.DEClash>
1.0953

> <Gold.Chemscore.DEInternal>
0.8608

> <Gold.Chemscore.Rot>
2.1833

> <Gold.Chemscore.Internal.Correction>
   9.000000E+99

> <Gold.Chemscore.Hbonds>
donor molecule, donor type, donor heavy atom, donor atom, acceptor molecule, acceptor atom, score
      L1  H    13    43       P1  7948  1.00
      L1  H    16    37       P1  7948  0.99
      P1  H  7997  8008       L1     8  0.99

> <Gold.Chemscore.Hbond.Weighted>
-10.0138

> <Gold.Chemscore.Metal.Weighted>
-0.0000

> <Gold.Chemscore.Lipo.Weighted>
-8.9193

> <Gold.Chemscore.Internal_Hbond.Weighted>
0.0000

> <Gold.Chemscore.DEClash.Weighted>
1.0953

> <Gold.Chemscore.DEInternal.Weighted>
0.8608

> <Gold.Chemscore.Rot.Weighted>
5.5892

> <Gold.Chemscore.Internal.Correction.Weighted>
   9.000000E+99

> <Gold.Protein.RotatedTorsions>
[ 6907 6896 6895 6894 ] final -163.89 input  -60.11 | X-H torsion
[ 7974 7965 7964 7962 ] final   83.68 input  175.53 | X-H torsion
[ 8008 7997 7996 7995 ] final  -53.08 input   59.86 | X-H torsion
[ 10167 10162 10161 10158 ] final   -7.92 input  -65.29 | X-H torsion
[ 10718 10713 10712 10709 ] final  -36.81 input   66.30 | X-H torsion
[ 10763 10752 10751 10750 ] final -122.90 input  -60.55 | X-H torsion
[ 11005 11000 10999 10996 ] final   24.37 input  -57.11 | X-H torsion

> <Gold.Protein.ActiveResidues>
 VAL166  LYS551  ARG553  GLY616  TRP617  ASP618  TYR619  PRO620  LYS621  CYS622 
 ASP623  PHE694  ASN695  SER759  ASP760  ASP761  ALA762  ILE779  LEU786  VAL792 
 PHE793  MET794  SER795  GLU796  ALA797  LYS798  CYS799  TRP800  GLU811  SER814 

> <Gold.Protein.RotatedAtoms>
  151.4032  133.3751  159.2734 H   0  0  0  0  0  0  0  0  0  0  0  0  # atno 6907 bound_to 6896
  150.9418  134.8827  159.7627 H   0  0  0  0  0  0  0  0  0  0  0  0  # atno 6908 bound_to 6896
  152.5074  134.3983  159.9460 H   0  0  0  0  0  0  0  0  0  0  0  0  # atno 6909 bound_to 6896
  145.6087  139.2364  143.2204 H   0  0  0  0  0  0  0  0  0  0  0  0  # atno 7974 bound_to 7965
  154.4123  140.1208  156.5096 H   0  0  0  0  0  0  0  0  0  0  0  0  # atno 8008 bound_to 7997
  155.6812  140.3496  155.4837 H   0  0  0  0  0  0  0  0  0  0  0  0  # atno 8009 bound_to 7997
  155.9550  140.1112  157.0935 H   0  0  0  0  0  0  0  0  0  0  0  0  # atno 8010 bound_to 7997
  140.7043  143.6027  150.8782 H   0  0  0  0  0  0  0  0  0  0  0  0  # atno 10167 bound_to 10162
  156.3225  130.4267  149.7947 H   0  0  0  0  0  0  0  0  0  0  0  0  # atno 10718 bound_to 10713
  154.8698  135.4117  154.2857 H   0  0  0  0  0  0  0  0  0  0  0  0  # atno 10763 bound_to 10752
  153.3741  135.7009  153.6620 H   0  0  0  0  0  0  0  0  0  0  0  0  # atno 10764 bound_to 10752
  153.5470  135.3636  155.2715 H   0  0  0  0  0  0  0  0  0  0  0  0  # atno 10765 bound_to 10752
  140.3595  134.2141  155.7673 H   0  0  0  0  0  0  0  0  0  0  0  0  # atno 11005 bound_to 11000
  146.1521  140.6911  142.9317 LP  0  0  0  0  0  0  0  0  0  0  0  0  # atno 17320 bound_to 7965
  144.7279  140.4581  143.6960 LP  0  0  0  0  0  0  0  0  0  0  0  0  # atno 17321 bound_to 7965
  139.9751  143.6013  152.2961 LP  0  0  0  0  0  0  0  0  0  0  0  0  # atno 17342 bound_to 10162
  139.6614  144.7662  151.1956 LP  0  0  0  0  0  0  0  0  0  0  0  0  # atno 17343 bound_to 10162
  156.5250  130.8232  151.3217 LP  0  0  0  0  0  0  0  0  0  0  0  0  # atno 17370 bound_to 10713
  157.7414  130.9870  150.2446 LP  0  0  0  0  0  0  0  0  0  0  0  0  # atno 17371 bound_to 10713
  141.1988  133.8026  157.0564 LP  0  0  0  0  0  0  0  0  0  0  0  0  # atno 17394 bound_to 11000
  140.0638  134.9740  157.1351 LP  0  0  0  0  0  0  0  0  0  0  0  0  # atno 17395 bound_to 11000

$$$$
