AV-unprocessed.smi:1747|AV-procd|sdf|7035|dock8
  -GOLD-   22720 8253D 1   1.00000     0.00000
 Structure written by MMmdl.
 40 41  0  0  0  0  0  0  0  0  1 V2000
  153.2693  142.0560  160.0116 C   0  0  0  0  0  0  0  0  0  0  0  0
  153.1611  140.8423  159.0857 C   0  0  0  0  0  0  0  0  0  0  0  0
  154.0804  140.0237  159.0985 O   0  0  0  0  0  0  0  0  0  0  0  0
  152.0730  140.7098  158.2893 N   0  0  0  0  0  0  0  0  0  0  0  0
  150.9570  141.6651  158.2029 C   0  0  0  0  0  0  0  0  0  0  0  0
  150.9022  142.2449  156.7756 C   0  0  0  0  0  0  0  0  0  0  0  0
  150.7337  141.1362  155.8159 N   0  0  0  0  0  0  0  0  0  0  0  0
  149.6592  140.9141  155.0166 C   0  0  0  0  0  0  0  0  0  0  0  0
  149.4479  139.8423  154.4474 O   0  0  0  0  0  0  0  0  0  0  0  0
  148.8365  141.9648  154.8773 N   0  0  0  0  0  0  0  0  0  0  0  0
  147.6474  141.9932  154.0348 C   0  0  0  0  0  0  0  0  0  0  0  0
  146.3684  142.2269  154.8589 C   0  0  0  0  0  0  0  0  0  0  0  0
  145.5739  143.4201  154.4094 C   0  0  0  0  0  0  0  0  0  0  0  0
  145.6368  144.0349  153.1838 C   0  0  0  0  0  0  0  0  0  0  0  0
  144.5674  145.4071  153.0885 S   0  0  0  0  0  0  0  0  0  0  0  0
  144.0645  145.0913  154.7442 C   0  0  0  0  0  0  0  0  0  0  0  0
  143.0653  145.9274  155.4671 C   0  0  0  0  0  0  0  0  0  0  0  0
  144.6711  144.0325  155.2857 N   0  0  0  0  0  0  0  0  0  0  0  0
  151.8555  140.1884  155.9001 C   0  0  0  0  0  0  0  0  0  0  0  0
  151.9206  139.6078  157.3271 C   0  0  0  0  0  0  0  0  0  0  0  0
  153.2586  142.9824  159.4368 H   0  0  0  0  0  0  0  0  0  0  0  0
  154.2021  142.0266  160.5757 H   0  0  0  0  0  0  0  0  0  0  0  0
  152.4477  142.0716  160.7285 H   0  0  0  0  0  0  0  0  0  0  0  0
  150.0254  141.1452  158.4325 H   0  0  0  0  0  0  0  0  0  0  0  0
  151.0222  142.4811  158.9203 H   0  0  0  0  0  0  0  0  0  0  0  0
  150.1201  143.0021  156.7258 H   0  0  0  0  0  0  0  0  0  0  0  0
  151.8302  142.7724  156.5497 H   0  0  0  0  0  0  0  0  0  0  0  0
  149.0666  142.8167  155.3687 H   0  0  0  0  0  0  0  0  0  0  0  0
  147.7582  142.7921  153.2998 H   0  0  0  0  0  0  0  0  0  0  0  0
  147.5675  141.0578  153.4795 H   0  0  0  0  0  0  0  0  0  0  0  0
  145.7489  141.3307  154.8138 H   0  0  0  0  0  0  0  0  0  0  0  0
  146.6387  142.3409  155.9096 H   0  0  0  0  0  0  0  0  0  0  0  0
  146.2508  143.7686  152.3361 H   0  0  0  0  0  0  0  0  0  0  0  0
  142.8447  145.5019  156.4466 H   0  0  0  0  0  0  0  0  0  0  0  0
  142.1400  145.9825  154.8936 H   0  0  0  0  0  0  0  0  0  0  0  0
  143.4547  146.9362  155.6042 H   0  0  0  0  0  0  0  0  0  0  0  0
  151.7760  139.3729  155.1802 H   0  0  0  0  0  0  0  0  0  0  0  0
  152.7845  140.7081  155.6606 H   0  0  0  0  0  0  0  0  0  0  0  0
  152.7312  138.8803  157.3848 H   0  0  0  0  0  0  0  0  0  0  0  0
  151.0064  139.0571  157.5535 H   0  0  0  0  0  0  0  0  0  0  0  0
  1  2  1  0  0  0  0
  1 21  1  0  0  0  0
  1 22  1  0  0  0  0
  1 23  1  0  0  0  0
  2  3  2  0  0  0  0
  2  4  1  0  0  0  0
  4 20  1  0  0  0  0
  4  5  1  0  0  0  0
  5  6  1  0  0  0  0
  5 24  1  0  0  0  0
  5 25  1  0  0  0  0
  6  7  1  0  0  0  0
  6 26  1  0  0  0  0
  6 27  1  0  0  0  0
  7  8  1  0  0  0  0
  7 19  1  0  0  0  0
  8  9  2  0  0  0  0
  8 10  1  0  0  0  0
 10 11  1  0  0  0  0
 10 28  1  0  0  0  0
 11 12  1  0  0  0  0
 11 29  1  0  0  0  0
 11 30  1  0  0  0  0
 12 13  1  0  0  0  0
 12 31  1  0  0  0  0
 12 32  1  0  0  0  0
 13 18  1  0  0  0  0
 13 14  2  0  0  0  0
 14 15  1  0  0  0  0
 14 33  1  0  0  0  0
 15 16  1  0  0  0  0
 16 17  1  0  0  0  0
 16 18  2  0  0  0  0
 17 34  1  0  0  0  0
 17 35  1  0  0  0  0
 17 36  1  0  0  0  0
 19 20  1  0  0  0  0
 19 37  1  0  0  0  0
 19 38  1  0  0  0  0
 20 39  1  0  0  0  0
 20 40  1  0  0  0  0
M  END
> <s_m_source_file>
AV-unprocessed.smi

> <i_m_source_file_index>
1747

> <i_lp_mmshare_version>
43012

> <i_f3d_flags>
0

> <s_epik_input>
W0NIM11DKD1PKU4xW0NIMl1bQ0gyXU4oW0NIMl1bQ0gyXTEpQyg9TylbTkhdW0NIMl1bQ0gyXWMyW2NIXXNjKG4yKVtDSDNd

> <s_epik_cmdline>
J2VwaWtfcHl0aG9uJywgJy1waCcsICc3LjAnLCAnLXRuJywgJzgnLCAnLW1hJywgJzIwMCcsICctbWV0YWxfYmluZGluZycsICctaW1hZScsICc8aW5maWxlLm1hZT4nLCAnLW9tYWUnLCAnPG91dGZpbGUubWFlPic=

> <r_epik_Ionization_Penalty>
0.00199956

> <r_epik_Ionization_Penalty_Charging>
0

> <r_epik_Ionization_Penalty_Neutral>
0.00199956

> <r_epik_State_Penalty>
0.00133382

> <r_epik_Charging_Adjusted_Penalty>
0.00133382

> <i_epik_Tot_Q>
0

> <i_epik_Tot_abs_Q>
0

> <r_epik_Metal_State_Penalty>
-0

> <b_epik_Metal_Only>
0

> <s_lp_Force_Field>
OPLS_2005

> <r_lp_Energy>
44.3218

> <b_lp_Chiralities_Consistent>
1

> <s_lp_Variant>
AV-unprocessed.smi:1747-1

> <Gold.Version>
5.8.1

> <Gold.Id.Protein>
6NUR|6NUR_protein|mol2

> <Gold.PLP.Fitness>
48.9510

> <Gold.PLP.PLP>
-44.4423

> <Gold.PLP.part.hbond>
-2.0000

> <Gold.PLP.part.metal>
0.0000

> <Gold.PLP.part.buried>
-5.1318

> <Gold.PLP.part.nonpolar>
-37.4549

> <Gold.PLP.part.repulsive>
0.4625

> <Gold.PLP.ligand.clash>
0.0000

> <Gold.PLP.ligand.torsion>
0.7556

> <Gold.PLP.Chemscore.Hbond>
2.0000

> <Gold.PLP.Chemscore.CHOScore>
0.0000

> <Gold.PLP.Chemscore.Metal>
0.0000

> <Gold.Chemscore.Hbonds>
donor molecule, donor type, donor heavy atom, donor atom, acceptor molecule, acceptor atom, score
      L1  H    10    28       P1  8028  1.00
      P1  H  7997  8008       L1     3  1.00

> <Gold.PLP.Chemscore.Internal.Correction>
0.0199

> <Gold.Rescore>
     Score         DG    S(hbond)    S(metal)    S(lipo)     H(rot)  DE(clash)    DE(int)     intcor
     17.19     -18.18       1.78        0.00      88.04       1.38       0.28       0.71       ----

> <Gold.Chemscore.Fitness>
17.1881

> <Gold.Chemscore.DG>
-18.1841

> <Gold.Chemscore.ZeroCoef>
-5.4800

> <Gold.Chemscore.Hbond>
1.7762

> <Gold.Chemscore.Metal>
0.0000

> <Gold.Chemscore.Lipo>
88.0414

> <Gold.Chemscore.Internal_Hbond>
0.0000

> <Gold.Chemscore.DEClash>
0.2829

> <Gold.Chemscore.DEInternal>
0.7131

> <Gold.Chemscore.Rot>
1.3786

> <Gold.Chemscore.Internal.Correction>
   9.000000E+99

> <Gold.Chemscore.Hbonds>
donor molecule, donor type, donor heavy atom, donor atom, acceptor molecule, acceptor atom, score
      L1  H    10    28       P1  8028  0.95
      P1  H  7997  8008       L1     3  0.59

> <Gold.Chemscore.Hbond.Weighted>
-5.9324

> <Gold.Chemscore.Metal.Weighted>
-0.0000

> <Gold.Chemscore.Lipo.Weighted>
-10.3008

> <Gold.Chemscore.Internal_Hbond.Weighted>
0.0000

> <Gold.Chemscore.DEClash.Weighted>
0.2829

> <Gold.Chemscore.DEInternal.Weighted>
0.7131

> <Gold.Chemscore.Rot.Weighted>
3.5291

> <Gold.Chemscore.Internal.Correction.Weighted>
   9.000000E+99

> <Gold.Protein.RotatedTorsions>
[ 6907 6896 6895 6894 ] final   60.20 input  -60.11 | X-H torsion
[ 7974 7965 7964 7962 ] final   99.31 input  175.53 | X-H torsion
[ 8008 7997 7996 7995 ] final -112.04 input   59.86 | X-H torsion
[ 10167 10162 10161 10158 ] final   89.46 input  -65.29 | X-H torsion
[ 10718 10713 10712 10709 ] final   92.80 input   66.30 | X-H torsion
[ 10763 10752 10751 10750 ] final  -61.62 input  -60.55 | X-H torsion
[ 11005 11000 10999 10996 ] final  -25.86 input  -57.11 | X-H torsion

> <Gold.Protein.ActiveResidues>
 VAL166  LYS551  ARG553  GLY616  TRP617  ASP618  TYR619  PRO620  LYS621  CYS622 
 ASP623  PHE694  ASN695  SER759  ASP760  ASP761  ALA762  ILE779  LEU786  VAL792 
 PHE793  MET794  SER795  GLU796  ALA797  LYS798  CYS799  TRP800  GLU811  SER814 

> <Gold.Protein.RotatedAtoms>
  152.3982  134.6331  160.0080 H   0  0  0  0  0  0  0  0  0  0  0  0  # atno 6907 bound_to 6896
  151.6544  133.3314  159.3167 H   0  0  0  0  0  0  0  0  0  0  0  0  # atno 6908 bound_to 6896
  150.7886  134.6934  159.6554 H   0  0  0  0  0  0  0  0  0  0  0  0  # atno 6909 bound_to 6896
  145.4006  139.2348  143.3302 H   0  0  0  0  0  0  0  0  0  0  0  0  # atno 7974 bound_to 7965
  154.9990  140.0394  157.2352 H   0  0  0  0  0  0  0  0  0  0  0  0  # atno 8008 bound_to 7997
  154.7560  140.2776  155.6230 H   0  0  0  0  0  0  0  0  0  0  0  0  # atno 8009 bound_to 7997
  156.2895  140.2637  156.2326 H   0  0  0  0  0  0  0  0  0  0  0  0  # atno 8010 bound_to 7997
  139.8571  144.6563  150.9102 H   0  0  0  0  0  0  0  0  0  0  0  0  # atno 10167 bound_to 10162
  157.6957  131.0456  150.3937 H   0  0  0  0  0  0  0  0  0  0  0  0  # atno 10718 bound_to 10713
  154.2873  135.6260  153.5371 H   0  0  0  0  0  0  0  0  0  0  0  0  # atno 10763 bound_to 10752
  152.9857  135.5647  154.5429 H   0  0  0  0  0  0  0  0  0  0  0  0  # atno 10764 bound_to 10752
  154.5032  135.2873  155.1379 H   0  0  0  0  0  0  0  0  0  0  0  0  # atno 10765 bound_to 10752
  140.8976  133.7546  156.0502 H   0  0  0  0  0  0  0  0  0  0  0  0  # atno 11005 bound_to 11000
  146.2754  140.4703  142.8798 LP  0  0  0  0  0  0  0  0  0  0  0  0  # atno 17320 bound_to 7965
  144.8377  140.6807  143.6250 LP  0  0  0  0  0  0  0  0  0  0  0  0  # atno 17321 bound_to 7965
  140.7780  143.3777  151.1534 LP  0  0  0  0  0  0  0  0  0  0  0  0  # atno 17342 bound_to 10162
  139.7409  143.8925  152.3049 LP  0  0  0  0  0  0  0  0  0  0  0  0  # atno 17343 bound_to 10162
  156.4338  130.3977  149.6742 LP  0  0  0  0  0  0  0  0  0  0  0  0  # atno 17370 bound_to 10713
  156.3950  130.7646  151.2650 LP  0  0  0  0  0  0  0  0  0  0  0  0  # atno 17371 bound_to 10713
  140.8270  134.3223  157.5362 LP  0  0  0  0  0  0  0  0  0  0  0  0  # atno 17394 bound_to 11000
  139.8737  134.9341  156.3599 LP  0  0  0  0  0  0  0  0  0  0  0  0  # atno 17395 bound_to 11000

$$$$
