AV-unprocessed.smi:1994|AV-procd|sdf|8072|dock8
  -GOLD-   2272010283D 1   1.00000     0.00000
 Structure written by MMmdl.
 39 41  0  0  0  0  0  0  0  0  1 V2000
  150.9047  136.9319  154.6716 C   0  0  0  0  0  0  0  0  0  0  0  0
  149.8255  137.9666  154.7181 C   0  0  0  0  0  0  0  0  0  0  0  0
  148.5317  137.6449  154.7205 N   0  0  0  0  0  0  0  0  0  0  0  0
  147.9127  138.8795  154.7570 C   0  0  0  0  0  0  0  0  0  0  0  0
  146.5407  139.2188  154.7754 C   0  0  0  0  0  0  0  0  0  0  0  0
  146.1402  140.5707  154.8114 C   0  0  0  0  0  0  0  0  0  0  0  0
  147.1034  141.6002  154.8315 C   0  0  0  0  0  0  0  0  0  0  0  0
  148.4755  141.2840  154.8160 C   0  0  0  0  0  0  0  0  0  0  0  0
  148.8702  139.9332  154.7781 C   0  0  0  0  0  0  0  0  0  0  0  0
  150.1056  139.2924  154.7556 N   0  0  0  0  0  0  0  0  0  0  0  0
  151.4150  139.9310  154.7652 C   0  0  0  0  0  0  0  0  0  0  0  0
  151.9828  140.1071  156.1882 C   0  0  2  0  0  0  0  0  0  0  0  0
  151.9134  138.8818  156.8902 O   0  0  0  0  0  0  0  0  0  0  0  0
  151.2227  141.1696  156.9952 C   0  0  0  0  0  0  0  0  0  0  0  0
  152.0124  141.5557  158.1124 O   0  0  0  0  0  0  0  0  0  0  0  0
  151.8621  142.8331  158.6094 C   0  0  0  0  0  0  0  0  0  0  0  0
  151.0331  143.8226  158.0216 C   0  0  0  0  0  0  0  0  0  0  0  0
  150.9348  145.1049  158.5963 C   0  0  0  0  0  0  0  0  0  0  0  0
  151.6614  145.4151  159.7605 C   0  0  0  0  0  0  0  0  0  0  0  0
  152.4868  144.4405  160.3506 C   0  0  0  0  0  0  0  0  0  0  0  0
  152.5849  143.1575  159.7776 C   0  0  0  0  0  0  0  0  0  0  0  0
  153.3828  142.2282  160.3558 F   0  0  0  0  0  0  0  0  0  0  0  0
  150.4735  135.9301  154.6783 H   0  0  0  0  0  0  0  0  0  0  0  0
  151.5617  137.0267  155.5356 H   0  0  0  0  0  0  0  0  0  0  0  0
  151.4959  137.0436  153.7625 H   0  0  0  0  0  0  0  0  0  0  0  0
  145.7953  138.4374  154.7606 H   0  0  0  0  0  0  0  0  0  0  0  0
  145.0888  140.8187  154.8236 H   0  0  0  0  0  0  0  0  0  0  0  0
  146.7882  142.6331  154.8588 H   0  0  0  0  0  0  0  0  0  0  0  0
  149.2156  142.0700  154.8340 H   0  0  0  0  0  0  0  0  0  0  0  0
  152.0968  139.3394  154.1540 H   0  0  0  0  0  0  0  0  0  0  0  0
  151.3327  140.8990  154.2693 H   0  0  0  0  0  0  0  0  0  0  0  0
  153.0339  140.3912  156.1334 H   0  0  0  0  0  0  0  0  0  0  0  0
  152.2054  139.0283  157.7771 H   0  0  0  0  0  0  0  0  0  0  0  0
  151.0002  142.0310  156.3629 H   0  0  0  0  0  0  0  0  0  0  0  0
  150.2768  140.7540  157.3473 H   0  0  0  0  0  0  0  0  0  0  0  0
  150.4596  143.6233  157.1291 H   0  0  0  0  0  0  0  0  0  0  0  0
  150.2998  145.8516  158.1425 H   0  0  0  0  0  0  0  0  0  0  0  0
  151.5857  146.3988  160.2002 H   0  0  0  0  0  0  0  0  0  0  0  0
  153.0456  144.6762  161.2444 H   0  0  0  0  0  0  0  0  0  0  0  0
  1  2  1  0  0  0  0
  1 23  1  0  0  0  0
  1 24  1  0  0  0  0
  1 25  1  0  0  0  0
  2 10  1  0  0  0  0
  2  3  2  0  0  0  0
  3  4  1  0  0  0  0
  4  9  2  0  0  0  0
  4  5  1  0  0  0  0
  5  6  2  0  0  0  0
  5 26  1  0  0  0  0
  6  7  1  0  0  0  0
  6 27  1  0  0  0  0
  7  8  2  0  0  0  0
  7 28  1  0  0  0  0
  8  9  1  0  0  0  0
  8 29  1  0  0  0  0
  9 10  1  0  0  0  0
 10 11  1  0  0  0  0
 11 12  1  0  0  0  0
 11 30  1  0  0  0  0
 11 31  1  0  0  0  0
 12 13  1  0  0  0  0
 12 14  1  0  0  0  0
 12 32  1  0  0  0  0
 13 33  1  0  0  0  0
 14 15  1  0  0  0  0
 14 34  1  0  0  0  0
 14 35  1  0  0  0  0
 15 16  1  0  0  0  0
 16 21  1  0  0  0  0
 16 17  2  0  0  0  0
 17 18  1  0  0  0  0
 17 36  1  0  0  0  0
 18 19  2  0  0  0  0
 18 37  1  0  0  0  0
 19 20  1  0  0  0  0
 19 38  1  0  0  0  0
 20 21  2  0  0  0  0
 20 39  1  0  0  0  0
 21 22  1  0  0  0  0
M  END
> <s_m_source_file>
AV-unprocessed.smi

> <i_m_source_file_index>
1994

> <i_lp_mmshare_version>
43012

> <i_f3d_flags>
0

> <s_epik_input>
W2NIXTFbY0hdW2NIXVtjSF1jKGMxMiluKGMobjIpW0NIM10pW0NIMl1bQ0BIXShbT0hdKVtDSDJdT2MzW2NIXVtjSF1bY0hdW2NIXWMzRg==

> <s_epik_cmdline>
J2VwaWtfcHl0aG9uJywgJy1waCcsICc3LjAnLCAnLXRuJywgJzgnLCAnLW1hJywgJzIwMCcsICctbWV0YWxfYmluZGluZycsICctaW1hZScsICc8aW5maWxlLm1hZT4nLCAnLW9tYWUnLCAnPG91dGZpbGUubWFlPic=

> <r_lp_tautomer_probability>
1

> <r_epik_Ionization_Penalty>
0.112614

> <r_epik_Ionization_Penalty_Charging>
0

> <r_epik_Ionization_Penalty_Neutral>
0.112614

> <r_epik_State_Penalty>
0.10231

> <r_epik_Charging_Adjusted_Penalty>
0.10231

> <i_epik_Tot_Q>
0

> <i_epik_Tot_abs_Q>
0

> <r_epik_Metal_State_Penalty>
0.000111664

> <b_epik_Metal_Only>
0

> <s_lp_Force_Field>
OPLS_2005

> <r_lp_Energy>
14.6988

> <b_lp_Chiralities_Consistent>
1

> <s_lp_Variant>
AV-unprocessed.smi:1994-1

> <Gold.Version>
5.8.1

> <Gold.Id.Protein>
6NUR|6NUR_protein|mol2

> <Gold.PLP.Fitness>
48.7912

> <Gold.PLP.PLP>
-50.2441

> <Gold.PLP.part.hbond>
0.0000

> <Gold.PLP.part.metal>
0.0000

> <Gold.PLP.part.buried>
-1.1392

> <Gold.PLP.part.nonpolar>
-48.7784

> <Gold.PLP.part.repulsive>
0.9437

> <Gold.PLP.ligand.clash>
0.0000

> <Gold.PLP.ligand.torsion>
0.7402

> <Gold.PLP.Chemscore.Hbond>
0.0000

> <Gold.PLP.Chemscore.CHOScore>
0.0000

> <Gold.PLP.Chemscore.Metal>
0.0000

> <Gold.PLP.Chemscore.Internal.Correction>
0.0275

> <Gold.Rescore>
     Score         DG    S(hbond)    S(metal)    S(lipo)     H(rot)  DE(clash)    DE(int)     intcor
     13.02     -15.14       0.00        0.00     130.46       2.19       1.36       0.76       ----

> <Gold.Chemscore.Fitness>
13.0210

> <Gold.Chemscore.DG>
-15.1409

> <Gold.Chemscore.ZeroCoef>
-5.4800

> <Gold.Chemscore.Hbond>
0.0000

> <Gold.Chemscore.Metal>
0.0000

> <Gold.Chemscore.Lipo>
130.4597

> <Gold.Chemscore.Internal_Hbond>
0.0000

> <Gold.Chemscore.DEClash>
1.3597

> <Gold.Chemscore.DEInternal>
0.7603

> <Gold.Chemscore.Rot>
2.1886

> <Gold.Chemscore.Internal.Correction>
   9.000000E+99

> <Gold.Chemscore.Hbond.Weighted>
-0.0000

> <Gold.Chemscore.Metal.Weighted>
-0.0000

> <Gold.Chemscore.Lipo.Weighted>
-15.2638

> <Gold.Chemscore.Internal_Hbond.Weighted>
0.0000

> <Gold.Chemscore.DEClash.Weighted>
1.3597

> <Gold.Chemscore.DEInternal.Weighted>
0.7603

> <Gold.Chemscore.Rot.Weighted>
5.6028

> <Gold.Chemscore.Internal.Correction.Weighted>
   9.000000E+99

> <Gold.Protein.RotatedTorsions>
[ 6907 6896 6895 6894 ] final -161.25 input  -60.11 | X-H torsion
[ 7974 7965 7964 7962 ] final   66.04 input  175.53 | X-H torsion
[ 8008 7997 7996 7995 ] final  124.34 input   59.86 | X-H torsion
[ 10167 10162 10161 10158 ] final  -64.53 input  -65.29 | X-H torsion
[ 10718 10713 10712 10709 ] final -147.43 input   66.30 | X-H torsion
[ 10763 10752 10751 10750 ] final  149.52 input  -60.55 | X-H torsion
[ 11005 11000 10999 10996 ] final -101.20 input  -57.11 | X-H torsion

> <Gold.Protein.ActiveResidues>
 VAL166  LYS551  ARG553  GLY616  TRP617  ASP618  TYR619  PRO620  LYS621  CYS622 
 ASP623  PHE694  ASN695  SER759  ASP760  ASP761  ALA762  ILE779  LEU786  VAL792 
 PHE793  MET794  SER795  GLU796  ALA797  LYS798  CYS799  TRP800  GLU811  SER814 

> <Gold.Protein.RotatedAtoms>
  151.3617  133.3887  159.2690 H   0  0  0  0  0  0  0  0  0  0  0  0  # atno 6907 bound_to 6896
  150.9720  134.9092  159.7804 H   0  0  0  0  0  0  0  0  0  0  0  0  # atno 6908 bound_to 6896
  152.5188  134.3579  159.9327 H   0  0  0  0  0  0  0  0  0  0  0  0  # atno 6909 bound_to 6896
  145.8313  139.3141  143.0986 H   0  0  0  0  0  0  0  0  0  0  0  0  # atno 7974 bound_to 7965
  156.2798  140.2742  156.1772 H   0  0  0  0  0  0  0  0  0  0  0  0  # atno 8008 bound_to 7997
  155.0594  140.0386  157.2589 H   0  0  0  0  0  0  0  0  0  0  0  0  # atno 8009 bound_to 7997
  154.7130  140.2672  155.6617 H   0  0  0  0  0  0  0  0  0  0  0  0  # atno 8010 bound_to 7997
  140.5794  143.2325  151.6373 H   0  0  0  0  0  0  0  0  0  0  0  0  # atno 10167 bound_to 10162
  156.4074  130.7964  151.2180 H   0  0  0  0  0  0  0  0  0  0  0  0  # atno 10718 bound_to 10713
  154.0725  135.2865  155.3305 H   0  0  0  0  0  0  0  0  0  0  0  0  # atno 10763 bound_to 10752
  154.6737  135.5290  153.8175 H   0  0  0  0  0  0  0  0  0  0  0  0  # atno 10764 bound_to 10752
  153.0479  135.6564  154.0906 H   0  0  0  0  0  0  0  0  0  0  0  0  # atno 10765 bound_to 10752
  141.1240  133.8459  157.1201 H   0  0  0  0  0  0  0  0  0  0  0  0  # atno 11005 bound_to 11000
  145.9567  140.8867  143.0231 LP  0  0  0  0  0  0  0  0  0  0  0  0  # atno 17320 bound_to 7965
  144.6739  140.1756  143.7410 LP  0  0  0  0  0  0  0  0  0  0  0  0  # atno 17321 bound_to 7965
  139.5161  144.3357  152.0786 LP  0  0  0  0  0  0  0  0  0  0  0  0  # atno 17342 bound_to 10162
  140.2505  144.4174  150.6224 LP  0  0  0  0  0  0  0  0  0  0  0  0  # atno 17343 bound_to 10162
  157.7506  131.0268  150.3977 LP  0  0  0  0  0  0  0  0  0  0  0  0  # atno 17370 bound_to 10713
  156.4269  130.3964  149.6787 LP  0  0  0  0  0  0  0  0  0  0  0  0  # atno 17371 bound_to 10713
  140.0222  134.9940  157.0615 LP  0  0  0  0  0  0  0  0  0  0  0  0  # atno 17394 bound_to 11000
  140.4421  134.1670  155.7174 LP  0  0  0  0  0  0  0  0  0  0  0  0  # atno 17395 bound_to 11000

$$$$
