AV-unprocessed.smi:255|AV-procd|sdf|1951|dock2
  -GOLD-   2262021 93D 1   1.00000     0.00000
 Structure written by MMmdl.
 44 47  0  0  0  0  0  0  0  0  1 V2000
  142.9849  132.1159  149.4354 O   0  0  0  0  0  0  0  0  0  0  0  0
  144.3301  132.3919  149.7645 C   0  0  0  0  0  0  0  0  0  0  0  0
  144.4117  133.2613  151.0346 C   0  0  2  0  0  0  0  0  0  0  0  0
  143.9250  134.6932  150.8072 C   0  0  0  0  0  0  0  0  0  0  0  0
  144.5440  135.4405  151.9841 C   0  0  1  0  0  0  0  0  0  0  0  0
  143.7722  135.2935  153.0621 F   0  0  0  0  0  0  0  0  0  0  0  0
  145.8757  134.7168  152.2127 C   0  0  0  0  0  0  0  0  0  0  0  0
  145.7765  133.4272  151.5290 N   0  0  0  0  0  0  0  0  0  0  0  0
  146.2624  132.3554  152.1958 C   0  0  0  0  0  0  0  0  0  0  0  0
  145.6087  131.1642  152.1474 N   0  0  0  0  0  0  0  0  0  0  0  0
  146.1060  130.1037  152.7910 C   0  0  0  0  0  0  0  0  0  0  0  0
  147.2212  130.0159  153.5195 N   0  0  0  0  0  0  0  0  0  0  0  0
  147.8832  131.2080  153.5589 C   0  0  0  0  0  0  0  0  0  0  0  0
  147.4737  132.4182  152.9333 C   0  0  0  0  0  0  0  0  0  0  0  0
  148.3924  133.4267  153.1949 N   0  0  0  0  0  0  0  0  0  0  0  0
  149.2977  132.8437  153.9326 C   0  0  0  0  0  0  0  0  0  0  0  0
  149.0754  131.5098  154.1939 N   0  0  0  0  0  0  0  0  0  0  0  0
  149.9196  130.6233  154.9798 C   0  0  0  0  0  0  0  0  0  0  0  0
  149.8497  130.8939  156.5012 C   0  0  1  0  0  0  0  0  0  0  0  0
  148.5005  130.8119  156.9256 O   0  0  0  0  0  0  0  0  0  0  0  0
  150.6803  129.9304  157.3458 C   0  0  0  0  0  0  0  0  0  0  0  0
  151.1428  130.8026  158.5045 C   0  0  0  0  0  0  0  0  0  0  0  0
  151.4217  132.0355  157.8645 O   0  0  0  0  0  0  0  0  0  0  0  0
  150.4029  132.2772  156.9000 C   0  0  0  0  0  0  0  0  0  0  0  0
  143.7918  132.8210  151.8185 H   0  0  0  0  0  0  0  0  0  0  0  0
  144.6593  136.5098  151.8065 H   0  0  0  0  0  0  0  0  0  0  0  0
  142.4999  132.9267  149.4498 H   0  0  0  0  0  0  0  0  0  0  0  0
  144.8970  131.4666  149.8724 H   0  0  0  0  0  0  0  0  0  0  0  0
  144.7573  132.9295  148.9175 H   0  0  0  0  0  0  0  0  0  0  0  0
  144.3258  135.0849  149.8709 H   0  0  0  0  0  0  0  0  0  0  0  0
  142.8382  134.7744  150.7711 H   0  0  0  0  0  0  0  0  0  0  0  0
  146.6843  135.2751  151.7399 H   0  0  0  0  0  0  0  0  0  0  0  0
  146.1165  134.6442  153.2741 H   0  0  0  0  0  0  0  0  0  0  0  0
  145.5292  129.1945  152.7081 H   0  0  0  0  0  0  0  0  0  0  0  0
  150.1609  133.3748  154.3064 H   0  0  0  0  0  0  0  0  0  0  0  0
  149.6162  129.5968  154.7691 H   0  0  0  0  0  0  0  0  0  0  0  0
  150.9465  130.7166  154.6239 H   0  0  0  0  0  0  0  0  0  0  0  0
  148.1141  130.0351  156.5514 H   0  0  0  0  0  0  0  0  0  0  0  0
  150.1358  129.0405  157.6654 H   0  0  0  0  0  0  0  0  0  0  0  0
  151.5576  129.5996  156.7887 H   0  0  0  0  0  0  0  0  0  0  0  0
  150.3473  130.9379  159.2391 H   0  0  0  0  0  0  0  0  0  0  0  0
  152.0207  130.4027  159.0120 H   0  0  0  0  0  0  0  0  0  0  0  0
  150.8276  132.8179  156.0537 H   0  0  0  0  0  0  0  0  0  0  0  0
  149.6343  132.9148  157.3402 H   0  0  0  0  0  0  0  0  0  0  0  0
  1  2  1  0  0  0  0
  1 27  1  0  0  0  0
  2  3  1  0  0  0  0
  2 28  1  0  0  0  0
  2 29  1  0  0  0  0
  3 25  1  0  0  0  0
  3  8  1  0  0  0  0
  3  4  1  0  0  0  0
  4  5  1  0  0  0  0
  4 30  1  0  0  0  0
  4 31  1  0  0  0  0
  5 26  1  0  0  0  0
  5  6  1  0  0  0  0
  5  7  1  0  0  0  0
  7  8  1  0  0  0  0
  7 32  1  0  0  0  0
  7 33  1  0  0  0  0
  8  9  1  0  0  0  0
  9 14  1  0  0  0  0
  9 10  2  0  0  0  0
 10 11  1  0  0  0  0
 11 12  2  0  0  0  0
 11 34  1  0  0  0  0
 12 13  1  0  0  0  0
 13 17  1  0  0  0  0
 13 14  2  0  0  0  0
 14 15  1  0  0  0  0
 15 16  2  0  0  0  0
 16 17  1  0  0  0  0
 16 35  1  0  0  0  0
 17 18  1  0  0  0  0
 18 19  1  0  0  0  0
 18 36  1  0  0  0  0
 18 37  1  0  0  0  0
 19 24  1  0  0  0  0
 19 20  1  0  0  0  0
 19 21  1  0  0  0  0
 20 38  1  0  0  0  0
 21 22  1  0  0  0  0
 21 39  1  0  0  0  0
 21 40  1  0  0  0  0
 22 23  1  0  0  0  0
 22 41  1  0  0  0  0
 22 42  1  0  0  0  0
 23 24  1  0  0  0  0
 24 43  1  0  0  0  0
 24 44  1  0  0  0  0
M  END
> <s_m_source_file>
AV-unprocessed.smi

> <i_m_source_file_index>
255

> <i_lp_mmshare_version>
43012

> <i_f3d_flags>
0

> <s_epik_input>
W09IXVtDSDJdW0NAQEhdMVtDSDJdW0NASF0oRilbQ0gyXU4xYyhuW2NIXW4yKWMoYzIzKW5bY0hdbjNbQ0gyXVtDQEBdNChbT0hdKVtDSDJdW0NIMl1PW0NIMl00

> <s_epik_cmdline>
J2VwaWtfcHl0aG9uJywgJy1waCcsICc3LjAnLCAnLXRuJywgJzgnLCAnLW1hJywgJzIwMCcsICctbWV0YWxfYmluZGluZycsICctaW1hZScsICc8aW5maWxlLm1hZT4nLCAnLW9tYWUnLCAnPG91dGZpbGUubWFlPic=

> <r_lp_tautomer_probability>
1

> <r_epik_Ionization_Penalty>
0.0058098

> <r_epik_Ionization_Penalty_Charging>
0

> <r_epik_Ionization_Penalty_Neutral>
0.0058098

> <r_epik_State_Penalty>
0.00411166

> <r_epik_Charging_Adjusted_Penalty>
0.00411166

> <i_epik_Tot_Q>
0

> <i_epik_Tot_abs_Q>
0

> <r_epik_Metal_State_Penalty>
-0

> <b_epik_Metal_Only>
0

> <s_lp_Force_Field>
OPLS_2005

> <r_lp_Energy>
53.4607

> <b_lp_Chiralities_Consistent>
1

> <s_lp_Variant>
AV-unprocessed.smi:255-3

> <Gold.Version>
5.8.1

> <Gold.Id.Protein>
6NUR|6NUR_protein|mol2

> <Gold.PLP.Fitness>
42.7886

> <Gold.PLP.PLP>
-36.0864

> <Gold.PLP.part.hbond>
-3.7554

> <Gold.PLP.part.metal>
0.0000

> <Gold.PLP.part.buried>
-6.5380

> <Gold.PLP.part.nonpolar>
-28.3255

> <Gold.PLP.part.repulsive>
1.6219

> <Gold.PLP.ligand.clash>
0.0000

> <Gold.PLP.ligand.torsion>
0.6047

> <Gold.PLP.Chemscore.Hbond>
2.5925

> <Gold.PLP.Chemscore.CHOScore>
0.0000

> <Gold.PLP.Chemscore.Metal>
0.0000

> <Gold.Chemscore.Hbonds>
donor molecule, donor type, donor heavy atom, donor atom, acceptor molecule, acceptor atom, score
      L1  H     1    27       P1 10186  0.80
      P1  H  6896  6908       L1    23  1.00
      P1  H 10785 10796       L1     1  0.81

> <Gold.PLP.Chemscore.Internal.Correction>
0.1341

> <Gold.Rescore>
     Score         DG    S(hbond)    S(metal)    S(lipo)     H(rot)  DE(clash)    DE(int)     intcor
      8.00      -9.65       1.80        0.00      57.23       3.33       0.17       1.48       ----

> <Gold.Chemscore.Fitness>
8.0005

> <Gold.Chemscore.DG>
-9.6545

> <Gold.Chemscore.ZeroCoef>
-5.4800

> <Gold.Chemscore.Hbond>
1.7955

> <Gold.Chemscore.Metal>
0.0000

> <Gold.Chemscore.Lipo>
57.2255

> <Gold.Chemscore.Internal_Hbond>
0.0000

> <Gold.Chemscore.DEClash>
0.1739

> <Gold.Chemscore.DEInternal>
1.4801

> <Gold.Chemscore.Rot>
3.3273

> <Gold.Chemscore.Internal.Correction>
   9.000000E+99

> <Gold.Chemscore.Hbonds>
donor molecule, donor type, donor heavy atom, donor atom, acceptor molecule, acceptor atom, score
      L1  H     1    27       P1 10186  0.79
      P1  H  6896  6908       L1    23  0.47
      P1  H 10785 10796       L1     1  0.21

> <Gold.Chemscore.Hbond.Weighted>
-5.9971

> <Gold.Chemscore.Metal.Weighted>
-0.0000

> <Gold.Chemscore.Lipo.Weighted>
-6.6954

> <Gold.Chemscore.Internal_Hbond.Weighted>
0.0000

> <Gold.Chemscore.DEClash.Weighted>
0.1739

> <Gold.Chemscore.DEInternal.Weighted>
1.4801

> <Gold.Chemscore.Rot.Weighted>
8.5179

> <Gold.Chemscore.Internal.Correction.Weighted>
   9.000000E+99

> <Gold.Protein.RotatedTorsions>
[ 6907 6896 6895 6894 ] final   72.49 input  -60.11 | X-H torsion
[ 7974 7965 7964 7962 ] final   92.79 input  175.53 | X-H torsion
[ 8008 7997 7996 7995 ] final  179.99 input   59.86 | X-H torsion
[ 10167 10162 10161 10158 ] final -148.13 input  -65.29 | X-H torsion
[ 10718 10713 10712 10709 ] final    8.26 input   66.30 | X-H torsion
[ 10763 10752 10751 10750 ] final  153.16 input  -60.55 | X-H torsion
[ 11005 11000 10999 10996 ] final  -33.47 input  -57.11 | X-H torsion

> <Gold.Protein.ActiveResidues>
 VAL166  LYS551  ARG553  GLY616  TRP617  ASP618  TYR619  PRO620  LYS621  CYS622 
 ASP623  PHE694  ASN695  SER759  ASP760  ASP761  ALA762  ILE779  LEU786  VAL792 
 PHE793  MET794  SER795  GLU796  ALA797  LYS798  CYS799  TRP800  GLU811  SER814 

> <Gold.Protein.RotatedAtoms>
  152.4871  134.4563  159.9590 H   0  0  0  0  0  0  0  0  0  0  0  0  # atno 6907 bound_to 6896
  151.4557  133.3599  159.2809 H   0  0  0  0  0  0  0  0  0  0  0  0  # atno 6908 bound_to 6896
  150.8991  134.8426  159.7407 H   0  0  0  0  0  0  0  0  0  0  0  0  # atno 6909 bound_to 6896
  145.4876  139.2277  143.2848 H   0  0  0  0  0  0  0  0  0  0  0  0  # atno 7974 bound_to 7965
  156.0370  140.1295  157.0197 H   0  0  0  0  0  0  0  0  0  0  0  0  # atno 8008 bound_to 7997
  154.4374  140.1038  156.6253 H   0  0  0  0  0  0  0  0  0  0  0  0  # atno 8009 bound_to 7997
  155.5722  140.3466  155.4520 H   0  0  0  0  0  0  0  0  0  0  0  0  # atno 8010 bound_to 7997
  139.7559  143.8448  152.2597 H   0  0  0  0  0  0  0  0  0  0  0  0  # atno 10167 bound_to 10162
  156.9490  130.5890  149.5656 H   0  0  0  0  0  0  0  0  0  0  0  0  # atno 10718 bound_to 10713
  154.1318  135.2826  155.3183 H   0  0  0  0  0  0  0  0  0  0  0  0  # atno 10763 bound_to 10752
  154.6350  135.5422  153.7727 H   0  0  0  0  0  0  0  0  0  0  0  0  # atno 10764 bound_to 10752
  153.0279  135.6472  154.1468 H   0  0  0  0  0  0  0  0  0  0  0  0  # atno 10765 bound_to 10752
  140.9637  133.7149  156.1411 H   0  0  0  0  0  0  0  0  0  0  0  0  # atno 11005 bound_to 11000
  146.2304  140.5667  142.8978 LP  0  0  0  0  0  0  0  0  0  0  0  0  # atno 17320 bound_to 7965
  144.7852  140.5923  143.6578 LP  0  0  0  0  0  0  0  0  0  0  0  0  # atno 17321 bound_to 7965
  139.8440  144.7196  150.9295 LP  0  0  0  0  0  0  0  0  0  0  0  0  # atno 17342 bound_to 10162
  140.7802  143.3958  151.1233 LP  0  0  0  0  0  0  0  0  0  0  0  0  # atno 17343 bound_to 10162
  156.0371  130.5457  150.8680 LP  0  0  0  0  0  0  0  0  0  0  0  0  # atno 17370 bound_to 10713
  157.5734  131.0946  150.9382 LP  0  0  0  0  0  0  0  0  0  0  0  0  # atno 17371 bound_to 10713
  140.7430  134.4129  157.5552 LP  0  0  0  0  0  0  0  0  0  0  0  0  # atno 17394 bound_to 11000
  139.8887  134.8849  156.2460 LP  0  0  0  0  0  0  0  0  0  0  0  0  # atno 17395 bound_to 11000

$$$$
