AV-unprocessed.smi:1701|AV-procd|sdf|6838|dock5
  -GOLD-   22720 8 13D 1   1.00000     0.00000
 Structure written by MMmdl.
 54 56  0  0  0  0  0  0  0  0  4 V2000
  153.5757  127.8456  154.5363 C   0  0  0  0  0  0  0  0  0  0  0  0
  152.6016  128.5781  155.4723 C   0  0  0  0  0  0  0  0  0  0  0  0
  152.6766  130.0349  155.3617 N   0  0  0  0  0  0  0  0  0  0  0  0
  153.9397  130.7132  155.6622 C   0  0  0  0  0  0  0  0  0  0  0  0
  154.6338  131.2794  154.4148 C   0  0  0  0  0  0  0  0  0  0  0  0
  151.6036  130.7612  154.7888 C   0  0  0  0  0  0  0  0  0  0  0  0
  151.5000  132.1745  154.8382 C   0  0  0  0  0  0  0  0  0  0  0  0
  150.3989  132.8223  154.2422 C   0  0  0  0  0  0  0  0  0  0  0  0
  149.4097  132.0632  153.5857 C   0  0  0  0  0  0  0  0  0  0  0  0
  148.3072  132.7554  153.0161 N   0  0  0  0  0  0  0  0  0  0  0  0
  147.1536  132.2567  152.5072 C   0  0  0  0  0  0  0  0  0  0  0  0
  147.0008  131.0379  152.4569 O   0  0  0  0  0  0  0  0  0  0  0  0
  146.1955  133.1086  152.0331 N   0  5  0  0  0  0  0  0  0  0  0  0
  145.5764  133.1673  150.6977 C   0  0  1  0  0  0  0  0  0  0  0  0
  144.7530  131.8977  150.4477 C   0  0  0  0  0  0  0  0  0  0  0  0
  143.3687  132.1706  151.0675 C   0  0  0  0  0  0  0  0  0  0  0  0
  143.2510  133.6397  151.2571 N   0  3  1  0  0  0  0  0  0  0  0  0
  142.9783  134.0147  152.6750 C   0  0  0  0  0  0  0  0  0  0  0  0
  143.0939  135.5250  152.9122 C   0  0  0  0  0  0  0  0  0  0  0  0
  144.5015  136.0029  152.5504 C   0  0  0  0  0  0  0  0  0  0  0  0
  144.7815  135.7035  151.0718 C   0  0  0  0  0  0  0  0  0  0  0  0
  144.4694  134.2414  150.6454 C   0  0  1  0  0  0  0  0  0  0  0  0
  149.5457  130.6560  153.5737 C   0  0  0  0  0  0  0  0  0  0  0  0
  150.6161  130.0774  154.1593 N   0  3  0  0  0  0  0  0  0  0  0  0
  153.4692  126.7661  154.6438 H   0  0  0  0  0  0  0  0  0  0  0  0
  154.6122  128.0923  154.7603 H   0  0  0  0  0  0  0  0  0  0  0  0
  153.3936  128.0898  153.4899 H   0  0  0  0  0  0  0  0  0  0  0  0
  151.5794  128.2418  155.3001 H   0  0  0  0  0  0  0  0  0  0  0  0
  152.8245  128.2939  156.5010 H   0  0  0  0  0  0  0  0  0  0  0  0
  153.7777  131.5055  156.3935 H   0  0  0  0  0  0  0  0  0  0  0  0
  154.6107  130.0066  156.1514 H   0  0  0  0  0  0  0  0  0  0  0  0
  155.5399  131.8177  154.6933 H   0  0  0  0  0  0  0  0  0  0  0  0
  153.9893  131.9755  153.8776 H   0  0  0  0  0  0  0  0  0  0  0  0
  154.9262  130.4898  153.7243 H   0  0  0  0  0  0  0  0  0  0  0  0
  152.2454  132.7823  155.3272 H   0  0  0  0  0  0  0  0  0  0  0  0
  150.3208  133.8990  154.2850 H   0  0  0  0  0  0  0  0  0  0  0  0
  148.4186  133.7551  152.9335 H   0  0  0  0  0  0  0  0  0  0  0  0
  146.3061  133.3258  149.9024 H   0  0  0  0  0  0  0  0  0  0  0  0
  144.6403  131.7539  149.3721 H   0  0  0  0  0  0  0  0  0  0  0  0
  145.2193  130.9934  150.8417 H   0  0  0  0  0  0  0  0  0  0  0  0
  142.5715  131.8134  150.4147 H   0  0  0  0  0  0  0  0  0  0  0  0
  143.2652  131.6372  152.0146 H   0  0  0  0  0  0  0  0  0  0  0  0
  141.9794  133.6703  152.9441 H   0  0  0  0  0  0  0  0  0  0  0  0
  143.6737  133.4993  153.3397 H   0  0  0  0  0  0  0  0  0  0  0  0
  142.3492  136.0581  152.3199 H   0  0  0  0  0  0  0  0  0  0  0  0
  142.8837  135.7523  153.9577 H   0  0  0  0  0  0  0  0  0  0  0  0
  144.5954  137.0726  152.7382 H   0  0  0  0  0  0  0  0  0  0  0  0
  145.2393  135.5115  153.1857 H   0  0  0  0  0  0  0  0  0  0  0  0
  144.1442  136.3651  150.4833 H   0  0  0  0  0  0  0  0  0  0  0  0
  145.8029  135.9897  150.8140 H   0  0  0  0  0  0  0  0  0  0  0  0
  144.2220  134.3141  149.5844 H   0  0  0  0  0  0  0  0  0  0  0  0
  148.8391  129.9686  153.1331 H   0  0  0  0  0  0  0  0  0  0  0  0
  142.4636  133.9684  150.7177 H   0  0  0  0  0  0  0  0  0  0  0  0
  150.6815  129.0600  154.1283 H   0  0  0  0  0  0  0  0  0  0  0  0
  1  2  1  0  0  0  0
  1 25  1  0  0  0  0
  1 26  1  0  0  0  0
  1 27  1  0  0  0  0
  2  3  1  0  0  0  0
  2 28  1  0  0  0  0
  2 29  1  0  0  0  0
  3  4  1  0  0  0  0
  3  6  1  0  0  0  0
  4  5  1  0  0  0  0
  4 30  1  0  0  0  0
  4 31  1  0  0  0  0
  5 32  1  0  0  0  0
  5 33  1  0  0  0  0
  5 34  1  0  0  0  0
  6 24  1  0  0  0  0
  6  7  2  0  0  0  0
  7  8  1  0  0  0  0
  7 35  1  0  0  0  0
  8  9  2  0  0  0  0
  8 36  1  0  0  0  0
  9 10  1  0  0  0  0
  9 23  1  0  0  0  0
 10 11  1  0  0  0  0
 10 37  1  0  0  0  0
 11 12  2  0  0  0  0
 11 13  1  0  0  0  0
 13 14  1  0  0  0  0
 14 22  1  0  0  0  0
 14 15  1  0  0  0  0
 14 38  1  0  0  0  0
 15 16  1  0  0  0  0
 15 39  1  0  0  0  0
 15 40  1  0  0  0  0
 16 17  1  0  0  0  0
 16 41  1  0  0  0  0
 16 42  1  0  0  0  0
 17 22  1  0  0  0  0
 17 18  1  0  0  0  0
 17 53  1  0  0  0  0
 18 19  1  0  0  0  0
 18 43  1  0  0  0  0
 18 44  1  0  0  0  0
 19 20  1  0  0  0  0
 19 45  1  0  0  0  0
 19 46  1  0  0  0  0
 20 21  1  0  0  0  0
 20 47  1  0  0  0  0
 20 48  1  0  0  0  0
 21 22  1  0  0  0  0
 21 49  1  0  0  0  0
 21 50  1  0  0  0  0
 22 51  1  0  0  0  0
 23 24  2  0  0  0  0
 23 52  1  0  0  0  0
 24 54  1  0  0  0  0
M  CHG  1  13  -1
M  CHG  1  17   1
M  CHG  1  24   1
M  END
> <s_m_source_file>
AV-unprocessed.smi

> <i_m_source_file_index>
1701

> <i_lp_mmshare_version>
43012

> <i_f3d_flags>
0

> <s_epik_input>
W0NIM11bQ0gyXU4oW0NIMl1bQ0gzXSljMVtjSF1bY0hdYyhbY0hdbjEpW05IXUMoPU8pW05IXVtDQEhdKFtDSDJdW0NIMl0yKVtDQEBIXShOMjMpW0NIMl1bQ0gyXVtDSDJdW0NIMl0z

> <s_epik_cmdline>
J2VwaWtfcHl0aG9uJywgJy1waCcsICc3LjAnLCAnLXRuJywgJzgnLCAnLW1hJywgJzIwMCcsICctbWV0YWxfYmluZGluZycsICctaW1hZScsICc8aW5maWxlLm1hZT4nLCAnLW9tYWUnLCAnPG91dGZpbGUubWFlPic=

> <r_lp_tautomer_probability>
0.999994

> <r_epik_Ionization_Penalty>
7.37095

> <r_epik_Ionization_Penalty_Charging>
7.37095

> <r_epik_Ionization_Penalty_Neutral>
3.78969e-06

> <r_epik_State_Penalty>
6.83842

> <r_epik_Charging_Adjusted_Penalty>
14.2094

> <i_epik_Tot_Q>
1

> <i_epik_Tot_abs_Q>
3

> <r_epik_Metal_State_Penalty>
2.78552

> <b_epik_Metal_Only>
1

> <s_lp_Force_Field>
OPLS_2005

> <r_lp_Energy>
56.1591

> <b_lp_Chiralities_Consistent>
1

> <s_lp_Variant>
AV-unprocessed.smi:1701-18

> <Gold.Version>
5.8.1

> <Gold.Id.Protein>
6NUR|6NUR_protein|mol2

> <Gold.PLP.Fitness>
45.3303

> <Gold.PLP.PLP>
-40.6813

> <Gold.PLP.part.hbond>
-1.0000

> <Gold.PLP.part.metal>
0.0000

> <Gold.PLP.part.buried>
-6.6198

> <Gold.PLP.part.nonpolar>
-33.1647

> <Gold.PLP.part.repulsive>
1.1344

> <Gold.PLP.ligand.clash>
0.0000

> <Gold.PLP.ligand.torsion>
0.7674

> <Gold.PLP.Chemscore.Hbond>
2.0000

> <Gold.PLP.Chemscore.CHOScore>
0.0000

> <Gold.PLP.Chemscore.Metal>
0.0000

> <Gold.Chemscore.Hbonds>
donor molecule, donor type, donor heavy atom, donor atom, acceptor molecule, acceptor atom, score
      L1  H    17    53       P1 10186  2.00

> <Gold.PLP.Chemscore.Internal.Correction>
0.1837

> <Gold.Rescore>
     Score         DG    S(hbond)    S(metal)    S(lipo)     H(rot)  DE(clash)    DE(int)     intcor
     13.46     -16.70       1.00        0.00      95.55       1.28       0.12       3.11       ----

> <Gold.Chemscore.Fitness>
13.4630

> <Gold.Chemscore.DG>
-16.6992

> <Gold.Chemscore.ZeroCoef>
-5.4800

> <Gold.Chemscore.Hbond>
0.9960

> <Gold.Chemscore.Metal>
0.0000

> <Gold.Chemscore.Lipo>
95.5470

> <Gold.Chemscore.Internal_Hbond>
0.0000

> <Gold.Chemscore.DEClash>
0.1222

> <Gold.Chemscore.DEInternal>
3.1141

> <Gold.Chemscore.Rot>
1.2838

> <Gold.Chemscore.Internal.Correction>
   9.000000E+99

> <Gold.Chemscore.Hbonds>
donor molecule, donor type, donor heavy atom, donor atom, acceptor molecule, acceptor atom, score
      L1  H    17    53       P1 10186  0.70

> <Gold.Chemscore.Hbond.Weighted>
-3.3268

> <Gold.Chemscore.Metal.Weighted>
-0.0000

> <Gold.Chemscore.Lipo.Weighted>
-11.1790

> <Gold.Chemscore.Internal_Hbond.Weighted>
0.0000

> <Gold.Chemscore.DEClash.Weighted>
0.1222

> <Gold.Chemscore.DEInternal.Weighted>
3.1141

> <Gold.Chemscore.Rot.Weighted>
3.2865

> <Gold.Chemscore.Internal.Correction.Weighted>
   9.000000E+99

> <Gold.Protein.RotatedTorsions>
[ 6907 6896 6895 6894 ] final -168.08 input  -60.11 | X-H torsion
[ 7974 7965 7964 7962 ] final    5.81 input  175.53 | X-H torsion
[ 8008 7997 7996 7995 ] final  134.37 input   59.86 | X-H torsion
[ 10167 10162 10161 10158 ] final   50.97 input  -65.29 | X-H torsion
[ 10718 10713 10712 10709 ] final  -82.87 input   66.30 | X-H torsion
[ 10763 10752 10751 10750 ] final   98.07 input  -60.55 | X-H torsion
[ 11005 11000 10999 10996 ] final    2.42 input  -57.11 | X-H torsion

> <Gold.Protein.ActiveResidues>
 VAL166  LYS551  ARG553  GLY616  TRP617  ASP618  TYR619  PRO620  LYS621  CYS622 
 ASP623  PHE694  ASN695  SER759  ASP760  ASP761  ALA762  ILE779  LEU786  VAL792 
 PHE793  MET794  SER795  GLU796  ALA797  LYS798  CYS799  TRP800  GLU811  SER814 

> <Gold.Protein.RotatedAtoms>
  151.4698  133.3572  159.2821 H   0  0  0  0  0  0  0  0  0  0  0  0  # atno 6907 bound_to 6896
  150.8968  134.8379  159.7343 H   0  0  0  0  0  0  0  0  0  0  0  0  # atno 6908 bound_to 6896
  152.4856  134.4614  159.9658 H   0  0  0  0  0  0  0  0  0  0  0  0  # atno 6909 bound_to 6896
  146.2438  140.0327  142.8388 H   0  0  0  0  0  0  0  0  0  0  0  0  # atno 7974 bound_to 7965
  156.2998  140.2498  156.3406 H   0  0  0  0  0  0  0  0  0  0  0  0  # atno 8008 bound_to 7997
  154.9059  140.0405  157.1938 H   0  0  0  0  0  0  0  0  0  0  0  0  # atno 8009 bound_to 7997
  154.8454  140.2897  155.5636 H   0  0  0  0  0  0  0  0  0  0  0  0  # atno 8010 bound_to 7997
  140.2668  144.3311  150.6301 H   0  0  0  0  0  0  0  0  0  0  0  0  # atno 10167 bound_to 10162
  156.0026  130.4647  150.4170 H   0  0  0  0  0  0  0  0  0  0  0  0  # atno 10718 bound_to 10713
  153.2846  135.4161  155.1110 H   0  0  0  0  0  0  0  0  0  0  0  0  # atno 10763 bound_to 10752
  154.8501  135.3503  154.6065 H   0  0  0  0  0  0  0  0  0  0  0  0  # atno 10764 bound_to 10752
  153.6486  135.7053  153.5274 H   0  0  0  0  0  0  0  0  0  0  0  0  # atno 10765 bound_to 10752
  140.6044  133.9806  155.8147 H   0  0  0  0  0  0  0  0  0  0  0  0  # atno 11005 bound_to 11000
  145.1140  140.9422  143.4640 LP  0  0  0  0  0  0  0  0  0  0  0  0  # atno 17320 bound_to 7965
  145.0548  139.3153  143.5910 LP  0  0  0  0  0  0  0  0  0  0  0  0  # atno 17321 bound_to 7965
  140.5922  143.2168  151.7232 LP  0  0  0  0  0  0  0  0  0  0  0  0  # atno 17342 bound_to 10162
  139.5000  144.3922  152.0268 LP  0  0  0  0  0  0  0  0  0  0  0  0  # atno 17343 bound_to 10162
  157.2229  131.0486  151.2536 LP  0  0  0  0  0  0  0  0  0  0  0  0  # atno 17370 bound_to 10713
  157.3784  130.7218  149.6613 LP  0  0  0  0  0  0  0  0  0  0  0  0  # atno 17371 bound_to 10713
  141.0850  134.0004  157.3327 LP  0  0  0  0  0  0  0  0  0  0  0  0  # atno 17394 bound_to 11000
  139.9218  135.0200  156.8093 LP  0  0  0  0  0  0  0  0  0  0  0  0  # atno 17395 bound_to 11000

$$$$
