AV-unprocessed.smi:152|AV-procd|sdf|1248|dock4
  -GOLD-   2262018473D 1   1.00000     0.00000
 Structure written by MMmdl.
 58 61  0  0  0  0  0  0  0  0  2 V2000
  145.9409  132.5290  150.3706 C   0  0  0  0  0  0  0  0  0  0  0  0
  145.5513  131.2669  151.1536 C   0  0  0  0  0  0  0  0  0  0  0  0
  146.7056  130.6659  151.8672 N   0  3  2  0  0  0  0  0  0  0  0  0
  146.4883  129.2826  152.3451 C   0  0  0  0  0  0  0  0  0  0  0  0
  147.4099  129.0888  153.5575 C   0  0  0  0  0  0  0  0  0  0  0  0
  148.2061  130.3900  153.6638 C   0  0  0  0  0  0  0  0  0  0  0  0
  147.3145  131.4332  152.9814 C   0  0  2  0  0  0  0  0  0  0  0  0
  146.2686  132.0355  153.9592 C   0  0  0  0  0  0  0  0  0  0  0  0
  146.8455  132.4433  155.2399 N   0  0  0  0  0  0  0  0  0  0  0  0
  146.5497  131.5965  156.3868 C   0  0  0  0  0  0  0  0  0  0  0  0
  146.8092  133.7601  155.5561 C   0  0  0  0  0  0  0  0  0  0  0  0
  145.6451  134.3354  155.9591 N   0  0  0  0  0  0  0  0  0  0  0  0
  145.6142  135.6337  156.2749 C   0  0  0  0  0  0  0  0  0  0  0  0
  146.6113  136.5207  156.2578 N   0  0  0  0  0  0  0  0  0  0  0  0
  147.7814  135.9451  155.8578 C   0  0  0  0  0  0  0  0  0  0  0  0
  147.9654  134.5830  155.4909 C   0  0  0  0  0  0  0  0  0  0  0  0
  149.2858  134.3611  155.1226 N   0  0  0  0  0  0  0  0  0  0  0  0
  149.8527  135.5279  155.2647 C   0  0  0  0  0  0  0  0  0  0  0  0
  149.0259  136.5338  155.7140 N   0  0  0  0  0  0  0  0  0  0  0  0
  149.3941  137.9201  155.9578 C   0  0  0  0  0  0  0  0  0  0  0  0
  149.9218  138.6707  154.7040 C   0  0  0  0  0  0  0  0  0  0  0  0
  148.9408  138.5523  153.6909 O   0  0  0  0  0  0  0  0  0  0  0  0
  150.1787  140.1767  154.9256 C   0  0  0  0  0  0  0  0  0  0  0  0
  151.4239  140.4062  155.7988 C   0  0  0  0  0  0  0  0  0  0  0  0
  152.5566  139.7912  155.1936 O   0  0  0  0  0  0  0  0  0  0  0  0
  152.4275  138.3790  155.0631 C   0  0  0  0  0  0  0  0  0  0  0  0
  151.2208  138.0365  154.1693 C   0  0  0  0  0  0  0  0  0  0  0  0
  145.0906  132.9074  149.8034 H   0  0  0  0  0  0  0  0  0  0  0  0
  146.7447  132.3220  149.6636 H   0  0  0  0  0  0  0  0  0  0  0  0
  146.2738  133.3296  151.0310 H   0  0  0  0  0  0  0  0  0  0  0  0
  144.7323  131.4751  151.8423 H   0  0  0  0  0  0  0  0  0  0  0  0
  145.1703  130.5278  150.4478 H   0  0  0  0  0  0  0  0  0  0  0  0
  145.4486  129.1353  152.6414 H   0  0  0  0  0  0  0  0  0  0  0  0
  146.7115  128.5744  151.5464 H   0  0  0  0  0  0  0  0  0  0  0  0
  146.8114  128.9416  154.4576 H   0  0  0  0  0  0  0  0  0  0  0  0
  148.0617  128.2212  153.4498 H   0  0  0  0  0  0  0  0  0  0  0  0
  148.4728  130.6402  154.6913 H   0  0  0  0  0  0  0  0  0  0  0  0
  149.1370  130.2893  153.1040 H   0  0  0  0  0  0  0  0  0  0  0  0
  147.9292  132.2275  152.5572 H   0  0  0  0  0  0  0  0  0  0  0  0
  145.7760  132.9031  153.5206 H   0  0  0  0  0  0  0  0  0  0  0  0
  145.4797  131.3067  154.1479 H   0  0  0  0  0  0  0  0  0  0  0  0
  147.1492  131.8731  157.2548 H   0  0  0  0  0  0  0  0  0  0  0  0
  146.7661  130.5538  156.1543 H   0  0  0  0  0  0  0  0  0  0  0  0
  145.4962  131.6733  156.6584 H   0  0  0  0  0  0  0  0  0  0  0  0
  144.6537  136.0167  156.5864 H   0  0  0  0  0  0  0  0  0  0  0  0
  150.8995  135.6869  155.0500 H   0  0  0  0  0  0  0  0  0  0  0  0
  148.5206  138.4228  156.3717 H   0  0  0  0  0  0  0  0  0  0  0  0
  150.1459  137.9372  156.7480 H   0  0  0  0  0  0  0  0  0  0  0  0
  149.2125  139.0676  152.9468 H   0  0  0  0  0  0  0  0  0  0  0  0
  150.3469  140.6625  153.9631 H   0  0  0  0  0  0  0  0  0  0  0  0
  149.3103  140.6735  155.3570 H   0  0  0  0  0  0  0  0  0  0  0  0
  151.6171  141.4744  155.8967 H   0  0  0  0  0  0  0  0  0  0  0  0
  151.2799  140.0191  156.8081 H   0  0  0  0  0  0  0  0  0  0  0  0
  153.3416  137.9863  154.6177 H   0  0  0  0  0  0  0  0  0  0  0  0
  152.3391  137.9188  156.0476 H   0  0  0  0  0  0  0  0  0  0  0  0
  151.1129  136.9550  154.0780 H   0  0  0  0  0  0  0  0  0  0  0  0
  151.4245  138.4088  153.1638 H   0  0  0  0  0  0  0  0  0  0  0  0
  147.4427  130.5860  151.1813 H   0  0  0  0  0  0  0  0  0  0  0  0
  1  2  1  0  0  0  0
  1 28  1  0  0  0  0
  1 29  1  0  0  0  0
  1 30  1  0  0  0  0
  2  3  1  0  0  0  0
  2 31  1  0  0  0  0
  2 32  1  0  0  0  0
  3  7  1  0  0  0  0
  3  4  1  0  0  0  0
  3 58  1  0  0  0  0
  4  5  1  0  0  0  0
  4 33  1  0  0  0  0
  4 34  1  0  0  0  0
  5  6  1  0  0  0  0
  5 35  1  0  0  0  0
  5 36  1  0  0  0  0
  6  7  1  0  0  0  0
  6 37  1  0  0  0  0
  6 38  1  0  0  0  0
  7  8  1  0  0  0  0
  7 39  1  0  0  0  0
  8  9  1  0  0  0  0
  8 40  1  0  0  0  0
  8 41  1  0  0  0  0
  9 10  1  0  0  0  0
  9 11  1  0  0  0  0
 10 42  1  0  0  0  0
 10 43  1  0  0  0  0
 10 44  1  0  0  0  0
 11 16  1  0  0  0  0
 11 12  2  0  0  0  0
 12 13  1  0  0  0  0
 13 14  2  0  0  0  0
 13 45  1  0  0  0  0
 14 15  1  0  0  0  0
 15 19  1  0  0  0  0
 15 16  2  0  0  0  0
 16 17  1  0  0  0  0
 17 18  2  0  0  0  0
 18 19  1  0  0  0  0
 18 46  1  0  0  0  0
 19 20  1  0  0  0  0
 20 21  1  0  0  0  0
 20 47  1  0  0  0  0
 20 48  1  0  0  0  0
 21 27  1  0  0  0  0
 21 22  1  0  0  0  0
 21 23  1  0  0  0  0
 22 49  1  0  0  0  0
 23 24  1  0  0  0  0
 23 50  1  0  0  0  0
 23 51  1  0  0  0  0
 24 25  1  0  0  0  0
 24 52  1  0  0  0  0
 24 53  1  0  0  0  0
 25 26  1  0  0  0  0
 26 27  1  0  0  0  0
 26 54  1  0  0  0  0
 26 55  1  0  0  0  0
 27 56  1  0  0  0  0
 27 57  1  0  0  0  0
M  CHG  1   3   1
M  END
> <s_m_source_file>
AV-unprocessed.smi

> <i_m_source_file_index>
152

> <i_lp_mmshare_version>
43012

> <i_f3d_flags>
0

> <s_epik_input>
W0NIM11bQ0gyXU4xW0NIMl1bQ0gyXVtDSDJdW0NASF0xW0NIMl1OKFtDSDNdKWMobltjSF1uMiljKGMyMyluW2NIXW4zW0NIMl1DNChbT0hdKVtDSDJdW0NIMl1PW0NIMl1bQ0gyXTQ=

> <s_epik_cmdline>
J2VwaWtfcHl0aG9uJywgJy1waCcsICc3LjAnLCAnLXRuJywgJzgnLCAnLW1hJywgJzIwMCcsICctbWV0YWxfYmluZGluZycsICctaW1hZScsICc8aW5maWxlLm1hZT4nLCAnLW9tYWUnLCAnPG91dGZpbGUubWFlPic=

> <r_lp_tautomer_probability>
1

> <r_epik_Ionization_Penalty>
0.00152183

> <r_epik_Ionization_Penalty_Charging>
0.00112577

> <r_epik_Ionization_Penalty_Neutral>
0.000396066

> <r_epik_State_Penalty>
-0

> <r_epik_Charging_Adjusted_Penalty>
0.00112577

> <i_epik_Tot_Q>
1

> <i_epik_Tot_abs_Q>
1

> <r_epik_Metal_State_Penalty>
-0

> <b_epik_Metal_Only>
0

> <s_lp_Force_Field>
OPLS_2005

> <r_lp_Energy>
47.1196

> <b_lp_Chiralities_Consistent>
1

> <s_lp_Variant>
AV-unprocessed.smi:152-3

> <Gold.Version>
5.8.1

> <Gold.Id.Protein>
6NUR|6NUR_protein|mol2

> <Gold.PLP.Fitness>
44.4793

> <Gold.PLP.PLP>
-36.8250

> <Gold.PLP.part.hbond>
-5.0000

> <Gold.PLP.part.metal>
0.0000

> <Gold.PLP.part.buried>
-3.0019

> <Gold.PLP.part.nonpolar>
-28.3827

> <Gold.PLP.part.repulsive>
0.2421

> <Gold.PLP.ligand.clash>
0.0000

> <Gold.PLP.ligand.torsion>
1.0998

> <Gold.PLP.Chemscore.Hbond>
3.0000

> <Gold.PLP.Chemscore.CHOScore>
0.0000

> <Gold.PLP.Chemscore.Metal>
0.0000

> <Gold.Chemscore.Hbonds>
donor molecule, donor type, donor heavy atom, donor atom, acceptor molecule, acceptor atom, score
      L1  H     3    58       P1 10747  1.00
      L1  H    22    49       P1  7957  0.91
      P1  H  7997  8010       L1    25  0.96

> <Gold.PLP.Chemscore.Internal.Correction>
0.8538

> <Gold.Rescore>
     Score         DG    S(hbond)    S(metal)    S(lipo)     H(rot)  DE(clash)    DE(int)     intcor
     16.27     -18.31       2.81        0.00      89.35       2.73       0.04       2.00       ----

> <Gold.Chemscore.Fitness>
16.2690

> <Gold.Chemscore.DG>
-18.3104

> <Gold.Chemscore.ZeroCoef>
-5.4800

> <Gold.Chemscore.Hbond>
2.8075

> <Gold.Chemscore.Metal>
0.0000

> <Gold.Chemscore.Lipo>
89.3531

> <Gold.Chemscore.Internal_Hbond>
0.0000

> <Gold.Chemscore.DEClash>
0.0442

> <Gold.Chemscore.DEInternal>
1.9971

> <Gold.Chemscore.Rot>
2.7348

> <Gold.Chemscore.Internal.Correction>
   9.000000E+99

> <Gold.Chemscore.Hbonds>
donor molecule, donor type, donor heavy atom, donor atom, acceptor molecule, acceptor atom, score
      L1  H     3    58       P1 10747  1.00
      L1  H    22    49       P1  7957  0.88
      P1  H  7997  8010       L1    25  0.55

> <Gold.Chemscore.Hbond.Weighted>
-9.3772

> <Gold.Chemscore.Metal.Weighted>
-0.0000

> <Gold.Chemscore.Lipo.Weighted>
-10.4543

> <Gold.Chemscore.Internal_Hbond.Weighted>
0.0000

> <Gold.Chemscore.DEClash.Weighted>
0.0442

> <Gold.Chemscore.DEInternal.Weighted>
1.9971

> <Gold.Chemscore.Rot.Weighted>
7.0010

> <Gold.Chemscore.Internal.Correction.Weighted>
   9.000000E+99

> <Gold.Protein.RotatedTorsions>
[ 6907 6896 6895 6894 ] final  -94.14 input  -60.11 | X-H torsion
[ 7974 7965 7964 7962 ] final   45.03 input  175.53 | X-H torsion
[ 8008 7997 7996 7995 ] final   94.73 input   59.86 | X-H torsion
[ 10167 10162 10161 10158 ] final   75.09 input  -65.29 | X-H torsion
[ 10718 10713 10712 10709 ] final   22.08 input   66.30 | X-H torsion
[ 10763 10752 10751 10750 ] final -143.96 input  -60.55 | X-H torsion
[ 11005 11000 10999 10996 ] final -150.36 input  -57.11 | X-H torsion

> <Gold.Protein.ActiveResidues>
 VAL166  LYS551  ARG553  GLY616  TRP617  ASP618  TYR619  PRO620  LYS621  CYS622 
 ASP623  PHE694  ASN695  SER759  ASP760  ASP761  ALA762  ILE779  LEU786  VAL792 
 PHE793  MET794  SER795  GLU796  ALA797  LYS798  CYS799  TRP800  GLU811  SER814 

> <Gold.Protein.RotatedAtoms>
  150.6936  134.1858  159.4266 H   0  0  0  0  0  0  0  0  0  0  0  0  # atno 6907 bound_to 6896
  151.9831  135.0016  160.0567 H   0  0  0  0  0  0  0  0  0  0  0  0  # atno 6908 bound_to 6896
  152.1737  133.4625  159.4959 H   0  0  0  0  0  0  0  0  0  0  0  0  # atno 6909 bound_to 6896
  146.0516  139.5009  142.9715 H   0  0  0  0  0  0  0  0  0  0  0  0  # atno 7974 bound_to 7965
  156.0611  140.3296  155.7463 H   0  0  0  0  0  0  0  0  0  0  0  0  # atno 8008 bound_to 7997
  155.5453  140.0605  157.2879 H   0  0  0  0  0  0  0  0  0  0  0  0  # atno 8009 bound_to 7997
  154.4482  140.1903  156.0620 H   0  0  0  0  0  0  0  0  0  0  0  0  # atno 8010 bound_to 7997
  140.0067  144.5645  150.7692 H   0  0  0  0  0  0  0  0  0  0  0  0  # atno 10167 bound_to 10162
  157.1473  130.6659  149.6000 H   0  0  0  0  0  0  0  0  0  0  0  0  # atno 10718 bound_to 10713
  154.8448  135.3453  154.6271 H   0  0  0  0  0  0  0  0  0  0  0  0  # atno 10763 bound_to 10752
  153.6880  135.6976  153.5103 H   0  0  0  0  0  0  0  0  0  0  0  0  # atno 10764 bound_to 10752
  153.2617  135.4321  155.0856 H   0  0  0  0  0  0  0  0  0  0  0  0  # atno 10765 bound_to 10752
  140.7410  134.3514  157.5147 H   0  0  0  0  0  0  0  0  0  0  0  0  # atno 11005 bound_to 11000
  145.6715  141.0215  143.1655 LP  0  0  0  0  0  0  0  0  0  0  0  0  # atno 17320 bound_to 7965
  144.7125  139.8316  143.7409 LP  0  0  0  0  0  0  0  0  0  0  0  0  # atno 17321 bound_to 7965
  140.7398  143.2795  151.3640 LP  0  0  0  0  0  0  0  0  0  0  0  0  # atno 17342 bound_to 10162
  139.6234  144.0863  152.2412 LP  0  0  0  0  0  0  0  0  0  0  0  0  # atno 17343 bound_to 10162
  155.9777  130.4757  150.6610 LP  0  0  0  0  0  0  0  0  0  0  0  0  # atno 17370 bound_to 10713
  157.4252  131.0842  151.1092 LP  0  0  0  0  0  0  0  0  0  0  0  0  # atno 17371 bound_to 10713
  139.8806  134.9081  156.2960 LP  0  0  0  0  0  0  0  0  0  0  0  0  # atno 17394 bound_to 11000
  140.9836  133.7252  156.0709 LP  0  0  0  0  0  0  0  0  0  0  0  0  # atno 17395 bound_to 11000

$$$$
