AV-unprocessed.smi:837|AV-procd|sdf|3907|dock5
  -GOLD-   22720 1373D 1   1.00000     0.00000
 Structure written by MMmdl.
 49 51  0  0  0  0  0  0  0  0  3 V2000
  152.0910  140.2653  159.3833 C   0  0  0  0  0  0  0  0  0  0  0  0
  151.7940  141.7622  159.1515 C   0  0  1  0  0  0  0  0  0  0  0  0
  153.0866  142.5990  159.2630 C   0  0  0  0  0  0  0  0  0  0  0  0
  152.8029  144.1040  159.1514 C   0  0  0  0  0  0  0  0  0  0  0  0
  152.0706  144.4330  157.8442 C   0  0  0  0  0  0  0  0  0  0  0  0
  150.7730  143.6170  157.7122 C   0  0  0  0  0  0  0  0  0  0  0  0
  151.0107  142.0893  157.8379 C   0  0  1  0  0  0  0  0  0  0  0  0
  151.6949  141.5894  156.6542 N   0  5  0  0  0  0  0  0  0  0  0  0
  150.8726  140.7373  156.0005 C   0  0  0  0  0  0  0  0  0  0  0  0
  151.1185  140.1357  154.9551 O   0  0  0  0  0  0  0  0  0  0  0  0
  149.7024  140.5967  156.6517 N   0  0  0  0  0  0  0  0  0  0  0  0
  148.6240  139.6902  156.2410 C   0  0  0  0  0  0  0  0  0  0  0  0
  148.2637  138.7142  157.3656 C   0  0  0  0  0  0  0  0  0  0  0  0
  147.5316  139.0709  158.2885 O   0  0  0  0  0  0  0  0  0  0  0  0
  148.7942  137.4859  157.2729 N   0  0  0  0  0  0  0  0  0  0  0  0
  148.6475  136.4171  158.2562 C   0  0  0  0  0  0  0  0  0  0  0  0
  148.5969  136.9198  159.7165 C   0  0  0  0  0  0  0  0  0  0  0  0
  148.0252  135.9182  160.7094 C   0  0  0  0  0  0  0  0  0  0  0  0
  147.9210  136.2480  162.0795 C   0  0  0  0  0  0  0  0  0  0  0  0
  147.3997  135.2999  162.9839 C   0  0  0  0  0  0  0  0  0  0  0  0
  147.0001  134.0383  162.5001 C   0  0  0  0  0  0  0  0  0  0  0  0
  147.1126  133.7574  161.1835 N   0  3  0  0  0  0  0  0  0  0  0  0
  147.5996  134.6407  160.2843 C   0  0  0  0  0  0  0  0  0  0  0  0
  149.6823  141.3502  157.7561 C   0  0  0  0  0  0  0  0  0  0  0  0
  148.7769  141.4420  158.5861 O   0  0  0  0  0  0  0  0  0  0  0  0
  152.7634  139.8736  158.6222 H   0  0  0  0  0  0  0  0  0  0  0  0
  151.1852  139.6591  159.3747 H   0  0  0  0  0  0  0  0  0  0  0  0
  152.5699  140.1107  160.3502 H   0  0  0  0  0  0  0  0  0  0  0  0
  151.1579  142.0723  159.9824 H   0  0  0  0  0  0  0  0  0  0  0  0
  153.5797  142.3968  160.2143 H   0  0  0  0  0  0  0  0  0  0  0  0
  153.7907  142.3011  158.4850 H   0  0  0  0  0  0  0  0  0  0  0  0
  152.1992  144.4269  160.0003 H   0  0  0  0  0  0  0  0  0  0  0  0
  153.7374  144.6630  159.2044 H   0  0  0  0  0  0  0  0  0  0  0  0
  151.8432  145.4984  157.8048 H   0  0  0  0  0  0  0  0  0  0  0  0
  152.7251  144.2277  156.9962 H   0  0  0  0  0  0  0  0  0  0  0  0
  150.0810  143.9433  158.4904 H   0  0  0  0  0  0  0  0  0  0  0  0
  150.2882  143.8556  156.7638 H   0  0  0  0  0  0  0  0  0  0  0  0
  147.7298  140.2528  155.9682 H   0  0  0  0  0  0  0  0  0  0  0  0
  148.9181  139.1465  155.3413 H   0  0  0  0  0  0  0  0  0  0  0  0
  149.3773  137.2895  156.4721 H   0  0  0  0  0  0  0  0  0  0  0  0
  147.7688  135.8122  158.0286 H   0  0  0  0  0  0  0  0  0  0  0  0
  149.5101  135.7618  158.1348 H   0  0  0  0  0  0  0  0  0  0  0  0
  149.6035  137.1939  160.0348 H   0  0  0  0  0  0  0  0  0  0  0  0
  148.0103  137.8374  159.7683 H   0  0  0  0  0  0  0  0  0  0  0  0
  148.2455  137.2139  162.4385 H   0  0  0  0  0  0  0  0  0  0  0  0
  147.3244  135.5302  164.0365 H   0  0  0  0  0  0  0  0  0  0  0  0
  146.6038  133.2496  163.1229 H   0  0  0  0  0  0  0  0  0  0  0  0
  147.6438  134.2961  159.2618 H   0  0  0  0  0  0  0  0  0  0  0  0
  146.8218  132.8364  160.8554 H   0  0  0  0  0  0  0  0  0  0  0  0
  1  2  1  0  0  0  0
  1 26  1  0  0  0  0
  1 27  1  0  0  0  0
  1 28  1  0  0  0  0
  2  7  1  0  0  0  0
  2  3  1  0  0  0  0
  2 29  1  0  0  0  0
  3  4  1  0  0  0  0
  3 30  1  0  0  0  0
  3 31  1  0  0  0  0
  4  5  1  0  0  0  0
  4 32  1  0  0  0  0
  4 33  1  0  0  0  0
  5  6  1  0  0  0  0
  5 34  1  0  0  0  0
  5 35  1  0  0  0  0
  6  7  1  0  0  0  0
  6 36  1  0  0  0  0
  6 37  1  0  0  0  0
  7 24  1  0  0  0  0
  7  8  1  0  0  0  0
  8  9  1  0  0  0  0
  9 10  2  0  0  0  0
  9 11  1  0  0  0  0
 11 12  1  0  0  0  0
 11 24  1  0  0  0  0
 12 13  1  0  0  0  0
 12 38  1  0  0  0  0
 12 39  1  0  0  0  0
 13 14  2  0  0  0  0
 13 15  1  0  0  0  0
 15 16  1  0  0  0  0
 15 40  1  0  0  0  0
 16 17  1  0  0  0  0
 16 41  1  0  0  0  0
 16 42  1  0  0  0  0
 17 18  1  0  0  0  0
 17 43  1  0  0  0  0
 17 44  1  0  0  0  0
 18 23  1  0  0  0  0
 18 19  2  0  0  0  0
 19 20  1  0  0  0  0
 19 45  1  0  0  0  0
 20 21  2  0  0  0  0
 20 46  1  0  0  0  0
 21 22  1  0  0  0  0
 21 47  1  0  0  0  0
 22 23  2  0  0  0  0
 22 49  1  0  0  0  0
 23 48  1  0  0  0  0
 24 25  2  0  0  0  0
M  CHG  1   8  -1
M  CHG  1  22   1
M  END
> <s_m_source_file>
AV-unprocessed.smi

> <i_m_source_file_index>
837

> <i_lp_mmshare_version>
43012

> <i_f3d_flags>
0

> <s_epik_input>
W0NIMl0xW0NIMl1bQ0gyXVtDSDJdW0NAQEhdKFtDSDNdKVtDQEBdMTJbTkhdQyg9TylOKEMyPU8pW0NIMl1DKD1PKVtOSF1bQ0gyXVtDSDJdYzNbY0hdW2NIXVtjSF1uW2NIXTM=

> <s_epik_cmdline>
J2VwaWtfcHl0aG9uJywgJy1waCcsICc3LjAnLCAnLXRuJywgJzgnLCAnLW1hJywgJzIwMCcsICctbWV0YWxfYmluZGluZycsICctaW1hZScsICc8aW5maWxlLm1hZT4nLCAnLW9tYWUnLCAnPG91dGZpbGUubWFlPic=

> <r_lp_tautomer_probability>
1

> <r_epik_Ionization_Penalty>
8.27169

> <r_epik_Ionization_Penalty_Charging>
8.27169

> <r_epik_Ionization_Penalty_Neutral>
1.56557e-07

> <r_epik_State_Penalty>
8.42098

> <r_epik_Charging_Adjusted_Penalty>
16.6927

> <i_epik_Tot_Q>
0

> <i_epik_Tot_abs_Q>
2

> <r_epik_Metal_State_Penalty>
4.38565

> <b_epik_Metal_Only>
1

> <s_lp_Force_Field>
OPLS_2005

> <r_lp_Energy>
17.1627

> <b_lp_Chiralities_Consistent>
1

> <s_lp_Variant>
AV-unprocessed.smi:837-16

> <Gold.Version>
5.8.1

> <Gold.Id.Protein>
6NUR|6NUR_protein|mol2

> <Gold.PLP.Fitness>
47.3613

> <Gold.PLP.PLP>
-45.4618

> <Gold.PLP.part.hbond>
-3.5101

> <Gold.PLP.part.metal>
0.0000

> <Gold.PLP.part.buried>
-1.1716

> <Gold.PLP.part.nonpolar>
-41.3223

> <Gold.PLP.part.repulsive>
0.1700

> <Gold.PLP.ligand.clash>
0.0000

> <Gold.PLP.ligand.torsion>
0.5685

> <Gold.PLP.Chemscore.Hbond>
1.0000

> <Gold.PLP.Chemscore.CHOScore>
0.0000

> <Gold.PLP.Chemscore.Metal>
0.0000

> <Gold.Chemscore.Hbonds>
donor molecule, donor type, donor heavy atom, donor atom, acceptor molecule, acceptor atom, score
      P1  H  7989  7998       L1    10  1.00

> <Gold.PLP.Chemscore.Internal.Correction>
0.0366

> <Gold.Rescore>
     Score         DG    S(hbond)    S(metal)    S(lipo)     H(rot)  DE(clash)    DE(int)     intcor
     12.50     -17.99       1.01        0.00     120.06       1.92       1.21       4.27       ----

> <Gold.Chemscore.Fitness>
12.5045

> <Gold.Chemscore.DG>
-17.9852

> <Gold.Chemscore.ZeroCoef>
-5.4800

> <Gold.Chemscore.Hbond>
1.0082

> <Gold.Chemscore.Metal>
0.0000

> <Gold.Chemscore.Lipo>
120.0569

> <Gold.Chemscore.Internal_Hbond>
0.0000

> <Gold.Chemscore.DEClash>
1.2071

> <Gold.Chemscore.DEInternal>
4.2736

> <Gold.Chemscore.Rot>
1.9175

> <Gold.Chemscore.Internal.Correction>
   9.000000E+99

> <Gold.Chemscore.Hbonds>
donor molecule, donor type, donor heavy atom, donor atom, acceptor molecule, acceptor atom, score
      P1  H  7989  7998       L1    10  0.99

> <Gold.Chemscore.Hbond.Weighted>
-3.3673

> <Gold.Chemscore.Metal.Weighted>
-0.0000

> <Gold.Chemscore.Lipo.Weighted>
-14.0467

> <Gold.Chemscore.Internal_Hbond.Weighted>
0.0000

> <Gold.Chemscore.DEClash.Weighted>
1.2071

> <Gold.Chemscore.DEInternal.Weighted>
4.2736

> <Gold.Chemscore.Rot.Weighted>
4.9087

> <Gold.Chemscore.Internal.Correction.Weighted>
   9.000000E+99

> <Gold.Protein.RotatedTorsions>
[ 6907 6896 6895 6894 ] final    2.56 input  -60.11 | X-H torsion
[ 7974 7965 7964 7962 ] final -114.01 input  175.53 | X-H torsion
[ 8008 7997 7996 7995 ] final  -53.87 input   59.86 | X-H torsion
[ 10167 10162 10161 10158 ] final   19.01 input  -65.29 | X-H torsion
[ 10718 10713 10712 10709 ] final -131.99 input   66.30 | X-H torsion
[ 10763 10752 10751 10750 ] final  104.11 input  -60.55 | X-H torsion
[ 11005 11000 10999 10996 ] final  -77.94 input  -57.11 | X-H torsion

> <Gold.Protein.ActiveResidues>
 VAL166  LYS551  ARG553  GLY616  TRP617  ASP618  TYR619  PRO620  LYS621  CYS622 
 ASP623  PHE694  ASN695  SER759  ASP760  ASP761  ALA762  ILE779  LEU786  VAL792 
 PHE793  MET794  SER795  GLU796  ALA797  LYS798  CYS799  TRP800  GLU811  SER814 

> <Gold.Protein.RotatedAtoms>
  151.6109  135.1040  160.0080 H   0  0  0  0  0  0  0  0  0  0  0  0  # atno 6907 bound_to 6896
  152.4209  133.7110  159.6489 H   0  0  0  0  0  0  0  0  0  0  0  0  # atno 6908 bound_to 6896
  150.8096  133.8373  159.3210 H   0  0  0  0  0  0  0  0  0  0  0  0  # atno 6909 bound_to 6896
  145.1252  140.8693  143.3790 H   0  0  0  0  0  0  0  0  0  0  0  0  # atno 7974 bound_to 7965
  154.4146  140.1190  156.5223 H   0  0  0  0  0  0  0  0  0  0  0  0  # atno 8008 bound_to 7997
  155.6689  140.3496  155.4791 H   0  0  0  0  0  0  0  0  0  0  0  0  # atno 8009 bound_to 7997
  155.9649  140.1130  157.0853 H   0  0  0  0  0  0  0  0  0  0  0  0  # atno 8010 bound_to 7997
  140.5611  143.9336  150.6643 H   0  0  0  0  0  0  0  0  0  0  0  0  # atno 10167 bound_to 10162
  156.2300  130.7031  151.0848 H   0  0  0  0  0  0  0  0  0  0  0  0  # atno 10718 bound_to 10713
  153.3616  135.3954  155.1722 H   0  0  0  0  0  0  0  0  0  0  0  0  # atno 10763 bound_to 10752
  154.8680  135.3681  154.5092 H   0  0  0  0  0  0  0  0  0  0  0  0  # atno 10764 bound_to 10752
  153.5552  135.7082  153.5633 H   0  0  0  0  0  0  0  0  0  0  0  0  # atno 10765 bound_to 10752
  141.1663  133.7043  156.7897 H   0  0  0  0  0  0  0  0  0  0  0  0  # atno 11005 bound_to 11000
  145.0696  139.3042  143.5839 LP  0  0  0  0  0  0  0  0  0  0  0  0  # atno 17320 bound_to 7965
  146.3518  140.0166  142.8662 LP  0  0  0  0  0  0  0  0  0  0  0  0  # atno 17321 bound_to 7965
  140.2787  143.3405  152.1171 LP  0  0  0  0  0  0  0  0  0  0  0  0  # atno 17342 bound_to 10162
  139.5070  144.6825  151.5973 LP  0  0  0  0  0  0  0  0  0  0  0  0  # atno 17343 bound_to 10162
  157.7128  131.0725  150.6437 LP  0  0  0  0  0  0  0  0  0  0  0  0  # atno 17370 bound_to 10713
  156.6504  130.4483  149.5721 LP  0  0  0  0  0  0  0  0  0  0  0  0  # atno 17371 bound_to 10713
  140.2334  134.8668  157.3500 LP  0  0  0  0  0  0  0  0  0  0  0  0  # atno 17394 bound_to 11000
  140.1868  134.4421  155.7739 LP  0  0  0  0  0  0  0  0  0  0  0  0  # atno 17395 bound_to 11000

$$$$
