AV-unprocessed.smi:1768|AV-procd|sdf|7145|dock3
  -GOLD-   22720 8383D 1   1.00000     0.00000
 Structure written by MMmdl.
 33 34  0  0  0  0  0  0  0  0  1 V2000
  143.5244  132.5018  150.7318 C   0  0  0  0  0  0  0  0  0  0  0  0
  144.1178  133.7367  151.3191 C   0  0  0  0  0  0  0  0  0  0  0  0
  143.3859  134.6709  151.9385 N   0  0  0  0  0  0  0  0  0  0  0  0
  144.1610  135.7250  152.4016 N   0  0  0  0  0  0  0  0  0  0  0  0
  145.4592  135.5542  152.1162 C   0  0  0  0  0  0  0  0  0  0  0  0
  146.4753  136.4795  152.4734 N   0  0  0  0  0  0  0  0  0  0  0  0
  146.3533  137.6277  153.1621 C   0  0  0  0  0  0  0  0  0  0  0  0
  145.2993  138.0784  153.6111 O   0  0  0  0  0  0  0  0  0  0  0  0
  147.5422  138.2323  153.3031 N   0  0  0  0  0  0  0  0  0  0  0  0
  147.7882  139.4843  154.0156 C   0  0  2  0  0  0  0  0  0  0  0  0
  147.1061  140.6305  153.2531 C   0  0  0  0  0  0  0  0  0  0  0  0
  149.3074  139.6968  154.1617 C   0  0  1  0  0  0  0  0  0  0  0  0
  149.7072  140.8432  155.0928 C   0  0  0  0  0  0  0  0  0  0  0  0
  151.0846  140.4397  155.5982 C   0  0  0  0  0  0  0  0  0  0  0  0
  151.2176  138.9702  155.1908 C   0  0  0  0  0  0  0  0  0  0  0  0
  149.9107  138.5798  154.7970 O   0  0  0  0  0  0  0  0  0  0  0  0
  145.8423  134.0769  151.2485 S   0  0  0  0  0  0  0  0  0  0  0  0
  142.4496  132.4662  150.9128 H   0  0  0  0  0  0  0  0  0  0  0  0
  143.9828  131.6196  151.1791 H   0  0  0  0  0  0  0  0  0  0  0  0
  143.6986  132.4806  149.6559 H   0  0  0  0  0  0  0  0  0  0  0  0
  147.4068  136.2364  152.1715 H   0  0  0  0  0  0  0  0  0  0  0  0
  148.3497  137.7820  152.8984 H   0  0  0  0  0  0  0  0  0  0  0  0
  147.3516  139.4426  155.0150 H   0  0  0  0  0  0  0  0  0  0  0  0
  147.2290  141.5813  153.7718 H   0  0  0  0  0  0  0  0  0  0  0  0
  146.0348  140.4514  153.1545 H   0  0  0  0  0  0  0  0  0  0  0  0
  147.5193  140.7421  152.2502 H   0  0  0  0  0  0  0  0  0  0  0  0
  149.7708  139.8361  153.1826 H   0  0  0  0  0  0  0  0  0  0  0  0
  149.7092  141.8102  154.5890 H   0  0  0  0  0  0  0  0  0  0  0  0
  149.0163  140.9048  155.9348 H   0  0  0  0  0  0  0  0  0  0  0  0
  151.8733  141.0403  155.1439 H   0  0  0  0  0  0  0  0  0  0  0  0
  151.1492  140.5629  156.6798 H   0  0  0  0  0  0  0  0  0  0  0  0
  151.8935  138.8671  154.3405 H   0  0  0  0  0  0  0  0  0  0  0  0
  151.5897  138.3416  155.9998 H   0  0  0  0  0  0  0  0  0  0  0  0
  1  2  1  0  0  0  0
  1 18  1  0  0  0  0
  1 19  1  0  0  0  0
  1 20  1  0  0  0  0
  2 17  1  0  0  0  0
  2  3  2  0  0  0  0
  3  4  1  0  0  0  0
  4  5  2  0  0  0  0
  5  6  1  0  0  0  0
  5 17  1  0  0  0  0
  6  7  1  0  0  0  0
  6 21  1  0  0  0  0
  7  8  2  0  0  0  0
  7  9  1  0  0  0  0
  9 10  1  0  0  0  0
  9 22  1  0  0  0  0
 10 11  1  0  0  0  0
 10 12  1  0  0  0  0
 10 23  1  0  0  0  0
 11 24  1  0  0  0  0
 11 25  1  0  0  0  0
 11 26  1  0  0  0  0
 12 16  1  0  0  0  0
 12 13  1  0  0  0  0
 12 27  1  0  0  0  0
 13 14  1  0  0  0  0
 13 28  1  0  0  0  0
 13 29  1  0  0  0  0
 14 15  1  0  0  0  0
 14 30  1  0  0  0  0
 14 31  1  0  0  0  0
 15 16  1  0  0  0  0
 15 32  1  0  0  0  0
 15 33  1  0  0  0  0
M  END
> <s_m_source_file>
AV-unprocessed.smi

> <i_m_source_file_index>
1768

> <i_lp_mmshare_version>
43012

> <i_f3d_flags>
0

> <s_epik_input>
W0NIM11jMW5uYyhzMSlbTkhdQyg9TylbTkhdW0NASF0oW0NIM10pW0NAQEhdMltDSDJdW0NIMl1bQ0gyXU8y

> <s_epik_cmdline>
J2VwaWtfcHl0aG9uJywgJy1waCcsICc3LjAnLCAnLXRuJywgJzgnLCAnLW1hJywgJzIwMCcsICctbWV0YWxfYmluZGluZycsICctaW1hZScsICc8aW5maWxlLm1hZT4nLCAnLW9tYWUnLCAnPG91dGZpbGUubWFlPic=

> <r_lp_tautomer_probability>
1

> <r_epik_Ionization_Penalty>
0.000523083

> <r_epik_Ionization_Penalty_Charging>
0

> <r_epik_Ionization_Penalty_Neutral>
0.000523083

> <r_epik_State_Penalty>
-0

> <r_epik_Charging_Adjusted_Penalty>
0

> <i_epik_Tot_Q>
0

> <i_epik_Tot_abs_Q>
0

> <r_epik_Metal_State_Penalty>
0.223408

> <b_epik_Metal_Only>
0

> <s_lp_Force_Field>
OPLS_2005

> <r_lp_Energy>
16.8898

> <b_lp_Chiralities_Consistent>
1

> <s_lp_Variant>
AV-unprocessed.smi:1768-3

> <Gold.Version>
5.8.1

> <Gold.Id.Protein>
6NUR|6NUR_protein|mol2

> <Gold.PLP.Fitness>
32.1848

> <Gold.PLP.PLP>
-26.6801

> <Gold.PLP.part.hbond>
-2.0000

> <Gold.PLP.part.metal>
0.0000

> <Gold.PLP.part.buried>
-2.7033

> <Gold.PLP.part.nonpolar>
-23.5033

> <Gold.PLP.part.repulsive>
0.6785

> <Gold.PLP.ligand.clash>
0.0000

> <Gold.PLP.ligand.torsion>
0.1263

> <Gold.PLP.Chemscore.Hbond>
1.9120

> <Gold.PLP.Chemscore.CHOScore>
0.0000

> <Gold.PLP.Chemscore.Metal>
0.0000

> <Gold.Chemscore.Hbonds>
donor molecule, donor type, donor heavy atom, donor atom, acceptor molecule, acceptor atom, score
      L1  H     6    21       P1  7948  1.00
      L1  H     9    22       P1  7948  0.90

> <Gold.PLP.Chemscore.Internal.Correction>
0.0212

> <Gold.Rescore>
     Score         DG    S(hbond)    S(metal)    S(lipo)     H(rot)  DE(clash)    DE(int)     intcor
     14.12     -15.69       1.90        0.00      61.26       1.29       0.17       1.40       ----

> <Gold.Chemscore.Fitness>
14.1171

> <Gold.Chemscore.DG>
-15.6922

> <Gold.Chemscore.ZeroCoef>
-5.4800

> <Gold.Chemscore.Hbond>
1.9017

> <Gold.Chemscore.Metal>
0.0000

> <Gold.Chemscore.Lipo>
61.2631

> <Gold.Chemscore.Internal_Hbond>
0.0000

> <Gold.Chemscore.DEClash>
0.1717

> <Gold.Chemscore.DEInternal>
1.4034

> <Gold.Chemscore.Rot>
1.2919

> <Gold.Chemscore.Internal.Correction>
   9.000000E+99

> <Gold.Chemscore.Hbonds>
donor molecule, donor type, donor heavy atom, donor atom, acceptor molecule, acceptor atom, score
      L1  H     6    21       P1  7948  0.96
      L1  H     9    22       P1  7948  0.87

> <Gold.Chemscore.Hbond.Weighted>
-6.3515

> <Gold.Chemscore.Metal.Weighted>
-0.0000

> <Gold.Chemscore.Lipo.Weighted>
-7.1678

> <Gold.Chemscore.Internal_Hbond.Weighted>
0.0000

> <Gold.Chemscore.DEClash.Weighted>
0.1717

> <Gold.Chemscore.DEInternal.Weighted>
1.4034

> <Gold.Chemscore.Rot.Weighted>
3.3072

> <Gold.Chemscore.Internal.Correction.Weighted>
   9.000000E+99

> <Gold.Protein.RotatedTorsions>
[ 6907 6896 6895 6894 ] final  -58.88 input  -60.11 | X-H torsion
[ 7974 7965 7964 7962 ] final   36.82 input  175.53 | X-H torsion
[ 8008 7997 7996 7995 ] final  -99.02 input   59.86 | X-H torsion
[ 10167 10162 10161 10158 ] final   23.35 input  -65.29 | X-H torsion
[ 10718 10713 10712 10709 ] final   28.79 input   66.30 | X-H torsion
[ 10763 10752 10751 10750 ] final  -12.81 input  -60.55 | X-H torsion
[ 11005 11000 10999 10996 ] final   23.29 input  -57.11 | X-H torsion

> <Gold.Protein.ActiveResidues>
 VAL166  LYS551  ARG553  GLY616  TRP617  ASP618  TYR619  PRO620  LYS621  CYS622 
 ASP623  PHE694  ASN695  SER759  ASP760  ASP761  ALA762  ILE779  LEU786  VAL792 
 PHE793  MET794  SER795  GLU796  ALA797  LYS798  CYS799  TRP800  GLU811  SER814 

> <Gold.Protein.RotatedAtoms>
  150.7973  134.7042  159.6566 H   0  0  0  0  0  0  0  0  0  0  0  0  # atno 6907 bound_to 6896
  152.4087  134.6159  160.0048 H   0  0  0  0  0  0  0  0  0  0  0  0  # atno 6908 bound_to 6896
  151.6409  133.3289  159.3166 H   0  0  0  0  0  0  0  0  0  0  0  0  # atno 6909 bound_to 6896
  146.1183  139.5970  142.9306 H   0  0  0  0  0  0  0  0  0  0  0  0  # atno 7974 bound_to 7965
  154.8092  140.0451  157.1330 H   0  0  0  0  0  0  0  0  0  0  0  0  # atno 8008 bound_to 7997
  154.9388  140.3050  155.5111 H   0  0  0  0  0  0  0  0  0  0  0  0  # atno 8009 bound_to 7997
  156.2970  140.2309  156.4455 H   0  0  0  0  0  0  0  0  0  0  0  0  # atno 8010 bound_to 7997
  140.5276  143.9897  150.6448 H   0  0  0  0  0  0  0  0  0  0  0  0  # atno 10167 bound_to 10162
  157.2381  130.7056  149.6345 H   0  0  0  0  0  0  0  0  0  0  0  0  # atno 10718 bound_to 10713
  153.5039  135.7017  153.5817 H   0  0  0  0  0  0  0  0  0  0  0  0  # atno 10763 bound_to 10752
  153.3936  135.3889  155.1940 H   0  0  0  0  0  0  0  0  0  0  0  0  # atno 10764 bound_to 10752
  154.8708  135.3864  154.4512 H   0  0  0  0  0  0  0  0  0  0  0  0  # atno 10765 bound_to 10752
  140.3712  134.2020  155.7667 H   0  0  0  0  0  0  0  0  0  0  0  0  # atno 11005 bound_to 11000
  145.5520  141.0412  143.2273 LP  0  0  0  0  0  0  0  0  0  0  0  0  # atno 17320 bound_to 7965
  144.7573  139.7042  143.7249 LP  0  0  0  0  0  0  0  0  0  0  0  0  # atno 17321 bound_to 7965
  140.3263  143.3105  152.0733 LP  0  0  0  0  0  0  0  0  0  0  0  0  # atno 17342 bound_to 10162
  139.4943  144.6540  151.6614 LP  0  0  0  0  0  0  0  0  0  0  0  0  # atno 17343 bound_to 10162
  155.9671  130.4467  150.5550 LP  0  0  0  0  0  0  0  0  0  0  0  0  # atno 17370 bound_to 10713
  157.3407  131.0716  151.1790 LP  0  0  0  0  0  0  0  0  0  0  0  0  # atno 17371 bound_to 10713
  141.1954  133.8107  157.0717 LP  0  0  0  0  0  0  0  0  0  0  0  0  # atno 17394 bound_to 11000
  140.0550  134.9785  157.1204 LP  0  0  0  0  0  0  0  0  0  0  0  0  # atno 17395 bound_to 11000

$$$$
