AV-unprocessed.smi:2982|AV-procd|sdf|11376|dock8
  -GOLD-   2272016293D 1   1.00000     0.00000
 Structure written by MMmdl.
 36 37  0  0  0  0  0  0  0  0  1 V2000
  151.8692  145.2924  160.0964 C   0  0  0  0  0  0  0  0  0  0  0  0
  151.0795  145.1152  158.7930 C   0  0  0  0  0  0  0  0  0  0  0  0
  150.1642  143.8742  158.7632 C   0  0  0  0  0  0  0  0  0  0  0  0
  150.8474  142.6446  158.4020 N   0  0  0  0  0  0  0  0  0  0  0  0
  150.6770  142.0112  157.1675 C   0  0  0  0  0  0  0  0  0  0  0  0
  149.8098  142.5861  156.2521 N   0  0  0  0  0  0  0  0  0  0  0  0
  151.3321  140.8572  156.8514 C   0  0  0  0  0  0  0  0  0  0  0  0
  151.1891  140.1956  155.6373 N   0  0  0  0  0  0  0  0  0  0  0  0
  152.3103  139.6358  154.8948 C   0  0  0  0  0  0  0  0  0  0  0  0
  152.1466  138.1130  154.7407 C   0  0  0  0  0  0  0  0  0  0  0  0
  150.8849  137.8233  154.1454 O   0  0  0  0  0  0  0  0  0  0  0  0
  149.7959  138.2976  154.9322 C   0  0  0  0  0  0  0  0  0  0  0  0
  149.8951  139.8259  155.0805 C   0  0  0  0  0  0  0  0  0  0  0  0
  152.2486  140.2350  157.8117 C   0  0  0  0  0  0  0  0  0  0  0  0
  152.8903  139.2016  157.6254 O   0  0  0  0  0  0  0  0  0  0  0  0
  152.3693  140.9049  159.0267 N   0  0  0  0  0  0  0  0  0  0  0  0
  151.7096  142.0785  159.3734 C   0  0  0  0  0  0  0  0  0  0  0  0
  151.8943  142.5633  160.4900 O   0  0  0  0  0  0  0  0  0  0  0  0
  152.9863  140.5013  159.7163 H   0  0  0  0  0  0  0  0  0  0  0  0
  152.5470  146.1431  160.0248 H   0  0  0  0  0  0  0  0  0  0  0  0
  152.4676  144.4083  160.3179 H   0  0  0  0  0  0  0  0  0  0  0  0
  151.2060  145.4728  160.9424 H   0  0  0  0  0  0  0  0  0  0  0  0
  150.4916  146.0143  158.6069 H   0  0  0  0  0  0  0  0  0  0  0  0
  151.7858  145.0431  157.9657 H   0  0  0  0  0  0  0  0  0  0  0  0
  149.7256  143.6931  159.7448 H   0  0  0  0  0  0  0  0  0  0  0  0
  149.3096  144.0176  158.1008 H   0  0  0  0  0  0  0  0  0  0  0  0
  149.3102  143.4385  156.4611 H   0  0  0  0  0  0  0  0  0  0  0  0
  149.6434  142.1781  155.3436 H   0  0  0  0  0  0  0  0  0  0  0  0
  152.3568  140.1121  153.9147 H   0  0  0  0  0  0  0  0  0  0  0  0
  153.2491  139.8635  155.4015 H   0  0  0  0  0  0  0  0  0  0  0  0
  152.9385  137.7133  154.1071 H   0  0  0  0  0  0  0  0  0  0  0  0
  152.2284  137.6094  155.7045 H   0  0  0  0  0  0  0  0  0  0  0  0
  148.8600  138.0272  154.4431 H   0  0  0  0  0  0  0  0  0  0  0  0
  149.7976  137.8081  155.9071 H   0  0  0  0  0  0  0  0  0  0  0  0
  149.0910  140.1949  155.7185 H   0  0  0  0  0  0  0  0  0  0  0  0
  149.7762  140.3094  154.1102 H   0  0  0  0  0  0  0  0  0  0  0  0
  1  2  1  0  0  0  0
  1 20  1  0  0  0  0
  1 21  1  0  0  0  0
  1 22  1  0  0  0  0
  2  3  1  0  0  0  0
  2 23  1  0  0  0  0
  2 24  1  0  0  0  0
  3  4  1  0  0  0  0
  3 25  1  0  0  0  0
  3 26  1  0  0  0  0
  4 17  1  0  0  0  0
  4  5  1  0  0  0  0
  5  6  1  0  0  0  0
  5  7  2  0  0  0  0
  6 27  1  0  0  0  0
  6 28  1  0  0  0  0
  7  8  1  0  0  0  0
  7 14  1  0  0  0  0
  8 13  1  0  0  0  0
  8  9  1  0  0  0  0
  9 10  1  0  0  0  0
  9 29  1  0  0  0  0
  9 30  1  0  0  0  0
 10 11  1  0  0  0  0
 10 31  1  0  0  0  0
 10 32  1  0  0  0  0
 11 12  1  0  0  0  0
 12 13  1  0  0  0  0
 12 33  1  0  0  0  0
 12 34  1  0  0  0  0
 13 35  1  0  0  0  0
 13 36  1  0  0  0  0
 14 15  2  0  0  0  0
 14 16  1  0  0  0  0
 16 19  1  0  0  0  0
 16 17  1  0  0  0  0
 17 18  2  0  0  0  0
M  END
> <s_m_source_file>
AV-unprocessed.smi

> <i_m_source_file_index>
2982

> <i_lp_mmshare_version>
43012

> <i_f3d_flags>
0

> <s_epik_input>
W0NIM11bQ0gyXVtDSDJdbjFjKFtOSDJdKWMoYyg9TylbbkhdYzE9TylOMltDSDJdW0NIMl1PW0NIMl1bQ0gyXTI=

> <s_epik_cmdline>
J2VwaWtfcHl0aG9uJywgJy1waCcsICc3LjAnLCAnLXRuJywgJzgnLCAnLW1hJywgJzIwMCcsICctbWV0YWxfYmluZGluZycsICctaW1hZScsICc8aW5maWxlLm1hZT4nLCAnLW9tYWUnLCAnPG91dGZpbGUubWFlPic=

> <r_lp_tautomer_probability>
1

> <r_epik_Ionization_Penalty>
1.08155e-05

> <r_epik_Ionization_Penalty_Charging>
2.81443e-06

> <r_epik_Ionization_Penalty_Neutral>
8.00112e-06

> <r_epik_State_Penalty>
-0

> <r_epik_Charging_Adjusted_Penalty>
2.81443e-06

> <i_epik_Tot_Q>
0

> <i_epik_Tot_abs_Q>
0

> <r_epik_Metal_State_Penalty>
-0

> <b_epik_Metal_Only>
0

> <s_epik_Chemistry_Notes>
This compound has an imine and may undergo hydrolysis.

> <s_lp_Force_Field>
OPLS_2005

> <r_lp_Energy>
28.8877

> <b_lp_Chiralities_Consistent>
1

> <s_lp_Variant>
AV-unprocessed.smi:2982-1

> <Gold.Version>
5.8.1

> <Gold.Id.Protein>
6NUR|6NUR_protein|mol2

> <Gold.PLP.Fitness>
39.5855

> <Gold.PLP.PLP>
-34.9249

> <Gold.PLP.part.hbond>
-2.1235

> <Gold.PLP.part.metal>
0.0000

> <Gold.PLP.part.buried>
-3.8383

> <Gold.PLP.part.nonpolar>
-30.2296

> <Gold.PLP.part.repulsive>
0.4710

> <Gold.PLP.ligand.clash>
0.0068

> <Gold.PLP.ligand.torsion>
1.0829

> <Gold.PLP.Chemscore.Hbond>
1.7360

> <Gold.PLP.Chemscore.CHOScore>
0.0000

> <Gold.PLP.Chemscore.Metal>
0.0000

> <Gold.Chemscore.Hbonds>
donor molecule, donor type, donor heavy atom, donor atom, acceptor molecule, acceptor atom, score
      L1  H     6    27       P1  8028  0.74
      P1  H  7997  8010       L1    15  0.94

> <Gold.PLP.Chemscore.Internal.Correction>
1.6253

> <Gold.Rescore>
     Score         DG    S(hbond)    S(metal)    S(lipo)     H(rot)  DE(clash)    DE(int)     intcor
      9.03     -14.54       1.42        0.00      63.93       1.24       0.57       4.94       ----

> <Gold.Chemscore.Fitness>
9.0276

> <Gold.Chemscore.DG>
-14.5386

> <Gold.Chemscore.ZeroCoef>
-5.4800

> <Gold.Chemscore.Hbond>
1.4209

> <Gold.Chemscore.Metal>
0.0000

> <Gold.Chemscore.Lipo>
63.9278

> <Gold.Chemscore.Internal_Hbond>
0.0000

> <Gold.Chemscore.DEClash>
0.5711

> <Gold.Chemscore.DEInternal>
4.9399

> <Gold.Chemscore.Rot>
1.2371

> <Gold.Chemscore.Internal.Correction>
   9.000000E+99

> <Gold.Chemscore.Hbonds>
donor molecule, donor type, donor heavy atom, donor atom, acceptor molecule, acceptor atom, score
      L1  H     6    27       P1  8028  0.71
      P1  H  7997  8010       L1    15  0.19

> <Gold.Chemscore.Hbond.Weighted>
-4.7459

> <Gold.Chemscore.Metal.Weighted>
-0.0000

> <Gold.Chemscore.Lipo.Weighted>
-7.4796

> <Gold.Chemscore.Internal_Hbond.Weighted>
0.0000

> <Gold.Chemscore.DEClash.Weighted>
0.5711

> <Gold.Chemscore.DEInternal.Weighted>
4.9399

> <Gold.Chemscore.Rot.Weighted>
3.1669

> <Gold.Chemscore.Internal.Correction.Weighted>
   9.000000E+99

> <Gold.Protein.RotatedTorsions>
[ 6907 6896 6895 6894 ] final  -48.06 input  -60.11 | X-H torsion
[ 7974 7965 7964 7962 ] final -143.35 input  175.53 | X-H torsion
[ 8008 7997 7996 7995 ] final   27.01 input   59.86 | X-H torsion
[ 10167 10162 10161 10158 ] final -123.58 input  -65.29 | X-H torsion
[ 10718 10713 10712 10709 ] final   63.60 input   66.30 | X-H torsion
[ 10763 10752 10751 10750 ] final    3.80 input  -60.55 | X-H torsion
[ 11005 11000 10999 10996 ] final   -6.82 input  -57.11 | X-H torsion

> <Gold.Protein.ActiveResidues>
 VAL166  LYS551  ARG553  GLY616  TRP617  ASP618  TYR619  PRO620  LYS621  CYS622 
 ASP623  PHE694  ASN695  SER759  ASP760  ASP761  ALA762  ILE779  LEU786  VAL792 
 PHE793  MET794  SER795  GLU796  ALA797  LYS798  CYS799  TRP800  GLU811  SER814 

> <Gold.Protein.RotatedAtoms>
  150.8944  134.8351  159.7315 H   0  0  0  0  0  0  0  0  0  0  0  0  # atno 6907 bound_to 6896
  152.4856  134.4599  159.9611 H   0  0  0  0  0  0  0  0  0  0  0  0  # atno 6908 bound_to 6896
  151.4658  133.3542  159.2851 H   0  0  0  0  0  0  0  0  0  0  0  0  # atno 6909 bound_to 6896
  144.8376  140.5845  143.5474 H   0  0  0  0  0  0  0  0  0  0  0  0  # atno 7974 bound_to 7965
  155.0363  140.3164  155.4740 H   0  0  0  0  0  0  0  0  0  0  0  0  # atno 8008 bound_to 7997
  156.2864  140.2171  156.5428 H   0  0  0  0  0  0  0  0  0  0  0  0  # atno 8009 bound_to 7997
  154.7328  140.0480  157.0729 H   0  0  0  0  0  0  0  0  0  0  0  0  # atno 8010 bound_to 7997
  140.0020  143.5531  152.2299 H   0  0  0  0  0  0  0  0  0  0  0  0  # atno 10167 bound_to 10162
  157.5983  130.9114  149.9737 H   0  0  0  0  0  0  0  0  0  0  0  0  # atno 10718 bound_to 10713
  153.2789  135.6939  153.7405 H   0  0  0  0  0  0  0  0  0  0  0  0  # atno 10763 bound_to 10752
  153.6400  135.3395  155.3069 H   0  0  0  0  0  0  0  0  0  0  0  0  # atno 10764 bound_to 10752
  154.8489  135.4429  154.1836 H   0  0  0  0  0  0  0  0  0  0  0  0  # atno 10765 bound_to 10752
  140.7061  133.8948  155.8717 H   0  0  0  0  0  0  0  0  0  0  0  0  # atno 11005 bound_to 11000
  145.4763  139.1499  143.3787 LP  0  0  0  0  0  0  0  0  0  0  0  0  # atno 17320 bound_to 7965
  146.2672  140.4897  142.8829 LP  0  0  0  0  0  0  0  0  0  0  0  0  # atno 17321 bound_to 7965
  139.6265  144.7638  151.2627 LP  0  0  0  0  0  0  0  0  0  0  0  0  # atno 17342 bound_to 10162
  140.7415  143.6555  150.8211 LP  0  0  0  0  0  0  0  0  0  0  0  0  # atno 17343 bound_to 10162
  156.1050  130.3653  150.0150 LP  0  0  0  0  0  0  0  0  0  0  0  0  # atno 17370 bound_to 10713
  156.8259  130.9375  151.3639 LP  0  0  0  0  0  0  0  0  0  0  0  0  # atno 17371 bound_to 10713
  141.0123  134.1003  157.4208 LP  0  0  0  0  0  0  0  0  0  0  0  0  # atno 17394 bound_to 11000
  139.8884  135.0097  156.6617 LP  0  0  0  0  0  0  0  0  0  0  0  0  # atno 17395 bound_to 11000

$$$$
