AV-unprocessed.smi:1985|AV-procd|sdf|8042|dock3
  -GOLD-   2272010233D 1   1.00000     0.00000
 Structure written by MMmdl.
 50 51  0  0  0  0  0  0  0  0  1 V2000
  146.0282  134.7777  157.5490 C   0  0  0  0  0  0  0  0  0  0  0  0
  146.7451  133.4573  157.8781 C   0  0  0  0  0  0  0  0  0  0  0  0
  148.1550  133.6092  158.5405 C   0  0  1  0  0  0  0  0  0  0  0  0
  148.7432  132.1779  158.6564 C   0  0  0  0  0  0  0  0  0  0  0  0
  149.0782  134.4209  157.5738 C   0  0  0  0  0  0  0  0  0  0  0  0
  149.3545  133.7147  156.3301 N   0  0  0  0  0  0  0  0  0  0  0  0
  148.8316  133.9829  155.1245 C   0  0  0  0  0  0  0  0  0  0  0  0
  148.0149  134.8827  154.9341 O   0  0  0  0  0  0  0  0  0  0  0  0
  149.2890  133.1096  153.9422 C   0  0  0  0  0  0  0  0  0  0  0  0
  148.1865  132.5138  153.1688 N   0  0  0  0  0  0  0  0  0  0  0  0
  147.4488  133.3111  152.3121 C   0  0  0  0  0  0  0  0  0  0  0  0
  146.3832  132.8658  151.6120 C   0  0  0  0  0  0  0  0  0  0  0  0
  145.9409  131.4820  151.7259 C   0  0  0  0  0  0  0  0  0  0  0  0
  144.9654  131.0303  151.1247 O   0  0  0  0  0  0  0  0  0  0  0  0
  146.7185  130.6843  152.5958 N   0  0  0  0  0  0  0  0  0  0  0  0
  146.3025  129.3057  152.7495 C   0  0  0  0  0  0  0  0  0  0  0  0
  147.8332  131.1549  153.3281 C   0  0  0  0  0  0  0  0  0  0  0  0
  148.4723  130.4331  154.0966 O   0  0  0  0  0  0  0  0  0  0  0  0
  148.0601  134.2911  159.8658 N   0  0  0  0  0  0  0  0  0  0  0  0
  147.7622  135.7293  159.8123 C   0  0  0  0  0  0  0  0  0  0  0  0
  147.8031  136.3857  161.2024 C   0  0  0  0  0  0  0  0  0  0  0  0
  146.8930  135.7246  162.0713 O   0  0  0  0  0  0  0  0  0  0  0  0
  147.1882  134.3406  162.2064 C   0  0  0  0  0  0  0  0  0  0  0  0
  147.1440  133.6617  160.8268 C   0  0  0  0  0  0  0  0  0  0  0  0
  145.0370  134.5823  157.1400 H   0  0  0  0  0  0  0  0  0  0  0  0
  146.5745  135.3601  156.8073 H   0  0  0  0  0  0  0  0  0  0  0  0
  145.9000  135.3975  158.4362 H   0  0  0  0  0  0  0  0  0  0  0  0
  146.0923  132.8491  158.5027 H   0  0  0  0  0  0  0  0  0  0  0  0
  146.8130  132.8740  156.9591 H   0  0  0  0  0  0  0  0  0  0  0  0
  148.7857  131.6818  157.6861 H   0  0  0  0  0  0  0  0  0  0  0  0
  148.1426  131.5366  159.3004 H   0  0  0  0  0  0  0  0  0  0  0  0
  149.7598  132.1821  159.0485 H   0  0  0  0  0  0  0  0  0  0  0  0
  148.6313  135.3863  157.3324 H   0  0  0  0  0  0  0  0  0  0  0  0
  150.0387  134.6300  158.0458 H   0  0  0  0  0  0  0  0  0  0  0  0
  150.0168  132.9550  156.3885 H   0  0  0  0  0  0  0  0  0  0  0  0
  149.9046  133.7259  153.2855 H   0  0  0  0  0  0  0  0  0  0  0  0
  149.9544  132.3302  154.3171 H   0  0  0  0  0  0  0  0  0  0  0  0
  147.7320  134.3482  152.2020 H   0  0  0  0  0  0  0  0  0  0  0  0
  145.8466  133.5436  150.9643 H   0  0  0  0  0  0  0  0  0  0  0  0
  147.0219  128.7372  153.3381 H   0  0  0  0  0  0  0  0  0  0  0  0
  146.2334  128.8692  151.7513 H   0  0  0  0  0  0  0  0  0  0  0  0
  145.3310  129.3191  153.2467 H   0  0  0  0  0  0  0  0  0  0  0  0
  148.4807  136.2569  159.1889 H   0  0  0  0  0  0  0  0  0  0  0  0
  146.7777  135.8966  159.3756 H   0  0  0  0  0  0  0  0  0  0  0  0
  148.8109  136.3462  161.6186 H   0  0  0  0  0  0  0  0  0  0  0  0
  147.5274  137.4378  161.1319 H   0  0  0  0  0  0  0  0  0  0  0  0
  148.1689  134.2133  162.6676 H   0  0  0  0  0  0  0  0  0  0  0  0
  146.4584  133.8849  162.8758 H   0  0  0  0  0  0  0  0  0  0  0  0
  146.1213  133.6949  160.4514 H   0  0  0  0  0  0  0  0  0  0  0  0
  147.3934  132.6137  160.9781 H   0  0  0  0  0  0  0  0  0  0  0  0
  1  2  1  0  0  0  0
  1 25  1  0  0  0  0
  1 26  1  0  0  0  0
  1 27  1  0  0  0  0
  2  3  1  0  0  0  0
  2 28  1  0  0  0  0
  2 29  1  0  0  0  0
  3  4  1  0  0  0  0
  3  5  1  0  0  0  0
  3 19  1  0  0  0  0
  4 30  1  0  0  0  0
  4 31  1  0  0  0  0
  4 32  1  0  0  0  0
  5  6  1  0  0  0  0
  5 33  1  0  0  0  0
  5 34  1  0  0  0  0
  6  7  1  0  0  0  0
  6 35  1  0  0  0  0
  7  8  2  0  0  0  0
  7  9  1  0  0  0  0
  9 10  1  0  0  0  0
  9 36  1  0  0  0  0
  9 37  1  0  0  0  0
 10 17  1  0  0  0  0
 10 11  1  0  0  0  0
 11 12  2  0  0  0  0
 11 38  1  0  0  0  0
 12 13  1  0  0  0  0
 12 39  1  0  0  0  0
 13 14  2  0  0  0  0
 13 15  1  0  0  0  0
 15 16  1  0  0  0  0
 15 17  1  0  0  0  0
 16 40  1  0  0  0  0
 16 41  1  0  0  0  0
 16 42  1  0  0  0  0
 17 18  2  0  0  0  0
 19 24  1  0  0  0  0
 19 20  1  0  0  0  0
 20 21  1  0  0  0  0
 20 43  1  0  0  0  0
 20 44  1  0  0  0  0
 21 22  1  0  0  0  0
 21 45  1  0  0  0  0
 21 46  1  0  0  0  0
 22 23  1  0  0  0  0
 23 24  1  0  0  0  0
 23 47  1  0  0  0  0
 23 48  1  0  0  0  0
 24 49  1  0  0  0  0
 24 50  1  0  0  0  0
M  END
> <s_m_source_file>
AV-unprocessed.smi

> <i_m_source_file_index>
1985

> <i_lp_mmshare_version>
43012

> <i_f3d_flags>
0

> <s_epik_input>
W0NIMl0xW0NIMl1PW0NIMl1bQ0gyXU4xW0NAQF0oW0NIM10pKFtDSDJdW0NIM10pW0NIMl1bTkhdQyg9TylbQ0gyXW4yW2NIXVtjSF1jKD1PKW4oW0NIM10pYzI9Tw==

> <s_epik_cmdline>
J2VwaWtfcHl0aG9uJywgJy1waCcsICc3LjAnLCAnLXRuJywgJzgnLCAnLW1hJywgJzIwMCcsICctbWV0YWxfYmluZGluZycsICctaW1hZScsICc8aW5maWxlLm1hZT4nLCAnLW9tYWUnLCAnPG91dGZpbGUubWFlPic=

> <r_lp_tautomer_probability>
1

> <r_epik_Ionization_Penalty>
0.318667

> <r_epik_Ionization_Penalty_Charging>
1.17294e-08

> <r_epik_Ionization_Penalty_Neutral>
0.318667

> <r_epik_State_Penalty>
0.313095

> <r_epik_Charging_Adjusted_Penalty>
0.313095

> <i_epik_Tot_Q>
0

> <i_epik_Tot_abs_Q>
0

> <r_epik_Metal_State_Penalty>
0.313065

> <b_epik_Metal_Only>
0

> <s_lp_Force_Field>
OPLS_2005

> <r_lp_Energy>
50.9195

> <b_lp_Chiralities_Consistent>
1

> <s_lp_Variant>
AV-unprocessed.smi:1985-1

> <Gold.Version>
5.8.1

> <Gold.Id.Protein>
6NUR|6NUR_protein|mol2

> <Gold.PLP.Fitness>
36.1277

> <Gold.PLP.PLP>
-33.9185

> <Gold.PLP.part.hbond>
-0.1622

> <Gold.PLP.part.metal>
0.0000

> <Gold.PLP.part.buried>
-3.9767

> <Gold.PLP.part.nonpolar>
-30.2122

> <Gold.PLP.part.repulsive>
0.3389

> <Gold.PLP.ligand.clash>
0.0000

> <Gold.PLP.ligand.torsion>
0.5275

> <Gold.PLP.Chemscore.Hbond>
0.0000

> <Gold.PLP.Chemscore.CHOScore>
1.0000

> <Gold.PLP.Chemscore.Metal>
0.0000

> <Gold.Chemscore.Hbonds>
donor molecule, donor type, donor heavy atom, donor atom, acceptor molecule, acceptor atom, score
      L1  C    11    38       P1  7948  1.00

> <Gold.PLP.Chemscore.Internal.Correction>
0.2643

> <Gold.Rescore>
     Score         DG    S(hbond)    S(metal)    S(lipo)     H(rot)  DE(clash)    DE(int)     intcor
      5.64      -7.13       0.00        0.00      62.14       2.20       0.01       1.48       ----

> <Gold.Chemscore.Fitness>
5.6421

> <Gold.Chemscore.DG>
-7.1312

> <Gold.Chemscore.ZeroCoef>
-5.4800

> <Gold.Chemscore.Hbond>
0.0000

> <Gold.Chemscore.Metal>
0.0000

> <Gold.Chemscore.Lipo>
62.1441

> <Gold.Chemscore.Internal_Hbond>
0.0000

> <Gold.Chemscore.DEClash>
0.0103

> <Gold.Chemscore.DEInternal>
1.4787

> <Gold.Chemscore.Rot>
2.1952

> <Gold.Chemscore.Internal.Correction>
   9.000000E+99

> <Gold.Chemscore.Hbond.Weighted>
-0.0000

> <Gold.Chemscore.Metal.Weighted>
-0.0000

> <Gold.Chemscore.Lipo.Weighted>
-7.2709

> <Gold.Chemscore.Internal_Hbond.Weighted>
0.0000

> <Gold.Chemscore.DEClash.Weighted>
0.0103

> <Gold.Chemscore.DEInternal.Weighted>
1.4787

> <Gold.Chemscore.Rot.Weighted>
5.6197

> <Gold.Chemscore.Internal.Correction.Weighted>
   9.000000E+99

> <Gold.Protein.RotatedTorsions>
[ 6907 6896 6895 6894 ] final  157.59 input  -60.11 | X-H torsion
[ 7974 7965 7964 7962 ] final  -26.33 input  175.53 | X-H torsion
[ 8008 7997 7996 7995 ] final   41.65 input   59.86 | X-H torsion
[ 10167 10162 10161 10158 ] final  -68.63 input  -65.29 | X-H torsion
[ 10718 10713 10712 10709 ] final   17.61 input   66.30 | X-H torsion
[ 10763 10752 10751 10750 ] final -125.37 input  -60.55 | X-H torsion
[ 11005 11000 10999 10996 ] final   58.26 input  -57.11 | X-H torsion

> <Gold.Protein.ActiveResidues>
 VAL166  LYS551  ARG553  GLY616  TRP617  ASP618  TYR619  PRO620  LYS621  CYS622 
 ASP623  PHE694  ASN695  SER759  ASP760  ASP761  ALA762  ILE779  LEU786  VAL792 
 PHE793  MET794  SER795  GLU796  ALA797  LYS798  CYS799  TRP800  GLU811  SER814 

> <Gold.Protein.RotatedAtoms>
  152.0129  133.3868  159.4226 H   0  0  0  0  0  0  0  0  0  0  0  0  # atno 6907 bound_to 6896
  150.6897  134.3710  159.5001 H   0  0  0  0  0  0  0  0  0  0  0  0  # atno 6908 bound_to 6896
  152.1474  134.9015  160.0601 H   0  0  0  0  0  0  0  0  0  0  0  0  # atno 6909 bound_to 6896
  146.1433  140.5005  142.8643 H   0  0  0  0  0  0  0  0  0  0  0  0  # atno 7974 bound_to 7965
  155.2732  140.3367  155.4263 H   0  0  0  0  0  0  0  0  0  0  0  0  # atno 8008 bound_to 7997
  156.2123  140.1775  156.7708 H   0  0  0  0  0  0  0  0  0  0  0  0  # atno 8009 bound_to 7997
  154.5704  140.0671  156.8940 H   0  0  0  0  0  0  0  0  0  0  0  0  # atno 8010 bound_to 7997
  140.5492  143.2312  151.6943 H   0  0  0  0  0  0  0  0  0  0  0  0  # atno 10167 bound_to 10162
  157.0845  130.6402  149.5834 H   0  0  0  0  0  0  0  0  0  0  0  0  # atno 10718 bound_to 10713
  154.8735  135.4032  154.3258 H   0  0  0  0  0  0  0  0  0  0  0  0  # atno 10763 bound_to 10752
  153.4079  135.7020  153.6385 H   0  0  0  0  0  0  0  0  0  0  0  0  # atno 10764 bound_to 10752
  153.5100  135.3709  155.2552 H   0  0  0  0  0  0  0  0  0  0  0  0  # atno 10765 bound_to 10752
  140.0391  134.5900  155.9405 H   0  0  0  0  0  0  0  0  0  0  0  0  # atno 11005 bound_to 11000
  144.7817  140.5853  143.6601 LP  0  0  0  0  0  0  0  0  0  0  0  0  # atno 17320 bound_to 7965
  145.4997  139.1484  143.3664 LP  0  0  0  0  0  0  0  0  0  0  0  0  # atno 17321 bound_to 7965
  139.5020  144.3845  152.0343 LP  0  0  0  0  0  0  0  0  0  0  0  0  # atno 17342 bound_to 10162
  140.2960  144.3700  150.6074 LP  0  0  0  0  0  0  0  0  0  0  0  0  # atno 17343 bound_to 10162
  155.9914  130.4969  150.7299 LP  0  0  0  0  0  0  0  0  0  0  0  0  # atno 17370 bound_to 10713
  157.4772  131.0899  151.0576 LP  0  0  0  0  0  0  0  0  0  0  0  0  # atno 17371 bound_to 10713
  141.1873  133.6559  156.5277 LP  0  0  0  0  0  0  0  0  0  0  0  0  # atno 17394 bound_to 11000
  140.4099  134.7282  157.4829 LP  0  0  0  0  0  0  0  0  0  0  0  0  # atno 17395 bound_to 11000

$$$$
