AV-unprocessed.smi:36|AV-procd|sdf|296|dock1
  -GOLD-   2262016 93D 1   1.00000     0.00000
 Structure written by MMmdl.
 63 66  0  0  0  0  0  0  0  0  2 V2000
  145.1280  136.8884  162.0585 C   0  0  0  0  0  0  0  0  0  0  0  0
  145.2152  136.0055  160.8021 C   0  0  0  0  0  0  0  0  0  0  0  0
  144.1717  134.8791  160.8818 C   0  0  0  0  0  0  0  0  0  0  0  0
  144.9637  136.8571  159.5466 C   0  0  0  0  0  0  0  0  0  0  0  0
  146.9591  135.2329  160.6880 Si  0  0  0  0  0  0  0  0  0  0  0  0
  148.2946  136.5819  160.6014 C   0  0  0  0  0  0  0  0  0  0  0  0
  147.3000  134.0886  162.1661 C   0  0  0  0  0  0  0  0  0  0  0  0
  147.0251  134.3003  159.2760 O   0  0  0  0  0  0  0  0  0  0  0  0
  148.2146  133.7562  158.7412 C   0  0  0  0  0  0  0  0  0  0  0  0
  148.2506  134.0043  157.2246 C   0  0  1  0  0  0  0  0  0  0  0  0
  148.2422  135.3977  156.9174 O   0  0  0  0  0  0  0  0  0  0  0  0
  149.0591  135.6739  155.8184 C   0  0  1  0  0  0  0  0  0  0  0  0
  150.2175  136.4955  156.2894 N   0  0  0  0  0  0  0  0  0  0  0  0
  151.5339  136.1980  156.3020 C   0  0  0  0  0  0  0  0  0  0  0  0
  152.3669  137.1185  156.7845 N   0  0  0  0  0  0  0  0  0  0  0  0
  151.4904  138.1380  157.1258 C   0  0  0  0  0  0  0  0  0  0  0  0
  151.6899  139.4273  157.6921 C   0  0  0  0  0  0  0  0  0  0  0  0
  152.9017  139.8944  158.0290 N   0  5  0  0  0  0  0  0  0  0  0  0
  153.1777  140.1927  159.3239 C   0  0  0  0  0  0  0  0  0  0  0  0
  153.6971  139.4662  160.1739 O   0  0  0  0  0  0  0  0  0  0  0  0
  152.8512  141.6166  159.6881 C   0  0  0  0  0  0  0  0  0  0  0  0
  152.5354  142.5450  158.6695 C   0  0  0  0  0  0  0  0  0  0  0  0
  152.2477  143.8868  158.9866 C   0  0  0  0  0  0  0  0  0  0  0  0
  152.2823  144.3179  160.3261 C   0  0  0  0  0  0  0  0  0  0  0  0
  152.6098  143.4068  161.3476 C   0  0  0  0  0  0  0  0  0  0  0  0
  152.8976  142.0647  161.0312 C   0  0  0  0  0  0  0  0  0  0  0  0
  150.5817  140.1814  157.9084 N   0  0  0  0  0  0  0  0  0  0  0  0
  149.3708  139.7147  157.5817 C   0  0  0  0  0  0  0  0  0  0  0  0
  149.0410  138.5377  157.0409 N   0  0  0  0  0  0  0  0  0  0  0  0
  150.1473  137.7677  156.8271 C   0  0  0  0  0  0  0  0  0  0  0  0
  149.5548  134.3331  155.2693 C   0  0  0  0  0  0  0  0  0  0  0  0
  149.4535  133.4160  156.4734 C   0  0  1  0  0  0  0  0  0  0  0  0
  150.6442  133.4394  157.2388 O   0  0  0  0  0  0  0  0  0  0  0  0
  144.1428  137.3463  162.1530 H   0  0  0  0  0  0  0  0  0  0  0  0
  145.8623  137.6937  162.0306 H   0  0  0  0  0  0  0  0  0  0  0  0
  145.3087  136.3092  162.9643 H   0  0  0  0  0  0  0  0  0  0  0  0
  144.3224  134.2587  161.7655 H   0  0  0  0  0  0  0  0  0  0  0  0
  144.2257  134.2271  160.0093 H   0  0  0  0  0  0  0  0  0  0  0  0
  143.1586  135.2796  160.9314 H   0  0  0  0  0  0  0  0  0  0  0  0
  143.9680  137.3017  159.5611 H   0  0  0  0  0  0  0  0  0  0  0  0
  145.0439  136.2573  158.6393 H   0  0  0  0  0  0  0  0  0  0  0  0
  145.6847  137.6712  159.4670 H   0  0  0  0  0  0  0  0  0  0  0  0
  148.2666  137.2310  161.4760 H   0  0  0  0  0  0  0  0  0  0  0  0
  148.1704  137.2142  159.7226 H   0  0  0  0  0  0  0  0  0  0  0  0
  149.2943  136.1523  160.5515 H   0  0  0  0  0  0  0  0  0  0  0  0
  147.2450  134.6277  163.1116 H   0  0  0  0  0  0  0  0  0  0  0  0
  148.2924  133.6427  162.1050 H   0  0  0  0  0  0  0  0  0  0  0  0
  146.5806  133.2715  162.2146 H   0  0  0  0  0  0  0  0  0  0  0  0
  149.0941  134.1718  159.2339 H   0  0  0  0  0  0  0  0  0  0  0  0
  148.2068  132.6855  158.9460 H   0  0  0  0  0  0  0  0  0  0  0  0
  147.3500  133.5816  156.7760 H   0  0  0  0  0  0  0  0  0  0  0  0
  148.5553  136.3020  155.0828 H   0  0  0  0  0  0  0  0  0  0  0  0
  151.9071  135.2550  155.9330 H   0  0  0  0  0  0  0  0  0  0  0  0
  152.5056  142.2306  157.6360 H   0  0  0  0  0  0  0  0  0  0  0  0
  152.0015  144.5853  158.2006 H   0  0  0  0  0  0  0  0  0  0  0  0
  152.0621  145.3468  160.5692 H   0  0  0  0  0  0  0  0  0  0  0  0
  152.6430  143.7372  162.3754 H   0  0  0  0  0  0  0  0  0  0  0  0
  153.1565  141.3841  161.8297 H   0  0  0  0  0  0  0  0  0  0  0  0
  148.5459  140.3811  157.7849 H   0  0  0  0  0  0  0  0  0  0  0  0
  148.8584  134.0092  154.4949 H   0  0  0  0  0  0  0  0  0  0  0  0
  150.5515  134.4032  154.8305 H   0  0  0  0  0  0  0  0  0  0  0  0
  149.2696  132.3836  156.1749 H   0  0  0  0  0  0  0  0  0  0  0  0
  151.3614  133.6827  156.6737 H   0  0  0  0  0  0  0  0  0  0  0  0
  1  2  1  0  0  0  0
  1 34  1  0  0  0  0
  1 35  1  0  0  0  0
  1 36  1  0  0  0  0
  2  3  1  0  0  0  0
  2  4  1  0  0  0  0
  2  5  1  0  0  0  0
  3 37  1  0  0  0  0
  3 38  1  0  0  0  0
  3 39  1  0  0  0  0
  4 40  1  0  0  0  0
  4 41  1  0  0  0  0
  4 42  1  0  0  0  0
  5  6  1  0  0  0  0
  5  7  1  0  0  0  0
  5  8  1  0  0  0  0
  6 43  1  0  0  0  0
  6 44  1  0  0  0  0
  6 45  1  0  0  0  0
  7 46  1  0  0  0  0
  7 47  1  0  0  0  0
  7 48  1  0  0  0  0
  8  9  1  0  0  0  0
  9 10  1  0  0  0  0
  9 49  1  0  0  0  0
  9 50  1  0  0  0  0
 10 32  1  0  0  0  0
 10 11  1  0  0  0  0
 10 51  1  0  0  0  0
 11 12  1  0  0  0  0
 12 13  1  0  0  0  0
 12 31  1  0  0  0  0
 12 52  1  0  0  0  0
 13 30  1  0  0  0  0
 13 14  1  0  0  0  0
 14 15  2  0  0  0  0
 14 53  1  0  0  0  0
 15 16  1  0  0  0  0
 16 30  2  0  0  0  0
 16 17  1  0  0  0  0
 17 18  1  0  0  0  0
 17 27  2  0  0  0  0
 18 19  1  0  0  0  0
 19 20  2  0  0  0  0
 19 21  1  0  0  0  0
 21 26  1  0  0  0  0
 21 22  2  0  0  0  0
 22 23  1  0  0  0  0
 22 54  1  0  0  0  0
 23 24  2  0  0  0  0
 23 55  1  0  0  0  0
 24 25  1  0  0  0  0
 24 56  1  0  0  0  0
 25 26  2  0  0  0  0
 25 57  1  0  0  0  0
 26 58  1  0  0  0  0
 27 28  1  0  0  0  0
 28 29  2  0  0  0  0
 28 59  1  0  0  0  0
 29 30  1  0  0  0  0
 31 32  1  0  0  0  0
 31 60  1  0  0  0  0
 31 61  1  0  0  0  0
 32 33  1  0  0  0  0
 32 62  1  0  0  0  0
 33 63  1  0  0  0  0
M  CHG  1  18  -1
M  END
> <s_m_source_file>
AV-unprocessed.smi

> <i_m_source_file_index>
36

> <i_lp_mmshare_version>
43012

> <i_f3d_flags>
0

> <s_epik_input>
W0NIM11DKFtDSDNdKShbQ0gzXSlbU2ldKFtDSDNdKShbQ0gzXSlPW0NIMl1bQ0BASF0xT1tDQEhdKFtDSDJdW0NASF0xW09IXSluKFtjSF1uMiljKGMyMyluW2NIXW5jM1tOSF1DKD1PKWM0W2NIXVtjSF1bY0hdW2NIXVtjSF00

> <s_epik_cmdline>
J2VwaWtfcHl0aG9uJywgJy1waCcsICc3LjAnLCAnLXRuJywgJzgnLCAnLW1hJywgJzIwMCcsICctbWV0YWxfYmluZGluZycsICctaW1hZScsICc8aW5maWxlLm1hZT4nLCAnLW9tYWUnLCAnPG91dGZpbGUubWFlPic=

> <r_lp_tautomer_probability>
1

> <r_epik_Ionization_Penalty>
4.75685

> <r_epik_Ionization_Penalty_Charging>
3.55822

> <r_epik_Ionization_Penalty_Neutral>
1.19863

> <r_epik_State_Penalty>
3.564

> <r_epik_Charging_Adjusted_Penalty>
7.12222

> <i_epik_Tot_Q>
-1

> <i_epik_Tot_abs_Q>
1

> <r_epik_Metal_State_Penalty>
0.523258

> <b_epik_Metal_Only>
1

> <s_epik_Chemistry_Notes>
This compound contains an acetal/aminal-like group ( X-CH(R)-Y where X, Y are N, S, or O) that may be acid/base labile, releasing an aldehyde.

> <s_lp_Force_Field>
OPLS_2005

> <r_lp_Energy>
35.5948

> <b_lp_Chiralities_Consistent>
1

> <s_lp_Variant>
AV-unprocessed.smi:36-18

> <Gold.Version>
5.8.1

> <Gold.Id.Protein>
6NUR|6NUR_protein|mol2

> <Gold.PLP.Fitness>
51.2708

> <Gold.PLP.PLP>
-45.1377

> <Gold.PLP.part.hbond>
-2.0000

> <Gold.PLP.part.metal>
0.0000

> <Gold.PLP.part.buried>
-5.6357

> <Gold.PLP.part.nonpolar>
-37.6370

> <Gold.PLP.part.repulsive>
0.0000

> <Gold.PLP.ligand.clash>
0.0000

> <Gold.PLP.ligand.torsion>
1.8310

> <Gold.PLP.Chemscore.Hbond>
2.8640

> <Gold.PLP.Chemscore.CHOScore>
0.0000

> <Gold.PLP.Chemscore.Metal>
0.0000

> <Gold.Chemscore.Hbonds>
donor molecule, donor type, donor heavy atom, donor atom, acceptor molecule, acceptor atom, score
      P1  H  6896  6907       L1    33  0.88
      P1  H  7997  8008       L1    18  2.00

> <Gold.PLP.Chemscore.Internal.Correction>
1.2032

> <Gold.Rescore>
     Score         DG    S(hbond)    S(metal)    S(lipo)     H(rot)  DE(clash)    DE(int)     intcor
     15.58     -17.31       1.55        0.00     115.13       2.67       0.10       1.63       ----

> <Gold.Chemscore.Fitness>
15.5795

> <Gold.Chemscore.DG>
-17.3060

> <Gold.Chemscore.ZeroCoef>
-5.4800

> <Gold.Chemscore.Hbond>
1.5544

> <Gold.Chemscore.Metal>
0.0000

> <Gold.Chemscore.Lipo>
115.1278

> <Gold.Chemscore.Internal_Hbond>
0.0000

> <Gold.Chemscore.DEClash>
0.0998

> <Gold.Chemscore.DEInternal>
1.6268

> <Gold.Chemscore.Rot>
2.6702

> <Gold.Chemscore.Internal.Correction>
   9.000000E+99

> <Gold.Chemscore.Hbonds>
donor molecule, donor type, donor heavy atom, donor atom, acceptor molecule, acceptor atom, score
      P1  H  6896  6907       L1    33  0.75
      P1  H  7997  8008       L1    18  0.80

> <Gold.Chemscore.Hbond.Weighted>
-5.1918

> <Gold.Chemscore.Metal.Weighted>
-0.0000

> <Gold.Chemscore.Lipo.Weighted>
-13.4699

> <Gold.Chemscore.Internal_Hbond.Weighted>
0.0000

> <Gold.Chemscore.DEClash.Weighted>
0.0998

> <Gold.Chemscore.DEInternal.Weighted>
1.6268

> <Gold.Chemscore.Rot.Weighted>
6.8358

> <Gold.Chemscore.Internal.Correction.Weighted>
   9.000000E+99

> <Gold.Protein.RotatedTorsions>
[ 6907 6896 6895 6894 ] final -138.95 input  -60.11 | X-H torsion
[ 7974 7965 7964 7962 ] final   -6.92 input  175.53 | X-H torsion
[ 8008 7997 7996 7995 ] final  -75.41 input   59.86 | X-H torsion
[ 10167 10162 10161 10158 ] final -153.35 input  -65.29 | X-H torsion
[ 10718 10713 10712 10709 ] final   -9.67 input   66.30 | X-H torsion
[ 10763 10752 10751 10750 ] final   26.45 input  -60.55 | X-H torsion
[ 11005 11000 10999 10996 ] final -179.71 input  -57.11 | X-H torsion

> <Gold.Protein.ActiveResidues>
 VAL166  LYS551  ARG553  GLY616  TRP617  ASP618  TYR619  PRO620  LYS621  CYS622 
 ASP623  PHE694  ASN695  SER759  ASP760  ASP761  ALA762  ILE779  LEU786  VAL792 
 PHE793  MET794  SER795  GLU796  ALA797  LYS798  CYS799  TRP800  GLU811  SER814 

> <Gold.Protein.RotatedAtoms>
  151.0416  133.5701  159.2650 H   0  0  0  0  0  0  0  0  0  0  0  0  # atno 6907 bound_to 6896
  151.2745  135.0694  159.9156 H   0  0  0  0  0  0  0  0  0  0  0  0  # atno 6908 bound_to 6896
  152.5365  134.0141  159.8005 H   0  0  0  0  0  0  0  0  0  0  0  0  # atno 6909 bound_to 6896
  146.2319  140.2243  142.8338 H   0  0  0  0  0  0  0  0  0  0  0  0  # atno 7974 bound_to 7965
  154.5414  140.0744  156.8517 H   0  0  0  0  0  0  0  0  0  0  0  0  # atno 8008 bound_to 7997
  155.3172  140.3394  155.4224 H   0  0  0  0  0  0  0  0  0  0  0  0  # atno 8009 bound_to 7997
  156.1878  140.1675  156.8137 H   0  0  0  0  0  0  0  0  0  0  0  0  # atno 8010 bound_to 7997
  139.7104  143.9117  152.2466 H   0  0  0  0  0  0  0  0  0  0  0  0  # atno 10167 bound_to 10162
  156.6846  130.5047  149.5961 H   0  0  0  0  0  0  0  0  0  0  0  0  # atno 10718 bound_to 10713
  153.0621  135.6560  154.0438 H   0  0  0  0  0  0  0  0  0  0  0  0  # atno 10763 bound_to 10752
  154.0103  135.2929  155.3394 H   0  0  0  0  0  0  0  0  0  0  0  0  # atno 10764 bound_to 10752
  154.6964  135.5262  153.8533 H   0  0  0  0  0  0  0  0  0  0  0  0  # atno 10765 bound_to 10752
  140.4156  134.6652  157.4637 H   0  0  0  0  0  0  0  0  0  0  0  0  # atno 11005 bound_to 11000
  144.9607  140.8272  143.5515 LP  0  0  0  0  0  0  0  0  0  0  0  0  # atno 17320 bound_to 7965
  145.2213  139.2157  143.5091 LP  0  0  0  0  0  0  0  0  0  0  0  0  # atno 17321 bound_to 7965
  139.8985  144.6925  150.8692 LP  0  0  0  0  0  0  0  0  0  0  0  0  # atno 17342 bound_to 10162
  140.7732  143.3532  151.1973 LP  0  0  0  0  0  0  0  0  0  0  0  0  # atno 17343 bound_to 10162
  156.1842  130.6518  151.0987 LP  0  0  0  0  0  0  0  0  0  0  0  0  # atno 17370 bound_to 10713
  157.7031  131.0768  150.6756 LP  0  0  0  0  0  0  0  0  0  0  0  0  # atno 17371 bound_to 10713
  140.0236  134.6510  155.9204 LP  0  0  0  0  0  0  0  0  0  0  0  0  # atno 17394 bound_to 11000
  141.1804  133.6545  156.4997 LP  0  0  0  0  0  0  0  0  0  0  0  0  # atno 17395 bound_to 11000

$$$$
