AV-unprocessed.smi:1994|AV-procd|sdf|8074|dock5
  -GOLD-   2272010283D 1   1.00000     0.00000
 Structure written by MMmdl.
 40 42  0  0  0  0  0  0  0  0  2 V2000
  147.6322  140.8435  155.8738 C   0  0  0  0  0  0  0  0  0  0  0  0
  148.7597  141.2508  156.7620 C   0  0  0  0  0  0  0  0  0  0  0  0
  149.0142  142.5130  157.2079 N   0  3  0  0  0  0  0  0  0  0  0  0
  150.1540  142.5083  158.0132 C   0  0  0  0  0  0  0  0  0  0  0  0
  150.7975  143.5428  158.6855 C   0  0  0  0  0  0  0  0  0  0  0  0
  151.9463  143.1979  159.4269 C   0  0  0  0  0  0  0  0  0  0  0  0
  152.4125  141.8683  159.4817 C   0  0  0  0  0  0  0  0  0  0  0  0
  151.7510  140.8274  158.7969 C   0  0  0  0  0  0  0  0  0  0  0  0
  150.6174  141.1770  158.0627 C   0  0  0  0  0  0  0  0  0  0  0  0
  149.7255  140.4371  157.2762 N   0  0  0  0  0  0  0  0  0  0  0  0
  149.9227  138.9883  157.1071 C   0  0  0  0  0  0  0  0  0  0  0  0
  149.4797  138.1781  158.3413 C   0  0  2  0  0  0  0  0  0  0  0  0
  150.3150  137.0497  158.5047 O   0  0  0  0  0  0  0  0  0  0  0  0
  148.0243  137.6996  158.2379 C   0  0  0  0  0  0  0  0  0  0  0  0
  147.4920  137.5699  159.5495 O   0  0  0  0  0  0  0  0  0  0  0  0
  147.4707  136.3185  160.1276 C   0  0  0  0  0  0  0  0  0  0  0  0
  147.8368  135.1250  159.4546 C   0  0  0  0  0  0  0  0  0  0  0  0
  147.7876  133.8857  160.1223 C   0  0  0  0  0  0  0  0  0  0  0  0
  147.3735  133.8224  161.4656 C   0  0  0  0  0  0  0  0  0  0  0  0
  147.0074  135.0009  162.1410 C   0  0  0  0  0  0  0  0  0  0  0  0
  147.0563  136.2408  161.4746 C   0  0  0  0  0  0  0  0  0  0  0  0
  146.7009  137.3683  162.1361 F   0  0  0  0  0  0  0  0  0  0  0  0
  146.9976  141.6991  155.6415 H   0  0  0  0  0  0  0  0  0  0  0  0
  147.0229  140.0829  156.3619 H   0  0  0  0  0  0  0  0  0  0  0  0
  148.0185  140.4344  154.9400 H   0  0  0  0  0  0  0  0  0  0  0  0
  150.4409  144.5618  158.6460 H   0  0  0  0  0  0  0  0  0  0  0  0
  152.4800  143.9681  159.9652 H   0  0  0  0  0  0  0  0  0  0  0  0
  153.2957  141.6416  160.0615 H   0  0  0  0  0  0  0  0  0  0  0  0
  152.1158  139.8123  158.8511 H   0  0  0  0  0  0  0  0  0  0  0  0
  149.3405  138.6865  156.2357 H   0  0  0  0  0  0  0  0  0  0  0  0
  150.9642  138.7892  156.8549 H   0  0  0  0  0  0  0  0  0  0  0  0
  149.5838  138.7913  159.2373 H   0  0  0  0  0  0  0  0  0  0  0  0
  150.9812  137.0717  157.8350 H   0  0  0  0  0  0  0  0  0  0  0  0
  147.4369  138.4054  157.6476 H   0  0  0  0  0  0  0  0  0  0  0  0
  147.9933  136.7297  157.7382 H   0  0  0  0  0  0  0  0  0  0  0  0
  148.1605  135.1327  158.4249 H   0  0  0  0  0  0  0  0  0  0  0  0
  148.0688  132.9817  159.6024 H   0  0  0  0  0  0  0  0  0  0  0  0
  147.3370  132.8718  161.9767 H   0  0  0  0  0  0  0  0  0  0  0  0
  146.6886  134.9549  163.1720 H   0  0  0  0  0  0  0  0  0  0  0  0
  148.4479  143.3189  156.9754 H   0  0  0  0  0  0  0  0  0  0  0  0
  1  2  1  0  0  0  0
  1 23  1  0  0  0  0
  1 24  1  0  0  0  0
  1 25  1  0  0  0  0
  2 10  1  0  0  0  0
  2  3  2  0  0  0  0
  3  4  1  0  0  0  0
  3 40  1  0  0  0  0
  4  9  2  0  0  0  0
  4  5  1  0  0  0  0
  5  6  2  0  0  0  0
  5 26  1  0  0  0  0
  6  7  1  0  0  0  0
  6 27  1  0  0  0  0
  7  8  2  0  0  0  0
  7 28  1  0  0  0  0
  8  9  1  0  0  0  0
  8 29  1  0  0  0  0
  9 10  1  0  0  0  0
 10 11  1  0  0  0  0
 11 12  1  0  0  0  0
 11 30  1  0  0  0  0
 11 31  1  0  0  0  0
 12 13  1  0  0  0  0
 12 14  1  0  0  0  0
 12 32  1  0  0  0  0
 13 33  1  0  0  0  0
 14 15  1  0  0  0  0
 14 34  1  0  0  0  0
 14 35  1  0  0  0  0
 15 16  1  0  0  0  0
 16 21  1  0  0  0  0
 16 17  2  0  0  0  0
 17 18  1  0  0  0  0
 17 36  1  0  0  0  0
 18 19  2  0  0  0  0
 18 37  1  0  0  0  0
 19 20  1  0  0  0  0
 19 38  1  0  0  0  0
 20 21  2  0  0  0  0
 20 39  1  0  0  0  0
 21 22  1  0  0  0  0
M  CHG  1   3   1
M  END
> <s_m_source_file>
AV-unprocessed.smi

> <i_m_source_file_index>
1994

> <i_lp_mmshare_version>
43012

> <i_f3d_flags>
0

> <s_epik_input>
W2NIXTFbY0hdW2NIXVtjSF1jKGMxMiluKGMobjIpW0NIM10pW0NIMl1bQ0BIXShbT0hdKVtDSDJdT2MzW2NIXVtjSF1bY0hdW2NIXWMzRg==

> <s_epik_cmdline>
J2VwaWtfcHl0aG9uJywgJy1waCcsICc3LjAnLCAnLXRuJywgJzgnLCAnLW1hJywgJzIwMCcsICctbWV0YWxfYmluZGluZycsICctaW1hZScsICc8aW5maWxlLm1hZT4nLCAnLW9tYWUnLCAnPG91dGZpbGUubWFlPic=

> <r_lp_tautomer_probability>
1

> <r_epik_Ionization_Penalty>
1.03916

> <r_epik_Ionization_Penalty_Charging>
1.03916

> <r_epik_Ionization_Penalty_Neutral>
2.3993e-06

> <r_epik_State_Penalty>
1.09101

> <r_epik_Charging_Adjusted_Penalty>
2.13018

> <i_epik_Tot_Q>
1

> <i_epik_Tot_abs_Q>
1

> <r_epik_Metal_State_Penalty>
5.08156

> <b_epik_Metal_Only>
0

> <s_lp_Force_Field>
OPLS_2005

> <r_lp_Energy>
18.7982

> <b_lp_Chiralities_Consistent>
1

> <s_lp_Variant>
AV-unprocessed.smi:1994-3

> <Gold.Version>
5.8.1

> <Gold.Id.Protein>
6NUR|6NUR_protein|mol2

> <Gold.PLP.Fitness>
52.0205

> <Gold.PLP.PLP>
-47.4289

> <Gold.PLP.part.hbond>
-3.0000

> <Gold.PLP.part.metal>
0.0000

> <Gold.PLP.part.buried>
-5.2035

> <Gold.PLP.part.nonpolar>
-39.9380

> <Gold.PLP.part.repulsive>
0.1342

> <Gold.PLP.ligand.clash>
0.0000

> <Gold.PLP.ligand.torsion>
1.2794

> <Gold.PLP.Chemscore.Hbond>
2.3684

> <Gold.PLP.Chemscore.CHOScore>
0.0000

> <Gold.PLP.Chemscore.Metal>
0.0000

> <Gold.Chemscore.Hbonds>
donor molecule, donor type, donor heavy atom, donor atom, acceptor molecule, acceptor atom, score
      L1  H     3    40       P1  8028  1.12
      P1  H  6934  6947       L1    15  0.74

> <Gold.PLP.Chemscore.Internal.Correction>
0.0451

> <Gold.Rescore>
     Score         DG    S(hbond)    S(metal)    S(lipo)     H(rot)  DE(clash)    DE(int)     intcor
     16.29     -17.44       1.64        0.00     105.09       2.27       0.03       1.13       ----

> <Gold.Chemscore.Fitness>
16.2878

> <Gold.Chemscore.DG>
-17.4433

> <Gold.Chemscore.ZeroCoef>
-5.4800

> <Gold.Chemscore.Hbond>
1.6410

> <Gold.Chemscore.Metal>
0.0000

> <Gold.Chemscore.Lipo>
105.0864

> <Gold.Chemscore.Internal_Hbond>
0.0000

> <Gold.Chemscore.DEClash>
0.0263

> <Gold.Chemscore.DEInternal>
1.1291

> <Gold.Chemscore.Rot>
2.2706

> <Gold.Chemscore.Internal.Correction>
   9.000000E+99

> <Gold.Chemscore.Hbonds>
donor molecule, donor type, donor heavy atom, donor atom, acceptor molecule, acceptor atom, score
      L1  H     3    40       P1  8028  0.14
      P1  H  6934  6947       L1    15  0.58

> <Gold.Chemscore.Hbond.Weighted>
-5.4810

> <Gold.Chemscore.Metal.Weighted>
-0.0000

> <Gold.Chemscore.Lipo.Weighted>
-12.2951

> <Gold.Chemscore.Internal_Hbond.Weighted>
0.0000

> <Gold.Chemscore.DEClash.Weighted>
0.0263

> <Gold.Chemscore.DEInternal.Weighted>
1.1291

> <Gold.Chemscore.Rot.Weighted>
5.8128

> <Gold.Chemscore.Internal.Correction.Weighted>
   9.000000E+99

> <Gold.Protein.RotatedTorsions>
[ 6907 6896 6895 6894 ] final  -40.48 input  -60.11 | X-H torsion
[ 7974 7965 7964 7962 ] final   97.26 input  175.53 | X-H torsion
[ 8008 7997 7996 7995 ] final   46.30 input   59.86 | X-H torsion
[ 10167 10162 10161 10158 ] final   90.19 input  -65.29 | X-H torsion
[ 10718 10713 10712 10709 ] final  117.94 input   66.30 | X-H torsion
[ 10763 10752 10751 10750 ] final  -79.11 input  -60.55 | X-H torsion
[ 11005 11000 10999 10996 ] final   16.84 input  -57.11 | X-H torsion

> <Gold.Protein.ActiveResidues>
 VAL166  LYS551  ARG553  GLY616  TRP617  ASP618  TYR619  PRO620  LYS621  CYS622 
 ASP623  PHE694  ASN695  SER759  ASP760  ASP761  ALA762  ILE779  LEU786  VAL792 
 PHE793  MET794  SER795  GLU796  ALA797  LYS798  CYS799  TRP800  GLU811  SER814 

> <Gold.Protein.RotatedAtoms>
  150.9779  134.9140  159.7826 H   0  0  0  0  0  0  0  0  0  0  0  0  # atno 6907 bound_to 6896
  152.5212  134.3450  159.9240 H   0  0  0  0  0  0  0  0  0  0  0  0  # atno 6908 bound_to 6896
  151.3458  133.3904  159.2710 H   0  0  0  0  0  0  0  0  0  0  0  0  # atno 6909 bound_to 6896
  145.4278  139.2314  143.3160 H   0  0  0  0  0  0  0  0  0  0  0  0  # atno 7974 bound_to 7965
  155.3501  140.3413  155.4239 H   0  0  0  0  0  0  0  0  0  0  0  0  # atno 8008 bound_to 7997
  156.1768  140.1650  156.8383 H   0  0  0  0  0  0  0  0  0  0  0  0  # atno 8009 bound_to 7997
  154.5291  140.0749  156.8294 H   0  0  0  0  0  0  0  0  0  0  0  0  # atno 8010 bound_to 7997
  139.8498  144.6599  150.9184 H   0  0  0  0  0  0  0  0  0  0  0  0  # atno 10167 bound_to 10162
  157.6063  131.1042  150.7685 H   0  0  0  0  0  0  0  0  0  0  0  0  # atno 10718 bound_to 10713
  154.5345  135.5707  153.6787 H   0  0  0  0  0  0  0  0  0  0  0  0  # atno 10763 bound_to 10752
  152.9947  135.6213  154.2584 H   0  0  0  0  0  0  0  0  0  0  0  0  # atno 10764 bound_to 10752
  154.2512  135.2859  155.2795 H   0  0  0  0  0  0  0  0  0  0  0  0  # atno 10765 bound_to 10752
  140.4426  134.1306  155.7692 H   0  0  0  0  0  0  0  0  0  0  0  0  # atno 11005 bound_to 11000
  146.2623  140.5011  142.8848 LP  0  0  0  0  0  0  0  0  0  0  0  0  # atno 17320 bound_to 7965
  144.8202  140.6537  143.6358 LP  0  0  0  0  0  0  0  0  0  0  0  0  # atno 17321 bound_to 7965
  140.7789  143.3838  151.1430 LP  0  0  0  0  0  0  0  0  0  0  0  0  # atno 17342 bound_to 10162
  139.7477  143.8827  152.3068 LP  0  0  0  0  0  0  0  0  0  0  0  0  # atno 17343 bound_to 10162
  156.8073  130.4941  149.5361 LP  0  0  0  0  0  0  0  0  0  0  0  0  # atno 17370 bound_to 10713
  156.1151  130.6069  151.0108 LP  0  0  0  0  0  0  0  0  0  0  0  0  # atno 17371 bound_to 10713
  141.1699  133.8630  157.1603 LP  0  0  0  0  0  0  0  0  0  0  0  0  # atno 17394 bound_to 11000
  140.0059  135.0008  157.0292 LP  0  0  0  0  0  0  0  0  0  0  0  0  # atno 17395 bound_to 11000

$$$$
