AV-unprocessed.smi:1763|AV-procd|sdf|7129|dock5
  -GOLD-   22720 8363D 1   1.00000     0.00000
 Structure written by MMmdl.
 43 44  0  0  0  0  0  0  0  0  2 V2000
  140.5828  141.0301  154.3039 C   0  0  0  0  0  0  0  0  0  0  0  0
  141.8037  141.8214  154.2814 N   0  0  0  0  0  0  0  0  0  0  0  0
  142.4899  142.1786  155.3758 C   0  0  0  0  0  0  0  0  0  0  0  0
  142.1461  141.8728  156.5181 O   0  0  0  0  0  0  0  0  0  0  0  0
  143.7454  143.0249  155.1413 C   0  0  0  0  0  0  0  0  0  0  0  0
  144.9029  142.2282  154.6592 N   0  3  2  0  0  0  0  0  0  0  0  0
  145.5409  141.4431  155.7466 C   0  0  0  0  0  0  0  0  0  0  0  0
  146.6478  140.5232  155.1986 C   0  0  0  0  0  0  0  0  0  0  0  0
  147.7039  141.3037  154.3973 C   0  0  2  0  0  0  0  0  0  0  0  0
  148.5242  142.1183  155.2938 N   0  0  0  0  0  0  0  0  0  0  0  0
  149.4522  141.6464  156.1397 C   0  0  0  0  0  0  0  0  0  0  0  0
  149.7303  140.4515  156.2410 O   0  0  0  0  0  0  0  0  0  0  0  0
  150.0206  142.6418  156.8430 N   0  0  0  0  0  0  0  0  0  0  0  0
  151.0414  142.5492  157.8263 C   0  0  0  0  0  0  0  0  0  0  0  0
  151.1679  141.2825  158.4399 C   0  0  0  0  0  0  0  0  0  0  0  0
  152.1522  141.0867  159.4281 C   0  0  0  0  0  0  0  0  0  0  0  0
  152.9847  142.1643  159.7785 C   0  0  0  0  0  0  0  0  0  0  0  0
  152.7915  143.3927  159.1201 C   0  0  0  0  0  0  0  0  0  0  0  0
  151.8490  143.5826  158.1726 N   0  0  0  0  0  0  0  0  0  0  0  0
  147.0057  142.1548  153.3175 C   0  0  0  0  0  0  0  0  0  0  0  0
  145.8989  143.0424  153.9125 C   0  0  0  0  0  0  0  0  0  0  0  0
  140.2061  140.8986  153.2894 H   0  0  0  0  0  0  0  0  0  0  0  0
  139.8090  141.5243  154.8928 H   0  0  0  0  0  0  0  0  0  0  0  0
  140.7674  140.0430  154.7294 H   0  0  0  0  0  0  0  0  0  0  0  0
  142.1447  142.1162  153.3776 H   0  0  0  0  0  0  0  0  0  0  0  0
  143.5351  143.8390  154.4454 H   0  0  0  0  0  0  0  0  0  0  0  0
  143.9906  143.4871  156.0986 H   0  0  0  0  0  0  0  0  0  0  0  0
  145.9462  142.1229  156.4975 H   0  0  0  0  0  0  0  0  0  0  0  0
  144.7890  140.8326  156.2480 H   0  0  0  0  0  0  0  0  0  0  0  0
  147.1199  139.9761  156.0157 H   0  0  0  0  0  0  0  0  0  0  0  0
  146.1950  139.7697  154.5525 H   0  0  0  0  0  0  0  0  0  0  0  0
  148.3605  140.5820  153.9079 H   0  0  0  0  0  0  0  0  0  0  0  0
  148.3581  143.1141  155.2849 H   0  0  0  0  0  0  0  0  0  0  0  0
  149.6825  143.5743  156.6570 H   0  0  0  0  0  0  0  0  0  0  0  0
  150.5202  140.4646  158.1591 H   0  0  0  0  0  0  0  0  0  0  0  0
  152.2658  140.1257  159.9078 H   0  0  0  0  0  0  0  0  0  0  0  0
  153.7507  142.0529  160.5316 H   0  0  0  0  0  0  0  0  0  0  0  0
  153.4089  144.2455  159.3601 H   0  0  0  0  0  0  0  0  0  0  0  0
  147.7291  142.7692  152.7803 H   0  0  0  0  0  0  0  0  0  0  0  0
  146.5654  141.4921  152.5713 H   0  0  0  0  0  0  0  0  0  0  0  0
  145.4088  143.5868  153.1048 H   0  0  0  0  0  0  0  0  0  0  0  0
  146.3320  143.7921  154.5763 H   0  0  0  0  0  0  0  0  0  0  0  0
  144.5261  141.5549  154.0067 H   0  0  0  0  0  0  0  0  0  0  0  0
  1  2  1  0  0  0  0
  1 22  1  0  0  0  0
  1 23  1  0  0  0  0
  1 24  1  0  0  0  0
  2  3  1  0  0  0  0
  2 25  1  0  0  0  0
  3  4  2  0  0  0  0
  3  5  1  0  0  0  0
  5  6  1  0  0  0  0
  5 26  1  0  0  0  0
  5 27  1  0  0  0  0
  6 21  1  0  0  0  0
  6  7  1  0  0  0  0
  6 43  1  0  0  0  0
  7  8  1  0  0  0  0
  7 28  1  0  0  0  0
  7 29  1  0  0  0  0
  8  9  1  0  0  0  0
  8 30  1  0  0  0  0
  8 31  1  0  0  0  0
  9 10  1  0  0  0  0
  9 20  1  0  0  0  0
  9 32  1  0  0  0  0
 10 11  1  0  0  0  0
 10 33  1  0  0  0  0
 11 12  2  0  0  0  0
 11 13  1  0  0  0  0
 13 14  1  0  0  0  0
 13 34  1  0  0  0  0
 14 19  1  0  0  0  0
 14 15  2  0  0  0  0
 15 16  1  0  0  0  0
 15 35  1  0  0  0  0
 16 17  2  0  0  0  0
 16 36  1  0  0  0  0
 17 18  1  0  0  0  0
 17 37  1  0  0  0  0
 18 19  2  0  0  0  0
 18 38  1  0  0  0  0
 20 21  1  0  0  0  0
 20 39  1  0  0  0  0
 20 40  1  0  0  0  0
 21 41  1  0  0  0  0
 21 42  1  0  0  0  0
M  CHG  1   6   1
M  END
> <s_m_source_file>
AV-unprocessed.smi

> <i_m_source_file_index>
1763

> <i_lp_mmshare_version>
43012

> <i_f3d_flags>
0

> <s_epik_input>
W0NIM11bTkhdQyg9TylbQ0gyXU4xW0NIMl1bQ0gyXVtDSF0oW0NIMl1bQ0gyXTEpW05IXUMoPU8pW05IXWMyW2NIXVtjSF1bY0hdW2NIXW4y

> <s_epik_cmdline>
J2VwaWtfcHl0aG9uJywgJy1waCcsICc3LjAnLCAnLXRuJywgJzgnLCAnLW1hJywgJzIwMCcsICctbWV0YWxfYmluZGluZycsICctaW1hZScsICc8aW5maWxlLm1hZT4nLCAnLW9tYWUnLCAnPG91dGZpbGUubWFlPic=

> <r_epik_Ionization_Penalty>
0.838902

> <r_epik_Ionization_Penalty_Charging>
0.838844

> <r_epik_Ionization_Penalty_Neutral>
5.81242e-05

> <r_epik_State_Penalty>
0.8734

> <r_epik_Charging_Adjusted_Penalty>
1.71224

> <i_epik_Tot_Q>
1

> <i_epik_Tot_abs_Q>
1

> <r_epik_Metal_State_Penalty>
0.877921

> <b_epik_Metal_Only>
0

> <s_lp_Force_Field>
OPLS_2005

> <r_lp_Energy>
15.7472

> <b_lp_Chiralities_Consistent>
1

> <s_lp_Variant>
AV-unprocessed.smi:1763-3

> <Gold.Version>
5.8.1

> <Gold.Id.Protein>
6NUR|6NUR_protein|mol2

> <Gold.PLP.Fitness>
46.6976

> <Gold.PLP.PLP>
-33.0446

> <Gold.PLP.part.hbond>
-5.0000

> <Gold.PLP.part.metal>
0.0000

> <Gold.PLP.part.buried>
-4.9553

> <Gold.PLP.part.nonpolar>
-23.9545

> <Gold.PLP.part.repulsive>
0.3265

> <Gold.PLP.ligand.clash>
0.0000

> <Gold.PLP.ligand.torsion>
0.6769

> <Gold.PLP.Chemscore.Hbond>
4.9920

> <Gold.PLP.Chemscore.CHOScore>
0.0000

> <Gold.PLP.Chemscore.Metal>
0.0000

> <Gold.Chemscore.Hbonds>
donor molecule, donor type, donor heavy atom, donor atom, acceptor molecule, acceptor atom, score
      L1  H     2    25       P1 10174  0.60
      L1  H     6    43       P1 10175  1.80
      L1  H    10    33       P1  8028  1.00
      L1  H    13    34       P1  8028  1.00

> <Gold.PLP.Chemscore.Internal.Correction>
0.0308

> <Gold.Rescore>
     Score         DG    S(hbond)    S(metal)    S(lipo)     H(rot)  DE(clash)    DE(int)     intcor
     15.79     -18.05       2.71        0.00      67.96       1.73       0.34       1.92       ----

> <Gold.Chemscore.Fitness>
15.7873

> <Gold.Chemscore.DG>
-18.0511

> <Gold.Chemscore.ZeroCoef>
-5.4800

> <Gold.Chemscore.Hbond>
2.7076

> <Gold.Chemscore.Metal>
0.0000

> <Gold.Chemscore.Lipo>
67.9611

> <Gold.Chemscore.Internal_Hbond>
0.0000

> <Gold.Chemscore.DEClash>
0.3447

> <Gold.Chemscore.DEInternal>
1.9191

> <Gold.Chemscore.Rot>
1.7280

> <Gold.Chemscore.Internal.Correction>
   9.000000E+99

> <Gold.Chemscore.Hbonds>
donor molecule, donor type, donor heavy atom, donor atom, acceptor molecule, acceptor atom, score
      L1  H     2    25       P1 10174  0.30
      L1  H     6    43       P1 10175  0.17
      L1  H    10    33       P1  8028  0.94
      L1  H    13    34       P1  8028  0.97

> <Gold.Chemscore.Hbond.Weighted>
-9.0434

> <Gold.Chemscore.Metal.Weighted>
-0.0000

> <Gold.Chemscore.Lipo.Weighted>
-7.9514

> <Gold.Chemscore.Internal_Hbond.Weighted>
0.0000

> <Gold.Chemscore.DEClash.Weighted>
0.3447

> <Gold.Chemscore.DEInternal.Weighted>
1.9191

> <Gold.Chemscore.Rot.Weighted>
4.4237

> <Gold.Chemscore.Internal.Correction.Weighted>
   9.000000E+99

> <Gold.Protein.RotatedTorsions>
[ 6907 6896 6895 6894 ] final  159.67 input  -60.11 | X-H torsion
[ 7974 7965 7964 7962 ] final    5.07 input  175.53 | X-H torsion
[ 8008 7997 7996 7995 ] final   65.47 input   59.86 | X-H torsion
[ 10167 10162 10161 10158 ] final  -83.21 input  -65.29 | X-H torsion
[ 10718 10713 10712 10709 ] final -102.23 input   66.30 | X-H torsion
[ 10763 10752 10751 10750 ] final    2.57 input  -60.55 | X-H torsion
[ 11005 11000 10999 10996 ] final  -28.76 input  -57.11 | X-H torsion

> <Gold.Protein.ActiveResidues>
 VAL166  LYS551  ARG553  GLY616  TRP617  ASP618  TYR619  PRO620  LYS621  CYS622 
 ASP623  PHE694  ASN695  SER759  ASP760  ASP761  ALA762  ILE779  LEU786  VAL792 
 PHE793  MET794  SER795  GLU796  ALA797  LYS798  CYS799  TRP800  GLU811  SER814 

> <Gold.Protein.RotatedAtoms>
  151.9821  133.3761  159.4111 H   0  0  0  0  0  0  0  0  0  0  0  0  # atno 6907 bound_to 6896
  150.6933  134.4027  159.5135 H   0  0  0  0  0  0  0  0  0  0  0  0  # atno 6908 bound_to 6896
  152.1748  134.8804  160.0582 H   0  0  0  0  0  0  0  0  0  0  0  0  # atno 6909 bound_to 6896
  146.2442  140.0439  142.8380 H   0  0  0  0  0  0  0  0  0  0  0  0  # atno 7974 bound_to 7965
  155.6623  140.3497  155.4787 H   0  0  0  0  0  0  0  0  0  0  0  0  # atno 8008 bound_to 7997
  155.9758  140.1165  157.0794 H   0  0  0  0  0  0  0  0  0  0  0  0  # atno 8009 bound_to 7997
  154.4178  140.1148  156.5355 H   0  0  0  0  0  0  0  0  0  0  0  0  # atno 8010 bound_to 7997
  140.4248  143.2571  151.8841 H   0  0  0  0  0  0  0  0  0  0  0  0  # atno 10167 bound_to 10162
  156.0222  130.5410  150.7079 H   0  0  0  0  0  0  0  0  0  0  0  0  # atno 10718 bound_to 10713
  153.2940  135.6951  153.7266 H   0  0  0  0  0  0  0  0  0  0  0  0  # atno 10763 bound_to 10752
  153.6206  135.3428  155.3010 H   0  0  0  0  0  0  0  0  0  0  0  0  # atno 10764 bound_to 10752
  154.8532  135.4385  154.2031 H   0  0  0  0  0  0  0  0  0  0  0  0  # atno 10765 bound_to 10752
  140.9236  133.7383  156.0836 H   0  0  0  0  0  0  0  0  0  0  0  0  # atno 11005 bound_to 11000
  145.1044  140.9366  143.4693 LP  0  0  0  0  0  0  0  0  0  0  0  0  # atno 17320 bound_to 7965
  145.0639  139.3083  143.5866 LP  0  0  0  0  0  0  0  0  0  0  0  0  # atno 17321 bound_to 7965
  139.4783  144.5399  151.8544 LP  0  0  0  0  0  0  0  0  0  0  0  0  # atno 17342 bound_to 10162
  140.4494  144.1877  150.5896 LP  0  0  0  0  0  0  0  0  0  0  0  0  # atno 17343 bound_to 10162
  157.4724  131.0894  151.0628 LP  0  0  0  0  0  0  0  0  0  0  0  0  # atno 17370 bound_to 10713
  157.1084  130.6011  149.5476 LP  0  0  0  0  0  0  0  0  0  0  0  0  # atno 17371 bound_to 10713
  140.7955  134.3569  157.5453 LP  0  0  0  0  0  0  0  0  0  0  0  0  # atno 17394 bound_to 11000
  139.8781  134.9166  156.3159 LP  0  0  0  0  0  0  0  0  0  0  0  0  # atno 17395 bound_to 11000

$$$$
