AV-unprocessed.smi:3258|AV-procd|sdf|12470|dock10
  -GOLD-   2272018373D 1   1.00000     0.00000
 Structure written by MMmdl.
 38 39  0  0  0  0  0  0  0  0  1 V2000
  145.0075  134.4519  154.2621 C   0  0  0  0  0  0  0  0  0  0  0  0
  144.9814  135.7561  153.4481 C   0  0  2  0  0  0  0  0  0  0  0  0
  144.4414  135.5690  152.0132 C   0  0  0  0  0  0  0  0  0  0  0  0
  144.9532  134.3706  151.3734 N   0  0  0  0  0  0  0  0  0  0  0  0
  144.2420  133.3612  150.7597 C   0  0  0  0  0  0  0  0  0  0  0  0
  145.1466  132.4451  150.3052 C   0  0  0  0  0  0  0  0  0  0  0  0
  146.4029  132.9909  150.6912 C   0  0  0  0  0  0  0  0  0  0  0  0
  146.2843  134.1443  151.3289 N   0  0  0  0  0  0  0  0  0  0  0  0
  146.3265  136.3228  153.4089 N   0  0  0  0  0  0  0  0  0  0  0  0
  146.8471  137.1426  154.3332 C   0  0  0  0  0  0  0  0  0  0  0  0
  146.2446  137.5194  155.3387 O   0  0  0  0  0  0  0  0  0  0  0  0
  148.0992  137.5080  154.0244 N   0  0  0  0  0  0  0  0  0  0  0  0
  148.9384  138.4010  154.8174 C   0  0  0  0  0  0  0  0  0  0  0  0
  150.4245  138.2906  154.4275 C   0  0  1  0  0  0  0  0  0  0  0  0
  151.3601  139.2288  155.1663 C   0  0  0  0  0  0  0  0  0  0  0  0
  152.7161  138.5645  154.9469 C   0  0  0  0  0  0  0  0  0  0  0  0
  152.4545  137.1686  154.8284 O   0  0  0  0  0  0  0  0  0  0  0  0
  151.0506  136.9383  154.7652 C   0  0  0  0  0  0  0  0  0  0  0  0
  144.0054  134.0443  154.3962 H   0  0  0  0  0  0  0  0  0  0  0  0
  145.4227  134.6186  155.2565 H   0  0  0  0  0  0  0  0  0  0  0  0
  145.6136  133.6901  153.7708 H   0  0  0  0  0  0  0  0  0  0  0  0
  144.3282  136.4540  153.9758 H   0  0  0  0  0  0  0  0  0  0  0  0
  143.3527  135.5023  152.0219 H   0  0  0  0  0  0  0  0  0  0  0  0
  144.6930  136.4345  151.3977 H   0  0  0  0  0  0  0  0  0  0  0  0
  143.1635  133.3791  150.7006 H   0  0  0  0  0  0  0  0  0  0  0  0
  144.9425  131.5256  149.7771 H   0  0  0  0  0  0  0  0  0  0  0  0
  147.3909  132.5864  150.5273 H   0  0  0  0  0  0  0  0  0  0  0  0
  146.9012  136.0730  152.6174 H   0  0  0  0  0  0  0  0  0  0  0  0
  148.5030  137.1434  153.1739 H   0  0  0  0  0  0  0  0  0  0  0  0
  148.5934  139.4331  154.7355 H   0  0  0  0  0  0  0  0  0  0  0  0
  148.8172  138.1232  155.8646 H   0  0  0  0  0  0  0  0  0  0  0  0
  150.5324  138.4629  153.3552 H   0  0  0  0  0  0  0  0  0  0  0  0
  151.3270  140.2531  154.7943 H   0  0  0  0  0  0  0  0  0  0  0  0
  151.1205  139.2443  156.2306 H   0  0  0  0  0  0  0  0  0  0  0  0
  153.1640  138.9122  154.0152 H   0  0  0  0  0  0  0  0  0  0  0  0
  153.4158  138.7720  155.7566 H   0  0  0  0  0  0  0  0  0  0  0  0
  150.7154  136.5904  155.7435 H   0  0  0  0  0  0  0  0  0  0  0  0
  150.8064  136.1694  154.0319 H   0  0  0  0  0  0  0  0  0  0  0  0
  1  2  1  0  0  0  0
  1 19  1  0  0  0  0
  1 20  1  0  0  0  0
  1 21  1  0  0  0  0
  2  3  1  0  0  0  0
  2  9  1  0  0  0  0
  2 22  1  0  0  0  0
  3  4  1  0  0  0  0
  3 23  1  0  0  0  0
  3 24  1  0  0  0  0
  4  8  1  0  0  0  0
  4  5  1  0  0  0  0
  5  6  2  0  0  0  0
  5 25  1  0  0  0  0
  6  7  1  0  0  0  0
  6 26  1  0  0  0  0
  7  8  2  0  0  0  0
  7 27  1  0  0  0  0
  9 10  1  0  0  0  0
  9 28  1  0  0  0  0
 10 11  2  0  0  0  0
 10 12  1  0  0  0  0
 12 13  1  0  0  0  0
 12 29  1  0  0  0  0
 13 14  1  0  0  0  0
 13 30  1  0  0  0  0
 13 31  1  0  0  0  0
 14 18  1  0  0  0  0
 14 15  1  0  0  0  0
 14 32  1  0  0  0  0
 15 16  1  0  0  0  0
 15 33  1  0  0  0  0
 15 34  1  0  0  0  0
 16 17  1  0  0  0  0
 16 35  1  0  0  0  0
 16 36  1  0  0  0  0
 17 18  1  0  0  0  0
 18 37  1  0  0  0  0
 18 38  1  0  0  0  0
M  END
> <s_m_source_file>
AV-unprocessed.smi

> <i_m_source_file_index>
3258

> <i_lp_mmshare_version>
43012

> <i_f3d_flags>
0

> <s_epik_input>
bjFbY0hdW2NIXVtjSF1uMVtDSDJdW0NAQEhdKFtDSDNdKVtOSF1DKD1PKVtOSF1bQ0gyXVtDQEBIXTJbQ0gyXVtDSDJdT1tDSDJdMg==

> <s_epik_cmdline>
J2VwaWtfcHl0aG9uJywgJy1waCcsICc3LjAnLCAnLXRuJywgJzgnLCAnLW1hJywgJzIwMCcsICctbWV0YWxfYmluZGluZycsICctaW1hZScsICc8aW5maWxlLm1hZT4nLCAnLW9tYWUnLCAnPG91dGZpbGUubWFlPic=

> <r_lp_tautomer_probability>
1

> <r_epik_Ionization_Penalty>
6.85079e-05

> <r_epik_Ionization_Penalty_Charging>
0

> <r_epik_Ionization_Penalty_Neutral>
6.85079e-05

> <r_epik_State_Penalty>
-0

> <r_epik_Charging_Adjusted_Penalty>
0

> <i_epik_Tot_Q>
0

> <i_epik_Tot_abs_Q>
0

> <r_epik_Metal_State_Penalty>
-0

> <b_epik_Metal_Only>
0

> <s_lp_Force_Field>
OPLS_2005

> <r_lp_Energy>
15.6708

> <b_lp_Chiralities_Consistent>
1

> <s_lp_Variant>
AV-unprocessed.smi:3258-3

> <Gold.Version>
5.8.1

> <Gold.Id.Protein>
6NUR|6NUR_protein|mol2

> <Gold.PLP.Fitness>
42.7592

> <Gold.PLP.PLP>
-30.6898

> <Gold.PLP.part.hbond>
-2.9853

> <Gold.PLP.part.metal>
0.0000

> <Gold.PLP.part.buried>
-4.9164

> <Gold.PLP.part.nonpolar>
-24.5062

> <Gold.PLP.part.repulsive>
0.3518

> <Gold.PLP.ligand.clash>
0.0000

> <Gold.PLP.ligand.torsion>
0.7179

> <Gold.PLP.Chemscore.Hbond>
2.4880

> <Gold.PLP.Chemscore.CHOScore>
2.0000

> <Gold.PLP.Chemscore.Metal>
0.0000

> <Gold.Chemscore.Hbonds>
donor molecule, donor type, donor heavy atom, donor atom, acceptor molecule, acceptor atom, score
      L1  H     9    28       P1  7948  0.52
      L1  H    12    29       P1  7948  1.00
      P1  H 10752 10763       L1    17  0.58
      L1  C     5    25       P1 10186  0.69
      L1  C     7    27       P1 10747  1.00

> <Gold.PLP.Chemscore.Internal.Correction>
0.0411

> <Gold.Rescore>
     Score         DG    S(hbond)    S(metal)    S(lipo)     H(rot)  DE(clash)    DE(int)     intcor
     16.64     -17.45       2.76        0.00      64.51       1.87       0.03       0.78       ----

> <Gold.Chemscore.Fitness>
16.6424

> <Gold.Chemscore.DG>
-17.4508

> <Gold.Chemscore.ZeroCoef>
-5.4800

> <Gold.Chemscore.Hbond>
2.7594

> <Gold.Chemscore.Metal>
0.0000

> <Gold.Chemscore.Lipo>
64.5109

> <Gold.Chemscore.Internal_Hbond>
0.0000

> <Gold.Chemscore.DEClash>
0.0319

> <Gold.Chemscore.DEInternal>
0.7765

> <Gold.Chemscore.Rot>
1.8724

> <Gold.Chemscore.Internal.Correction>
   9.000000E+99

> <Gold.Chemscore.Hbonds>
donor molecule, donor type, donor heavy atom, donor atom, acceptor molecule, acceptor atom, score
      L1  H     9    28       P1  7948  0.53
      L1  H    12    29       P1  7948  1.00
      P1  H 10752 10763       L1    17  0.13

> <Gold.Chemscore.Hbond.Weighted>
-9.2163

> <Gold.Chemscore.Metal.Weighted>
-0.0000

> <Gold.Chemscore.Lipo.Weighted>
-7.5478

> <Gold.Chemscore.Internal_Hbond.Weighted>
0.0000

> <Gold.Chemscore.DEClash.Weighted>
0.0319

> <Gold.Chemscore.DEInternal.Weighted>
0.7765

> <Gold.Chemscore.Rot.Weighted>
4.7933

> <Gold.Chemscore.Internal.Correction.Weighted>
   9.000000E+99

> <Gold.Protein.RotatedTorsions>
[ 6907 6896 6895 6894 ] final  177.79 input  -60.11 | X-H torsion
[ 7974 7965 7964 7962 ] final -106.32 input  175.53 | X-H torsion
[ 8008 7997 7996 7995 ] final  -53.86 input   59.86 | X-H torsion
[ 10167 10162 10161 10158 ] final  -80.73 input  -65.29 | X-H torsion
[ 10718 10713 10712 10709 ] final   89.49 input   66.30 | X-H torsion
[ 10763 10752 10751 10750 ] final   67.90 input  -60.55 | X-H torsion
[ 11005 11000 10999 10996 ] final  -82.40 input  -57.11 | X-H torsion

> <Gold.Protein.ActiveResidues>
 VAL166  LYS551  ARG553  GLY616  TRP617  ASP618  TYR619  PRO620  LYS621  CYS622 
 ASP623  PHE694  ASN695  SER759  ASP760  ASP761  ALA762  ILE779  LEU786  VAL792 
 PHE793  MET794  SER795  GLU796  ALA797  LYS798  CYS799  TRP800  GLU811  SER814 

> <Gold.Protein.RotatedAtoms>
  151.6982  133.3311  159.3259 H   0  0  0  0  0  0  0  0  0  0  0  0  # atno 6907 bound_to 6896
  150.7748  134.6639  159.6364 H   0  0  0  0  0  0  0  0  0  0  0  0  # atno 6908 bound_to 6896
  152.3786  134.6629  160.0203 H   0  0  0  0  0  0  0  0  0  0  0  0  # atno 6909 bound_to 6896
  145.2194  140.9128  143.3268 H   0  0  0  0  0  0  0  0  0  0  0  0  # atno 7974 bound_to 7965
  154.4145  140.1190  156.5222 H   0  0  0  0  0  0  0  0  0  0  0  0  # atno 8008 bound_to 7997
  155.6691  140.3496  155.4792 H   0  0  0  0  0  0  0  0  0  0  0  0  # atno 8009 bound_to 7997
  155.9648  140.1130  157.0854 H   0  0  0  0  0  0  0  0  0  0  0  0  # atno 8010 bound_to 7997
  140.4477  143.2493  151.8534 H   0  0  0  0  0  0  0  0  0  0  0  0  # atno 10167 bound_to 10162
  157.6955  131.0335  150.3433 H   0  0  0  0  0  0  0  0  0  0  0  0  # atno 10718 bound_to 10713
  153.0208  135.5267  154.7051 H   0  0  0  0  0  0  0  0  0  0  0  0  # atno 10763 bound_to 10752
  154.6149  135.2882  155.0394 H   0  0  0  0  0  0  0  0  0  0  0  0  # atno 10764 bound_to 10752
  154.1402  135.6579  153.4993 H   0  0  0  0  0  0  0  0  0  0  0  0  # atno 10765 bound_to 10752
  141.1663  133.7243  156.8567 H   0  0  0  0  0  0  0  0  0  0  0  0  # atno 11005 bound_to 11000
  144.9780  139.3812  143.6276 LP  0  0  0  0  0  0  0  0  0  0  0  0  # atno 17320 bound_to 7965
  146.3379  139.8908  142.8809 LP  0  0  0  0  0  0  0  0  0  0  0  0  # atno 17321 bound_to 7965
  139.4794  144.5156  151.8872 LP  0  0  0  0  0  0  0  0  0  0  0  0  # atno 17342 bound_to 10162
  140.4244  144.2200  150.5887 LP  0  0  0  0  0  0  0  0  0  0  0  0  # atno 17343 bound_to 10162
  156.3891  130.3894  149.7043 LP  0  0  0  0  0  0  0  0  0  0  0  0  # atno 17370 bound_to 10713
  156.4399  130.7856  151.2877 LP  0  0  0  0  0  0  0  0  0  0  0  0  # atno 17371 bound_to 10713
  140.1878  134.8988  157.3024 LP  0  0  0  0  0  0  0  0  0  0  0  0  # atno 17394 bound_to 11000
  140.2324  134.3893  155.7516 LP  0  0  0  0  0  0  0  0  0  0  0  0  # atno 17395 bound_to 11000

$$$$
