AV-unprocessed.smi:114|AV-procd|sdf|1113|dock3
  -GOLD-   2262018233D 1   1.00000     0.00000
 Structure written by MMmdl.
 32 34  0  0  0  0  0  0  0  0  1 V2000
  154.5862  140.0436  160.5703 N   0  0  0  0  0  0  0  0  0  0  0  0
  153.5851  140.6637  159.9300 C   0  0  0  0  0  0  0  0  0  0  0  0
  153.4514  142.0012  160.0855 N   0  0  0  0  0  0  0  0  0  0  0  0
  152.4629  142.6577  159.4662 C   0  0  0  0  0  0  0  0  0  0  0  0
  152.4027  143.9931  159.6796 F   0  0  0  0  0  0  0  0  0  0  0  0
  151.5272  142.1421  158.6620 N   0  0  0  0  0  0  0  0  0  0  0  0
  151.6573  140.7933  158.5008 C   0  0  0  0  0  0  0  0  0  0  0  0
  152.6593  139.9841  159.1012 C   0  0  0  0  0  0  0  0  0  0  0  0
  152.4901  138.6596  158.7227 N   0  0  0  0  0  0  0  0  0  0  0  0
  151.4425  138.6885  157.9436 C   0  0  0  0  0  0  0  0  0  0  0  0
  150.8736  139.9297  157.7588 N   0  0  0  0  0  0  0  0  0  0  0  0
  149.6669  140.2556  156.9294 C   0  0  2  0  0  0  0  0  0  0  0  0
  149.1725  139.0869  156.3434 O   0  0  0  0  0  0  0  0  0  0  0  0
  149.1825  139.1936  154.9196 C   0  0  1  0  0  0  0  0  0  0  0  0
  148.0048  138.4016  154.3307 C   0  0  0  0  0  0  0  0  0  0  0  0
  148.0013  138.5104  152.9234 O   0  0  0  0  0  0  0  0  0  0  0  0
  149.0804  140.7024  154.6879 C   0  0  2  0  0  0  0  0  0  0  0  0
  149.4999  141.0988  153.3954 O   0  0  0  0  0  0  0  0  0  0  0  0
  149.9536  141.2647  155.8007 C   0  0  2  0  0  0  0  0  0  0  0  0
  151.3238  141.3449  155.4389 O   0  0  0  0  0  0  0  0  0  0  0  0
  148.9316  140.6240  157.6459 H   0  0  0  0  0  0  0  0  0  0  0  0
  150.1346  138.8307  154.5288 H   0  0  0  0  0  0  0  0  0  0  0  0
  148.0509  141.0293  154.8429 H   0  0  0  0  0  0  0  0  0  0  0  0
  149.6248  142.2579  156.1080 H   0  0  0  0  0  0  0  0  0  0  0  0
  154.7043  139.0456  160.4712 H   0  0  0  0  0  0  0  0  0  0  0  0
  155.2187  140.5750  161.1510 H   0  0  0  0  0  0  0  0  0  0  0  0
  151.0486  137.7949  157.4816 H   0  0  0  0  0  0  0  0  0  0  0  0
  148.0399  137.3539  154.6312 H   0  0  0  0  0  0  0  0  0  0  0  0
  147.0605  138.8105  154.6911 H   0  0  0  0  0  0  0  0  0  0  0  0
  148.2970  137.6912  152.5572 H   0  0  0  0  0  0  0  0  0  0  0  0
  149.3488  140.3830  152.7976 H   0  0  0  0  0  0  0  0  0  0  0  0
  151.8100  141.6772  156.1779 H   0  0  0  0  0  0  0  0  0  0  0  0
  1  2  1  0  0  0  0
  1 25  1  0  0  0  0
  1 26  1  0  0  0  0
  2  8  1  0  0  0  0
  2  3  2  0  0  0  0
  3  4  1  0  0  0  0
  4  5  1  0  0  0  0
  4  6  2  0  0  0  0
  6  7  1  0  0  0  0
  7 11  1  0  0  0  0
  7  8  2  0  0  0  0
  8  9  1  0  0  0  0
  9 10  2  0  0  0  0
 10 11  1  0  0  0  0
 10 27  1  0  0  0  0
 11 12  1  0  0  0  0
 12 21  1  0  0  0  0
 12 19  1  0  0  0  0
 12 13  1  0  0  0  0
 13 14  1  0  0  0  0
 14 22  1  0  0  0  0
 14 15  1  0  0  0  0
 14 17  1  0  0  0  0
 15 16  1  0  0  0  0
 15 28  1  0  0  0  0
 15 29  1  0  0  0  0
 16 30  1  0  0  0  0
 17 23  1  0  0  0  0
 17 18  1  0  0  0  0
 17 19  1  0  0  0  0
 18 31  1  0  0  0  0
 19 24  1  0  0  0  0
 19 20  1  0  0  0  0
 20 32  1  0  0  0  0
M  END
> <s_m_source_file>
AV-unprocessed.smi

> <i_m_source_file_index>
114

> <i_lp_mmshare_version>
43012

> <i_f3d_flags>
0

> <s_epik_input>
RmMobjEpbmMoW05IMl0pYyhjMTIpbltjSF1uMltDQEBIXTNPW0NASF0oW0NIMl1bT0hdKVtDQEBIXShbT0hdKVtDQEBIXTNbT0hd

> <s_epik_cmdline>
J2VwaWtfcHl0aG9uJywgJy1waCcsICc3LjAnLCAnLXRuJywgJzgnLCAnLW1hJywgJzIwMCcsICctbWV0YWxfYmluZGluZycsICctaW1hZScsICc8aW5maWxlLm1hZT4nLCAnLW9tYWUnLCAnPG91dGZpbGUubWFlPic=

> <r_lp_tautomer_probability>
1

> <r_epik_Ionization_Penalty>
1.13199e-05

> <r_epik_Ionization_Penalty_Charging>
0

> <r_epik_Ionization_Penalty_Neutral>
1.13199e-05

> <r_epik_State_Penalty>
-0

> <r_epik_Charging_Adjusted_Penalty>
0

> <i_epik_Tot_Q>
0

> <i_epik_Tot_abs_Q>
0

> <r_epik_Metal_State_Penalty>
-0

> <b_epik_Metal_Only>
0

> <s_epik_Chemistry_Notes>
This compound contains an acetal/aminal-like group ( X-CH(R)-Y where X, Y are N, S, or O) that may be acid/base labile, releasing an aldehyde.

> <s_lp_Force_Field>
OPLS_2005

> <r_lp_Energy>
45.5286

> <b_lp_Chiralities_Consistent>
1

> <s_lp_Variant>
AV-unprocessed.smi:114-7

> <Gold.Version>
5.8.1

> <Gold.Id.Protein>
6NUR|6NUR_protein|mol2

> <Gold.PLP.Fitness>
40.2947

> <Gold.PLP.PLP>
-30.6994

> <Gold.PLP.part.hbond>
-5.7921

> <Gold.PLP.part.metal>
0.0000

> <Gold.PLP.part.buried>
-2.3633

> <Gold.PLP.part.nonpolar>
-21.9118

> <Gold.PLP.part.repulsive>
0.0520

> <Gold.PLP.ligand.clash>
0.0000

> <Gold.PLP.ligand.torsion>
0.0064

> <Gold.PLP.Chemscore.Hbond>
3.2000

> <Gold.PLP.Chemscore.CHOScore>
0.0000

> <Gold.PLP.Chemscore.Metal>
0.0000

> <Gold.Chemscore.Hbonds>
donor molecule, donor type, donor heavy atom, donor atom, acceptor molecule, acceptor atom, score
      L1  H    16    30       P1  7948  1.00
      L1  H    18    31       P1  7957  0.75
      P1  H  7989  7998       L1    20  0.45
      P1  H  8011  8017       L1    18  1.00

> <Gold.PLP.Chemscore.Internal.Correction>
0.0080

> <Gold.Rescore>
     Score         DG    S(hbond)    S(metal)    S(lipo)     H(rot)  DE(clash)    DE(int)     intcor
      6.74      -8.03       2.91        0.00      26.94       4.03       1.26       0.03       ----

> <Gold.Chemscore.Fitness>
6.7388

> <Gold.Chemscore.DG>
-8.0291

> <Gold.Chemscore.ZeroCoef>
-5.4800

> <Gold.Chemscore.Hbond>
2.9065

> <Gold.Chemscore.Metal>
0.0000

> <Gold.Chemscore.Lipo>
26.9439

> <Gold.Chemscore.Internal_Hbond>
0.0000

> <Gold.Chemscore.DEClash>
1.2557

> <Gold.Chemscore.DEInternal>
0.0346

> <Gold.Chemscore.Rot>
4.0277

> <Gold.Chemscore.Internal.Correction>
   9.000000E+99

> <Gold.Chemscore.Hbonds>
donor molecule, donor type, donor heavy atom, donor atom, acceptor molecule, acceptor atom, score
      L1  H    16    30       P1  7948  1.00
      L1  H    18    31       P1  7957  0.74
      P1  H  7989  7998       L1    20  0.36
      P1  H  8011  8017       L1    18  0.34

> <Gold.Chemscore.Hbond.Weighted>
-9.7077

> <Gold.Chemscore.Metal.Weighted>
-0.0000

> <Gold.Chemscore.Lipo.Weighted>
-3.1524

> <Gold.Chemscore.Internal_Hbond.Weighted>
0.0000

> <Gold.Chemscore.DEClash.Weighted>
1.2557

> <Gold.Chemscore.DEInternal.Weighted>
0.0346

> <Gold.Chemscore.Rot.Weighted>
10.3110

> <Gold.Chemscore.Internal.Correction.Weighted>
   9.000000E+99

> <Gold.Protein.RotatedTorsions>
[ 6907 6896 6895 6894 ] final   46.39 input  -60.11 | X-H torsion
[ 7974 7965 7964 7962 ] final  -96.70 input  175.53 | X-H torsion
[ 8008 7997 7996 7995 ] final  135.27 input   59.86 | X-H torsion
[ 10167 10162 10161 10158 ] final  -19.76 input  -65.29 | X-H torsion
[ 10718 10713 10712 10709 ] final   59.72 input   66.30 | X-H torsion
[ 10763 10752 10751 10750 ] final  132.39 input  -60.55 | X-H torsion
[ 11005 11000 10999 10996 ] final  -18.19 input  -57.11 | X-H torsion

> <Gold.Protein.ActiveResidues>
 VAL166  LYS551  ARG553  GLY616  TRP617  ASP618  TYR619  PRO620  LYS621  CYS622 
 ASP623  PHE694  ASN695  SER759  ASP760  ASP761  ALA762  ILE779  LEU786  VAL792 
 PHE793  MET794  SER795  GLU796  ALA797  LYS798  CYS799  TRP800  GLU811  SER814 

> <Gold.Protein.RotatedAtoms>
  152.2558  134.8086  160.0438 H   0  0  0  0  0  0  0  0  0  0  0  0  # atno 6907 bound_to 6896
  151.8750  133.3478  159.3755 H   0  0  0  0  0  0  0  0  0  0  0  0  # atno 6908 bound_to 6896
  150.7099  134.5002  159.5602 H   0  0  0  0  0  0  0  0  0  0  0  0  # atno 6909 bound_to 6896
  145.3434  140.9464  143.2595 H   0  0  0  0  0  0  0  0  0  0  0  0  # atno 7974 bound_to 7965
  156.3002  140.2475  156.3554 H   0  0  0  0  0  0  0  0  0  0  0  0  # atno 8008 bound_to 7997
  154.8927  140.0409  157.1867 H   0  0  0  0  0  0  0  0  0  0  0  0  # atno 8009 bound_to 7997
  154.8581  140.2916  155.5560 H   0  0  0  0  0  0  0  0  0  0  0  0  # atno 8010 bound_to 7997
  140.7271  143.4788  151.0146 H   0  0  0  0  0  0  0  0  0  0  0  0  # atno 10167 bound_to 10162
  157.5698  130.8899  149.9248 H   0  0  0  0  0  0  0  0  0  0  0  0  # atno 10718 bound_to 10713
  153.7900  135.3156  155.3377 H   0  0  0  0  0  0  0  0  0  0  0  0  # atno 10763 bound_to 10752
  154.8129  135.4655  154.0568 H   0  0  0  0  0  0  0  0  0  0  0  0  # atno 10764 bound_to 10752
  153.1883  135.6904  153.8472 H   0  0  0  0  0  0  0  0  0  0  0  0  # atno 10765 bound_to 10752
  140.8243  133.8045  155.9692 H   0  0  0  0  0  0  0  0  0  0  0  0  # atno 11005 bound_to 11000
  144.8773  139.4953  143.6739 LP  0  0  0  0  0  0  0  0  0  0  0  0  # atno 17320 bound_to 7965
  146.2998  139.7390  142.9100 LP  0  0  0  0  0  0  0  0  0  0  0  0  # atno 17321 bound_to 7965
  139.8485  143.7469  152.3178 LP  0  0  0  0  0  0  0  0  0  0  0  0  # atno 17342 bound_to 10162
  139.7643  144.7497  151.0317 LP  0  0  0  0  0  0  0  0  0  0  0  0  # atno 17343 bound_to 10162
  156.0744  130.3681  150.0708 LP  0  0  0  0  0  0  0  0  0  0  0  0  # atno 17370 bound_to 10713
  156.8863  130.9573  151.3594 LP  0  0  0  0  0  0  0  0  0  0  0  0  # atno 17371 bound_to 10713
  140.9066  134.2313  157.5011 LP  0  0  0  0  0  0  0  0  0  0  0  0  # atno 17394 bound_to 11000
  139.8707  134.9731  156.4797 LP  0  0  0  0  0  0  0  0  0  0  0  0  # atno 17395 bound_to 11000

$$$$
