AV-unprocessed.smi:2424|AV-procd|sdf|9569|dock3
  -GOLD-   2272013203D 1   1.00000     0.00000
 Structure written by MMmdl.
 49 50  0  0  0  0  0  0  0  0  2 V2000
  151.7521  138.5226  154.9904 C   0  0  0  0  0  0  0  0  0  0  0  0
  150.8574  137.3066  154.6853 C   0  0  0  0  0  0  0  0  0  0  0  0
  150.4973  136.3798  155.8839 C   0  0  0  0  0  0  0  0  0  0  0  0
  149.8039  137.2001  156.9886 C   0  0  0  0  0  0  0  0  0  0  0  0
  149.7399  136.5043  158.3574 C   0  0  0  0  0  0  0  0  0  0  0  0
  149.8244  135.0143  155.5643 C   0  0  1  0  0  0  0  0  0  0  0  0
  149.0763  134.9580  154.3131 N   0  0  0  0  0  0  0  0  0  0  0  0
  148.1642  134.0228  154.0150 C   0  0  0  0  0  0  0  0  0  0  0  0
  147.8660  133.1050  154.7789 O   0  0  0  0  0  0  0  0  0  0  0  0
  147.6329  134.2442  152.7997 N   0  0  0  0  0  0  0  0  0  0  0  0
  146.6472  133.5102  152.1272 C   0  0  0  0  0  0  0  0  0  0  0  0
  145.7114  134.1563  151.3451 C   0  0  0  0  0  0  0  0  0  0  0  0
  144.6957  133.6284  150.6284 N   0  5  0  0  0  0  0  0  0  0  0  0
  144.5317  132.2746  150.6471 C   0  0  0  0  0  0  0  0  0  0  0  0
  143.6282  131.7230  150.0199 O   0  0  0  0  0  0  0  0  0  0  0  0
  145.4674  131.4552  151.4435 C   0  0  0  0  0  0  0  0  0  0  0  0
  145.2851  129.9469  151.4579 C   0  0  0  0  0  0  0  0  0  0  0  0
  146.4640  132.0590  152.1382 C   0  0  0  0  0  0  0  0  0  0  0  0
  151.2094  134.3684  155.4471 C   0  0  2  0  0  0  0  0  0  0  0  0
  151.3753  132.9115  155.8589 C   0  0  0  0  0  0  0  0  0  0  0  0
  151.6645  135.4904  156.3919 C   0  0  1  0  0  0  0  0  0  0  0  0
  152.9430  136.0377  156.1040 O   0  0  0  0  0  0  0  0  0  0  0  0
  153.3850  136.9681  157.0760 C   0  0  0  0  0  0  0  0  0  0  0  0
  151.8546  139.1476  154.1033 H   0  0  0  0  0  0  0  0  0  0  0  0
  152.7582  138.2235  155.2822 H   0  0  0  0  0  0  0  0  0  0  0  0
  151.3473  139.1507  155.7809 H   0  0  0  0  0  0  0  0  0  0  0  0
  149.9468  137.6806  154.2174 H   0  0  0  0  0  0  0  0  0  0  0  0
  151.3454  136.7276  153.9012 H   0  0  0  0  0  0  0  0  0  0  0  0
  150.2655  138.1815  157.0938 H   0  0  0  0  0  0  0  0  0  0  0  0
  148.7784  137.4164  156.6869 H   0  0  0  0  0  0  0  0  0  0  0  0
  149.1720  137.1063  159.0669 H   0  0  0  0  0  0  0  0  0  0  0  0
  150.7315  136.3519  158.7827 H   0  0  0  0  0  0  0  0  0  0  0  0
  149.2519  135.5321  158.2858 H   0  0  0  0  0  0  0  0  0  0  0  0
  149.2799  134.6086  156.4209 H   0  0  0  0  0  0  0  0  0  0  0  0
  149.2621  135.6800  153.6328 H   0  0  0  0  0  0  0  0  0  0  0  0
  147.9770  135.0494  152.2974 H   0  0  0  0  0  0  0  0  0  0  0  0
  145.7891  135.2637  151.2887 H   0  0  0  0  0  0  0  0  0  0  0  0
  146.0342  129.4613  152.0838 H   0  0  0  0  0  0  0  0  0  0  0  0
  145.3756  129.5430  150.4491 H   0  0  0  0  0  0  0  0  0  0  0  0
  144.3006  129.6861  151.8473 H   0  0  0  0  0  0  0  0  0  0  0  0
  147.1293  131.4279  152.7040 H   0  0  0  0  0  0  0  0  0  0  0  0
  151.6232  134.5358  154.4511 H   0  0  0  0  0  0  0  0  0  0  0  0
  151.0465  132.7472  156.8852 H   0  0  0  0  0  0  0  0  0  0  0  0
  152.4149  132.5923  155.7897 H   0  0  0  0  0  0  0  0  0  0  0  0
  150.7880  132.2546  155.2170 H   0  0  0  0  0  0  0  0  0  0  0  0
  151.5457  135.2257  157.4458 H   0  0  0  0  0  0  0  0  0  0  0  0
  154.3488  137.3777  156.7743 H   0  0  0  0  0  0  0  0  0  0  0  0
  153.5131  136.4968  158.0500 H   0  0  0  0  0  0  0  0  0  0  0  0
  152.6842  137.7979  157.1753 H   0  0  0  0  0  0  0  0  0  0  0  0
  1  2  1  0  0  0  0
  1 24  1  0  0  0  0
  1 25  1  0  0  0  0
  1 26  1  0  0  0  0
  2  3  1  0  0  0  0
  2 27  1  0  0  0  0
  2 28  1  0  0  0  0
  3 21  1  0  0  0  0
  3  4  1  0  0  0  0
  3  6  1  0  0  0  0
  4  5  1  0  0  0  0
  4 29  1  0  0  0  0
  4 30  1  0  0  0  0
  5 31  1  0  0  0  0
  5 32  1  0  0  0  0
  5 33  1  0  0  0  0
  6  7  1  0  0  0  0
  6 19  1  0  0  0  0
  6 34  1  0  0  0  0
  7  8  1  0  0  0  0
  7 35  1  0  0  0  0
  8  9  2  0  0  0  0
  8 10  1  0  0  0  0
 10 11  1  0  0  0  0
 10 36  1  0  0  0  0
 11 18  1  0  0  0  0
 11 12  2  0  0  0  0
 12 13  1  0  0  0  0
 12 37  1  0  0  0  0
 13 14  1  0  0  0  0
 14 15  2  0  0  0  0
 14 16  1  0  0  0  0
 16 17  1  0  0  0  0
 16 18  2  0  0  0  0
 17 38  1  0  0  0  0
 17 39  1  0  0  0  0
 17 40  1  0  0  0  0
 18 41  1  0  0  0  0
 19 20  1  0  0  0  0
 19 21  1  0  0  0  0
 19 42  1  0  0  0  0
 20 43  1  0  0  0  0
 20 44  1  0  0  0  0
 20 45  1  0  0  0  0
 21 22  1  0  0  0  0
 21 46  1  0  0  0  0
 22 23  1  0  0  0  0
 23 47  1  0  0  0  0
 23 48  1  0  0  0  0
 23 49  1  0  0  0  0
M  CHG  1  13  -1
M  END
> <s_m_source_file>
AV-unprocessed.smi

> <i_m_source_file_index>
2424

> <i_lp_mmshare_version>
43012

> <i_f3d_flags>
0

> <s_epik_input>
W0NIM11PW0NAQEhdMVtDQEhdKFtDSDNdKVtDQEBIXShDMShbQ0gyXVtDSDNdKVtDSDJdW0NIM10pW05IXUMoPU8pW05IXWMyW2NIXVtuSF1jKD1PKWMoW0NIM10pW2NIXTI=

> <s_epik_cmdline>
J2VwaWtfcHl0aG9uJywgJy1waCcsICc3LjAnLCAnLXRuJywgJzgnLCAnLW1hJywgJzIwMCcsICctbWV0YWxfYmluZGluZycsICctaW1hZScsICc8aW5maWxlLm1hZT4nLCAnLW9tYWUnLCAnPG91dGZpbGUubWFlPic=

> <r_lp_tautomer_probability>
1

> <r_epik_Ionization_Penalty>
7.6122

> <r_epik_Ionization_Penalty_Charging>
1.53843

> <r_epik_Ionization_Penalty_Neutral>
6.07377

> <r_epik_State_Penalty>
6.07371

> <r_epik_Charging_Adjusted_Penalty>
7.61214

> <i_epik_Tot_Q>
-1

> <i_epik_Tot_abs_Q>
1

> <r_epik_Metal_State_Penalty>
2.02136

> <b_epik_Metal_Only>
1

> <s_lp_Force_Field>
OPLS_2005

> <r_lp_Energy>
39.7535

> <b_lp_Chiralities_Consistent>
1

> <s_lp_Variant>
AV-unprocessed.smi:2424-11

> <Gold.Version>
5.8.1

> <Gold.Id.Protein>
6NUR|6NUR_protein|mol2

> <Gold.PLP.Fitness>
43.7111

> <Gold.PLP.PLP>
-33.8309

> <Gold.PLP.part.hbond>
-4.0000

> <Gold.PLP.part.metal>
0.0000

> <Gold.PLP.part.buried>
-5.6635

> <Gold.PLP.part.nonpolar>
-24.0439

> <Gold.PLP.part.repulsive>
0.3278

> <Gold.PLP.ligand.clash>
0.0000

> <Gold.PLP.ligand.torsion>
0.9851

> <Gold.PLP.Chemscore.Hbond>
3.7440

> <Gold.PLP.Chemscore.CHOScore>
0.0000

> <Gold.PLP.Chemscore.Metal>
0.0000

> <Gold.Chemscore.Hbonds>
donor molecule, donor type, donor heavy atom, donor atom, acceptor molecule, acceptor atom, score
      L1  H     7    35       P1  7948  0.90
      L1  H    10    36       P1  7948  1.00
      P1  H 10752 10763       L1    22  0.16
      P1  H 10785 10796       L1    15  0.83

> <Gold.PLP.Chemscore.Internal.Correction>
0.6184

> <Gold.Rescore>
     Score         DG    S(hbond)    S(metal)    S(lipo)     H(rot)  DE(clash)    DE(int)     intcor
     19.06     -21.43       3.25        0.00      76.79       1.52       0.16       2.21       ----

> <Gold.Chemscore.Fitness>
19.0607

> <Gold.Chemscore.DG>
-21.4297

> <Gold.Chemscore.ZeroCoef>
-5.4800

> <Gold.Chemscore.Hbond>
3.2509

> <Gold.Chemscore.Metal>
0.0000

> <Gold.Chemscore.Lipo>
76.7872

> <Gold.Chemscore.Internal_Hbond>
0.0000

> <Gold.Chemscore.DEClash>
0.1559

> <Gold.Chemscore.DEInternal>
2.2132

> <Gold.Chemscore.Rot>
1.5204

> <Gold.Chemscore.Internal.Correction>
   9.000000E+99

> <Gold.Chemscore.Hbonds>
donor molecule, donor type, donor heavy atom, donor atom, acceptor molecule, acceptor atom, score
      L1  H     7    35       P1  7948  0.49
      L1  H    10    36       P1  7948  0.78
      P1  H 10752 10763       L1    22  0.04
      P1  H 10785 10796       L1    15  0.77

> <Gold.Chemscore.Hbond.Weighted>
-10.8579

> <Gold.Chemscore.Metal.Weighted>
-0.0000

> <Gold.Chemscore.Lipo.Weighted>
-8.9841

> <Gold.Chemscore.Internal_Hbond.Weighted>
0.0000

> <Gold.Chemscore.DEClash.Weighted>
0.1559

> <Gold.Chemscore.DEInternal.Weighted>
2.2132

> <Gold.Chemscore.Rot.Weighted>
3.8922

> <Gold.Chemscore.Internal.Correction.Weighted>
   9.000000E+99

> <Gold.Protein.RotatedTorsions>
[ 6907 6896 6895 6894 ] final -114.32 input  -60.11 | X-H torsion
[ 7974 7965 7964 7962 ] final  -66.90 input  175.53 | X-H torsion
[ 8008 7997 7996 7995 ] final  -95.96 input   59.86 | X-H torsion
[ 10167 10162 10161 10158 ] final  -74.72 input  -65.29 | X-H torsion
[ 10718 10713 10712 10709 ] final -176.20 input   66.30 | X-H torsion
[ 10763 10752 10751 10750 ] final   87.54 input  -60.55 | X-H torsion
[ 11005 11000 10999 10996 ] final  164.10 input  -57.11 | X-H torsion

> <Gold.Protein.ActiveResidues>
 VAL166  LYS551  ARG553  GLY616  TRP617  ASP618  TYR619  PRO620  LYS621  CYS622 
 ASP623  PHE694  ASN695  SER759  ASP760  ASP761  ALA762  ILE779  LEU786  VAL792 
 PHE793  MET794  SER795  GLU796  ALA797  LYS798  CYS799  TRP800  GLU811  SER814 

> <Gold.Protein.RotatedAtoms>
  150.7894  133.8818  159.3287 H   0  0  0  0  0  0  0  0  0  0  0  0  # atno 6907 bound_to 6896
  151.6660  135.0981  160.0198 H   0  0  0  0  0  0  0  0  0  0  0  0  # atno 6908 bound_to 6896
  152.3964  133.6715  159.6315 H   0  0  0  0  0  0  0  0  0  0  0  0  # atno 6909 bound_to 6896
  145.7360  140.8975  143.0555 H   0  0  0  0  0  0  0  0  0  0  0  0  # atno 7974 bound_to 7965
  154.7681  140.0475  157.1029 H   0  0  0  0  0  0  0  0  0  0  0  0  # atno 8008 bound_to 7997
  154.9854  140.3106  155.4909 H   0  0  0  0  0  0  0  0  0  0  0  0  # atno 8009 bound_to 7997
  156.2916  140.2228  156.4955 H   0  0  0  0  0  0  0  0  0  0  0  0  # atno 8010 bound_to 7997
  140.5003  143.2362  151.7763 H   0  0  0  0  0  0  0  0  0  0  0  0  # atno 10167 bound_to 10162
  156.8112  130.9587  151.3115 H   0  0  0  0  0  0  0  0  0  0  0  0  # atno 10718 bound_to 10713
  153.1678  135.4540  154.9861 H   0  0  0  0  0  0  0  0  0  0  0  0  # atno 10763 bound_to 10752
  154.7944  135.3232  154.7703 H   0  0  0  0  0  0  0  0  0  0  0  0  # atno 10764 bound_to 10752
  153.8184  135.6949  153.4885 H   0  0  0  0  0  0  0  0  0  0  0  0  # atno 10765 bound_to 10752
  140.2425  134.8040  157.3424 H   0  0  0  0  0  0  0  0  0  0  0  0  # atno 11005 bound_to 11000
  144.6881  139.9396  143.7474 LP  0  0  0  0  0  0  0  0  0  0  0  0  # atno 17320 bound_to 7965
  146.0493  139.3495  143.0649 LP  0  0  0  0  0  0  0  0  0  0  0  0  # atno 17321 bound_to 7965
  139.4870  144.4531  151.9631 LP  0  0  0  0  0  0  0  0  0  0  0  0  # atno 17342 bound_to 10162
  140.3620  144.2962  150.5932 LP  0  0  0  0  0  0  0  0  0  0  0  0  # atno 17343 bound_to 10162
  157.6505  130.8880  149.9623 LP  0  0  0  0  0  0  0  0  0  0  0  0  # atno 17370 bound_to 10713
  156.1043  130.3653  150.0161 LP  0  0  0  0  0  0  0  0  0  0  0  0  # atno 17371 bound_to 10713
  140.1639  134.4694  155.7876 LP  0  0  0  0  0  0  0  0  0  0  0  0  # atno 17394 bound_to 11000
  141.2209  133.6913  156.7591 LP  0  0  0  0  0  0  0  0  0  0  0  0  # atno 17395 bound_to 11000

$$$$
