AV-unprocessed.smi:45|AV-procd|sdf|417|dock5
  -GOLD-   2262016293D 1   1.00000     0.00000
 Structure written by MMmdl.
 60 63  0  0  0  0  0  0  0  0  3 V2000
  152.1689  143.7489  158.9993 C   0  0  0  0  0  0  0  0  0  0  0  0
  152.2411  142.3467  159.2103 O   0  0  0  0  0  0  0  0  0  0  0  0
  151.7630  141.5130  158.2205 C   0  0  0  0  0  0  0  0  0  0  0  0
  151.0885  141.9715  157.0605 C   0  0  0  0  0  0  0  0  0  0  0  0
  150.6193  141.0579  156.0975 C   0  0  0  0  0  0  0  0  0  0  0  0
  150.8123  139.6734  156.2762 C   0  0  0  0  0  0  0  0  0  0  0  0
  150.2827  138.6835  155.2567 C   0  0  0  0  0  0  0  0  0  0  0  0
  148.8296  138.6690  155.1971 N   0  0  0  0  0  0  0  0  0  0  0  0
  148.1728  137.4925  155.5857 C   0  0  0  0  0  0  0  0  0  0  0  0
  148.0917  136.4714  154.6924 N   0  3  0  0  0  0  0  0  0  0  0  0
  147.5019  135.3120  155.0307 C   0  0  0  0  0  0  0  0  0  0  0  0
  147.4370  134.2968  154.0777 N   0  0  0  0  0  0  0  0  0  0  0  0
  148.5236  133.3383  153.9093 C   0  0  0  0  0  0  0  0  0  0  0  0
  148.5303  132.9680  152.4273 C   0  0  0  0  0  0  0  0  0  0  0  0
  147.0706  133.1386  152.0275 C   0  0  0  0  0  0  0  0  0  0  0  0
  146.6016  134.3302  152.8758 C   0  0  1  0  0  0  0  0  0  0  0  0
  145.0902  134.2780  153.1838 C   0  0  0  0  0  0  0  0  0  0  0  0
  144.8339  133.3345  154.2023 O   0  0  0  0  0  0  0  0  0  0  0  0
  146.9701  135.1105  156.2444 N   0  0  0  0  0  0  0  0  0  0  0  0
  147.0297  136.0926  157.1651 C   0  0  0  0  0  0  0  0  0  0  0  0
  147.6293  137.3333  156.8827 C   0  0  0  0  0  0  0  0  0  0  0  0
  147.6937  138.4207  157.9164 C   0  0  0  0  0  0  0  0  0  0  0  0
  147.8069  139.5892  157.5308 O   0  0  0  0  0  0  0  0  0  0  0  0
  147.6731  137.9092  159.1771 N   0  5  0  0  0  0  0  0  0  0  0  0
  148.5692  136.8423  159.6285 C   0  0  0  0  0  0  0  0  0  0  0  0
  147.9855  136.0549  160.8001 C   0  0  0  0  0  0  0  0  0  0  0  0
  147.6204  136.7576  161.8804 N   0  0  0  0  0  0  0  0  0  0  0  0
  147.0729  136.0687  162.9053 C   0  0  0  0  0  0  0  0  0  0  0  0
  146.8918  134.6726  162.8474 C   0  0  0  0  0  0  0  0  0  0  0  0
  147.3094  134.0385  161.6606 C   0  0  0  0  0  0  0  0  0  0  0  0
  147.8576  134.7317  160.6391 N   0  0  0  0  0  0  0  0  0  0  0  0
  151.4860  139.2115  157.4234 C   0  0  0  0  0  0  0  0  0  0  0  0
  151.9570  140.1236  158.3878 C   0  0  0  0  0  0  0  0  0  0  0  0
  152.7625  139.5207  159.7916 Cl  0  0  0  0  0  0  0  0  0  0  0  0
  146.8352  135.2545  152.3452 H   0  0  0  0  0  0  0  0  0  0  0  0
  152.5668  144.2645  159.8733 H   0  0  0  0  0  0  0  0  0  0  0  0
  151.1377  144.0786  158.8633 H   0  0  0  0  0  0  0  0  0  0  0  0
  152.7639  144.0539  158.1374 H   0  0  0  0  0  0  0  0  0  0  0  0
  150.9142  143.0222  156.8862 H   0  0  0  0  0  0  0  0  0  0  0  0
  150.1021  141.4246  155.2228 H   0  0  0  0  0  0  0  0  0  0  0  0
  150.6765  138.9447  154.2740 H   0  0  0  0  0  0  0  0  0  0  0  0
  150.6560  137.6869  155.4979 H   0  0  0  0  0  0  0  0  0  0  0  0
  148.3839  139.5258  155.4957 H   0  0  0  0  0  0  0  0  0  0  0  0
  149.4886  133.7460  154.2132 H   0  0  0  0  0  0  0  0  0  0  0  0
  148.3148  132.4628  154.5251 H   0  0  0  0  0  0  0  0  0  0  0  0
  149.1499  133.6732  151.8715 H   0  0  0  0  0  0  0  0  0  0  0  0
  148.9111  131.9632  152.2419 H   0  0  0  0  0  0  0  0  0  0  0  0
  146.9400  133.3042  150.9577 H   0  0  0  0  0  0  0  0  0  0  0  0
  146.5171  132.2372  152.2953 H   0  0  0  0  0  0  0  0  0  0  0  0
  144.7242  135.2556  153.5000 H   0  0  0  0  0  0  0  0  0  0  0  0
  144.5081  133.9890  152.3099 H   0  0  0  0  0  0  0  0  0  0  0  0
  143.9949  132.9315  154.0369 H   0  0  0  0  0  0  0  0  0  0  0  0
  146.5906  135.8835  158.1298 H   0  0  0  0  0  0  0  0  0  0  0  0
  148.8155  136.1522  158.8194 H   0  0  0  0  0  0  0  0  0  0  0  0
  149.5291  137.2505  159.9471 H   0  0  0  0  0  0  0  0  0  0  0  0
  146.7741  136.6346  163.7752 H   0  0  0  0  0  0  0  0  0  0  0  0
  146.4516  134.1208  163.6646 H   0  0  0  0  0  0  0  0  0  0  0  0
  147.2026  132.9720  161.5305 H   0  0  0  0  0  0  0  0  0  0  0  0
  151.6348  138.1523  157.5745 H   0  0  0  0  0  0  0  0  0  0  0  0
  148.4901  136.5960  153.7624 H   0  0  0  0  0  0  0  0  0  0  0  0
  1  2  1  0  0  0  0
  1 36  1  0  0  0  0
  1 37  1  0  0  0  0
  1 38  1  0  0  0  0
  2  3  1  0  0  0  0
  3 33  1  0  0  0  0
  3  4  2  0  0  0  0
  4  5  1  0  0  0  0
  4 39  1  0  0  0  0
  5  6  2  0  0  0  0
  5 40  1  0  0  0  0
  6  7  1  0  0  0  0
  6 32  1  0  0  0  0
  7  8  1  0  0  0  0
  7 41  1  0  0  0  0
  7 42  1  0  0  0  0
  8  9  1  0  0  0  0
  8 43  1  0  0  0  0
  9 21  1  0  0  0  0
  9 10  2  0  0  0  0
 10 11  1  0  0  0  0
 10 60  1  0  0  0  0
 11 12  1  0  0  0  0
 11 19  2  0  0  0  0
 12 16  1  0  0  0  0
 12 13  1  0  0  0  0
 13 14  1  0  0  0  0
 13 44  1  0  0  0  0
 13 45  1  0  0  0  0
 14 15  1  0  0  0  0
 14 46  1  0  0  0  0
 14 47  1  0  0  0  0
 15 16  1  0  0  0  0
 15 48  1  0  0  0  0
 15 49  1  0  0  0  0
 16 35  1  0  0  0  0
 16 17  1  0  0  0  0
 17 18  1  0  0  0  0
 17 50  1  0  0  0  0
 17 51  1  0  0  0  0
 18 52  1  0  0  0  0
 19 20  1  0  0  0  0
 20 21  2  0  0  0  0
 20 53  1  0  0  0  0
 21 22  1  0  0  0  0
 22 23  2  0  0  0  0
 22 24  1  0  0  0  0
 24 25  1  0  0  0  0
 25 26  1  0  0  0  0
 25 54  1  0  0  0  0
 25 55  1  0  0  0  0
 26 31  1  0  0  0  0
 26 27  2  0  0  0  0
 27 28  1  0  0  0  0
 28 29  2  0  0  0  0
 28 56  1  0  0  0  0
 29 30  1  0  0  0  0
 29 57  1  0  0  0  0
 30 31  2  0  0  0  0
 30 58  1  0  0  0  0
 32 33  2  0  0  0  0
 32 59  1  0  0  0  0
 33 34  1  0  0  0  0
M  CHG  1  10   1
M  CHG  1  24  -1
M  END
> <s_m_source_file>
AV-unprocessed.smi

> <i_m_source_file_index>
45

> <i_lp_mmshare_version>
43012

> <i_f3d_flags>
0

> <s_epik_input>
W0NIM11PYzFbY0hdW2NIXWMoW2NIXWMxQ2wpW0NIMl1bTkhdYzJuYyhOM1tDSDJdW0NIMl1bQ0gyXVtDQEhdM1tDSDJdW09IXSluW2NIXWMyQyg9TylbTkhdW0NIMl1jNG5bY0hdW2NIXVtjSF1uNA==

> <s_epik_cmdline>
J2VwaWtfcHl0aG9uJywgJy1waCcsICc3LjAnLCAnLXRuJywgJzgnLCAnLW1hJywgJzIwMCcsICctbWV0YWxfYmluZGluZycsICctaW1hZScsICc8aW5maWxlLm1hZT4nLCAnLW9tYWUnLCAnPG91dGZpbGUubWFlPic=

> <r_lp_tautomer_probability>
0.424989

> <r_epik_Ionization_Penalty>
7.51351

> <r_epik_Ionization_Penalty_Charging>
7.51312

> <r_epik_Ionization_Penalty_Neutral>
0.00038389

> <r_epik_State_Penalty>
8.64696

> <r_epik_Charging_Adjusted_Penalty>
16.1601

> <i_epik_Tot_Q>
0

> <i_epik_Tot_abs_Q>
2

> <r_epik_Metal_State_Penalty>
4.61083

> <b_epik_Metal_Only>
1

> <s_epik_Chemistry_Notes>
This compound contains an electron-poor aromatic ring that is susceptible to covalent hydrolysis at low pH, typically resulting in measured values for nitrogen ring protonation that are around two units higher than predicted values.

> <s_lp_Force_Field>
OPLS_2005

> <r_lp_Energy>
39.4565

> <b_lp_Chiralities_Consistent>
1

> <s_lp_Variant>
AV-unprocessed.smi:45-11

> <Gold.Version>
5.8.1

> <Gold.Id.Protein>
6NUR|6NUR_protein|mol2

> <Gold.PLP.Fitness>
61.3636

> <Gold.PLP.PLP>
-52.7811

> <Gold.PLP.part.hbond>
-5.0000

> <Gold.PLP.part.metal>
0.0000

> <Gold.PLP.part.buried>
-3.5121

> <Gold.PLP.part.nonpolar>
-42.9963

> <Gold.PLP.part.repulsive>
0.0154

> <Gold.PLP.ligand.clash>
0.0000

> <Gold.PLP.ligand.torsion>
3.2352

> <Gold.PLP.Chemscore.Hbond>
4.6864

> <Gold.PLP.Chemscore.CHOScore>
0.0000

> <Gold.PLP.Chemscore.Metal>
0.0000

> <Gold.Chemscore.Hbonds>
donor molecule, donor type, donor heavy atom, donor atom, acceptor molecule, acceptor atom, score
      L1  H    10    60       P1  7948  2.00
      L1  H    18    52       P1 10957  0.86
      P1  H  6931  6943       L1    27  0.94
      P1  H  6934  6947       L1    24  0.75

> <Gold.PLP.Chemscore.Internal.Correction>
0.9936

> <Gold.Rescore>
     Score         DG    S(hbond)    S(metal)    S(lipo)     H(rot)  DE(clash)    DE(int)     intcor
     15.60     -21.60       3.12        0.00     117.79       3.16       0.22       5.79       ----

> <Gold.Chemscore.Fitness>
15.5972

> <Gold.Chemscore.DG>
-21.6042

> <Gold.Chemscore.ZeroCoef>
-5.4800

> <Gold.Chemscore.Hbond>
3.1211

> <Gold.Chemscore.Metal>
0.0000

> <Gold.Chemscore.Lipo>
117.7921

> <Gold.Chemscore.Internal_Hbond>
0.0000

> <Gold.Chemscore.DEClash>
0.2210

> <Gold.Chemscore.DEInternal>
5.7860

> <Gold.Chemscore.Rot>
3.1571

> <Gold.Chemscore.Internal.Correction>
   9.000000E+99

> <Gold.Chemscore.Hbonds>
donor molecule, donor type, donor heavy atom, donor atom, acceptor molecule, acceptor atom, score
      L1  H    10    60       P1  7948  0.97
      L1  H    18    52       P1 10957  0.84
      P1  H  6931  6943       L1    27  0.31
      P1  H  6934  6947       L1    24  0.22

> <Gold.Chemscore.Hbond.Weighted>
-10.4246

> <Gold.Chemscore.Metal.Weighted>
-0.0000

> <Gold.Chemscore.Lipo.Weighted>
-13.7817

> <Gold.Chemscore.Internal_Hbond.Weighted>
0.0000

> <Gold.Chemscore.DEClash.Weighted>
0.2210

> <Gold.Chemscore.DEInternal.Weighted>
5.7860

> <Gold.Chemscore.Rot.Weighted>
8.0822

> <Gold.Chemscore.Internal.Correction.Weighted>
   9.000000E+99

> <Gold.Protein.RotatedTorsions>
[ 6907 6896 6895 6894 ] final   69.52 input  -60.11 | X-H torsion
[ 7974 7965 7964 7962 ] final  -43.32 input  175.53 | X-H torsion
[ 8008 7997 7996 7995 ] final -164.53 input   59.86 | X-H torsion
[ 10167 10162 10161 10158 ] final  116.52 input  -65.29 | X-H torsion
[ 10718 10713 10712 10709 ] final  101.72 input   66.30 | X-H torsion
[ 10763 10752 10751 10750 ] final -108.65 input  -60.55 | X-H torsion
[ 11005 11000 10999 10996 ] final   47.07 input  -57.11 | X-H torsion

> <Gold.Protein.ActiveResidues>
 VAL166  LYS551  ARG553  GLY616  TRP617  ASP618  TYR619  PRO620  LYS621  CYS622 
 ASP623  PHE694  ASN695  SER759  ASP760  ASP761  ALA762  ILE779  LEU786  VAL792 
 PHE793  MET794  SER795  GLU796  ALA797  LYS798  CYS799  TRP800  GLU811  SER814 

> <Gold.Protein.RotatedAtoms>
  152.4691  134.5004  159.9722 H   0  0  0  0  0  0  0  0  0  0  0  0  # atno 6907 bound_to 6896
  151.5035  133.3493  159.2881 H   0  0  0  0  0  0  0  0  0  0  0  0  # atno 6908 bound_to 6896
  150.8691  134.8089  159.7203 H   0  0  0  0  0  0  0  0  0  0  0  0  # atno 6909 bound_to 6896
  146.0030  140.7052  142.9261 H   0  0  0  0  0  0  0  0  0  0  0  0  # atno 7974 bound_to 7965
  155.8369  140.0942  157.1759 H   0  0  0  0  0  0  0  0  0  0  0  0  # atno 8008 bound_to 7997
  154.3981  140.1408  156.3742 H   0  0  0  0  0  0  0  0  0  0  0  0  # atno 8009 bound_to 7997
  155.8106  140.3450  155.5458 H   0  0  0  0  0  0  0  0  0  0  0  0  # atno 8010 bound_to 7997
  139.6242  144.7106  151.2570 H   0  0  0  0  0  0  0  0  0  0  0  0  # atno 10167 bound_to 10162
  157.6822  131.0733  150.5294 H   0  0  0  0  0  0  0  0  0  0  0  0  # atno 10718 bound_to 10713
  154.8148  135.4630  154.0613 H   0  0  0  0  0  0  0  0  0  0  0  0  # atno 10763 bound_to 10752
  153.2015  135.6869  153.8232 H   0  0  0  0  0  0  0  0  0  0  0  0  # atno 10764 bound_to 10752
  153.7715  135.3269  155.3329 H   0  0  0  0  0  0  0  0  0  0  0  0  # atno 10765 bound_to 10752
  140.1312  134.4703  155.8520 H   0  0  0  0  0  0  0  0  0  0  0  0  # atno 11005 bound_to 11000
  144.6926  140.3267  143.7223 LP  0  0  0  0  0  0  0  0  0  0  0  0  # atno 17320 bound_to 7965
  145.7458  139.1778  143.2350 LP  0  0  0  0  0  0  0  0  0  0  0  0  # atno 17321 bound_to 7965
  140.7400  143.6600  150.8173 LP  0  0  0  0  0  0  0  0  0  0  0  0  # atno 17342 bound_to 10162
  140.0215  143.5538  152.2798 LP  0  0  0  0  0  0  0  0  0  0  0  0  # atno 17343 bound_to 10162
  156.5605  130.4254  149.6065 LP  0  0  0  0  0  0  0  0  0  0  0  0  # atno 17370 bound_to 10713
  156.2825  130.7079  151.1907 LP  0  0  0  0  0  0  0  0  0  0  0  0  # atno 17371 bound_to 10713
  141.2170  133.6796  156.7072 LP  0  0  0  0  0  0  0  0  0  0  0  0  # atno 17394 bound_to 11000
  140.2840  134.8294  157.3958 LP  0  0  0  0  0  0  0  0  0  0  0  0  # atno 17395 bound_to 11000

$$$$
