AV-unprocessed.smi:880|AV-procd|sdf|4034|dock8
  -GOLD-   22720 1523D 1   1.00000     0.00000
 Structure written by MMmdl.
 32 33  0  0  0  0  0  0  0  0  1 V2000
  150.8503  144.7839  160.1203 C   0  0  0  0  0  0  0  0  0  0  0  0
  152.2603  144.4230  159.6268 C   0  0  0  0  0  0  0  0  0  0  0  0
  152.4676  144.8534  158.1673 C   0  0  0  0  0  0  0  0  0  0  0  0
  152.5612  142.9543  159.7975 C   0  0  0  0  0  0  0  0  0  0  0  0
  153.5393  142.3292  160.6259 C   0  0  0  0  0  0  0  0  0  0  0  0
  153.3566  140.9941  160.4081 C   0  0  0  0  0  0  0  0  0  0  0  0
  152.3255  140.8652  159.5030 N   0  0  0  0  0  0  0  0  0  0  0  0
  151.7416  139.6485  158.9662 C   0  0  0  0  0  0  0  0  0  0  0  0
  152.0362  139.5019  157.4718 C   0  0  0  0  0  0  0  0  0  0  0  0
  153.1854  139.2794  157.0914 O   0  0  0  0  0  0  0  0  0  0  0  0
  150.9907  139.6336  156.6415 N   0  0  0  0  0  0  0  0  0  0  0  0
  151.0366  139.5194  155.2205 C   0  0  0  0  0  0  0  0  0  0  0  0
  149.7500  139.7456  154.4567 C   0  0  0  0  0  0  0  0  0  0  0  0
  150.3054  138.3545  154.5885 C   0  0  0  0  0  0  0  0  0  0  0  0
  151.8385  142.0677  159.1280 N   0  0  0  0  0  0  0  0  0  0  0  0
  150.7185  144.5087  161.1671 H   0  0  0  0  0  0  0  0  0  0  0  0
  150.0794  144.2759  159.5400 H   0  0  0  0  0  0  0  0  0  0  0  0
  150.6708  145.8561  160.0381 H   0  0  0  0  0  0  0  0  0  0  0  0
  152.9639  144.9928  160.2357 H   0  0  0  0  0  0  0  0  0  0  0  0
  153.4895  144.6583  157.8402 H   0  0  0  0  0  0  0  0  0  0  0  0
  152.2804  145.9202  158.0412 H   0  0  0  0  0  0  0  0  0  0  0  0
  151.7961  144.3160  157.4970 H   0  0  0  0  0  0  0  0  0  0  0  0
  154.2613  142.7890  161.2843 H   0  0  0  0  0  0  0  0  0  0  0  0
  153.8638  140.1346  160.8213 H   0  0  0  0  0  0  0  0  0  0  0  0
  152.1317  138.7854  159.5082 H   0  0  0  0  0  0  0  0  0  0  0  0
  150.6642  139.6740  159.1348 H   0  0  0  0  0  0  0  0  0  0  0  0
  150.0862  139.8133  157.0534 H   0  0  0  0  0  0  0  0  0  0  0  0
  151.9518  139.8359  154.7220 H   0  0  0  0  0  0  0  0  0  0  0  0
  148.8543  139.9848  155.0270 H   0  0  0  0  0  0  0  0  0  0  0  0
  149.8230  140.2255  153.4830 H   0  0  0  0  0  0  0  0  0  0  0  0
  150.7484  137.9048  153.7019 H   0  0  0  0  0  0  0  0  0  0  0  0
  149.7819  137.6644  155.2475 H   0  0  0  0  0  0  0  0  0  0  0  0
  1  2  1  0  0  0  0
  1 16  1  0  0  0  0
  1 17  1  0  0  0  0
  1 18  1  0  0  0  0
  2  3  1  0  0  0  0
  2  4  1  0  0  0  0
  2 19  1  0  0  0  0
  3 20  1  0  0  0  0
  3 21  1  0  0  0  0
  3 22  1  0  0  0  0
  4 15  2  0  0  0  0
  4  5  1  0  0  0  0
  5  6  2  0  0  0  0
  5 23  1  0  0  0  0
  6  7  1  0  0  0  0
  6 24  1  0  0  0  0
  7  8  1  0  0  0  0
  7 15  1  0  0  0  0
  8  9  1  0  0  0  0
  8 25  1  0  0  0  0
  8 26  1  0  0  0  0
  9 10  2  0  0  0  0
  9 11  1  0  0  0  0
 11 12  1  0  0  0  0
 11 27  1  0  0  0  0
 12 14  1  0  0  0  0
 12 13  1  0  0  0  0
 12 28  1  0  0  0  0
 13 14  1  0  0  0  0
 13 29  1  0  0  0  0
 13 30  1  0  0  0  0
 14 31  1  0  0  0  0
 14 32  1  0  0  0  0
M  END
> <s_m_source_file>
AV-unprocessed.smi

> <i_m_source_file_index>
880

> <i_lp_mmshare_version>
43012

> <i_f3d_flags>
0

> <s_epik_input>
W0NIM11bQ0hdKFtDSDNdKWMxW2NIXVtjSF1uKG4xKVtDSDJdQyg9TylbTkhdW0NIXTJbQ0gyXVtDSDJdMg==

> <s_epik_cmdline>
J2VwaWtfcHl0aG9uJywgJy1waCcsICc3LjAnLCAnLXRuJywgJzgnLCAnLW1hJywgJzIwMCcsICctbWV0YWxfYmluZGluZycsICctaW1hZScsICc8aW5maWxlLm1hZT4nLCAnLW9tYWUnLCAnPG91dGZpbGUubWFlPic=

> <r_lp_tautomer_probability>
1

> <r_epik_Ionization_Penalty>
5.52855e-05

> <r_epik_Ionization_Penalty_Charging>
0

> <r_epik_Ionization_Penalty_Neutral>
5.52855e-05

> <r_epik_State_Penalty>
-0

> <r_epik_Charging_Adjusted_Penalty>
0

> <i_epik_Tot_Q>
0

> <i_epik_Tot_abs_Q>
0

> <r_epik_Metal_State_Penalty>
-0

> <b_epik_Metal_Only>
0

> <s_lp_Force_Field>
OPLS_2005

> <r_lp_Energy>
12.9381

> <b_lp_Chiralities_Consistent>
1

> <s_lp_Variant>
AV-unprocessed.smi:880-1

> <Gold.Version>
5.8.1

> <Gold.Id.Protein>
6NUR|6NUR_protein|mol2

> <Gold.PLP.Fitness>
41.1811

> <Gold.PLP.PLP>
-38.4670

> <Gold.PLP.part.hbond>
-0.9649

> <Gold.PLP.part.metal>
0.0000

> <Gold.PLP.part.buried>
-3.7343

> <Gold.PLP.part.nonpolar>
-33.6322

> <Gold.PLP.part.repulsive>
0.0652

> <Gold.PLP.ligand.clash>
0.0000

> <Gold.PLP.ligand.torsion>
0.1748

> <Gold.PLP.Chemscore.Hbond>
1.0000

> <Gold.PLP.Chemscore.CHOScore>
0.0000

> <Gold.PLP.Chemscore.Metal>
0.0000

> <Gold.Chemscore.Hbonds>
donor molecule, donor type, donor heavy atom, donor atom, acceptor molecule, acceptor atom, score
      P1  H  7997  8008       L1    10  0.98

> <Gold.PLP.Chemscore.Internal.Correction>
0.0636

> <Gold.Rescore>
     Score         DG    S(hbond)    S(metal)    S(lipo)     H(rot)  DE(clash)    DE(int)     intcor
     16.43     -16.68       1.00        0.00     100.05       1.50       0.07       0.17       ----

> <Gold.Chemscore.Fitness>
16.4345

> <Gold.Chemscore.DG>
-16.6788

> <Gold.Chemscore.ZeroCoef>
-5.4800

> <Gold.Chemscore.Hbond>
0.9999

> <Gold.Chemscore.Metal>
0.0000

> <Gold.Chemscore.Lipo>
100.0490

> <Gold.Chemscore.Internal_Hbond>
0.0000

> <Gold.Chemscore.DEClash>
0.0720

> <Gold.Chemscore.DEInternal>
0.1722

> <Gold.Chemscore.Rot>
1.5026

> <Gold.Chemscore.Internal.Correction>
   9.000000E+99

> <Gold.Chemscore.Hbonds>
donor molecule, donor type, donor heavy atom, donor atom, acceptor molecule, acceptor atom, score
      P1  H  7997  8008       L1    10  0.92

> <Gold.Chemscore.Hbond.Weighted>
-3.3398

> <Gold.Chemscore.Metal.Weighted>
-0.0000

> <Gold.Chemscore.Lipo.Weighted>
-11.7057

> <Gold.Chemscore.Internal_Hbond.Weighted>
0.0000

> <Gold.Chemscore.DEClash.Weighted>
0.0720

> <Gold.Chemscore.DEInternal.Weighted>
0.1722

> <Gold.Chemscore.Rot.Weighted>
3.8468

> <Gold.Chemscore.Internal.Correction.Weighted>
   9.000000E+99

> <Gold.Protein.RotatedTorsions>
[ 6907 6896 6895 6894 ] final  153.95 input  -60.11 | X-H torsion
[ 7974 7965 7964 7962 ] final   93.19 input  175.53 | X-H torsion
[ 8008 7997 7996 7995 ] final  -75.88 input   59.86 | X-H torsion
[ 10167 10162 10161 10158 ] final  138.39 input  -65.29 | X-H torsion
[ 10718 10713 10712 10709 ] final   84.30 input   66.30 | X-H torsion
[ 10763 10752 10751 10750 ] final  125.72 input  -60.55 | X-H torsion
[ 11005 11000 10999 10996 ] final   58.08 input  -57.11 | X-H torsion

> <Gold.Protein.ActiveResidues>
 VAL166  LYS551  ARG553  GLY616  TRP617  ASP618  TYR619  PRO620  LYS621  CYS622 
 ASP623  PHE694  ASN695  SER759  ASP760  ASP761  ALA762  ILE779  LEU786  VAL792 
 PHE793  MET794  SER795  GLU796  ALA797  LYS798  CYS799  TRP800  GLU811  SER814 

> <Gold.Protein.RotatedAtoms>
  152.0654  133.4082  159.4435 H   0  0  0  0  0  0  0  0  0  0  0  0  # atno 6907 bound_to 6896
  150.6865  134.3152  159.4772 H   0  0  0  0  0  0  0  0  0  0  0  0  # atno 6908 bound_to 6896
  152.0978  134.9362  160.0621 H   0  0  0  0  0  0  0  0  0  0  0  0  # atno 6909 bound_to 6896
  145.4822  139.2278  143.2876 H   0  0  0  0  0  0  0  0  0  0  0  0  # atno 7974 bound_to 7965
  154.5456  140.0736  156.8583 H   0  0  0  0  0  0  0  0  0  0  0  0  # atno 8008 bound_to 7997
  155.3094  140.3389  155.4226 H   0  0  0  0  0  0  0  0  0  0  0  0  # atno 8009 bound_to 7997
  156.1915  140.1688  156.8069 H   0  0  0  0  0  0  0  0  0  0  0  0  # atno 8010 bound_to 7997
  139.5112  144.6356  151.5705 H   0  0  0  0  0  0  0  0  0  0  0  0  # atno 10167 bound_to 10162
  157.6895  131.0127  150.2651 H   0  0  0  0  0  0  0  0  0  0  0  0  # atno 10718 bound_to 10713
  153.6819  135.3313  155.3180 H   0  0  0  0  0  0  0  0  0  0  0  0  # atno 10763 bound_to 10752
  154.8463  135.4411  154.1598 H   0  0  0  0  0  0  0  0  0  0  0  0  # atno 10764 bound_to 10752
  153.2616  135.6991  153.7649 H   0  0  0  0  0  0  0  0  0  0  0  0  # atno 10765 bound_to 10752
  140.0404  134.5881  155.9389 H   0  0  0  0  0  0  0  0  0  0  0  0  # atno 11005 bound_to 11000
  146.2334  140.5609  142.8965 LP  0  0  0  0  0  0  0  0  0  0  0  0  # atno 17320 bound_to 7965
  144.7882  140.5979  143.6559 LP  0  0  0  0  0  0  0  0  0  0  0  0  # atno 17321 bound_to 7965
  140.6104  143.9447  150.6449 LP  0  0  0  0  0  0  0  0  0  0  0  0  # atno 17342 bound_to 10162
  140.2688  143.3471  152.1257 LP  0  0  0  0  0  0  0  0  0  0  0  0  # atno 17343 bound_to 10162
  156.3224  130.3788  149.7563 LP  0  0  0  0  0  0  0  0  0  0  0  0  # atno 17370 bound_to 10713
  156.5129  130.8180  151.3175 LP  0  0  0  0  0  0  0  0  0  0  0  0  # atno 17371 bound_to 10713
  141.1880  133.6561  156.5306 LP  0  0  0  0  0  0  0  0  0  0  0  0  # atno 17394 bound_to 11000
  140.4078  134.7299  157.4818 LP  0  0  0  0  0  0  0  0  0  0  0  0  # atno 17395 bound_to 11000

$$$$
