AV-unprocessed.smi:34|AV-procd|sdf|244|dock9
  -GOLD-   2262016 03D 1   1.00000     0.00000
 Structure written by MMmdl.
 54 58  0  0  0  0  0  0  0  0  2 V2000
  153.4465  140.2575  158.7466 O   0  0  0  0  0  0  0  0  0  0  0  0
  153.5218  140.8066  159.8479 C   0  0  0  0  0  0  0  0  0  0  0  0
  153.9653  140.2728  161.0145 N   0  5  0  0  0  0  0  0  0  0  0  0
  154.4284  139.0136  161.0431 C   0  0  0  0  0  0  0  0  0  0  0  0
  154.0447  138.1684  162.0340 N   0  0  0  0  0  0  0  0  0  0  0  0
  154.5064  136.9127  162.0698 C   0  0  0  0  0  0  0  0  0  0  0  0
  155.3490  136.3023  161.2305 N   0  0  0  0  0  0  0  0  0  0  0  0
  155.7462  137.1453  160.2335 C   0  0  0  0  0  0  0  0  0  0  0  0
  155.3396  138.5015  160.0778 C   0  0  0  0  0  0  0  0  0  0  0  0
  155.9378  139.0658  158.9603 N   0  0  0  0  0  0  0  0  0  0  0  0
  156.6544  138.0453  158.4927 C   0  0  0  0  0  0  0  0  0  0  0  0
  156.6019  136.8843  159.1788 N   0  0  0  0  0  0  0  0  0  0  0  0
  157.2730  135.5782  158.8998 C   0  0  1  0  0  0  0  0  0  0  0  0
  156.8011  135.0921  157.6734 O   0  0  0  0  0  0  0  0  0  0  0  0
  157.8532  135.0279  156.7118 C   0  0  1  0  0  0  0  0  0  0  0  0
  157.8290  136.2711  155.8086 C   0  0  0  0  0  0  0  0  0  0  0  0
  158.5077  135.9762  154.5985 O   0  0  0  0  0  0  0  0  0  0  0  0
  158.1864  134.8755  153.8919 C   0  0  0  0  0  0  0  0  0  0  0  0
  157.1762  134.2011  154.1016 O   0  0  0  0  0  0  0  0  0  0  0  0
  159.1828  134.5591  152.8281 C   0  0  0  0  0  0  0  0  0  0  0  0
  159.0747  133.3412  152.1167 C   0  0  0  0  0  0  0  0  0  0  0  0
  160.0025  133.0144  151.1086 C   0  0  0  0  0  0  0  0  0  0  0  0
  161.0507  133.9009  150.8001 C   0  0  0  0  0  0  0  0  0  0  0  0
  161.1695  135.1152  151.5008 C   0  0  0  0  0  0  0  0  0  0  0  0
  160.2421  135.4443  152.5086 C   0  0  0  0  0  0  0  0  0  0  0  0
  159.1149  134.9058  157.5635 C   0  0  2  0  0  0  0  0  0  0  0  0
  159.2339  133.6249  157.9237 F   0  0  0  0  0  0  0  0  0  0  0  0
  158.7879  135.7844  158.7606 C   0  0  2  0  0  0  0  0  0  0  0  0
  159.5231  135.3781  159.8971 O   0  0  0  0  0  0  0  0  0  0  0  0
  153.0179  142.2187  159.9899 C   0  0  0  0  0  0  0  0  0  0  0  0
  153.0603  143.0920  158.8787 C   0  0  0  0  0  0  0  0  0  0  0  0
  152.6210  144.4251  158.9966 C   0  0  0  0  0  0  0  0  0  0  0  0
  152.1403  144.9024  160.2301 C   0  0  0  0  0  0  0  0  0  0  0  0
  152.1038  144.0468  161.3466 C   0  0  0  0  0  0  0  0  0  0  0  0
  152.5454  142.7143  161.2300 C   0  0  0  0  0  0  0  0  0  0  0  0
  154.1476  136.3092  162.8903 H   0  0  0  0  0  0  0  0  0  0  0  0
  157.2453  138.1527  157.5957 H   0  0  0  0  0  0  0  0  0  0  0  0
  156.9753  134.9176  159.7155 H   0  0  0  0  0  0  0  0  0  0  0  0
  157.7078  134.1409  156.0934 H   0  0  0  0  0  0  0  0  0  0  0  0
  156.7967  136.5362  155.5768 H   0  0  0  0  0  0  0  0  0  0  0  0
  158.2842  137.1285  156.3055 H   0  0  0  0  0  0  0  0  0  0  0  0
  158.2783  132.6446  152.3362 H   0  0  0  0  0  0  0  0  0  0  0  0
  159.9096  132.0817  150.5718 H   0  0  0  0  0  0  0  0  0  0  0  0
  161.7627  133.6499  150.0277 H   0  0  0  0  0  0  0  0  0  0  0  0
  161.9739  135.7965  151.2656 H   0  0  0  0  0  0  0  0  0  0  0  0
  160.3636  136.3840  153.0272 H   0  0  0  0  0  0  0  0  0  0  0  0
  160.0312  135.1915  157.0454 H   0  0  0  0  0  0  0  0  0  0  0  0
  159.0016  136.8291  158.5280 H   0  0  0  0  0  0  0  0  0  0  0  0
  160.3994  135.7261  159.8257 H   0  0  0  0  0  0  0  0  0  0  0  0
  153.4282  142.7428  157.9249 H   0  0  0  0  0  0  0  0  0  0  0  0
  152.6551  145.0817  158.1400 H   0  0  0  0  0  0  0  0  0  0  0  0
  151.8040  145.9245  160.3208 H   0  0  0  0  0  0  0  0  0  0  0  0
  151.7408  144.4128  162.2955 H   0  0  0  0  0  0  0  0  0  0  0  0
  152.5205  142.0792  162.1037 H   0  0  0  0  0  0  0  0  0  0  0  0
  1  2  2  0  0  0  0
  2  3  1  0  0  0  0
  2 30  1  0  0  0  0
  3  4  1  0  0  0  0
  4  9  1  0  0  0  0
  4  5  2  0  0  0  0
  5  6  1  0  0  0  0
  6  7  2  0  0  0  0
  6 36  1  0  0  0  0
  7  8  1  0  0  0  0
  8 12  1  0  0  0  0
  8  9  2  0  0  0  0
  9 10  1  0  0  0  0
 10 11  2  0  0  0  0
 11 12  1  0  0  0  0
 11 37  1  0  0  0  0
 12 13  1  0  0  0  0
 13 28  1  0  0  0  0
 13 14  1  0  0  0  0
 13 38  1  0  0  0  0
 14 15  1  0  0  0  0
 15 16  1  0  0  0  0
 15 26  1  0  0  0  0
 15 39  1  0  0  0  0
 16 17  1  0  0  0  0
 16 40  1  0  0  0  0
 16 41  1  0  0  0  0
 17 18  1  0  0  0  0
 18 19  2  0  0  0  0
 18 20  1  0  0  0  0
 20 25  1  0  0  0  0
 20 21  2  0  0  0  0
 21 22  1  0  0  0  0
 21 42  1  0  0  0  0
 22 23  2  0  0  0  0
 22 43  1  0  0  0  0
 23 24  1  0  0  0  0
 23 44  1  0  0  0  0
 24 25  2  0  0  0  0
 24 45  1  0  0  0  0
 25 46  1  0  0  0  0
 26 27  1  0  0  0  0
 26 28  1  0  0  0  0
 26 47  1  0  0  0  0
 28 29  1  0  0  0  0
 28 48  1  0  0  0  0
 29 49  1  0  0  0  0
 30 35  1  0  0  0  0
 30 31  2  0  0  0  0
 31 32  1  0  0  0  0
 31 50  1  0  0  0  0
 32 33  2  0  0  0  0
 32 51  1  0  0  0  0
 33 34  1  0  0  0  0
 33 52  1  0  0  0  0
 34 35  2  0  0  0  0
 34 53  1  0  0  0  0
 35 54  1  0  0  0  0
M  CHG  1   3  -1
M  END
> <s_m_source_file>
AV-unprocessed.smi

> <i_m_source_file_index>
34

> <i_lp_mmshare_version>
43012

> <i_f3d_flags>
0

> <s_epik_input>
W2NIXTFbY0hdW2NIXVtjSF1bY0hdYzFDKD1PKVtOSF1jKG5bY0hdbjIpYyhjMjMpbltjSF1uM1tDQEBIXTRPW0NASF0oW0NAQEhdKEYpW0NASF00W09IXSlbQ0gyXU9DKD1PKWM1W2NIXVtjSF1bY0hdW2NIXVtjSF01

> <s_epik_cmdline>
J2VwaWtfcHl0aG9uJywgJy1waCcsICc3LjAnLCAnLXRuJywgJzgnLCAnLW1hJywgJzIwMCcsICctbWV0YWxfYmluZGluZycsICctaW1hZScsICc8aW5maWxlLm1hZT4nLCAnLW9tYWUnLCAnPG91dGZpbGUubWFlPic=

> <r_lp_tautomer_probability>
1

> <r_epik_Ionization_Penalty>
4.33227

> <r_epik_Ionization_Penalty_Charging>
3.41027

> <r_epik_Ionization_Penalty_Neutral>
0.922001

> <r_epik_State_Penalty>
3.41358

> <r_epik_Charging_Adjusted_Penalty>
6.82385

> <i_epik_Tot_Q>
-1

> <i_epik_Tot_abs_Q>
1

> <r_epik_Metal_State_Penalty>
0.496292

> <b_epik_Metal_Only>
1

> <s_epik_Chemistry_Notes>
This compound has an ester and may undergo hydrolysis at high or low pH. This compound contains an acetal/aminal-like group ( X-CH(R)-Y where X, Y are N, S, or O) that may be acid/base labile, releasing an aldehyde.

> <s_lp_Force_Field>
OPLS_2005

> <r_lp_Energy>
49.0999

> <b_lp_Chiralities_Consistent>
1

> <s_lp_Variant>
AV-unprocessed.smi:34-30

> <Gold.Version>
5.8.1

> <Gold.Id.Protein>
6NUR|6NUR_protein|mol2

> <Gold.PLP.Fitness>
57.0248

> <Gold.PLP.PLP>
-56.0115

> <Gold.PLP.part.hbond>
-2.0000

> <Gold.PLP.part.metal>
0.0000

> <Gold.PLP.part.buried>
-5.5395

> <Gold.PLP.part.nonpolar>
-48.3429

> <Gold.PLP.part.repulsive>
0.1280

> <Gold.PLP.ligand.clash>
0.0000

> <Gold.PLP.ligand.torsion>
1.1792

> <Gold.PLP.Chemscore.Hbond>
1.0000

> <Gold.PLP.Chemscore.CHOScore>
0.0000

> <Gold.PLP.Chemscore.Metal>
0.0000

> <Gold.Chemscore.Hbonds>
donor molecule, donor type, donor heavy atom, donor atom, acceptor molecule, acceptor atom, score
      P1  H  7997  8010       L1    10  1.00

> <Gold.PLP.Chemscore.Internal.Correction>
0.3717

> <Gold.Rescore>
     Score         DG    S(hbond)    S(metal)    S(lipo)     H(rot)  DE(clash)    DE(int)     intcor
     13.57     -18.90       0.74        0.00     152.41       2.69       0.20       5.13       ----

> <Gold.Chemscore.Fitness>
13.5689

> <Gold.Chemscore.DG>
-18.8991

> <Gold.Chemscore.ZeroCoef>
-5.4800

> <Gold.Chemscore.Hbond>
0.7439

> <Gold.Chemscore.Metal>
0.0000

> <Gold.Chemscore.Lipo>
152.4106

> <Gold.Chemscore.Internal_Hbond>
0.0000

> <Gold.Chemscore.DEClash>
0.1989

> <Gold.Chemscore.DEInternal>
5.1313

> <Gold.Chemscore.Rot>
2.6944

> <Gold.Chemscore.Internal.Correction>
   9.000000E+99

> <Gold.Chemscore.Hbonds>
donor molecule, donor type, donor heavy atom, donor atom, acceptor molecule, acceptor atom, score
      P1  H  7997  8010       L1    10  0.35

> <Gold.Chemscore.Hbond.Weighted>
-2.4846

> <Gold.Chemscore.Metal.Weighted>
-0.0000

> <Gold.Chemscore.Lipo.Weighted>
-17.8320

> <Gold.Chemscore.Internal_Hbond.Weighted>
0.0000

> <Gold.Chemscore.DEClash.Weighted>
0.1989

> <Gold.Chemscore.DEInternal.Weighted>
5.1313

> <Gold.Chemscore.Rot.Weighted>
6.8975

> <Gold.Chemscore.Internal.Correction.Weighted>
   9.000000E+99

> <Gold.Protein.RotatedTorsions>
[ 6907 6896 6895 6894 ] final   81.87 input  -60.11 | X-H torsion
[ 7974 7965 7964 7962 ] final   92.67 input  175.53 | X-H torsion
[ 8008 7997 7996 7995 ] final  -20.48 input   59.86 | X-H torsion
[ 10167 10162 10161 10158 ] final -139.25 input  -65.29 | X-H torsion
[ 10718 10713 10712 10709 ] final  132.26 input   66.30 | X-H torsion
[ 10763 10752 10751 10750 ] final  -92.68 input  -60.55 | X-H torsion
[ 11005 11000 10999 10996 ] final  117.06 input  -57.11 | X-H torsion

> <Gold.Protein.ActiveResidues>
 VAL166  LYS551  ARG553  GLY616  TRP617  ASP618  TYR619  PRO620  LYS621  CYS622 
 ASP623  PHE694  ASN695  SER759  ASP760  ASP761  ALA762  ILE779  LEU786  VAL792 
 PHE793  MET794  SER795  GLU796  ALA797  LYS798  CYS799  TRP800  GLU811  SER814 

> <Gold.Protein.RotatedAtoms>
  152.5282  134.3137  159.9122 H   0  0  0  0  0  0  0  0  0  0  0  0  # atno 6907 bound_to 6896
  151.3087  133.4084  159.2653 H   0  0  0  0  0  0  0  0  0  0  0  0  # atno 6908 bound_to 6896
  151.0057  134.9374  159.8036 H   0  0  0  0  0  0  0  0  0  0  0  0  # atno 6909 bound_to 6896
  145.4892  139.2277  143.2839 H   0  0  0  0  0  0  0  0  0  0  0  0  # atno 7974 bound_to 7965
  154.4767  140.2060  155.9862 H   0  0  0  0  0  0  0  0  0  0  0  0  # atno 8008 bound_to 7997
  156.1100  140.3230  155.8029 H   0  0  0  0  0  0  0  0  0  0  0  0  # atno 8009 bound_to 7997
  155.4651  140.0527  157.2977 H   0  0  0  0  0  0  0  0  0  0  0  0  # atno 8010 bound_to 7997
  139.8398  143.7337  152.2663 H   0  0  0  0  0  0  0  0  0  0  0  0  # atno 10167 bound_to 10162
  157.4888  131.1089  150.9584 H   0  0  0  0  0  0  0  0  0  0  0  0  # atno 10718 bound_to 10713
  154.6885  135.5222  153.8360 H   0  0  0  0  0  0  0  0  0  0  0  0  # atno 10763 bound_to 10752
  153.0615  135.6570  154.0462 H   0  0  0  0  0  0  0  0  0  0  0  0  # atno 10764 bound_to 10752
  154.0339  135.2983  155.3344 H   0  0  0  0  0  0  0  0  0  0  0  0  # atno 10765 bound_to 10752
  139.9062  134.9605  156.7293 H   0  0  0  0  0  0  0  0  0  0  0  0  # atno 11005 bound_to 11000
  146.2294  140.5685  142.8982 LP  0  0  0  0  0  0  0  0  0  0  0  0  # atno 17320 bound_to 7965
  144.7843  140.5905  143.6584 LP  0  0  0  0  0  0  0  0  0  0  0  0  # atno 17321 bound_to 7965
  139.7571  144.7517  151.0420 LP  0  0  0  0  0  0  0  0  0  0  0  0  # atno 17342 bound_to 10162
  140.7799  143.4794  151.0039 LP  0  0  0  0  0  0  0  0  0  0  0  0  # atno 17343 bound_to 10162
  157.0293  130.5705  149.5341 LP  0  0  0  0  0  0  0  0  0  0  0  0  # atno 17370 bound_to 10713
  156.0162  130.5256  150.8140 LP  0  0  0  0  0  0  0  0  0  0  0  0  # atno 17371 bound_to 10713
  140.6938  133.9366  155.7982 LP  0  0  0  0  0  0  0  0  0  0  0  0  # atno 17394 bound_to 11000
  141.0422  134.0605  157.3888 LP  0  0  0  0  0  0  0  0  0  0  0  0  # atno 17395 bound_to 11000

$$$$
