AV-unprocessed.smi:275|AV-procd|sdf|2067|dock1
  -GOLD-   2262021323D 1   1.00000     0.00000
 Structure written by MMmdl.
 65 69  0  0  0  0  0  0  0  0  1 V2000
  144.8659  134.7959  156.9653 C   0  0  0  0  0  0  0  0  0  0  0  0
  145.3952  135.5917  155.7634 C   0  0  0  0  0  0  0  0  0  0  0  0
  144.5151  135.3106  154.5248 C   0  0  0  0  0  0  0  0  0  0  0  0
  146.9237  135.3902  155.5837 C   0  0  1  0  0  0  0  0  0  0  0  0
  147.6446  135.6203  156.8381 N   0  0  0  0  0  0  0  0  0  0  0  0
  148.7822  136.4922  156.7852 C   0  0  0  0  0  0  0  0  0  0  0  0
  149.8426  136.1365  156.0094 N   0  0  0  0  0  0  0  0  0  0  0  0
  150.9349  136.8989  155.9207 C   0  0  0  0  0  0  0  0  0  0  0  0
  151.1937  138.0529  156.5319 N   0  0  0  0  0  0  0  0  0  0  0  0
  150.1604  138.4158  157.3412 C   0  0  0  0  0  0  0  0  0  0  0  0
  148.9405  137.7014  157.5304 C   0  0  0  0  0  0  0  0  0  0  0  0
  148.1479  138.3838  158.4474 N   0  0  0  0  0  0  0  0  0  0  0  0
  148.8457  139.4378  158.7675 C   0  0  0  0  0  0  0  0  0  0  0  0
  150.0645  139.5408  158.1411 N   0  0  0  0  0  0  0  0  0  0  0  0
  151.0358  140.6081  158.3073 C   0  0  0  0  0  0  0  0  0  0  0  0
  150.5061  141.9907  157.8515 C   0  0  2  0  0  0  0  0  0  0  0  0
  149.9612  141.9757  156.4021 C   0  0  0  0  0  0  0  0  0  0  0  0
  148.7800  141.2070  156.3011 O   0  0  0  0  0  0  0  0  0  0  0  0
  151.5614  143.1039  158.0722 C   0  0  1  0  0  0  0  0  0  0  0  0
  151.0857  144.5102  157.7528 C   0  0  0  0  0  0  0  0  0  0  0  0
  152.1068  145.3703  158.4893 C   0  0  0  0  0  0  0  0  0  0  0  0
  152.4804  144.6220  159.6405 O   0  0  0  0  0  0  0  0  0  0  0  0
  152.0039  143.2847  159.5282 C   0  0  0  0  0  0  0  0  0  0  0  0
  147.9269  134.1957  157.0069 C   0  0  0  0  0  0  0  0  0  0  0  0
  147.6062  133.9969  155.5193 C   0  0  0  0  0  0  0  0  0  0  0  0
  148.8516  133.9077  154.6088 C   0  0  0  0  0  0  0  0  0  0  0  0
  148.5087  133.8819  153.1098 C   0  0  0  0  0  0  0  0  0  0  0  0
  147.5884  132.7026  152.7771 C   0  0  0  0  0  0  0  0  0  0  0  0
  146.3497  132.7033  153.6795 C   0  0  0  0  0  0  0  0  0  0  0  0
  146.7412  132.7690  155.1671 C   0  0  0  0  0  0  0  0  0  0  0  0
  144.9613  133.7223  156.8007 H   0  0  0  0  0  0  0  0  0  0  0  0
  143.8125  135.0101  157.1470 H   0  0  0  0  0  0  0  0  0  0  0  0
  145.4108  135.0464  157.8757 H   0  0  0  0  0  0  0  0  0  0  0  0
  145.2317  136.6380  156.0179 H   0  0  0  0  0  0  0  0  0  0  0  0
  144.5488  134.2595  154.2371 H   0  0  0  0  0  0  0  0  0  0  0  0
  144.8045  135.9000  153.6580 H   0  0  0  0  0  0  0  0  0  0  0  0
  143.4725  135.5515  154.7329 H   0  0  0  0  0  0  0  0  0  0  0  0
  147.3030  135.9895  154.7576 H   0  0  0  0  0  0  0  0  0  0  0  0
  151.7118  136.5305  155.2673 H   0  0  0  0  0  0  0  0  0  0  0  0
  148.4869  140.1760  159.4701 H   0  0  0  0  0  0  0  0  0  0  0  0
  151.3175  140.6326  159.3601 H   0  0  0  0  0  0  0  0  0  0  0  0
  151.9398  140.3493  157.7550 H   0  0  0  0  0  0  0  0  0  0  0  0
  149.6553  142.2260  158.4927 H   0  0  0  0  0  0  0  0  0  0  0  0
  149.7513  142.9860  156.0509 H   0  0  0  0  0  0  0  0  0  0  0  0
  150.7014  141.5694  155.7131 H   0  0  0  0  0  0  0  0  0  0  0  0
  148.2375  141.3883  157.0533 H   0  0  0  0  0  0  0  0  0  0  0  0
  152.4463  142.8942  157.4684 H   0  0  0  0  0  0  0  0  0  0  0  0
  151.0573  144.7242  156.6839 H   0  0  0  0  0  0  0  0  0  0  0  0
  150.0888  144.6792  158.1630 H   0  0  0  0  0  0  0  0  0  0  0  0
  152.9924  145.5220  157.8711 H   0  0  0  0  0  0  0  0  0  0  0  0
  151.7105  146.3490  158.7606 H   0  0  0  0  0  0  0  0  0  0  0  0
  151.1586  143.1667  160.2079 H   0  0  0  0  0  0  0  0  0  0  0  0
  152.7736  142.5705  159.8219 H   0  0  0  0  0  0  0  0  0  0  0  0
  148.9443  133.9148  157.2790 H   0  0  0  0  0  0  0  0  0  0  0  0
  147.2053  133.7205  157.6710 H   0  0  0  0  0  0  0  0  0  0  0  0
  149.5254  134.7448  154.7917 H   0  0  0  0  0  0  0  0  0  0  0  0
  149.4296  133.0164  154.8570 H   0  0  0  0  0  0  0  0  0  0  0  0
  148.0256  134.8171  152.8249 H   0  0  0  0  0  0  0  0  0  0  0  0
  149.4231  133.8153  152.5197 H   0  0  0  0  0  0  0  0  0  0  0  0
  147.2911  132.7400  151.7287 H   0  0  0  0  0  0  0  0  0  0  0  0
  148.1341  131.7678  152.9120 H   0  0  0  0  0  0  0  0  0  0  0  0
  145.7164  133.5516  153.4218 H   0  0  0  0  0  0  0  0  0  0  0  0
  145.7556  131.8087  153.4909 H   0  0  0  0  0  0  0  0  0  0  0  0
  147.2785  131.8564  155.4288 H   0  0  0  0  0  0  0  0  0  0  0  0
  145.8341  132.7396  155.7656 H   0  0  0  0  0  0  0  0  0  0  0  0
  1  2  1  0  0  0  0
  1 31  1  0  0  0  0
  1 32  1  0  0  0  0
  1 33  1  0  0  0  0
  2  3  1  0  0  0  0
  2  4  1  0  0  0  0
  2 34  1  0  0  0  0
  3 35  1  0  0  0  0
  3 36  1  0  0  0  0
  3 37  1  0  0  0  0
  4 25  1  0  0  0  0
  4  5  1  0  0  0  0
  4 38  1  0  0  0  0
  5  6  1  0  0  0  0
  5 24  1  0  0  0  0
  6 11  1  0  0  0  0
  6  7  2  0  0  0  0
  7  8  1  0  0  0  0
  8  9  2  0  0  0  0
  8 39  1  0  0  0  0
  9 10  1  0  0  0  0
 10 14  1  0  0  0  0
 10 11  2  0  0  0  0
 11 12  1  0  0  0  0
 12 13  2  0  0  0  0
 13 14  1  0  0  0  0
 13 40  1  0  0  0  0
 14 15  1  0  0  0  0
 15 16  1  0  0  0  0
 15 41  1  0  0  0  0
 15 42  1  0  0  0  0
 16 17  1  0  0  0  0
 16 19  1  0  0  0  0
 16 43  1  0  0  0  0
 17 18  1  0  0  0  0
 17 44  1  0  0  0  0
 17 45  1  0  0  0  0
 18 46  1  0  0  0  0
 19 23  1  0  0  0  0
 19 20  1  0  0  0  0
 19 47  1  0  0  0  0
 20 21  1  0  0  0  0
 20 48  1  0  0  0  0
 20 49  1  0  0  0  0
 21 22  1  0  0  0  0
 21 50  1  0  0  0  0
 21 51  1  0  0  0  0
 22 23  1  0  0  0  0
 23 52  1  0  0  0  0
 23 53  1  0  0  0  0
 24 25  1  0  0  0  0
 24 54  1  0  0  0  0
 24 55  1  0  0  0  0
 25 30  1  0  0  0  0
 25 26  1  0  0  0  0
 26 27  1  0  0  0  0
 26 56  1  0  0  0  0
 26 57  1  0  0  0  0
 27 28  1  0  0  0  0
 27 58  1  0  0  0  0
 27 59  1  0  0  0  0
 28 29  1  0  0  0  0
 28 60  1  0  0  0  0
 28 61  1  0  0  0  0
 29 30  1  0  0  0  0
 29 62  1  0  0  0  0
 29 63  1  0  0  0  0
 30 64  1  0  0  0  0
 30 65  1  0  0  0  0
M  END
> <s_m_source_file>
AV-unprocessed.smi

> <i_m_source_file_index>
275

> <i_lp_mmshare_version>
43012

> <i_f3d_flags>
0

> <s_epik_input>
W0NIMl0xW0NIMl1bQ0gyXVtDSDJdW0NIMl1DMTJbQ0BIXShbQ0hdKFtDSDNdKVtDSDNdKU4oW0NIMl0yKWMobltjSF1uMyljKGMzNCluW2NIXW40W0NIMl1bQ0BIXShbQ0gyXVtPSF0pW0NAQEhdNVtDSDJdW0NIMl1PW0NIMl01

> <s_epik_cmdline>
J2VwaWtfcHl0aG9uJywgJy1waCcsICc3LjAnLCAnLXRuJywgJzgnLCAnLW1hJywgJzIwMCcsICctbWV0YWxfYmluZGluZycsICctaW1hZScsICc8aW5maWxlLm1hZT4nLCAnLW9tYWUnLCAnPG91dGZpbGUubWFlPic=

> <r_lp_tautomer_probability>
1

> <r_epik_Ionization_Penalty>
0.00375122

> <r_epik_Ionization_Penalty_Charging>
0

> <r_epik_Ionization_Penalty_Neutral>
0.00375122

> <r_epik_State_Penalty>
0.00260593

> <r_epik_Charging_Adjusted_Penalty>
0.00260593

> <i_epik_Tot_Q>
0

> <i_epik_Tot_abs_Q>
0

> <r_epik_Metal_State_Penalty>
-0

> <b_epik_Metal_Only>
0

> <s_lp_Force_Field>
OPLS_2005

> <r_lp_Energy>
69.8585

> <b_lp_Chiralities_Consistent>
1

> <s_lp_Variant>
AV-unprocessed.smi:275-6

> <Gold.Version>
5.8.1

> <Gold.Id.Protein>
6NUR|6NUR_protein|mol2

> <Gold.PLP.Fitness>
47.0677

> <Gold.PLP.PLP>
-41.3051

> <Gold.PLP.part.hbond>
-2.5868

> <Gold.PLP.part.metal>
0.0000

> <Gold.PLP.part.buried>
-7.4330

> <Gold.PLP.part.nonpolar>
-32.4314

> <Gold.PLP.part.repulsive>
0.1666

> <Gold.PLP.ligand.clash>
0.0000

> <Gold.PLP.ligand.torsion>
0.3619

> <Gold.PLP.Chemscore.Hbond>
0.9890

> <Gold.PLP.Chemscore.CHOScore>
1.0136

> <Gold.PLP.Chemscore.Metal>
0.0000

> <Gold.PLP.Chemscore.Internal.Correction>
0.4786

> <Gold.Rescore>
     Score         DG    S(hbond)    S(metal)    S(lipo)     H(rot)  DE(clash)    DE(int)     intcor
     11.69     -13.76       0.90        0.00     100.49       2.54       0.02       2.04       ----

> <Gold.Chemscore.Fitness>
11.6933

> <Gold.Chemscore.DG>
-13.7568

> <Gold.Chemscore.ZeroCoef>
-5.4800

> <Gold.Chemscore.Hbond>
0.9029

> <Gold.Chemscore.Metal>
0.0000

> <Gold.Chemscore.Lipo>
100.4927

> <Gold.Chemscore.Internal_Hbond>
0.0000

> <Gold.Chemscore.DEClash>
0.0240

> <Gold.Chemscore.DEInternal>
2.0394

> <Gold.Chemscore.Rot>
2.5377

> <Gold.Chemscore.Internal.Correction>
   9.000000E+99

> <Gold.Chemscore.Hbond.Weighted>
-3.0157

> <Gold.Chemscore.Metal.Weighted>
-0.0000

> <Gold.Chemscore.Lipo.Weighted>
-11.7576

> <Gold.Chemscore.Internal_Hbond.Weighted>
0.0000

> <Gold.Chemscore.DEClash.Weighted>
0.0240

> <Gold.Chemscore.DEInternal.Weighted>
2.0394

> <Gold.Chemscore.Rot.Weighted>
6.4966

> <Gold.Chemscore.Internal.Correction.Weighted>
   9.000000E+99

> <Gold.Protein.RotatedTorsions>
[ 6907 6896 6895 6894 ] final   93.95 input  -60.11 | X-H torsion
[ 7974 7965 7964 7962 ] final   -0.04 input  175.53 | X-H torsion
[ 8008 7997 7996 7995 ] final   49.07 input   59.86 | X-H torsion
[ 10167 10162 10161 10158 ] final  118.36 input  -65.29 | X-H torsion
[ 10718 10713 10712 10709 ] final  122.21 input   66.30 | X-H torsion
[ 10763 10752 10751 10750 ] final   78.05 input  -60.55 | X-H torsion
[ 11005 11000 10999 10996 ] final   51.35 input  -57.11 | X-H torsion

> <Gold.Protein.ActiveResidues>
 VAL166  LYS551  ARG553  GLY616  TRP617  ASP618  TYR619  PRO620  LYS621  CYS622 
 ASP623  PHE694  ASN695  SER759  ASP760  ASP761  ALA762  ILE779  LEU786  VAL792 
 PHE793  MET794  SER795  GLU796  ALA797  LYS798  CYS799  TRP800  GLU811  SER814 

> <Gold.Protein.RotatedAtoms>
  152.5451  134.1268  159.8421 H   0  0  0  0  0  0  0  0  0  0  0  0  # atno 6907 bound_to 6896
  151.1318  133.5024  159.2606 H   0  0  0  0  0  0  0  0  0  0  0  0  # atno 6908 bound_to 6896
  151.1667  135.0309  159.8788 H   0  0  0  0  0  0  0  0  0  0  0  0  # atno 6909 bound_to 6896
  146.2430  140.1210  142.8340 H   0  0  0  0  0  0  0  0  0  0  0  0  # atno 7974 bound_to 7965
  155.3961  140.3435  155.4254 H   0  0  0  0  0  0  0  0  0  0  0  0  # atno 8008 bound_to 7997
  156.1530  140.1577  156.8772 H   0  0  0  0  0  0  0  0  0  0  0  0  # atno 8009 bound_to 7997
  154.5069  140.0800  156.7894 H   0  0  0  0  0  0  0  0  0  0  0  0  # atno 8010 bound_to 7997
  139.6116  144.7083  151.2831 H   0  0  0  0  0  0  0  0  0  0  0  0  # atno 10167 bound_to 10162
  157.5759  131.1079  150.8280 H   0  0  0  0  0  0  0  0  0  0  0  0  # atno 10718 bound_to 10713
  153.0845  135.4891  154.8569 H   0  0  0  0  0  0  0  0  0  0  0  0  # atno 10763 bound_to 10752
  154.7193  135.3036  154.9076 H   0  0  0  0  0  0  0  0  0  0  0  0  # atno 10764 bound_to 10752
  153.9745  135.6797  153.4801 H   0  0  0  0  0  0  0  0  0  0  0  0  # atno 10765 bound_to 10752
  140.0940  134.5170  155.8825 H   0  0  0  0  0  0  0  0  0  0  0  0  # atno 11005 bound_to 11000
  145.0406  140.8942  143.5054 LP  0  0  0  0  0  0  0  0  0  0  0  0  # atno 17320 bound_to 7965
  145.1290  139.2644  143.5549 LP  0  0  0  0  0  0  0  0  0  0  0  0  # atno 17321 bound_to 7965
  140.7323  143.6827  150.7987 LP  0  0  0  0  0  0  0  0  0  0  0  0  # atno 17342 bound_to 10162
  140.0423  143.5334  152.2712 LP  0  0  0  0  0  0  0  0  0  0  0  0  # atno 17343 bound_to 10162
  156.8739  130.5155  149.5295 LP  0  0  0  0  0  0  0  0  0  0  0  0  # atno 17370 bound_to 10713
  156.0804  130.5816  150.9552 LP  0  0  0  0  0  0  0  0  0  0  0  0  # atno 17371 bound_to 10713
  141.2086  133.6676  156.6385 LP  0  0  0  0  0  0  0  0  0  0  0  0  # atno 17394 bound_to 11000
  140.3312  134.7927  157.4327 LP  0  0  0  0  0  0  0  0  0  0  0  0  # atno 17395 bound_to 11000

$$$$
