AV-unprocessed.smi:1873|AV-procd|sdf|7607|dock7
  -GOLD-   22720 9323D 1   1.00000     0.00000
 Structure written by MMmdl.
 36 38  0  0  0  0  0  0  0  0  1 V2000
  151.4502  140.1806  155.1154 O   0  0  0  0  0  0  0  0  0  0  0  0
  150.9891  141.2569  155.9102 C   0  0  2  0  0  0  0  0  0  0  0  0
  151.5983  141.1613  157.3223 C   0  0  0  0  0  0  0  0  0  0  0  0
  151.5669  142.4301  158.0268 N   0  0  0  0  0  0  0  0  0  0  0  0
  151.1851  143.6253  157.5369 C   0  0  0  0  0  0  0  0  0  0  0  0
  151.2341  144.6662  158.3638 N   0  0  0  0  0  0  0  0  0  0  0  0
  151.7027  144.0780  159.5261 C   0  0  0  0  0  0  0  0  0  0  0  0
  151.9773  144.6403  160.7935 C   0  0  0  0  0  0  0  0  0  0  0  0
  152.4550  143.8314  161.8458 C   0  0  0  0  0  0  0  0  0  0  0  0
  152.6657  142.4511  161.6482 C   0  0  0  0  0  0  0  0  0  0  0  0
  152.3995  141.8681  160.3943 C   0  0  0  0  0  0  0  0  0  0  0  0
  151.9225  142.6788  159.3474 C   0  0  0  0  0  0  0  0  0  0  0  0
  149.4710  141.3253  155.9679 C   0  0  0  0  0  0  0  0  0  0  0  0
  148.7972  141.3868  157.2065 C   0  0  0  0  0  0  0  0  0  0  0  0
  147.3919  141.4623  157.2467 C   0  0  0  0  0  0  0  0  0  0  0  0
  146.6387  141.4731  156.0555 C   0  0  0  0  0  0  0  0  0  0  0  0
  145.2693  141.5652  156.1622 O   0  0  0  0  0  0  0  0  0  0  0  0
  144.6015  142.4865  155.4179 C   0  0  0  0  0  0  0  0  0  0  0  0
  143.2790  142.4371  155.7077 F   0  0  0  0  0  0  0  0  0  0  0  0
  145.0373  143.7369  155.7092 F   0  0  0  0  0  0  0  0  0  0  0  0
  147.3172  141.4255  154.8140 C   0  0  0  0  0  0  0  0  0  0  0  0
  148.7227  141.3498  154.7728 C   0  0  0  0  0  0  0  0  0  0  0  0
  151.4401  139.3949  155.6403 H   0  0  0  0  0  0  0  0  0  0  0  0
  151.3493  142.1696  155.4337 H   0  0  0  0  0  0  0  0  0  0  0  0
  151.0505  140.4313  157.9197 H   0  0  0  0  0  0  0  0  0  0  0  0
  152.6311  140.8126  157.2723 H   0  0  0  0  0  0  0  0  0  0  0  0
  150.8492  143.7368  156.5162 H   0  0  0  0  0  0  0  0  0  0  0  0
  151.8193  145.6962  160.9562 H   0  0  0  0  0  0  0  0  0  0  0  0
  152.6608  144.2728  162.8099 H   0  0  0  0  0  0  0  0  0  0  0  0
  153.0316  141.8400  162.4602 H   0  0  0  0  0  0  0  0  0  0  0  0
  152.5586  140.8115  160.2386 H   0  0  0  0  0  0  0  0  0  0  0  0
  149.3558  141.3810  158.1311 H   0  0  0  0  0  0  0  0  0  0  0  0
  146.8875  141.5116  158.2005 H   0  0  0  0  0  0  0  0  0  0  0  0
  144.7149  142.3015  154.3495 H   0  0  0  0  0  0  0  0  0  0  0  0
  146.7718  141.4546  153.8827 H   0  0  0  0  0  0  0  0  0  0  0  0
  149.2244  141.3166  153.8166 H   0  0  0  0  0  0  0  0  0  0  0  0
  1  2  1  0  0  0  0
  1 23  1  0  0  0  0
  2  3  1  0  0  0  0
  2 13  1  0  0  0  0
  2 24  1  0  0  0  0
  3  4  1  0  0  0  0
  3 25  1  0  0  0  0
  3 26  1  0  0  0  0
  4 12  1  0  0  0  0
  4  5  1  0  0  0  0
  5  6  2  0  0  0  0
  5 27  1  0  0  0  0
  6  7  1  0  0  0  0
  7 12  2  0  0  0  0
  7  8  1  0  0  0  0
  8  9  2  0  0  0  0
  8 28  1  0  0  0  0
  9 10  1  0  0  0  0
  9 29  1  0  0  0  0
 10 11  2  0  0  0  0
 10 30  1  0  0  0  0
 11 12  1  0  0  0  0
 11 31  1  0  0  0  0
 13 22  1  0  0  0  0
 13 14  2  0  0  0  0
 14 15  1  0  0  0  0
 14 32  1  0  0  0  0
 15 16  2  0  0  0  0
 15 33  1  0  0  0  0
 16 17  1  0  0  0  0
 16 21  1  0  0  0  0
 17 18  1  0  0  0  0
 18 19  1  0  0  0  0
 18 20  1  0  0  0  0
 18 34  1  0  0  0  0
 21 22  2  0  0  0  0
 21 35  1  0  0  0  0
 22 36  1  0  0  0  0
M  END
> <s_m_source_file>
AV-unprocessed.smi

> <i_m_source_file_index>
1873

> <i_lp_mmshare_version>
43012

> <i_f3d_flags>
0

> <s_epik_input>
RltDSF0oRilPYyhbY0hdW2NIXTEpW2NIXVtjSF1jMVtDQEhdKFtPSF0pW0NIMl1uKFtjSF1uMiljKGMyMylbY0hdW2NIXVtjSF1bY0hdMw==

> <s_epik_cmdline>
J2VwaWtfcHl0aG9uJywgJy1waCcsICc3LjAnLCAnLXRuJywgJzgnLCAnLW1hJywgJzIwMCcsICctbWV0YWxfYmluZGluZycsICctaW1hZScsICc8aW5maWxlLm1hZT4nLCAnLW9tYWUnLCAnPG91dGZpbGUubWFlPic=

> <r_lp_tautomer_probability>
1

> <r_epik_Ionization_Penalty>
0.0696507

> <r_epik_Ionization_Penalty_Charging>
0

> <r_epik_Ionization_Penalty_Neutral>
0.0696507

> <r_epik_State_Penalty>
0.0610247

> <r_epik_Charging_Adjusted_Penalty>
0.0610247

> <i_epik_Tot_Q>
0

> <i_epik_Tot_abs_Q>
0

> <r_epik_Metal_State_Penalty>
6.42746e-05

> <b_epik_Metal_Only>
0

> <s_lp_Force_Field>
OPLS_2005

> <r_lp_Energy>
11.1273

> <b_lp_Chiralities_Consistent>
1

> <s_lp_Variant>
AV-unprocessed.smi:1873-1

> <Gold.Version>
5.8.1

> <Gold.Id.Protein>
6NUR|6NUR_protein|mol2

> <Gold.PLP.Fitness>
51.3179

> <Gold.PLP.PLP>
-46.0241

> <Gold.PLP.part.hbond>
-1.0000

> <Gold.PLP.part.metal>
0.0000

> <Gold.PLP.part.buried>
-7.2610

> <Gold.PLP.part.nonpolar>
-37.5639

> <Gold.PLP.part.repulsive>
0.1979

> <Gold.PLP.ligand.clash>
0.0000

> <Gold.PLP.ligand.torsion>
0.3775

> <Gold.PLP.Chemscore.Hbond>
1.0000

> <Gold.PLP.Chemscore.CHOScore>
1.0000

> <Gold.PLP.Chemscore.Metal>
0.0000

> <Gold.Chemscore.Hbonds>
donor molecule, donor type, donor heavy atom, donor atom, acceptor molecule, acceptor atom, score
      P1  H  7989  7998       L1     1  1.00
      L1  C     5    27       P1  8028  1.00

> <Gold.PLP.Chemscore.Internal.Correction>
0.0488

> <Gold.Rescore>
     Score         DG    S(hbond)    S(metal)    S(lipo)     H(rot)  DE(clash)    DE(int)     intcor
     14.69     -15.14       0.83        0.00     111.34       2.40       0.03       0.41       ----

> <Gold.Chemscore.Fitness>
14.6905

> <Gold.Chemscore.DG>
-15.1350

> <Gold.Chemscore.ZeroCoef>
-5.4800

> <Gold.Chemscore.Hbond>
0.8291

> <Gold.Chemscore.Metal>
0.0000

> <Gold.Chemscore.Lipo>
111.3367

> <Gold.Chemscore.Internal_Hbond>
0.0000

> <Gold.Chemscore.DEClash>
0.0300

> <Gold.Chemscore.DEInternal>
0.4145

> <Gold.Chemscore.Rot>
2.3986

> <Gold.Chemscore.Internal.Correction>
   9.000000E+99

> <Gold.Chemscore.Hbonds>
donor molecule, donor type, donor heavy atom, donor atom, acceptor molecule, acceptor atom, score
      P1  H  7989  7998       L1     1  0.43

> <Gold.Chemscore.Hbond.Weighted>
-2.7691

> <Gold.Chemscore.Metal.Weighted>
-0.0000

> <Gold.Chemscore.Lipo.Weighted>
-13.0264

> <Gold.Chemscore.Internal_Hbond.Weighted>
0.0000

> <Gold.Chemscore.DEClash.Weighted>
0.0300

> <Gold.Chemscore.DEInternal.Weighted>
0.4145

> <Gold.Chemscore.Rot.Weighted>
6.1405

> <Gold.Chemscore.Internal.Correction.Weighted>
   9.000000E+99

> <Gold.Protein.RotatedTorsions>
[ 6907 6896 6895 6894 ] final -112.34 input  -60.11 | X-H torsion
[ 7974 7965 7964 7962 ] final   50.30 input  175.53 | X-H torsion
[ 8008 7997 7996 7995 ] final  158.30 input   59.86 | X-H torsion
[ 10167 10162 10161 10158 ] final   75.46 input  -65.29 | X-H torsion
[ 10718 10713 10712 10709 ] final    8.59 input   66.30 | X-H torsion
[ 10763 10752 10751 10750 ] final  179.82 input  -60.55 | X-H torsion
[ 11005 11000 10999 10996 ] final  -44.21 input  -57.11 | X-H torsion

> <Gold.Protein.ActiveResidues>
 VAL166  LYS551  ARG553  GLY616  TRP617  ASP618  TYR619  PRO620  LYS621  CYS622 
 ASP623  PHE694  ASN695  SER759  ASP760  ASP761  ALA762  ILE779  LEU786  VAL792 
 PHE793  MET794  SER795  GLU796  ALA797  LYS798  CYS799  TRP800  GLU811  SER814 

> <Gold.Protein.RotatedAtoms>
  150.7751  133.9104  159.3367 H   0  0  0  0  0  0  0  0  0  0  0  0  # atno 6907 bound_to 6896
  151.6981  135.0933  160.0255 H   0  0  0  0  0  0  0  0  0  0  0  0  # atno 6908 bound_to 6896
  152.3784  133.6475  159.6177 H   0  0  0  0  0  0  0  0  0  0  0  0  # atno 6909 bound_to 6896
  146.0025  139.4455  143.0006 H   0  0  0  0  0  0  0  0  0  0  0  0  # atno 7974 bound_to 7965
  156.2311  140.1862  156.7239 H   0  0  0  0  0  0  0  0  0  0  0  0  # atno 8008 bound_to 7997
  154.6025  140.0634  156.9415 H   0  0  0  0  0  0  0  0  0  0  0  0  # atno 8009 bound_to 7997
  155.2151  140.3303  155.4326 H   0  0  0  0  0  0  0  0  0  0  0  0  # atno 8010 bound_to 7997
  140.0027  144.5674  150.7724 H   0  0  0  0  0  0  0  0  0  0  0  0  # atno 10167 bound_to 10162
  156.9539  130.5907  149.5658 H   0  0  0  0  0  0  0  0  0  0  0  0  # atno 10718 bound_to 10713
  154.5256  135.2796  155.1225 H   0  0  0  0  0  0  0  0  0  0  0  0  # atno 10763 bound_to 10752
  154.2765  135.6293  153.5334 H   0  0  0  0  0  0  0  0  0  0  0  0  # atno 10764 bound_to 10752
  152.9946  135.5641  154.5756 H   0  0  0  0  0  0  0  0  0  0  0  0  # atno 10765 bound_to 10752
  141.0435  133.6770  156.2841 H   0  0  0  0  0  0  0  0  0  0  0  0  # atno 11005 bound_to 11000
  145.7465  140.9988  143.1273 LP  0  0  0  0  0  0  0  0  0  0  0  0  # atno 17320 bound_to 7965
  144.6924  139.9162  143.7466 LP  0  0  0  0  0  0  0  0  0  0  0  0  # atno 17321 bound_to 7965
  140.7412  143.2815  151.3584 LP  0  0  0  0  0  0  0  0  0  0  0  0  # atno 17342 bound_to 10162
  139.6260  144.0813  152.2435 LP  0  0  0  0  0  0  0  0  0  0  0  0  # atno 17343 bound_to 10162
  156.0351  130.5439  150.8633 LP  0  0  0  0  0  0  0  0  0  0  0  0  # atno 17370 bound_to 10713
  157.5704  131.0946  150.9427 LP  0  0  0  0  0  0  0  0  0  0  0  0  # atno 17371 bound_to 10713
  140.6189  134.5382  157.5545 LP  0  0  0  0  0  0  0  0  0  0  0  0  # atno 17394 bound_to 11000
  139.9294  134.7993  156.0974 LP  0  0  0  0  0  0  0  0  0  0  0  0  # atno 17395 bound_to 11000

$$$$
