AV-unprocessed.smi:1007|AV-procd|sdf|4401|dock2
  -GOLD-   22720 2333D 1   1.00000     0.00000
 Structure written by MMmdl.
 56 58  0  0  0  0  0  0  0  0  2 V2000
  141.1802  135.5536  153.8411 C   0  0  0  0  0  0  0  0  0  0  0  0
  142.3485  135.9007  154.5682 O   0  0  0  0  0  0  0  0  0  0  0  0
  142.9287  137.1424  154.1893 C   0  0  0  0  0  0  0  0  0  0  0  0
  144.4303  137.0072  153.8689 C   0  0  0  0  0  0  0  0  0  0  0  0
  145.1006  138.3212  153.6992 N   0  3  0  0  0  0  0  0  0  0  0  0
  146.4113  138.2403  152.9998 C   0  0  0  0  0  0  0  0  0  0  0  0
  147.0093  139.6509  152.8263 C   0  0  0  0  0  0  0  0  0  0  0  0
  147.1824  140.3629  154.0925 N   0  0  0  0  0  0  0  0  0  0  0  0
  148.2365  139.8351  154.9693 C   0  0  0  0  0  0  0  0  0  0  0  0
  149.6601  140.3753  154.7079 C   0  0  1  0  0  0  0  0  0  0  0  0
  149.6909  140.9112  153.3994 O   0  0  0  0  0  0  0  0  0  0  0  0
  150.0724  141.5026  155.6801 C   0  0  0  0  0  0  0  0  0  0  0  0
  151.0831  141.0725  156.6294 N   0  0  0  0  0  0  0  0  0  0  0  0
  151.8130  139.9411  156.5882 C   0  0  0  0  0  0  0  0  0  0  0  0
  152.6923  139.7487  157.5672 N   0  0  0  0  0  0  0  0  0  0  0  0
  152.5158  140.8904  158.3299 C   0  0  0  0  0  0  0  0  0  0  0  0
  153.1527  141.3070  159.5192 C   0  0  0  0  0  0  0  0  0  0  0  0
  152.8079  142.5311  160.1356 C   0  0  0  0  0  0  0  0  0  0  0  0
  153.5175  142.9393  161.4147 C   0  0  0  0  0  0  0  0  0  0  0  0
  151.8106  143.3598  159.5615 C   0  0  0  0  0  0  0  0  0  0  0  0
  151.4209  144.6773  160.2081 C   0  0  0  0  0  0  0  0  0  0  0  0
  151.1653  142.9594  158.3728 C   0  0  0  0  0  0  0  0  0  0  0  0
  151.5171  141.7392  157.7696 C   0  0  0  0  0  0  0  0  0  0  0  0
  145.8820  140.4369  154.7582 C   0  0  0  0  0  0  0  0  0  0  0  0
  145.2342  139.0547  154.9850 C   0  0  0  0  0  0  0  0  0  0  0  0
  140.7687  134.6268  154.2409 H   0  0  0  0  0  0  0  0  0  0  0  0
  141.3925  135.3903  152.7848 H   0  0  0  0  0  0  0  0  0  0  0  0
  140.4132  136.3241  153.9304 H   0  0  0  0  0  0  0  0  0  0  0  0
  142.3945  137.5638  153.3362 H   0  0  0  0  0  0  0  0  0  0  0  0
  142.7791  137.8473  155.0063 H   0  0  0  0  0  0  0  0  0  0  0  0
  144.9165  136.4510  154.6705 H   0  0  0  0  0  0  0  0  0  0  0  0
  144.5688  136.4091  152.9670 H   0  0  0  0  0  0  0  0  0  0  0  0
  147.0925  137.5936  153.5544 H   0  0  0  0  0  0  0  0  0  0  0  0
  146.2854  137.7918  152.0152 H   0  0  0  0  0  0  0  0  0  0  0  0
  147.9506  139.6067  152.2820 H   0  0  0  0  0  0  0  0  0  0  0  0
  146.3433  140.2317  152.1867 H   0  0  0  0  0  0  0  0  0  0  0  0
  147.9637  140.1027  155.9916 H   0  0  0  0  0  0  0  0  0  0  0  0
  148.2496  138.7456  154.9582 H   0  0  0  0  0  0  0  0  0  0  0  0
  150.3795  139.5560  154.7398 H   0  0  0  0  0  0  0  0  0  0  0  0
  149.5345  140.2106  152.7842 H   0  0  0  0  0  0  0  0  0  0  0  0
  150.4558  142.3605  155.1254 H   0  0  0  0  0  0  0  0  0  0  0  0
  149.2208  141.8684  156.2507 H   0  0  0  0  0  0  0  0  0  0  0  0
  151.6899  139.2162  155.7968 H   0  0  0  0  0  0  0  0  0  0  0  0
  153.9116  140.6751  159.9566 H   0  0  0  0  0  0  0  0  0  0  0  0
  154.0259  143.8946  161.2820 H   0  0  0  0  0  0  0  0  0  0  0  0
  154.2644  142.2014  161.7091 H   0  0  0  0  0  0  0  0  0  0  0  0
  152.8030  143.0370  162.2324 H   0  0  0  0  0  0  0  0  0  0  0  0
  150.6312  145.1778  159.6468 H   0  0  0  0  0  0  0  0  0  0  0  0
  152.2782  145.3494  160.2523 H   0  0  0  0  0  0  0  0  0  0  0  0
  151.0567  144.5123  161.2223 H   0  0  0  0  0  0  0  0  0  0  0  0
  150.4032  143.5800  157.9256 H   0  0  0  0  0  0  0  0  0  0  0  0
  145.9806  140.9604  155.7099 H   0  0  0  0  0  0  0  0  0  0  0  0
  145.2082  141.0467  154.1546 H   0  0  0  0  0  0  0  0  0  0  0  0
  144.2476  139.1914  155.4292 H   0  0  0  0  0  0  0  0  0  0  0  0
  145.8157  138.4624  155.6926 H   0  0  0  0  0  0  0  0  0  0  0  0
  144.4927  138.8820  153.1189 H   0  0  0  0  0  0  0  0  0  0  0  0
  1  2  1  0  0  0  0
  1 26  1  0  0  0  0
  1 27  1  0  0  0  0
  1 28  1  0  0  0  0
  2  3  1  0  0  0  0
  3  4  1  0  0  0  0
  3 29  1  0  0  0  0
  3 30  1  0  0  0  0
  4  5  1  0  0  0  0
  4 31  1  0  0  0  0
  4 32  1  0  0  0  0
  5 25  1  0  0  0  0
  5  6  1  0  0  0  0
  5 56  1  0  0  0  0
  6  7  1  0  0  0  0
  6 33  1  0  0  0  0
  6 34  1  0  0  0  0
  7  8  1  0  0  0  0
  7 35  1  0  0  0  0
  7 36  1  0  0  0  0
  8  9  1  0  0  0  0
  8 24  1  0  0  0  0
  9 10  1  0  0  0  0
  9 37  1  0  0  0  0
  9 38  1  0  0  0  0
 10 11  1  0  0  0  0
 10 12  1  0  0  0  0
 10 39  1  0  0  0  0
 11 40  1  0  0  0  0
 12 13  1  0  0  0  0
 12 41  1  0  0  0  0
 12 42  1  0  0  0  0
 13 23  1  0  0  0  0
 13 14  1  0  0  0  0
 14 15  2  0  0  0  0
 14 43  1  0  0  0  0
 15 16  1  0  0  0  0
 16 23  2  0  0  0  0
 16 17  1  0  0  0  0
 17 18  2  0  0  0  0
 17 44  1  0  0  0  0
 18 19  1  0  0  0  0
 18 20  1  0  0  0  0
 19 45  1  0  0  0  0
 19 46  1  0  0  0  0
 19 47  1  0  0  0  0
 20 21  1  0  0  0  0
 20 22  2  0  0  0  0
 21 48  1  0  0  0  0
 21 49  1  0  0  0  0
 21 50  1  0  0  0  0
 22 23  1  0  0  0  0
 22 51  1  0  0  0  0
 24 25  1  0  0  0  0
 24 52  1  0  0  0  0
 24 53  1  0  0  0  0
 25 54  1  0  0  0  0
 25 55  1  0  0  0  0
M  CHG  1   5   1
M  END
> <s_m_source_file>
AV-unprocessed.smi

> <i_m_source_file_index>
1007

> <i_lp_mmshare_version>
43012

> <i_f3d_flags>
0

> <s_epik_input>
W0NIM11PW0NIMl1bQ0gyXU4xW0NIMl1bQ0gyXU4oW0NIMl1bQ0gyXTEpW0NIMl1bQ0BIXShbT0hdKVtDSDJdbihbY0hdbjIpYyhjMjMpW2NIXWMoW0NIM10pYyhbY0hdMylbQ0gzXQ==

> <s_epik_cmdline>
J2VwaWtfcHl0aG9uJywgJy1waCcsICc3LjAnLCAnLXRuJywgJzgnLCAnLW1hJywgJzIwMCcsICctbWV0YWxfYmluZGluZycsICctaW1hZScsICc8aW5maWxlLm1hZT4nLCAnLW9tYWUnLCAnPG91dGZpbGUubWFlPic=

> <r_epik_Ionization_Penalty>
0.186009

> <r_epik_Ionization_Penalty_Charging>
0.0613973

> <r_epik_Ionization_Penalty_Neutral>
0.124612

> <r_epik_State_Penalty>
1.21927

> <r_epik_Charging_Adjusted_Penalty>
1.28067

> <i_epik_Tot_Q>
1

> <i_epik_Tot_abs_Q>
1

> <r_epik_Metal_State_Penalty>
1.13901

> <b_epik_Metal_Only>
0

> <s_lp_Force_Field>
OPLS_2005

> <r_lp_Energy>
38.7105

> <b_lp_Chiralities_Consistent>
1

> <s_lp_Variant>
AV-unprocessed.smi:1007-4

> <Gold.Version>
5.8.1

> <Gold.Id.Protein>
6NUR|6NUR_protein|mol2

> <Gold.PLP.Fitness>
55.6047

> <Gold.PLP.PLP>
-44.6145

> <Gold.PLP.part.hbond>
-4.5295

> <Gold.PLP.part.metal>
0.0000

> <Gold.PLP.part.buried>
-3.2500

> <Gold.PLP.part.nonpolar>
-36.9390

> <Gold.PLP.part.repulsive>
0.1834

> <Gold.PLP.ligand.clash>
0.0000

> <Gold.PLP.ligand.torsion>
2.2109

> <Gold.PLP.Chemscore.Hbond>
4.8972

> <Gold.PLP.Chemscore.CHOScore>
0.0000

> <Gold.PLP.Chemscore.Metal>
0.0000

> <Gold.Chemscore.Hbonds>
donor molecule, donor type, donor heavy atom, donor atom, acceptor molecule, acceptor atom, score
      L1  H     5    56       P1 10175  2.00
      L1  H    11    40       P1  7957  0.70
      P1  H  7989  7998       L1    11  0.13
      P1  H  7997  8010       L1    15  1.00
      P1  H  8011  8017       L1    11  1.00

> <Gold.PLP.Chemscore.Internal.Correction>
0.7205

> <Gold.Rescore>
     Score         DG    S(hbond)    S(metal)    S(lipo)     H(rot)  DE(clash)    DE(int)     intcor
     19.47     -23.10       2.95        0.00     122.49       2.56       0.42       3.21       ----

> <Gold.Chemscore.Fitness>
19.4672

> <Gold.Chemscore.DG>
-23.0968

> <Gold.Chemscore.ZeroCoef>
-5.4800

> <Gold.Chemscore.Hbond>
2.9455

> <Gold.Chemscore.Metal>
0.0000

> <Gold.Chemscore.Lipo>
122.4876

> <Gold.Chemscore.Internal_Hbond>
0.0000

> <Gold.Chemscore.DEClash>
0.4185

> <Gold.Chemscore.DEInternal>
3.2112

> <Gold.Chemscore.Rot>
2.5594

> <Gold.Chemscore.Internal.Correction>
   9.000000E+99

> <Gold.Chemscore.Hbonds>
donor molecule, donor type, donor heavy atom, donor atom, acceptor molecule, acceptor atom, score
      L1  H     5    56       P1 10175  0.99
      L1  H    11    40       P1  7957  0.70
      P1  H  7997  8010       L1    15  0.18
      P1  H  8011  8017       L1    11  0.39

> <Gold.Chemscore.Hbond.Weighted>
-9.8379

> <Gold.Chemscore.Metal.Weighted>
-0.0000

> <Gold.Chemscore.Lipo.Weighted>
-14.3311

> <Gold.Chemscore.Internal_Hbond.Weighted>
0.0000

> <Gold.Chemscore.DEClash.Weighted>
0.4185

> <Gold.Chemscore.DEInternal.Weighted>
3.2112

> <Gold.Chemscore.Rot.Weighted>
6.5522

> <Gold.Chemscore.Internal.Correction.Weighted>
   9.000000E+99

> <Gold.Protein.RotatedTorsions>
[ 6907 6896 6895 6894 ] final   -0.15 input  -60.11 | X-H torsion
[ 7974 7965 7964 7962 ] final  -31.62 input  175.53 | X-H torsion
[ 8008 7997 7996 7995 ] final   48.73 input   59.86 | X-H torsion
[ 10167 10162 10161 10158 ] final -145.09 input  -65.29 | X-H torsion
[ 10718 10713 10712 10709 ] final  144.94 input   66.30 | X-H torsion
[ 10763 10752 10751 10750 ] final   89.03 input  -60.55 | X-H torsion
[ 11005 11000 10999 10996 ] final -158.85 input  -57.11 | X-H torsion

> <Gold.Protein.ActiveResidues>
 VAL166  LYS551  ARG553  GLY616  TRP617  ASP618  TYR619  PRO620  LYS621  CYS622 
 ASP623  PHE694  ASN695  SER759  ASP760  ASP761  ALA762  ILE779  LEU786  VAL792 
 PHE793  MET794  SER795  GLU796  ALA797  LYS798  CYS799  TRP800  GLU811  SER814 

> <Gold.Protein.RotatedAtoms>
  151.5669  135.1064  159.9985 H   0  0  0  0  0  0  0  0  0  0  0  0  # atno 6907 bound_to 6896
  152.4419  133.7460  159.6678 H   0  0  0  0  0  0  0  0  0  0  0  0  # atno 6908 bound_to 6896
  150.8327  133.7996  159.3116 H   0  0  0  0  0  0  0  0  0  0  0  0  # atno 6909 bound_to 6896
  146.1053  140.5690  142.8802 H   0  0  0  0  0  0  0  0  0  0  0  0  # atno 7974 bound_to 7965
  155.3904  140.3433  155.4251 H   0  0  0  0  0  0  0  0  0  0  0  0  # atno 8008 bound_to 7997
  156.1560  140.1586  156.8724 H   0  0  0  0  0  0  0  0  0  0  0  0  # atno 8009 bound_to 7997
  154.5096  140.0793  156.7944 H   0  0  0  0  0  0  0  0  0  0  0  0  # atno 8010 bound_to 7997
  139.7838  143.8063  152.2642 H   0  0  0  0  0  0  0  0  0  0  0  0  # atno 10167 bound_to 10162
  157.3512  131.0951  151.0998 H   0  0  0  0  0  0  0  0  0  0  0  0  # atno 10718 bound_to 10713
  153.1829  135.4485  155.0051 H   0  0  0  0  0  0  0  0  0  0  0  0  # atno 10763 bound_to 10752
  154.8041  135.3267  154.7477 H   0  0  0  0  0  0  0  0  0  0  0  0  # atno 10764 bound_to 10752
  153.7940  135.6968  153.4922 H   0  0  0  0  0  0  0  0  0  0  0  0  # atno 10765 bound_to 10752
  140.6491  134.4470  157.5235 H   0  0  0  0  0  0  0  0  0  0  0  0  # atno 11005 bound_to 11000
  144.7466  140.5083  143.6831 LP  0  0  0  0  0  0  0  0  0  0  0  0  # atno 17320 bound_to 7965
  145.5773  139.1487  143.3255 LP  0  0  0  0  0  0  0  0  0  0  0  0  # atno 17321 bound_to 7965
  139.8134  144.7326  150.9667 LP  0  0  0  0  0  0  0  0  0  0  0  0  # atno 17342 bound_to 10162
  140.7819  143.4229  151.0814 LP  0  0  0  0  0  0  0  0  0  0  0  0  # atno 17343 bound_to 10162
  157.2173  130.6465  149.5797 LP  0  0  0  0  0  0  0  0  0  0  0  0  # atno 17370 bound_to 10713
  155.9722  130.4640  150.6204 LP  0  0  0  0  0  0  0  0  0  0  0  0  # atno 17371 bound_to 10713
  139.9052  134.8465  156.1734 LP  0  0  0  0  0  0  0  0  0  0  0  0  # atno 17394 bound_to 11000
  141.0550  133.6870  156.1843 LP  0  0  0  0  0  0  0  0  0  0  0  0  # atno 17395 bound_to 11000

$$$$
