AV-unprocessed.smi:1361|AV-procd|sdf|5556|dock5
  -GOLD-   22720 5143D 1   1.00000     0.00000
 Structure written by MMmdl.
 46 47  0  0  0  0  0  0  0  0  1 V2000
  148.7086  141.0942  154.2920 C   0  0  0  0  0  0  0  0  0  0  0  0
  149.7597  140.4212  155.1478 C   0  0  0  0  0  0  0  0  0  0  0  0
  149.2452  139.7923  156.2695 N   0  0  0  0  0  0  0  0  0  0  0  0
  150.1301  139.1374  157.1078 C   0  0  0  0  0  0  0  0  0  0  0  0
  149.4822  138.4643  158.3055 C   0  0  0  0  0  0  0  0  0  0  0  0
  151.4619  139.1183  156.8463 C   0  0  0  0  0  0  0  0  0  0  0  0
  152.4696  138.3988  157.7402 C   0  0  0  0  0  0  0  0  0  0  0  0
  153.4291  139.3080  158.5095 C   0  0  0  0  0  0  0  0  0  0  0  0
  154.6422  139.1084  158.4549 O   0  0  0  0  0  0  0  0  0  0  0  0
  152.8717  140.3014  159.2192 N   0  0  0  0  0  0  0  0  0  0  0  0
  153.5919  141.2796  160.0312 C   0  0  0  0  0  0  0  0  0  0  0  0
  152.9744  141.3333  161.4467 C   0  0  0  0  0  0  0  0  0  0  0  0
  153.4718  142.4974  162.3237 C   0  0  0  0  0  0  0  0  0  0  0  0
  152.3955  143.5425  162.6716 C   0  0  0  0  0  0  0  0  0  0  0  0
  151.4644  144.0011  161.5297 C   0  0  0  0  0  0  0  0  0  0  0  0
  152.1517  144.5008  160.2466 C   0  0  0  0  0  0  0  0  0  0  0  0
  152.3654  143.4325  159.1522 C   0  0  0  0  0  0  0  0  0  0  0  0
  153.6714  142.6238  159.2698 C   0  0  0  0  0  0  0  0  0  0  0  0
  151.9548  139.8243  155.6398 C   0  0  0  0  0  0  0  0  0  0  0  0
  153.1519  139.8617  155.3586 O   0  0  0  0  0  0  0  0  0  0  0  0
  151.0138  140.4619  154.8152 N   0  0  0  0  0  0  0  0  0  0  0  0
  148.2620  139.7807  156.4999 H   0  0  0  0  0  0  0  0  0  0  0  0
  149.1374  141.4455  153.3526 H   0  0  0  0  0  0  0  0  0  0  0  0
  148.2863  141.9516  154.8165 H   0  0  0  0  0  0  0  0  0  0  0  0
  147.9025  140.3980  154.0581 H   0  0  0  0  0  0  0  0  0  0  0  0
  149.6770  137.3918  158.2942 H   0  0  0  0  0  0  0  0  0  0  0  0
  148.4008  138.6064  158.3097 H   0  0  0  0  0  0  0  0  0  0  0  0
  149.8757  138.8780  159.2341 H   0  0  0  0  0  0  0  0  0  0  0  0
  153.0641  137.6916  157.1611 H   0  0  0  0  0  0  0  0  0  0  0  0
  151.9198  137.7760  158.4467 H   0  0  0  0  0  0  0  0  0  0  0  0
  151.8657  140.3852  159.1999 H   0  0  0  0  0  0  0  0  0  0  0  0
  154.6233  140.9373  160.1368 H   0  0  0  0  0  0  0  0  0  0  0  0
  151.8868  141.3320  161.3854 H   0  0  0  0  0  0  0  0  0  0  0  0
  153.2147  140.3979  161.9539 H   0  0  0  0  0  0  0  0  0  0  0  0
  153.8561  142.0900  163.2595 H   0  0  0  0  0  0  0  0  0  0  0  0
  154.3317  142.9892  161.8724 H   0  0  0  0  0  0  0  0  0  0  0  0
  151.7695  143.1416  163.4698 H   0  0  0  0  0  0  0  0  0  0  0  0
  152.8904  144.4145  163.1006 H   0  0  0  0  0  0  0  0  0  0  0  0
  150.7369  143.2271  161.2855 H   0  0  0  0  0  0  0  0  0  0  0  0
  150.8644  144.8208  161.9267 H   0  0  0  0  0  0  0  0  0  0  0  0
  151.4976  145.2604  159.8165 H   0  0  0  0  0  0  0  0  0  0  0  0
  153.0800  145.0240  160.4785 H   0  0  0  0  0  0  0  0  0  0  0  0
  151.4991  142.7758  159.0658 H   0  0  0  0  0  0  0  0  0  0  0  0
  152.4121  143.9659  158.2019 H   0  0  0  0  0  0  0  0  0  0  0  0
  154.4571  143.2549  159.6846 H   0  0  0  0  0  0  0  0  0  0  0  0
  154.0195  142.4027  158.2595 H   0  0  0  0  0  0  0  0  0  0  0  0
  1 23  1  0  0  0  0
  1 24  1  0  0  0  0
  1 25  1  0  0  0  0
  1  2  1  0  0  0  0
  2  3  1  0  0  0  0
  2 21  2  0  0  0  0
  3  4  1  0  0  0  0
  3 22  1  0  0  0  0
  4  6  2  0  0  0  0
  4  5  1  0  0  0  0
  5 26  1  0  0  0  0
  5 27  1  0  0  0  0
  5 28  1  0  0  0  0
  6 19  1  0  0  0  0
  6  7  1  0  0  0  0
  7  8  1  0  0  0  0
  7 29  1  0  0  0  0
  7 30  1  0  0  0  0
  8  9  2  0  0  0  0
  8 10  1  0  0  0  0
 10 11  1  0  0  0  0
 10 31  1  0  0  0  0
 11 18  1  0  0  0  0
 11 12  1  0  0  0  0
 11 32  1  0  0  0  0
 12 13  1  0  0  0  0
 12 33  1  0  0  0  0
 12 34  1  0  0  0  0
 13 14  1  0  0  0  0
 13 35  1  0  0  0  0
 13 36  1  0  0  0  0
 14 15  1  0  0  0  0
 14 37  1  0  0  0  0
 14 38  1  0  0  0  0
 15 16  1  0  0  0  0
 15 39  1  0  0  0  0
 15 40  1  0  0  0  0
 16 17  1  0  0  0  0
 16 41  1  0  0  0  0
 16 42  1  0  0  0  0
 17 18  1  0  0  0  0
 17 43  1  0  0  0  0
 17 44  1  0  0  0  0
 18 45  1  0  0  0  0
 18 46  1  0  0  0  0
 19 20  2  0  0  0  0
 19 21  1  0  0  0  0
M  END
> <s_m_source_file>
AV-unprocessed.smi

> <i_m_source_file_index>
1361

> <i_lp_mmshare_version>
43012

> <i_f3d_flags>
0

> <s_epik_input>
W0NIM11jMW5jKFtDSDNdKWMoYyg9TylbbkhdMSlbQ0gyXUMoPU8pW05IXVtDSF0yW0NIMl1bQ0gyXVtDSDJdW0NIMl1bQ0gyXVtDSDJdW0NIMl0y

> <s_epik_cmdline>
J2VwaWtfcHl0aG9uJywgJy1waCcsICc3LjAnLCAnLXRuJywgJzgnLCAnLW1hJywgJzIwMCcsICctbWV0YWxfYmluZGluZycsICctaW1hZScsICc8aW5maWxlLm1hZT4nLCAnLW9tYWUnLCAnPG91dGZpbGUubWFlPic=

> <r_lp_tautomer_probability>
0.156392

> <r_epik_Ionization_Penalty>
0.0140222

> <r_epik_Ionization_Penalty_Charging>
0.0138986

> <r_epik_Ionization_Penalty_Neutral>
0.000123575

> <r_epik_State_Penalty>
1.53084

> <r_epik_Charging_Adjusted_Penalty>
1.54474

> <i_epik_Tot_Q>
0

> <i_epik_Tot_abs_Q>
0

> <r_epik_Metal_State_Penalty>
1.70646

> <b_epik_Metal_Only>
0

> <s_lp_Force_Field>
OPLS_2005

> <r_lp_Energy>
27.031

> <b_lp_Chiralities_Consistent>
1

> <s_lp_Variant>
AV-unprocessed.smi:1361-2

> <Gold.Version>
5.8.1

> <Gold.Id.Protein>
6NUR|6NUR_protein|mol2

> <Gold.PLP.Fitness>
47.5982

> <Gold.PLP.PLP>
-39.2719

> <Gold.PLP.part.hbond>
-2.9644

> <Gold.PLP.part.metal>
0.0000

> <Gold.PLP.part.buried>
-2.4037

> <Gold.PLP.part.nonpolar>
-33.6086

> <Gold.PLP.part.repulsive>
0.2024

> <Gold.PLP.ligand.clash>
0.0000

> <Gold.PLP.ligand.torsion>
0.2954

> <Gold.PLP.Chemscore.Hbond>
2.9600

> <Gold.PLP.Chemscore.CHOScore>
0.0000

> <Gold.PLP.Chemscore.Metal>
0.0000

> <Gold.Chemscore.Hbonds>
donor molecule, donor type, donor heavy atom, donor atom, acceptor molecule, acceptor atom, score
      P1  H  7989  7998       L1    21  0.94
      P1  H  7997  8008       L1     9  1.00
      P1  H  7997  8009       L1    20  0.78

> <Gold.PLP.Chemscore.Internal.Correction>
0.0369

> <Gold.Rescore>
     Score         DG    S(hbond)    S(metal)    S(lipo)     H(rot)  DE(clash)    DE(int)     intcor
     22.51     -23.20       2.59        0.00     109.57       1.47       0.59       0.10       ----

> <Gold.Chemscore.Fitness>
22.5127

> <Gold.Chemscore.DG>
-23.1982

> <Gold.Chemscore.ZeroCoef>
-5.4800

> <Gold.Chemscore.Hbond>
2.5927

> <Gold.Chemscore.Metal>
0.0000

> <Gold.Chemscore.Lipo>
109.5653

> <Gold.Chemscore.Internal_Hbond>
0.0000

> <Gold.Chemscore.DEClash>
0.5898

> <Gold.Chemscore.DEInternal>
0.0958

> <Gold.Chemscore.Rot>
1.4690

> <Gold.Chemscore.Internal.Correction>
   9.000000E+99

> <Gold.Chemscore.Hbonds>
donor molecule, donor type, donor heavy atom, donor atom, acceptor molecule, acceptor atom, score
      P1  H  7989  7998       L1    21  0.69
      P1  H  7997  8008       L1     9  0.76
      P1  H  7997  8009       L1    20  0.77

> <Gold.Chemscore.Hbond.Weighted>
-8.6598

> <Gold.Chemscore.Metal.Weighted>
-0.0000

> <Gold.Chemscore.Lipo.Weighted>
-12.8191

> <Gold.Chemscore.Internal_Hbond.Weighted>
0.0000

> <Gold.Chemscore.DEClash.Weighted>
0.5898

> <Gold.Chemscore.DEInternal.Weighted>
0.0958

> <Gold.Chemscore.Rot.Weighted>
3.7607

> <Gold.Chemscore.Internal.Correction.Weighted>
   9.000000E+99

> <Gold.Protein.RotatedTorsions>
[ 6907 6896 6895 6894 ] final   78.48 input  -60.11 | X-H torsion
[ 7974 7965 7964 7962 ] final  106.72 input  175.53 | X-H torsion
[ 8008 7997 7996 7995 ] final -134.27 input   59.86 | X-H torsion
[ 10167 10162 10161 10158 ] final    0.70 input  -65.29 | X-H torsion
[ 10718 10713 10712 10709 ] final  135.14 input   66.30 | X-H torsion
[ 10763 10752 10751 10750 ] final   89.69 input  -60.55 | X-H torsion
[ 11005 11000 10999 10996 ] final -142.22 input  -57.11 | X-H torsion

> <Gold.Protein.ActiveResidues>
 VAL166  LYS551  ARG553  GLY616  TRP617  ASP618  TYR619  PRO620  LYS621  CYS622 
 ASP623  PHE694  ASN695  SER759  ASP760  ASP761  ALA762  ILE779  LEU786  VAL792 
 PHE793  MET794  SER795  GLU796  ALA797  LYS798  CYS799  TRP800  GLU811  SER814 

> <Gold.Protein.RotatedAtoms>
  152.5161  134.3657  159.9300 H   0  0  0  0  0  0  0  0  0  0  0  0  # atno 6907 bound_to 6896
  151.3610  133.3883  159.2697 H   0  0  0  0  0  0  0  0  0  0  0  0  # atno 6908 bound_to 6896
  150.9652  134.9053  159.7813 H   0  0  0  0  0  0  0  0  0  0  0  0  # atno 6909 bound_to 6896
  145.3029  139.2564  143.3804 H   0  0  0  0  0  0  0  0  0  0  0  0  # atno 7974 bound_to 7965
  155.3593  140.0482  157.3046 H   0  0  0  0  0  0  0  0  0  0  0  0  # atno 8008 bound_to 7997
  154.5186  140.2217  155.8981 H   0  0  0  0  0  0  0  0  0  0  0  0  # atno 8009 bound_to 7997
  156.1665  140.3105  155.8903 H   0  0  0  0  0  0  0  0  0  0  0  0  # atno 8010 bound_to 7997
  140.6716  143.7031  150.7936 H   0  0  0  0  0  0  0  0  0  0  0  0  # atno 10167 bound_to 10162
  157.4601  131.1073  150.9930 H   0  0  0  0  0  0  0  0  0  0  0  0  # atno 10718 bound_to 10713
  153.1897  135.4461  155.0134 H   0  0  0  0  0  0  0  0  0  0  0  0  # atno 10763 bound_to 10752
  154.8083  135.3283  154.7377 H   0  0  0  0  0  0  0  0  0  0  0  0  # atno 10764 bound_to 10752
  153.7832  135.6976  153.4940 H   0  0  0  0  0  0  0  0  0  0  0  0  # atno 10765 bound_to 10752
  140.8247  134.2589  157.4884 H   0  0  0  0  0  0  0  0  0  0  0  0  # atno 11005 bound_to 11000
  146.3145  140.3547  142.8659 LP  0  0  0  0  0  0  0  0  0  0  0  0  # atno 17320 bound_to 7965
  144.9079  140.7721  143.5826 LP  0  0  0  0  0  0  0  0  0  0  0  0  # atno 17321 bound_to 7965
  140.0718  143.5054  152.2576 LP  0  0  0  0  0  0  0  0  0  0  0  0  # atno 17342 bound_to 10162
  139.5988  144.7576  151.3222 LP  0  0  0  0  0  0  0  0  0  0  0  0  # atno 17343 bound_to 10162
  157.0730  130.5872  149.5406 LP  0  0  0  0  0  0  0  0  0  0  0  0  # atno 17370 bound_to 10713
  156.0025  130.5106  150.7713 LP  0  0  0  0  0  0  0  0  0  0  0  0  # atno 17371 bound_to 10713
  139.8707  134.9554  156.4205 LP  0  0  0  0  0  0  0  0  0  0  0  0  # atno 17394 bound_to 11000
  140.9062  133.7744  155.9738 LP  0  0  0  0  0  0  0  0  0  0  0  0  # atno 17395 bound_to 11000

$$$$
