AV-unprocessed.smi:623|AV-procd|sdf|3091|dock8
  -GOLD-   22720 0 13D 1   1.00000     0.00000
 Structure written by MMmdl.
 45 47  0  0  0  0  0  0  0  0  1 V2000
  151.6110  142.5605  161.2254 C   0  0  0  0  0  0  0  0  0  0  0  0
  151.7996  143.7510  160.2439 C   0  0  0  0  0  0  0  0  0  0  0  0
  152.0862  144.9863  161.1436 C   0  0  0  0  0  0  0  0  0  0  0  0
  152.8591  143.5096  159.1500 C   0  0  2  0  0  0  0  0  0  0  0  0
  152.7509  144.7630  158.2535 C   0  0  0  0  0  0  0  0  0  0  0  0
  151.2432  145.0807  158.3026 C   0  0  0  0  0  0  0  0  0  0  0  0
  150.6793  143.9308  159.1829 C   0  0  2  0  0  0  0  0  0  0  0  0
  149.2761  144.2308  159.7386 C   0  0  0  0  0  0  0  0  0  0  0  0
  150.7620  142.6014  158.3664 C   0  0  1  0  0  0  0  0  0  0  0  0
  150.2191  142.6874  157.0104 N   0  0  0  0  0  0  0  0  0  0  0  0
  150.2745  141.7157  156.0875 C   0  0  0  0  0  0  0  0  0  0  0  0
  150.7978  140.6192  156.2920 O   0  0  0  0  0  0  0  0  0  0  0  0
  149.6120  142.0288  154.7388 C   0  0  0  0  0  0  0  0  0  0  0  0
  148.6751  140.9819  154.3067 N   0  0  0  0  0  0  0  0  0  0  0  0
  149.0918  139.6607  154.2250 C   0  0  0  0  0  0  0  0  0  0  0  0
  148.2892  138.6499  153.8150 C   0  0  0  0  0  0  0  0  0  0  0  0
  146.9072  138.9144  153.4290 C   0  0  0  0  0  0  0  0  0  0  0  0
  146.1032  138.0674  153.0459 O   0  0  0  0  0  0  0  0  0  0  0  0
  146.5264  140.2557  153.5233 N   0  0  0  0  0  0  0  0  0  0  0  0
  147.3490  141.3022  153.9427 C   0  0  0  0  0  0  0  0  0  0  0  0
  146.9136  142.4526  153.9832 O   0  0  0  0  0  0  0  0  0  0  0  0
  152.2830  142.3276  158.3396 C   0  0  0  0  0  0  0  0  0  0  0  0
  145.5785  140.4870  153.2637 H   0  0  0  0  0  0  0  0  0  0  0  0
  152.5054  142.4208  161.8331 H   0  0  0  0  0  0  0  0  0  0  0  0
  151.4075  141.6004  160.7573 H   0  0  0  0  0  0  0  0  0  0  0  0
  150.7855  142.7520  161.9115 H   0  0  0  0  0  0  0  0  0  0  0  0
  152.2636  145.9173  160.6101 H   0  0  0  0  0  0  0  0  0  0  0  0
  152.9700  144.8142  161.7587 H   0  0  0  0  0  0  0  0  0  0  0  0
  151.2551  145.1713  161.8246 H   0  0  0  0  0  0  0  0  0  0  0  0
  153.8690  143.3277  159.5189 H   0  0  0  0  0  0  0  0  0  0  0  0
  153.3431  145.5905  158.6448 H   0  0  0  0  0  0  0  0  0  0  0  0
  153.0974  144.5748  157.2367 H   0  0  0  0  0  0  0  0  0  0  0  0
  151.0671  146.0549  158.7590 H   0  0  0  0  0  0  0  0  0  0  0  0
  150.7995  145.1358  157.3090 H   0  0  0  0  0  0  0  0  0  0  0  0
  148.5586  144.3815  158.9321 H   0  0  0  0  0  0  0  0  0  0  0  0
  149.2735  145.1343  160.3482 H   0  0  0  0  0  0  0  0  0  0  0  0
  148.9099  143.4110  160.3564 H   0  0  0  0  0  0  0  0  0  0  0  0
  150.2603  141.7908  158.8971 H   0  0  0  0  0  0  0  0  0  0  0  0
  149.7635  143.5525  156.7585 H   0  0  0  0  0  0  0  0  0  0  0  0
  149.0925  142.9837  154.8307 H   0  0  0  0  0  0  0  0  0  0  0  0
  150.3783  142.1903  153.9778 H   0  0  0  0  0  0  0  0  0  0  0  0
  150.1102  139.4200  154.4957 H   0  0  0  0  0  0  0  0  0  0  0  0
  148.6724  137.6407  153.7705 H   0  0  0  0  0  0  0  0  0  0  0  0
  152.6937  142.2886  157.3294 H   0  0  0  0  0  0  0  0  0  0  0  0
  152.5178  141.3713  158.8073 H   0  0  0  0  0  0  0  0  0  0  0  0
  1  2  1  0  0  0  0
  1 24  1  0  0  0  0
  1 25  1  0  0  0  0
  1 26  1  0  0  0  0
  2  7  1  0  0  0  0
  2  3  1  0  0  0  0
  2  4  1  0  0  0  0
  3 27  1  0  0  0  0
  3 28  1  0  0  0  0
  3 29  1  0  0  0  0
  4 22  1  0  0  0  0
  4  5  1  0  0  0  0
  4 30  1  0  0  0  0
  5  6  1  0  0  0  0
  5 31  1  0  0  0  0
  5 32  1  0  0  0  0
  6  7  1  0  0  0  0
  6 33  1  0  0  0  0
  6 34  1  0  0  0  0
  7  8  1  0  0  0  0
  7  9  1  0  0  0  0
  8 35  1  0  0  0  0
  8 36  1  0  0  0  0
  8 37  1  0  0  0  0
  9 10  1  0  0  0  0
  9 22  1  0  0  0  0
  9 38  1  0  0  0  0
 10 11  1  0  0  0  0
 10 39  1  0  0  0  0
 11 12  2  0  0  0  0
 11 13  1  0  0  0  0
 13 14  1  0  0  0  0
 13 40  1  0  0  0  0
 13 41  1  0  0  0  0
 14 20  1  0  0  0  0
 14 15  1  0  0  0  0
 15 16  2  0  0  0  0
 15 42  1  0  0  0  0
 16 17  1  0  0  0  0
 16 43  1  0  0  0  0
 17 18  2  0  0  0  0
 17 19  1  0  0  0  0
 19 23  1  0  0  0  0
 19 20  1  0  0  0  0
 20 21  2  0  0  0  0
 22 44  1  0  0  0  0
 22 45  1  0  0  0  0
M  END
> <s_m_source_file>
AV-unprocessed.smi

> <i_m_source_file_index>
623

> <i_lp_mmshare_version>
43012

> <i_f3d_flags>
0

> <s_epik_input>
W0NIM11bQ0BdMTJDKFtDSDNdKShbQ0gzXSlbQ0BIXShbQ0gyXVtDSDJdMSlbQ0gyXVtDQEBIXTJbTkhdQyg9TylbQ0gyXW4zW2NIXVtjSF1jKD1PKVtuSF1jMz1P

> <s_epik_cmdline>
J2VwaWtfcHl0aG9uJywgJy1waCcsICc3LjAnLCAnLXRuJywgJzgnLCAnLW1hJywgJzIwMCcsICctbWV0YWxfYmluZGluZycsICctaW1hZScsICc8aW5maWxlLm1hZT4nLCAnLW9tYWUnLCAnPG91dGZpbGUubWFlPic=

> <r_lp_tautomer_probability>
0.999537

> <r_epik_Ionization_Penalty>
0.00303563

> <r_epik_Ionization_Penalty_Charging>
0.00303561

> <r_epik_Ionization_Penalty_Neutral>
2.03238e-08

> <r_epik_State_Penalty>
0.00213308

> <r_epik_Charging_Adjusted_Penalty>
0.00516869

> <i_epik_Tot_Q>
0

> <i_epik_Tot_abs_Q>
0

> <r_epik_Metal_State_Penalty>
0.361714

> <b_epik_Metal_Only>
0

> <s_lp_Force_Field>
OPLS_2005

> <r_lp_Energy>
55.109

> <b_lp_Chiralities_Consistent>
1

> <s_lp_Variant>
AV-unprocessed.smi:623-1

> <Gold.Version>
5.8.1

> <Gold.Id.Protein>
6NUR|6NUR_protein|mol2

> <Gold.PLP.Fitness>
43.2438

> <Gold.PLP.PLP>
-37.5279

> <Gold.PLP.part.hbond>
-2.0000

> <Gold.PLP.part.metal>
0.0000

> <Gold.PLP.part.buried>
0.2341

> <Gold.PLP.part.nonpolar>
-36.4680

> <Gold.PLP.part.repulsive>
0.4187

> <Gold.PLP.ligand.clash>
0.0000

> <Gold.PLP.ligand.torsion>
0.1490

> <Gold.PLP.Chemscore.Hbond>
2.0000

> <Gold.PLP.Chemscore.CHOScore>
0.0000

> <Gold.PLP.Chemscore.Metal>
0.0000

> <Gold.Chemscore.Hbonds>
donor molecule, donor type, donor heavy atom, donor atom, acceptor molecule, acceptor atom, score
      L1  H    10    39       P1  8028  1.00
      L1  H    19    23       P1 10175  0.96

> <Gold.PLP.Chemscore.Internal.Correction>
0.0139

> <Gold.Rescore>
     Score         DG    S(hbond)    S(metal)    S(lipo)     H(rot)  DE(clash)    DE(int)     intcor
     16.89     -22.25       1.87        0.00     126.40       1.66       3.84       1.52       ----

> <Gold.Chemscore.Fitness>
16.8908

> <Gold.Chemscore.DG>
-22.2502

> <Gold.Chemscore.ZeroCoef>
-5.4800

> <Gold.Chemscore.Hbond>
1.8692

> <Gold.Chemscore.Metal>
0.0000

> <Gold.Chemscore.Lipo>
126.4006

> <Gold.Chemscore.Internal_Hbond>
0.0000

> <Gold.Chemscore.DEClash>
3.8368

> <Gold.Chemscore.DEInternal>
1.5226

> <Gold.Chemscore.Rot>
1.6647

> <Gold.Chemscore.Internal.Correction>
   9.000000E+99

> <Gold.Chemscore.Hbonds>
donor molecule, donor type, donor heavy atom, donor atom, acceptor molecule, acceptor atom, score
      L1  H    10    39       P1  8028  0.99
      L1  H    19    23       P1 10175  0.85

> <Gold.Chemscore.Hbond.Weighted>
-6.2430

> <Gold.Chemscore.Metal.Weighted>
-0.0000

> <Gold.Chemscore.Lipo.Weighted>
-14.7889

> <Gold.Chemscore.Internal_Hbond.Weighted>
0.0000

> <Gold.Chemscore.DEClash.Weighted>
3.8368

> <Gold.Chemscore.DEInternal.Weighted>
1.5226

> <Gold.Chemscore.Rot.Weighted>
4.2617

> <Gold.Chemscore.Internal.Correction.Weighted>
   9.000000E+99

> <Gold.Protein.RotatedTorsions>
[ 6907 6896 6895 6894 ] final  -58.17 input  -60.11 | X-H torsion
[ 7974 7965 7964 7962 ] final  139.70 input  175.53 | X-H torsion
[ 8008 7997 7996 7995 ] final  137.42 input   59.86 | X-H torsion
[ 10167 10162 10161 10158 ] final -132.98 input  -65.29 | X-H torsion
[ 10718 10713 10712 10709 ] final  -46.34 input   66.30 | X-H torsion
[ 10763 10752 10751 10750 ] final  161.38 input  -60.55 | X-H torsion
[ 11005 11000 10999 10996 ] final   71.93 input  -57.11 | X-H torsion

> <Gold.Protein.ActiveResidues>
 VAL166  LYS551  ARG553  GLY616  TRP617  ASP618  TYR619  PRO620  LYS621  CYS622 
 ASP623  PHE694  ASN695  SER759  ASP760  ASP761  ALA762  ILE779  LEU786  VAL792 
 PHE793  MET794  SER795  GLU796  ALA797  LYS798  CYS799  TRP800  GLU811  SER814 

> <Gold.Protein.RotatedAtoms>
  150.8028  134.7133  159.6616 H   0  0  0  0  0  0  0  0  0  0  0  0  # atno 6907 bound_to 6896
  152.4146  134.6061  160.0023 H   0  0  0  0  0  0  0  0  0  0  0  0  # atno 6908 bound_to 6896
  151.6294  133.3296  159.3141 H   0  0  0  0  0  0  0  0  0  0  0  0  # atno 6909 bound_to 6896
  144.9255  139.5113  143.5643 H   0  0  0  0  0  0  0  0  0  0  0  0  # atno 7974 bound_to 7965
  156.3002  140.2420  156.3906 H   0  0  0  0  0  0  0  0  0  0  0  0  # atno 8008 bound_to 7997
  154.8617  140.0419  157.1689 H   0  0  0  0  0  0  0  0  0  0  0  0  # atno 8009 bound_to 7997
  154.8889  140.2960  155.5386 H   0  0  0  0  0  0  0  0  0  0  0  0  # atno 8010 bound_to 7997
  139.9030  143.6585  152.2591 H   0  0  0  0  0  0  0  0  0  0  0  0  # atno 10167 bound_to 10162
  156.2192  130.4165  149.9014 H   0  0  0  0  0  0  0  0  0  0  0  0  # atno 10718 bound_to 10713
  154.2621  135.2768  155.2773 H   0  0  0  0  0  0  0  0  0  0  0  0  # atno 10763 bound_to 10752
  154.5375  135.5712  153.6814 H   0  0  0  0  0  0  0  0  0  0  0  0  # atno 10764 bound_to 10752
  152.9960  135.6243  154.2772 H   0  0  0  0  0  0  0  0  0  0  0  0  # atno 10765 bound_to 10752
  139.9517  134.7215  156.0847 H   0  0  0  0  0  0  0  0  0  0  0  0  # atno 11005 bound_to 11000
  146.3224  139.8166  142.8935 LP  0  0  0  0  0  0  0  0  0  0  0  0  # atno 17320 bound_to 7965
  145.3227  141.0248  143.3491 LP  0  0  0  0  0  0  0  0  0  0  0  0  # atno 17321 bound_to 7965
  139.7008  144.7635  151.1276 LP  0  0  0  0  0  0  0  0  0  0  0  0  # atno 17342 bound_to 10162
  140.7702  143.5460  150.9258 LP  0  0  0  0  0  0  0  0  0  0  0  0  # atno 17343 bound_to 10162
  156.6666  130.8803  151.3556 LP  0  0  0  0  0  0  0  0  0  0  0  0  # atno 17370 bound_to 10713
  157.7079  130.9406  150.0991 LP  0  0  0  0  0  0  0  0  0  0  0  0  # atno 17371 bound_to 10713
  141.1181  133.6621  156.3145 LP  0  0  0  0  0  0  0  0  0  0  0  0  # atno 17394 bound_to 11000
  140.5703  134.5847  157.5456 LP  0  0  0  0  0  0  0  0  0  0  0  0  # atno 17395 bound_to 11000

$$$$
