AV-unprocessed.smi:2496|AV-procd|sdf|9827|dock1
  -GOLD-   2272013453D 1   1.00000     0.00000
 Structure written by MMmdl.
 40 40  0  0  0  0  0  0  0  0  1 V2000
  152.5709  138.4470  159.2431 C   0  0  0  0  0  0  0  0  0  0  0  0
  151.2039  138.0510  158.7629 C   0  0  0  0  0  0  0  0  0  0  0  0
  150.6881  136.8984  159.1603 N   0  0  0  0  0  0  0  0  0  0  0  0
  149.4897  136.8563  158.5547 N   0  0  0  0  0  0  0  0  0  0  0  0
  149.2363  137.9615  157.7769 C   0  0  0  0  0  0  0  0  0  0  0  0
  147.9614  138.1020  157.0121 C   0  0  0  0  0  0  0  0  0  0  0  0
  150.3364  138.7739  157.8869 C   0  0  0  0  0  0  0  0  0  0  0  0
  150.6164  140.1165  157.2401 C   0  0  2  0  0  0  0  0  0  0  0  0
  151.8907  140.0780  156.3756 C   0  0  0  0  0  0  0  0  0  0  0  0
  150.6492  141.2148  158.3165 C   0  0  0  0  0  0  0  0  0  0  0  0
  149.6063  141.6848  158.7729 O   0  0  0  0  0  0  0  0  0  0  0  0
  151.8690  141.6175  158.7088 N   0  0  0  0  0  0  0  0  0  0  0  0
  152.1571  142.6993  159.6478 C   0  0  1  0  0  0  0  0  0  0  0  0
  153.6780  142.7579  159.8768 C   0  0  0  0  0  0  0  0  0  0  0  0
  151.5589  144.0306  159.1206 C   0  0  0  0  0  0  0  0  0  0  0  0
  152.1206  144.4187  157.7410 C   0  0  0  0  0  0  0  0  0  0  0  0
  151.7676  145.1972  160.1071 C   0  0  0  0  0  0  0  0  0  0  0  0
  148.8619  136.0745  158.6778 H   0  0  0  0  0  0  0  0  0  0  0  0
  153.2510  138.5890  158.4031 H   0  0  0  0  0  0  0  0  0  0  0  0
  153.0068  137.6917  159.8980 H   0  0  0  0  0  0  0  0  0  0  0  0
  152.5304  139.3830  159.8002 H   0  0  0  0  0  0  0  0  0  0  0  0
  148.1419  138.5235  156.0234 H   0  0  0  0  0  0  0  0  0  0  0  0
  147.2673  138.7570  157.5381 H   0  0  0  0  0  0  0  0  0  0  0  0
  147.4749  137.1358  156.8765 H   0  0  0  0  0  0  0  0  0  0  0  0
  149.7968  140.3827  156.5718 H   0  0  0  0  0  0  0  0  0  0  0  0
  152.7784  139.8502  156.9657 H   0  0  0  0  0  0  0  0  0  0  0  0
  152.0605  141.0333  155.8778 H   0  0  0  0  0  0  0  0  0  0  0  0
  151.8075  139.3180  155.5983 H   0  0  0  0  0  0  0  0  0  0  0  0
  152.6665  141.1699  158.2804 H   0  0  0  0  0  0  0  0  0  0  0  0
  151.6797  142.4780  160.6043 H   0  0  0  0  0  0  0  0  0  0  0  0
  153.9427  143.4687  160.6589 H   0  0  0  0  0  0  0  0  0  0  0  0
  154.2053  143.0470  158.9671 H   0  0  0  0  0  0  0  0  0  0  0  0
  154.0645  141.7873  160.1895 H   0  0  0  0  0  0  0  0  0  0  0  0
  150.4823  143.8953  159.0063 H   0  0  0  0  0  0  0  0  0  0  0  0
  153.2060  144.5190  157.7697 H   0  0  0  0  0  0  0  0  0  0  0  0
  151.7092  145.3709  157.4045 H   0  0  0  0  0  0  0  0  0  0  0  0
  151.8711  143.6820  156.9780 H   0  0  0  0  0  0  0  0  0  0  0  0
  152.8264  145.3505  160.3184 H   0  0  0  0  0  0  0  0  0  0  0  0
  151.2600  145.0255  161.0567 H   0  0  0  0  0  0  0  0  0  0  0  0
  151.3722  146.1293  159.7028 H   0  0  0  0  0  0  0  0  0  0  0  0
  1  2  1  0  0  0  0
  1 19  1  0  0  0  0
  1 20  1  0  0  0  0
  1 21  1  0  0  0  0
  2  7  1  0  0  0  0
  2  3  2  0  0  0  0
  3  4  1  0  0  0  0
  4 18  1  0  0  0  0
  4  5  1  0  0  0  0
  5  6  1  0  0  0  0
  5  7  2  0  0  0  0
  6 22  1  0  0  0  0
  6 23  1  0  0  0  0
  6 24  1  0  0  0  0
  7  8  1  0  0  0  0
  8  9  1  0  0  0  0
  8 10  1  0  0  0  0
  8 25  1  0  0  0  0
  9 26  1  0  0  0  0
  9 27  1  0  0  0  0
  9 28  1  0  0  0  0
 10 11  2  0  0  0  0
 10 12  1  0  0  0  0
 12 13  1  0  0  0  0
 12 29  1  0  0  0  0
 13 14  1  0  0  0  0
 13 15  1  0  0  0  0
 13 30  1  0  0  0  0
 14 31  1  0  0  0  0
 14 32  1  0  0  0  0
 14 33  1  0  0  0  0
 15 16  1  0  0  0  0
 15 17  1  0  0  0  0
 15 34  1  0  0  0  0
 16 35  1  0  0  0  0
 16 36  1  0  0  0  0
 16 37  1  0  0  0  0
 17 38  1  0  0  0  0
 17 39  1  0  0  0  0
 17 40  1  0  0  0  0
M  END
> <s_m_source_file>
AV-unprocessed.smi

> <i_m_source_file_index>
2496

> <i_lp_mmshare_version>
43012

> <i_f3d_flags>
0

> <s_epik_input>
W0NIM11jMW5bbkhdYyhbQ0gzXSljMVtDQEhdKFtDSDNdKUMoPU8pW05IXVtDQEhdKFtDSDNdKVtDSF0oW0NIM10pW0NIM10=

> <s_epik_cmdline>
J2VwaWtfcHl0aG9uJywgJy1waCcsICc3LjAnLCAnLXRuJywgJzgnLCAnLW1hJywgJzIwMCcsICctbWV0YWxfYmluZGluZycsICctaW1hZScsICc8aW5maWxlLm1hZT4nLCAnLW9tYWUnLCAnPG91dGZpbGUubWFlPic=

> <r_lp_tautomer_probability>
1

> <r_epik_Ionization_Penalty>
0.000456212

> <r_epik_Ionization_Penalty_Charging>
0

> <r_epik_Ionization_Penalty_Neutral>
0.000456212

> <r_epik_State_Penalty>
-0

> <r_epik_Charging_Adjusted_Penalty>
0

> <i_epik_Tot_Q>
0

> <i_epik_Tot_abs_Q>
0

> <r_epik_Metal_State_Penalty>
-0

> <b_epik_Metal_Only>
0

> <s_lp_Force_Field>
OPLS_2005

> <r_lp_Energy>
1.42294

> <b_lp_Chiralities_Consistent>
1

> <s_lp_Variant>
AV-unprocessed.smi:2496-3

> <Gold.Version>
5.8.1

> <Gold.Id.Protein>
6NUR|6NUR_protein|mol2

> <Gold.PLP.Fitness>
33.6491

> <Gold.PLP.PLP>
-31.8661

> <Gold.PLP.part.hbond>
-2.0000

> <Gold.PLP.part.metal>
0.0000

> <Gold.PLP.part.buried>
-5.1698

> <Gold.PLP.part.nonpolar>
-25.2331

> <Gold.PLP.part.repulsive>
0.2839

> <Gold.PLP.ligand.clash>
0.0000

> <Gold.PLP.ligand.torsion>
0.6827

> <Gold.PLP.Chemscore.Hbond>
1.0000

> <Gold.PLP.Chemscore.CHOScore>
0.0000

> <Gold.PLP.Chemscore.Metal>
0.0000

> <Gold.Chemscore.Hbonds>
donor molecule, donor type, donor heavy atom, donor atom, acceptor molecule, acceptor atom, score
      P1  H  6896  6907       L1     3  1.00

> <Gold.PLP.Chemscore.Internal.Correction>
0.1484

> <Gold.Rescore>
     Score         DG    S(hbond)    S(metal)    S(lipo)     H(rot)  DE(clash)    DE(int)     intcor
     13.90     -14.63       0.96        0.00      82.81       1.47       0.07       0.65       ----

> <Gold.Chemscore.Fitness>
13.9050

> <Gold.Chemscore.DG>
-14.6267

> <Gold.Chemscore.ZeroCoef>
-5.4800

> <Gold.Chemscore.Hbond>
0.9615

> <Gold.Chemscore.Metal>
0.0000

> <Gold.Chemscore.Lipo>
82.8094

> <Gold.Chemscore.Internal_Hbond>
0.0000

> <Gold.Chemscore.DEClash>
0.0724

> <Gold.Chemscore.DEInternal>
0.6493

> <Gold.Chemscore.Rot>
1.4662

> <Gold.Chemscore.Internal.Correction>
   9.000000E+99

> <Gold.Chemscore.Hbonds>
donor molecule, donor type, donor heavy atom, donor atom, acceptor molecule, acceptor atom, score
      P1  H  6896  6907       L1     3  0.68

> <Gold.Chemscore.Hbond.Weighted>
-3.2114

> <Gold.Chemscore.Metal.Weighted>
-0.0000

> <Gold.Chemscore.Lipo.Weighted>
-9.6887

> <Gold.Chemscore.Internal_Hbond.Weighted>
0.0000

> <Gold.Chemscore.DEClash.Weighted>
0.0724

> <Gold.Chemscore.DEInternal.Weighted>
0.6493

> <Gold.Chemscore.Rot.Weighted>
3.7534

> <Gold.Chemscore.Internal.Correction.Weighted>
   9.000000E+99

> <Gold.Protein.RotatedTorsions>
[ 6907 6896 6895 6894 ] final  -26.93 input  -60.11 | X-H torsion
[ 7974 7965 7964 7962 ] final   81.27 input  175.53 | X-H torsion
[ 8008 7997 7996 7995 ] final   61.64 input   59.86 | X-H torsion
[ 10167 10162 10161 10158 ] final  168.35 input  -65.29 | X-H torsion
[ 10718 10713 10712 10709 ] final -119.32 input   66.30 | X-H torsion
[ 10763 10752 10751 10750 ] final  170.42 input  -60.55 | X-H torsion
[ 11005 11000 10999 10996 ] final  -49.99 input  -57.11 | X-H torsion

> <Gold.Protein.ActiveResidues>
 VAL166  LYS551  ARG553  GLY616  TRP617  ASP618  TYR619  PRO620  LYS621  CYS622 
 ASP623  PHE694  ASN695  SER759  ASP760  ASP761  ALA762  ILE779  LEU786  VAL792 
 PHE793  MET794  SER795  GLU796  ALA797  LYS798  CYS799  TRP800  GLU811  SER814 

> <Gold.Protein.RotatedAtoms>
  151.1540  135.0241  159.8680 H   0  0  0  0  0  0  0  0  0  0  0  0  # atno 6907 bound_to 6896
  152.5452  134.1356  159.8467 H   0  0  0  0  0  0  0  0  0  0  0  0  # atno 6908 bound_to 6896
  151.1444  133.4903  159.2629 H   0  0  0  0  0  0  0  0  0  0  0  0  # atno 6909 bound_to 6896
  145.6404  139.2424  143.2034 H   0  0  0  0  0  0  0  0  0  0  0  0  # atno 7974 bound_to 7965
  155.6016  140.3494  155.4595 H   0  0  0  0  0  0  0  0  0  0  0  0  # atno 8008 bound_to 7997
  156.0224  140.1256  157.0368 H   0  0  0  0  0  0  0  0  0  0  0  0  # atno 8009 bound_to 7997
  154.4320  140.1060  156.5969 H   0  0  0  0  0  0  0  0  0  0  0  0  # atno 8010 bound_to 7997
  139.4966  144.3824  151.9608 H   0  0  0  0  0  0  0  0  0  0  0  0  # atno 10167 bound_to 10162
  156.1172  130.6295  150.9401 H   0  0  0  0  0  0  0  0  0  0  0  0  # atno 10718 bound_to 10713
  154.3974  135.2754  155.2118 H   0  0  0  0  0  0  0  0  0  0  0  0  # atno 10763 bound_to 10752
  154.4158  135.6011  153.5984 H   0  0  0  0  0  0  0  0  0  0  0  0  # atno 10764 bound_to 10752
  152.9831  135.5960  154.4237 H   0  0  0  0  0  0  0  0  0  0  0  0  # atno 10765 bound_to 10752
  141.0791  133.6658  156.3666 H   0  0  0  0  0  0  0  0  0  0  0  0  # atno 11005 bound_to 11000
  146.1285  140.7216  142.9423 LP  0  0  0  0  0  0  0  0  0  0  0  0  # atno 17320 bound_to 7965
  144.7160  140.4209  143.7044 LP  0  0  0  0  0  0  0  0  0  0  0  0  # atno 17321 bound_to 7965
  140.3260  144.3372  150.5998 LP  0  0  0  0  0  0  0  0  0  0  0  0  # atno 17342 bound_to 10162
  140.5684  143.2183  151.7643 LP  0  0  0  0  0  0  0  0  0  0  0  0  # atno 17343 bound_to 10162
  157.6355  131.0916  150.8356 LP  0  0  0  0  0  0  0  0  0  0  0  0  # atno 17370 bound_to 10713
  156.8458  130.5063  149.5316 LP  0  0  0  0  0  0  0  0  0  0  0  0  # atno 17371 bound_to 10713
  140.5509  134.6029  157.5407 LP  0  0  0  0  0  0  0  0  0  0  0  0  # atno 17394 bound_to 11000
  139.9604  134.7463  156.0250 LP  0  0  0  0  0  0  0  0  0  0  0  0  # atno 17395 bound_to 11000

$$$$
