AV-unprocessed.smi:2037|AV-procd|sdf|8278|dock1
  -GOLD-   2272010543D 1   1.00000     0.00000
 Structure written by MMmdl.
 38 39  0  0  0  0  0  0  0  0  3 V2000
  150.4973  141.3927  156.0220 C   0  0  0  0  0  0  0  0  0  0  0  0
  149.2986  140.7346  155.3247 C   0  0  2  0  0  0  0  0  0  0  0  0
  149.7150  139.4852  154.5317 C   0  0  0  0  0  0  0  0  0  0  0  0
  148.5085  138.8487  153.8214 C   0  0  0  0  0  0  0  0  0  0  0  0
  147.8294  139.8225  152.9273 N   0  3  1  0  0  0  0  0  0  0  0  0
  146.7375  139.1886  152.1460 C   0  0  0  0  0  0  0  0  0  0  0  0
  145.9927  138.1047  152.9408 C   0  0  0  0  0  0  0  0  0  0  0  0
  145.3212  137.1870  152.0314 N   0  0  0  0  0  0  0  0  0  0  0  0
  145.4332  135.8529  152.0584 C   0  0  0  0  0  0  0  0  0  0  0  0
  146.1510  135.3145  152.9042 O   0  0  0  0  0  0  0  0  0  0  0  0
  144.7065  135.2293  151.1042 N   0  5  0  0  0  0  0  0  0  0  0  0
  144.8103  133.9004  150.9398 C   0  0  0  0  0  0  0  0  0  0  0  0
  145.9307  133.3055  150.5151 N   0  0  0  0  0  0  0  0  0  0  0  0
  145.8160  131.9184  150.4059 C   0  0  0  0  0  0  0  0  0  0  0  0
  144.5768  131.4468  150.7489 C   0  0  0  0  0  0  0  0  0  0  0  0
  143.5097  132.7388  151.2203 S   0  0  0  0  0  0  0  0  0  0  0  0
  147.3935  141.0341  153.6724 C   0  0  0  0  0  0  0  0  0  0  0  0
  148.5794  141.7116  154.3804 C   0  0  0  0  0  0  0  0  0  0  0  0
  151.2477  141.7185  155.3011 H   0  0  0  0  0  0  0  0  0  0  0  0
  150.9782  140.6993  156.7126 H   0  0  0  0  0  0  0  0  0  0  0  0
  150.1863  142.2655  156.5969 H   0  0  0  0  0  0  0  0  0  0  0  0
  148.5931  140.4278  156.0986 H   0  0  0  0  0  0  0  0  0  0  0  0
  150.4742  139.7494  153.7939 H   0  0  0  0  0  0  0  0  0  0  0  0
  150.1740  138.7547  155.1990 H   0  0  0  0  0  0  0  0  0  0  0  0
  148.8504  137.9909  153.2405 H   0  0  0  0  0  0  0  0  0  0  0  0
  147.7961  138.4703  154.5561 H   0  0  0  0  0  0  0  0  0  0  0  0
  146.0126  139.9525  151.8605 H   0  0  0  0  0  0  0  0  0  0  0  0
  147.1375  138.7807  151.2160 H   0  0  0  0  0  0  0  0  0  0  0  0
  146.6808  137.5360  153.5664 H   0  0  0  0  0  0  0  0  0  0  0  0
  145.2528  138.5601  153.6007 H   0  0  0  0  0  0  0  0  0  0  0  0
  144.7233  137.5881  151.3236 H   0  0  0  0  0  0  0  0  0  0  0  0
  146.6687  131.3447  150.0748 H   0  0  0  0  0  0  0  0  0  0  0  0
  144.2276  130.4255  150.7518 H   0  0  0  0  0  0  0  0  0  0  0  0
  146.9360  141.7542  152.9955 H   0  0  0  0  0  0  0  0  0  0  0  0
  146.6301  140.7587  154.4019 H   0  0  0  0  0  0  0  0  0  0  0  0
  148.2247  142.5782  154.9392 H   0  0  0  0  0  0  0  0  0  0  0  0
  149.2799  142.0913  153.6350 H   0  0  0  0  0  0  0  0  0  0  0  0
  148.5228  140.1214  152.2565 H   0  0  0  0  0  0  0  0  0  0  0  0
  1  2  1  0  0  0  0
  1 19  1  0  0  0  0
  1 20  1  0  0  0  0
  1 21  1  0  0  0  0
  2 18  1  0  0  0  0
  2  3  1  0  0  0  0
  2 22  1  0  0  0  0
  3  4  1  0  0  0  0
  3 23  1  0  0  0  0
  3 24  1  0  0  0  0
  4  5  1  0  0  0  0
  4 25  1  0  0  0  0
  4 26  1  0  0  0  0
  5  6  1  0  0  0  0
  5 17  1  0  0  0  0
  5 38  1  0  0  0  0
  6  7  1  0  0  0  0
  6 27  1  0  0  0  0
  6 28  1  0  0  0  0
  7  8  1  0  0  0  0
  7 29  1  0  0  0  0
  7 30  1  0  0  0  0
  8  9  1  0  0  0  0
  8 31  1  0  0  0  0
  9 10  2  0  0  0  0
  9 11  1  0  0  0  0
 11 12  1  0  0  0  0
 12 16  1  0  0  0  0
 12 13  2  0  0  0  0
 13 14  1  0  0  0  0
 14 15  2  0  0  0  0
 14 32  1  0  0  0  0
 15 16  1  0  0  0  0
 15 33  1  0  0  0  0
 17 18  1  0  0  0  0
 17 34  1  0  0  0  0
 17 35  1  0  0  0  0
 18 36  1  0  0  0  0
 18 37  1  0  0  0  0
M  CHG  1   5   1
M  CHG  1  11  -1
M  END
> <s_m_source_file>
AV-unprocessed.smi

> <i_m_source_file_index>
2037

> <i_lp_mmshare_version>
43012

> <i_f3d_flags>
0

> <s_epik_input>
W0NIM11bQ0hdMVtDSDJdW0NIMl1OKFtDSDJdW0NIMl0xKVtDSDJdW0NIMl1bTkhdQyg9TylbTkhdYzJuW2NIXVtjSF1zMg==

> <s_epik_cmdline>
J2VwaWtfcHl0aG9uJywgJy1waCcsICc3LjAnLCAnLXRuJywgJzgnLCAnLW1hJywgJzIwMCcsICctbWV0YWxfYmluZGluZycsICctaW1hZScsICc8aW5maWxlLm1hZT4nLCAnLW9tYWUnLCAnPG91dGZpbGUubWFlPic=

> <r_lp_tautomer_probability>
0.999

> <r_epik_Ionization_Penalty>
6.22113

> <r_epik_Ionization_Penalty_Charging>
5.39005

> <r_epik_Ionization_Penalty_Neutral>
0.831074

> <r_epik_State_Penalty>
5.38997

> <r_epik_Charging_Adjusted_Penalty>
10.78

> <i_epik_Tot_Q>
0

> <i_epik_Tot_abs_Q>
2

> <r_epik_Metal_State_Penalty>
1.41601

> <b_epik_Metal_Only>
1

> <s_lp_Force_Field>
OPLS_2005

> <r_lp_Energy>
7.40316

> <b_lp_Chiralities_Consistent>
1

> <s_lp_Variant>
AV-unprocessed.smi:2037-3

> <Gold.Version>
5.8.1

> <Gold.Id.Protein>
6NUR|6NUR_protein|mol2

> <Gold.PLP.Fitness>
42.3340

> <Gold.PLP.PLP>
-35.3870

> <Gold.PLP.part.hbond>
-1.8890

> <Gold.PLP.part.metal>
0.0000

> <Gold.PLP.part.buried>
-4.0667

> <Gold.PLP.part.nonpolar>
-31.2521

> <Gold.PLP.part.repulsive>
0.9264

> <Gold.PLP.ligand.clash>
0.0000

> <Gold.PLP.ligand.torsion>
1.1025

> <Gold.PLP.Chemscore.Hbond>
2.0000

> <Gold.PLP.Chemscore.CHOScore>
1.0000

> <Gold.PLP.Chemscore.Metal>
0.0000

> <Gold.Chemscore.Hbonds>
donor molecule, donor type, donor heavy atom, donor atom, acceptor molecule, acceptor atom, score
      L1  H     5    38       P1  7957  1.00
      L1  H     8    31       P1 10171  1.00
      L1  C    14    32       P1 10747  1.00

> <Gold.PLP.Chemscore.Internal.Correction>
0.1522

> <Gold.Rescore>
     Score         DG    S(hbond)    S(metal)    S(lipo)     H(rot)  DE(clash)    DE(int)     intcor
     16.80     -18.11       1.96        0.00      86.17       1.57       0.17       1.14       ----

> <Gold.Chemscore.Fitness>
16.7972

> <Gold.Chemscore.DG>
-18.1096

> <Gold.Chemscore.ZeroCoef>
-5.4800

> <Gold.Chemscore.Hbond>
1.9644

> <Gold.Chemscore.Metal>
0.0000

> <Gold.Chemscore.Lipo>
86.1683

> <Gold.Chemscore.Internal_Hbond>
0.0000

> <Gold.Chemscore.DEClash>
0.1675

> <Gold.Chemscore.DEInternal>
1.1449

> <Gold.Chemscore.Rot>
1.5676

> <Gold.Chemscore.Internal.Correction>
   9.000000E+99

> <Gold.Chemscore.Hbonds>
donor molecule, donor type, donor heavy atom, donor atom, acceptor molecule, acceptor atom, score
      L1  H     5    38       P1  7957  0.93
      L1  H     8    31       P1 10171  0.96

> <Gold.Chemscore.Hbond.Weighted>
-6.5610

> <Gold.Chemscore.Metal.Weighted>
-0.0000

> <Gold.Chemscore.Lipo.Weighted>
-10.0817

> <Gold.Chemscore.Internal_Hbond.Weighted>
0.0000

> <Gold.Chemscore.DEClash.Weighted>
0.1675

> <Gold.Chemscore.DEInternal.Weighted>
1.1449

> <Gold.Chemscore.Rot.Weighted>
4.0130

> <Gold.Chemscore.Internal.Correction.Weighted>
   9.000000E+99

> <Gold.Protein.RotatedTorsions>
[ 6907 6896 6895 6894 ] final   69.97 input  -60.11 | X-H torsion
[ 7974 7965 7964 7962 ] final  170.54 input  175.53 | X-H torsion
[ 8008 7997 7996 7995 ] final -173.14 input   59.86 | X-H torsion
[ 10167 10162 10161 10158 ] final  -69.33 input  -65.29 | X-H torsion
[ 10718 10713 10712 10709 ] final -171.52 input   66.30 | X-H torsion
[ 10763 10752 10751 10750 ] final  102.22 input  -60.55 | X-H torsion
[ 11005 11000 10999 10996 ] final  -87.90 input  -57.11 | X-H torsion

> <Gold.Protein.ActiveResidues>
 VAL166  LYS551  ARG553  GLY616  TRP617  ASP618  TYR619  PRO620  LYS621  CYS622 
 ASP623  PHE694  ASN695  SER759  ASP760  ASP761  ALA762  ILE779  LEU786  VAL792 
 PHE793  MET794  SER795  GLU796  ALA797  LYS798  CYS799  TRP800  GLU811  SER814 

> <Gold.Protein.RotatedAtoms>
  152.4720  134.4937  159.9703 H   0  0  0  0  0  0  0  0  0  0  0  0  # atno 6907 bound_to 6896
  151.4962  133.3508  159.2869 H   0  0  0  0  0  0  0  0  0  0  0  0  # atno 6908 bound_to 6896
  150.8735  134.8141  159.7234 H   0  0  0  0  0  0  0  0  0  0  0  0  # atno 6909 bound_to 6896
  144.7321  139.9217  143.6420 H   0  0  0  0  0  0  0  0  0  0  0  0  # atno 7974 bound_to 7965
  155.9536  140.1131  157.0956 H   0  0  0  0  0  0  0  0  0  0  0  0  # atno 8008 bound_to 7997
  154.4115  140.1196  156.5151 H   0  0  0  0  0  0  0  0  0  0  0  0  # atno 8009 bound_to 7997
  155.6811  140.3473  155.4858 H   0  0  0  0  0  0  0  0  0  0  0  0  # atno 8010 bound_to 7997
  140.5439  143.2314  151.7039 H   0  0  0  0  0  0  0  0  0  0  0  0  # atno 10167 bound_to 10162
  156.7421  130.9346  151.3110 H   0  0  0  0  0  0  0  0  0  0  0  0  # atno 10718 bound_to 10713
  153.3368  135.4018  155.1539 H   0  0  0  0  0  0  0  0  0  0  0  0  # atno 10763 bound_to 10752
  154.8635  135.3624  154.5398 H   0  0  0  0  0  0  0  0  0  0  0  0  # atno 10764 bound_to 10752
  153.5841  135.7076  153.5510 H   0  0  0  0  0  0  0  0  0  0  0  0  # atno 10765 bound_to 10752
  141.1610  133.7538  156.9374 H   0  0  0  0  0  0  0  0  0  0  0  0  # atno 11005 bound_to 11000
  146.0924  139.3915  143.0397 LP  0  0  0  0  0  0  0  0  0  0  0  0  # atno 17320 bound_to 7965
  145.7692  140.9903  143.1158 LP  0  0  0  0  0  0  0  0  0  0  0  0  # atno 17321 bound_to 7965
  139.4999  144.3926  152.0264 LP  0  0  0  0  0  0  0  0  0  0  0  0  # atno 17342 bound_to 10162
  140.3037  144.3617  150.6053 LP  0  0  0  0  0  0  0  0  0  0  0  0  # atno 17343 bound_to 10162
  157.6814  130.9143  150.0276 LP  0  0  0  0  0  0  0  0  0  0  0  0  # atno 17370 bound_to 10713
  156.1458  130.3642  149.9513 LP  0  0  0  0  0  0  0  0  0  0  0  0  # atno 17371 bound_to 10713
  140.1345  134.9334  157.2382 LP  0  0  0  0  0  0  0  0  0  0  0  0  # atno 17394 bound_to 11000
  140.2912  134.3238  155.7314 LP  0  0  0  0  0  0  0  0  0  0  0  0  # atno 17395 bound_to 11000

$$$$
