AV-unprocessed.smi:470|AV-procd|sdf|2654|dock4
  -GOLD-   2262023 63D 1   1.00000     0.00000
 Structure written by MMmdl.
 33 34  0  0  0  0  0  0  0  0  1 V2000
  148.1175  138.6847  152.5435 N   0  0  0  0  0  0  0  0  0  0  0  0
  147.1430  139.2471  153.2637 C   0  0  0  0  0  0  0  0  0  0  0  0
  146.1753  138.6087  153.6725 O   0  0  0  0  0  0  0  0  0  0  0  0
  147.2735  140.7397  153.5721 C   0  0  0  0  0  0  0  0  0  0  0  0
  147.8693  140.9387  154.9353 C   0  0  0  0  0  0  0  0  0  0  0  0
  147.4007  140.4319  156.1233 C   0  0  0  0  0  0  0  0  0  0  0  0
  148.3845  140.9209  157.4768 S   0  0  0  0  0  0  0  0  0  0  0  0
  149.4336  141.7756  156.3566 C   0  0  0  0  0  0  0  0  0  0  0  0
  150.5490  142.5313  156.8024 N   0  0  0  0  0  0  0  0  0  0  0  0
  150.9494  142.8520  158.0499 C   0  0  0  0  0  0  0  0  0  0  0  0
  150.3084  142.4324  159.0124 O   0  0  0  0  0  0  0  0  0  0  0  0
  152.2203  143.7014  158.3001 C   0  0  2  0  0  0  0  0  0  0  0  0
  153.2555  142.9713  159.1960 C   0  0  0  0  0  0  0  0  0  0  0  0
  152.9716  143.0989  160.6843 C   0  0  0  0  0  0  0  0  0  0  0  0
  152.1227  144.0023  161.2023 C   0  0  0  0  0  0  0  0  0  0  0  0
  151.3446  144.9957  160.3593 C   0  0  0  0  0  0  0  0  0  0  0  0
  151.8755  145.0797  158.9129 C   0  0  0  0  0  0  0  0  0  0  0  0
  149.0257  141.7113  155.0854 N   0  0  0  0  0  0  0  0  0  0  0  0
  148.0666  137.7034  152.3115 H   0  0  0  0  0  0  0  0  0  0  0  0
  148.8973  139.2432  152.2277 H   0  0  0  0  0  0  0  0  0  0  0  0
  147.8975  141.2094  152.8105 H   0  0  0  0  0  0  0  0  0  0  0  0
  146.2932  141.2132  153.4998 H   0  0  0  0  0  0  0  0  0  0  0  0
  146.5314  139.8116  156.2835 H   0  0  0  0  0  0  0  0  0  0  0  0
  151.1331  142.8943  156.0632 H   0  0  0  0  0  0  0  0  0  0  0  0
  152.7245  143.8491  157.3470 H   0  0  0  0  0  0  0  0  0  0  0  0
  153.3027  141.9122  158.9384 H   0  0  0  0  0  0  0  0  0  0  0  0
  154.2527  143.3723  159.0128 H   0  0  0  0  0  0  0  0  0  0  0  0
  153.5052  142.4267  161.3401 H   0  0  0  0  0  0  0  0  0  0  0  0
  151.9573  144.0339  162.2692 H   0  0  0  0  0  0  0  0  0  0  0  0
  150.2963  144.6957  160.3637 H   0  0  0  0  0  0  0  0  0  0  0  0
  151.3922  145.9788  160.8278 H   0  0  0  0  0  0  0  0  0  0  0  0
  152.7779  145.6923  158.9062 H   0  0  0  0  0  0  0  0  0  0  0  0
  151.1542  145.6133  158.2937 H   0  0  0  0  0  0  0  0  0  0  0  0
  1  2  1  0  0  0  0
  1 19  1  0  0  0  0
  1 20  1  0  0  0  0
  2  3  2  0  0  0  0
  2  4  1  0  0  0  0
  4  5  1  0  0  0  0
  4 21  1  0  0  0  0
  4 22  1  0  0  0  0
  5 18  1  0  0  0  0
  5  6  2  0  0  0  0
  6  7  1  0  0  0  0
  6 23  1  0  0  0  0
  7  8  1  0  0  0  0
  8  9  1  0  0  0  0
  8 18  2  0  0  0  0
  9 10  1  0  0  0  0
  9 24  1  0  0  0  0
 10 11  2  0  0  0  0
 10 12  1  0  0  0  0
 12 17  1  0  0  0  0
 12 13  1  0  0  0  0
 12 25  1  0  0  0  0
 13 14  1  0  0  0  0
 13 26  1  0  0  0  0
 13 27  1  0  0  0  0
 14 15  2  0  0  0  0
 14 28  1  0  0  0  0
 15 16  1  0  0  0  0
 15 29  1  0  0  0  0
 16 17  1  0  0  0  0
 16 30  1  0  0  0  0
 16 31  1  0  0  0  0
 17 32  1  0  0  0  0
 17 33  1  0  0  0  0
M  END
> <s_m_source_file>
AV-unprocessed.smi

> <i_m_source_file_index>
470

> <i_lp_mmshare_version>
43012

> <i_f3d_flags>
0

> <s_epik_input>
W05IMl1DKD1PKVtDSDJdYzFbY0hdc2MobjEpW05IXUMoPU8pW0NAQEhdMltDSDJdW0NIXT1bQ0hdW0NIMl1bQ0gyXTI=

> <s_epik_cmdline>
J2VwaWtfcHl0aG9uJywgJy1waCcsICc3LjAnLCAnLXRuJywgJzgnLCAnLW1hJywgJzIwMCcsICctbWV0YWxfYmluZGluZycsICctaW1hZScsICc8aW5maWxlLm1hZT4nLCAnLW9tYWUnLCAnPG91dGZpbGUubWFlPic=

> <r_lp_tautomer_probability>
1

> <r_epik_Ionization_Penalty>
0.00025496

> <r_epik_Ionization_Penalty_Charging>
0

> <r_epik_Ionization_Penalty_Neutral>
0.00025496

> <r_epik_State_Penalty>
-0

> <r_epik_Charging_Adjusted_Penalty>
0

> <i_epik_Tot_Q>
0

> <i_epik_Tot_abs_Q>
0

> <r_epik_Metal_State_Penalty>
0.149391

> <b_epik_Metal_Only>
0

> <s_lp_Force_Field>
OPLS_2005

> <r_lp_Energy>
11.789

> <b_lp_Chiralities_Consistent>
1

> <s_lp_Variant>
AV-unprocessed.smi:470-1

> <Gold.Version>
5.8.1

> <Gold.Id.Protein>
6NUR|6NUR_protein|mol2

> <Gold.PLP.Fitness>
44.1629

> <Gold.PLP.PLP>
-39.3262

> <Gold.PLP.part.hbond>
-3.5701

> <Gold.PLP.part.metal>
0.0000

> <Gold.PLP.part.buried>
-6.1030

> <Gold.PLP.part.nonpolar>
-31.0682

> <Gold.PLP.part.repulsive>
0.8105

> <Gold.PLP.ligand.clash>
0.0000

> <Gold.PLP.ligand.torsion>
0.4324

> <Gold.PLP.Chemscore.Hbond>
1.8880

> <Gold.PLP.Chemscore.CHOScore>
0.0000

> <Gold.PLP.Chemscore.Metal>
0.0000

> <Gold.Chemscore.Hbonds>
donor molecule, donor type, donor heavy atom, donor atom, acceptor molecule, acceptor atom, score
      L1  H     1    19       P1  7948  0.93
      L1  H     1    20       P1  7957  0.91

> <Gold.PLP.Chemscore.Internal.Correction>
0.0374

> <Gold.Rescore>
     Score         DG    S(hbond)    S(metal)    S(lipo)     H(rot)  DE(clash)    DE(int)     intcor
     15.37     -17.14       1.87        0.00      87.69       1.90       0.01       1.76       ----

> <Gold.Chemscore.Fitness>
15.3653

> <Gold.Chemscore.DG>
-17.1425

> <Gold.Chemscore.ZeroCoef>
-5.4800

> <Gold.Chemscore.Hbond>
1.8739

> <Gold.Chemscore.Metal>
0.0000

> <Gold.Chemscore.Lipo>
87.6872

> <Gold.Chemscore.Internal_Hbond>
0.0000

> <Gold.Chemscore.DEClash>
0.0149

> <Gold.Chemscore.DEInternal>
1.7623

> <Gold.Chemscore.Rot>
1.8968

> <Gold.Chemscore.Internal.Correction>
   9.000000E+99

> <Gold.Chemscore.Hbonds>
donor molecule, donor type, donor heavy atom, donor atom, acceptor molecule, acceptor atom, score
      L1  H     1    19       P1  7948  0.90
      L1  H     1    20       P1  7957  0.84

> <Gold.Chemscore.Hbond.Weighted>
-6.2589

> <Gold.Chemscore.Metal.Weighted>
-0.0000

> <Gold.Chemscore.Lipo.Weighted>
-10.2594

> <Gold.Chemscore.Internal_Hbond.Weighted>
0.0000

> <Gold.Chemscore.DEClash.Weighted>
0.0149

> <Gold.Chemscore.DEInternal.Weighted>
1.7623

> <Gold.Chemscore.Rot.Weighted>
4.8558

> <Gold.Chemscore.Internal.Correction.Weighted>
   9.000000E+99

> <Gold.Protein.RotatedTorsions>
[ 6907 6896 6895 6894 ] final   47.28 input  -60.11 | X-H torsion
[ 7974 7965 7964 7962 ] final  -77.23 input  175.53 | X-H torsion
[ 8008 7997 7996 7995 ] final -108.07 input   59.86 | X-H torsion
[ 10167 10162 10161 10158 ] final  -41.79 input  -65.29 | X-H torsion
[ 10718 10713 10712 10709 ] final   81.62 input   66.30 | X-H torsion
[ 10763 10752 10751 10750 ] final -177.32 input  -60.55 | X-H torsion
[ 11005 11000 10999 10996 ] final  -49.43 input  -57.11 | X-H torsion

> <Gold.Protein.ActiveResidues>
 VAL166  LYS551  ARG553  GLY616  TRP617  ASP618  TYR619  PRO620  LYS621  CYS622 
 ASP623  PHE694  ASN695  SER759  ASP760  ASP761  ALA762  ILE779  LEU786  VAL792 
 PHE793  MET794  SER795  GLU796  ALA797  LYS798  CYS799  TRP800  GLU811  SER814 

> <Gold.Protein.RotatedAtoms>
  152.2662  134.7981  160.0421 H   0  0  0  0  0  0  0  0  0  0  0  0  # atno 6907 bound_to 6896
  151.8610  133.3452  159.3712 H   0  0  0  0  0  0  0  0  0  0  0  0  # atno 6908 bound_to 6896
  150.7135  134.5134  159.5662 H   0  0  0  0  0  0  0  0  0  0  0  0  # atno 6909 bound_to 6896
  145.6024  140.9405  143.1233 H   0  0  0  0  0  0  0  0  0  0  0  0  # atno 7974 bound_to 7965
  154.9388  140.0403  157.2086 H   0  0  0  0  0  0  0  0  0  0  0  0  # atno 8008 bound_to 7997
  154.8089  140.2864  155.5845 H   0  0  0  0  0  0  0  0  0  0  0  0  # atno 8009 bound_to 7997
  156.2969  140.2540  156.2974 H   0  0  0  0  0  0  0  0  0  0  0  0  # atno 8010 bound_to 7997
  140.6991  143.3074  151.3116 H   0  0  0  0  0  0  0  0  0  0  0  0  # atno 10167 bound_to 10162
  157.6837  131.0012  150.2254 H   0  0  0  0  0  0  0  0  0  0  0  0  # atno 10718 bound_to 10713
  154.5615  135.2820  155.0914 H   0  0  0  0  0  0  0  0  0  0  0  0  # atno 10763 bound_to 10752
  154.2321  135.6372  153.5182 H   0  0  0  0  0  0  0  0  0  0  0  0  # atno 10764 bound_to 10752
  153.0030  135.5540  154.6211 H   0  0  0  0  0  0  0  0  0  0  0  0  # atno 10765 bound_to 10752
  141.0759  133.6666  156.3585 H   0  0  0  0  0  0  0  0  0  0  0  0  # atno 11005 bound_to 11000
  144.7304  139.7744  143.7349 LP  0  0  0  0  0  0  0  0  0  0  0  0  # atno 17320 bound_to 7965
  146.1566  139.4666  143.0015 LP  0  0  0  0  0  0  0  0  0  0  0  0  # atno 17321 bound_to 7965
  139.6485  144.0406  152.2609 LP  0  0  0  0  0  0  0  0  0  0  0  0  # atno 17342 bound_to 10162
  139.9935  144.6345  150.7793 LP  0  0  0  0  0  0  0  0  0  0  0  0  # atno 17343 bound_to 10162
  156.2897  130.3744  149.7854 LP  0  0  0  0  0  0  0  0  0  0  0  0  # atno 17370 bound_to 10713
  156.5517  130.8344  151.3301 LP  0  0  0  0  0  0  0  0  0  0  0  0  # atno 17371 bound_to 10713
  140.5575  134.5967  157.5424 LP  0  0  0  0  0  0  0  0  0  0  0  0  # atno 17394 bound_to 11000
  139.9571  134.7516  156.0317 LP  0  0  0  0  0  0  0  0  0  0  0  0  # atno 17395 bound_to 11000

$$$$
