AV-unprocessed.smi:1487|AV-procd|sdf|6016|dock1
  -GOLD-   22720 6113D 1   1.00000     0.00000
 Structure written by MMmdl.
 49 51  0  0  0  0  0  0  0  0  3 V2000
  152.6619  143.6406  160.3997 C   0  0  0  0  0  0  0  0  0  0  0  0
  152.2540  142.7325  159.2521 C   0  0  0  0  0  0  0  0  0  0  0  0
  151.3509  143.2308  158.2863 C   0  0  0  0  0  0  0  0  0  0  0  0
  150.9973  142.3772  157.2482 C   0  0  0  0  0  0  0  0  0  0  0  0
  150.1458  142.5679  156.1581 N   0  3  0  0  0  0  0  0  0  0  0  0
  150.1139  141.4358  155.4021 C   0  0  0  0  0  0  0  0  0  0  0  0
  150.9340  140.5236  155.9926 N   0  0  0  0  0  0  0  0  0  0  0  0
  151.2459  139.1432  155.5914 C   0  0  0  0  0  0  0  0  0  0  0  0
  150.3176  138.6117  154.4814 C   0  0  1  0  0  0  0  0  0  0  0  0
  150.9407  137.5300  153.8167 O   0  0  0  0  0  0  0  0  0  0  0  0
  148.9718  138.1237  155.0541 C   0  0  0  0  0  0  0  0  0  0  0  0
  148.0028  137.7460  153.9930 N   0  3  1  0  0  0  0  0  0  0  0  0
  146.8467  136.9807  154.5289 C   0  0  0  0  0  0  0  0  0  0  0  0
  145.9366  136.4780  153.3949 C   0  0  0  0  0  0  0  0  0  0  0  0
  145.4582  137.6410  152.5163 C   0  0  0  0  0  0  0  0  0  0  0  0
  146.6679  138.4332  151.9995 C   0  0  1  0  0  0  0  0  0  0  0  0
  146.2207  139.5533  151.2659 O   0  0  0  0  0  0  0  0  0  0  0  0
  147.5587  138.8996  153.1653 C   0  0  0  0  0  0  0  0  0  0  0  0
  151.5070  141.0676  157.1493 C   0  0  0  0  0  0  0  0  0  0  0  0
  152.3983  140.5615  158.0930 C   0  0  0  0  0  0  0  0  0  0  0  0
  152.7700  141.4142  159.1570 C   0  0  0  0  0  0  0  0  0  0  0  0
  153.7397  140.8881  160.2015 C   0  0  0  0  0  0  0  0  0  0  0  0
  152.2417  144.6401  160.2865 H   0  0  0  0  0  0  0  0  0  0  0  0
  153.7466  143.7407  160.4453 H   0  0  0  0  0  0  0  0  0  0  0  0
  152.3104  143.2355  161.3490 H   0  0  0  0  0  0  0  0  0  0  0  0
  150.9529  144.2330  158.3530 H   0  0  0  0  0  0  0  0  0  0  0  0
  149.5385  141.2883  154.4992 H   0  0  0  0  0  0  0  0  0  0  0  0
  152.2937  139.0824  155.2962 H   0  0  0  0  0  0  0  0  0  0  0  0
  151.1469  138.5228  156.4830 H   0  0  0  0  0  0  0  0  0  0  0  0
  150.1589  139.4080  153.7548 H   0  0  0  0  0  0  0  0  0  0  0  0
  150.2866  137.0705  153.3117 H   0  0  0  0  0  0  0  0  0  0  0  0
  149.1661  137.2667  155.7013 H   0  0  0  0  0  0  0  0  0  0  0  0
  148.5251  138.8874  155.6924 H   0  0  0  0  0  0  0  0  0  0  0  0
  147.2045  136.1242  155.1019 H   0  0  0  0  0  0  0  0  0  0  0  0
  146.2801  137.6094  155.2178 H   0  0  0  0  0  0  0  0  0  0  0  0
  146.4786  135.7555  152.7830 H   0  0  0  0  0  0  0  0  0  0  0  0
  145.0791  135.9487  153.8115 H   0  0  0  0  0  0  0  0  0  0  0  0
  144.8665  137.2622  151.6821 H   0  0  0  0  0  0  0  0  0  0  0  0
  144.8029  138.2917  153.0973 H   0  0  0  0  0  0  0  0  0  0  0  0
  147.2532  137.8047  151.3266 H   0  0  0  0  0  0  0  0  0  0  0  0
  145.4110  139.3313  150.8317 H   0  0  0  0  0  0  0  0  0  0  0  0
  147.0165  139.6076  153.7949 H   0  0  0  0  0  0  0  0  0  0  0  0
  148.4215  139.4310  152.7645 H   0  0  0  0  0  0  0  0  0  0  0  0
  152.7972  139.5606  158.0213 H   0  0  0  0  0  0  0  0  0  0  0  0
  153.9983  139.8451  160.0166 H   0  0  0  0  0  0  0  0  0  0  0  0
  153.3019  140.9495  161.1979 H   0  0  0  0  0  0  0  0  0  0  0  0
  154.6634  141.4674  160.1920 H   0  0  0  0  0  0  0  0  0  0  0  0
  148.4950  137.1126  153.3786 H   0  0  0  0  0  0  0  0  0  0  0  0
  149.6220  143.4075  155.9451 H   0  0  0  0  0  0  0  0  0  0  0  0
  1  2  1  0  0  0  0
  1 23  1  0  0  0  0
  1 24  1  0  0  0  0
  1 25  1  0  0  0  0
  2 21  1  0  0  0  0
  2  3  2  0  0  0  0
  3  4  1  0  0  0  0
  3 26  1  0  0  0  0
  4 19  2  0  0  0  0
  4  5  1  0  0  0  0
  5  6  2  0  0  0  0
  5 49  1  0  0  0  0
  6  7  1  0  0  0  0
  6 27  1  0  0  0  0
  7  8  1  0  0  0  0
  7 19  1  0  0  0  0
  8  9  1  0  0  0  0
  8 28  1  0  0  0  0
  8 29  1  0  0  0  0
  9 10  1  0  0  0  0
  9 11  1  0  0  0  0
  9 30  1  0  0  0  0
 10 31  1  0  0  0  0
 11 12  1  0  0  0  0
 11 32  1  0  0  0  0
 11 33  1  0  0  0  0
 12 18  1  0  0  0  0
 12 13  1  0  0  0  0
 12 48  1  0  0  0  0
 13 14  1  0  0  0  0
 13 34  1  0  0  0  0
 13 35  1  0  0  0  0
 14 15  1  0  0  0  0
 14 36  1  0  0  0  0
 14 37  1  0  0  0  0
 15 16  1  0  0  0  0
 15 38  1  0  0  0  0
 15 39  1  0  0  0  0
 16 17  1  0  0  0  0
 16 18  1  0  0  0  0
 16 40  1  0  0  0  0
 17 41  1  0  0  0  0
 18 42  1  0  0  0  0
 18 43  1  0  0  0  0
 19 20  1  0  0  0  0
 20 21  2  0  0  0  0
 20 44  1  0  0  0  0
 21 22  1  0  0  0  0
 22 45  1  0  0  0  0
 22 46  1  0  0  0  0
 22 47  1  0  0  0  0
M  CHG  1   5   1
M  CHG  1  12   1
M  END
> <s_m_source_file>
AV-unprocessed.smi

> <i_m_source_file_index>
1487

> <i_lp_mmshare_version>
43012

> <i_f3d_flags>
0

> <s_epik_input>
W0NIM11jKFtjSF0xKWMoW0NIM10pW2NIXWMoYzEyKW4oW2NIXW4yKVtDSDJdW0NASF0oW09IXSlbQ0gyXU4zW0NIMl1bQ0gyXVtDSDJdW0NAQEhdKFtPSF0pW0NIMl0z

> <s_epik_cmdline>
J2VwaWtfcHl0aG9uJywgJy1waCcsICc3LjAnLCAnLXRuJywgJzgnLCAnLW1hJywgJzIwMCcsICctbWV0YWxfYmluZGluZycsICctaW1hZScsICc8aW5maWxlLm1hZT4nLCAnLW9tYWUnLCAnPG91dGZpbGUubWFlPic=

> <r_epik_Ionization_Penalty>
1.1857

> <r_epik_Ionization_Penalty_Charging>
1.1857

> <r_epik_Ionization_Penalty_Neutral>
1.75578e-06

> <r_epik_State_Penalty>
1.26953

> <r_epik_Charging_Adjusted_Penalty>
2.45524

> <i_epik_Tot_Q>
2

> <i_epik_Tot_abs_Q>
2

> <r_epik_Metal_State_Penalty>
5.28243

> <b_epik_Metal_Only>
0

> <s_lp_Force_Field>
OPLS_2005

> <r_lp_Energy>
30.1376

> <b_lp_Chiralities_Consistent>
1

> <s_lp_Variant>
AV-unprocessed.smi:1487-10

> <Gold.Version>
5.8.1

> <Gold.Id.Protein>
6NUR|6NUR_protein|mol2

> <Gold.PLP.Fitness>
60.5785

> <Gold.PLP.PLP>
-44.5608

> <Gold.PLP.part.hbond>
-6.0000

> <Gold.PLP.part.metal>
0.0000

> <Gold.PLP.part.buried>
-2.8443

> <Gold.PLP.part.nonpolar>
-37.0832

> <Gold.PLP.part.repulsive>
0.1126

> <Gold.PLP.ligand.clash>
0.0000

> <Gold.PLP.ligand.torsion>
0.4043

> <Gold.PLP.Chemscore.Hbond>
5.5598

> <Gold.PLP.Chemscore.CHOScore>
0.0000

> <Gold.PLP.Chemscore.Metal>
0.0000

> <Gold.Chemscore.Hbonds>
donor molecule, donor type, donor heavy atom, donor atom, acceptor molecule, acceptor atom, score
      L1  H     5    49       P1  8028  2.00
      L1  H    10    31       P1  7948  0.52
      L1  H    12    48       P1  7948  2.00
      L1  H    17    41       P1 10171  1.00

> <Gold.PLP.Chemscore.Internal.Correction>
0.1469

> <Gold.Rescore>
     Score         DG    S(hbond)    S(metal)    S(lipo)     H(rot)  DE(clash)    DE(int)     intcor
     21.69     -22.13       3.04        0.00     115.48       2.74       0.10       0.35       ----

> <Gold.Chemscore.Fitness>
21.6895

> <Gold.Chemscore.DG>
-22.1343

> <Gold.Chemscore.ZeroCoef>
-5.4800

> <Gold.Chemscore.Hbond>
3.0401

> <Gold.Chemscore.Metal>
0.0000

> <Gold.Chemscore.Lipo>
115.4761

> <Gold.Chemscore.Internal_Hbond>
0.0000

> <Gold.Chemscore.DEClash>
0.0984

> <Gold.Chemscore.DEInternal>
0.3464

> <Gold.Chemscore.Rot>
2.7384

> <Gold.Chemscore.Internal.Correction>
   9.000000E+99

> <Gold.Chemscore.Hbonds>
donor molecule, donor type, donor heavy atom, donor atom, acceptor molecule, acceptor atom, score
      L1  H     5    49       P1  8028  0.93
      L1  H    10    31       P1  7948  0.04
      L1  H    12    48       P1  7948  1.00
      L1  H    17    41       P1 10171  0.99

> <Gold.Chemscore.Hbond.Weighted>
-10.1540

> <Gold.Chemscore.Metal.Weighted>
-0.0000

> <Gold.Chemscore.Lipo.Weighted>
-13.5107

> <Gold.Chemscore.Internal_Hbond.Weighted>
0.0000

> <Gold.Chemscore.DEClash.Weighted>
0.0984

> <Gold.Chemscore.DEInternal.Weighted>
0.3464

> <Gold.Chemscore.Rot.Weighted>
7.0103

> <Gold.Chemscore.Internal.Correction.Weighted>
   9.000000E+99

> <Gold.Protein.RotatedTorsions>
[ 6907 6896 6895 6894 ] final -140.89 input  -60.11 | X-H torsion
[ 7974 7965 7964 7962 ] final  111.07 input  175.53 | X-H torsion
[ 8008 7997 7996 7995 ] final   76.73 input   59.86 | X-H torsion
[ 10167 10162 10161 10158 ] final  -51.04 input  -65.29 | X-H torsion
[ 10718 10713 10712 10709 ] final   33.42 input   66.30 | X-H torsion
[ 10763 10752 10751 10750 ] final   56.45 input  -60.55 | X-H torsion
[ 11005 11000 10999 10996 ] final   49.75 input  -57.11 | X-H torsion

> <Gold.Protein.ActiveResidues>
 VAL166  LYS551  ARG553  GLY616  TRP617  ASP618  TYR619  PRO620  LYS621  CYS622 
 ASP623  PHE694  ASN695  SER759  ASP760  ASP761  ALA762  ILE779  LEU786  VAL792 
 PHE793  MET794  SER795  GLU796  ALA797  LYS798  CYS799  TRP800  GLU811  SER814 

> <Gold.Protein.RotatedAtoms>
  151.0666  133.5500  159.2629 H   0  0  0  0  0  0  0  0  0  0  0  0  # atno 6907 bound_to 6896
  151.2455  135.0603  159.9051 H   0  0  0  0  0  0  0  0  0  0  0  0  # atno 6908 bound_to 6896
  152.5405  134.0435  159.8132 H   0  0  0  0  0  0  0  0  0  0  0  0  # atno 6909 bound_to 6896
  145.2469  139.2755  143.4088 H   0  0  0  0  0  0  0  0  0  0  0  0  # atno 7974 bound_to 7965
  155.8315  140.3466  155.5575 H   0  0  0  0  0  0  0  0  0  0  0  0  # atno 8008 bound_to 7997
  155.8237  140.0916  157.1853 H   0  0  0  0  0  0  0  0  0  0  0  0  # atno 8009 bound_to 7997
  154.4004  140.1425  156.3518 H   0  0  0  0  0  0  0  0  0  0  0  0  # atno 8010 bound_to 7997
  140.6608  143.2634  151.4447 H   0  0  0  0  0  0  0  0  0  0  0  0  # atno 10167 bound_to 10162
  157.2976  130.7334  149.6648 H   0  0  0  0  0  0  0  0  0  0  0  0  # atno 10718 bound_to 10713
  152.9832  135.5676  154.5231 H   0  0  0  0  0  0  0  0  0  0  0  0  # atno 10763 bound_to 10752
  154.4715  135.2785  155.1641 H   0  0  0  0  0  0  0  0  0  0  0  0  # atno 10764 bound_to 10752
  154.3187  135.6273  153.5551 H   0  0  0  0  0  0  0  0  0  0  0  0  # atno 10765 bound_to 10752
  140.1076  134.4997  155.8706 H   0  0  0  0  0  0  0  0  0  0  0  0  # atno 11005 bound_to 11000
  146.3313  140.2848  142.8612 LP  0  0  0  0  0  0  0  0  0  0  0  0  # atno 17320 bound_to 7965
  144.9538  140.8206  143.5555 LP  0  0  0  0  0  0  0  0  0  0  0  0  # atno 17321 bound_to 7965
  139.5841  144.1643  152.2006 LP  0  0  0  0  0  0  0  0  0  0  0  0  # atno 17342 bound_to 10162
  140.0978  144.5566  150.7010 LP  0  0  0  0  0  0  0  0  0  0  0  0  # atno 17343 bound_to 10162
  155.9670  130.4289  150.4811 LP  0  0  0  0  0  0  0  0  0  0  0  0  # atno 17370 bound_to 10713
  157.2786  131.0602  151.2213 LP  0  0  0  0  0  0  0  0  0  0  0  0  # atno 17371 bound_to 10713
  141.2122  133.6716  156.6642 LP  0  0  0  0  0  0  0  0  0  0  0  0  # atno 17394 bound_to 11000
  140.3134  134.8067  157.4195 LP  0  0  0  0  0  0  0  0  0  0  0  0  # atno 17395 bound_to 11000

$$$$
