AV-unprocessed.smi:3287|AV-procd|sdf|12596|dock9
  -GOLD-   2272018523D 1   1.00000     0.00000
 Structure written by MMmdl.
 43 44  0  0  0  0  0  0  0  0  2 V2000
  143.7992  132.7684  151.4065 C   0  0  0  0  0  0  0  0  0  0  0  0
  143.9916  134.2925  151.3119 C   0  0  2  0  0  0  0  0  0  0  0  0
  145.4371  134.6100  150.8784 C   0  0  0  0  0  0  0  0  0  0  0  0
  145.6841  136.1209  150.7545 C   0  0  0  0  0  0  0  0  0  0  0  0
  145.3560  136.8652  152.0636 C   0  0  2  0  0  0  0  0  0  0  0  0
  146.3122  136.5481  153.1496 N   0  3  0  0  0  0  0  0  0  0  0  0
  146.4206  137.5607  154.2219 C   0  0  0  0  0  0  0  0  0  0  0  0
  146.6303  138.9694  153.6402 C   0  0  1  0  0  0  0  0  0  0  0  0
  145.5753  139.8033  154.0796 O   0  0  0  0  0  0  0  0  0  0  0  0
  147.9898  139.5280  154.0295 C   0  0  0  0  0  0  0  0  0  0  0  0
  148.1666  140.9031  154.2963 C   0  0  0  0  0  0  0  0  0  0  0  0
  149.4499  141.3602  154.6574 C   0  0  0  0  0  0  0  0  0  0  0  0
  150.5230  140.5478  154.7642 N   0  0  0  0  0  0  0  0  0  0  0  0
  150.3481  139.2335  154.5104 C   0  0  0  0  0  0  0  0  0  0  0  0
  149.1076  138.6748  154.1424 C   0  0  0  0  0  0  0  0  0  0  0  0
  143.9164  136.5452  152.5061 C   0  0  0  0  0  0  0  0  0  0  0  0
  143.6390  135.0299  152.6310 C   0  0  1  0  0  0  0  0  0  0  0  0
  142.1816  134.8041  153.0712 C   0  0  0  0  0  0  0  0  0  0  0  0
  144.3840  132.3439  152.2232 H   0  0  0  0  0  0  0  0  0  0  0  0
  144.1132  132.2769  150.4853 H   0  0  0  0  0  0  0  0  0  0  0  0
  142.7551  132.5006  151.5658 H   0  0  0  0  0  0  0  0  0  0  0  0
  143.3248  134.6586  150.5295 H   0  0  0  0  0  0  0  0  0  0  0  0
  146.1412  134.1806  151.5925 H   0  0  0  0  0  0  0  0  0  0  0  0
  145.6488  134.1339  149.9203 H   0  0  0  0  0  0  0  0  0  0  0  0
  146.7092  136.3084  150.4373 H   0  0  0  0  0  0  0  0  0  0  0  0
  145.0539  136.5150  149.9561 H   0  0  0  0  0  0  0  0  0  0  0  0
  145.4145  137.9392  151.8813 H   0  0  0  0  0  0  0  0  0  0  0  0
  146.0131  135.6851  153.5803 H   0  0  0  0  0  0  0  0  0  0  0  0
  145.5287  137.5472  154.8484 H   0  0  0  0  0  0  0  0  0  0  0  0
  147.2647  137.2994  154.8615 H   0  0  0  0  0  0  0  0  0  0  0  0
  146.5758  138.9224  152.5515 H   0  0  0  0  0  0  0  0  0  0  0  0
  145.0768  140.0788  153.3246 H   0  0  0  0  0  0  0  0  0  0  0  0
  147.3408  141.5963  154.2277 H   0  0  0  0  0  0  0  0  0  0  0  0
  149.6181  142.4059  154.8675 H   0  0  0  0  0  0  0  0  0  0  0  0
  151.2230  138.6071  154.6039 H   0  0  0  0  0  0  0  0  0  0  0  0
  149.0234  137.6149  153.9521 H   0  0  0  0  0  0  0  0  0  0  0  0
  143.7042  137.0445  153.4526 H   0  0  0  0  0  0  0  0  0  0  0  0
  143.2229  136.9741  151.7810 H   0  0  0  0  0  0  0  0  0  0  0  0
  144.2794  134.6351  153.4210 H   0  0  0  0  0  0  0  0  0  0  0  0
  141.4804  135.1064  152.2927 H   0  0  0  0  0  0  0  0  0  0  0  0
  141.9492  135.3804  153.9671 H   0  0  0  0  0  0  0  0  0  0  0  0
  141.9871  133.7589  153.3104 H   0  0  0  0  0  0  0  0  0  0  0  0
  147.2262  136.4015  152.7450 H   0  0  0  0  0  0  0  0  0  0  0  0
  1  2  1  0  0  0  0
  1 19  1  0  0  0  0
  1 20  1  0  0  0  0
  1 21  1  0  0  0  0
  2 17  1  0  0  0  0
  2  3  1  0  0  0  0
  2 22  1  0  0  0  0
  3  4  1  0  0  0  0
  3 23  1  0  0  0  0
  3 24  1  0  0  0  0
  4  5  1  0  0  0  0
  4 25  1  0  0  0  0
  4 26  1  0  0  0  0
  5  6  1  0  0  0  0
  5 16  1  0  0  0  0
  5 27  1  0  0  0  0
  6  7  1  0  0  0  0
  6 28  1  0  0  0  0
  6 43  1  0  0  0  0
  7  8  1  0  0  0  0
  7 29  1  0  0  0  0
  7 30  1  0  0  0  0
  8  9  1  0  0  0  0
  8 10  1  0  0  0  0
  8 31  1  0  0  0  0
  9 32  1  0  0  0  0
 10 15  1  0  0  0  0
 10 11  2  0  0  0  0
 11 12  1  0  0  0  0
 11 33  1  0  0  0  0
 12 13  2  0  0  0  0
 12 34  1  0  0  0  0
 13 14  1  0  0  0  0
 14 15  2  0  0  0  0
 14 35  1  0  0  0  0
 15 36  1  0  0  0  0
 16 17  1  0  0  0  0
 16 37  1  0  0  0  0
 16 38  1  0  0  0  0
 17 18  1  0  0  0  0
 17 39  1  0  0  0  0
 18 40  1  0  0  0  0
 18 41  1  0  0  0  0
 18 42  1  0  0  0  0
M  CHG  1   6   1
M  END
> <s_m_source_file>
AV-unprocessed.smi

> <i_m_source_file_index>
3287

> <i_lp_mmshare_version>
43012

> <i_f3d_flags>
0

> <s_epik_input>
W0NIM11bQ0BASF0xW0NIMl1bQ0gyXVtDQEhdKFtDSDJdW0NASF0xW0NIM10pW05IXVtDSDJdW0NASF0oW09IXSljMltjSF1bY0hdbltjSF1bY0hdMg==

> <s_epik_cmdline>
J2VwaWtfcHl0aG9uJywgJy1waCcsICc3LjAnLCAnLXRuJywgJzgnLCAnLW1hJywgJzIwMCcsICctbWV0YWxfYmluZGluZycsICctaW1hZScsICc8aW5maWxlLm1hZT4nLCAnLW9tYWUnLCAnPG91dGZpbGUubWFlPic=

> <r_lp_tautomer_probability>
1

> <r_epik_Ionization_Penalty>
0.00537262

> <r_epik_Ionization_Penalty_Charging>
0.00321624

> <r_epik_Ionization_Penalty_Neutral>
0.00215638

> <r_epik_State_Penalty>
-0

> <r_epik_Charging_Adjusted_Penalty>
0.00321624

> <i_epik_Tot_Q>
1

> <i_epik_Tot_abs_Q>
1

> <r_epik_Metal_State_Penalty>
-0

> <b_epik_Metal_Only>
0

> <s_lp_Force_Field>
OPLS_2005

> <r_lp_Energy>
19.2096

> <b_lp_Chiralities_Consistent>
1

> <s_lp_Variant>
AV-unprocessed.smi:3287-7

> <Gold.Version>
5.8.1

> <Gold.Id.Protein>
6NUR|6NUR_protein|mol2

> <Gold.PLP.Fitness>
46.3054

> <Gold.PLP.PLP>
-35.0156

> <Gold.PLP.part.hbond>
-3.0000

> <Gold.PLP.part.metal>
0.0000

> <Gold.PLP.part.buried>
-3.6198

> <Gold.PLP.part.nonpolar>
-29.0407

> <Gold.PLP.part.repulsive>
0.0906

> <Gold.PLP.ligand.clash>
0.0000

> <Gold.PLP.ligand.torsion>
1.6642

> <Gold.PLP.Chemscore.Hbond>
3.9500

> <Gold.PLP.Chemscore.CHOScore>
0.9184

> <Gold.PLP.Chemscore.Metal>
0.0000

> <Gold.Chemscore.Hbonds>
donor molecule, donor type, donor heavy atom, donor atom, acceptor molecule, acceptor atom, score
      L1  H     6    43       P1  7948  2.00
      L1  H     9    32       P1 10175  1.00
      P1  H  7989  7998       L1    13  0.89
      L1  C    12    34       P1  8028  0.97

> <Gold.PLP.Chemscore.Internal.Correction>
0.0129

> <Gold.Rescore>
     Score         DG    S(hbond)    S(metal)    S(lipo)     H(rot)  DE(clash)    DE(int)     intcor
     16.86     -18.46       2.30        0.00      87.02       1.90       0.05       1.54       ----

> <Gold.Chemscore.Fitness>
16.8641

> <Gold.Chemscore.DG>
-18.4609

> <Gold.Chemscore.ZeroCoef>
-5.4800

> <Gold.Chemscore.Hbond>
2.2972

> <Gold.Chemscore.Metal>
0.0000

> <Gold.Chemscore.Lipo>
87.0195

> <Gold.Chemscore.Internal_Hbond>
0.0000

> <Gold.Chemscore.DEClash>
0.0549

> <Gold.Chemscore.DEInternal>
1.5419

> <Gold.Chemscore.Rot>
1.9035

> <Gold.Chemscore.Internal.Correction>
   9.000000E+99

> <Gold.Chemscore.Hbonds>
donor molecule, donor type, donor heavy atom, donor atom, acceptor molecule, acceptor atom, score
      L1  H     6    43       P1  7948  0.99
      L1  H     9    32       P1 10175  0.98
      P1  H  7989  7998       L1    13  0.12

> <Gold.Chemscore.Hbond.Weighted>
-7.6725

> <Gold.Chemscore.Metal.Weighted>
-0.0000

> <Gold.Chemscore.Lipo.Weighted>
-10.1813

> <Gold.Chemscore.Internal_Hbond.Weighted>
0.0000

> <Gold.Chemscore.DEClash.Weighted>
0.0549

> <Gold.Chemscore.DEInternal.Weighted>
1.5419

> <Gold.Chemscore.Rot.Weighted>
4.8729

> <Gold.Chemscore.Internal.Correction.Weighted>
   9.000000E+99

> <Gold.Protein.RotatedTorsions>
[ 6907 6896 6895 6894 ] final    5.66 input  -60.11 | X-H torsion
[ 7974 7965 7964 7962 ] final  156.83 input  175.53 | X-H torsion
[ 8008 7997 7996 7995 ] final   81.05 input   59.86 | X-H torsion
[ 10167 10162 10161 10158 ] final -175.25 input  -65.29 | X-H torsion
[ 10718 10713 10712 10709 ] final   90.02 input   66.30 | X-H torsion
[ 10763 10752 10751 10750 ] final  -79.48 input  -60.55 | X-H torsion
[ 11005 11000 10999 10996 ] final -139.51 input  -57.11 | X-H torsion

> <Gold.Protein.ActiveResidues>
 VAL166  LYS551  ARG553  GLY616  TRP617  ASP618  TYR619  PRO620  LYS621  CYS622 
 ASP623  PHE694  ASN695  SER759  ASP760  ASP761  ALA762  ILE779  LEU786  VAL792 
 PHE793  MET794  SER795  GLU796  ALA797  LYS798  CYS799  TRP800  GLU811  SER814 

> <Gold.Protein.RotatedAtoms>
  151.6611  135.0989  160.0179 H   0  0  0  0  0  0  0  0  0  0  0  0  # atno 6907 bound_to 6896
  152.3946  133.6724  159.6274 H   0  0  0  0  0  0  0  0  0  0  0  0  # atno 6908 bound_to 6896
  150.7855  133.8813  159.3327 H   0  0  0  0  0  0  0  0  0  0  0  0  # atno 6909 bound_to 6896
  144.7939  139.7257  143.6210 H   0  0  0  0  0  0  0  0  0  0  0  0  # atno 7974 bound_to 7965
  155.8918  140.3438  155.5962 H   0  0  0  0  0  0  0  0  0  0  0  0  # atno 8008 bound_to 7997
  155.7602  140.0831  157.2178 H   0  0  0  0  0  0  0  0  0  0  0  0  # atno 8009 bound_to 7997
  154.4034  140.1537  156.2811 H   0  0  0  0  0  0  0  0  0  0  0  0  # atno 8010 bound_to 7997
  139.5591  144.1915  152.1209 H   0  0  0  0  0  0  0  0  0  0  0  0  # atno 10167 bound_to 10162
  157.6957  131.0355  150.3514 H   0  0  0  0  0  0  0  0  0  0  0  0  # atno 10718 bound_to 10713
  154.5392  135.5694  153.6825 H   0  0  0  0  0  0  0  0  0  0  0  0  # atno 10763 bound_to 10752
  152.9959  135.6223  154.2525 H   0  0  0  0  0  0  0  0  0  0  0  0  # atno 10764 bound_to 10752
  154.2455  135.2861  155.2817 H   0  0  0  0  0  0  0  0  0  0  0  0  # atno 10765 bound_to 10752
  140.8513  134.2282  157.4759 H   0  0  0  0  0  0  0  0  0  0  0  0  # atno 11005 bound_to 11000
  146.2201  139.5620  142.9624 LP  0  0  0  0  0  0  0  0  0  0  0  0  # atno 17320 bound_to 7965
  145.5722  141.0393  143.2168 LP  0  0  0  0  0  0  0  0  0  0  0  0  # atno 17321 bound_to 7965
  140.1425  144.5189  150.6736 LP  0  0  0  0  0  0  0  0  0  0  0  0  # atno 17342 bound_to 10162
  140.6868  143.2354  151.5238 LP  0  0  0  0  0  0  0  0  0  0  0  0  # atno 17343 bound_to 10162
  156.3962  130.3907  149.6993 LP  0  0  0  0  0  0  0  0  0  0  0  0  # atno 17370 bound_to 10713
  156.4326  130.7822  151.2842 LP  0  0  0  0  0  0  0  0  0  0  0  0  # atno 17371 bound_to 10713
  139.8704  134.9684  156.4632 LP  0  0  0  0  0  0  0  0  0  0  0  0  # atno 17394 bound_to 11000
  140.8787  133.7934  155.9443 LP  0  0  0  0  0  0  0  0  0  0  0  0  # atno 17395 bound_to 11000

$$$$
