AV-unprocessed.smi:692|AV-procd|sdf|3368|dock10
  -GOLD-   22720 0343D 1   1.00000     0.00000
 Structure written by MMmdl.
 37 38  0  0  0  0  0  0  0  0  1 V2000
  146.5546  128.7192  152.3746 C   0  0  0  0  0  0  0  0  0  0  0  0
  146.2694  130.1707  151.9729 C   0  0  0  0  0  0  0  0  0  0  0  0
  146.6233  131.1422  153.0575 C   0  0  0  0  0  0  0  0  0  0  0  0
  146.3394  131.0218  154.3962 C   0  0  0  0  0  0  0  0  0  0  0  0
  146.9413  132.3740  155.3172 S   0  0  0  0  0  0  0  0  0  0  0  0
  147.5620  133.0635  153.8255 C   0  0  0  0  0  0  0  0  0  0  0  0
  148.2554  134.3019  153.8021 N   0  0  0  0  0  0  0  0  0  0  0  0
  148.8559  134.9376  154.8235 C   0  0  0  0  0  0  0  0  0  0  0  0
  148.9133  134.5272  155.9831 O   0  0  0  0  0  0  0  0  0  0  0  0
  149.4023  136.0940  154.4208 N   0  0  0  0  0  0  0  0  0  0  0  0
  150.1380  137.0195  155.2773 C   0  0  2  0  0  0  0  0  0  0  0  0
  150.7518  138.1358  154.4306 C   0  0  0  0  0  0  0  0  0  0  0  0
  151.4950  139.1370  155.3232 C   0  0  0  0  0  0  0  0  0  0  0  0
  152.4296  138.4752  156.3475 C   0  0  0  0  0  0  0  0  0  0  0  0
  153.3140  139.1652  156.8556 O   0  0  0  0  0  0  0  0  0  0  0  0
  152.2363  137.1764  156.6822 N   0  0  0  0  0  0  0  0  0  0  0  0
  153.0934  136.5366  157.6819 C   0  0  0  0  0  0  0  0  0  0  0  0
  151.2486  136.2851  156.0535 C   0  0  0  0  0  0  0  0  0  0  0  0
  147.3218  132.3128  152.7445 N   0  0  0  0  0  0  0  0  0  0  0  0
  146.2841  128.0338  151.5712 H   0  0  0  0  0  0  0  0  0  0  0  0
  145.9847  128.4365  153.2602 H   0  0  0  0  0  0  0  0  0  0  0  0
  147.6124  128.5719  152.5952 H   0  0  0  0  0  0  0  0  0  0  0  0
  146.8251  130.4073  151.0648 H   0  0  0  0  0  0  0  0  0  0  0  0
  145.2151  130.2696  151.7123 H   0  0  0  0  0  0  0  0  0  0  0  0
  145.8162  130.2194  154.8950 H   0  0  0  0  0  0  0  0  0  0  0  0
  148.3006  134.7558  152.9017 H   0  0  0  0  0  0  0  0  0  0  0  0
  149.3065  136.3527  153.4497 H   0  0  0  0  0  0  0  0  0  0  0  0
  149.4460  137.4760  155.9883 H   0  0  0  0  0  0  0  0  0  0  0  0
  151.4392  137.7162  153.6942 H   0  0  0  0  0  0  0  0  0  0  0  0
  149.9739  138.6552  153.8697 H   0  0  0  0  0  0  0  0  0  0  0  0
  152.0666  139.8310  154.7060 H   0  0  0  0  0  0  0  0  0  0  0  0
  150.7721  139.7366  155.8772 H   0  0  0  0  0  0  0  0  0  0  0  0
  152.9496  136.9985  158.6596 H   0  0  0  0  0  0  0  0  0  0  0  0
  154.1456  136.6328  157.4094 H   0  0  0  0  0  0  0  0  0  0  0  0
  152.8817  135.4715  157.7848 H   0  0  0  0  0  0  0  0  0  0  0  0
  150.7933  135.6464  156.8119 H   0  0  0  0  0  0  0  0  0  0  0  0
  151.7938  135.6245  155.3775 H   0  0  0  0  0  0  0  0  0  0  0  0
  1  2  1  0  0  0  0
  1 20  1  0  0  0  0
  1 21  1  0  0  0  0
  1 22  1  0  0  0  0
  2  3  1  0  0  0  0
  2 23  1  0  0  0  0
  2 24  1  0  0  0  0
  3 19  1  0  0  0  0
  3  4  2  0  0  0  0
  4  5  1  0  0  0  0
  4 25  1  0  0  0  0
  5  6  1  0  0  0  0
  6  7  1  0  0  0  0
  6 19  2  0  0  0  0
  7  8  1  0  0  0  0
  7 26  1  0  0  0  0
  8  9  2  0  0  0  0
  8 10  1  0  0  0  0
 10 11  1  0  0  0  0
 10 27  1  0  0  0  0
 11 18  1  0  0  0  0
 11 12  1  0  0  0  0
 11 28  1  0  0  0  0
 12 13  1  0  0  0  0
 12 29  1  0  0  0  0
 12 30  1  0  0  0  0
 13 14  1  0  0  0  0
 13 31  1  0  0  0  0
 13 32  1  0  0  0  0
 14 15  2  0  0  0  0
 14 16  1  0  0  0  0
 16 17  1  0  0  0  0
 16 18  1  0  0  0  0
 17 33  1  0  0  0  0
 17 34  1  0  0  0  0
 17 35  1  0  0  0  0
 18 36  1  0  0  0  0
 18 37  1  0  0  0  0
M  END
> <s_m_source_file>
AV-unprocessed.smi

> <i_m_source_file_index>
692

> <i_lp_mmshare_version>
43012

> <i_f3d_flags>
0

> <s_epik_input>
W0NIM11bQ0gyXWMxW2NIXXNjKG4xKVtOSF1DKD1PKVtOSF1bQ0BASF0yW0NIMl1bQ0gyXUMoPU8pTihbQ0gzXSlbQ0gyXTI=

> <s_epik_cmdline>
J2VwaWtfcHl0aG9uJywgJy1waCcsICc3LjAnLCAnLXRuJywgJzgnLCAnLW1hJywgJzIwMCcsICctbWV0YWxfYmluZGluZycsICctaW1hZScsICc8aW5maWxlLm1hZT4nLCAnLW9tYWUnLCAnPG91dGZpbGUubWFlPic=

> <r_lp_tautomer_probability>
1

> <r_epik_Ionization_Penalty>
0.000165573

> <r_epik_Ionization_Penalty_Charging>
0

> <r_epik_Ionization_Penalty_Neutral>
0.000165573

> <r_epik_State_Penalty>
-0

> <r_epik_Charging_Adjusted_Penalty>
0

> <i_epik_Tot_Q>
0

> <i_epik_Tot_abs_Q>
0

> <r_epik_Metal_State_Penalty>
0.031163

> <b_epik_Metal_Only>
0

> <s_lp_Force_Field>
OPLS_2005

> <r_lp_Energy>
8.08929

> <b_lp_Chiralities_Consistent>
1

> <s_lp_Variant>
AV-unprocessed.smi:692-1

> <Gold.Version>
5.8.1

> <Gold.Id.Protein>
6NUR|6NUR_protein|mol2

> <Gold.PLP.Fitness>
35.6641

> <Gold.PLP.PLP>
-24.4966

> <Gold.PLP.part.hbond>
-2.7358

> <Gold.PLP.part.metal>
0.0000

> <Gold.PLP.part.buried>
-3.5129

> <Gold.PLP.part.nonpolar>
-19.3745

> <Gold.PLP.part.repulsive>
0.1785

> <Gold.PLP.ligand.clash>
0.0000

> <Gold.PLP.ligand.torsion>
0.3366

> <Gold.PLP.Chemscore.Hbond>
2.9513

> <Gold.PLP.Chemscore.CHOScore>
0.9952

> <Gold.PLP.Chemscore.Metal>
0.0000

> <Gold.Chemscore.Hbonds>
donor molecule, donor type, donor heavy atom, donor atom, acceptor molecule, acceptor atom, score
      L1  H     7    26       P1  7948  0.98
      L1  H    10    27       P1  7948  1.00
      P1  H  7997  8008       L1    15  0.87
      L1  C     4    25       P1 10956  0.77

> <Gold.PLP.Chemscore.Internal.Correction>
0.0014

> <Gold.Rescore>
     Score         DG    S(hbond)    S(metal)    S(lipo)     H(rot)  DE(clash)    DE(int)     intcor
     17.16     -17.57       2.87        0.00      48.39       1.24       0.11       0.30       ----

> <Gold.Chemscore.Fitness>
17.1572

> <Gold.Chemscore.DG>
-17.5677

> <Gold.Chemscore.ZeroCoef>
-5.4800

> <Gold.Chemscore.Hbond>
2.8732

> <Gold.Chemscore.Metal>
0.0000

> <Gold.Chemscore.Lipo>
48.3938

> <Gold.Chemscore.Internal_Hbond>
0.0000

> <Gold.Chemscore.DEClash>
0.1087

> <Gold.Chemscore.DEInternal>
0.3018

> <Gold.Chemscore.Rot>
1.2386

> <Gold.Chemscore.Internal.Correction>
   9.000000E+99

> <Gold.Chemscore.Hbonds>
donor molecule, donor type, donor heavy atom, donor atom, acceptor molecule, acceptor atom, score
      L1  H     7    26       P1  7948  0.56
      L1  H    10    27       P1  7948  0.84
      P1  H  7997  8008       L1    15  0.81

> <Gold.Chemscore.Hbond.Weighted>
-9.5965

> <Gold.Chemscore.Metal.Weighted>
-0.0000

> <Gold.Chemscore.Lipo.Weighted>
-5.6621

> <Gold.Chemscore.Internal_Hbond.Weighted>
0.0000

> <Gold.Chemscore.DEClash.Weighted>
0.1087

> <Gold.Chemscore.DEInternal.Weighted>
0.3018

> <Gold.Chemscore.Rot.Weighted>
3.1708

> <Gold.Chemscore.Internal.Correction.Weighted>
   9.000000E+99

> <Gold.Protein.RotatedTorsions>
[ 6907 6896 6895 6894 ] final  -20.52 input  -60.11 | X-H torsion
[ 7974 7965 7964 7962 ] final   92.88 input  175.53 | X-H torsion
[ 8008 7997 7996 7995 ] final  -43.01 input   59.86 | X-H torsion
[ 10167 10162 10161 10158 ] final -142.99 input  -65.29 | X-H torsion
[ 10718 10713 10712 10709 ] final   36.53 input   66.30 | X-H torsion
[ 10763 10752 10751 10750 ] final -164.93 input  -60.55 | X-H torsion
[ 11005 11000 10999 10996 ] final  139.41 input  -57.11 | X-H torsion

> <Gold.Protein.ActiveResidues>
 VAL166  LYS551  ARG553  GLY616  TRP617  ASP618  TYR619  PRO620  LYS621  CYS622 
 ASP623  PHE694  ASN695  SER759  ASP760  ASP761  ALA762  ILE779  LEU786  VAL792 
 PHE793  MET794  SER795  GLU796  ALA797  LYS798  CYS799  TRP800  GLU811  SER814 

> <Gold.Protein.RotatedAtoms>
  151.2470  135.0609  159.9046 H   0  0  0  0  0  0  0  0  0  0  0  0  # atno 6907 bound_to 6896
  152.5385  134.0373  159.8062 H   0  0  0  0  0  0  0  0  0  0  0  0  # atno 6908 bound_to 6896
  151.0576  133.5522  159.2668 H   0  0  0  0  0  0  0  0  0  0  0  0  # atno 6909 bound_to 6896
  145.4864  139.2277  143.2854 H   0  0  0  0  0  0  0  0  0  0  0  0  # atno 7974 bound_to 7965
  154.3997  140.1458  156.3449 H   0  0  0  0  0  0  0  0  0  0  0  0  # atno 8008 bound_to 7997
  155.8322  140.3465  155.5558 H   0  0  0  0  0  0  0  0  0  0  0  0  # atno 8009 bound_to 7997
  155.8176  140.0893  157.1858 H   0  0  0  0  0  0  0  0  0  0  0  0  # atno 8010 bound_to 7997
  139.8036  143.7799  152.2659 H   0  0  0  0  0  0  0  0  0  0  0  0  # atno 10167 bound_to 10162
  157.3360  130.7523  149.6879 H   0  0  0  0  0  0  0  0  0  0  0  0  # atno 10718 bound_to 10713
  154.6981  135.2983  154.9382 H   0  0  0  0  0  0  0  0  0  0  0  0  # atno 10763 bound_to 10752
  154.0323  135.6668  153.4786 H   0  0  0  0  0  0  0  0  0  0  0  0  # atno 10764 bound_to 10752
  153.0661  135.5087  154.8110 H   0  0  0  0  0  0  0  0  0  0  0  0  # atno 10765 bound_to 10752
  140.0253  134.9378  157.0555 H   0  0  0  0  0  0  0  0  0  0  0  0  # atno 11005 bound_to 11000
  146.2310  140.5654  142.8975 LP  0  0  0  0  0  0  0  0  0  0  0  0  # atno 17320 bound_to 7965
  144.7859  140.5935  143.6574 LP  0  0  0  0  0  0  0  0  0  0  0  0  # atno 17321 bound_to 7965
  139.7927  144.7404  150.9933 LP  0  0  0  0  0  0  0  0  0  0  0  0  # atno 17342 bound_to 10162
  140.7820  143.4426  151.0530 LP  0  0  0  0  0  0  0  0  0  0  0  0  # atno 17343 bound_to 10162
  155.9701  130.4181  150.4312 LP  0  0  0  0  0  0  0  0  0  0  0  0  # atno 17370 bound_to 10713
  157.2352  131.0513  151.2469 LP  0  0  0  0  0  0  0  0  0  0  0  0  # atno 17371 bound_to 10713
  140.4318  134.1773  155.7168 LP  0  0  0  0  0  0  0  0  0  0  0  0  # atno 17394 bound_to 11000
  141.1799  133.8437  157.1295 LP  0  0  0  0  0  0  0  0  0  0  0  0  # atno 17395 bound_to 11000

$$$$
