AV-unprocessed.smi:1896|AV-procd|sdf|7682|dock1
  -GOLD-   22720 9423D 1   1.00000     0.00000
 Structure written by MMmdl.
 47 48  0  0  0  0  0  0  0  0  2 V2000
  152.8813  138.6412  154.5487 C   0  0  0  0  0  0  0  0  0  0  0  0
  151.8957  139.5014  155.2870 C   0  0  0  0  0  0  0  0  0  0  0  0
  152.3271  140.3051  156.2446 N   0  0  0  0  0  0  0  0  0  0  0  0
  151.2190  140.9199  156.7042 N   0  0  0  0  0  0  0  0  0  0  0  0
  151.3356  141.8872  157.7781 C   0  0  0  0  0  0  0  0  0  0  0  0
  150.0846  140.5040  156.0348 C   0  0  0  0  0  0  0  0  0  0  0  0
  148.7271  141.0375  156.3622 C   0  0  0  0  0  0  0  0  0  0  0  0
  150.4832  139.5791  155.1067 C   0  0  0  0  0  0  0  0  0  0  0  0
  149.6395  138.8099  154.1223 C   0  0  0  0  0  0  0  0  0  0  0  0
  148.8752  137.7090  154.8568 C   0  0  0  0  0  0  0  0  0  0  0  0
  148.4502  137.9088  155.9945 O   0  0  0  0  0  0  0  0  0  0  0  0
  148.7096  136.5516  154.1965 N   0  0  0  0  0  0  0  0  0  0  0  0
  148.0591  135.3571  154.7291 C   0  0  0  0  0  0  0  0  0  0  0  0
  148.0908  134.1572  153.7468 C   0  0  2  0  0  0  0  0  0  0  0  0
  149.5342  133.6537  153.5170 C   0  0  0  0  0  0  0  0  0  0  0  0
  147.4369  134.5264  152.4571 N   0  3  0  0  0  0  0  0  0  0  0  0
  147.3360  133.4482  151.4486 C   0  0  0  0  0  0  0  0  0  0  0  0
  146.2438  133.9050  150.4889 C   0  0  0  0  0  0  0  0  0  0  0  0
  145.2390  134.5820  151.4130 C   0  0  0  0  0  0  0  0  0  0  0  0
  146.0793  135.1169  152.5809 C   0  0  0  0  0  0  0  0  0  0  0  0
  152.7750  137.5953  154.8362 H   0  0  0  0  0  0  0  0  0  0  0  0
  153.9105  138.9387  154.7534 H   0  0  0  0  0  0  0  0  0  0  0  0
  152.7288  138.7074  153.4716 H   0  0  0  0  0  0  0  0  0  0  0  0
  151.1028  142.8827  157.4001 H   0  0  0  0  0  0  0  0  0  0  0  0
  152.3477  141.8905  158.1850 H   0  0  0  0  0  0  0  0  0  0  0  0
  150.6380  141.6370  158.5776 H   0  0  0  0  0  0  0  0  0  0  0  0
  147.9637  140.6003  155.7190 H   0  0  0  0  0  0  0  0  0  0  0  0
  148.6940  142.1192  156.2325 H   0  0  0  0  0  0  0  0  0  0  0  0
  148.4606  140.8107  157.3947 H   0  0  0  0  0  0  0  0  0  0  0  0
  148.9258  139.4606  153.6157 H   0  0  0  0  0  0  0  0  0  0  0  0
  150.2472  138.3645  153.3338 H   0  0  0  0  0  0  0  0  0  0  0  0
  149.0942  136.4841  153.2650 H   0  0  0  0  0  0  0  0  0  0  0  0
  148.5860  135.1144  155.6513 H   0  0  0  0  0  0  0  0  0  0  0  0
  147.0306  135.5737  155.0235 H   0  0  0  0  0  0  0  0  0  0  0  0
  147.5195  133.3369  154.1849 H   0  0  0  0  0  0  0  0  0  0  0  0
  150.0101  133.3545  154.4501 H   0  0  0  0  0  0  0  0  0  0  0  0
  150.1545  134.4267  153.0626 H   0  0  0  0  0  0  0  0  0  0  0  0
  149.5675  132.7752  152.8733 H   0  0  0  0  0  0  0  0  0  0  0  0
  148.2825  133.2782  150.9346 H   0  0  0  0  0  0  0  0  0  0  0  0
  147.0350  132.5169  151.9317 H   0  0  0  0  0  0  0  0  0  0  0  0
  146.6492  134.6319  149.7836 H   0  0  0  0  0  0  0  0  0  0  0  0
  145.8101  133.0844  149.9164 H   0  0  0  0  0  0  0  0  0  0  0  0
  144.6723  135.3659  150.9094 H   0  0  0  0  0  0  0  0  0  0  0  0
  144.5258  133.8438  151.7824 H   0  0  0  0  0  0  0  0  0  0  0  0
  145.6043  134.8461  153.5253 H   0  0  0  0  0  0  0  0  0  0  0  0
  146.1577  136.2040  152.5477 H   0  0  0  0  0  0  0  0  0  0  0  0
  148.0109  135.2409  152.0321 H   0  0  0  0  0  0  0  0  0  0  0  0
  1  2  1  0  0  0  0
  1 21  1  0  0  0  0
  1 22  1  0  0  0  0
  1 23  1  0  0  0  0
  2  8  1  0  0  0  0
  2  3  2  0  0  0  0
  3  4  1  0  0  0  0
  4  5  1  0  0  0  0
  4  6  1  0  0  0  0
  5 24  1  0  0  0  0
  5 25  1  0  0  0  0
  5 26  1  0  0  0  0
  6  7  1  0  0  0  0
  6  8  2  0  0  0  0
  7 27  1  0  0  0  0
  7 28  1  0  0  0  0
  7 29  1  0  0  0  0
  8  9  1  0  0  0  0
  9 10  1  0  0  0  0
  9 30  1  0  0  0  0
  9 31  1  0  0  0  0
 10 11  2  0  0  0  0
 10 12  1  0  0  0  0
 12 13  1  0  0  0  0
 12 32  1  0  0  0  0
 13 14  1  0  0  0  0
 13 33  1  0  0  0  0
 13 34  1  0  0  0  0
 14 15  1  0  0  0  0
 14 16  1  0  0  0  0
 14 35  1  0  0  0  0
 15 36  1  0  0  0  0
 15 37  1  0  0  0  0
 15 38  1  0  0  0  0
 16 20  1  0  0  0  0
 16 17  1  0  0  0  0
 16 47  1  0  0  0  0
 17 18  1  0  0  0  0
 17 39  1  0  0  0  0
 17 40  1  0  0  0  0
 18 19  1  0  0  0  0
 18 41  1  0  0  0  0
 18 42  1  0  0  0  0
 19 20  1  0  0  0  0
 19 43  1  0  0  0  0
 19 44  1  0  0  0  0
 20 45  1  0  0  0  0
 20 46  1  0  0  0  0
M  CHG  1  16   1
M  END
> <s_m_source_file>
AV-unprocessed.smi

> <i_m_source_file_index>
1896

> <i_lp_mmshare_version>
43012

> <i_f3d_flags>
0

> <s_epik_input>
W0NIM11jMW5uKFtDSDNdKWMoW0NIM10pYzFbQ0gyXUMoPU8pW05IXVtDSDJdW0NASF0oW0NIM10pTjJbQ0gyXVtDSDJdW0NIMl1bQ0gyXTI=

> <s_epik_cmdline>
J2VwaWtfcHl0aG9uJywgJy1waCcsICc3LjAnLCAnLXRuJywgJzgnLCAnLW1hJywgJzIwMCcsICctbWV0YWxfYmluZGluZycsICctaW1hZScsICc8aW5maWxlLm1hZT4nLCAnLW9tYWUnLCAnPG91dGZpbGUubWFlPic=

> <r_lp_tautomer_probability>
1

> <r_epik_Ionization_Penalty>
0.00723064

> <r_epik_Ionization_Penalty_Charging>
0.0050435

> <r_epik_Ionization_Penalty_Neutral>
0.00218714

> <r_epik_State_Penalty>
-0

> <r_epik_Charging_Adjusted_Penalty>
0.0050435

> <i_epik_Tot_Q>
1

> <i_epik_Tot_abs_Q>
1

> <r_epik_Metal_State_Penalty>
-0

> <b_epik_Metal_Only>
0

> <s_lp_Force_Field>
OPLS_2005

> <r_lp_Energy>
25.1325

> <b_lp_Chiralities_Consistent>
1

> <s_lp_Variant>
AV-unprocessed.smi:1896-1

> <Gold.Version>
5.8.1

> <Gold.Id.Protein>
6NUR|6NUR_protein|mol2

> <Gold.PLP.Fitness>
44.9875

> <Gold.PLP.PLP>
-34.0515

> <Gold.PLP.part.hbond>
-3.0000

> <Gold.PLP.part.metal>
0.0000

> <Gold.PLP.part.buried>
-2.2664

> <Gold.PLP.part.nonpolar>
-29.7471

> <Gold.PLP.part.repulsive>
0.0199

> <Gold.PLP.ligand.clash>
0.0000

> <Gold.PLP.ligand.torsion>
0.5621

> <Gold.PLP.Chemscore.Hbond>
4.0000

> <Gold.PLP.Chemscore.CHOScore>
0.0000

> <Gold.PLP.Chemscore.Metal>
0.0000

> <Gold.Chemscore.Hbonds>
donor molecule, donor type, donor heavy atom, donor atom, acceptor molecule, acceptor atom, score
      L1  H    12    32       P1  7948  0.71
      L1  H    16    47       P1  7948  1.01
      P1  H  7997  8008       L1     3  1.00

> <Gold.PLP.Chemscore.Internal.Correction>
0.0603

> <Gold.Rescore>
     Score         DG    S(hbond)    S(metal)    S(lipo)     H(rot)  DE(clash)    DE(int)     intcor
     19.00     -20.53       2.97        0.00      79.87       1.65       0.95       0.57       ----

> <Gold.Chemscore.Fitness>
19.0039

> <Gold.Chemscore.DG>
-20.5275

> <Gold.Chemscore.ZeroCoef>
-5.4800

> <Gold.Chemscore.Hbond>
2.9717

> <Gold.Chemscore.Metal>
0.0000

> <Gold.Chemscore.Lipo>
79.8686

> <Gold.Chemscore.Internal_Hbond>
0.0000

> <Gold.Chemscore.DEClash>
0.9521

> <Gold.Chemscore.DEInternal>
0.5715

> <Gold.Chemscore.Rot>
1.6495

> <Gold.Chemscore.Internal.Correction>
   9.000000E+99

> <Gold.Chemscore.Hbonds>
donor molecule, donor type, donor heavy atom, donor atom, acceptor molecule, acceptor atom, score
      L1  H    12    32       P1  7948  0.68
      L1  H    16    47       P1  7948  0.43
      P1  H  7997  8008       L1     3  0.50

> <Gold.Chemscore.Hbond.Weighted>
-9.9256

> <Gold.Chemscore.Metal.Weighted>
-0.0000

> <Gold.Chemscore.Lipo.Weighted>
-9.3446

> <Gold.Chemscore.Internal_Hbond.Weighted>
0.0000

> <Gold.Chemscore.DEClash.Weighted>
0.9521

> <Gold.Chemscore.DEInternal.Weighted>
0.5715

> <Gold.Chemscore.Rot.Weighted>
4.2227

> <Gold.Chemscore.Internal.Correction.Weighted>
   9.000000E+99

> <Gold.Protein.RotatedTorsions>
[ 6907 6896 6895 6894 ] final   57.63 input  -60.11 | X-H torsion
[ 7974 7965 7964 7962 ] final  161.38 input  175.53 | X-H torsion
[ 8008 7997 7996 7995 ] final  -33.87 input   59.86 | X-H torsion
[ 10167 10162 10161 10158 ] final  128.23 input  -65.29 | X-H torsion
[ 10718 10713 10712 10709 ] final -162.00 input   66.30 | X-H torsion
[ 10763 10752 10751 10750 ] final  163.42 input  -60.55 | X-H torsion
[ 11005 11000 10999 10996 ] final -113.91 input  -57.11 | X-H torsion

> <Gold.Protein.ActiveResidues>
 VAL166  LYS551  ARG553  GLY616  TRP617  ASP618  TYR619  PRO620  LYS621  CYS622 
 ASP623  PHE694  ASN695  SER759  ASP760  ASP761  ALA762  ILE779  LEU786  VAL792 
 PHE793  MET794  SER795  GLU796  ALA797  LYS798  CYS799  TRP800  GLU811  SER814 

> <Gold.Protein.RotatedAtoms>
  152.3749  134.6678  160.0162 H   0  0  0  0  0  0  0  0  0  0  0  0  # atno 6907 bound_to 6896
  151.6959  133.3305  159.3262 H   0  0  0  0  0  0  0  0  0  0  0  0  # atno 6908 bound_to 6896
  150.7702  134.6593  159.6376 H   0  0  0  0  0  0  0  0  0  0  0  0  # atno 6909 bound_to 6896
  144.7689  139.7889  143.6304 H   0  0  0  0  0  0  0  0  0  0  0  0  # atno 7974 bound_to 7965
  154.4136  140.1699  156.1958 H   0  0  0  0  0  0  0  0  0  0  0  0  # atno 8008 bound_to 7997
  155.9565  140.3397  155.6430 H   0  0  0  0  0  0  0  0  0  0  0  0  # atno 8009 bound_to 7997
  155.6803  140.0722  157.2478 H   0  0  0  0  0  0  0  0  0  0  0  0  # atno 8010 bound_to 7997
  139.5538  144.6833  151.4245 H   0  0  0  0  0  0  0  0  0  0  0  0  # atno 10167 bound_to 10162
  156.6042  130.8823  151.2921 H   0  0  0  0  0  0  0  0  0  0  0  0  # atno 10718 bound_to 10713
  154.2934  135.2760  155.2644 H   0  0  0  0  0  0  0  0  0  0  0  0  # atno 10763 bound_to 10752
  154.5113  135.5781  153.6611 H   0  0  0  0  0  0  0  0  0  0  0  0  # atno 10764 bound_to 10752
  152.9911  135.6182  154.3100 H   0  0  0  0  0  0  0  0  0  0  0  0  # atno 10765 bound_to 10752
  141.0585  133.9574  157.2711 H   0  0  0  0  0  0  0  0  0  0  0  0  # atno 11005 bound_to 11000
  146.1819  139.5016  142.9861 LP  0  0  0  0  0  0  0  0  0  0  0  0  # atno 17320 bound_to 7965
  145.6385  141.0289  143.1825 LP  0  0  0  0  0  0  0  0  0  0  0  0  # atno 17321 bound_to 7965
  140.6806  143.8090  150.7116 LP  0  0  0  0  0  0  0  0  0  0  0  0  # atno 17342 bound_to 10162
  140.1542  143.4331  152.2111 LP  0  0  0  0  0  0  0  0  0  0  0  0  # atno 17343 bound_to 10162
  157.7271  130.9639  150.1686 LP  0  0  0  0  0  0  0  0  0  0  0  0  # atno 17370 bound_to 10713
  156.2444  130.3694  149.8301 LP  0  0  0  0  0  0  0  0  0  0  0  0  # atno 17371 bound_to 10713
  139.9411  135.0191  156.8711 LP  0  0  0  0  0  0  0  0  0  0  0  0  # atno 17394 bound_to 11000
  140.5917  134.0256  155.7502 LP  0  0  0  0  0  0  0  0  0  0  0  0  # atno 17395 bound_to 11000

$$$$
