AV-unprocessed.smi:1726|AV-procd|sdf|6964|dock10
  -GOLD-   22720 8173D 1   1.00000     0.00000
 Structure written by MMmdl.
 42 43  0  0  0  0  0  0  0  0  3 V2000
  144.1005  133.0165  149.9849 C   0  0  0  0  0  0  0  0  0  0  0  0
  143.6075  132.4792  151.3365 C   0  0  0  0  0  0  0  0  0  0  0  0
  143.8342  133.4355  152.4498 N   0  3  2  0  0  0  0  0  0  0  0  0
  142.8198  134.5215  152.4676 C   0  0  0  0  0  0  0  0  0  0  0  0
  142.9890  135.4242  153.7010 C   0  0  0  0  0  0  0  0  0  0  0  0
  144.4074  136.0040  153.7687 C   0  0  0  0  0  0  0  0  0  0  0  0
  145.4401  134.8674  153.7266 C   0  0  2  0  0  0  0  0  0  0  0  0
  146.7906  135.4213  153.7336 N   0  0  0  0  0  0  0  0  0  0  0  0
  147.5541  135.5763  154.8250 C   0  0  0  0  0  0  0  0  0  0  0  0
  147.1828  135.2566  155.9545 O   0  0  0  0  0  0  0  0  0  0  0  0
  148.7534  136.0924  154.5023 N   0  0  0  0  0  0  0  0  0  0  0  0
  149.8321  136.4259  155.3388 C   0  0  0  0  0  0  0  0  0  0  0  0
  150.0961  137.6787  155.8031 C   0  0  0  0  0  0  0  0  0  0  0  0
  151.2395  137.9680  156.6594 C   0  0  0  0  0  0  0  0  0  0  0  0
  151.6057  139.3626  157.1352 C   0  0  0  0  0  0  0  0  0  0  0  0
  152.6717  139.3311  157.9355 F   0  0  0  0  0  0  0  0  0  0  0  0
  151.8768  140.1642  156.1052 F   0  0  0  0  0  0  0  0  0  0  0  0
  150.5904  139.8905  157.8170 F   0  0  0  0  0  0  0  0  0  0  0  0
  152.0113  136.8478  156.8999 C   0  0  0  0  0  0  0  0  0  0  0  0
  151.8180  135.5766  156.4852 N   0  5  0  0  0  0  0  0  0  0  0  0
  150.7393  135.3151  155.6941 C   0  0  0  0  0  0  0  0  0  0  0  0
  150.5070  134.1807  155.2746 O   0  0  0  0  0  0  0  0  0  0  0  0
  145.2174  133.9813  152.4823 C   0  0  0  0  0  0  0  0  0  0  0  0
  144.0185  132.2481  149.2159 H   0  0  0  0  0  0  0  0  0  0  0  0
  145.1471  133.3180  150.0386 H   0  0  0  0  0  0  0  0  0  0  0  0
  143.5189  133.8730  149.6453 H   0  0  0  0  0  0  0  0  0  0  0  0
  142.5517  132.2096  151.2824 H   0  0  0  0  0  0  0  0  0  0  0  0
  144.1510  131.5563  151.5428 H   0  0  0  0  0  0  0  0  0  0  0  0
  142.9028  135.1126  151.5541 H   0  0  0  0  0  0  0  0  0  0  0  0
  141.8177  134.0908  152.4766 H   0  0  0  0  0  0  0  0  0  0  0  0
  142.2574  136.2322  153.6747 H   0  0  0  0  0  0  0  0  0  0  0  0
  142.7837  134.8506  154.6059 H   0  0  0  0  0  0  0  0  0  0  0  0
  144.5650  136.6856  152.9314 H   0  0  0  0  0  0  0  0  0  0  0  0
  144.5265  136.5929  154.6790 H   0  0  0  0  0  0  0  0  0  0  0  0
  145.3087  134.2573  154.6228 H   0  0  0  0  0  0  0  0  0  0  0  0
  147.1732  135.7065  152.8436 H   0  0  0  0  0  0  0  0  0  0  0  0
  148.9359  136.2307  153.5189 H   0  0  0  0  0  0  0  0  0  0  0  0
  149.4678  138.5115  155.5341 H   0  0  0  0  0  0  0  0  0  0  0  0
  152.9237  136.9966  157.5159 H   0  0  0  0  0  0  0  0  0  0  0  0
  145.9370  133.1634  152.4930 H   0  0  0  0  0  0  0  0  0  0  0  0
  145.4044  134.5527  151.5714 H   0  0  0  0  0  0  0  0  0  0  0  0
  143.7047  132.9143  153.3054 H   0  0  0  0  0  0  0  0  0  0  0  0
  1  2  1  0  0  0  0
  1 24  1  0  0  0  0
  1 25  1  0  0  0  0
  1 26  1  0  0  0  0
  2  3  1  0  0  0  0
  2 27  1  0  0  0  0
  2 28  1  0  0  0  0
  3 23  1  0  0  0  0
  3  4  1  0  0  0  0
  3 42  1  0  0  0  0
  4  5  1  0  0  0  0
  4 29  1  0  0  0  0
  4 30  1  0  0  0  0
  5  6  1  0  0  0  0
  5 31  1  0  0  0  0
  5 32  1  0  0  0  0
  6  7  1  0  0  0  0
  6 33  1  0  0  0  0
  6 34  1  0  0  0  0
  7  8  1  0  0  0  0
  7 23  1  0  0  0  0
  7 35  1  0  0  0  0
  8  9  1  0  0  0  0
  8 36  1  0  0  0  0
  9 10  2  0  0  0  0
  9 11  1  0  0  0  0
 11 12  1  0  0  0  0
 11 37  1  0  0  0  0
 12 21  1  0  0  0  0
 12 13  2  0  0  0  0
 13 14  1  0  0  0  0
 13 38  1  0  0  0  0
 14 15  1  0  0  0  0
 14 19  2  0  0  0  0
 15 16  1  0  0  0  0
 15 17  1  0  0  0  0
 15 18  1  0  0  0  0
 19 20  1  0  0  0  0
 19 39  1  0  0  0  0
 20 21  1  0  0  0  0
 21 22  2  0  0  0  0
 23 40  1  0  0  0  0
 23 41  1  0  0  0  0
M  CHG  1   3   1
M  CHG  1  20  -1
M  END
> <s_m_source_file>
AV-unprocessed.smi

> <i_m_source_file_index>
1726

> <i_lp_mmshare_version>
43012

> <i_f3d_flags>
0

> <s_epik_input>
W0NIM11bQ0gyXU4xW0NIMl1bQ0gyXVtDSDJdW0NASF0oW0NIMl0xKVtOSF1DKD1PKVtOSF1jMltjSF1jKEMoRikoRilGKVtjSF1bbkhdYzI9Tw==

> <s_epik_cmdline>
J2VwaWtfcHl0aG9uJywgJy1waCcsICc3LjAnLCAnLXRuJywgJzgnLCAnLW1hJywgJzIwMCcsICctbWV0YWxfYmluZGluZycsICctaW1hZScsICc8aW5maWxlLm1hZT4nLCAnLW9tYWUnLCAnPG91dGZpbGUubWFlPic=

> <r_lp_tautomer_probability>
1

> <r_epik_Ionization_Penalty>
3.01007

> <r_epik_Ionization_Penalty_Charging>
0.14897

> <r_epik_Ionization_Penalty_Neutral>
2.8611

> <r_epik_State_Penalty>
2.85632

> <r_epik_Charging_Adjusted_Penalty>
3.00529

> <i_epik_Tot_Q>
0

> <i_epik_Tot_abs_Q>
2

> <r_epik_Metal_State_Penalty>
0.443826

> <b_epik_Metal_Only>
1

> <s_lp_Force_Field>
OPLS_2005

> <r_lp_Energy>
27.5552

> <b_lp_Chiralities_Consistent>
1

> <s_lp_Variant>
AV-unprocessed.smi:1726-8

> <Gold.Version>
5.8.1

> <Gold.Id.Protein>
6NUR|6NUR_protein|mol2

> <Gold.PLP.Fitness>
40.1627

> <Gold.PLP.PLP>
-26.0238

> <Gold.PLP.part.hbond>
-4.0000

> <Gold.PLP.part.metal>
0.0000

> <Gold.PLP.part.buried>
-4.9046

> <Gold.PLP.part.nonpolar>
-18.0446

> <Gold.PLP.part.repulsive>
0.0939

> <Gold.PLP.ligand.clash>
0.0000

> <Gold.PLP.ligand.torsion>
1.2509

> <Gold.PLP.Chemscore.Hbond>
5.5256

> <Gold.PLP.Chemscore.CHOScore>
0.0000

> <Gold.PLP.Chemscore.Metal>
0.0000

> <Gold.Chemscore.Hbonds>
donor molecule, donor type, donor heavy atom, donor atom, acceptor molecule, acceptor atom, score
      L1  H     3    42       P1 10957  1.50
      L1  H     8    36       P1  7948  0.76
      L1  H    11    37       P1  7948  1.00
      P1  H 10752 10764       L1    20  1.90

> <Gold.PLP.Chemscore.Internal.Correction>
0.0638

> <Gold.Rescore>
     Score         DG    S(hbond)    S(metal)    S(lipo)     H(rot)  DE(clash)    DE(int)     intcor
     16.11     -17.24       2.58        0.00      54.70       1.28       0.02       1.11       ----

> <Gold.Chemscore.Fitness>
16.1059

> <Gold.Chemscore.DG>
-17.2358

> <Gold.Chemscore.ZeroCoef>
-5.4800

> <Gold.Chemscore.Hbond>
2.5843

> <Gold.Chemscore.Metal>
0.0000

> <Gold.Chemscore.Lipo>
54.7023

> <Gold.Chemscore.Internal_Hbond>
0.0000

> <Gold.Chemscore.DEClash>
0.0244

> <Gold.Chemscore.DEInternal>
1.1055

> <Gold.Chemscore.Rot>
1.2796

> <Gold.Chemscore.Internal.Correction>
   9.000000E+99

> <Gold.Chemscore.Hbonds>
donor molecule, donor type, donor heavy atom, donor atom, acceptor molecule, acceptor atom, score
      L1  H     3    42       P1 10957  0.48
      L1  H     8    36       P1  7948  0.73
      L1  H    11    37       P1  7948  0.99
      P1  H 10752 10764       L1    20  0.11

> <Gold.Chemscore.Hbond.Weighted>
-8.6315

> <Gold.Chemscore.Metal.Weighted>
-0.0000

> <Gold.Chemscore.Lipo.Weighted>
-6.4002

> <Gold.Chemscore.Internal_Hbond.Weighted>
0.0000

> <Gold.Chemscore.DEClash.Weighted>
0.0244

> <Gold.Chemscore.DEInternal.Weighted>
1.1055

> <Gold.Chemscore.Rot.Weighted>
3.2759

> <Gold.Chemscore.Internal.Correction.Weighted>
   9.000000E+99

> <Gold.Protein.RotatedTorsions>
[ 6907 6896 6895 6894 ] final  -37.67 input  -60.11 | X-H torsion
[ 7974 7965 7964 7962 ] final -105.01 input  175.53 | X-H torsion
[ 8008 7997 7996 7995 ] final   76.44 input   59.86 | X-H torsion
[ 10167 10162 10161 10158 ] final  -45.91 input  -65.29 | X-H torsion
[ 10718 10713 10712 10709 ] final  122.09 input   66.30 | X-H torsion
[ 10763 10752 10751 10750 ] final   -6.41 input  -60.55 | X-H torsion
[ 11005 11000 10999 10996 ] final  -81.20 input  -57.11 | X-H torsion

> <Gold.Protein.ActiveResidues>
 VAL166  LYS551  ARG553  GLY616  TRP617  ASP618  TYR619  PRO620  LYS621  CYS622 
 ASP623  PHE694  ASN695  SER759  ASP760  ASP761  ALA762  ILE779  LEU786  VAL792 
 PHE793  MET794  SER795  GLU796  ALA797  LYS798  CYS799  TRP800  GLU811  SER814 

> <Gold.Protein.RotatedAtoms>
  151.0118  134.9403  159.8011 H   0  0  0  0  0  0  0  0  0  0  0  0  # atno 6907 bound_to 6896
  152.5304  134.3018  159.9091 H   0  0  0  0  0  0  0  0  0  0  0  0  # atno 6908 bound_to 6896
  151.3024  133.4074  159.2675 H   0  0  0  0  0  0  0  0  0  0  0  0  # atno 6909 bound_to 6896
  145.2359  140.9187  143.3178 H   0  0  0  0  0  0  0  0  0  0  0  0  # atno 7974 bound_to 7965
  155.8273  140.3467  155.5551 H   0  0  0  0  0  0  0  0  0  0  0  0  # atno 8008 bound_to 7997
  155.8279  140.0922  157.1830 H   0  0  0  0  0  0  0  0  0  0  0  0  # atno 8009 bound_to 7997
  154.4004  140.1418  156.3565 H   0  0  0  0  0  0  0  0  0  0  0  0  # atno 8010 bound_to 7997
  140.6839  143.2856  151.3707 H   0  0  0  0  0  0  0  0  0  0  0  0  # atno 10167 bound_to 10162
  157.5769  131.1078  150.8262 H   0  0  0  0  0  0  0  0  0  0  0  0  # atno 10718 bound_to 10713
  153.4120  135.7008  153.6353 H   0  0  0  0  0  0  0  0  0  0  0  0  # atno 10763 bound_to 10752
  153.4843  135.3686  155.2459 H   0  0  0  0  0  0  0  0  0  0  0  0  # atno 10764 bound_to 10752
  154.8717  135.4073  154.3473 H   0  0  0  0  0  0  0  0  0  0  0  0  # atno 10765 bound_to 10752
  141.1667  133.7185  156.8386 H   0  0  0  0  0  0  0  0  0  0  0  0  # atno 11005 bound_to 11000
  144.9634  139.3956  143.6345 LP  0  0  0  0  0  0  0  0  0  0  0  0  # atno 17320 bound_to 7965
  146.3341  139.8697  142.8842 LP  0  0  0  0  0  0  0  0  0  0  0  0  # atno 17321 bound_to 7965
  139.6181  144.0961  152.2365 LP  0  0  0  0  0  0  0  0  0  0  0  0  # atno 17342 bound_to 10162
  140.0397  144.6017  150.7421 LP  0  0  0  0  0  0  0  0  0  0  0  0  # atno 17343 bound_to 10162
  156.8719  130.5149  149.5296 LP  0  0  0  0  0  0  0  0  0  0  0  0  # atno 17370 bound_to 10713
  156.0814  130.5823  150.9569 LP  0  0  0  0  0  0  0  0  0  0  0  0  # atno 17371 bound_to 10713
  140.1999  134.8904  157.3157 LP  0  0  0  0  0  0  0  0  0  0  0  0  # atno 17394 bound_to 11000
  140.2199  134.4036  155.7571 LP  0  0  0  0  0  0  0  0  0  0  0  0  # atno 17395 bound_to 11000

$$$$
