AV-unprocessed.smi:439|AV-procd|sdf|2580|dock9
  -GOLD-   2262022563D 1   1.00000     0.00000
 Structure written by MMmdl.
 45 46  0  0  0  0  0  0  0  0  2 V2000
  150.8177  143.4090  159.3712 C   0  0  0  0  0  0  0  0  0  0  0  0
  151.8992  143.5793  160.4466 C   0  0  0  0  0  0  0  0  0  0  0  0
  152.8516  142.3782  160.5612 C   0  0  0  0  0  0  0  0  0  0  0  0
  153.6683  142.1125  159.2824 C   0  0  0  0  0  0  0  0  0  0  0  0
  154.3930  140.8262  159.3648 N   0  0  0  0  0  0  0  0  0  0  0  0
  155.6237  140.7707  160.0728 C   0  0  0  0  0  0  0  0  0  0  0  0
  156.1120  141.9262  160.6667 N   0  0  0  0  0  0  0  0  0  0  0  0
  156.2930  139.5914  160.1834 C   0  0  0  0  0  0  0  0  0  0  0  0
  157.5285  139.4896  160.8618 N   0  0  0  0  0  0  0  0  0  0  0  0
  157.5595  138.5581  162.0034 C   0  0  0  0  0  0  0  0  0  0  0  0
  158.4498  137.3373  161.7224 C   0  0  0  0  0  0  0  0  0  0  0  0
  158.6300  140.2490  160.5754 C   0  0  0  0  0  0  0  0  0  0  0  0
  159.5983  140.2758  161.3391 O   0  0  0  0  0  0  0  0  0  0  0  0
  158.6234  140.9972  159.3138 C   0  0  0  0  0  0  0  0  0  0  0  0
  159.2670  142.1862  159.2608 C   0  0  0  0  0  0  0  0  0  0  0  0
  159.3738  142.9494  158.1246 O   0  0  0  0  0  0  0  0  0  0  0  0
  158.9623  142.2995  156.9276 C   0  0  0  0  0  0  0  0  0  0  0  0
  157.7114  141.4470  157.1810 C   0  0  0  0  0  0  0  0  0  0  0  0
  157.9775  140.4975  158.2053 O   0  0  0  0  0  0  0  0  0  0  0  0
  155.7411  138.4001  159.5230 C   0  0  0  0  0  0  0  0  0  0  0  0
  156.3378  137.3248  159.5827 O   0  0  0  0  0  0  0  0  0  0  0  0
  154.5684  138.5355  158.8502 N   0  5  0  0  0  0  0  0  0  0  0  0
  153.8895  139.7133  158.7481 C   0  0  0  0  0  0  0  0  0  0  0  0
  152.8380  139.7984  158.1120 O   0  0  0  0  0  0  0  0  0  0  0  0
  150.1295  144.2545  159.3796 H   0  0  0  0  0  0  0  0  0  0  0  0
  150.2338  142.5039  159.5403 H   0  0  0  0  0  0  0  0  0  0  0  0
  151.2496  143.3496  158.3724 H   0  0  0  0  0  0  0  0  0  0  0  0
  152.4704  144.4885  160.2558 H   0  0  0  0  0  0  0  0  0  0  0  0
  151.4083  143.7273  161.4089 H   0  0  0  0  0  0  0  0  0  0  0  0
  153.5414  142.5613  161.3859 H   0  0  0  0  0  0  0  0  0  0  0  0
  152.2849  141.4881  160.8368 H   0  0  0  0  0  0  0  0  0  0  0  0
  153.0256  142.1348  158.4031 H   0  0  0  0  0  0  0  0  0  0  0  0
  154.3548  142.9431  159.1115 H   0  0  0  0  0  0  0  0  0  0  0  0
  155.6170  142.8044  160.6095 H   0  0  0  0  0  0  0  0  0  0  0  0
  157.0095  141.9453  161.1292 H   0  0  0  0  0  0  0  0  0  0  0  0
  157.9378  139.0604  162.8943 H   0  0  0  0  0  0  0  0  0  0  0  0
  156.5503  138.2347  162.2637 H   0  0  0  0  0  0  0  0  0  0  0  0
  158.4678  136.6671  162.5818 H   0  0  0  0  0  0  0  0  0  0  0  0
  159.4773  137.6390  161.5168 H   0  0  0  0  0  0  0  0  0  0  0  0
  158.0923  136.7663  160.8654 H   0  0  0  0  0  0  0  0  0  0  0  0
  159.7850  142.6409  160.0932 H   0  0  0  0  0  0  0  0  0  0  0  0
  158.7636  143.0507  156.1628 H   0  0  0  0  0  0  0  0  0  0  0  0
  159.7784  141.6756  156.5605 H   0  0  0  0  0  0  0  0  0  0  0  0
  156.8706  142.0745  157.4808 H   0  0  0  0  0  0  0  0  0  0  0  0
  157.4138  140.9200  156.2745 H   0  0  0  0  0  0  0  0  0  0  0  0
  1  2  1  0  0  0  0
  1 25  1  0  0  0  0
  1 26  1  0  0  0  0
  1 27  1  0  0  0  0
  2  3  1  0  0  0  0
  2 28  1  0  0  0  0
  2 29  1  0  0  0  0
  3  4  1  0  0  0  0
  3 30  1  0  0  0  0
  3 31  1  0  0  0  0
  4  5  1  0  0  0  0
  4 32  1  0  0  0  0
  4 33  1  0  0  0  0
  5 23  1  0  0  0  0
  5  6  1  0  0  0  0
  6  7  1  0  0  0  0
  6  8  2  0  0  0  0
  7 34  1  0  0  0  0
  7 35  1  0  0  0  0
  8  9  1  0  0  0  0
  8 20  1  0  0  0  0
  9 10  1  0  0  0  0
  9 12  1  0  0  0  0
 10 11  1  0  0  0  0
 10 36  1  0  0  0  0
 10 37  1  0  0  0  0
 11 38  1  0  0  0  0
 11 39  1  0  0  0  0
 11 40  1  0  0  0  0
 12 13  2  0  0  0  0
 12 14  1  0  0  0  0
 14 19  1  0  0  0  0
 14 15  2  0  0  0  0
 15 16  1  0  0  0  0
 15 41  1  0  0  0  0
 16 17  1  0  0  0  0
 17 18  1  0  0  0  0
 17 42  1  0  0  0  0
 17 43  1  0  0  0  0
 18 19  1  0  0  0  0
 18 44  1  0  0  0  0
 18 45  1  0  0  0  0
 20 21  2  0  0  0  0
 20 22  1  0  0  0  0
 22 23  1  0  0  0  0
 23 24  2  0  0  0  0
M  CHG  1  22  -1
M  END
> <s_m_source_file>
AV-unprocessed.smi

> <i_m_source_file_index>
439

> <i_lp_mmshare_version>
43012

> <i_f3d_flags>
0

> <s_epik_input>
W0NIM11bQ0gyXVtDSDJdW0NIMl1uMWMoW05IMl0pYyhjKD1PKVtuSF1jMT1PKU4oW0NIMl1bQ0gzXSlDKD1PKUMyPVtDSF1PW0NIMl1bQ0gyXU8y

> <s_epik_cmdline>
J2VwaWtfcHl0aG9uJywgJy1waCcsICc3LjAnLCAnLXRuJywgJzgnLCAnLW1hJywgJzIwMCcsICctbWV0YWxfYmluZGluZycsICctaW1hZScsICc8aW5maWxlLm1hZT4nLCAnLW9tYWUnLCAnPG91dGZpbGUubWFlPic=

> <r_lp_tautomer_probability>
1

> <r_epik_Ionization_Penalty>
6.21372

> <r_epik_Ionization_Penalty_Charging>
0.188923

> <r_epik_Ionization_Penalty_Neutral>
6.0248

> <r_epik_State_Penalty>
6.02477

> <r_epik_Charging_Adjusted_Penalty>
6.2137

> <i_epik_Tot_Q>
-1

> <i_epik_Tot_abs_Q>
1

> <r_epik_Metal_State_Penalty>
1.95433

> <b_epik_Metal_Only>
1

> <s_epik_Chemistry_Notes>
This compound has an imine and may undergo hydrolysis.

> <s_lp_Force_Field>
OPLS_2005

> <r_lp_Energy>
37.3971

> <b_lp_Chiralities_Consistent>
1

> <s_lp_Variant>
AV-unprocessed.smi:439-2

> <Gold.Version>
5.8.1

> <Gold.Id.Protein>
6NUR|6NUR_protein|mol2

> <Gold.PLP.Fitness>
42.7100

> <Gold.PLP.PLP>
-40.1635

> <Gold.PLP.part.hbond>
-2.7933

> <Gold.PLP.part.metal>
0.0000

> <Gold.PLP.part.buried>
-4.7749

> <Gold.PLP.part.nonpolar>
-32.1715

> <Gold.PLP.part.repulsive>
0.0245

> <Gold.PLP.ligand.clash>
0.0000

> <Gold.PLP.ligand.torsion>
2.0112

> <Gold.PLP.Chemscore.Hbond>
1.0000

> <Gold.PLP.Chemscore.CHOScore>
0.0000

> <Gold.PLP.Chemscore.Metal>
0.0000

> <Gold.PLP.Chemscore.Internal.Correction>
3.5689

> <Gold.Rescore>
     Score         DG    S(hbond)    S(metal)    S(lipo)     H(rot)  DE(clash)    DE(int)     intcor
      7.44     -12.86       1.00        0.00      70.26       1.63       0.03       5.39       ----

> <Gold.Chemscore.Fitness>
7.4376

> <Gold.Chemscore.DG>
-12.8615

> <Gold.Chemscore.ZeroCoef>
-5.4800

> <Gold.Chemscore.Hbond>
1.0000

> <Gold.Chemscore.Metal>
0.0000

> <Gold.Chemscore.Lipo>
70.2638

> <Gold.Chemscore.Internal_Hbond>
0.0000

> <Gold.Chemscore.DEClash>
0.0310

> <Gold.Chemscore.DEInternal>
5.3930

> <Gold.Chemscore.Rot>
1.6325

> <Gold.Chemscore.Internal.Correction>
   9.000000E+99

> <Gold.Chemscore.Hbond.Weighted>
-3.3400

> <Gold.Chemscore.Metal.Weighted>
-0.0000

> <Gold.Chemscore.Lipo.Weighted>
-8.2209

> <Gold.Chemscore.Internal_Hbond.Weighted>
0.0000

> <Gold.Chemscore.DEClash.Weighted>
0.0310

> <Gold.Chemscore.DEInternal.Weighted>
5.3930

> <Gold.Chemscore.Rot.Weighted>
4.1793

> <Gold.Chemscore.Internal.Correction.Weighted>
   9.000000E+99

> <Gold.Protein.RotatedTorsions>
[ 6907 6896 6895 6894 ] final    3.57 input  -60.11 | X-H torsion
[ 7974 7965 7964 7962 ] final  -63.04 input  175.53 | X-H torsion
[ 8008 7997 7996 7995 ] final   41.03 input   59.86 | X-H torsion
[ 10167 10162 10161 10158 ] final -112.36 input  -65.29 | X-H torsion
[ 10718 10713 10712 10709 ] final -128.43 input   66.30 | X-H torsion
[ 10763 10752 10751 10750 ] final -145.61 input  -60.55 | X-H torsion
[ 11005 11000 10999 10996 ] final  117.39 input  -57.11 | X-H torsion

> <Gold.Protein.ActiveResidues>
 VAL166  LYS551  ARG553  GLY616  TRP617  ASP618  TYR619  PRO620  LYS621  CYS622 
 ASP623  PHE694  ASN695  SER759  ASP760  ASP761  ALA762  ILE779  LEU786  VAL792 
 PHE793  MET794  SER795  GLU796  ALA797  LYS798  CYS799  TRP800  GLU811  SER814 

> <Gold.Protein.RotatedAtoms>
  151.6273  135.1026  160.0113 H   0  0  0  0  0  0  0  0  0  0  0  0  # atno 6907 bound_to 6896
  152.4126  133.6982  159.6419 H   0  0  0  0  0  0  0  0  0  0  0  0  # atno 6908 bound_to 6896
  150.8015  133.8515  159.3247 H   0  0  0  0  0  0  0  0  0  0  0  0  # atno 6909 bound_to 6896
  145.7839  140.8747  143.0316 H   0  0  0  0  0  0  0  0  0  0  0  0  # atno 7974 bound_to 7965
  155.2629  140.3360  155.4271 H   0  0  0  0  0  0  0  0  0  0  0  0  # atno 8008 bound_to 7997
  156.2167  140.1792  156.7615 H   0  0  0  0  0  0  0  0  0  0  0  0  # atno 8009 bound_to 7997
  154.5764  140.0661  156.9024 H   0  0  0  0  0  0  0  0  0  0  0  0  # atno 8010 bound_to 7997
  140.1235  143.4422  152.1675 H   0  0  0  0  0  0  0  0  0  0  0  0  # atno 10167 bound_to 10162
  156.1950  130.6820  151.0471 H   0  0  0  0  0  0  0  0  0  0  0  0  # atno 10718 bound_to 10713
  154.8375  135.3408  154.6532 H   0  0  0  0  0  0  0  0  0  0  0  0  # atno 10763 bound_to 10752
  153.7146  135.6962  153.5033 H   0  0  0  0  0  0  0  0  0  0  0  0  # atno 10764 bound_to 10752
  153.2427  135.4379  155.0668 H   0  0  0  0  0  0  0  0  0  0  0  0  # atno 10765 bound_to 10752
  139.9073  134.9609  156.7344 H   0  0  0  0  0  0  0  0  0  0  0  0  # atno 11005 bound_to 11000
  144.6792  140.0028  143.7484 LP  0  0  0  0  0  0  0  0  0  0  0  0  # atno 17320 bound_to 7965
  146.0046  139.3119  143.0907 LP  0  0  0  0  0  0  0  0  0  0  0  0  # atno 17321 bound_to 7965
  139.5556  144.7370  151.4304 LP  0  0  0  0  0  0  0  0  0  0  0  0  # atno 17342 bound_to 10162
  140.6858  143.7977  150.7184 LP  0  0  0  0  0  0  0  0  0  0  0  0  # atno 17343 bound_to 10162
  157.6952  131.0796  150.6990 LP  0  0  0  0  0  0  0  0  0  0  0  0  # atno 17370 bound_to 10713
  156.7047  130.4634  149.5563 LP  0  0  0  0  0  0  0  0  0  0  0  0  # atno 17371 bound_to 10713
  140.6899  133.9399  155.7960 LP  0  0  0  0  0  0  0  0  0  0  0  0  # atno 17394 bound_to 11000
  141.0449  134.0569  157.3857 LP  0  0  0  0  0  0  0  0  0  0  0  0  # atno 17395 bound_to 11000

$$$$
