AV-unprocessed.smi:3148|AV-procd|sdf|11994|dock6
  -GOLD-   2272017403D 1   1.00000     0.00000
 Structure written by MMmdl.
 34 36  0  0  0  0  0  0  0  0  1 V2000
  147.0806  141.0886  153.5068 C   0  0  0  0  0  0  0  0  0  0  0  0
  147.9503  139.9977  153.7888 O   0  0  0  0  0  0  0  0  0  0  0  0
  149.1296  140.2633  154.4534 C   0  0  0  0  0  0  0  0  0  0  0  0
  150.1826  139.3278  154.3994 C   0  0  0  0  0  0  0  0  0  0  0  0
  151.3586  139.6652  155.1017 C   0  0  0  0  0  0  0  0  0  0  0  0
  152.5585  138.7423  155.1263 C   0  0  0  0  0  0  0  0  0  0  0  0
  151.4704  140.8230  155.7896 N   0  0  0  0  0  0  0  0  0  0  0  0
  150.4136  141.6385  155.7790 C   0  0  0  0  0  0  0  0  0  0  0  0
  150.5572  142.8094  156.5004 N   0  0  0  0  0  0  0  0  0  0  0  0
  151.6173  143.0533  157.4708 C   0  0  1  0  0  0  0  0  0  0  0  0
  151.6510  144.5039  157.9680 C   0  0  0  0  0  0  0  0  0  0  0  0
  151.5346  144.3205  159.4863 C   0  0  2  0  0  0  0  0  0  0  0  0
  152.7938  143.6877  160.0942 C   0  0  0  0  0  0  0  0  0  0  0  0
  152.6733  142.2386  159.6231 C   0  0  0  0  0  0  0  0  0  0  0  0
  151.3895  142.2843  158.7828 C   0  0  1  0  0  0  0  0  0  0  0  0
  150.6394  143.2238  159.5358 O   0  0  0  0  0  0  0  0  0  0  0  0
  149.2538  141.4210  155.1488 N   0  0  0  0  0  0  0  0  0  0  0  0
  146.2015  140.7222  152.9772 H   0  0  0  0  0  0  0  0  0  0  0  0
  147.5646  141.8313  152.8709 H   0  0  0  0  0  0  0  0  0  0  0  0
  146.7378  141.5717  154.4231 H   0  0  0  0  0  0  0  0  0  0  0  0
  150.0891  138.4029  153.8496 H   0  0  0  0  0  0  0  0  0  0  0  0
  152.4164  137.8936  154.4566 H   0  0  0  0  0  0  0  0  0  0  0  0
  152.7191  138.3590  156.1342 H   0  0  0  0  0  0  0  0  0  0  0  0
  153.4566  139.2758  154.8137 H   0  0  0  0  0  0  0  0  0  0  0  0
  149.9810  143.5915  156.2246 H   0  0  0  0  0  0  0  0  0  0  0  0
  152.5714  142.7612  157.0300 H   0  0  0  0  0  0  0  0  0  0  0  0
  152.5636  145.0257  157.6786 H   0  0  0  0  0  0  0  0  0  0  0  0
  150.8022  145.0781  157.5933 H   0  0  0  0  0  0  0  0  0  0  0  0
  151.1856  145.2090  160.0129 H   0  0  0  0  0  0  0  0  0  0  0  0
  153.7076  144.1722  159.7484 H   0  0  0  0  0  0  0  0  0  0  0  0
  152.7691  143.7390  161.1833 H   0  0  0  0  0  0  0  0  0  0  0  0
  153.5380  141.9063  159.0478 H   0  0  0  0  0  0  0  0  0  0  0  0
  152.5526  141.5690  160.4755 H   0  0  0  0  0  0  0  0  0  0  0  0
  150.9125  141.3110  158.6624 H   0  0  0  0  0  0  0  0  0  0  0  0
  1  2  1  0  0  0  0
  1 18  1  0  0  0  0
  1 19  1  0  0  0  0
  1 20  1  0  0  0  0
  2  3  1  0  0  0  0
  3 17  1  0  0  0  0
  3  4  2  0  0  0  0
  4  5  1  0  0  0  0
  4 21  1  0  0  0  0
  5  6  1  0  0  0  0
  5  7  2  0  0  0  0
  6 22  1  0  0  0  0
  6 23  1  0  0  0  0
  6 24  1  0  0  0  0
  7  8  1  0  0  0  0
  8  9  1  0  0  0  0
  8 17  2  0  0  0  0
  9 10  1  0  0  0  0
  9 25  1  0  0  0  0
 10 15  1  0  0  0  0
 10 11  1  0  0  0  0
 10 26  1  0  0  0  0
 11 12  1  0  0  0  0
 11 27  1  0  0  0  0
 11 28  1  0  0  0  0
 12 16  1  0  0  0  0
 12 13  1  0  0  0  0
 12 29  1  0  0  0  0
 13 14  1  0  0  0  0
 13 30  1  0  0  0  0
 13 31  1  0  0  0  0
 14 15  1  0  0  0  0
 14 32  1  0  0  0  0
 14 33  1  0  0  0  0
 15 16  1  0  0  0  0
 15 34  1  0  0  0  0
M  END
> <s_m_source_file>
AV-unprocessed.smi

> <i_m_source_file_index>
3148

> <i_lp_mmshare_version>
43012

> <i_f3d_flags>
0

> <s_epik_input>
W0NIM11PYzFbY0hdYyhbQ0gzXSluYyhuMSlbTkhdW0NASF0oW0NIMl1bQ0BASF0yMylbQ0BASF0oTzMpW0NIMl1bQ0gyXTI=

> <s_epik_cmdline>
J2VwaWtfcHl0aG9uJywgJy1waCcsICc3LjAnLCAnLXRuJywgJzgnLCAnLW1hJywgJzIwMCcsICctbWV0YWxfYmluZGluZycsICctaW1hZScsICc8aW5maWxlLm1hZT4nLCAnLW9tYWUnLCAnPG91dGZpbGUubWFlPic=

> <r_lp_tautomer_probability>
1

> <r_epik_Ionization_Penalty>
0.101645

> <r_epik_Ionization_Penalty_Charging>
0

> <r_epik_Ionization_Penalty_Neutral>
0.101645

> <r_epik_State_Penalty>
0.0916212

> <r_epik_Charging_Adjusted_Penalty>
0.0916212

> <i_epik_Tot_Q>
0

> <i_epik_Tot_abs_Q>
0

> <r_epik_Metal_State_Penalty>
0.0781

> <b_epik_Metal_Only>
0

> <s_lp_Force_Field>
OPLS_2005

> <r_lp_Energy>
31.271

> <b_lp_Chiralities_Consistent>
1

> <s_lp_Variant>
AV-unprocessed.smi:3148-4

> <Gold.Version>
5.8.1

> <Gold.Id.Protein>
6NUR|6NUR_protein|mol2

> <Gold.PLP.Fitness>
42.5644

> <Gold.PLP.PLP>
-40.4081

> <Gold.PLP.part.hbond>
-2.5557

> <Gold.PLP.part.metal>
0.0000

> <Gold.PLP.part.buried>
-4.5764

> <Gold.PLP.part.nonpolar>
-33.2278

> <Gold.PLP.part.repulsive>
0.6226

> <Gold.PLP.ligand.clash>
0.0000

> <Gold.PLP.ligand.torsion>
0.4333

> <Gold.PLP.Chemscore.Hbond>
1.0000

> <Gold.PLP.Chemscore.CHOScore>
0.0000

> <Gold.PLP.Chemscore.Metal>
0.0000

> <Gold.Chemscore.Hbonds>
donor molecule, donor type, donor heavy atom, donor atom, acceptor molecule, acceptor atom, score
      L1  H     9    25       P1  8028  1.00

> <Gold.PLP.Chemscore.Internal.Correction>
0.0228

> <Gold.Rescore>
     Score         DG    S(hbond)    S(metal)    S(lipo)     H(rot)  DE(clash)    DE(int)     intcor
     16.59     -17.47       0.99        0.00     100.98       1.22       0.43       0.45       ----

> <Gold.Chemscore.Fitness>
16.5904

> <Gold.Chemscore.DG>
-17.4676

> <Gold.Chemscore.ZeroCoef>
-5.4800

> <Gold.Chemscore.Hbond>
0.9893

> <Gold.Chemscore.Metal>
0.0000

> <Gold.Chemscore.Lipo>
100.9794

> <Gold.Chemscore.Internal_Hbond>
0.0000

> <Gold.Chemscore.DEClash>
0.4271

> <Gold.Chemscore.DEInternal>
0.4500

> <Gold.Chemscore.Rot>
1.2232

> <Gold.Chemscore.Internal.Correction>
   9.000000E+99

> <Gold.Chemscore.Hbonds>
donor molecule, donor type, donor heavy atom, donor atom, acceptor molecule, acceptor atom, score
      L1  H     9    25       P1  8028  1.00

> <Gold.Chemscore.Hbond.Weighted>
-3.3044

> <Gold.Chemscore.Metal.Weighted>
-0.0000

> <Gold.Chemscore.Lipo.Weighted>
-11.8146

> <Gold.Chemscore.Internal_Hbond.Weighted>
0.0000

> <Gold.Chemscore.DEClash.Weighted>
0.4271

> <Gold.Chemscore.DEInternal.Weighted>
0.4500

> <Gold.Chemscore.Rot.Weighted>
3.1314

> <Gold.Chemscore.Internal.Correction.Weighted>
   9.000000E+99

> <Gold.Protein.RotatedTorsions>
[ 6907 6896 6895 6894 ] final  144.16 input  -60.11 | X-H torsion
[ 7974 7965 7964 7962 ] final  -60.15 input  175.53 | X-H torsion
[ 8008 7997 7996 7995 ] final  -91.75 input   59.86 | X-H torsion
[ 10167 10162 10161 10158 ] final   38.63 input  -65.29 | X-H torsion
[ 10718 10713 10712 10709 ] final   40.87 input   66.30 | X-H torsion
[ 10763 10752 10751 10750 ] final  137.15 input  -60.55 | X-H torsion
[ 11005 11000 10999 10996 ] final   73.08 input  -57.11 | X-H torsion

> <Gold.Protein.ActiveResidues>
 VAL166  LYS551  ARG553  GLY616  TRP617  ASP618  TYR619  PRO620  LYS621  CYS622 
 ASP623  PHE694  ASN695  SER759  ASP760  ASP761  ALA762  ILE779  LEU786  VAL792 
 PHE793  MET794  SER795  GLU796  ALA797  LYS798  CYS799  TRP800  GLU811  SER814 

> <Gold.Protein.RotatedAtoms>
  152.1971  133.4814  159.5038 H   0  0  0  0  0  0  0  0  0  0  0  0  # atno 6907 bound_to 6896
  150.6962  134.1638  159.4195 H   0  0  0  0  0  0  0  0  0  0  0  0  # atno 6908 bound_to 6896
  151.9554  135.0149  160.0595 H   0  0  0  0  0  0  0  0  0  0  0  0  # atno 6909 bound_to 6896
  145.8190  140.8552  143.0142 H   0  0  0  0  0  0  0  0  0  0  0  0  # atno 7974 bound_to 7965
  154.7146  140.0516  157.0582 H   0  0  0  0  0  0  0  0  0  0  0  0  # atno 8008 bound_to 7997
  155.0508  140.3179  155.4673 H   0  0  0  0  0  0  0  0  0  0  0  0  # atno 8009 bound_to 7997
  156.2799  140.2116  156.5634 H   0  0  0  0  0  0  0  0  0  0  0  0  # atno 8010 bound_to 7997
  140.3918  144.1842  150.6131 H   0  0  0  0  0  0  0  0  0  0  0  0  # atno 10167 bound_to 10162
  157.3871  130.7785  149.7239 H   0  0  0  0  0  0  0  0  0  0  0  0  # atno 10718 bound_to 10713
  153.8683  135.3059  155.3441 H   0  0  0  0  0  0  0  0  0  0  0  0  # atno 10763 bound_to 10752
  154.7817  135.4832  153.9862 H   0  0  0  0  0  0  0  0  0  0  0  0  # atno 10764 bound_to 10752
  153.1421  135.6826  153.9107 H   0  0  0  0  0  0  0  0  0  0  0  0  # atno 10765 bound_to 10752
  139.9458  134.7316  156.0984 H   0  0  0  0  0  0  0  0  0  0  0  0  # atno 11005 bound_to 11000
  144.6749  140.0506  143.7479 LP  0  0  0  0  0  0  0  0  0  0  0  0  # atno 17320 bound_to 7965
  145.9695  139.2859  143.1107 LP  0  0  0  0  0  0  0  0  0  0  0  0  # atno 17321 bound_to 7965
  140.4831  143.2372  151.8926 LP  0  0  0  0  0  0  0  0  0  0  0  0  # atno 17342 bound_to 10162
  139.4788  144.5247  151.8752 LP  0  0  0  0  0  0  0  0  0  0  0  0  # atno 17343 bound_to 10162
  155.9789  130.4046  150.3619 LP  0  0  0  0  0  0  0  0  0  0  0  0  # atno 17370 bound_to 10713
  157.1730  131.0373  151.2786 LP  0  0  0  0  0  0  0  0  0  0  0  0  # atno 17371 bound_to 10713
  141.1107  133.6644  156.2973 LP  0  0  0  0  0  0  0  0  0  0  0  0  # atno 17394 bound_to 11000
  140.5839  134.5718  157.5485 LP  0  0  0  0  0  0  0  0  0  0  0  0  # atno 17395 bound_to 11000

$$$$
