AV-unprocessed.smi:3051|AV-procd|sdf|11633|dock5
  -GOLD-   2272017 23D 1   1.00000     0.00000
 Structure written by MMmdl.
 37 37  0  0  0  0  0  0  0  0  1 V2000
  139.4663  138.4219  153.2887 C   0  0  0  0  0  0  0  0  0  0  0  0
  139.4392  137.1299  154.1156 C   0  0  0  0  0  0  0  0  0  0  0  0
  140.1779  136.0586  153.4585 N   0  0  0  0  0  0  0  0  0  0  0  0
  141.3677  135.5822  153.8579 C   0  0  0  0  0  0  0  0  0  0  0  0
  141.9733  136.0063  154.8422 O   0  0  0  0  0  0  0  0  0  0  0  0
  141.9642  134.4460  153.0251 C   0  0  0  0  0  0  0  0  0  0  0  0
  143.2191  134.8418  152.4106 N   0  0  0  0  0  0  0  0  0  0  0  0
  143.7978  136.0955  152.3728 C   0  0  0  0  0  0  0  0  0  0  0  0
  144.9732  135.9849  151.6853 C   0  0  0  0  0  0  0  0  0  0  0  0
  145.0220  134.6059  151.3440 C   0  0  0  0  0  0  0  0  0  0  0  0
  146.0891  134.0588  150.6215 N   0  0  0  0  0  0  0  0  0  0  0  0
  146.1148  132.6402  150.2841 C   0  0  2  0  0  0  0  0  0  0  0  0
  144.9616  132.2838  149.3306 C   0  0  0  0  0  0  0  0  0  0  0  0
  146.0509  131.7908  151.5627 C   0  0  0  0  0  0  0  0  0  0  0  0
  146.0652  130.4162  151.2128 O   0  0  0  0  0  0  0  0  0  0  0  0
  146.1333  129.5679  152.3456 C   0  0  0  0  0  0  0  0  0  0  0  0
  143.9742  133.9195  151.7740 N   0  0  0  0  0  0  0  0  0  0  0  0
  138.9403  139.2237  153.8071 H   0  0  0  0  0  0  0  0  0  0  0  0
  138.9858  138.2840  152.3196 H   0  0  0  0  0  0  0  0  0  0  0  0
  140.4896  138.7552  153.1123 H   0  0  0  0  0  0  0  0  0  0  0  0
  139.8939  137.3083  155.0903 H   0  0  0  0  0  0  0  0  0  0  0  0
  138.4099  136.8211  154.3052 H   0  0  0  0  0  0  0  0  0  0  0  0
  139.7574  135.6514  152.6353 H   0  0  0  0  0  0  0  0  0  0  0  0
  142.1452  133.5747  153.6558 H   0  0  0  0  0  0  0  0  0  0  0  0
  141.2558  134.1413  152.2527 H   0  0  0  0  0  0  0  0  0  0  0  0
  143.3279  136.9525  152.8322 H   0  0  0  0  0  0  0  0  0  0  0  0
  145.6840  136.7671  151.4638 H   0  0  0  0  0  0  0  0  0  0  0  0
  146.8366  134.6538  150.2945 H   0  0  0  0  0  0  0  0  0  0  0  0
  147.0564  132.4158  149.7810 H   0  0  0  0  0  0  0  0  0  0  0  0
  144.9853  131.2266  149.0656 H   0  0  0  0  0  0  0  0  0  0  0  0
  145.0190  132.8509  148.4013 H   0  0  0  0  0  0  0  0  0  0  0  0
  143.9924  132.4901  149.7860 H   0  0  0  0  0  0  0  0  0  0  0  0
  146.8835  132.0305  152.2269 H   0  0  0  0  0  0  0  0  0  0  0  0
  145.1293  132.0071  152.1057 H   0  0  0  0  0  0  0  0  0  0  0  0
  146.1393  128.5268  152.0235 H   0  0  0  0  0  0  0  0  0  0  0  0
  145.2725  129.7125  152.9997 H   0  0  0  0  0  0  0  0  0  0  0  0
  147.0436  129.7484  152.9185 H   0  0  0  0  0  0  0  0  0  0  0  0
  1  2  1  0  0  0  0
  1 18  1  0  0  0  0
  1 19  1  0  0  0  0
  1 20  1  0  0  0  0
  2  3  1  0  0  0  0
  2 21  1  0  0  0  0
  2 22  1  0  0  0  0
  3  4  1  0  0  0  0
  3 23  1  0  0  0  0
  4  5  2  0  0  0  0
  4  6  1  0  0  0  0
  6  7  1  0  0  0  0
  6 24  1  0  0  0  0
  6 25  1  0  0  0  0
  7 17  1  0  0  0  0
  7  8  1  0  0  0  0
  8  9  2  0  0  0  0
  8 26  1  0  0  0  0
  9 10  1  0  0  0  0
  9 27  1  0  0  0  0
 10 11  1  0  0  0  0
 10 17  2  0  0  0  0
 11 12  1  0  0  0  0
 11 28  1  0  0  0  0
 12 13  1  0  0  0  0
 12 14  1  0  0  0  0
 12 29  1  0  0  0  0
 13 30  1  0  0  0  0
 13 31  1  0  0  0  0
 13 32  1  0  0  0  0
 14 15  1  0  0  0  0
 14 33  1  0  0  0  0
 14 34  1  0  0  0  0
 15 16  1  0  0  0  0
 16 35  1  0  0  0  0
 16 36  1  0  0  0  0
 16 37  1  0  0  0  0
M  END
> <s_m_source_file>
AV-unprocessed.smi

> <i_m_source_file_index>
3051

> <i_lp_mmshare_version>
43012

> <i_f3d_flags>
0

> <s_epik_input>
W0NIM11bQ0gyXVtOSF1DKD1PKVtDSDJdbjFbY0hdW2NIXWMobjEpW05IXVtDQEhdKFtDSDNdKVtDSDJdT1tDSDNd

> <s_epik_cmdline>
J2VwaWtfcHl0aG9uJywgJy1waCcsICc3LjAnLCAnLXRuJywgJzgnLCAnLW1hJywgJzIwMCcsICctbWV0YWxfYmluZGluZycsICctaW1hZScsICc8aW5maWxlLm1hZT4nLCAnLW9tYWUnLCAnPG91dGZpbGUubWFlPic=

> <r_lp_tautomer_probability>
1

> <r_epik_Ionization_Penalty>
0.00023157

> <r_epik_Ionization_Penalty_Charging>
0

> <r_epik_Ionization_Penalty_Neutral>
0.00023157

> <r_epik_State_Penalty>
-0

> <r_epik_Charging_Adjusted_Penalty>
0

> <i_epik_Tot_Q>
0

> <i_epik_Tot_abs_Q>
0

> <r_epik_Metal_State_Penalty>
-0

> <b_epik_Metal_Only>
0

> <s_lp_Force_Field>
OPLS_2005

> <r_lp_Energy>
4.00538

> <b_lp_Chiralities_Consistent>
1

> <s_lp_Variant>
AV-unprocessed.smi:3051-1

> <Gold.Version>
5.8.1

> <Gold.Id.Protein>
6NUR|6NUR_protein|mol2

> <Gold.PLP.Fitness>
37.8851

> <Gold.PLP.PLP>
-35.1855

> <Gold.PLP.part.hbond>
-2.4695

> <Gold.PLP.part.metal>
0.0000

> <Gold.PLP.part.buried>
-5.1168

> <Gold.PLP.part.nonpolar>
-28.4337

> <Gold.PLP.part.repulsive>
1.1153

> <Gold.PLP.ligand.clash>
0.0000

> <Gold.PLP.ligand.torsion>
0.1627

> <Gold.PLP.Chemscore.Hbond>
1.0000

> <Gold.PLP.Chemscore.CHOScore>
0.0000

> <Gold.PLP.Chemscore.Metal>
0.0000

> <Gold.Chemscore.Hbonds>
donor molecule, donor type, donor heavy atom, donor atom, acceptor molecule, acceptor atom, score
      L1  H     3    23       P1 10187  1.00

> <Gold.PLP.Chemscore.Internal.Correction>
0.0250

> <Gold.Rescore>
     Score         DG    S(hbond)    S(metal)    S(lipo)     H(rot)  DE(clash)    DE(int)     intcor
      9.43     -11.18       0.85        0.00      72.46       2.19       0.12       1.63       ----

> <Gold.Chemscore.Fitness>
9.4332

> <Gold.Chemscore.DG>
-11.1826

> <Gold.Chemscore.ZeroCoef>
-5.4800

> <Gold.Chemscore.Hbond>
0.8470

> <Gold.Chemscore.Metal>
0.0000

> <Gold.Chemscore.Lipo>
72.4562

> <Gold.Chemscore.Internal_Hbond>
0.0000

> <Gold.Chemscore.DEClash>
0.1223

> <Gold.Chemscore.DEInternal>
1.6270

> <Gold.Chemscore.Rot>
2.1890

> <Gold.Chemscore.Internal.Correction>
   9.000000E+99

> <Gold.Chemscore.Hbonds>
donor molecule, donor type, donor heavy atom, donor atom, acceptor molecule, acceptor atom, score
      L1  H     3    23       P1 10187  0.33

> <Gold.Chemscore.Hbond.Weighted>
-2.8291

> <Gold.Chemscore.Metal.Weighted>
-0.0000

> <Gold.Chemscore.Lipo.Weighted>
-8.4774

> <Gold.Chemscore.Internal_Hbond.Weighted>
0.0000

> <Gold.Chemscore.DEClash.Weighted>
0.1223

> <Gold.Chemscore.DEInternal.Weighted>
1.6270

> <Gold.Chemscore.Rot.Weighted>
5.6039

> <Gold.Chemscore.Internal.Correction.Weighted>
   9.000000E+99

> <Gold.Protein.RotatedTorsions>
[ 6907 6896 6895 6894 ] final   89.28 input  -60.11 | X-H torsion
[ 7974 7965 7964 7962 ] final   -8.81 input  175.53 | X-H torsion
[ 8008 7997 7996 7995 ] final -160.67 input   59.86 | X-H torsion
[ 10167 10162 10161 10158 ] final   11.76 input  -65.29 | X-H torsion
[ 10718 10713 10712 10709 ] final  -68.92 input   66.30 | X-H torsion
[ 10763 10752 10751 10750 ] final  157.91 input  -60.55 | X-H torsion
[ 11005 11000 10999 10996 ] final  -64.41 input  -57.11 | X-H torsion

> <Gold.Protein.ActiveResidues>
 VAL166  LYS551  ARG553  GLY616  TRP617  ASP618  TYR619  PRO620  LYS621  CYS622 
 ASP623  PHE694  ASN695  SER759  ASP760  ASP761  ALA762  ILE779  LEU786  VAL792 
 PHE793  MET794  SER795  GLU796  ALA797  LYS798  CYS799  TRP800  GLU811  SER814 

> <Gold.Protein.RotatedAtoms>
  152.5434  134.1991  159.8704 H   0  0  0  0  0  0  0  0  0  0  0  0  # atno 6907 bound_to 6896
  151.1981  133.4620  159.2603 H   0  0  0  0  0  0  0  0  0  0  0  0  # atno 6908 bound_to 6896
  151.1017  134.9988  159.8507 H   0  0  0  0  0  0  0  0  0  0  0  0  # atno 6909 bound_to 6896
  146.2270  140.2524  142.8348 H   0  0  0  0  0  0  0  0  0  0  0  0  # atno 7974 bound_to 7965
  155.7809  140.0865  157.2059 H   0  0  0  0  0  0  0  0  0  0  0  0  # atno 8008 bound_to 7997
  154.3990  140.1508  156.3108 H   0  0  0  0  0  0  0  0  0  0  0  0  # atno 8009 bound_to 7997
  155.8654  140.3428  155.5787 H   0  0  0  0  0  0  0  0  0  0  0  0  # atno 8010 bound_to 7997
  140.6111  143.8405  150.7067 H   0  0  0  0  0  0  0  0  0  0  0  0  # atno 10167 bound_to 10162
  156.0481  130.4303  150.2072 H   0  0  0  0  0  0  0  0  0  0  0  0  # atno 10718 bound_to 10713
  154.2077  135.2787  155.2969 H   0  0  0  0  0  0  0  0  0  0  0  0  # atno 10763 bound_to 10752
  154.5804  135.5591  153.7183 H   0  0  0  0  0  0  0  0  0  0  0  0  # atno 10764 bound_to 10752
  153.0072  135.6343  154.2216 H   0  0  0  0  0  0  0  0  0  0  0  0  # atno 10765 bound_to 10752
  141.1424  133.6665  156.5829 H   0  0  0  0  0  0  0  0  0  0  0  0  # atno 11005 bound_to 11000
  144.9402  140.8069  143.5635 LP  0  0  0  0  0  0  0  0  0  0  0  0  # atno 17320 bound_to 7965
  145.2475  139.2046  143.4960 LP  0  0  0  0  0  0  0  0  0  0  0  0  # atno 17321 bound_to 7965
  140.1973  143.3987  152.1818 LP  0  0  0  0  0  0  0  0  0  0  0  0  # atno 17342 bound_to 10162
  139.5362  144.7212  151.4885 LP  0  0  0  0  0  0  0  0  0  0  0  0  # atno 17343 bound_to 10162
  157.0159  130.9965  151.3353 LP  0  0  0  0  0  0  0  0  0  0  0  0  # atno 17370 bound_to 10713
  157.5378  130.8100  149.7993 LP  0  0  0  0  0  0  0  0  0  0  0  0  # atno 17371 bound_to 10713
  140.3824  134.7512  157.4669 LP  0  0  0  0  0  0  0  0  0  0  0  0  # atno 17394 bound_to 11000
  140.0628  134.5972  155.8729 LP  0  0  0  0  0  0  0  0  0  0  0  0  # atno 17395 bound_to 11000

$$$$
