AV-unprocessed.smi:2134|AV-procd|sdf|8695|dock3
  -GOLD-   2272011453D 1   1.00000     0.00000
 Structure written by MMmdl.
 36 37  0  0  0  0  0  0  0  0  2 V2000
  147.6133  136.7513  163.5412 C   0  0  0  0  0  0  0  0  0  0  0  0
  147.7800  136.0387  162.2760 N   0  0  0  0  0  0  0  0  0  0  0  0
  148.2132  136.8194  161.2241 N   0  0  0  0  0  0  0  0  0  0  0  0
  148.1948  136.3955  159.9993 C   0  0  0  0  0  0  0  0  0  0  0  0
  148.6508  137.2843  158.8981 C   0  0  0  0  0  0  0  0  0  0  0  0
  148.1428  137.2185  157.7782 O   0  0  0  0  0  0  0  0  0  0  0  0
  149.6245  138.1597  159.2123 N   0  0  0  0  0  0  0  0  0  0  0  0
  150.1972  139.1581  158.3124 C   0  0  0  0  0  0  0  0  0  0  0  0
  151.3305  139.9634  158.9775 C   0  0  0  0  0  0  0  0  0  0  0  0
  151.2650  141.4545  158.6942 C   0  0  0  0  0  0  0  0  0  0  0  0
  152.2313  142.3347  159.2306 C   0  0  0  0  0  0  0  0  0  0  0  0
  152.1245  143.7176  158.9752 C   0  0  0  0  0  0  0  0  0  0  0  0
  151.0541  144.1894  158.1884 C   0  0  0  0  0  0  0  0  0  0  0  0
  150.1506  143.3175  157.6897 N   0  3  0  0  0  0  0  0  0  0  0  0
  150.2187  141.9863  157.9099 C   0  0  0  0  0  0  0  0  0  0  0  0
  147.6759  135.0099  159.6703 C   0  0  0  0  0  0  0  0  0  0  0  0
  147.8336  134.0354  160.8543 C   0  0  0  0  0  0  0  0  0  0  0  0
  147.5423  134.7054  162.2003 C   0  0  0  0  0  0  0  0  0  0  0  0
  147.1384  134.0278  163.1452 O   0  0  0  0  0  0  0  0  0  0  0  0
  148.2741  136.3384  164.3046 H   0  0  0  0  0  0  0  0  0  0  0  0
  146.5858  136.6672  163.8976 H   0  0  0  0  0  0  0  0  0  0  0  0
  147.8435  137.8137  163.4468 H   0  0  0  0  0  0  0  0  0  0  0  0
  149.9865  138.1379  160.1552 H   0  0  0  0  0  0  0  0  0  0  0  0
  150.5859  138.6393  157.4359 H   0  0  0  0  0  0  0  0  0  0  0  0
  149.4221  139.8323  157.9441 H   0  0  0  0  0  0  0  0  0  0  0  0
  151.3087  139.8026  160.0562 H   0  0  0  0  0  0  0  0  0  0  0  0
  152.2953  139.5867  158.6359 H   0  0  0  0  0  0  0  0  0  0  0  0
  153.0399  141.9582  159.8399 H   0  0  0  0  0  0  0  0  0  0  0  0
  152.8512  144.4064  159.3803 H   0  0  0  0  0  0  0  0  0  0  0  0
  150.8940  145.2297  157.9457 H   0  0  0  0  0  0  0  0  0  0  0  0
  149.4322  141.3930  157.4665 H   0  0  0  0  0  0  0  0  0  0  0  0
  146.6265  135.0784  159.3820 H   0  0  0  0  0  0  0  0  0  0  0  0
  148.2045  134.5960  158.8104 H   0  0  0  0  0  0  0  0  0  0  0  0
  147.1881  133.1667  160.7197 H   0  0  0  0  0  0  0  0  0  0  0  0
  148.8581  133.6631  160.8889 H   0  0  0  0  0  0  0  0  0  0  0  0
  149.3817  143.6797  157.1250 H   0  0  0  0  0  0  0  0  0  0  0  0
  1  2  1  0  0  0  0
  1 20  1  0  0  0  0
  1 21  1  0  0  0  0
  1 22  1  0  0  0  0
  2 18  1  0  0  0  0
  2  3  1  0  0  0  0
  3  4  2  0  0  0  0
  4  5  1  0  0  0  0
  4 16  1  0  0  0  0
  5  6  2  0  0  0  0
  5  7  1  0  0  0  0
  7  8  1  0  0  0  0
  7 23  1  0  0  0  0
  8  9  1  0  0  0  0
  8 24  1  0  0  0  0
  8 25  1  0  0  0  0
  9 10  1  0  0  0  0
  9 26  1  0  0  0  0
  9 27  1  0  0  0  0
 10 15  1  0  0  0  0
 10 11  2  0  0  0  0
 11 12  1  0  0  0  0
 11 28  1  0  0  0  0
 12 13  2  0  0  0  0
 12 29  1  0  0  0  0
 13 14  1  0  0  0  0
 13 30  1  0  0  0  0
 14 15  2  0  0  0  0
 14 36  1  0  0  0  0
 15 31  1  0  0  0  0
 16 17  1  0  0  0  0
 16 32  1  0  0  0  0
 16 33  1  0  0  0  0
 17 18  1  0  0  0  0
 17 34  1  0  0  0  0
 17 35  1  0  0  0  0
 18 19  2  0  0  0  0
M  CHG  1  14   1
M  END
> <s_m_source_file>
AV-unprocessed.smi

> <i_m_source_file_index>
2134

> <i_lp_mmshare_version>
43012

> <i_f3d_flags>
0

> <s_epik_input>
Tz1DMVtDSDJdW0NIMl1DKD1OTjFbQ0gzXSlDKD1PKVtOSF1bQ0gyXVtDSDJdYzJbY0hdW2NIXVtjSF1uW2NIXTI=

> <s_epik_cmdline>
J2VwaWtfcHl0aG9uJywgJy1waCcsICc3LjAnLCAnLXRuJywgJzgnLCAnLW1hJywgJzIwMCcsICctbWV0YWxfYmluZGluZycsICctaW1hZScsICc8aW5maWxlLm1hZT4nLCAnLW9tYWUnLCAnPG91dGZpbGUubWFlPic=

> <r_epik_Ionization_Penalty>
2.46483

> <r_epik_Ionization_Penalty_Charging>
2.46471

> <r_epik_Ionization_Penalty_Neutral>
0.00011851

> <r_epik_State_Penalty>
2.62717

> <r_epik_Charging_Adjusted_Penalty>
5.09187

> <i_epik_Tot_Q>
1

> <i_epik_Tot_abs_Q>
1

> <r_epik_Metal_State_Penalty>
2.80118

> <b_epik_Metal_Only>
0

> <s_epik_Chemistry_Notes>
This compound has an imine and may undergo hydrolysis.

> <s_lp_Force_Field>
OPLS_2005

> <r_lp_Energy>
23.6794

> <b_lp_Chiralities_Consistent>
1

> <s_lp_Variant>
AV-unprocessed.smi:2134-2

> <Gold.Version>
5.8.1

> <Gold.Id.Protein>
6NUR|6NUR_protein|mol2

> <Gold.PLP.Fitness>
47.9624

> <Gold.PLP.PLP>
-39.2119

> <Gold.PLP.part.hbond>
-4.0000

> <Gold.PLP.part.metal>
0.0000

> <Gold.PLP.part.buried>
-5.0736

> <Gold.PLP.part.nonpolar>
-31.7720

> <Gold.PLP.part.repulsive>
0.6082

> <Gold.PLP.ligand.clash>
0.0000

> <Gold.PLP.ligand.torsion>
0.7182

> <Gold.PLP.Chemscore.Hbond>
3.3931

> <Gold.PLP.Chemscore.CHOScore>
0.0000

> <Gold.PLP.Chemscore.Metal>
0.0000

> <Gold.Chemscore.Hbonds>
donor molecule, donor type, donor heavy atom, donor atom, acceptor molecule, acceptor atom, score
      L1  H    14    36       P1  8028  1.86
      P1  H  6931  6943       L1     3  1.00

> <Gold.PLP.Chemscore.Internal.Correction>
0.0075

> <Gold.Rescore>
     Score         DG    S(hbond)    S(metal)    S(lipo)     H(rot)  DE(clash)    DE(int)     intcor
     15.44     -16.31       1.66        0.00      78.43       1.52       0.13       0.74       ----

> <Gold.Chemscore.Fitness>
15.4411

> <Gold.Chemscore.DG>
-16.3072

> <Gold.Chemscore.ZeroCoef>
-5.4800

> <Gold.Chemscore.Hbond>
1.6560

> <Gold.Chemscore.Metal>
0.0000

> <Gold.Chemscore.Lipo>
78.4298

> <Gold.Chemscore.Internal_Hbond>
0.0000

> <Gold.Chemscore.DEClash>
0.1268

> <Gold.Chemscore.DEInternal>
0.7393

> <Gold.Chemscore.Rot>
1.5157

> <Gold.Chemscore.Internal.Correction>
   9.000000E+99

> <Gold.Chemscore.Hbonds>
donor molecule, donor type, donor heavy atom, donor atom, acceptor molecule, acceptor atom, score
      L1  H    14    36       P1  8028  0.68
      P1  H  6931  6943       L1     3  0.65
      P1  H  6934  6947       L1     3  0.01

> <Gold.Chemscore.Hbond.Weighted>
-5.5311

> <Gold.Chemscore.Metal.Weighted>
-0.0000

> <Gold.Chemscore.Lipo.Weighted>
-9.1763

> <Gold.Chemscore.Internal_Hbond.Weighted>
0.0000

> <Gold.Chemscore.DEClash.Weighted>
0.1268

> <Gold.Chemscore.DEInternal.Weighted>
0.7393

> <Gold.Chemscore.Rot.Weighted>
3.8801

> <Gold.Chemscore.Internal.Correction.Weighted>
   9.000000E+99

> <Gold.Protein.RotatedTorsions>
[ 6907 6896 6895 6894 ] final   65.61 input  -60.11 | X-H torsion
[ 7974 7965 7964 7962 ] final  -13.07 input  175.53 | X-H torsion
[ 8008 7997 7996 7995 ] final  158.61 input   59.86 | X-H torsion
[ 10167 10162 10161 10158 ] final  -95.30 input  -65.29 | X-H torsion
[ 10718 10713 10712 10709 ] final  153.14 input   66.30 | X-H torsion
[ 10763 10752 10751 10750 ] final  -41.04 input  -60.55 | X-H torsion
[ 11005 11000 10999 10996 ] final  -84.56 input  -57.11 | X-H torsion

> <Gold.Protein.ActiveResidues>
 VAL166  LYS551  ARG553  GLY616  TRP617  ASP618  TYR619  PRO620  LYS621  CYS622 
 ASP623  PHE694  ASN695  SER759  ASP760  ASP761  ALA762  ILE779  LEU786  VAL792 
 PHE793  MET794  SER795  GLU796  ALA797  LYS798  CYS799  TRP800  GLU811  SER814 

> <Gold.Protein.RotatedAtoms>
  152.4420  134.5571  159.9883 H   0  0  0  0  0  0  0  0  0  0  0  0  # atno 6907 bound_to 6896
  151.5666  133.3390  159.2989 H   0  0  0  0  0  0  0  0  0  0  0  0  # atno 6908 bound_to 6896
  150.8328  134.7622  159.6932 H   0  0  0  0  0  0  0  0  0  0  0  0  # atno 6909 bound_to 6896
  146.2128  140.3150  142.8385 H   0  0  0  0  0  0  0  0  0  0  0  0  # atno 7974 bound_to 7965
  156.2292  140.1853  156.7287 H   0  0  0  0  0  0  0  0  0  0  0  0  # atno 8008 bound_to 7997
  154.5992  140.0638  156.9373 H   0  0  0  0  0  0  0  0  0  0  0  0  # atno 8009 bound_to 7997
  155.2203  140.3307  155.4319 H   0  0  0  0  0  0  0  0  0  0  0  0  # atno 8010 bound_to 7997
  140.3056  143.3136  152.0203 H   0  0  0  0  0  0  0  0  0  0  0  0  # atno 10167 bound_to 10162
  157.2487  131.0774  151.1745 H   0  0  0  0  0  0  0  0  0  0  0  0  # atno 10718 bound_to 10713
  153.9559  135.6745  153.4744 H   0  0  0  0  0  0  0  0  0  0  0  0  # atno 10763 bound_to 10752
  153.0861  135.4898  154.8597 H   0  0  0  0  0  0  0  0  0  0  0  0  # atno 10764 bound_to 10752
  154.7299  135.3136  154.8868 H   0  0  0  0  0  0  0  0  0  0  0  0  # atno 10765 bound_to 10752
  141.1649  133.7352  156.8885 H   0  0  0  0  0  0  0  0  0  0  0  0  # atno 11005 bound_to 11000
  144.8961  140.7584  143.5896 LP  0  0  0  0  0  0  0  0  0  0  0  0  # atno 17320 bound_to 7965
  145.3074  139.1830  143.4657 LP  0  0  0  0  0  0  0  0  0  0  0  0  # atno 17321 bound_to 7965
  139.4905  144.6423  151.6850 LP  0  0  0  0  0  0  0  0  0  0  0  0  # atno 17342 bound_to 10162
  140.5613  144.0263  150.6171 LP  0  0  0  0  0  0  0  0  0  0  0  0  # atno 17343 bound_to 10162
  157.3302  130.6981  149.6320 LP  0  0  0  0  0  0  0  0  0  0  0  0  # atno 17370 bound_to 10713
  155.9667  130.4310  150.4900 LP  0  0  0  0  0  0  0  0  0  0  0  0  # atno 17371 bound_to 10713
  140.1665  134.9129  157.2780 LP  0  0  0  0  0  0  0  0  0  0  0  0  # atno 17394 bound_to 11000
  140.2551  134.3637  155.7427 LP  0  0  0  0  0  0  0  0  0  0  0  0  # atno 17395 bound_to 11000

$$$$
