AV-unprocessed.smi:212|AV-procd|sdf|1620|dock6
  -GOLD-   2262019553D 1   1.00000     0.00000
 Structure written by MMmdl.
 65 68  0  0  0  0  0  0  0  0  2 V2000
  149.0257  130.1921  154.9608 C   0  0  0  0  0  0  0  0  0  0  0  0
  148.5593  130.9856  153.7249 C   0  0  1  0  0  0  0  0  0  0  0  0
  147.0492  130.8238  153.4560 C   0  0  0  0  0  0  0  0  0  0  0  0
  146.6492  131.5482  152.2213 N   0  3  1  0  0  0  0  0  0  0  0  0
  145.2256  131.3323  151.8484 C   0  0  0  0  0  0  0  0  0  0  0  0
  144.8518  131.9976  150.5026 C   0  0  0  0  0  0  0  0  0  0  0  0
  144.5021  133.4786  150.7246 C   0  0  0  0  0  0  0  0  0  0  0  0
  145.9724  131.8669  149.4544 C   0  0  0  0  0  0  0  0  0  0  0  0
  143.6870  131.3835  149.9874 O   0  0  0  0  0  0  0  0  0  0  0  0
  147.0298  132.9832  152.2620 C   0  0  0  0  0  0  0  0  0  0  0  0
  148.5298  133.1621  152.5743 C   0  0  0  0  0  0  0  0  0  0  0  0
  148.9425  132.4011  153.7505 N   0  0  0  0  0  0  0  0  0  0  0  0
  148.8380  133.0662  154.9253 C   0  0  0  0  0  0  0  0  0  0  0  0
  148.0401  132.5891  155.9154 N   0  0  0  0  0  0  0  0  0  0  0  0
  147.9494  133.2482  157.0744 C   0  0  0  0  0  0  0  0  0  0  0  0
  148.5613  134.3757  157.4422 N   0  0  0  0  0  0  0  0  0  0  0  0
  149.3677  134.8534  156.4516 C   0  0  0  0  0  0  0  0  0  0  0  0
  149.5557  134.2659  155.1697 C   0  0  0  0  0  0  0  0  0  0  0  0
  150.4360  135.0303  154.4171 N   0  0  0  0  0  0  0  0  0  0  0  0
  150.7514  136.0174  155.2103 C   0  0  0  0  0  0  0  0  0  0  0  0
  150.1708  135.9818  156.4600 N   0  0  0  0  0  0  0  0  0  0  0  0
  150.3577  136.9495  157.5335 C   0  0  0  0  0  0  0  0  0  0  0  0
  151.1592  138.2133  157.1214 C   0  0  2  0  0  0  0  0  0  0  0  0
  151.9309  138.7883  158.3336 C   0  0  0  0  0  0  0  0  0  0  0  0
  153.2811  139.0592  158.0208 O   0  0  0  0  0  0  0  0  0  0  0  0
  150.2581  139.2705  156.4247 C   0  0  2  0  0  0  0  0  0  0  0  0
  149.6245  138.7968  155.1262 C   0  0  0  0  0  0  0  0  0  0  0  0
  149.1890  140.1052  154.4743 C   0  0  0  0  0  0  0  0  0  0  0  0
  150.1090  141.0904  154.9313 O   0  0  0  0  0  0  0  0  0  0  0  0
  150.9705  140.5265  155.9138 C   0  0  0  0  0  0  0  0  0  0  0  0
  148.8217  129.1284  154.8371 H   0  0  0  0  0  0  0  0  0  0  0  0
  148.5178  130.5167  155.8697 H   0  0  0  0  0  0  0  0  0  0  0  0
  150.0992  130.3025  155.1177 H   0  0  0  0  0  0  0  0  0  0  0  0
  149.0858  130.5577  152.8705 H   0  0  0  0  0  0  0  0  0  0  0  0
  146.8108  129.7653  153.3520 H   0  0  0  0  0  0  0  0  0  0  0  0
  146.4666  131.1918  154.3016 H   0  0  0  0  0  0  0  0  0  0  0  0
  144.9999  130.2646  151.8258 H   0  0  0  0  0  0  0  0  0  0  0  0
  144.5773  131.7459  152.6229 H   0  0  0  0  0  0  0  0  0  0  0  0
  145.3566  134.0308  151.1169 H   0  0  0  0  0  0  0  0  0  0  0  0
  143.6830  133.5936  151.4357 H   0  0  0  0  0  0  0  0  0  0  0  0
  144.1995  133.9619  149.7947 H   0  0  0  0  0  0  0  0  0  0  0  0
  146.8991  132.3174  149.8120 H   0  0  0  0  0  0  0  0  0  0  0  0
  145.7042  132.3655  148.5221 H   0  0  0  0  0  0  0  0  0  0  0  0
  146.1842  130.8246  149.2139 H   0  0  0  0  0  0  0  0  0  0  0  0
  142.9523  131.6272  150.5305 H   0  0  0  0  0  0  0  0  0  0  0  0
  146.8062  133.4479  151.3009 H   0  0  0  0  0  0  0  0  0  0  0  0
  146.4196  133.4961  153.0060 H   0  0  0  0  0  0  0  0  0  0  0  0
  149.1236  132.8177  151.7269 H   0  0  0  0  0  0  0  0  0  0  0  0
  148.7652  134.2199  152.7038 H   0  0  0  0  0  0  0  0  0  0  0  0
  147.2948  132.8100  157.8133 H   0  0  0  0  0  0  0  0  0  0  0  0
  151.4280  136.8016  154.9036 H   0  0  0  0  0  0  0  0  0  0  0  0
  149.3699  137.2457  157.8888 H   0  0  0  0  0  0  0  0  0  0  0  0
  150.8309  136.4470  158.3770 H   0  0  0  0  0  0  0  0  0  0  0  0
  151.9012  137.8776  156.3948 H   0  0  0  0  0  0  0  0  0  0  0  0
  151.4539  139.6938  158.7103 H   0  0  0  0  0  0  0  0  0  0  0  0
  151.9411  138.0677  159.1516 H   0  0  0  0  0  0  0  0  0  0  0  0
  153.7662  138.2486  158.0517 H   0  0  0  0  0  0  0  0  0  0  0  0
  149.4700  139.5895  157.1081 H   0  0  0  0  0  0  0  0  0  0  0  0
  150.3687  138.3018  154.5005 H   0  0  0  0  0  0  0  0  0  0  0  0
  148.7931  138.1072  155.2637 H   0  0  0  0  0  0  0  0  0  0  0  0
  149.1796  140.0426  153.3860 H   0  0  0  0  0  0  0  0  0  0  0  0
  148.1886  140.3834  154.8073 H   0  0  0  0  0  0  0  0  0  0  0  0
  151.1777  141.2450  156.7071 H   0  0  0  0  0  0  0  0  0  0  0  0
  151.9145  140.2679  155.4320 H   0  0  0  0  0  0  0  0  0  0  0  0
  147.1926  131.1440  151.4721 H   0  0  0  0  0  0  0  0  0  0  0  0
  1  2  1  0  0  0  0
  1 31  1  0  0  0  0
  1 32  1  0  0  0  0
  1 33  1  0  0  0  0
  2 12  1  0  0  0  0
  2  3  1  0  0  0  0
  2 34  1  0  0  0  0
  3  4  1  0  0  0  0
  3 35  1  0  0  0  0
  3 36  1  0  0  0  0
  4  5  1  0  0  0  0
  4 10  1  0  0  0  0
  4 65  1  0  0  0  0
  5  6  1  0  0  0  0
  5 37  1  0  0  0  0
  5 38  1  0  0  0  0
  6  7  1  0  0  0  0
  6  8  1  0  0  0  0
  6  9  1  0  0  0  0
  7 39  1  0  0  0  0
  7 40  1  0  0  0  0
  7 41  1  0  0  0  0
  8 42  1  0  0  0  0
  8 43  1  0  0  0  0
  8 44  1  0  0  0  0
  9 45  1  0  0  0  0
 10 11  1  0  0  0  0
 10 46  1  0  0  0  0
 10 47  1  0  0  0  0
 11 12  1  0  0  0  0
 11 48  1  0  0  0  0
 11 49  1  0  0  0  0
 12 13  1  0  0  0  0
 13 18  1  0  0  0  0
 13 14  2  0  0  0  0
 14 15  1  0  0  0  0
 15 16  2  0  0  0  0
 15 50  1  0  0  0  0
 16 17  1  0  0  0  0
 17 21  1  0  0  0  0
 17 18  2  0  0  0  0
 18 19  1  0  0  0  0
 19 20  2  0  0  0  0
 20 21  1  0  0  0  0
 20 51  1  0  0  0  0
 21 22  1  0  0  0  0
 22 23  1  0  0  0  0
 22 52  1  0  0  0  0
 22 53  1  0  0  0  0
 23 24  1  0  0  0  0
 23 26  1  0  0  0  0
 23 54  1  0  0  0  0
 24 25  1  0  0  0  0
 24 55  1  0  0  0  0
 24 56  1  0  0  0  0
 25 57  1  0  0  0  0
 26 30  1  0  0  0  0
 26 27  1  0  0  0  0
 26 58  1  0  0  0  0
 27 28  1  0  0  0  0
 27 59  1  0  0  0  0
 27 60  1  0  0  0  0
 28 29  1  0  0  0  0
 28 61  1  0  0  0  0
 28 62  1  0  0  0  0
 29 30  1  0  0  0  0
 30 63  1  0  0  0  0
 30 64  1  0  0  0  0
M  CHG  1   4   1
M  END
> <s_m_source_file>
AV-unprocessed.smi

> <i_m_source_file_index>
212

> <i_lp_mmshare_version>
43012

> <i_f3d_flags>
0

> <s_epik_input>
W0NIM11bQ0BASF0xW0NIMl1OKFtDSDJdQyhbQ0gzXSkoW0NIM10pW09IXSlbQ0gyXVtDSDJdTjFjKG5bY0hdbjIpYyhjMjMpbltjSF1uM1tDSDJdW0NASF0oW0NIMl1bT0hdKVtDQEBIXTRbQ0gyXVtDSDJdT1tDSDJdNA==

> <s_epik_cmdline>
J2VwaWtfcHl0aG9uJywgJy1waCcsICc3LjAnLCAnLXRuJywgJzgnLCAnLW1hJywgJzIwMCcsICctbWV0YWxfYmluZGluZycsICctaW1hZScsICc8aW5maWxlLm1hZT4nLCAnLW9tYWUnLCAnPG91dGZpbGUubWFlPic=

> <r_lp_tautomer_probability>
1

> <r_epik_Ionization_Penalty>
0.00182193

> <r_epik_Ionization_Penalty_Charging>
0.00173996

> <r_epik_Ionization_Penalty_Neutral>
8.19718e-05

> <r_epik_State_Penalty>
-0

> <r_epik_Charging_Adjusted_Penalty>
0.00173996

> <i_epik_Tot_Q>
1

> <i_epik_Tot_abs_Q>
1

> <r_epik_Metal_State_Penalty>
-0

> <b_epik_Metal_Only>
0

> <s_lp_Force_Field>
OPLS_2005

> <r_lp_Energy>
59.7923

> <b_lp_Chiralities_Consistent>
1

> <s_lp_Variant>
AV-unprocessed.smi:212-4

> <Gold.Version>
5.8.1

> <Gold.Id.Protein>
6NUR|6NUR_protein|mol2

> <Gold.PLP.Fitness>
46.4844

> <Gold.PLP.PLP>
-39.9084

> <Gold.PLP.part.hbond>
-4.4619

> <Gold.PLP.part.metal>
0.0000

> <Gold.PLP.part.buried>
-3.7466

> <Gold.PLP.part.nonpolar>
-31.1249

> <Gold.PLP.part.repulsive>
0.5403

> <Gold.PLP.ligand.clash>
0.0082

> <Gold.PLP.ligand.torsion>
1.6501

> <Gold.PLP.Chemscore.Hbond>
2.9028

> <Gold.PLP.Chemscore.CHOScore>
0.0000

> <Gold.PLP.Chemscore.Metal>
0.0000

> <Gold.Chemscore.Hbonds>
donor molecule, donor type, donor heavy atom, donor atom, acceptor molecule, acceptor atom, score
      L1  H     4    65       P1 10747  0.67
      P1  H  7989  7998       L1    29  0.28
      P1  H  7997  8009       L1    25  0.85
      P1  H 10785 10796       L1     9  0.82

> <Gold.PLP.Chemscore.Internal.Correction>
1.1759

> <Gold.Rescore>
     Score         DG    S(hbond)    S(metal)    S(lipo)     H(rot)  DE(clash)    DE(int)     intcor
     11.57     -16.51       2.52        0.00     102.99       3.68       0.55       4.39       ----

> <Gold.Chemscore.Fitness>
11.5742

> <Gold.Chemscore.DG>
-16.5108

> <Gold.Chemscore.ZeroCoef>
-5.4800

> <Gold.Chemscore.Hbond>
2.5165

> <Gold.Chemscore.Metal>
0.0000

> <Gold.Chemscore.Lipo>
102.9895

> <Gold.Chemscore.Internal_Hbond>
0.0000

> <Gold.Chemscore.DEClash>
0.5504

> <Gold.Chemscore.DEInternal>
4.3863

> <Gold.Chemscore.Rot>
3.6812

> <Gold.Chemscore.Internal.Correction>
   9.000000E+99

> <Gold.Chemscore.Hbonds>
donor molecule, donor type, donor heavy atom, donor atom, acceptor molecule, acceptor atom, score
      L1  H     4    65       P1 10747  0.65
      P1  H  7997  8009       L1    25  0.15
      P1  H 10785 10796       L1     9  0.64

> <Gold.Chemscore.Hbond.Weighted>
-8.4050

> <Gold.Chemscore.Metal.Weighted>
-0.0000

> <Gold.Chemscore.Lipo.Weighted>
-12.0498

> <Gold.Chemscore.Internal_Hbond.Weighted>
0.0000

> <Gold.Chemscore.DEClash.Weighted>
0.5504

> <Gold.Chemscore.DEInternal.Weighted>
4.3863

> <Gold.Chemscore.Rot.Weighted>
9.4239

> <Gold.Chemscore.Internal.Correction.Weighted>
   9.000000E+99

> <Gold.Protein.RotatedTorsions>
[ 6907 6896 6895 6894 ] final   81.61 input  -60.11 | X-H torsion
[ 7974 7965 7964 7962 ] final -126.66 input  175.53 | X-H torsion
[ 8008 7997 7996 7995 ] final  163.63 input   59.86 | X-H torsion
[ 10167 10162 10161 10158 ] final  165.45 input  -65.29 | X-H torsion
[ 10718 10713 10712 10709 ] final   68.76 input   66.30 | X-H torsion
[ 10763 10752 10751 10750 ] final  133.80 input  -60.55 | X-H torsion
[ 11005 11000 10999 10996 ] final  -90.49 input  -57.11 | X-H torsion

> <Gold.Protein.ActiveResidues>
 VAL166  LYS551  ARG553  GLY616  TRP617  ASP618  TYR619  PRO620  LYS621  CYS622 
 ASP623  PHE694  ASN695  SER759  ASP760  ASP761  ALA762  ILE779  LEU786  VAL792 
 PHE793  MET794  SER795  GLU796  ALA797  LYS798  CYS799  TRP800  GLU811  SER814 

> <Gold.Protein.RotatedAtoms>
  152.5274  134.3177  159.9136 H   0  0  0  0  0  0  0  0  0  0  0  0  # atno 6907 bound_to 6896
  151.3126  133.4067  159.2656 H   0  0  0  0  0  0  0  0  0  0  0  0  # atno 6908 bound_to 6896
  151.0025  134.9350  159.8019 H   0  0  0  0  0  0  0  0  0  0  0  0  # atno 6909 bound_to 6896
  144.9850  140.7677  143.4589 H   0  0  0  0  0  0  0  0  0  0  0  0  # atno 7974 bound_to 7965
  156.1942  140.1718  156.8031 H   0  0  0  0  0  0  0  0  0  0  0  0  # atno 8008 bound_to 7997
  154.5509  140.0718  156.8697 H   0  0  0  0  0  0  0  0  0  0  0  0  # atno 8009 bound_to 7997
  155.3031  140.3363  155.4249 H   0  0  0  0  0  0  0  0  0  0  0  0  # atno 8010 bound_to 7997
  139.4906  144.4130  151.9276 H   0  0  0  0  0  0  0  0  0  0  0  0  # atno 10167 bound_to 10162
  157.6308  130.9390  150.0421 H   0  0  0  0  0  0  0  0  0  0  0  0  # atno 10718 bound_to 10713
  153.8131  135.3126  155.3403 H   0  0  0  0  0  0  0  0  0  0  0  0  # atno 10763 bound_to 10752
  154.8043  135.4707  154.0356 H   0  0  0  0  0  0  0  0  0  0  0  0  # atno 10764 bound_to 10752
  153.1741  135.6882  153.8656 H   0  0  0  0  0  0  0  0  0  0  0  0  # atno 10765 bound_to 10752
  141.1564  133.7695  156.9745 H   0  0  0  0  0  0  0  0  0  0  0  0  # atno 11005 bound_to 11000
  145.2366  139.2091  143.5014 LP  0  0  0  0  0  0  0  0  0  0  0  0  # atno 17320 bound_to 7965
  146.3417  140.2254  142.8592 LP  0  0  0  0  0  0  0  0  0  0  0  0  # atno 17321 bound_to 7965
  140.3572  144.3017  150.5939 LP  0  0  0  0  0  0  0  0  0  0  0  0  # atno 17342 bound_to 10162
  140.5434  143.2219  151.8047 LP  0  0  0  0  0  0  0  0  0  0  0  0  # atno 17343 bound_to 10162
  156.1510  130.3642  149.9439 LP  0  0  0  0  0  0  0  0  0  0  0  0  # atno 17370 bound_to 10713
  156.7459  130.9097  151.3635 LP  0  0  0  0  0  0  0  0  0  0  0  0  # atno 17371 bound_to 10713
  140.1107  134.9478  157.2061 LP  0  0  0  0  0  0  0  0  0  0  0  0  # atno 17394 bound_to 11000
  140.3197  134.2930  155.7249 LP  0  0  0  0  0  0  0  0  0  0  0  0  # atno 17395 bound_to 11000

$$$$
