AV-unprocessed.smi:2666|AV-procd|sdf|10333|dock10
  -GOLD-   2272014353D 1   1.00000     0.00000
 Structure written by MMmdl.
 43 44  0  0  0  0  0  0  0  0  1 V2000
  144.4769  136.5738  152.0183 O   0  0  0  0  0  0  0  0  0  0  0  0
  145.6948  136.4015  152.0497 C   0  0  0  0  0  0  0  0  0  0  0  0
  146.3348  135.3113  151.5934 N   0  0  0  0  0  0  0  0  0  0  0  0
  145.7810  134.1658  150.9608 C   0  0  0  0  0  0  0  0  0  0  0  0
  144.3936  134.1517  150.7091 C   0  0  0  0  0  0  0  0  0  0  0  0
  143.8182  133.0212  150.0983 C   0  0  0  0  0  0  0  0  0  0  0  0
  144.6563  131.9380  149.7707 C   0  0  0  0  0  0  0  0  0  0  0  0
  145.9827  131.9272  150.0198 N   0  0  0  0  0  0  0  0  0  0  0  0
  146.5286  133.0160  150.6037 C   0  0  0  0  0  0  0  0  0  0  0  0
  146.5591  137.2833  152.5749 N   0  0  0  0  0  0  0  0  0  0  0  0
  146.2156  138.5722  153.1829 C   0  0  1  0  0  0  0  0  0  0  0  0
  145.3927  138.3173  154.4717 C   0  0  0  0  0  0  0  0  0  0  0  0
  143.8880  138.0730  154.2496 C   0  0  0  0  0  0  0  0  0  0  0  0
  143.2168  139.2933  154.0172 O   0  0  0  0  0  0  0  0  0  0  0  0
  147.5076  139.4071  153.4232 C   0  0  0  0  0  0  0  0  0  0  0  0
  148.4834  138.7201  154.4108 C   0  0  0  0  0  0  0  0  0  0  0  0
  149.7495  139.5550  154.6637 C   0  0  0  0  0  0  0  0  0  0  0  0
  149.4020  140.9615  155.1654 C   0  0  0  0  0  0  0  0  0  0  0  0
  148.4625  141.6674  154.1808 C   0  0  0  0  0  0  0  0  0  0  0  0
  147.1928  140.8388  153.9300 C   0  0  0  0  0  0  0  0  0  0  0  0
  147.3278  135.2720  151.7699 H   0  0  0  0  0  0  0  0  0  0  0  0
  143.7760  134.9976  150.9740 H   0  0  0  0  0  0  0  0  0  0  0  0
  142.7598  132.9846  149.8866 H   0  0  0  0  0  0  0  0  0  0  0  0
  144.2492  131.0542  149.3021 H   0  0  0  0  0  0  0  0  0  0  0  0
  147.5863  132.9382  150.8013 H   0  0  0  0  0  0  0  0  0  0  0  0
  147.5400  137.0466  152.5541 H   0  0  0  0  0  0  0  0  0  0  0  0
  145.5867  139.1443  152.4984 H   0  0  0  0  0  0  0  0  0  0  0  0
  145.8121  137.4576  154.9958 H   0  0  0  0  0  0  0  0  0  0  0  0
  145.4866  139.1597  155.1555 H   0  0  0  0  0  0  0  0  0  0  0  0
  143.7064  137.3918  153.4183 H   0  0  0  0  0  0  0  0  0  0  0  0
  143.4547  137.6087  155.1358 H   0  0  0  0  0  0  0  0  0  0  0  0
  143.3647  139.5531  153.1207 H   0  0  0  0  0  0  0  0  0  0  0  0
  148.0220  139.5052  152.4659 H   0  0  0  0  0  0  0  0  0  0  0  0
  147.9764  138.5327  155.3582 H   0  0  0  0  0  0  0  0  0  0  0  0
  148.7993  137.7496  154.0322 H   0  0  0  0  0  0  0  0  0  0  0  0
  150.3880  139.0502  155.3890 H   0  0  0  0  0  0  0  0  0  0  0  0
  150.3277  139.6288  153.7418 H   0  0  0  0  0  0  0  0  0  0  0  0
  148.9280  140.8969  156.1458 H   0  0  0  0  0  0  0  0  0  0  0  0
  150.3126  141.5464  155.2977 H   0  0  0  0  0  0  0  0  0  0  0  0
  148.1935  142.6516  154.5655 H   0  0  0  0  0  0  0  0  0  0  0  0
  148.9813  141.8360  153.2362 H   0  0  0  0  0  0  0  0  0  0  0  0
  146.5757  141.3779  153.2115 H   0  0  0  0  0  0  0  0  0  0  0  0
  146.6097  140.7804  154.8501 H   0  0  0  0  0  0  0  0  0  0  0  0
  1  2  2  0  0  0  0
  2  3  1  0  0  0  0
  2 10  1  0  0  0  0
  3  4  1  0  0  0  0
  3 21  1  0  0  0  0
  4  9  1  0  0  0  0
  4  5  2  0  0  0  0
  5  6  1  0  0  0  0
  5 22  1  0  0  0  0
  6  7  2  0  0  0  0
  6 23  1  0  0  0  0
  7  8  1  0  0  0  0
  7 24  1  0  0  0  0
  8  9  2  0  0  0  0
  9 25  1  0  0  0  0
 10 11  1  0  0  0  0
 10 26  1  0  0  0  0
 11 12  1  0  0  0  0
 11 15  1  0  0  0  0
 11 27  1  0  0  0  0
 12 13  1  0  0  0  0
 12 28  1  0  0  0  0
 12 29  1  0  0  0  0
 13 14  1  0  0  0  0
 13 30  1  0  0  0  0
 13 31  1  0  0  0  0
 14 32  1  0  0  0  0
 15 20  1  0  0  0  0
 15 16  1  0  0  0  0
 15 33  1  0  0  0  0
 16 17  1  0  0  0  0
 16 34  1  0  0  0  0
 16 35  1  0  0  0  0
 17 18  1  0  0  0  0
 17 36  1  0  0  0  0
 17 37  1  0  0  0  0
 18 19  1  0  0  0  0
 18 38  1  0  0  0  0
 18 39  1  0  0  0  0
 19 20  1  0  0  0  0
 19 40  1  0  0  0  0
 19 41  1  0  0  0  0
 20 42  1  0  0  0  0
 20 43  1  0  0  0  0
M  END
> <s_m_source_file>
AV-unprocessed.smi

> <i_m_source_file_index>
2666

> <i_lp_mmshare_version>
43012

> <i_f3d_flags>
0

> <s_epik_input>
W2NIXTFuW2NIXVtjSF1bY0hdYzFbTkhdQyg9TylbTkhdW0NASF0oW0NIMl1bQ0gyXVtPSF0pW0NIXTJbQ0gyXVtDSDJdW0NIMl1bQ0gyXVtDSDJdMg==

> <s_epik_cmdline>
J2VwaWtfcHl0aG9uJywgJy1waCcsICc3LjAnLCAnLXRuJywgJzgnLCAnLW1hJywgJzIwMCcsICctbWV0YWxfYmluZGluZycsICctaW1hZScsICc8aW5maWxlLm1hZT4nLCAnLW9tYWUnLCAnPG91dGZpbGUubWFlPic=

> <r_epik_Ionization_Penalty>
0.00500145

> <r_epik_Ionization_Penalty_Charging>
0

> <r_epik_Ionization_Penalty_Neutral>
0.00500145

> <r_epik_State_Penalty>
0.00360517

> <r_epik_Charging_Adjusted_Penalty>
0.00360517

> <i_epik_Tot_Q>
0

> <i_epik_Tot_abs_Q>
0

> <r_epik_Metal_State_Penalty>
-0

> <b_epik_Metal_Only>
0

> <s_lp_Force_Field>
OPLS_2005

> <r_lp_Energy>
18.9025

> <b_lp_Chiralities_Consistent>
1

> <s_lp_Variant>
AV-unprocessed.smi:2666-2

> <Gold.Version>
5.8.1

> <Gold.Id.Protein>
6NUR|6NUR_protein|mol2

> <Gold.PLP.Fitness>
44.6070

> <Gold.PLP.PLP>
-33.9611

> <Gold.PLP.part.hbond>
-3.0000

> <Gold.PLP.part.metal>
0.0000

> <Gold.PLP.part.buried>
-3.2615

> <Gold.PLP.part.nonpolar>
-28.9870

> <Gold.PLP.part.repulsive>
0.4096

> <Gold.PLP.ligand.clash>
0.0000

> <Gold.PLP.ligand.torsion>
0.4279

> <Gold.PLP.Chemscore.Hbond>
3.0000

> <Gold.PLP.Chemscore.CHOScore>
0.8190

> <Gold.PLP.Chemscore.Metal>
0.0000

> <Gold.Chemscore.Hbonds>
donor molecule, donor type, donor heavy atom, donor atom, acceptor molecule, acceptor atom, score
      L1  H     3    21       P1  7948  0.94
      L1  H    10    26       P1  7948  1.00
      L1  C     9    25       P1 10747  0.85

> <Gold.PLP.Chemscore.Internal.Correction>
0.0447

> <Gold.Rescore>
     Score         DG    S(hbond)    S(metal)    S(lipo)     H(rot)  DE(clash)    DE(int)     intcor
     16.49     -19.85       2.88        0.00      89.33       2.23       0.07       3.29       ----

> <Gold.Chemscore.Fitness>
16.4871

> <Gold.Chemscore.DG>
-19.8481

> <Gold.Chemscore.ZeroCoef>
-5.4800

> <Gold.Chemscore.Hbond>
2.8781

> <Gold.Chemscore.Metal>
0.0000

> <Gold.Chemscore.Lipo>
89.3285

> <Gold.Chemscore.Internal_Hbond>
0.0000

> <Gold.Chemscore.DEClash>
0.0709

> <Gold.Chemscore.DEInternal>
3.2901

> <Gold.Chemscore.Rot>
2.2251

> <Gold.Chemscore.Internal.Correction>
   9.000000E+99

> <Gold.Chemscore.Hbonds>
donor molecule, donor type, donor heavy atom, donor atom, acceptor molecule, acceptor atom, score
      L1  H     3    21       P1  7948  0.88
      L1  H    10    26       P1  7948  0.96
      L1  H    14    32       P1 10175  0.05

> <Gold.Chemscore.Hbond.Weighted>
-9.6128

> <Gold.Chemscore.Metal.Weighted>
-0.0000

> <Gold.Chemscore.Lipo.Weighted>
-10.4514

> <Gold.Chemscore.Internal_Hbond.Weighted>
0.0000

> <Gold.Chemscore.DEClash.Weighted>
0.0709

> <Gold.Chemscore.DEInternal.Weighted>
3.2901

> <Gold.Chemscore.Rot.Weighted>
5.6962

> <Gold.Chemscore.Internal.Correction.Weighted>
   9.000000E+99

> <Gold.Protein.RotatedTorsions>
[ 6907 6896 6895 6894 ] final   74.72 input  -60.11 | X-H torsion
[ 7974 7965 7964 7962 ] final  -46.32 input  175.53 | X-H torsion
[ 8008 7997 7996 7995 ] final    5.53 input   59.86 | X-H torsion
[ 10167 10162 10161 10158 ] final  111.85 input  -65.29 | X-H torsion
[ 10718 10713 10712 10709 ] final  -21.75 input   66.30 | X-H torsion
[ 10763 10752 10751 10750 ] final  107.30 input  -60.55 | X-H torsion
[ 11005 11000 10999 10996 ] final  142.87 input  -57.11 | X-H torsion

> <Gold.Protein.ActiveResidues>
 VAL166  LYS551  ARG553  GLY616  TRP617  ASP618  TYR619  PRO620  LYS621  CYS622 
 ASP623  PHE694  ASN695  SER759  ASP760  ASP761  ALA762  ILE779  LEU786  VAL792 
 PHE793  MET794  SER795  GLU796  ALA797  LYS798  CYS799  TRP800  GLU811  SER814 

> <Gold.Protein.RotatedAtoms>
  152.4990  134.4228  159.9486 H   0  0  0  0  0  0  0  0  0  0  0  0  # atno 6907 bound_to 6896
  151.4202  133.3694  159.2763 H   0  0  0  0  0  0  0  0  0  0  0  0  # atno 6908 bound_to 6896
  150.9228  134.8668  159.7560 H   0  0  0  0  0  0  0  0  0  0  0  0  # atno 6909 bound_to 6896
  145.9731  140.7363  142.9401 H   0  0  0  0  0  0  0  0  0  0  0  0  # atno 7974 bound_to 7965
  154.7295  140.2728  155.6468 H   0  0  0  0  0  0  0  0  0  0  0  0  # atno 8008 bound_to 7997
  156.2846  140.2718  156.1916 H   0  0  0  0  0  0  0  0  0  0  0  0  # atno 8009 bound_to 7997
  155.0400  140.0371  157.2496 H   0  0  0  0  0  0  0  0  0  0  0  0  # atno 8010 bound_to 7997
  139.6580  144.7129  151.1919 H   0  0  0  0  0  0  0  0  0  0  0  0  # atno 10167 bound_to 10162
  156.5139  130.4616  149.6633 H   0  0  0  0  0  0  0  0  0  0  0  0  # atno 10718 bound_to 10713
  153.4048  135.3849  155.2011 H   0  0  0  0  0  0  0  0  0  0  0  0  # atno 10763 bound_to 10752
  154.8732  135.3780  154.4574 H   0  0  0  0  0  0  0  0  0  0  0  0  # atno 10764 bound_to 10752
  153.5075  135.7087  153.5860 H   0  0  0  0  0  0  0  0  0  0  0  0  # atno 10765 bound_to 10752
  140.0510  134.9256  157.1016 H   0  0  0  0  0  0  0  0  0  0  0  0  # atno 11005 bound_to 11000
  144.6842  140.2781  143.7296 LP  0  0  0  0  0  0  0  0  0  0  0  0  # atno 17320 bound_to 7965
  145.7878  139.1915  143.2120 LP  0  0  0  0  0  0  0  0  0  0  0  0  # atno 17321 bound_to 7965
  140.7568  143.6040  150.8671 LP  0  0  0  0  0  0  0  0  0  0  0  0  # atno 17342 bound_to 10162
  139.9695  143.6073  152.2978 LP  0  0  0  0  0  0  0  0  0  0  0  0  # atno 17343 bound_to 10162
  156.3214  130.7282  151.2195 LP  0  0  0  0  0  0  0  0  0  0  0  0  # atno 17370 bound_to 10713
  157.7446  131.0455  150.4844 LP  0  0  0  0  0  0  0  0  0  0  0  0  # atno 17371 bound_to 10713
  140.3918  134.2176  155.7166 LP  0  0  0  0  0  0  0  0  0  0  0  0  # atno 17394 bound_to 11000
  141.1930  133.8160  157.0816 LP  0  0  0  0  0  0  0  0  0  0  0  0  # atno 17395 bound_to 11000

$$$$
