AV-unprocessed.smi:2973|AV-procd|sdf|11339|dock10
  -GOLD-   2272016253D 1   1.00000     0.00000
 Structure written by MMmdl.
 49 51  0  0  0  0  0  0  0  0  1 V2000
  150.1644  133.0167  155.1013 C   0  0  0  0  0  0  0  0  0  0  0  0
  148.8598  133.8255  155.2698 C   0  0  2  0  0  0  0  0  0  0  0  0
  147.9609  133.6507  154.0262 C   0  0  0  0  0  0  0  0  0  0  0  0
  146.6177  134.3819  154.1785 C   0  0  0  0  0  0  0  0  0  0  0  0
  146.8234  135.8723  154.4831 C   0  0  0  0  0  0  0  0  0  0  0  0
  147.7039  136.0614  155.7287 C   0  0  0  0  0  0  0  0  0  0  0  0
  149.0655  135.3391  155.5895 C   0  0  2  0  0  0  0  0  0  0  0  0
  149.9055  135.9998  154.6042 N   0  0  0  0  0  0  0  0  0  0  0  0
  151.0194  136.5212  155.1329 C   0  0  0  0  0  0  0  0  0  0  0  0
  151.8906  137.1177  154.5027 O   0  0  0  0  0  0  0  0  0  0  0  0
  151.0212  136.2650  156.4539 N   0  0  0  0  0  0  0  0  0  0  0  0
  152.1059  136.6501  157.3698 C   0  0  0  0  0  0  0  0  0  0  0  0
  152.5046  138.1357  157.3177 C   0  0  0  0  0  0  0  0  0  0  0  0
  153.6404  138.4355  156.9520 O   0  0  0  0  0  0  0  0  0  0  0  0
  151.5941  139.0543  157.6831 N   0  0  0  0  0  0  0  0  0  0  0  0
  151.8138  140.4943  157.7160 C   0  0  0  0  0  0  0  0  0  0  0  0
  151.9946  140.9997  159.1564 C   0  0  0  0  0  0  0  0  0  0  0  0
  151.9331  142.5126  159.2458 C   0  0  0  0  0  0  0  0  0  0  0  0
  151.6064  143.2876  158.1126 C   0  0  0  0  0  0  0  0  0  0  0  0
  151.5557  144.6881  158.2497 C   0  0  0  0  0  0  0  0  0  0  0  0
  151.8310  145.2569  159.5082 C   0  0  0  0  0  0  0  0  0  0  0  0
  152.1461  144.3956  160.5782 C   0  0  0  0  0  0  0  0  0  0  0  0
  152.1968  143.0513  160.4577 N   0  0  0  0  0  0  0  0  0  0  0  0
  149.9293  135.5797  156.8214 C   0  0  0  0  0  0  0  0  0  0  0  0
  149.6467  135.1814  157.9516 O   0  0  0  0  0  0  0  0  0  0  0  0
  150.7737  133.3967  154.2807 H   0  0  0  0  0  0  0  0  0  0  0  0
  149.9465  131.9701  154.8878 H   0  0  0  0  0  0  0  0  0  0  0  0
  150.7724  133.0343  156.0055 H   0  0  0  0  0  0  0  0  0  0  0  0
  148.3247  133.3834  156.1120 H   0  0  0  0  0  0  0  0  0  0  0  0
  148.4775  134.0203  153.1396 H   0  0  0  0  0  0  0  0  0  0  0  0
  147.7733  132.5910  153.8498 H   0  0  0  0  0  0  0  0  0  0  0  0
  146.0275  134.2674  153.2689 H   0  0  0  0  0  0  0  0  0  0  0  0
  146.0404  133.9215  154.9813 H   0  0  0  0  0  0  0  0  0  0  0  0
  147.2827  136.3637  153.6246 H   0  0  0  0  0  0  0  0  0  0  0  0
  145.8583  136.3567  154.6346 H   0  0  0  0  0  0  0  0  0  0  0  0
  147.8501  137.1268  155.9136 H   0  0  0  0  0  0  0  0  0  0  0  0
  147.1702  135.6746  156.5985 H   0  0  0  0  0  0  0  0  0  0  0  0
  149.6639  136.0476  153.6250 H   0  0  0  0  0  0  0  0  0  0  0  0
  151.8223  136.4081  158.3955 H   0  0  0  0  0  0  0  0  0  0  0  0
  152.9951  136.0515  157.1656 H   0  0  0  0  0  0  0  0  0  0  0  0
  150.6825  138.7276  157.9684 H   0  0  0  0  0  0  0  0  0  0  0  0
  152.6789  140.7579  157.1052 H   0  0  0  0  0  0  0  0  0  0  0  0
  150.9502  140.9762  157.2566 H   0  0  0  0  0  0  0  0  0  0  0  0
  151.2228  140.5756  159.8006 H   0  0  0  0  0  0  0  0  0  0  0  0
  152.9494  140.6586  159.5585 H   0  0  0  0  0  0  0  0  0  0  0  0
  151.3977  142.8213  157.1608 H   0  0  0  0  0  0  0  0  0  0  0  0
  151.3088  145.3146  157.4053 H   0  0  0  0  0  0  0  0  0  0  0  0
  151.8008  146.3270  159.6501 H   0  0  0  0  0  0  0  0  0  0  0  0
  152.3624  144.7971  161.5570 H   0  0  0  0  0  0  0  0  0  0  0  0
  1  2  1  0  0  0  0
  1 26  1  0  0  0  0
  1 27  1  0  0  0  0
  1 28  1  0  0  0  0
  2  7  1  0  0  0  0
  2  3  1  0  0  0  0
  2 29  1  0  0  0  0
  3  4  1  0  0  0  0
  3 30  1  0  0  0  0
  3 31  1  0  0  0  0
  4  5  1  0  0  0  0
  4 32  1  0  0  0  0
  4 33  1  0  0  0  0
  5  6  1  0  0  0  0
  5 34  1  0  0  0  0
  5 35  1  0  0  0  0
  6  7  1  0  0  0  0
  6 36  1  0  0  0  0
  6 37  1  0  0  0  0
  7 24  1  0  0  0  0
  7  8  1  0  0  0  0
  8  9  1  0  0  0  0
  8 38  1  0  0  0  0
  9 10  2  0  0  0  0
  9 11  1  0  0  0  0
 11 12  1  0  0  0  0
 11 24  1  0  0  0  0
 12 13  1  0  0  0  0
 12 39  1  0  0  0  0
 12 40  1  0  0  0  0
 13 14  2  0  0  0  0
 13 15  1  0  0  0  0
 15 16  1  0  0  0  0
 15 41  1  0  0  0  0
 16 17  1  0  0  0  0
 16 42  1  0  0  0  0
 16 43  1  0  0  0  0
 17 18  1  0  0  0  0
 17 44  1  0  0  0  0
 17 45  1  0  0  0  0
 18 23  1  0  0  0  0
 18 19  2  0  0  0  0
 19 20  1  0  0  0  0
 19 46  1  0  0  0  0
 20 21  2  0  0  0  0
 20 47  1  0  0  0  0
 21 22  1  0  0  0  0
 21 48  1  0  0  0  0
 22 23  2  0  0  0  0
 22 49  1  0  0  0  0
 24 25  2  0  0  0  0
M  END
> <s_m_source_file>
AV-unprocessed.smi

> <i_m_source_file_index>
2973

> <i_lp_mmshare_version>
43012

> <i_f3d_flags>
0

> <s_epik_input>
W0NIMl0xW0NIMl1bQ0gyXVtDSDJdW0NAQEhdKFtDSDNdKVtDQF0xMltOSF1DKD1PKU4oQzI9TylbQ0gyXUMoPU8pW05IXVtDSDJdW0NIMl1jM1tjSF1bY0hdW2NIXVtjSF1uMw==

> <s_epik_cmdline>
J2VwaWtfcHl0aG9uJywgJy1waCcsICc3LjAnLCAnLXRuJywgJzgnLCAnLW1hJywgJzIwMCcsICctbWV0YWxfYmluZGluZycsICctaW1hZScsICc8aW5maWxlLm1hZT4nLCAnLW9tYWUnLCAnPG91dGZpbGUubWFlPic=

> <r_lp_tautomer_probability>
1

> <r_epik_Ionization_Penalty>
0.0245152

> <r_epik_Ionization_Penalty_Charging>
0

> <r_epik_Ionization_Penalty_Neutral>
0.0245152

> <r_epik_State_Penalty>
0.0198648

> <r_epik_Charging_Adjusted_Penalty>
0.0198648

> <i_epik_Tot_Q>
0

> <i_epik_Tot_abs_Q>
0

> <r_epik_Metal_State_Penalty>
0.0400162

> <b_epik_Metal_Only>
0

> <s_lp_Force_Field>
OPLS_2005

> <r_lp_Energy>
21.7018

> <b_lp_Chiralities_Consistent>
1

> <s_lp_Variant>
AV-unprocessed.smi:2973-3

> <Gold.Version>
5.8.1

> <Gold.Id.Protein>
6NUR|6NUR_protein|mol2

> <Gold.PLP.Fitness>
49.7341

> <Gold.PLP.PLP>
-38.7909

> <Gold.PLP.part.hbond>
-4.0000

> <Gold.PLP.part.metal>
0.0000

> <Gold.PLP.part.buried>
-7.1574

> <Gold.PLP.part.nonpolar>
-28.8531

> <Gold.PLP.part.repulsive>
0.2804

> <Gold.PLP.ligand.clash>
0.0000

> <Gold.PLP.ligand.torsion>
0.2479

> <Gold.PLP.Chemscore.Hbond>
3.8064

> <Gold.PLP.Chemscore.CHOScore>
0.0000

> <Gold.PLP.Chemscore.Metal>
0.0000

> <Gold.Chemscore.Hbonds>
donor molecule, donor type, donor heavy atom, donor atom, acceptor molecule, acceptor atom, score
      L1  H     8    38       P1  7948  1.00
      P1  H  6896  6908       L1    25  1.00
      P1  H  7997  8008       L1    14  0.86
      P1  H 10752 10764       L1    10  0.84

> <Gold.PLP.Chemscore.Internal.Correction>
0.0198

> <Gold.Rescore>
     Score         DG    S(hbond)    S(metal)    S(lipo)     H(rot)  DE(clash)    DE(int)     intcor
     22.08     -22.36       3.30        0.00      90.73       1.86       0.06       0.22       ----

> <Gold.Chemscore.Fitness>
22.0777

> <Gold.Chemscore.DG>
-22.3630

> <Gold.Chemscore.ZeroCoef>
-5.4800

> <Gold.Chemscore.Hbond>
3.2987

> <Gold.Chemscore.Metal>
0.0000

> <Gold.Chemscore.Lipo>
90.7270

> <Gold.Chemscore.Internal_Hbond>
0.0000

> <Gold.Chemscore.DEClash>
0.0626

> <Gold.Chemscore.DEInternal>
0.2227

> <Gold.Chemscore.Rot>
1.8553

> <Gold.Chemscore.Internal.Correction>
   9.000000E+99

> <Gold.Chemscore.Hbonds>
donor molecule, donor type, donor heavy atom, donor atom, acceptor molecule, acceptor atom, score
      L1  H     8    38       P1  7948  0.30
      P1  H  6896  6908       L1    25  0.93
      P1  H  7997  8008       L1    14  0.85
      P1  H 10752 10764       L1    10  0.14

> <Gold.Chemscore.Hbond.Weighted>
-11.0176

> <Gold.Chemscore.Metal.Weighted>
-0.0000

> <Gold.Chemscore.Lipo.Weighted>
-10.6151

> <Gold.Chemscore.Internal_Hbond.Weighted>
0.0000

> <Gold.Chemscore.DEClash.Weighted>
0.0626

> <Gold.Chemscore.DEInternal.Weighted>
0.2227

> <Gold.Chemscore.Rot.Weighted>
4.7497

> <Gold.Chemscore.Internal.Correction.Weighted>
   9.000000E+99

> <Gold.Protein.RotatedTorsions>
[ 6907 6896 6895 6894 ] final  167.70 input  -60.11 | X-H torsion
[ 7974 7965 7964 7962 ] final   50.71 input  175.53 | X-H torsion
[ 8008 7997 7996 7995 ] final  -66.07 input   59.86 | X-H torsion
[ 10167 10162 10161 10158 ] final -107.85 input  -65.29 | X-H torsion
[ 10718 10713 10712 10709 ] final  161.59 input   66.30 | X-H torsion
[ 10763 10752 10751 10750 ] final  -82.87 input  -60.55 | X-H torsion
[ 11005 11000 10999 10996 ] final   -8.64 input  -57.11 | X-H torsion

> <Gold.Protein.ActiveResidues>
 VAL166  LYS551  ARG553  GLY616  TRP617  ASP618  TYR619  PRO620  LYS621  CYS622 
 ASP623  PHE694  ASN695  SER759  ASP760  ASP761  ALA762  ILE779  LEU786  VAL792 
 PHE793  MET794  SER795  GLU796  ALA797  LYS798  CYS799  TRP800  GLU811  SER814 

> <Gold.Protein.RotatedAtoms>
  151.8592  133.3454  159.3698 H   0  0  0  0  0  0  0  0  0  0  0  0  # atno 6907 bound_to 6896
  150.7184  134.5222  159.5669 H   0  0  0  0  0  0  0  0  0  0  0  0  # atno 6908 bound_to 6896
  152.2732  134.7910  160.0461 H   0  0  0  0  0  0  0  0  0  0  0  0  # atno 6909 bound_to 6896
  145.9985  139.4414  143.0029 H   0  0  0  0  0  0  0  0  0  0  0  0  # atno 7974 bound_to 7965
  154.4711  140.0920  156.7147 H   0  0  0  0  0  0  0  0  0  0  0  0  # atno 8008 bound_to 7997
  155.4721  140.3465  155.4309 H   0  0  0  0  0  0  0  0  0  0  0  0  # atno 8009 bound_to 7997
  156.1041  140.1430  156.9416 H   0  0  0  0  0  0  0  0  0  0  0  0  # atno 8010 bound_to 7997
  140.1725  143.4031  152.1343 H   0  0  0  0  0  0  0  0  0  0  0  0  # atno 10167 bound_to 10162
  157.1344  131.0525  151.2356 H   0  0  0  0  0  0  0  0  0  0  0  0  # atno 10718 bound_to 10713
  154.5809  135.5576  153.7184 H   0  0  0  0  0  0  0  0  0  0  0  0  # atno 10763 bound_to 10752
  153.0081  135.6320  154.1984 H   0  0  0  0  0  0  0  0  0  0  0  0  # atno 10764 bound_to 10752
  154.1924  135.2882  155.2997 H   0  0  0  0  0  0  0  0  0  0  0  0  # atno 10765 bound_to 10752
  140.7257  133.8791  155.8854 H   0  0  0  0  0  0  0  0  0  0  0  0  # atno 11005 bound_to 11000
  145.7523  140.9968  143.1244 LP  0  0  0  0  0  0  0  0  0  0  0  0  # atno 17320 bound_to 7965
  144.6911  139.9229  143.7468 LP  0  0  0  0  0  0  0  0  0  0  0  0  # atno 17321 bound_to 7965
  139.5331  144.7181  151.4985 LP  0  0  0  0  0  0  0  0  0  0  0  0  # atno 17342 bound_to 10162
  140.6573  143.8573  150.6849 LP  0  0  0  0  0  0  0  0  0  0  0  0  # atno 17343 bound_to 10162
  157.4363  130.7519  149.7032 LP  0  0  0  0  0  0  0  0  0  0  0  0  # atno 17370 bound_to 10713
  155.9801  130.4033  150.3547 LP  0  0  0  0  0  0  0  0  0  0  0  0  # atno 17371 bound_to 10713
  140.9965  134.1208  157.4358 LP  0  0  0  0  0  0  0  0  0  0  0  0  # atno 17394 bound_to 11000
  139.8838  135.0056  156.6323 LP  0  0  0  0  0  0  0  0  0  0  0  0  # atno 17395 bound_to 11000

$$$$
