AV-unprocessed.smi:1120|AV-procd|sdf|4821|dock4
  -GOLD-   22720 3373D 1   1.00000     0.00000
 Structure written by MMmdl.
 49 50  0  0  0  0  0  0  0  0  2 V2000
  146.0538  132.4060  151.8437 C   0  0  0  0  0  0  0  0  0  0  0  0
  145.4198  133.8025  151.7789 C   0  0  2  0  0  0  0  0  0  0  0  0
  146.2426  134.7527  150.8907 C   0  0  0  0  0  0  0  0  0  0  0  0
  145.6040  136.1490  150.8005 C   0  0  0  0  0  0  0  0  0  0  0  0
  145.3279  136.7650  152.1861 C   0  0  2  0  0  0  0  0  0  0  0  0
  146.5696  137.2431  152.8027 N   0  0  0  0  0  0  0  0  0  0  0  0
  146.7532  138.8825  153.3077 S   0  0  0  0  0  0  0  0  0  0  0  0
  146.6375  139.7374  152.1161 O   0  0  0  0  0  0  0  0  0  0  0  0
  145.8509  139.0900  154.4508 O   0  0  0  0  0  0  0  0  0  0  0  0
  148.4949  138.9400  153.9180 C   0  0  0  0  0  0  0  0  0  0  0  0
  148.7808  140.3039  154.5422 C   0  0  0  0  0  0  0  0  0  0  0  0
  148.7756  141.3142  153.8402 O   0  0  0  0  0  0  0  0  0  0  0  0
  149.0265  140.3232  155.8613 N   0  0  0  0  0  0  0  0  0  0  0  0
  149.3197  141.5194  156.6453 C   0  0  0  0  0  0  0  0  0  0  0  0
  150.8272  141.8265  156.7646 C   0  0  0  0  0  0  0  0  0  0  0  0
  151.1700  142.8143  157.8666 C   0  0  0  0  0  0  0  0  0  0  0  0
  152.1047  142.5105  158.8798 C   0  0  0  0  0  0  0  0  0  0  0  0
  152.3647  143.4643  159.8862 C   0  0  0  0  0  0  0  0  0  0  0  0
  151.6857  144.7002  159.8589 C   0  0  0  0  0  0  0  0  0  0  0  0
  150.7637  144.9520  158.8231 C   0  0  0  0  0  0  0  0  0  0  0  0
  150.5411  144.0123  157.8783 N   0  3  0  0  0  0  0  0  0  0  0  0
  144.5915  135.7976  153.1320 C   0  0  0  0  0  0  0  0  0  0  0  0
  145.2468  134.4071  153.1839 C   0  0  0  0  0  0  0  0  0  0  0  0
  147.0514  132.4429  152.2822 H   0  0  0  0  0  0  0  0  0  0  0  0
  146.1435  131.9687  150.8491 H   0  0  0  0  0  0  0  0  0  0  0  0
  145.4494  131.7282  152.4476 H   0  0  0  0  0  0  0  0  0  0  0  0
  144.4301  133.6936  151.3328 H   0  0  0  0  0  0  0  0  0  0  0  0
  147.2558  134.8408  151.2853 H   0  0  0  0  0  0  0  0  0  0  0  0
  146.3400  134.3345  149.8882 H   0  0  0  0  0  0  0  0  0  0  0  0
  146.2322  136.8097  150.2025 H   0  0  0  0  0  0  0  0  0  0  0  0
  144.6595  136.0641  150.2618 H   0  0  0  0  0  0  0  0  0  0  0  0
  144.6813  137.6313  152.0420 H   0  0  0  0  0  0  0  0  0  0  0  0
  147.4255  136.7974  152.4722 H   0  0  0  0  0  0  0  0  0  0  0  0
  148.6460  138.1401  154.6433 H   0  0  0  0  0  0  0  0  0  0  0  0
  149.1668  138.7688  153.0770 H   0  0  0  0  0  0  0  0  0  0  0  0
  149.0105  139.4448  156.3602 H   0  0  0  0  0  0  0  0  0  0  0  0
  148.8211  142.3556  156.1545 H   0  0  0  0  0  0  0  0  0  0  0  0
  148.8714  141.4349  157.6365 H   0  0  0  0  0  0  0  0  0  0  0  0
  151.3749  140.8995  156.9390 H   0  0  0  0  0  0  0  0  0  0  0  0
  151.1994  142.2165  155.8164 H   0  0  0  0  0  0  0  0  0  0  0  0
  152.6139  141.5578  158.8889 H   0  0  0  0  0  0  0  0  0  0  0  0
  153.0749  143.2495  160.6712 H   0  0  0  0  0  0  0  0  0  0  0  0
  151.8683  145.4432  160.6214 H   0  0  0  0  0  0  0  0  0  0  0  0
  150.1964  145.8660  158.7249 H   0  0  0  0  0  0  0  0  0  0  0  0
  144.5253  136.2219  154.1347 H   0  0  0  0  0  0  0  0  0  0  0  0
  143.5637  135.6836  152.7856 H   0  0  0  0  0  0  0  0  0  0  0  0
  144.6405  133.7448  153.8027 H   0  0  0  0  0  0  0  0  0  0  0  0
  146.2180  134.4811  153.6751 H   0  0  0  0  0  0  0  0  0  0  0  0
  149.8639  144.2144  157.1419 H   0  0  0  0  0  0  0  0  0  0  0  0
  1  2  1  0  0  0  0
  1 24  1  0  0  0  0
  1 25  1  0  0  0  0
  1 26  1  0  0  0  0
  2 23  1  0  0  0  0
  2  3  1  0  0  0  0
  2 27  1  0  0  0  0
  3  4  1  0  0  0  0
  3 28  1  0  0  0  0
  3 29  1  0  0  0  0
  4  5  1  0  0  0  0
  4 30  1  0  0  0  0
  4 31  1  0  0  0  0
  5  6  1  0  0  0  0
  5 22  1  0  0  0  0
  5 32  1  0  0  0  0
  6  7  1  0  0  0  0
  6 33  1  0  0  0  0
  7  8  2  0  0  0  0
  7  9  2  0  0  0  0
  7 10  1  0  0  0  0
 10 11  1  0  0  0  0
 10 34  1  0  0  0  0
 10 35  1  0  0  0  0
 11 12  2  0  0  0  0
 11 13  1  0  0  0  0
 13 14  1  0  0  0  0
 13 36  1  0  0  0  0
 14 15  1  0  0  0  0
 14 37  1  0  0  0  0
 14 38  1  0  0  0  0
 15 16  1  0  0  0  0
 15 39  1  0  0  0  0
 15 40  1  0  0  0  0
 16 21  1  0  0  0  0
 16 17  2  0  0  0  0
 17 18  1  0  0  0  0
 17 41  1  0  0  0  0
 18 19  2  0  0  0  0
 18 42  1  0  0  0  0
 19 20  1  0  0  0  0
 19 43  1  0  0  0  0
 20 21  2  0  0  0  0
 20 44  1  0  0  0  0
 21 49  1  0  0  0  0
 22 23  1  0  0  0  0
 22 45  1  0  0  0  0
 22 46  1  0  0  0  0
 23 47  1  0  0  0  0
 23 48  1  0  0  0  0
M  CHG  1  21   1
M  END
> <s_m_source_file>
AV-unprocessed.smi

> <i_m_source_file_index>
1120

> <i_lp_mmshare_version>
43012

> <i_f3d_flags>
0

> <s_epik_input>
W0NIM11bQ0BASF0xW0NIMl1bQ0gyXVtDQEhdKFtDSDJdW0NIMl0xKVtOSF1TKD1PKSg9TylbQ0gyXUMoPU8pW05IXVtDSDJdW0NIMl1jMltjSF1bY0hdW2NIXVtjSF1uMg==

> <s_epik_cmdline>
J2VwaWtfcHl0aG9uJywgJy1waCcsICc3LjAnLCAnLXRuJywgJzgnLCAnLW1hJywgJzIwMCcsICctbWV0YWxfYmluZGluZycsICctaW1hZScsICc8aW5maWxlLm1hZT4nLCAnLW9tYWUnLCAnPG91dGZpbGUubWFlPic=

> <r_epik_Ionization_Penalty>
1.97387

> <r_epik_Ionization_Penalty_Charging>
1.97382

> <r_epik_Ionization_Penalty_Neutral>
4.57635e-05

> <r_epik_State_Penalty>
2.10057

> <r_epik_Charging_Adjusted_Penalty>
4.07439

> <i_epik_Tot_Q>
1

> <i_epik_Tot_abs_Q>
1

> <r_epik_Metal_State_Penalty>
2.15877

> <b_epik_Metal_Only>
0

> <s_lp_Force_Field>
OPLS_2005

> <r_lp_Energy>
8.31708

> <b_lp_Chiralities_Consistent>
1

> <s_lp_Variant>
AV-unprocessed.smi:1120-4

> <Gold.Version>
5.8.1

> <Gold.Id.Protein>
6NUR|6NUR_protein|mol2

> <Gold.PLP.Fitness>
52.0714

> <Gold.PLP.PLP>
-41.3528

> <Gold.PLP.part.hbond>
-3.5382

> <Gold.PLP.part.metal>
0.0000

> <Gold.PLP.part.buried>
-7.7566

> <Gold.PLP.part.nonpolar>
-33.5381

> <Gold.PLP.part.repulsive>
3.1836

> <Gold.PLP.ligand.clash>
0.0000

> <Gold.PLP.ligand.torsion>
1.0496

> <Gold.PLP.Chemscore.Hbond>
3.8800

> <Gold.PLP.Chemscore.CHOScore>
0.0000

> <Gold.PLP.Chemscore.Metal>
0.0000

> <Gold.Chemscore.Hbonds>
donor molecule, donor type, donor heavy atom, donor atom, acceptor molecule, acceptor atom, score
      L1  H     6    33       P1  7948  1.00
      L1  H    21    49       P1  8028  2.00
      P1  H  8011  8017       L1    12  0.61

> <Gold.PLP.Chemscore.Internal.Correction>
1.1777

> <Gold.Rescore>
     Score         DG    S(hbond)    S(metal)    S(lipo)     H(rot)  DE(clash)    DE(int)     intcor
     20.12     -22.71       2.84        0.00     111.02       2.05       1.49       1.10       ----

> <Gold.Chemscore.Fitness>
20.1206

> <Gold.Chemscore.DG>
-22.7124

> <Gold.Chemscore.ZeroCoef>
-5.4800

> <Gold.Chemscore.Hbond>
2.8388

> <Gold.Chemscore.Metal>
0.0000

> <Gold.Chemscore.Lipo>
111.0203

> <Gold.Chemscore.Internal_Hbond>
0.0000

> <Gold.Chemscore.DEClash>
1.4907

> <Gold.Chemscore.DEInternal>
1.1012

> <Gold.Chemscore.Rot>
2.0463

> <Gold.Chemscore.Internal.Correction>
   9.000000E+99

> <Gold.Chemscore.Hbonds>
donor molecule, donor type, donor heavy atom, donor atom, acceptor molecule, acceptor atom, score
      L1  H     6    33       P1  7948  1.00
      L1  H    21    49       P1  8028  0.65
      P1  H  8011  8017       L1    12  0.59

> <Gold.Chemscore.Hbond.Weighted>
-9.4816

> <Gold.Chemscore.Metal.Weighted>
-0.0000

> <Gold.Chemscore.Lipo.Weighted>
-12.9894

> <Gold.Chemscore.Internal_Hbond.Weighted>
0.0000

> <Gold.Chemscore.DEClash.Weighted>
1.4907

> <Gold.Chemscore.DEInternal.Weighted>
1.1012

> <Gold.Chemscore.Rot.Weighted>
5.2386

> <Gold.Chemscore.Internal.Correction.Weighted>
   9.000000E+99

> <Gold.Protein.RotatedTorsions>
[ 6907 6896 6895 6894 ] final  137.76 input  -60.11 | X-H torsion
[ 7974 7965 7964 7962 ] final   12.02 input  175.53 | X-H torsion
[ 8008 7997 7996 7995 ] final  162.23 input   59.86 | X-H torsion
[ 10167 10162 10161 10158 ] final   26.87 input  -65.29 | X-H torsion
[ 10718 10713 10712 10709 ] final  115.33 input   66.30 | X-H torsion
[ 10763 10752 10751 10750 ] final -100.49 input  -60.55 | X-H torsion
[ 11005 11000 10999 10996 ] final  152.38 input  -57.11 | X-H torsion

> <Gold.Protein.ActiveResidues>
 VAL166  LYS551  ARG553  GLY616  TRP617  ASP618  TYR619  PRO620  LYS621  CYS622 
 ASP623  PHE694  ASN695  SER759  ASP760  ASP761  ALA762  ILE779  LEU786  VAL792 
 PHE793  MET794  SER795  GLU796  ALA797  LYS798  CYS799  TRP800  GLU811  SER814 

> <Gold.Protein.RotatedAtoms>
  152.2743  133.5411  159.5458 H   0  0  0  0  0  0  0  0  0  0  0  0  # atno 6907 bound_to 6896
  150.7171  134.0653  159.3854 H   0  0  0  0  0  0  0  0  0  0  0  0  # atno 6908 bound_to 6896
  151.8566  135.0539  160.0515 H   0  0  0  0  0  0  0  0  0  0  0  0  # atno 6909 bound_to 6896
  146.2360  139.9399  142.8484 H   0  0  0  0  0  0  0  0  0  0  0  0  # atno 7974 bound_to 7965
  156.2046  140.1756  156.7827 H   0  0  0  0  0  0  0  0  0  0  0  0  # atno 8008 bound_to 7997
  154.5637  140.0695  156.8890 H   0  0  0  0  0  0  0  0  0  0  0  0  # atno 8009 bound_to 7997
  155.2800  140.3348  155.4261 H   0  0  0  0  0  0  0  0  0  0  0  0  # atno 8010 bound_to 7997
  140.4987  144.0351  150.6324 H   0  0  0  0  0  0  0  0  0  0  0  0  # atno 10167 bound_to 10162
  157.6228  131.1011  150.7315 H   0  0  0  0  0  0  0  0  0  0  0  0  # atno 10718 bound_to 10713
  154.7583  135.4933  153.9416 H   0  0  0  0  0  0  0  0  0  0  0  0  # atno 10763 bound_to 10752
  153.1221  135.6734  153.9326 H   0  0  0  0  0  0  0  0  0  0  0  0  # atno 10764 bound_to 10752
  153.9054  135.3105  155.3427 H   0  0  0  0  0  0  0  0  0  0  0  0  # atno 10765 bound_to 10752
  140.1303  134.8806  157.2194 H   0  0  0  0  0  0  0  0  0  0  0  0  # atno 11005 bound_to 11000
  145.1963  140.9834  143.4182 LP  0  0  0  0  0  0  0  0  0  0  0  0  # atno 17320 bound_to 7965
  144.9813  139.3780  143.6260 LP  0  0  0  0  0  0  0  0  0  0  0  0  # atno 17321 bound_to 7965
  140.3640  143.2892  152.0352 LP  0  0  0  0  0  0  0  0  0  0  0  0  # atno 17342 bound_to 10162
  139.4867  144.6281  151.7125 LP  0  0  0  0  0  0  0  0  0  0  0  0  # atno 17343 bound_to 10162
  156.7669  130.4816  149.5426 LP  0  0  0  0  0  0  0  0  0  0  0  0  # atno 17370 bound_to 10713
  156.1383  130.6226  151.0431 LP  0  0  0  0  0  0  0  0  0  0  0  0  # atno 17371 bound_to 10713
  140.2851  134.3305  155.7331 LP  0  0  0  0  0  0  0  0  0  0  0  0  # atno 17394 bound_to 11000
  141.2169  133.7501  156.9421 LP  0  0  0  0  0  0  0  0  0  0  0  0  # atno 17395 bound_to 11000

$$$$
