AV-unprocessed.smi:21|AV-procd|sdf|161|dock8
  -GOLD-   2262015403D 1   1.00000     0.00000
 Structure written by MMmdl.
 61 64  0  0  0  0  0  0  0  0  1 V2000
  147.8085  136.2581  162.5077 C   0  0  0  0  0  0  0  0  0  0  0  0
  148.6068  136.7769  161.4559 O   0  0  0  0  0  0  0  0  0  0  0  0
  148.0466  136.5732  160.1658 C   0  0  1  0  0  0  0  0  0  0  0  0
  149.0426  136.9210  159.0451 C   0  0  0  0  0  0  0  0  0  0  0  0
  149.0221  135.6889  158.1334 C   0  0  1  0  0  0  0  0  0  0  0  0
  150.2889  135.5453  157.2629 C   0  0  0  0  0  0  0  0  0  0  0  0
  150.1230  136.0938  155.9162 N   0  0  0  0  0  0  0  0  0  0  0  0
  149.9776  135.1475  154.8116 C   0  0  0  0  0  0  0  0  0  0  0  0
  150.7561  137.2699  155.6558 C   0  0  0  0  0  0  0  0  0  0  0  0
  151.8032  137.2863  154.7864 N   0  0  0  0  0  0  0  0  0  0  0  0
  152.4487  138.4248  154.5188 C   0  0  0  0  0  0  0  0  0  0  0  0
  152.2153  139.6474  154.9968 N   0  0  0  0  0  0  0  0  0  0  0  0
  151.1588  139.6460  155.8580 C   0  0  0  0  0  0  0  0  0  0  0  0
  150.3819  138.5151  156.2417 C   0  0  0  0  0  0  0  0  0  0  0  0
  149.3893  138.9122  157.1304 N   0  0  0  0  0  0  0  0  0  0  0  0
  149.5770  140.1946  157.2760 C   0  0  0  0  0  0  0  0  0  0  0  0
  150.6075  140.7218  156.5318 N   0  0  0  0  0  0  0  0  0  0  0  0
  151.0364  142.1086  156.5023 C   0  0  0  0  0  0  0  0  0  0  0  0
  151.4169  142.6971  157.8863 C   0  0  2  0  0  0  0  0  0  0  0  0
  151.6466  144.2198  157.7466 C   0  0  0  0  0  0  0  0  0  0  0  0
  150.4664  144.9527  158.0066 O   0  0  0  0  0  0  0  0  0  0  0  0
  152.6048  141.9735  158.5857 C   0  0  1  0  0  0  0  0  0  0  0  0
  152.9256  142.4805  159.9833 C   0  0  0  0  0  0  0  0  0  0  0  0
  153.7504  141.3386  160.5569 C   0  0  0  0  0  0  0  0  0  0  0  0
  153.1162  140.1688  160.0649 O   0  0  0  0  0  0  0  0  0  0  0  0
  152.4024  140.4755  158.8703 C   0  0  0  0  0  0  0  0  0  0  0  0
  148.7886  134.5835  159.0470 N   0  0  0  0  0  0  0  0  0  0  0  0
  148.3920  133.3453  158.3906 C   0  0  0  0  0  0  0  0  0  0  0  0
  147.7674  135.0790  159.9526 C   0  0  0  0  0  0  0  0  0  0  0  0
  147.1149  137.1316  160.0599 H   0  0  0  0  0  0  0  0  0  0  0  0
  148.1516  135.7757  157.4821 H   0  0  0  0  0  0  0  0  0  0  0  0
  148.3007  136.4418  163.4624 H   0  0  0  0  0  0  0  0  0  0  0  0
  147.6719  135.1811  162.4036 H   0  0  0  0  0  0  0  0  0  0  0  0
  146.8275  136.7328  162.5413 H   0  0  0  0  0  0  0  0  0  0  0  0
  148.7778  137.8373  158.5166 H   0  0  0  0  0  0  0  0  0  0  0  0
  150.0385  137.0543  159.4664 H   0  0  0  0  0  0  0  0  0  0  0  0
  151.1390  135.9877  157.7810 H   0  0  0  0  0  0  0  0  0  0  0  0
  150.5362  134.4897  157.1501 H   0  0  0  0  0  0  0  0  0  0  0  0
  149.6086  135.6482  153.9157 H   0  0  0  0  0  0  0  0  0  0  0  0
  149.2675  134.3590  155.0568 H   0  0  0  0  0  0  0  0  0  0  0  0
  150.9340  134.6785  154.5782 H   0  0  0  0  0  0  0  0  0  0  0  0
  153.2689  138.3443  153.8207 H   0  0  0  0  0  0  0  0  0  0  0  0
  148.9550  140.7960  157.9232 H   0  0  0  0  0  0  0  0  0  0  0  0
  151.8770  142.1944  155.8126 H   0  0  0  0  0  0  0  0  0  0  0  0
  150.2218  142.6863  156.0638 H   0  0  0  0  0  0  0  0  0  0  0  0
  150.5487  142.5920  158.5377 H   0  0  0  0  0  0  0  0  0  0  0  0
  152.4211  144.5520  158.4385 H   0  0  0  0  0  0  0  0  0  0  0  0
  152.0062  144.4735  156.7495 H   0  0  0  0  0  0  0  0  0  0  0  0
  150.0207  145.1057  157.1876 H   0  0  0  0  0  0  0  0  0  0  0  0
  153.5027  142.0885  157.9766 H   0  0  0  0  0  0  0  0  0  0  0  0
  153.4698  143.4255  159.9844 H   0  0  0  0  0  0  0  0  0  0  0  0
  152.0117  142.6089  160.5648 H   0  0  0  0  0  0  0  0  0  0  0  0
  154.7723  141.3756  160.1774 H   0  0  0  0  0  0  0  0  0  0  0  0
  153.7880  141.3487  161.6462 H   0  0  0  0  0  0  0  0  0  0  0  0
  151.3511  140.2393  159.0379 H   0  0  0  0  0  0  0  0  0  0  0  0
  152.7629  139.8520  158.0532 H   0  0  0  0  0  0  0  0  0  0  0  0
  148.1687  132.5753  159.1297 H   0  0  0  0  0  0  0  0  0  0  0  0
  149.1918  132.9668  157.7546 H   0  0  0  0  0  0  0  0  0  0  0  0
  147.5045  133.4903  157.7735 H   0  0  0  0  0  0  0  0  0  0  0  0
  147.7567  134.5161  160.8866 H   0  0  0  0  0  0  0  0  0  0  0  0
  146.7824  134.9691  159.4952 H   0  0  0  0  0  0  0  0  0  0  0  0
  1  2  1  0  0  0  0
  1 32  1  0  0  0  0
  1 33  1  0  0  0  0
  1 34  1  0  0  0  0
  2  3  1  0  0  0  0
  3 30  1  0  0  0  0
  3 29  1  0  0  0  0
  3  4  1  0  0  0  0
  4  5  1  0  0  0  0
  4 35  1  0  0  0  0
  4 36  1  0  0  0  0
  5 31  1  0  0  0  0
  5  6  1  0  0  0  0
  5 27  1  0  0  0  0
  6  7  1  0  0  0  0
  6 37  1  0  0  0  0
  6 38  1  0  0  0  0
  7  8  1  0  0  0  0
  7  9  1  0  0  0  0
  8 39  1  0  0  0  0
  8 40  1  0  0  0  0
  8 41  1  0  0  0  0
  9 14  1  0  0  0  0
  9 10  2  0  0  0  0
 10 11  1  0  0  0  0
 11 12  2  0  0  0  0
 11 42  1  0  0  0  0
 12 13  1  0  0  0  0
 13 17  1  0  0  0  0
 13 14  2  0  0  0  0
 14 15  1  0  0  0  0
 15 16  2  0  0  0  0
 16 17  1  0  0  0  0
 16 43  1  0  0  0  0
 17 18  1  0  0  0  0
 18 19  1  0  0  0  0
 18 44  1  0  0  0  0
 18 45  1  0  0  0  0
 19 20  1  0  0  0  0
 19 22  1  0  0  0  0
 19 46  1  0  0  0  0
 20 21  1  0  0  0  0
 20 47  1  0  0  0  0
 20 48  1  0  0  0  0
 21 49  1  0  0  0  0
 22 26  1  0  0  0  0
 22 23  1  0  0  0  0
 22 50  1  0  0  0  0
 23 24  1  0  0  0  0
 23 51  1  0  0  0  0
 23 52  1  0  0  0  0
 24 25  1  0  0  0  0
 24 53  1  0  0  0  0
 24 54  1  0  0  0  0
 25 26  1  0  0  0  0
 26 55  1  0  0  0  0
 26 56  1  0  0  0  0
 27 28  1  0  0  0  0
 27 29  1  0  0  0  0
 28 57  1  0  0  0  0
 28 58  1  0  0  0  0
 28 59  1  0  0  0  0
 29 60  1  0  0  0  0
 29 61  1  0  0  0  0
M  END
> <s_m_source_file>
AV-unprocessed.smi

> <i_m_source_file_index>
21

> <i_lp_mmshare_version>
43012

> <i_f3d_flags>
0

> <s_epik_input>
W0NIM11PW0NASF0xW0NIMl1bQ0BIXShOKFtDSDNdKVtDSDJdMSlbQ0gyXU4oW0NIM10pYyhuW2NIXW4yKWMoYzIzKW5bY0hdbjNbQ0gyXVtDQEhdKFtDSDJdW09IXSlbQ0BASF00W0NIMl1bQ0gyXU9bQ0gyXTQ=

> <s_epik_cmdline>
J2VwaWtfcHl0aG9uJywgJy1waCcsICc3LjAnLCAnLXRuJywgJzgnLCAnLW1hJywgJzIwMCcsICctbWV0YWxfYmluZGluZycsICctaW1hZScsICc8aW5maWxlLm1hZT4nLCAnLW9tYWUnLCAnPG91dGZpbGUubWFlPic=

> <r_lp_tautomer_probability>
1

> <r_epik_Ionization_Penalty>
2.17574

> <r_epik_Ionization_Penalty_Charging>
0

> <r_epik_Ionization_Penalty_Neutral>
2.17574

> <r_epik_State_Penalty>
2.31336

> <r_epik_Charging_Adjusted_Penalty>
2.31336

> <i_epik_Tot_Q>
0

> <i_epik_Tot_abs_Q>
0

> <r_epik_Metal_State_Penalty>
2.31025

> <b_epik_Metal_Only>
0

> <s_lp_Force_Field>
OPLS_2005

> <r_lp_Energy>
70.1796

> <b_lp_Chiralities_Consistent>
1

> <s_lp_Variant>
AV-unprocessed.smi:21-41

> <Gold.Version>
5.8.1

> <Gold.Id.Protein>
6NUR|6NUR_protein|mol2

> <Gold.PLP.Fitness>
57.5129

> <Gold.PLP.PLP>
-50.4478

> <Gold.PLP.part.hbond>
-5.9882

> <Gold.PLP.part.metal>
0.0000

> <Gold.PLP.part.buried>
-7.5956

> <Gold.PLP.part.nonpolar>
-37.0340

> <Gold.PLP.part.repulsive>
0.1458

> <Gold.PLP.ligand.clash>
0.0000

> <Gold.PLP.ligand.torsion>
2.1223

> <Gold.PLP.Chemscore.Hbond>
3.5000

> <Gold.PLP.Chemscore.CHOScore>
0.0000

> <Gold.PLP.Chemscore.Metal>
0.0000

> <Gold.Chemscore.Hbonds>
donor molecule, donor type, donor heavy atom, donor atom, acceptor molecule, acceptor atom, score
      L1  H    21    49       P1  8028  0.55
      P1  H  6931  6943       L1     2  1.00
      P1  H  7989  7998       L1    12  0.80
      P1  H 10752 10763       L1    10  0.99

> <Gold.PLP.Chemscore.Internal.Correction>
0.8096

> <Gold.Rescore>
     Score         DG    S(hbond)    S(metal)    S(lipo)     H(rot)  DE(clash)    DE(int)     intcor
     10.69     -14.26       1.60        0.00      95.04       3.00       0.00       3.58       ----

> <Gold.Chemscore.Fitness>
10.6865

> <Gold.Chemscore.DG>
-14.2637

> <Gold.Chemscore.ZeroCoef>
-5.4800

> <Gold.Chemscore.Hbond>
1.6024

> <Gold.Chemscore.Metal>
0.0000

> <Gold.Chemscore.Lipo>
95.0407

> <Gold.Chemscore.Internal_Hbond>
0.0000

> <Gold.Chemscore.DEClash>
0.0000

> <Gold.Chemscore.DEInternal>
3.5772

> <Gold.Chemscore.Rot>
3.0031

> <Gold.Chemscore.Internal.Correction>
   9.000000E+99

> <Gold.Chemscore.Hbonds>
donor molecule, donor type, donor heavy atom, donor atom, acceptor molecule, acceptor atom, score
      L1  H    21    49       P1  8028  0.03
      P1  H  6931  6943       L1     2  0.53
      P1  H  7989  7998       L1    12  0.31
      P1  H 10752 10763       L1    10  0.73

> <Gold.Chemscore.Hbond.Weighted>
-5.3519

> <Gold.Chemscore.Metal.Weighted>
-0.0000

> <Gold.Chemscore.Lipo.Weighted>
-11.1198

> <Gold.Chemscore.Internal_Hbond.Weighted>
0.0000

> <Gold.Chemscore.DEClash.Weighted>
0.0000

> <Gold.Chemscore.DEInternal.Weighted>
3.5772

> <Gold.Chemscore.Rot.Weighted>
7.6880

> <Gold.Chemscore.Internal.Correction.Weighted>
   9.000000E+99

> <Gold.Protein.RotatedTorsions>
[ 6907 6896 6895 6894 ] final -141.70 input  -60.11 | X-H torsion
[ 7974 7965 7964 7962 ] final   93.52 input  175.53 | X-H torsion
[ 8008 7997 7996 7995 ] final -173.66 input   59.86 | X-H torsion
[ 10167 10162 10161 10158 ] final   83.04 input  -65.29 | X-H torsion
[ 10718 10713 10712 10709 ] final  130.08 input   66.30 | X-H torsion
[ 10763 10752 10751 10750 ] final   52.97 input  -60.55 | X-H torsion
[ 11005 11000 10999 10996 ] final   53.83 input  -57.11 | X-H torsion

> <Gold.Protein.ActiveResidues>
 VAL166  LYS551  ARG553  GLY616  TRP617  ASP618  TYR619  PRO620  LYS621  CYS622 
 ASP623  PHE694  ASN695  SER759  ASP760  ASP761  ALA762  ILE779  LEU786  VAL792 
 PHE793  MET794  SER795  GLU796  ALA797  LYS798  CYS799  TRP800  GLU811  SER814 

> <Gold.Protein.RotatedAtoms>
  151.0773  133.5418  159.2622 H   0  0  0  0  0  0  0  0  0  0  0  0  # atno 6907 bound_to 6896
  151.2334  135.0562  159.9006 H   0  0  0  0  0  0  0  0  0  0  0  0  # atno 6908 bound_to 6896
  152.5419  134.0559  159.8184 H   0  0  0  0  0  0  0  0  0  0  0  0  # atno 6909 bound_to 6896
  145.4778  139.2279  143.2899 H   0  0  0  0  0  0  0  0  0  0  0  0  # atno 7974 bound_to 7965
  155.9602  140.1143  157.0902 H   0  0  0  0  0  0  0  0  0  0  0  0  # atno 8008 bound_to 7997
  154.4130  140.1183  156.5236 H   0  0  0  0  0  0  0  0  0  0  0  0  # atno 8009 bound_to 7997
  155.6730  140.3473  155.4828 H   0  0  0  0  0  0  0  0  0  0  0  0  # atno 8010 bound_to 7997
  139.9225  144.6204  150.8426 H   0  0  0  0  0  0  0  0  0  0  0  0  # atno 10167 bound_to 10162
  157.5095  131.1096  150.9313 H   0  0  0  0  0  0  0  0  0  0  0  0  # atno 10718 bound_to 10713
  152.9792  135.5794  154.4665 H   0  0  0  0  0  0  0  0  0  0  0  0  # atno 10763 bound_to 10752
  154.4234  135.2772  155.1962 H   0  0  0  0  0  0  0  0  0  0  0  0  # atno 10764 bound_to 10752
  154.3701  135.6169  153.5789 H   0  0  0  0  0  0  0  0  0  0  0  0  # atno 10765 bound_to 10752
  140.0735  134.5436  155.9021 H   0  0  0  0  0  0  0  0  0  0  0  0  # atno 11005 bound_to 11000
  146.2359  140.5562  142.8955 LP  0  0  0  0  0  0  0  0  0  0  0  0  # atno 17320 bound_to 7965
  144.7906  140.6025  143.6544 LP  0  0  0  0  0  0  0  0  0  0  0  0  # atno 17321 bound_to 7965
  140.7658  143.3287  151.2458 LP  0  0  0  0  0  0  0  0  0  0  0  0  # atno 17342 bound_to 10162
  139.6850  143.9790  152.2829 LP  0  0  0  0  0  0  0  0  0  0  0  0  # atno 17343 bound_to 10162
  156.9958  130.5581  149.5307 LP  0  0  0  0  0  0  0  0  0  0  0  0  # atno 17370 bound_to 10713
  156.0280  130.5372  150.8458 LP  0  0  0  0  0  0  0  0  0  0  0  0  # atno 17371 bound_to 10713
  141.2021  133.6623  156.5986 LP  0  0  0  0  0  0  0  0  0  0  0  0  # atno 17394 bound_to 11000
  140.3591  134.7702  157.4521 LP  0  0  0  0  0  0  0  0  0  0  0  0  # atno 17395 bound_to 11000

$$$$
