AV-unprocessed.smi:1633|AV-procd|sdf|6534|dock7
  -GOLD-   22720 7213D 1   1.00000     0.00000
 Structure written by MMmdl.
 52 54  0  0  0  0  0  0  0  0  3 V2000
  149.6740  131.7261  154.3928 C   0  0  0  0  0  0  0  0  0  0  0  0
  148.8925  133.0401  154.3254 C   0  0  0  0  0  0  0  0  0  0  0  0
  148.0385  133.1604  153.4474 O   0  0  0  0  0  0  0  0  0  0  0  0
  149.1615  134.0193  155.2220 N   0  0  0  0  0  0  0  0  0  0  0  0
  148.4939  135.3239  155.1979 C   0  0  0  0  0  0  0  0  0  0  0  0
  149.5248  136.4135  154.8523 C   0  0  0  0  0  0  0  0  0  0  0  0
  150.6789  136.3880  155.7900 N   0  3  0  0  0  0  0  0  0  0  0  0
  151.6690  137.4551  155.4915 C   0  0  0  0  0  0  0  0  0  0  0  0
  151.0613  138.8717  155.5472 C   0  0  2  0  0  0  0  0  0  0  0  0
  152.0301  139.7974  155.0947 O   0  0  0  0  0  0  0  0  0  0  0  0
  150.6181  139.2453  156.9756 C   0  0  0  0  0  0  0  0  0  0  0  0
  150.2834  140.6703  157.1180 N   0  0  0  0  0  0  0  0  0  0  0  0
  149.3725  141.4193  156.4381 C   0  0  0  0  0  0  0  0  0  0  0  0
  149.4267  142.6854  156.9361 N   0  3  0  0  0  0  0  0  0  0  0  0
  150.3844  142.7471  157.9503 C   0  0  0  0  0  0  0  0  0  0  0  0
  150.7983  143.8083  158.7464 C   0  0  0  0  0  0  0  0  0  0  0  0
  151.8096  143.5450  159.6973 C   0  0  0  0  0  0  0  0  0  0  0  0
  152.2898  144.6850  160.5794 C   0  0  0  0  0  0  0  0  0  0  0  0
  152.3679  142.2473  159.8288 C   0  0  0  0  0  0  0  0  0  0  0  0
  153.4538  141.9753  160.8560 C   0  0  0  0  0  0  0  0  0  0  0  0
  151.9319  141.1806  159.0105 C   0  0  0  0  0  0  0  0  0  0  0  0
  150.9368  141.4572  158.0753 C   0  0  0  0  0  0  0  0  0  0  0  0
  151.2806  135.0318  155.9191 C   0  0  0  0  0  0  0  0  0  0  0  0
  150.2113  133.9731  156.2448 C   0  0  0  0  0  0  0  0  0  0  0  0
  150.7411  131.9019  154.2540 H   0  0  0  0  0  0  0  0  0  0  0  0
  149.3452  131.0431  153.6087 H   0  0  0  0  0  0  0  0  0  0  0  0
  149.5165  131.2308  155.3514 H   0  0  0  0  0  0  0  0  0  0  0  0
  147.6653  135.3658  154.4895 H   0  0  0  0  0  0  0  0  0  0  0  0
  148.0562  135.5187  156.1781 H   0  0  0  0  0  0  0  0  0  0  0  0
  149.8853  136.2719  153.8319 H   0  0  0  0  0  0  0  0  0  0  0  0
  149.0437  137.3917  154.8872 H   0  0  0  0  0  0  0  0  0  0  0  0
  152.5086  137.3704  156.1831 H   0  0  0  0  0  0  0  0  0  0  0  0
  152.0813  137.2980  154.4934 H   0  0  0  0  0  0  0  0  0  0  0  0
  150.1937  138.9400  154.8916 H   0  0  0  0  0  0  0  0  0  0  0  0
  152.8359  139.3321  154.9278 H   0  0  0  0  0  0  0  0  0  0  0  0
  149.7238  138.6815  157.2438 H   0  0  0  0  0  0  0  0  0  0  0  0
  151.3767  138.9775  157.7117 H   0  0  0  0  0  0  0  0  0  0  0  0
  148.7219  141.0727  155.6480 H   0  0  0  0  0  0  0  0  0  0  0  0
  150.3677  144.7937  158.6423 H   0  0  0  0  0  0  0  0  0  0  0  0
  152.0840  144.4697  161.6282 H   0  0  0  0  0  0  0  0  0  0  0  0
  151.7924  145.6220  160.3272 H   0  0  0  0  0  0  0  0  0  0  0  0
  153.3628  144.8369  160.4608 H   0  0  0  0  0  0  0  0  0  0  0  0
  153.7354  140.9220  160.8704 H   0  0  0  0  0  0  0  0  0  0  0  0
  153.1116  142.2402  161.8567 H   0  0  0  0  0  0  0  0  0  0  0  0
  154.3478  142.5569  160.6292 H   0  0  0  0  0  0  0  0  0  0  0  0
  152.3624  140.1953  159.1100 H   0  0  0  0  0  0  0  0  0  0  0  0
  151.7861  134.7693  154.9881 H   0  0  0  0  0  0  0  0  0  0  0  0
  152.0365  135.0234  156.7032 H   0  0  0  0  0  0  0  0  0  0  0  0
  149.7652  134.1835  157.2181 H   0  0  0  0  0  0  0  0  0  0  0  0
  150.6833  132.9971  156.3469 H   0  0  0  0  0  0  0  0  0  0  0  0
  150.2930  136.6149  156.6961 H   0  0  0  0  0  0  0  0  0  0  0  0
  148.8493  143.4493  156.6081 H   0  0  0  0  0  0  0  0  0  0  0  0
  1  2  1  0  0  0  0
  1 25  1  0  0  0  0
  1 26  1  0  0  0  0
  1 27  1  0  0  0  0
  2  3  2  0  0  0  0
  2  4  1  0  0  0  0
  4 24  1  0  0  0  0
  4  5  1  0  0  0  0
  5  6  1  0  0  0  0
  5 28  1  0  0  0  0
  5 29  1  0  0  0  0
  6  7  1  0  0  0  0
  6 30  1  0  0  0  0
  6 31  1  0  0  0  0
  7  8  1  0  0  0  0
  7 23  1  0  0  0  0
  7 51  1  0  0  0  0
  8  9  1  0  0  0  0
  8 32  1  0  0  0  0
  8 33  1  0  0  0  0
  9 10  1  0  0  0  0
  9 11  1  0  0  0  0
  9 34  1  0  0  0  0
 10 35  1  0  0  0  0
 11 12  1  0  0  0  0
 11 36  1  0  0  0  0
 11 37  1  0  0  0  0
 12 22  1  0  0  0  0
 12 13  1  0  0  0  0
 13 14  2  0  0  0  0
 13 38  1  0  0  0  0
 14 15  1  0  0  0  0
 14 52  1  0  0  0  0
 15 22  2  0  0  0  0
 15 16  1  0  0  0  0
 16 17  2  0  0  0  0
 16 39  1  0  0  0  0
 17 18  1  0  0  0  0
 17 19  1  0  0  0  0
 18 40  1  0  0  0  0
 18 41  1  0  0  0  0
 18 42  1  0  0  0  0
 19 20  1  0  0  0  0
 19 21  2  0  0  0  0
 20 43  1  0  0  0  0
 20 44  1  0  0  0  0
 20 45  1  0  0  0  0
 21 22  1  0  0  0  0
 21 46  1  0  0  0  0
 23 24  1  0  0  0  0
 23 47  1  0  0  0  0
 23 48  1  0  0  0  0
 24 49  1  0  0  0  0
 24 50  1  0  0  0  0
M  CHG  1   7   1
M  CHG  1  14   1
M  END
> <s_m_source_file>
AV-unprocessed.smi

> <i_m_source_file_index>
1633

> <i_lp_mmshare_version>
43012

> <i_f3d_flags>
0

> <s_epik_input>
W0NIM11DKD1PKU4xW0NIMl1bQ0gyXU4oW0NIMl1bQ0gyXTEpW0NIMl1bQ0BIXShbT0hdKVtDSDJdbihbY0hdbjIpYyhjMjMpW2NIXWMoW0NIM10pYyhbY0hdMylbQ0gzXQ==

> <s_epik_cmdline>
J2VwaWtfcHl0aG9uJywgJy1waCcsICc3LjAnLCAnLXRuJywgJzgnLCAnLW1hJywgJzIwMCcsICctbWV0YWxfYmluZGluZycsICctaW1hZScsICc8aW5maWxlLm1hZT4nLCAnLW9tYWUnLCAnPG91dGZpbGUubWFlPic=

> <r_epik_Ionization_Penalty>
1.18448

> <r_epik_Ionization_Penalty_Charging>
1.18447

> <r_epik_Ionization_Penalty_Neutral>
4.53746e-06

> <r_epik_State_Penalty>
1.28566

> <r_epik_Charging_Adjusted_Penalty>
2.47013

> <i_epik_Tot_Q>
2

> <i_epik_Tot_abs_Q>
2

> <r_epik_Metal_State_Penalty>
5.30076

> <b_epik_Metal_Only>
0

> <s_lp_Force_Field>
OPLS_2005

> <r_lp_Energy>
52.9318

> <b_lp_Chiralities_Consistent>
1

> <s_lp_Variant>
AV-unprocessed.smi:1633-3

> <Gold.Version>
5.8.1

> <Gold.Id.Protein>
6NUR|6NUR_protein|mol2

> <Gold.PLP.Fitness>
47.1339

> <Gold.PLP.PLP>
-38.8924

> <Gold.PLP.part.hbond>
-1.7495

> <Gold.PLP.part.metal>
0.0000

> <Gold.PLP.part.buried>
-4.5256

> <Gold.PLP.part.nonpolar>
-34.3499

> <Gold.PLP.part.repulsive>
0.2407

> <Gold.PLP.ligand.clash>
0.0000

> <Gold.PLP.ligand.torsion>
0.1192

> <Gold.PLP.Chemscore.Hbond>
2.8160

> <Gold.PLP.Chemscore.CHOScore>
0.0000

> <Gold.PLP.Chemscore.Metal>
0.0000

> <Gold.Chemscore.Hbonds>
donor molecule, donor type, donor heavy atom, donor atom, acceptor molecule, acceptor atom, score
      L1  H    14    52       P1  8028  1.73
      P1  H  7989  7998       L1    10  0.86

> <Gold.PLP.Chemscore.Internal.Correction>
0.0318

> <Gold.Rescore>
     Score         DG    S(hbond)    S(metal)    S(lipo)     H(rot)  DE(clash)    DE(int)     intcor
     17.77     -17.87       1.58        0.00     109.22       2.22       0.01       0.09       ----

> <Gold.Chemscore.Fitness>
17.7724

> <Gold.Chemscore.DG>
-17.8720

> <Gold.Chemscore.ZeroCoef>
-5.4800

> <Gold.Chemscore.Hbond>
1.5842

> <Gold.Chemscore.Metal>
0.0000

> <Gold.Chemscore.Lipo>
109.2150

> <Gold.Chemscore.Internal_Hbond>
0.0000

> <Gold.Chemscore.DEClash>
0.0137

> <Gold.Chemscore.DEInternal>
0.0859

> <Gold.Chemscore.Rot>
2.2178

> <Gold.Chemscore.Internal.Correction>
   9.000000E+99

> <Gold.Chemscore.Hbonds>
donor molecule, donor type, donor heavy atom, donor atom, acceptor molecule, acceptor atom, score
      L1  H    14    52       P1  8028  0.68
      P1  H  7989  7998       L1    10  0.45

> <Gold.Chemscore.Hbond.Weighted>
-5.2914

> <Gold.Chemscore.Metal.Weighted>
-0.0000

> <Gold.Chemscore.Lipo.Weighted>
-12.7782

> <Gold.Chemscore.Internal_Hbond.Weighted>
0.0000

> <Gold.Chemscore.DEClash.Weighted>
0.0137

> <Gold.Chemscore.DEInternal.Weighted>
0.0859

> <Gold.Chemscore.Rot.Weighted>
5.6775

> <Gold.Chemscore.Internal.Correction.Weighted>
   9.000000E+99

> <Gold.Protein.RotatedTorsions>
[ 6907 6896 6895 6894 ] final  -93.68 input  -60.11 | X-H torsion
[ 7974 7965 7964 7962 ] final   65.02 input  175.53 | X-H torsion
[ 8008 7997 7996 7995 ] final -151.81 input   59.86 | X-H torsion
[ 10167 10162 10161 10158 ] final  -12.52 input  -65.29 | X-H torsion
[ 10718 10713 10712 10709 ] final  -91.42 input   66.30 | X-H torsion
[ 10763 10752 10751 10750 ] final   -3.77 input  -60.55 | X-H torsion
[ 11005 11000 10999 10996 ] final -175.89 input  -57.11 | X-H torsion

> <Gold.Protein.ActiveResidues>
 VAL166  LYS551  ARG553  GLY616  TRP617  ASP618  TYR619  PRO620  LYS621  CYS622 
 ASP623  PHE694  ASN695  SER759  ASP760  ASP761  ALA762  ILE779  LEU786  VAL792 
 PHE793  MET794  SER795  GLU796  ALA797  LYS798  CYS799  TRP800  GLU811  SER814 

> <Gold.Protein.RotatedAtoms>
  150.6927  134.1930  159.4292 H   0  0  0  0  0  0  0  0  0  0  0  0  # atno 6907 bound_to 6896
  151.9900  134.9982  160.0570 H   0  0  0  0  0  0  0  0  0  0  0  0  # atno 6908 bound_to 6896
  152.1676  133.4587  159.4929 H   0  0  0  0  0  0  0  0  0  0  0  0  # atno 6909 bound_to 6896
  145.8434  139.3209  143.0918 H   0  0  0  0  0  0  0  0  0  0  0  0  # atno 7974 bound_to 7965
  155.6452  140.0706  157.2605 H   0  0  0  0  0  0  0  0  0  0  0  0  # atno 8008 bound_to 7997
  154.4174  140.1743  156.1666 H   0  0  0  0  0  0  0  0  0  0  0  0  # atno 8009 bound_to 7997
  155.9822  140.3352  155.6677 H   0  0  0  0  0  0  0  0  0  0  0  0  # atno 8010 bound_to 7997
  140.7163  143.5523  150.9287 H   0  0  0  0  0  0  0  0  0  0  0  0  # atno 10167 bound_to 10162
  155.9993  130.4947  150.5471 H   0  0  0  0  0  0  0  0  0  0  0  0  # atno 10718 bound_to 10713
  153.3758  135.6996  153.6603 H   0  0  0  0  0  0  0  0  0  0  0  0  # atno 10763 bound_to 10752
  153.5234  135.3607  155.2643 H   0  0  0  0  0  0  0  0  0  0  0  0  # atno 10764 bound_to 10752
  154.8687  135.4163  154.3046 H   0  0  0  0  0  0  0  0  0  0  0  0  # atno 10765 bound_to 10752
  140.4582  134.6280  157.4831 H   0  0  0  0  0  0  0  0  0  0  0  0  # atno 11005 bound_to 11000
  145.9440  140.8959  143.0293 LP  0  0  0  0  0  0  0  0  0  0  0  0  # atno 17320 bound_to 7965
  144.6732  140.1588  143.7424 LP  0  0  0  0  0  0  0  0  0  0  0  0  # atno 17321 bound_to 7965
  139.9248  143.6563  152.3089 LP  0  0  0  0  0  0  0  0  0  0  0  0  # atno 17342 bound_to 10162
  139.6993  144.7637  151.1301 LP  0  0  0  0  0  0  0  0  0  0  0  0  # atno 17343 bound_to 10162
  157.3399  131.0715  151.1796 LP  0  0  0  0  0  0  0  0  0  0  0  0  # atno 17370 bound_to 10713
  157.2647  130.6676  149.5991 LP  0  0  0  0  0  0  0  0  0  0  0  0  # atno 17371 bound_to 10713
  139.9962  134.6907  155.9605 LP  0  0  0  0  0  0  0  0  0  0  0  0  # atno 17394 bound_to 11000
  141.1633  133.6538  156.4394 LP  0  0  0  0  0  0  0  0  0  0  0  0  # atno 17395 bound_to 11000

$$$$
