AV-unprocessed.smi:370|AV-procd|sdf|2439|dock9
  -GOLD-   2262022383D 1   1.00000     0.00000
 Structure written by MMmdl.
 42 43  0  0  0  0  0  0  0  0  3 V2000
  152.3294  143.9861  161.7319 C   0  0  0  0  0  0  0  0  0  0  0  0
  152.6071  142.7113  161.0114 C   0  0  0  0  0  0  0  0  0  0  0  0
  152.5146  142.3506  159.6972 C   0  0  0  0  0  0  0  0  0  0  0  0
  152.9349  140.9925  159.7028 C   0  0  0  0  0  0  0  0  0  0  0  0
  153.0047  140.1853  158.6332 N   0  5  0  0  0  0  0  0  0  0  0  0
  152.1379  139.1562  158.4997 C   0  0  0  0  0  0  0  0  0  0  0  0
  151.6281  138.5052  159.4145 O   0  0  0  0  0  0  0  0  0  0  0  0
  151.8542  138.8571  157.2238 N   0  0  0  0  0  0  0  0  0  0  0  0
  150.9696  137.7906  156.7550 C   0  0  0  0  0  0  0  0  0  0  0  0
  150.7004  137.8148  155.2185 C   0  0  0  0  0  0  0  0  0  0  0  0
  150.1150  139.2083  154.8659 C   0  0  0  0  0  0  0  0  0  0  0  0
  152.0165  137.6416  154.4210 C   0  0  0  0  0  0  0  0  0  0  0  0
  149.7202  136.7140  154.8920 N   0  3  0  0  0  0  0  0  0  0  0  0
  150.1336  135.3279  155.2558 C   0  0  0  0  0  0  0  0  0  0  0  0
  149.1187  134.2975  154.7294 C   0  0  0  0  0  0  0  0  0  0  0  0
  147.8194  134.5918  155.2210 O   0  0  0  0  0  0  0  0  0  0  0  0
  147.3775  135.8720  154.7942 C   0  0  0  0  0  0  0  0  0  0  0  0
  148.3212  136.9466  155.3551 C   0  0  0  0  0  0  0  0  0  0  0  0
  153.2398  140.5621  160.9155 N   0  0  0  0  0  0  0  0  0  0  0  0
  153.0386  141.6607  161.7599 O   0  0  0  0  0  0  0  0  0  0  0  0
  151.2854  144.2759  161.6127 H   0  0  0  0  0  0  0  0  0  0  0  0
  152.9512  144.7920  161.3420 H   0  0  0  0  0  0  0  0  0  0  0  0
  152.5328  143.8883  162.7985 H   0  0  0  0  0  0  0  0  0  0  0  0
  152.2000  142.9608  158.8639 H   0  0  0  0  0  0  0  0  0  0  0  0
  152.2971  139.4224  156.5141 H   0  0  0  0  0  0  0  0  0  0  0  0
  151.3743  136.8351  157.0842 H   0  0  0  0  0  0  0  0  0  0  0  0
  150.0256  137.9031  157.2889 H   0  0  0  0  0  0  0  0  0  0  0  0
  150.7676  140.0201  155.1879 H   0  0  0  0  0  0  0  0  0  0  0  0
  149.1457  139.3671  155.3399 H   0  0  0  0  0  0  0  0  0  0  0  0
  149.9954  139.3459  153.7911 H   0  0  0  0  0  0  0  0  0  0  0  0
  152.6762  138.5002  154.5494 H   0  0  0  0  0  0  0  0  0  0  0  0
  151.8318  137.5459  153.3512 H   0  0  0  0  0  0  0  0  0  0  0  0
  152.5784  136.7649  154.7434 H   0  0  0  0  0  0  0  0  0  0  0  0
  151.0969  135.0677  154.8210 H   0  0  0  0  0  0  0  0  0  0  0  0
  150.2294  135.2390  156.3386 H   0  0  0  0  0  0  0  0  0  0  0  0
  149.1112  134.2841  153.6382 H   0  0  0  0  0  0  0  0  0  0  0  0
  149.3990  133.2957  155.0552 H   0  0  0  0  0  0  0  0  0  0  0  0
  147.3334  135.9180  153.7049 H   0  0  0  0  0  0  0  0  0  0  0  0
  146.3641  136.0338  155.1618 H   0  0  0  0  0  0  0  0  0  0  0  0
  148.2759  136.9197  156.4444 H   0  0  0  0  0  0  0  0  0  0  0  0
  147.9491  137.9211  155.0473 H   0  0  0  0  0  0  0  0  0  0  0  0
  149.6741  136.7106  153.8831 H   0  0  0  0  0  0  0  0  0  0  0  0
  1  2  1  0  0  0  0
  1 21  1  0  0  0  0
  1 22  1  0  0  0  0
  1 23  1  0  0  0  0
  2 20  1  0  0  0  0
  2  3  2  0  0  0  0
  3  4  1  0  0  0  0
  3 24  1  0  0  0  0
  4  5  1  0  0  0  0
  4 19  2  0  0  0  0
  5  6  1  0  0  0  0
  6  7  2  0  0  0  0
  6  8  1  0  0  0  0
  8  9  1  0  0  0  0
  8 25  1  0  0  0  0
  9 10  1  0  0  0  0
  9 26  1  0  0  0  0
  9 27  1  0  0  0  0
 10 11  1  0  0  0  0
 10 12  1  0  0  0  0
 10 13  1  0  0  0  0
 11 28  1  0  0  0  0
 11 29  1  0  0  0  0
 11 30  1  0  0  0  0
 12 31  1  0  0  0  0
 12 32  1  0  0  0  0
 12 33  1  0  0  0  0
 13 18  1  0  0  0  0
 13 14  1  0  0  0  0
 13 42  1  0  0  0  0
 14 15  1  0  0  0  0
 14 34  1  0  0  0  0
 14 35  1  0  0  0  0
 15 16  1  0  0  0  0
 15 36  1  0  0  0  0
 15 37  1  0  0  0  0
 16 17  1  0  0  0  0
 17 18  1  0  0  0  0
 17 38  1  0  0  0  0
 17 39  1  0  0  0  0
 18 40  1  0  0  0  0
 18 41  1  0  0  0  0
 19 20  1  0  0  0  0
M  CHG  1   5  -1
M  CHG  1  13   1
M  END
> <s_m_source_file>
AV-unprocessed.smi

> <i_m_source_file_index>
370

> <i_lp_mmshare_version>
43012

> <i_f3d_flags>
0

> <s_epik_input>
W0NIM11jMVtjSF1jKG5vMSlbTkhdQyg9TylbTkhdW0NIMl1DKFtDSDNdKShbQ0gzXSlOMltDSDJdW0NIMl1PW0NIMl1bQ0gyXTI=

> <s_epik_cmdline>
J2VwaWtfcHl0aG9uJywgJy1waCcsICc3LjAnLCAnLXRuJywgJzgnLCAnLW1hJywgJzIwMCcsICctbWV0YWxfYmluZGluZycsICctaW1hZScsICc8aW5maWxlLm1hZT4nLCAnLW9tYWUnLCAnPG91dGZpbGUubWFlPic=

> <r_epik_Ionization_Penalty>
6.73014

> <r_epik_Ionization_Penalty_Charging>
6.73004

> <r_epik_Ionization_Penalty_Neutral>
9.76201e-05

> <r_epik_State_Penalty>
6.93052

> <r_epik_Charging_Adjusted_Penalty>
13.6606

> <i_epik_Tot_Q>
0

> <i_epik_Tot_abs_Q>
2

> <r_epik_Metal_State_Penalty>
2.86736

> <b_epik_Metal_Only>
1

> <s_lp_Force_Field>
OPLS_2005

> <r_lp_Energy>
13.9603

> <b_lp_Chiralities_Consistent>
1

> <s_lp_Variant>
AV-unprocessed.smi:370-4

> <Gold.Version>
5.8.1

> <Gold.Id.Protein>
6NUR|6NUR_protein|mol2

> <Gold.PLP.Fitness>
41.0369

> <Gold.PLP.PLP>
-31.2011

> <Gold.PLP.part.hbond>
-2.0000

> <Gold.PLP.part.metal>
0.0000

> <Gold.PLP.part.buried>
-4.1071

> <Gold.PLP.part.nonpolar>
-24.4832

> <Gold.PLP.part.repulsive>
0.1803

> <Gold.PLP.ligand.clash>
0.0000

> <Gold.PLP.ligand.torsion>
1.0112

> <Gold.PLP.Chemscore.Hbond>
3.9200

> <Gold.PLP.Chemscore.CHOScore>
0.0000

> <Gold.PLP.Chemscore.Metal>
0.0000

> <Gold.Chemscore.Hbonds>
donor molecule, donor type, donor heavy atom, donor atom, acceptor molecule, acceptor atom, score
      L1  H    13    42       P1  7948  1.30
      P1  H  7997  8010       L1     5  0.77

> <Gold.PLP.Chemscore.Internal.Correction>
0.0981

> <Gold.Rescore>
     Score         DG    S(hbond)    S(metal)    S(lipo)     H(rot)  DE(clash)    DE(int)     intcor
     13.94     -16.03       1.90        0.00      70.22       1.57       0.12       1.98       ----

> <Gold.Chemscore.Fitness>
13.9354

> <Gold.Chemscore.DG>
-16.0339

> <Gold.Chemscore.ZeroCoef>
-5.4800

> <Gold.Chemscore.Hbond>
1.9036

> <Gold.Chemscore.Metal>
0.0000

> <Gold.Chemscore.Lipo>
70.2156

> <Gold.Chemscore.Internal_Hbond>
0.0000

> <Gold.Chemscore.DEClash>
0.1211

> <Gold.Chemscore.DEInternal>
1.9775

> <Gold.Chemscore.Rot>
1.5701

> <Gold.Chemscore.Internal.Correction>
   9.000000E+99

> <Gold.Chemscore.Hbonds>
donor molecule, donor type, donor heavy atom, donor atom, acceptor molecule, acceptor atom, score
      L1  H    13    42       P1  7948  0.45
      P1  H  7997  8010       L1     5  0.27

> <Gold.Chemscore.Hbond.Weighted>
-6.3580

> <Gold.Chemscore.Metal.Weighted>
-0.0000

> <Gold.Chemscore.Lipo.Weighted>
-8.2152

> <Gold.Chemscore.Internal_Hbond.Weighted>
0.0000

> <Gold.Chemscore.DEClash.Weighted>
0.1211

> <Gold.Chemscore.DEInternal.Weighted>
1.9775

> <Gold.Chemscore.Rot.Weighted>
4.0194

> <Gold.Chemscore.Internal.Correction.Weighted>
   9.000000E+99

> <Gold.Protein.RotatedTorsions>
[ 6907 6896 6895 6894 ] final  -19.76 input  -60.11 | X-H torsion
[ 7974 7965 7964 7962 ] final -137.70 input  175.53 | X-H torsion
[ 8008 7997 7996 7995 ] final   38.94 input   59.86 | X-H torsion
[ 10167 10162 10161 10158 ] final  178.31 input  -65.29 | X-H torsion
[ 10718 10713 10712 10709 ] final -144.81 input   66.30 | X-H torsion
[ 10763 10752 10751 10750 ] final  111.86 input  -60.55 | X-H torsion
[ 11005 11000 10999 10996 ] final   75.75 input  -57.11 | X-H torsion

> <Gold.Protein.ActiveResidues>
 VAL166  LYS551  ARG553  GLY616  TRP617  ASP618  TYR619  PRO620  LYS621  CYS622 
 ASP623  PHE694  ASN695  SER759  ASP760  ASP761  ALA762  ILE779  LEU786  VAL792 
 PHE793  MET794  SER795  GLU796  ALA797  LYS798  CYS799  TRP800  GLU811  SER814 

> <Gold.Protein.RotatedAtoms>
  151.2582  135.0645  159.9087 H   0  0  0  0  0  0  0  0  0  0  0  0  # atno 6907 bound_to 6896
  152.5370  134.0259  159.8013 H   0  0  0  0  0  0  0  0  0  0  0  0  # atno 6908 bound_to 6896
  151.0478  133.5601  159.2676 H   0  0  0  0  0  0  0  0  0  0  0  0  # atno 6909 bound_to 6896
  144.8819  140.6520  143.5200 H   0  0  0  0  0  0  0  0  0  0  0  0  # atno 7974 bound_to 7965
  155.2284  140.3336  155.4306 H   0  0  0  0  0  0  0  0  0  0  0  0  # atno 8008 bound_to 7997
  156.2305  140.1848  156.7301 H   0  0  0  0  0  0  0  0  0  0  0  0  # atno 8009 bound_to 7997
  154.5970  140.0629  156.9302 H   0  0  0  0  0  0  0  0  0  0  0  0  # atno 8010 bound_to 7997
  139.5289  144.2695  152.0640 H   0  0  0  0  0  0  0  0  0  0  0  0  # atno 10167 bound_to 10162
  156.3747  130.7806  151.1991 H   0  0  0  0  0  0  0  0  0  0  0  0  # atno 10718 bound_to 10713
  153.4695  135.3704  155.2383 H   0  0  0  0  0  0  0  0  0  0  0  0  # atno 10763 bound_to 10752
  154.8757  135.3928  154.3829 H   0  0  0  0  0  0  0  0  0  0  0  0  # atno 10764 bound_to 10752
  153.4415  135.7084  153.6231 H   0  0  0  0  0  0  0  0  0  0  0  0  # atno 10765 bound_to 10752
  139.9329  134.7543  156.1310 H   0  0  0  0  0  0  0  0  0  0  0  0  # atno 11005 bound_to 11000
  145.3938  139.1611  143.4214 LP  0  0  0  0  0  0  0  0  0  0  0  0  # atno 17320 bound_to 7965
  146.3000  140.4029  142.8707 LP  0  0  0  0  0  0  0  0  0  0  0  0  # atno 17321 bound_to 7965
  140.2155  144.4519  150.6366 LP  0  0  0  0  0  0  0  0  0  0  0  0  # atno 17342 bound_to 10162
  140.6453  143.2212  151.6200 LP  0  0  0  0  0  0  0  0  0  0  0  0  # atno 17343 bound_to 10162
  157.7487  131.0362  150.4397 LP  0  0  0  0  0  0  0  0  0  0  0  0  # atno 17370 bound_to 10713
  156.4630  130.4036  149.6564 LP  0  0  0  0  0  0  0  0  0  0  0  0  # atno 17371 bound_to 10713
  141.0928  133.6707  156.2578 LP  0  0  0  0  0  0  0  0  0  0  0  0  # atno 17394 bound_to 11000
  140.6152  134.5417  157.5539 LP  0  0  0  0  0  0  0  0  0  0  0  0  # atno 17395 bound_to 11000

$$$$
