AV-unprocessed.smi:946|AV-procd|sdf|4235|dock4
  -GOLD-   22720 2143D 1   1.00000     0.00000
 Structure written by MMmdl.
 42 43  0  0  0  0  0  0  0  0  1 V2000
  150.9948  138.2389  154.0338 C   0  0  0  0  0  0  0  0  0  0  0  0
  150.9262  139.6338  154.6725 C   0  0  1  0  0  0  0  0  0  0  0  0
  149.5864  139.8393  155.1122 O   0  0  0  0  0  0  0  0  0  0  0  0
  148.7579  140.5785  154.2219 C   0  0  0  0  0  0  0  0  0  0  0  0
  147.4634  140.9561  154.9542 C   0  0  2  0  0  0  0  0  0  0  0  0
  146.7129  142.1015  154.2469 C   0  0  0  0  0  0  0  0  0  0  0  0
  145.4718  142.5084  155.0497 C   0  0  0  0  0  0  0  0  0  0  0  0
  145.8709  142.8209  156.4958 C   0  0  0  0  0  0  0  0  0  0  0  0
  146.6778  141.6566  157.0920 C   0  0  0  0  0  0  0  0  0  0  0  0
  147.8087  141.3796  156.2717 O   0  0  0  0  0  0  0  0  0  0  0  0
  151.8978  139.7517  155.8576 C   0  0  0  0  0  0  0  0  0  0  0  0
  152.9324  139.0839  155.8654 O   0  0  0  0  0  0  0  0  0  0  0  0
  151.5253  140.5984  156.8358 N   0  0  0  0  0  0  0  0  0  0  0  0
  152.2004  140.8905  158.0500 C   0  0  0  0  0  0  0  0  0  0  0  0
  151.7339  142.0335  158.7359 C   0  0  0  0  0  0  0  0  0  0  0  0
  152.3365  142.4035  159.9531 C   0  0  0  0  0  0  0  0  0  0  0  0
  153.3891  141.6191  160.4568 C   0  0  0  0  0  0  0  0  0  0  0  0
  153.7965  140.4902  159.7144 C   0  0  0  0  0  0  0  0  0  0  0  0
  154.9226  139.5838  160.1916 C   0  0  0  0  0  0  0  0  0  0  0  0
  155.9331  139.6256  159.3228 F   0  0  0  0  0  0  0  0  0  0  0  0
  155.3797  139.9537  161.3888 F   0  0  0  0  0  0  0  0  0  0  0  0
  154.4816  138.3286  160.2791 F   0  0  0  0  0  0  0  0  0  0  0  0
  153.2161  140.1409  158.5440 N   0  0  0  0  0  0  0  0  0  0  0  0
  152.0014  138.0148  153.6789 H   0  0  0  0  0  0  0  0  0  0  0  0
  150.3227  138.1727  153.1780 H   0  0  0  0  0  0  0  0  0  0  0  0
  150.7060  137.4582  154.7389 H   0  0  0  0  0  0  0  0  0  0  0  0
  151.1750  140.3729  153.9086 H   0  0  0  0  0  0  0  0  0  0  0  0
  149.2537  141.4758  153.8494 H   0  0  0  0  0  0  0  0  0  0  0  0
  148.5248  139.9523  153.3596 H   0  0  0  0  0  0  0  0  0  0  0  0
  146.8164  140.0783  155.0062 H   0  0  0  0  0  0  0  0  0  0  0  0
  147.3742  142.9621  154.1358 H   0  0  0  0  0  0  0  0  0  0  0  0
  146.4211  141.7995  153.2407 H   0  0  0  0  0  0  0  0  0  0  0  0
  144.9882  143.3721  154.5927 H   0  0  0  0  0  0  0  0  0  0  0  0
  144.7437  141.6964  155.0363 H   0  0  0  0  0  0  0  0  0  0  0  0
  146.4726  143.7303  156.5212 H   0  0  0  0  0  0  0  0  0  0  0  0
  144.9837  143.0147  157.0994 H   0  0  0  0  0  0  0  0  0  0  0  0
  147.0238  141.9147  158.0930 H   0  0  0  0  0  0  0  0  0  0  0  0
  146.0595  140.7630  157.1901 H   0  0  0  0  0  0  0  0  0  0  0  0
  150.6570  141.0923  156.6910 H   0  0  0  0  0  0  0  0  0  0  0  0
  150.9227  142.6251  158.3365 H   0  0  0  0  0  0  0  0  0  0  0  0
  151.9949  143.2749  160.4918 H   0  0  0  0  0  0  0  0  0  0  0  0
  153.8645  141.8830  161.3899 H   0  0  0  0  0  0  0  0  0  0  0  0
  1  2  1  0  0  0  0
  1 24  1  0  0  0  0
  1 25  1  0  0  0  0
  1 26  1  0  0  0  0
  2  3  1  0  0  0  0
  2 11  1  0  0  0  0
  2 27  1  0  0  0  0
  3  4  1  0  0  0  0
  4  5  1  0  0  0  0
  4 28  1  0  0  0  0
  4 29  1  0  0  0  0
  5 10  1  0  0  0  0
  5  6  1  0  0  0  0
  5 30  1  0  0  0  0
  6  7  1  0  0  0  0
  6 31  1  0  0  0  0
  6 32  1  0  0  0  0
  7  8  1  0  0  0  0
  7 33  1  0  0  0  0
  7 34  1  0  0  0  0
  8  9  1  0  0  0  0
  8 35  1  0  0  0  0
  8 36  1  0  0  0  0
  9 10  1  0  0  0  0
  9 37  1  0  0  0  0
  9 38  1  0  0  0  0
 11 12  2  0  0  0  0
 11 13  1  0  0  0  0
 13 14  1  0  0  0  0
 13 39  1  0  0  0  0
 14 23  1  0  0  0  0
 14 15  2  0  0  0  0
 15 16  1  0  0  0  0
 15 40  1  0  0  0  0
 16 17  2  0  0  0  0
 16 41  1  0  0  0  0
 17 18  1  0  0  0  0
 17 42  1  0  0  0  0
 18 19  1  0  0  0  0
 18 23  2  0  0  0  0
 19 20  1  0  0  0  0
 19 21  1  0  0  0  0
 19 22  1  0  0  0  0
M  END
> <s_m_source_file>
AV-unprocessed.smi

> <i_m_source_file_index>
946

> <i_lp_mmshare_version>
43012

> <i_f3d_flags>
0

> <s_epik_input>
TzFbQ0gyXVtDSDJdW0NIMl1bQ0gyXVtDQEhdMVtDSDJdT1tDQEBIXShbQ0gzXSlDKD1PKVtOSF1jMltjSF1bY0hdW2NIXWMobjIpQyhGKShGKUY=

> <s_epik_cmdline>
J2VwaWtfcHl0aG9uJywgJy1waCcsICc3LjAnLCAnLXRuJywgJzgnLCAnLW1hJywgJzIwMCcsICctbWV0YWxfYmluZGluZycsICctaW1hZScsICc8aW5maWxlLm1hZT4nLCAnLW9tYWUnLCAnPG91dGZpbGUubWFlPic=

> <r_lp_tautomer_probability>
1

> <r_epik_Ionization_Penalty>
1.32683e-06

> <r_epik_Ionization_Penalty_Charging>
0

> <r_epik_Ionization_Penalty_Neutral>
1.32683e-06

> <r_epik_State_Penalty>
-0

> <r_epik_Charging_Adjusted_Penalty>
0

> <i_epik_Tot_Q>
0

> <i_epik_Tot_abs_Q>
0

> <r_epik_Metal_State_Penalty>
-0

> <b_epik_Metal_Only>
0

> <s_lp_Force_Field>
OPLS_2005

> <r_lp_Energy>
15.913

> <b_lp_Chiralities_Consistent>
1

> <s_lp_Variant>
AV-unprocessed.smi:946-2

> <Gold.Version>
5.8.1

> <Gold.Id.Protein>
6NUR|6NUR_protein|mol2

> <Gold.PLP.Fitness>
41.9700

> <Gold.PLP.PLP>
-42.0879

> <Gold.PLP.part.hbond>
-2.0000

> <Gold.PLP.part.metal>
0.0000

> <Gold.PLP.part.buried>
-0.6561

> <Gold.PLP.part.nonpolar>
-36.7555

> <Gold.PLP.part.repulsive>
0.2801

> <Gold.PLP.ligand.clash>
0.0000

> <Gold.PLP.ligand.torsion>
1.5429

> <Gold.PLP.Chemscore.Hbond>
0.9628

> <Gold.PLP.Chemscore.CHOScore>
0.0000

> <Gold.PLP.Chemscore.Metal>
0.0000

> <Gold.Chemscore.Hbonds>
donor molecule, donor type, donor heavy atom, donor atom, acceptor molecule, acceptor atom, score
      P1  H  7997  8008       L1    12  0.06
      P1  H  7997  8010       L1    23  0.83

> <Gold.PLP.Chemscore.Internal.Correction>
0.0795

> <Gold.Rescore>
     Score         DG    S(hbond)    S(metal)    S(lipo)     H(rot)  DE(clash)    DE(int)     intcor
     11.21     -14.15       0.85        0.00      88.29       1.76       0.39       2.55       ----

> <Gold.Chemscore.Fitness>
11.2117

> <Gold.Chemscore.DG>
-14.1486

> <Gold.Chemscore.ZeroCoef>
-5.4800

> <Gold.Chemscore.Hbond>
0.8484

> <Gold.Chemscore.Metal>
0.0000

> <Gold.Chemscore.Lipo>
88.2860

> <Gold.Chemscore.Internal_Hbond>
0.0000

> <Gold.Chemscore.DEClash>
0.3861

> <Gold.Chemscore.DEInternal>
2.5508

> <Gold.Chemscore.Rot>
1.7557

> <Gold.Chemscore.Internal.Correction>
   9.000000E+99

> <Gold.Chemscore.Hbonds>
donor molecule, donor type, donor heavy atom, donor atom, acceptor molecule, acceptor atom, score
      P1  H  7997  8008       L1    12  0.06
      P1  H  7997  8010       L1    23  0.31

> <Gold.Chemscore.Hbond.Weighted>
-2.8337

> <Gold.Chemscore.Metal.Weighted>
-0.0000

> <Gold.Chemscore.Lipo.Weighted>
-10.3295

> <Gold.Chemscore.Internal_Hbond.Weighted>
0.0000

> <Gold.Chemscore.DEClash.Weighted>
0.3861

> <Gold.Chemscore.DEInternal.Weighted>
2.5508

> <Gold.Chemscore.Rot.Weighted>
4.4946

> <Gold.Chemscore.Internal.Correction.Weighted>
   9.000000E+99

> <Gold.Protein.RotatedTorsions>
[ 6907 6896 6895 6894 ] final   93.53 input  -60.11 | X-H torsion
[ 7974 7965 7964 7962 ] final   12.34 input  175.53 | X-H torsion
[ 8008 7997 7996 7995 ] final   19.95 input   59.86 | X-H torsion
[ 10167 10162 10161 10158 ] final  135.29 input  -65.29 | X-H torsion
[ 10718 10713 10712 10709 ] final  -12.18 input   66.30 | X-H torsion
[ 10763 10752 10751 10750 ] final  174.50 input  -60.55 | X-H torsion
[ 11005 11000 10999 10996 ] final -131.94 input  -57.11 | X-H torsion

> <Gold.Protein.ActiveResidues>
 VAL166  LYS551  ARG553  GLY616  TRP617  ASP618  TYR619  PRO620  LYS621  CYS622 
 ASP623  PHE694  ASN695  SER759  ASP760  ASP761  ALA762  ILE779  LEU786  VAL792 
 PHE793  MET794  SER795  GLU796  ALA797  LYS798  CYS799  TRP800  GLU811  SER814 

> <Gold.Protein.RotatedAtoms>
  152.5452  134.1334  159.8448 H   0  0  0  0  0  0  0  0  0  0  0  0  # atno 6907 bound_to 6896
  151.1377  133.4985  159.2605 H   0  0  0  0  0  0  0  0  0  0  0  0  # atno 6908 bound_to 6896
  151.1606  135.0282  159.8763 H   0  0  0  0  0  0  0  0  0  0  0  0  # atno 6909 bound_to 6896
  146.2353  139.9350  142.8491 H   0  0  0  0  0  0  0  0  0  0  0  0  # atno 7974 bound_to 7965
  154.9283  140.3037  155.5181 H   0  0  0  0  0  0  0  0  0  0  0  0  # atno 8008 bound_to 7997
  156.3005  140.2358  156.4277 H   0  0  0  0  0  0  0  0  0  0  0  0  # atno 8009 bound_to 7997
  154.8263  140.0420  157.1434 H   0  0  0  0  0  0  0  0  0  0  0  0  # atno 8010 bound_to 7997
  139.5223  144.6524  151.5262 H   0  0  0  0  0  0  0  0  0  0  0  0  # atno 10167 bound_to 10162
  156.6483  130.4947  149.6071 H   0  0  0  0  0  0  0  0  0  0  0  0  # atno 10718 bound_to 10713
  154.4548  135.2766  155.1755 H   0  0  0  0  0  0  0  0  0  0  0  0  # atno 10763 bound_to 10752
  154.3568  135.6138  153.5674 H   0  0  0  0  0  0  0  0  0  0  0  0  # atno 10764 bound_to 10752
  152.9850  135.5824  154.4899 H   0  0  0  0  0  0  0  0  0  0  0  0  # atno 10765 bound_to 10752
  140.9214  134.1439  157.4310 H   0  0  0  0  0  0  0  0  0  0  0  0  # atno 11005 bound_to 11000
  145.2007  140.9853  143.4157 LP  0  0  0  0  0  0  0  0  0  0  0  0  # atno 17320 bound_to 7965
  144.9776  139.3816  143.6278 LP  0  0  0  0  0  0  0  0  0  0  0  0  # atno 17321 bound_to 7965
  140.6335  143.9029  150.6627 LP  0  0  0  0  0  0  0  0  0  0  0  0  # atno 17342 bound_to 10162
  140.2341  143.3713  152.1541 LP  0  0  0  0  0  0  0  0  0  0  0  0  # atno 17343 bound_to 10162
  156.2105  130.6676  151.1264 LP  0  0  0  0  0  0  0  0  0  0  0  0  # atno 17370 bound_to 10713
  157.7149  131.0715  150.6364 LP  0  0  0  0  0  0  0  0  0  0  0  0  # atno 17371 bound_to 10713
  139.8776  134.9973  156.5838 LP  0  0  0  0  0  0  0  0  0  0  0  0  # atno 17394 bound_to 11000
  140.7982  133.8527  155.8704 LP  0  0  0  0  0  0  0  0  0  0  0  0  # atno 17395 bound_to 11000

$$$$
