AV-unprocessed.smi:2083|AV-procd|sdf|8508|dock8
  -GOLD-   2272011223D 1   1.00000     0.00000
 Structure written by MMmdl.
 44 45  0  0  0  0  0  0  0  0  3 V2000
  147.2577  136.1535  162.9133 C   0  0  0  0  0  0  0  0  0  0  0  0
  147.3657  136.0636  161.4298 C   0  0  0  0  0  0  0  0  0  0  0  0
  147.4656  135.0093  160.5666 C   0  0  0  0  0  0  0  0  0  0  0  0
  147.5307  135.6396  159.2955 C   0  0  0  0  0  0  0  0  0  0  0  0
  147.6390  134.8668  158.1089 N   0  0  0  0  0  0  0  0  0  0  0  0
  147.4413  135.2490  156.8337 C   0  0  0  0  0  0  0  0  0  0  0  0
  147.1490  136.4220  156.5721 O   0  0  0  0  0  0  0  0  0  0  0  0
  147.6019  134.2200  155.9569 N   0  5  0  0  0  0  0  0  0  0  0  0
  147.1448  134.2316  154.5674 C   0  0  0  0  0  0  0  0  0  0  0  0
  147.3484  132.8372  153.9183 C   0  0  2  0  0  0  0  0  0  0  0  0
  148.8276  132.4787  153.6264 C   0  0  0  0  0  0  0  0  0  0  0  0
  146.4648  132.6832  152.7204 N   0  3  2  0  0  0  0  0  0  0  0  0
  146.2980  131.2695  152.2895 C   0  0  0  0  0  0  0  0  0  0  0  0
  145.1657  131.1405  151.2577 C   0  0  0  0  0  0  0  0  0  0  0  0
  145.4003  132.0657  150.0545 C   0  0  0  0  0  0  0  0  0  0  0  0
  145.6424  133.5194  150.5032 C   0  0  1  0  0  0  0  0  0  0  0  0
  144.3591  134.2209  150.9819 C   0  0  0  0  0  0  0  0  0  0  0  0
  146.7640  133.5750  151.5598 C   0  0  0  0  0  0  0  0  0  0  0  0
  147.4746  136.9609  159.3771 N   0  0  0  0  0  0  0  0  0  0  0  0
  147.3691  137.2390  160.7450 O   0  0  0  0  0  0  0  0  0  0  0  0
  147.3805  135.1726  163.3730 H   0  0  0  0  0  0  0  0  0  0  0  0
  146.2834  136.5446  163.2061 H   0  0  0  0  0  0  0  0  0  0  0  0
  148.0243  136.8145  163.3175 H   0  0  0  0  0  0  0  0  0  0  0  0
  147.4876  133.9569  160.8071 H   0  0  0  0  0  0  0  0  0  0  0  0
  147.8845  133.8972  158.2419 H   0  0  0  0  0  0  0  0  0  0  0  0
  146.0861  134.4871  154.4953 H   0  0  0  0  0  0  0  0  0  0  0  0
  147.6664  134.9841  153.9753 H   0  0  0  0  0  0  0  0  0  0  0  0
  146.9961  132.1179  154.6598 H   0  0  0  0  0  0  0  0  0  0  0  0
  149.4253  132.4474  154.5391 H   0  0  0  0  0  0  0  0  0  0  0  0
  149.3093  133.1867  152.9496 H   0  0  0  0  0  0  0  0  0  0  0  0
  148.9042  131.4899  153.1741 H   0  0  0  0  0  0  0  0  0  0  0  0
  147.2364  130.8994  151.8740 H   0  0  0  0  0  0  0  0  0  0  0  0
  146.0590  130.6394  153.1468 H   0  0  0  0  0  0  0  0  0  0  0  0
  145.0880  130.1065  150.9204 H   0  0  0  0  0  0  0  0  0  0  0  0
  144.2117  131.3786  151.7292 H   0  0  0  0  0  0  0  0  0  0  0  0
  146.2704  131.7123  149.4998 H   0  0  0  0  0  0  0  0  0  0  0  0
  144.5571  132.0122  149.3649 H   0  0  0  0  0  0  0  0  0  0  0  0
  145.9878  134.0745  149.6300 H   0  0  0  0  0  0  0  0  0  0  0  0
  143.9441  133.7503  151.8733 H   0  0  0  0  0  0  0  0  0  0  0  0
  143.5910  134.2022  150.2085 H   0  0  0  0  0  0  0  0  0  0  0  0
  144.5535  135.2661  151.2244 H   0  0  0  0  0  0  0  0  0  0  0  0
  146.9010  134.6064  151.8869 H   0  0  0  0  0  0  0  0  0  0  0  0
  147.7039  133.2684  151.0985 H   0  0  0  0  0  0  0  0  0  0  0  0
  145.5526  132.9626  153.0527 H   0  0  0  0  0  0  0  0  0  0  0  0
  1  2  1  0  0  0  0
  1 21  1  0  0  0  0
  1 22  1  0  0  0  0
  1 23  1  0  0  0  0
  2 20  1  0  0  0  0
  2  3  2  0  0  0  0
  3  4  1  0  0  0  0
  3 24  1  0  0  0  0
  4  5  1  0  0  0  0
  4 19  2  0  0  0  0
  5  6  1  0  0  0  0
  5 25  1  0  0  0  0
  6  7  2  0  0  0  0
  6  8  1  0  0  0  0
  8  9  1  0  0  0  0
  9 10  1  0  0  0  0
  9 26  1  0  0  0  0
  9 27  1  0  0  0  0
 10 11  1  0  0  0  0
 10 12  1  0  0  0  0
 10 28  1  0  0  0  0
 11 29  1  0  0  0  0
 11 30  1  0  0  0  0
 11 31  1  0  0  0  0
 12 18  1  0  0  0  0
 12 13  1  0  0  0  0
 12 44  1  0  0  0  0
 13 14  1  0  0  0  0
 13 32  1  0  0  0  0
 13 33  1  0  0  0  0
 14 15  1  0  0  0  0
 14 34  1  0  0  0  0
 14 35  1  0  0  0  0
 15 16  1  0  0  0  0
 15 36  1  0  0  0  0
 15 37  1  0  0  0  0
 16 17  1  0  0  0  0
 16 18  1  0  0  0  0
 16 38  1  0  0  0  0
 17 39  1  0  0  0  0
 17 40  1  0  0  0  0
 17 41  1  0  0  0  0
 18 42  1  0  0  0  0
 18 43  1  0  0  0  0
 19 20  1  0  0  0  0
M  CHG  1   8  -1
M  CHG  1  12   1
M  END
> <s_m_source_file>
AV-unprocessed.smi

> <i_m_source_file_index>
2083

> <i_lp_mmshare_version>
43012

> <i_f3d_flags>
0

> <s_epik_input>
W0NIM11jMVtjSF1jKG5vMSlbTkhdQyg9TylbTkhdW0NIMl1bQ0BIXShbQ0gzXSlOMltDSDJdW0NIMl1bQ0gyXVtDQEBIXShbQ0gzXSlbQ0gyXTI=

> <s_epik_cmdline>
J2VwaWtfcHl0aG9uJywgJy1waCcsICc3LjAnLCAnLXRuJywgJzgnLCAnLW1hJywgJzIwMCcsICctbWV0YWxfYmluZGluZycsICctaW1hZScsICc8aW5maWxlLm1hZT4nLCAnLW9tYWUnLCAnPG91dGZpbGUubWFlPic=

> <r_epik_Ionization_Penalty>
6.76934

> <r_epik_Ionization_Penalty_Charging>
6.76934

> <r_epik_Ionization_Penalty_Neutral>
5.77849e-06

> <r_epik_State_Penalty>
6.79457

> <r_epik_Charging_Adjusted_Penalty>
13.5639

> <i_epik_Tot_Q>
0

> <i_epik_Tot_abs_Q>
2

> <r_epik_Metal_State_Penalty>
2.72837

> <b_epik_Metal_Only>
1

> <s_lp_Force_Field>
OPLS_2005

> <r_lp_Energy>
20.5905

> <b_lp_Chiralities_Consistent>
1

> <s_lp_Variant>
AV-unprocessed.smi:2083-19

> <Gold.Version>
5.8.1

> <Gold.Id.Protein>
6NUR|6NUR_protein|mol2

> <Gold.PLP.Fitness>
37.3888

> <Gold.PLP.PLP>
-32.8907

> <Gold.PLP.part.hbond>
-2.0000

> <Gold.PLP.part.metal>
0.0000

> <Gold.PLP.part.buried>
-4.6171

> <Gold.PLP.part.nonpolar>
-26.2493

> <Gold.PLP.part.repulsive>
0.0620

> <Gold.PLP.ligand.clash>
0.0000

> <Gold.PLP.ligand.torsion>
0.3556

> <Gold.PLP.Chemscore.Hbond>
1.6800

> <Gold.PLP.Chemscore.CHOScore>
0.0000

> <Gold.PLP.Chemscore.Metal>
0.0000

> <Gold.Chemscore.Hbonds>
donor molecule, donor type, donor heavy atom, donor atom, acceptor molecule, acceptor atom, score
      P1  H  6931  6943       L1    20  0.29
      P1  H  6934  6947       L1    20  1.00

> <Gold.PLP.Chemscore.Internal.Correction>
0.1694

> <Gold.Rescore>
     Score         DG    S(hbond)    S(metal)    S(lipo)     H(rot)  DE(clash)    DE(int)     intcor
     14.45     -16.13       1.50        0.00      81.51       1.52       0.00       1.68       ----

> <Gold.Chemscore.Fitness>
14.4533

> <Gold.Chemscore.DG>
-16.1348

> <Gold.Chemscore.ZeroCoef>
-5.4800

> <Gold.Chemscore.Hbond>
1.4991

> <Gold.Chemscore.Metal>
0.0000

> <Gold.Chemscore.Lipo>
81.5071

> <Gold.Chemscore.Internal_Hbond>
0.0000

> <Gold.Chemscore.DEClash>
0.0048

> <Gold.Chemscore.DEInternal>
1.6768

> <Gold.Chemscore.Rot>
1.5190

> <Gold.Chemscore.Internal.Correction>
   9.000000E+99

> <Gold.Chemscore.Hbonds>
donor molecule, donor type, donor heavy atom, donor atom, acceptor molecule, acceptor atom, score
      P1  H  6931  6943       L1    20  0.06
      P1  H  6934  6947       L1    20  0.64

> <Gold.Chemscore.Hbond.Weighted>
-5.0071

> <Gold.Chemscore.Metal.Weighted>
-0.0000

> <Gold.Chemscore.Lipo.Weighted>
-9.5363

> <Gold.Chemscore.Internal_Hbond.Weighted>
0.0000

> <Gold.Chemscore.DEClash.Weighted>
0.0048

> <Gold.Chemscore.DEInternal.Weighted>
1.6768

> <Gold.Chemscore.Rot.Weighted>
3.8886

> <Gold.Chemscore.Internal.Correction.Weighted>
   9.000000E+99

> <Gold.Protein.RotatedTorsions>
[ 6907 6896 6895 6894 ] final  153.31 input  -60.11 | X-H torsion
[ 7974 7965 7964 7962 ] final   55.01 input  175.53 | X-H torsion
[ 8008 7997 7996 7995 ] final   -3.31 input   59.86 | X-H torsion
[ 10167 10162 10161 10158 ] final -135.35 input  -65.29 | X-H torsion
[ 10718 10713 10712 10709 ] final  -54.00 input   66.30 | X-H torsion
[ 10763 10752 10751 10750 ] final   82.96 input  -60.55 | X-H torsion
[ 11005 11000 10999 10996 ] final   18.51 input  -57.11 | X-H torsion

> <Gold.Protein.ActiveResidues>
 VAL166  LYS551  ARG553  GLY616  TRP617  ASP618  TYR619  PRO620  LYS621  CYS622 
 ASP623  PHE694  ASN695  SER759  ASP760  ASP761  ALA762  ILE779  LEU786  VAL792 
 PHE793  MET794  SER795  GLU796  ALA797  LYS798  CYS799  TRP800  GLU811  SER814 

> <Gold.Protein.RotatedAtoms>
  152.0744  133.4122  159.4473 H   0  0  0  0  0  0  0  0  0  0  0  0  # atno 6907 bound_to 6896
  150.6863  134.3054  159.4733 H   0  0  0  0  0  0  0  0  0  0  0  0  # atno 6908 bound_to 6896
  152.0889  134.9420  160.0623 H   0  0  0  0  0  0  0  0  0  0  0  0  # atno 6909 bound_to 6896
  145.9549  139.4006  143.0283 H   0  0  0  0  0  0  0  0  0  0  0  0  # atno 7974 bound_to 7965
  154.6263  140.2512  155.7488 H   0  0  0  0  0  0  0  0  0  0  0  0  # atno 8008 bound_to 7997
  156.2455  140.2916  156.0513 H   0  0  0  0  0  0  0  0  0  0  0  0  # atno 8009 bound_to 7997
  155.1817  140.0389  157.2873 H   0  0  0  0  0  0  0  0  0  0  0  0  # atno 8010 bound_to 7997
  139.8787  143.6866  152.2630 H   0  0  0  0  0  0  0  0  0  0  0  0  # atno 10167 bound_to 10162
  156.1488  130.4152  149.9980 H   0  0  0  0  0  0  0  0  0  0  0  0  # atno 10718 bound_to 10713
  153.1249  135.4709  154.9255 H   0  0  0  0  0  0  0  0  0  0  0  0  # atno 10763 bound_to 10752
  154.7610  135.3131  154.8380 H   0  0  0  0  0  0  0  0  0  0  0  0  # atno 10764 bound_to 10752
  153.8936  135.6882  153.4813 H   0  0  0  0  0  0  0  0  0  0  0  0  # atno 10765 bound_to 10752
  140.4240  134.1488  155.7675 H   0  0  0  0  0  0  0  0  0  0  0  0  # atno 11005 bound_to 11000
  145.8120  140.9721  143.0944 LP  0  0  0  0  0  0  0  0  0  0  0  0  # atno 17320 bound_to 7965
  144.6803  139.9933  143.7484 LP  0  0  0  0  0  0  0  0  0  0  0  0  # atno 17321 bound_to 7965
  139.7216  144.7601  151.0947 LP  0  0  0  0  0  0  0  0  0  0  0  0  # atno 17342 bound_to 10162
  140.7748  143.5201  150.9547 LP  0  0  0  0  0  0  0  0  0  0  0  0  # atno 17343 bound_to 10162
  156.7844  130.9233  151.3646 LP  0  0  0  0  0  0  0  0  0  0  0  0  # atno 17370 bound_to 10713
  157.6639  130.8990  149.9889 LP  0  0  0  0  0  0  0  0  0  0  0  0  # atno 17371 bound_to 10713
  141.1772  133.8489  157.1380 LP  0  0  0  0  0  0  0  0  0  0  0  0  # atno 17394 bound_to 11000
  140.0180  134.9959  157.0533 LP  0  0  0  0  0  0  0  0  0  0  0  0  # atno 17395 bound_to 11000

$$$$
