AV-unprocessed.smi:196|AV-procd|sdf|1536|dock8
  -GOLD-   2262019393D 1   1.00000     0.00000
 Structure written by MMmdl.
 47 50  0  0  0  0  0  0  0  0  1 V2000
  143.0032  132.7952  150.9715 C   0  0  0  0  0  0  0  0  0  0  0  0
  144.1948  133.3702  150.1897 C   0  0  2  0  0  0  0  0  0  0  0  0
  145.1616  132.3321  150.0482 O   0  0  0  0  0  0  0  0  0  0  0  0
  146.4536  132.9108  150.0030 C   0  0  0  0  0  0  0  0  0  0  0  0
  146.3566  134.0079  151.0516 C   0  0  0  0  0  0  0  0  0  0  0  0
  144.9511  134.5643  150.8391 C   0  0  1  0  0  0  0  0  0  0  0  0
  145.0345  135.5956  149.8692 O   0  0  0  0  0  0  0  0  0  0  0  0
  144.3212  135.1657  152.1228 C   0  0  0  0  0  0  0  0  0  0  0  0
  145.1448  136.1904  152.7474 N   0  0  0  0  0  0  0  0  0  0  0  0
  144.9942  137.5519  152.6289 C   0  0  0  0  0  0  0  0  0  0  0  0
  145.8632  138.2645  153.2900 N   0  0  0  0  0  0  0  0  0  0  0  0
  146.6735  137.3300  153.9277 C   0  0  0  0  0  0  0  0  0  0  0  0
  147.8006  137.4033  154.8037 C   0  0  0  0  0  0  0  0  0  0  0  0
  148.3791  138.5521  155.2532 N   0  0  0  0  0  0  0  0  0  0  0  0
  147.6346  139.8016  155.3864 C   0  0  0  0  0  0  0  0  0  0  0  0
  148.6565  140.8450  155.8414 C   0  0  2  0  0  0  0  0  0  0  0  0
  149.1432  141.4928  154.7817 F   0  0  0  0  0  0  0  0  0  0  0  0
  149.7559  140.0042  156.4910 C   0  0  0  0  0  0  0  0  0  0  0  0
  149.7668  138.6843  155.6985 C   0  0  2  0  0  0  0  0  0  0  0  0
  150.7638  138.7256  154.5250 C   0  0  0  0  0  0  0  0  0  0  0  0
  150.3865  138.1178  153.3979 N   0  0  0  0  0  0  0  0  0  0  0  0
  151.8520  139.2901  154.6270 O   0  0  0  0  0  0  0  0  0  0  0  0
  148.3346  136.2229  155.2170 N   0  0  0  0  0  0  0  0  0  0  0  0
  147.8135  135.0590  154.8225 C   0  0  0  0  0  0  0  0  0  0  0  0
  146.7709  134.8430  154.0212 N   0  0  0  0  0  0  0  0  0  0  0  0
  146.2284  136.0171  153.5913 C   0  0  0  0  0  0  0  0  0  0  0  0
  148.2340  141.5938  156.5119 H   0  0  0  0  0  0  0  0  0  0  0  0
  150.0326  137.8730  156.3767 H   0  0  0  0  0  0  0  0  0  0  0  0
  142.2175  133.5389  151.1047 H   0  0  0  0  0  0  0  0  0  0  0  0
  143.3051  132.4353  151.9555 H   0  0  0  0  0  0  0  0  0  0  0  0
  142.5652  131.9519  150.4374 H   0  0  0  0  0  0  0  0  0  0  0  0
  143.8507  133.6372  149.1886 H   0  0  0  0  0  0  0  0  0  0  0  0
  147.2312  132.1801  150.2261 H   0  0  0  0  0  0  0  0  0  0  0  0
  146.6394  133.3264  149.0115 H   0  0  0  0  0  0  0  0  0  0  0  0
  146.4340  133.5518  152.0392 H   0  0  0  0  0  0  0  0  0  0  0  0
  147.1465  134.7559  150.9687 H   0  0  0  0  0  0  0  0  0  0  0  0
  145.2402  135.2045  149.0338 H   0  0  0  0  0  0  0  0  0  0  0  0
  143.3476  135.6038  151.8994 H   0  0  0  0  0  0  0  0  0  0  0  0
  144.1454  134.3861  152.8641 H   0  0  0  0  0  0  0  0  0  0  0  0
  144.2176  138.0023  152.0279 H   0  0  0  0  0  0  0  0  0  0  0  0
  147.1514  140.0966  154.4537 H   0  0  0  0  0  0  0  0  0  0  0  0
  146.8618  139.6726  156.1454 H   0  0  0  0  0  0  0  0  0  0  0  0
  150.7200  140.5149  156.5098 H   0  0  0  0  0  0  0  0  0  0  0  0
  149.4827  139.7969  157.5266 H   0  0  0  0  0  0  0  0  0  0  0  0
  151.0024  138.1093  152.5982 H   0  0  0  0  0  0  0  0  0  0  0  0
  149.4858  137.6637  153.3524 H   0  0  0  0  0  0  0  0  0  0  0  0
  148.3012  134.1745  155.2051 H   0  0  0  0  0  0  0  0  0  0  0  0
  1  2  1  0  0  0  0
  1 29  1  0  0  0  0
  1 30  1  0  0  0  0
  1 31  1  0  0  0  0
  2  6  1  0  0  0  0
  2  3  1  0  0  0  0
  2 32  1  0  0  0  0
  3  4  1  0  0  0  0
  4  5  1  0  0  0  0
  4 33  1  0  0  0  0
  4 34  1  0  0  0  0
  5  6  1  0  0  0  0
  5 35  1  0  0  0  0
  5 36  1  0  0  0  0
  6  7  1  0  0  0  0
  6  8  1  0  0  0  0
  7 37  1  0  0  0  0
  8  9  1  0  0  0  0
  8 38  1  0  0  0  0
  8 39  1  0  0  0  0
  9 26  1  0  0  0  0
  9 10  1  0  0  0  0
 10 11  2  0  0  0  0
 10 40  1  0  0  0  0
 11 12  1  0  0  0  0
 12 26  2  0  0  0  0
 12 13  1  0  0  0  0
 13 14  1  0  0  0  0
 13 23  2  0  0  0  0
 14 19  1  0  0  0  0
 14 15  1  0  0  0  0
 15 16  1  0  0  0  0
 15 41  1  0  0  0  0
 15 42  1  0  0  0  0
 16 27  1  0  0  0  0
 16 17  1  0  0  0  0
 16 18  1  0  0  0  0
 18 19  1  0  0  0  0
 18 43  1  0  0  0  0
 18 44  1  0  0  0  0
 19 28  1  0  0  0  0
 19 20  1  0  0  0  0
 20 21  1  0  0  0  0
 20 22  2  0  0  0  0
 21 45  1  0  0  0  0
 21 46  1  0  0  0  0
 23 24  1  0  0  0  0
 24 25  2  0  0  0  0
 24 47  1  0  0  0  0
 25 26  1  0  0  0  0
M  END
> <s_m_source_file>
AV-unprocessed.smi

> <i_m_source_file_index>
196

> <i_lp_mmshare_version>
43012

> <i_f3d_flags>
0

> <s_epik_input>
W0NIMl0xW0NIMl1PW0NAQEhdKFtDSDNdKVtDQEBdMShbT0hdKVtDSDJdbihbY0hdbjIpYyhjMjMpbltjSF1uYzNONFtDSDJdW0NASF0oRilbQ0gyXVtDQEhdNEMoPU8pW05IMl0=

> <s_epik_cmdline>
J2VwaWtfcHl0aG9uJywgJy1waCcsICc3LjAnLCAnLXRuJywgJzgnLCAnLW1hJywgJzIwMCcsICctbWV0YWxfYmluZGluZycsICctaW1hZScsICc8aW5maWxlLm1hZT4nLCAnLW9tYWUnLCAnPG91dGZpbGUubWFlPic=

> <r_lp_tautomer_probability>
1

> <r_epik_Ionization_Penalty>
0.000857933

> <r_epik_Ionization_Penalty_Charging>
0

> <r_epik_Ionization_Penalty_Neutral>
0.000857933

> <r_epik_State_Penalty>
0.000462053

> <r_epik_Charging_Adjusted_Penalty>
0.000462053

> <i_epik_Tot_Q>
0

> <i_epik_Tot_abs_Q>
0

> <r_epik_Metal_State_Penalty>
-0

> <b_epik_Metal_Only>
0

> <s_lp_Force_Field>
OPLS_2005

> <r_lp_Energy>
42.9342

> <b_lp_Chiralities_Consistent>
1

> <s_lp_Variant>
AV-unprocessed.smi:196-9

> <Gold.Version>
5.8.1

> <Gold.Id.Protein>
6NUR|6NUR_protein|mol2

> <Gold.PLP.Fitness>
40.8310

> <Gold.PLP.PLP>
-31.5663

> <Gold.PLP.part.hbond>
-4.7392

> <Gold.PLP.part.metal>
0.0000

> <Gold.PLP.part.buried>
-2.2105

> <Gold.PLP.part.nonpolar>
-24.7936

> <Gold.PLP.part.repulsive>
0.6793

> <Gold.PLP.ligand.clash>
0.0000

> <Gold.PLP.ligand.torsion>
1.2830

> <Gold.PLP.Chemscore.Hbond>
2.3401

> <Gold.PLP.Chemscore.CHOScore>
1.5934

> <Gold.PLP.Chemscore.Metal>
0.0000

> <Gold.Chemscore.Hbonds>
donor molecule, donor type, donor heavy atom, donor atom, acceptor molecule, acceptor atom, score
      L1  H     7    37       P1  7921  1.00
      L1  H    21    45       P1  7949  0.03
      L1  H    21    46       P1  7948  0.36
      P1  H  7989  7998       L1    22  0.99
      L1  C    10    40       P1 10171  1.00
      L1  C    10    40       P1 10175  0.77

> <Gold.PLP.Chemscore.Internal.Correction>
0.0302

> <Gold.Rescore>
     Score         DG    S(hbond)    S(metal)    S(lipo)     H(rot)  DE(clash)    DE(int)     intcor
      8.83     -11.39       1.70        0.00      58.76       2.60       0.39       2.18       ----

> <Gold.Chemscore.Fitness>
8.8272

> <Gold.Chemscore.DG>
-11.3932

> <Gold.Chemscore.ZeroCoef>
-5.4800

> <Gold.Chemscore.Hbond>
1.7025

> <Gold.Chemscore.Metal>
0.0000

> <Gold.Chemscore.Lipo>
58.7574

> <Gold.Chemscore.Internal_Hbond>
0.0000

> <Gold.Chemscore.DEClash>
0.3872

> <Gold.Chemscore.DEInternal>
2.1788

> <Gold.Chemscore.Rot>
2.5968

> <Gold.Chemscore.Internal.Correction>
   9.000000E+99

> <Gold.Chemscore.Hbonds>
donor molecule, donor type, donor heavy atom, donor atom, acceptor molecule, acceptor atom, score
      L1  H     7    37       P1  7921  0.99
      L1  H    21    45       P1  7949  0.01
      L1  H    21    46       P1  7948  0.33
      P1  H  7989  7998       L1    22  0.42

> <Gold.Chemscore.Hbond.Weighted>
-5.6863

> <Gold.Chemscore.Metal.Weighted>
-0.0000

> <Gold.Chemscore.Lipo.Weighted>
-6.8746

> <Gold.Chemscore.Internal_Hbond.Weighted>
0.0000

> <Gold.Chemscore.DEClash.Weighted>
0.3872

> <Gold.Chemscore.DEInternal.Weighted>
2.1788

> <Gold.Chemscore.Rot.Weighted>
6.6477

> <Gold.Chemscore.Internal.Correction.Weighted>
   9.000000E+99

> <Gold.Protein.RotatedTorsions>
[ 6907 6896 6895 6894 ] final  141.27 input  -60.11 | X-H torsion
[ 7974 7965 7964 7962 ] final  -89.22 input  175.53 | X-H torsion
[ 8008 7997 7996 7995 ] final -163.11 input   59.86 | X-H torsion
[ 10167 10162 10161 10158 ] final  -57.54 input  -65.29 | X-H torsion
[ 10718 10713 10712 10709 ] final  -33.61 input   66.30 | X-H torsion
[ 10763 10752 10751 10750 ] final -119.94 input  -60.55 | X-H torsion
[ 11005 11000 10999 10996 ] final  144.92 input  -57.11 | X-H torsion

> <Gold.Protein.ActiveResidues>
 VAL166  LYS551  ARG553  GLY616  TRP617  ASP618  TYR619  PRO620  LYS621  CYS622 
 ASP623  PHE694  ASN695  SER759  ASP760  ASP761  ALA762  ILE779  LEU786  VAL792 
 PHE793  MET794  SER795  GLU796  ALA797  LYS798  CYS799  TRP800  GLU811  SER814 

> <Gold.Protein.RotatedAtoms>
  152.2331  133.5074  159.5226 H   0  0  0  0  0  0  0  0  0  0  0  0  # atno 6907 bound_to 6896
  150.7043  134.1190  159.4037 H   0  0  0  0  0  0  0  0  0  0  0  0  # atno 6908 bound_to 6896
  151.9111  135.0338  160.0565 H   0  0  0  0  0  0  0  0  0  0  0  0  # atno 6909 bound_to 6896
  145.4427  140.9559  143.2066 H   0  0  0  0  0  0  0  0  0  0  0  0  # atno 7974 bound_to 7965
  155.8166  140.0913  157.1873 H   0  0  0  0  0  0  0  0  0  0  0  0  # atno 8008 bound_to 7997
  154.3979  140.1444  156.3509 H   0  0  0  0  0  0  0  0  0  0  0  0  # atno 8009 bound_to 7997
  155.8310  140.3442  155.5575 H   0  0  0  0  0  0  0  0  0  0  0  0  # atno 8010 bound_to 7997
  140.6252  143.2435  151.5381 H   0  0  0  0  0  0  0  0  0  0  0  0  # atno 10167 bound_to 10162
  156.3606  130.4323  149.7627 H   0  0  0  0  0  0  0  0  0  0  0  0  # atno 10718 bound_to 10713
  154.8631  135.4220  154.2379 H   0  0  0  0  0  0  0  0  0  0  0  0  # atno 10763 bound_to 10752
  153.3350  135.6990  153.6921 H   0  0  0  0  0  0  0  0  0  0  0  0  # atno 10764 bound_to 10752
  153.5922  135.3552  155.2888 H   0  0  0  0  0  0  0  0  0  0  0  0  # atno 10765 bound_to 10752
  140.0671  134.9172  157.1282 H   0  0  0  0  0  0  0  0  0  0  0  0  # atno 11005 bound_to 11000
  144.8111  139.5960  143.7029 LP  0  0  0  0  0  0  0  0  0  0  0  0  # atno 17320 bound_to 7965
  146.2547  139.6277  142.9403 LP  0  0  0  0  0  0  0  0  0  0  0  0  # atno 17321 bound_to 7965
  139.5473  144.2486  152.1467 LP  0  0  0  0  0  0  0  0  0  0  0  0  # atno 17342 bound_to 10162
  140.1716  144.4930  150.6576 LP  0  0  0  0  0  0  0  0  0  0  0  0  # atno 17343 bound_to 10162
  156.4793  130.8033  151.3048 LP  0  0  0  0  0  0  0  0  0  0  0  0  # atno 17370 bound_to 10713
  157.7473  131.0011  150.2950 LP  0  0  0  0  0  0  0  0  0  0  0  0  # atno 17371 bound_to 10713
  140.3683  134.2418  155.7180 LP  0  0  0  0  0  0  0  0  0  0  0  0  # atno 17394 bound_to 11000
  141.1997  133.8005  157.0524 LP  0  0  0  0  0  0  0  0  0  0  0  0  # atno 17395 bound_to 11000

$$$$
