AV-unprocessed.smi:3318|AV-procd|sdf|12763|dock7
  -GOLD-   2272019103D 1   1.00000     0.00000
 Structure written by MMmdl.
 45 46  0  0  0  0  0  0  0  0  3 V2000
  144.1804  133.1661  150.7925 C   0  0  0  0  0  0  0  0  0  0  0  0
  144.2087  134.6013  151.3290 C   0  0  0  0  0  0  0  0  0  0  0  0
  145.2394  135.4787  150.5971 C   0  0  0  0  0  0  0  0  0  0  0  0
  145.4175  136.8089  151.2348 N   0  3  2  0  0  0  0  0  0  0  0  0
  146.4050  137.6711  150.5322 C   0  0  0  0  0  0  0  0  0  0  0  0
  146.4655  139.0763  151.1583 C   0  0  0  0  0  0  0  0  0  0  0  0
  146.7741  139.0317  152.6688 C   0  0  2  0  0  0  0  0  0  0  0  0
  148.1743  138.6379  152.9571 N   0  3  0  0  0  0  0  0  0  0  0  0
  148.5718  138.7063  154.3793 C   0  0  0  0  0  0  0  0  0  0  0  0
  150.0736  138.9935  154.5154 C   0  0  0  0  0  0  0  0  0  0  0  0
  150.3727  139.9521  155.6522 C   0  0  0  0  0  0  0  0  0  0  0  0
  151.1663  139.5493  156.7472 C   0  0  0  0  0  0  0  0  0  0  0  0
  151.4161  140.4820  157.7728 C   0  0  0  0  0  0  0  0  0  0  0  0
  150.8676  141.7743  157.6626 C   0  0  0  0  0  0  0  0  0  0  0  0
  150.0899  142.0785  156.5275 C   0  0  0  0  0  0  0  0  0  0  0  0
  149.8446  141.1915  155.5385 N   0  0  0  0  0  0  0  0  0  0  0  0
  145.7837  138.0776  153.3598 C   0  0  0  0  0  0  0  0  0  0  0  0
  145.7315  136.6951  152.6828 C   0  0  0  0  0  0  0  0  0  0  0  0
  143.4404  132.5669  151.3241 H   0  0  0  0  0  0  0  0  0  0  0  0
  145.1487  132.6794  150.9129 H   0  0  0  0  0  0  0  0  0  0  0  0
  143.9240  133.1464  149.7329 H   0  0  0  0  0  0  0  0  0  0  0  0
  143.2083  135.0228  151.2358 H   0  0  0  0  0  0  0  0  0  0  0  0
  144.4373  134.5786  152.3953 H   0  0  0  0  0  0  0  0  0  0  0  0
  146.1939  134.9504  150.6075 H   0  0  0  0  0  0  0  0  0  0  0  0
  144.9678  135.6026  149.5476 H   0  0  0  0  0  0  0  0  0  0  0  0
  147.3891  137.2010  150.5617 H   0  0  0  0  0  0  0  0  0  0  0  0
  146.1388  137.7723  149.4810 H   0  0  0  0  0  0  0  0  0  0  0  0
  147.1873  139.6940  150.6249 H   0  0  0  0  0  0  0  0  0  0  0  0
  145.5003  139.5634  151.0116 H   0  0  0  0  0  0  0  0  0  0  0  0
  146.6248  140.0271  153.0903 H   0  0  0  0  0  0  0  0  0  0  0  0
  148.2857  137.6762  152.6682 H   0  0  0  0  0  0  0  0  0  0  0  0
  148.0052  139.4859  154.8884 H   0  0  0  0  0  0  0  0  0  0  0  0
  148.3295  137.7601  154.8652 H   0  0  0  0  0  0  0  0  0  0  0  0
  150.6198  138.0644  154.6862 H   0  0  0  0  0  0  0  0  0  0  0  0
  150.4603  139.4104  153.5844 H   0  0  0  0  0  0  0  0  0  0  0  0
  151.5747  138.5509  156.8045 H   0  0  0  0  0  0  0  0  0  0  0  0
  152.0177  140.2109  158.6281 H   0  0  0  0  0  0  0  0  0  0  0  0
  151.0383  142.5154  158.4295 H   0  0  0  0  0  0  0  0  0  0  0  0
  149.6541  143.0597  156.4103 H   0  0  0  0  0  0  0  0  0  0  0  0
  146.0353  137.9692  154.4156 H   0  0  0  0  0  0  0  0  0  0  0  0
  144.7867  138.5198  153.3329 H   0  0  0  0  0  0  0  0  0  0  0  0
  144.9711  136.0886  153.1768 H   0  0  0  0  0  0  0  0  0  0  0  0
  146.6811  136.1731  152.8101 H   0  0  0  0  0  0  0  0  0  0  0  0
  144.5220  137.2732  151.1754 H   0  0  0  0  0  0  0  0  0  0  0  0
  148.8015  139.2099  152.4102 H   0  0  0  0  0  0  0  0  0  0  0  0
  1  2  1  0  0  0  0
  1 19  1  0  0  0  0
  1 20  1  0  0  0  0
  1 21  1  0  0  0  0
  2  3  1  0  0  0  0
  2 22  1  0  0  0  0
  2 23  1  0  0  0  0
  3  4  1  0  0  0  0
  3 24  1  0  0  0  0
  3 25  1  0  0  0  0
  4 18  1  0  0  0  0
  4  5  1  0  0  0  0
  4 44  1  0  0  0  0
  5  6  1  0  0  0  0
  5 26  1  0  0  0  0
  5 27  1  0  0  0  0
  6  7  1  0  0  0  0
  6 28  1  0  0  0  0
  6 29  1  0  0  0  0
  7  8  1  0  0  0  0
  7 17  1  0  0  0  0
  7 30  1  0  0  0  0
  8  9  1  0  0  0  0
  8 31  1  0  0  0  0
  8 45  1  0  0  0  0
  9 10  1  0  0  0  0
  9 32  1  0  0  0  0
  9 33  1  0  0  0  0
 10 11  1  0  0  0  0
 10 34  1  0  0  0  0
 10 35  1  0  0  0  0
 11 16  1  0  0  0  0
 11 12  2  0  0  0  0
 12 13  1  0  0  0  0
 12 36  1  0  0  0  0
 13 14  2  0  0  0  0
 13 37  1  0  0  0  0
 14 15  1  0  0  0  0
 14 38  1  0  0  0  0
 15 16  2  0  0  0  0
 15 39  1  0  0  0  0
 17 18  1  0  0  0  0
 17 40  1  0  0  0  0
 17 41  1  0  0  0  0
 18 42  1  0  0  0  0
 18 43  1  0  0  0  0
M  CHG  1   4   1
M  CHG  1   8   1
M  END
> <s_m_source_file>
AV-unprocessed.smi

> <i_m_source_file_index>
3318

> <i_lp_mmshare_version>
43012

> <i_f3d_flags>
0

> <s_epik_input>
W0NIM11bQ0gyXVtDSDJdTjFbQ0gyXVtDSDJdW0NIXShbQ0gyXVtDSDJdMSlbTkhdW0NIMl1bQ0gyXWMyW2NIXVtjSF1bY0hdW2NIXW4y

> <s_epik_cmdline>
J2VwaWtfcHl0aG9uJywgJy1waCcsICc3LjAnLCAnLXRuJywgJzgnLCAnLW1hJywgJzIwMCcsICctbWV0YWxfYmluZGluZycsICctaW1hZScsICc8aW5maWxlLm1hZT4nLCAnLW9tYWUnLCAnPG91dGZpbGUubWFlPic=

> <r_epik_Ionization_Penalty>
0.0638186

> <r_epik_Ionization_Penalty_Charging>
0.0628538

> <r_epik_Ionization_Penalty_Neutral>
0.000964829

> <r_epik_State_Penalty>
0.0518488

> <r_epik_Charging_Adjusted_Penalty>
0.114703

> <i_epik_Tot_Q>
2

> <i_epik_Tot_abs_Q>
2

> <r_epik_Metal_State_Penalty>
0.0535981

> <b_epik_Metal_Only>
0

> <s_lp_Force_Field>
OPLS_2005

> <r_lp_Energy>
29.7366

> <b_lp_Chiralities_Consistent>
1

> <s_lp_Variant>
AV-unprocessed.smi:3318-2

> <Gold.Version>
5.8.1

> <Gold.Id.Protein>
6NUR|6NUR_protein|mol2

> <Gold.PLP.Fitness>
47.3430

> <Gold.PLP.PLP>
-35.1020

> <Gold.PLP.part.hbond>
-4.0000

> <Gold.PLP.part.metal>
0.0000

> <Gold.PLP.part.buried>
3.8786

> <Gold.PLP.part.nonpolar>
-35.0327

> <Gold.PLP.part.repulsive>
0.2135

> <Gold.PLP.ligand.clash>
0.0000

> <Gold.PLP.ligand.torsion>
0.4999

> <Gold.PLP.Chemscore.Hbond>
3.3858

> <Gold.PLP.Chemscore.CHOScore>
1.0000

> <Gold.PLP.Chemscore.Metal>
0.0000

> <Gold.Chemscore.Hbonds>
donor molecule, donor type, donor heavy atom, donor atom, acceptor molecule, acceptor atom, score
      L1  H     4    44       P1 10171  0.59
      L1  H     8    31       P1  7948  2.00
      L1  H     8    45       P1  7957  1.00
      L1  C    15    39       P1  8028  0.87

> <Gold.PLP.Chemscore.Internal.Correction>
0.0832

> <Gold.Rescore>
     Score         DG    S(hbond)    S(metal)    S(lipo)     H(rot)  DE(clash)    DE(int)     intcor
     18.15     -21.80       2.48        0.00     102.61       1.55       3.13       0.52       ----

> <Gold.Chemscore.Fitness>
18.1536

> <Gold.Chemscore.DG>
-21.7978

> <Gold.Chemscore.ZeroCoef>
-5.4800

> <Gold.Chemscore.Hbond>
2.4817

> <Gold.Chemscore.Metal>
0.0000

> <Gold.Chemscore.Lipo>
102.6088

> <Gold.Chemscore.Internal_Hbond>
0.0000

> <Gold.Chemscore.DEClash>
3.1263

> <Gold.Chemscore.DEInternal>
0.5179

> <Gold.Chemscore.Rot>
1.5532

> <Gold.Chemscore.Internal.Correction>
   9.000000E+99

> <Gold.Chemscore.Hbonds>
donor molecule, donor type, donor heavy atom, donor atom, acceptor molecule, acceptor atom, score
      L1  H     4    44       P1 10171  0.56
      L1  H     8    31       P1  7948  0.99
      L1  H     8    45       P1  7957  1.00

> <Gold.Chemscore.Hbond.Weighted>
-8.2888

> <Gold.Chemscore.Metal.Weighted>
-0.0000

> <Gold.Chemscore.Lipo.Weighted>
-12.0052

> <Gold.Chemscore.Internal_Hbond.Weighted>
0.0000

> <Gold.Chemscore.DEClash.Weighted>
3.1263

> <Gold.Chemscore.DEInternal.Weighted>
0.5179

> <Gold.Chemscore.Rot.Weighted>
3.9762

> <Gold.Chemscore.Internal.Correction.Weighted>
   9.000000E+99

> <Gold.Protein.RotatedTorsions>
[ 6907 6896 6895 6894 ] final -172.89 input  -60.11 | X-H torsion
[ 7974 7965 7964 7962 ] final -157.81 input  175.53 | X-H torsion
[ 8008 7997 7996 7995 ] final -131.39 input   59.86 | X-H torsion
[ 10167 10162 10161 10158 ] final   -6.86 input  -65.29 | X-H torsion
[ 10718 10713 10712 10709 ] final   92.70 input   66.30 | X-H torsion
[ 10763 10752 10751 10750 ] final -166.37 input  -60.55 | X-H torsion
[ 11005 11000 10999 10996 ] final -120.92 input  -57.11 | X-H torsion

> <Gold.Protein.ActiveResidues>
 VAL166  LYS551  ARG553  GLY616  TRP617  ASP618  TYR619  PRO620  LYS621  CYS622 
 ASP623  PHE694  ASN695  SER759  ASP760  ASP761  ALA762  ILE779  LEU786  VAL792 
 PHE793  MET794  SER795  GLU796  ALA797  LYS798  CYS799  TRP800  GLU811  SER814 

> <Gold.Protein.RotatedAtoms>
  151.5474  133.3423  159.2946 H   0  0  0  0  0  0  0  0  0  0  0  0  # atno 6907 bound_to 6896
  150.8499  134.7823  159.7011 H   0  0  0  0  0  0  0  0  0  0  0  0  # atno 6908 bound_to 6896
  152.4548  134.5324  159.9866 H   0  0  0  0  0  0  0  0  0  0  0  0  # atno 6909 bound_to 6896
  144.7532  140.3916  143.6032 H   0  0  0  0  0  0  0  0  0  0  0  0  # atno 7974 bound_to 7965
  155.3116  140.0457  157.3035 H   0  0  0  0  0  0  0  0  0  0  0  0  # atno 8008 bound_to 7997
  154.5430  140.2293  155.8577 H   0  0  0  0  0  0  0  0  0  0  0  0  # atno 8009 bound_to 7997
  156.1898  140.3053  155.9316 H   0  0  0  0  0  0  0  0  0  0  0  0  # atno 8010 bound_to 7997
  140.7010  143.6146  150.8671 H   0  0  0  0  0  0  0  0  0  0  0  0  # atno 10167 bound_to 10162
  157.6958  131.0452  150.3921 H   0  0  0  0  0  0  0  0  0  0  0  0  # atno 10718 bound_to 10713
  154.6840  135.2959  154.9573 H   0  0  0  0  0  0  0  0  0  0  0  0  # atno 10763 bound_to 10752
  154.0558  135.6638  153.4810 H   0  0  0  0  0  0  0  0  0  0  0  0  # atno 10764 bound_to 10752
  153.0566  135.5140  154.7898 H   0  0  0  0  0  0  0  0  0  0  0  0  # atno 10765 bound_to 10752
  141.0108  134.0267  157.3416 H   0  0  0  0  0  0  0  0  0  0  0  0  # atno 11005 bound_to 11000
  145.6870  139.1631  143.2668 LP  0  0  0  0  0  0  0  0  0  0  0  0  # atno 17320 bound_to 7965
  146.1509  140.6926  142.9322 LP  0  0  0  0  0  0  0  0  0  0  0  0  # atno 17321 bound_to 7965
  139.9868  143.5891  152.2924 LP  0  0  0  0  0  0  0  0  0  0  0  0  # atno 17342 bound_to 10162
  139.6531  144.7661  151.2108 LP  0  0  0  0  0  0  0  0  0  0  0  0  # atno 17343 bound_to 10162
  156.4323  130.3974  149.6752 LP  0  0  0  0  0  0  0  0  0  0  0  0  # atno 17370 bound_to 10713
  156.3965  130.7653  151.2658 LP  0  0  0  0  0  0  0  0  0  0  0  0  # atno 17371 bound_to 10713
  139.9089  135.0186  156.7606 LP  0  0  0  0  0  0  0  0  0  0  0  0  # atno 17394 bound_to 11000
  140.6736  133.9537  155.7870 LP  0  0  0  0  0  0  0  0  0  0  0  0  # atno 17395 bound_to 11000

$$$$
