AV-unprocessed.smi:794|AV-procd|sdf|3759|dock8
  -GOLD-   22720 1193D 1   1.00000     0.00000
 Structure written by MMmdl.
 41 43  0  0  0  0  0  0  0  0  1 V2000
  149.7457  129.4160  154.3543 C   0  0  0  0  0  0  0  0  0  0  0  0
  149.0038  130.6282  153.8806 C   0  0  0  0  0  0  0  0  0  0  0  0
  149.5244  131.9004  154.1355 N   0  0  0  0  0  0  0  0  0  0  0  0
  148.7465  132.8726  153.6487 C   0  0  0  0  0  0  0  0  0  0  0  0
  149.0284  134.2588  153.7643 N   0  0  0  0  0  0  0  0  0  0  0  0
  149.5344  134.9192  154.8204 C   0  0  0  0  0  0  0  0  0  0  0  0
  149.8592  134.4071  155.8920 O   0  0  0  0  0  0  0  0  0  0  0  0
  149.6355  136.2318  154.5661 N   0  0  0  0  0  0  0  0  0  0  0  0
  150.1447  137.2393  155.4976 C   0  0  1  0  0  0  0  0  0  0  0  0
  151.6748  137.3812  155.3454 C   0  0  2  0  0  0  0  0  0  0  0  0
  152.2345  138.1315  156.5676 C   0  0  0  0  0  0  0  0  0  0  0  0
  151.7381  139.5708  156.3319 C   0  0  0  0  0  0  0  0  0  0  0  0
  150.9634  139.4540  155.0039 C   0  0  1  0  0  0  0  0  0  0  0  0
  151.8066  138.4331  154.2506 C   0  0  0  0  0  0  0  0  0  0  0  0
  149.6368  138.6924  155.2470 C   0  0  1  0  0  0  0  0  0  0  0  0
  148.6110  138.8695  154.1040 C   0  0  0  0  0  0  0  0  0  0  0  0
  148.5802  140.2132  153.6708 O   0  0  0  0  0  0  0  0  0  0  0  0
  147.3078  132.2824  152.8351 S   0  0  0  0  0  0  0  0  0  0  0  0
  147.8129  130.6494  153.1918 C   0  0  0  0  0  0  0  0  0  0  0  0
  146.9894  129.4818  152.7604 C   0  0  0  0  0  0  0  0  0  0  0  0
  150.0059  128.7645  153.5200 H   0  0  0  0  0  0  0  0  0  0  0  0
  149.1422  128.8350  155.0519 H   0  0  0  0  0  0  0  0  0  0  0  0
  150.6720  129.6824  154.8642 H   0  0  0  0  0  0  0  0  0  0  0  0
  148.8084  134.8144  152.9511 H   0  0  0  0  0  0  0  0  0  0  0  0
  149.3426  136.5634  153.6588 H   0  0  0  0  0  0  0  0  0  0  0  0
  149.9088  136.9266  156.5169 H   0  0  0  0  0  0  0  0  0  0  0  0
  152.1911  136.4411  155.1468 H   0  0  0  0  0  0  0  0  0  0  0  0
  151.8809  137.7160  157.5119 H   0  0  0  0  0  0  0  0  0  0  0  0
  153.3247  138.0998  156.5768 H   0  0  0  0  0  0  0  0  0  0  0  0
  151.1134  139.9363  157.1477 H   0  0  0  0  0  0  0  0  0  0  0  0
  152.5824  140.2535  156.2286 H   0  0  0  0  0  0  0  0  0  0  0  0
  150.8432  140.4115  154.4965 H   0  0  0  0  0  0  0  0  0  0  0  0
  152.8352  138.7585  154.0857 H   0  0  0  0  0  0  0  0  0  0  0  0
  151.3746  138.1264  153.2970 H   0  0  0  0  0  0  0  0  0  0  0  0
  149.1676  139.0620  156.1604 H   0  0  0  0  0  0  0  0  0  0  0  0
  148.8399  138.2256  153.2546 H   0  0  0  0  0  0  0  0  0  0  0  0
  147.6089  138.6124  154.4473 H   0  0  0  0  0  0  0  0  0  0  0  0
  149.1433  140.2987  152.9165 H   0  0  0  0  0  0  0  0  0  0  0  0
  146.8015  128.8098  153.5981 H   0  0  0  0  0  0  0  0  0  0  0  0
  147.5009  128.9160  151.9816 H   0  0  0  0  0  0  0  0  0  0  0  0
  146.0248  129.8020  152.3658 H   0  0  0  0  0  0  0  0  0  0  0  0
  1  2  1  0  0  0  0
  1 21  1  0  0  0  0
  1 22  1  0  0  0  0
  1 23  1  0  0  0  0
  2 19  2  0  0  0  0
  2  3  1  0  0  0  0
  3  4  2  0  0  0  0
  4  5  1  0  0  0  0
  4 18  1  0  0  0  0
  5  6  1  0  0  0  0
  5 24  1  0  0  0  0
  6  7  2  0  0  0  0
  6  8  1  0  0  0  0
  8  9  1  0  0  0  0
  8 25  1  0  0  0  0
  9 15  1  0  0  0  0
  9 10  1  0  0  0  0
  9 26  1  0  0  0  0
 10 14  1  0  0  0  0
 10 11  1  0  0  0  0
 10 27  1  0  0  0  0
 11 12  1  0  0  0  0
 11 28  1  0  0  0  0
 11 29  1  0  0  0  0
 12 13  1  0  0  0  0
 12 30  1  0  0  0  0
 12 31  1  0  0  0  0
 13 14  1  0  0  0  0
 13 15  1  0  0  0  0
 13 32  1  0  0  0  0
 14 33  1  0  0  0  0
 14 34  1  0  0  0  0
 15 16  1  0  0  0  0
 15 35  1  0  0  0  0
 16 17  1  0  0  0  0
 16 36  1  0  0  0  0
 16 37  1  0  0  0  0
 17 38  1  0  0  0  0
 18 19  1  0  0  0  0
 19 20  1  0  0  0  0
 20 39  1  0  0  0  0
 20 40  1  0  0  0  0
 20 41  1  0  0  0  0
M  END
> <s_m_source_file>
AV-unprocessed.smi

> <i_m_source_file_index>
794

> <i_lp_mmshare_version>
43012

> <i_f3d_flags>
0

> <s_epik_input>
W0NIM11jMW5jKHNjMVtDSDNdKVtOSF1DKD1PKVtOSF1bQ0BIXShbQ0BASF0yMylbQ0BIXShbQ0gyXVtPSF0pW0NAQEhdKFtDSDJdMylbQ0gyXVtDSDJdMg==

> <s_epik_cmdline>
J2VwaWtfcHl0aG9uJywgJy1waCcsICc3LjAnLCAnLXRuJywgJzgnLCAnLW1hJywgJzIwMCcsICctbWV0YWxfYmluZGluZycsICctaW1hZScsICc8aW5maWxlLm1hZT4nLCAnLW9tYWUnLCAnPG91dGZpbGUubWFlPic=

> <r_lp_tautomer_probability>
0.999

> <r_epik_Ionization_Penalty>
0.000713029

> <r_epik_Ionization_Penalty_Charging>
0

> <r_epik_Ionization_Penalty_Neutral>
0.000713029

> <r_epik_State_Penalty>
0.000177984

> <r_epik_Charging_Adjusted_Penalty>
0.000177984

> <i_epik_Tot_Q>
0

> <i_epik_Tot_abs_Q>
0

> <r_epik_Metal_State_Penalty>
-0

> <b_epik_Metal_Only>
0

> <s_lp_Force_Field>
OPLS_2005

> <r_lp_Energy>
48.0104

> <b_lp_Chiralities_Consistent>
1

> <s_lp_Variant>
AV-unprocessed.smi:794-4

> <Gold.Version>
5.8.1

> <Gold.Id.Protein>
6NUR|6NUR_protein|mol2

> <Gold.PLP.Fitness>
39.3561

> <Gold.PLP.PLP>
-32.0429

> <Gold.PLP.part.hbond>
-3.0000

> <Gold.PLP.part.metal>
0.0000

> <Gold.PLP.part.buried>
-3.2027

> <Gold.PLP.part.nonpolar>
-25.8491

> <Gold.PLP.part.repulsive>
0.1123

> <Gold.PLP.ligand.clash>
0.0000

> <Gold.PLP.ligand.torsion>
0.8379

> <Gold.PLP.Chemscore.Hbond>
2.9920

> <Gold.PLP.Chemscore.CHOScore>
0.0000

> <Gold.PLP.Chemscore.Metal>
0.0000

> <Gold.Chemscore.Hbonds>
donor molecule, donor type, donor heavy atom, donor atom, acceptor molecule, acceptor atom, score
      L1  H     5    24       P1  7948  0.85
      L1  H     8    25       P1  7948  0.99
      L1  H    17    38       P1  7957  1.00

> <Gold.PLP.Chemscore.Internal.Correction>
0.0131

> <Gold.Rescore>
     Score         DG    S(hbond)    S(metal)    S(lipo)     H(rot)  DE(clash)    DE(int)     intcor
     14.71     -17.00       2.38        0.00      69.36       1.78       1.38       0.91       ----

> <Gold.Chemscore.Fitness>
14.7122

> <Gold.Chemscore.DG>
-16.9982

> <Gold.Chemscore.ZeroCoef>
-5.4800

> <Gold.Chemscore.Hbond>
2.3832

> <Gold.Chemscore.Metal>
0.0000

> <Gold.Chemscore.Lipo>
69.3559

> <Gold.Chemscore.Internal_Hbond>
0.0000

> <Gold.Chemscore.DEClash>
1.3794

> <Gold.Chemscore.DEInternal>
0.9066

> <Gold.Chemscore.Rot>
1.7798

> <Gold.Chemscore.Internal.Correction>
   9.000000E+99

> <Gold.Chemscore.Hbonds>
donor molecule, donor type, donor heavy atom, donor atom, acceptor molecule, acceptor atom, score
      L1  H     5    24       P1  7948  0.14
      L1  H     8    25       P1  7948  0.86
      L1  H    17    38       P1  7957  0.98

> <Gold.Chemscore.Hbond.Weighted>
-7.9598

> <Gold.Chemscore.Metal.Weighted>
-0.0000

> <Gold.Chemscore.Lipo.Weighted>
-8.1146

> <Gold.Chemscore.Internal_Hbond.Weighted>
0.0000

> <Gold.Chemscore.DEClash.Weighted>
1.3794

> <Gold.Chemscore.DEInternal.Weighted>
0.9066

> <Gold.Chemscore.Rot.Weighted>
4.5562

> <Gold.Chemscore.Internal.Correction.Weighted>
   9.000000E+99

> <Gold.Protein.RotatedTorsions>
[ 6907 6896 6895 6894 ] final -169.62 input  -60.11 | X-H torsion
[ 7974 7965 7964 7962 ] final   -2.46 input  175.53 | X-H torsion
[ 8008 7997 7996 7995 ] final -134.00 input   59.86 | X-H torsion
[ 10167 10162 10161 10158 ] final -134.81 input  -65.29 | X-H torsion
[ 10718 10713 10712 10709 ] final   82.46 input   66.30 | X-H torsion
[ 10763 10752 10751 10750 ] final -156.71 input  -60.55 | X-H torsion
[ 11005 11000 10999 10996 ] final -148.38 input  -57.11 | X-H torsion

> <Gold.Protein.ActiveResidues>
 VAL166  LYS551  ARG553  GLY616  TRP617  ASP618  TYR619  PRO620  LYS621  CYS622 
 ASP623  PHE694  ASN695  SER759  ASP760  ASP761  ALA762  ILE779  LEU786  VAL792 
 PHE793  MET794  SER795  GLU796  ALA797  LYS798  CYS799  TRP800  GLU811  SER814 

> <Gold.Protein.RotatedAtoms>
  151.4945  133.3517  159.2858 H   0  0  0  0  0  0  0  0  0  0  0  0  # atno 6907 bound_to 6896
  150.8813  134.8206  159.7238 H   0  0  0  0  0  0  0  0  0  0  0  0  # atno 6908 bound_to 6896
  152.4764  134.4843  159.9727 H   0  0  0  0  0  0  0  0  0  0  0  0  # atno 6909 bound_to 6896
  146.2404  140.1575  142.8333 H   0  0  0  0  0  0  0  0  0  0  0  0  # atno 7974 bound_to 7965
  155.3548  140.0479  157.3046 H   0  0  0  0  0  0  0  0  0  0  0  0  # atno 8008 bound_to 7997
  154.5208  140.2224  155.8943 H   0  0  0  0  0  0  0  0  0  0  0  0  # atno 8009 bound_to 7997
  156.1687  140.3100  155.8941 H   0  0  0  0  0  0  0  0  0  0  0  0  # atno 8010 bound_to 7997
  139.8842  143.6801  152.2622 H   0  0  0  0  0  0  0  0  0  0  0  0  # atno 10167 bound_to 10162
  157.6858  131.0049  150.2379 H   0  0  0  0  0  0  0  0  0  0  0  0  # atno 10718 bound_to 10713
  154.7692  135.3140  154.8224 H   0  0  0  0  0  0  0  0  0  0  0  0  # atno 10763 bound_to 10752
  153.8964  135.6820  153.4762 H   0  0  0  0  0  0  0  0  0  0  0  0  # atno 10764 bound_to 10752
  153.1303  135.4783  154.9272 H   0  0  0  0  0  0  0  0  0  0  0  0  # atno 10765 bound_to 10752
  140.7618  134.3289  157.5099 H   0  0  0  0  0  0  0  0  0  0  0  0  # atno 11005 bound_to 11000
  145.0117  140.8719  143.5220 LP  0  0  0  0  0  0  0  0  0  0  0  0  # atno 17320 bound_to 7965
  145.1609  139.2459  143.5392 LP  0  0  0  0  0  0  0  0  0  0  0  0  # atno 17321 bound_to 7965
  139.7168  144.7610  151.1021 LP  0  0  0  0  0  0  0  0  0  0  0  0  # atno 17342 bound_to 10162
  140.7739  143.5259  150.9481 LP  0  0  0  0  0  0  0  0  0  0  0  0  # atno 17343 bound_to 10162
  156.2999  130.3757  149.7760 LP  0  0  0  0  0  0  0  0  0  0  0  0  # atno 17370 bound_to 10713
  156.5394  130.8293  151.3264 LP  0  0  0  0  0  0  0  0  0  0  0  0  # atno 17371 bound_to 10713
  139.8769  134.9207  156.3257 LP  0  0  0  0  0  0  0  0  0  0  0  0  # atno 17394 bound_to 11000
  140.9656  133.7360  156.0462 LP  0  0  0  0  0  0  0  0  0  0  0  0  # atno 17395 bound_to 11000

$$$$
