AV-unprocessed.smi:1235|AV-procd|sdf|5177|dock4
  -GOLD-   22720 4253D 1   1.00000     0.00000
 Structure written by MMmdl.
 50 51  0  0  0  0  0  0  0  0  2 V2000
  152.3250  141.4520  158.4776 C   0  0  0  0  0  0  0  0  0  0  0  0
  151.3006  140.6089  157.9802 O   0  0  0  0  0  0  0  0  0  0  0  0
  150.3382  141.3152  157.2163 C   0  0  0  0  0  0  0  0  0  0  0  0
  150.7214  141.2263  155.7313 C   0  0  0  0  0  0  0  0  0  0  0  0
  150.6938  139.8412  155.2509 N   0  0  0  0  0  0  0  0  0  0  0  0
  149.4407  139.2532  155.2975 N   0  0  0  0  0  0  0  0  0  0  0  0
  149.2837  138.0268  154.9161 C   0  0  0  0  0  0  0  0  0  0  0  0
  147.9539  137.3566  154.9551 C   0  0  0  0  0  0  0  0  0  0  0  0
  147.0660  137.7153  155.7304 O   0  0  0  0  0  0  0  0  0  0  0  0
  147.7936  136.3401  154.0884 N   0  0  0  0  0  0  0  0  0  0  0  0
  146.5760  135.5537  153.9309 C   0  0  0  0  0  0  0  0  0  0  0  0
  146.8719  134.1506  153.3635 C   0  0  0  0  0  0  0  0  0  0  0  0
  145.6698  133.4760  152.8027 N   0  3  2  0  0  0  0  0  0  0  0  0
  146.0333  132.3724  151.8725 C   0  0  0  0  0  0  0  0  0  0  0  0
  144.8014  131.5444  151.4737 C   0  0  0  0  0  0  0  0  0  0  0  0
  143.7118  132.4341  150.8659 C   0  0  0  0  0  0  0  0  0  0  0  0
  143.3688  133.5729  151.8355 C   0  0  0  0  0  0  0  0  0  0  0  0
  144.6155  134.3839  152.2493 C   0  0  2  0  0  0  0  0  0  0  0  0
  145.1198  135.2975  151.1114 C   0  0  0  0  0  0  0  0  0  0  0  0
  150.4103  137.2480  154.4309 C   0  0  0  0  0  0  0  0  0  0  0  0
  151.6266  137.8349  154.3924 C   0  0  0  0  0  0  0  0  0  0  0  0
  151.8334  139.2184  154.8236 C   0  0  0  0  0  0  0  0  0  0  0  0
  152.9327  139.7712  154.8084 O   0  0  0  0  0  0  0  0  0  0  0  0
  153.0396  140.8608  159.0501 H   0  0  0  0  0  0  0  0  0  0  0  0
  151.9182  142.2193  159.1375 H   0  0  0  0  0  0  0  0  0  0  0  0
  152.8655  141.9393  157.6650 H   0  0  0  0  0  0  0  0  0  0  0  0
  149.3472  140.8889  157.3794 H   0  0  0  0  0  0  0  0  0  0  0  0
  150.3051  142.3587  157.5342 H   0  0  0  0  0  0  0  0  0  0  0  0
  150.0334  141.8362  155.1429 H   0  0  0  0  0  0  0  0  0  0  0  0
  151.7070  141.6670  155.5719 H   0  0  0  0  0  0  0  0  0  0  0  0
  148.5704  136.1087  153.4852 H   0  0  0  0  0  0  0  0  0  0  0  0
  146.0540  135.4817  154.8865 H   0  0  0  0  0  0  0  0  0  0  0  0
  145.9279  136.1150  153.2588 H   0  0  0  0  0  0  0  0  0  0  0  0
  147.6680  134.1938  152.6201 H   0  0  0  0  0  0  0  0  0  0  0  0
  147.2571  133.5289  154.1728 H   0  0  0  0  0  0  0  0  0  0  0  0
  146.5251  132.7752  150.9865 H   0  0  0  0  0  0  0  0  0  0  0  0
  146.7559  131.7117  152.3529 H   0  0  0  0  0  0  0  0  0  0  0  0
  145.0879  130.7682  150.7635 H   0  0  0  0  0  0  0  0  0  0  0  0
  144.4070  131.0301  152.3511 H   0  0  0  0  0  0  0  0  0  0  0  0
  144.0504  132.8394  149.9121 H   0  0  0  0  0  0  0  0  0  0  0  0
  142.8208  131.8427  150.6519 H   0  0  0  0  0  0  0  0  0  0  0  0
  142.6193  134.2288  151.3908 H   0  0  0  0  0  0  0  0  0  0  0  0
  142.9054  133.1495  152.7280 H   0  0  0  0  0  0  0  0  0  0  0  0
  144.2827  135.0376  153.0545 H   0  0  0  0  0  0  0  0  0  0  0  0
  144.3078  135.9151  150.7265 H   0  0  0  0  0  0  0  0  0  0  0  0
  145.5218  134.7325  150.2709 H   0  0  0  0  0  0  0  0  0  0  0  0
  145.8952  135.9818  151.4546 H   0  0  0  0  0  0  0  0  0  0  0  0
  150.2872  136.2247  154.1069 H   0  0  0  0  0  0  0  0  0  0  0  0
  152.4729  137.2675  154.0337 H   0  0  0  0  0  0  0  0  0  0  0  0
  145.2360  133.0161  153.5906 H   0  0  0  0  0  0  0  0  0  0  0  0
  1  2  1  0  0  0  0
  1 24  1  0  0  0  0
  1 25  1  0  0  0  0
  1 26  1  0  0  0  0
  2  3  1  0  0  0  0
  3  4  1  0  0  0  0
  3 27  1  0  0  0  0
  3 28  1  0  0  0  0
  4  5  1  0  0  0  0
  4 29  1  0  0  0  0
  4 30  1  0  0  0  0
  5 22  1  0  0  0  0
  5  6  1  0  0  0  0
  6  7  2  0  0  0  0
  7  8  1  0  0  0  0
  7 20  1  0  0  0  0
  8  9  2  0  0  0  0
  8 10  1  0  0  0  0
 10 11  1  0  0  0  0
 10 31  1  0  0  0  0
 11 12  1  0  0  0  0
 11 32  1  0  0  0  0
 11 33  1  0  0  0  0
 12 13  1  0  0  0  0
 12 34  1  0  0  0  0
 12 35  1  0  0  0  0
 13 18  1  0  0  0  0
 13 14  1  0  0  0  0
 13 50  1  0  0  0  0
 14 15  1  0  0  0  0
 14 36  1  0  0  0  0
 14 37  1  0  0  0  0
 15 16  1  0  0  0  0
 15 38  1  0  0  0  0
 15 39  1  0  0  0  0
 16 17  1  0  0  0  0
 16 40  1  0  0  0  0
 16 41  1  0  0  0  0
 17 18  1  0  0  0  0
 17 42  1  0  0  0  0
 17 43  1  0  0  0  0
 18 19  1  0  0  0  0
 18 44  1  0  0  0  0
 19 45  1  0  0  0  0
 19 46  1  0  0  0  0
 19 47  1  0  0  0  0
 20 21  2  0  0  0  0
 20 48  1  0  0  0  0
 21 22  1  0  0  0  0
 21 49  1  0  0  0  0
 22 23  2  0  0  0  0
M  CHG  1  13   1
M  END
> <s_m_source_file>
AV-unprocessed.smi

> <i_m_source_file_index>
1235

> <i_lp_mmshare_version>
43012

> <i_f3d_flags>
0

> <s_epik_input>
W0NIM11PW0NIMl1bQ0gyXW4xbmMoW2NIXVtjSF1jMT1PKUMoPU8pW05IXVtDSDJdW0NIMl1OMltDSDJdW0NIMl1bQ0gyXVtDSDJdW0NASF0yW0NIM10=

> <s_epik_cmdline>
J2VwaWtfcHl0aG9uJywgJy1waCcsICc3LjAnLCAnLXRuJywgJzgnLCAnLW1hJywgJzIwMCcsICctbWV0YWxfYmluZGluZycsICctaW1hZScsICc8aW5maWxlLm1hZT4nLCAnLW9tYWUnLCAnPG91dGZpbGUubWFlPic=

> <r_lp_tautomer_probability>
1

> <r_epik_Ionization_Penalty>
0.00271975

> <r_epik_Ionization_Penalty_Charging>
0.00271407

> <r_epik_Ionization_Penalty_Neutral>
5.6803e-06

> <r_epik_State_Penalty>
0.00189271

> <r_epik_Charging_Adjusted_Penalty>
0.00460678

> <i_epik_Tot_Q>
1

> <i_epik_Tot_abs_Q>
1

> <r_epik_Metal_State_Penalty>
-0

> <b_epik_Metal_Only>
0

> <s_lp_Force_Field>
OPLS_2005

> <r_lp_Energy>
40.192

> <b_lp_Chiralities_Consistent>
1

> <s_lp_Variant>
AV-unprocessed.smi:1235-3

> <Gold.Version>
5.8.1

> <Gold.Id.Protein>
6NUR|6NUR_protein|mol2

> <Gold.PLP.Fitness>
41.7168

> <Gold.PLP.PLP>
-38.2551

> <Gold.PLP.part.hbond>
-3.0000

> <Gold.PLP.part.metal>
0.0000

> <Gold.PLP.part.buried>
-3.5600

> <Gold.PLP.part.nonpolar>
-32.3677

> <Gold.PLP.part.repulsive>
0.0838

> <Gold.PLP.ligand.clash>
0.0000

> <Gold.PLP.ligand.torsion>
1.0536

> <Gold.PLP.Chemscore.Hbond>
1.7840

> <Gold.PLP.Chemscore.CHOScore>
0.0000

> <Gold.PLP.Chemscore.Metal>
0.0000

> <Gold.Chemscore.Hbonds>
donor molecule, donor type, donor heavy atom, donor atom, acceptor molecule, acceptor atom, score
      L1  H    10    31       P1  7948  0.77
      P1  H  7997  8008       L1    23  1.00

> <Gold.PLP.Chemscore.Internal.Correction>
0.2168

> <Gold.Rescore>
     Score         DG    S(hbond)    S(metal)    S(lipo)     H(rot)  DE(clash)    DE(int)     intcor
     15.01     -16.18       1.83        0.00      83.05       2.00       0.03       1.14       ----

> <Gold.Chemscore.Fitness>
15.0126

> <Gold.Chemscore.DG>
-16.1834

> <Gold.Chemscore.ZeroCoef>
-5.4800

> <Gold.Chemscore.Hbond>
1.8299

> <Gold.Chemscore.Metal>
0.0000

> <Gold.Chemscore.Lipo>
83.0486

> <Gold.Chemscore.Internal_Hbond>
0.0000

> <Gold.Chemscore.DEClash>
0.0288

> <Gold.Chemscore.DEInternal>
1.1420

> <Gold.Chemscore.Rot>
2.0020

> <Gold.Chemscore.Internal.Correction>
   9.000000E+99

> <Gold.Chemscore.Hbonds>
donor molecule, donor type, donor heavy atom, donor atom, acceptor molecule, acceptor atom, score
      L1  H    10    31       P1  7948  0.78
      P1  H  7997  8008       L1    23  0.99

> <Gold.Chemscore.Hbond.Weighted>
-6.1118

> <Gold.Chemscore.Metal.Weighted>
-0.0000

> <Gold.Chemscore.Lipo.Weighted>
-9.7167

> <Gold.Chemscore.Internal_Hbond.Weighted>
0.0000

> <Gold.Chemscore.DEClash.Weighted>
0.0288

> <Gold.Chemscore.DEInternal.Weighted>
1.1420

> <Gold.Chemscore.Rot.Weighted>
5.1252

> <Gold.Chemscore.Internal.Correction.Weighted>
   9.000000E+99

> <Gold.Protein.RotatedTorsions>
[ 6907 6896 6895 6894 ] final  -10.79 input  -60.11 | X-H torsion
[ 7974 7965 7964 7962 ] final  -59.07 input  175.53 | X-H torsion
[ 8008 7997 7996 7995 ] final   -2.38 input   59.86 | X-H torsion
[ 10167 10162 10161 10158 ] final   35.73 input  -65.29 | X-H torsion
[ 10718 10713 10712 10709 ] final -176.12 input   66.30 | X-H torsion
[ 10763 10752 10751 10750 ] final -171.41 input  -60.55 | X-H torsion
[ 11005 11000 10999 10996 ] final  144.77 input  -57.11 | X-H torsion

> <Gold.Protein.ActiveResidues>
 VAL166  LYS551  ARG553  GLY616  TRP617  ASP618  TYR619  PRO620  LYS621  CYS622 
 ASP623  PHE694  ASN695  SER759  ASP760  ASP761  ALA762  ILE779  LEU786  VAL792 
 PHE793  MET794  SER795  GLU796  ALA797  LYS798  CYS799  TRP800  GLU811  SER814 

> <Gold.Protein.RotatedAtoms>
  151.3963  135.0964  159.9541 H   0  0  0  0  0  0  0  0  0  0  0  0  # atno 6907 bound_to 6896
  152.5064  133.8931  159.7414 H   0  0  0  0  0  0  0  0  0  0  0  0  # atno 6908 bound_to 6896
  150.9395  133.6616  159.2822 H   0  0  0  0  0  0  0  0  0  0  0  0  # atno 6909 bound_to 6896
  145.8319  140.8474  143.0079 H   0  0  0  0  0  0  0  0  0  0  0  0  # atno 7974 bound_to 7965
  154.6363  140.2536  155.7374 H   0  0  0  0  0  0  0  0  0  0  0  0  # atno 8008 bound_to 7997
  156.2506  140.2896  156.0658 H   0  0  0  0  0  0  0  0  0  0  0  0  # atno 8009 bound_to 7997
  155.1665  140.0385  157.2844 H   0  0  0  0  0  0  0  0  0  0  0  0  # atno 8010 bound_to 7997
  140.4194  144.1480  150.6146 H   0  0  0  0  0  0  0  0  0  0  0  0  # atno 10167 bound_to 10162
  156.8099  130.9582  151.3116 H   0  0  0  0  0  0  0  0  0  0  0  0  # atno 10718 bound_to 10713
  154.6308  135.2886  155.0218 H   0  0  0  0  0  0  0  0  0  0  0  0  # atno 10763 bound_to 10752
  154.1379  135.6523  153.4940 H   0  0  0  0  0  0  0  0  0  0  0  0  # atno 10764 bound_to 10752
  153.0279  135.5326  154.7135 H   0  0  0  0  0  0  0  0  0  0  0  0  # atno 10765 bound_to 10752
  140.0658  134.9179  157.1262 H   0  0  0  0  0  0  0  0  0  0  0  0  # atno 11005 bound_to 11000
  144.6739  140.0684  143.7474 LP  0  0  0  0  0  0  0  0  0  0  0  0  # atno 17320 bound_to 7965
  145.9562  139.2768  143.1183 LP  0  0  0  0  0  0  0  0  0  0  0  0  # atno 17321 bound_to 7965
  140.4550  143.2471  151.9297 LP  0  0  0  0  0  0  0  0  0  0  0  0  # atno 17342 bound_to 10162
  139.4782  144.5525  151.8365 LP  0  0  0  0  0  0  0  0  0  0  0  0  # atno 17343 bound_to 10162
  157.6511  130.8885  149.9635 LP  0  0  0  0  0  0  0  0  0  0  0  0  # atno 17370 bound_to 10713
  156.1051  130.3653  150.0149 LP  0  0  0  0  0  0  0  0  0  0  0  0  # atno 17371 bound_to 10713
  140.3701  134.2400  155.7179 LP  0  0  0  0  0  0  0  0  0  0  0  0  # atno 17394 bound_to 11000
  141.1992  133.8017  157.0547 LP  0  0  0  0  0  0  0  0  0  0  0  0  # atno 17395 bound_to 11000

$$$$
