AV-unprocessed.smi:821|AV-procd|sdf|3839|dock6
  -GOLD-   22720 1283D 1   1.00000     0.00000
 Structure written by MMmdl.
 44 45  0  0  0  0  0  0  0  0  1 V2000
  147.3401  141.9961  155.0090 C   0  0  0  0  0  0  0  0  0  0  0  0
  148.5335  141.2173  155.5841 C   0  0  1  0  0  0  0  0  0  0  0  0
  149.1983  140.3243  154.5134 C   0  0  0  0  0  0  0  0  0  0  0  0
  150.1816  139.3612  155.0142 N   0  0  0  0  0  0  0  0  0  0  0  0
  150.3826  138.2805  154.0541 C   0  0  0  0  0  0  0  0  0  0  0  0
  151.4127  137.2506  154.5488 C   0  0  0  0  0  0  0  0  0  0  0  0
  152.6445  137.9081  154.8266 O   0  0  0  0  0  0  0  0  0  0  0  0
  152.5067  138.9383  155.7994 C   0  0  0  0  0  0  0  0  0  0  0  0
  151.4743  139.9727  155.3190 C   0  0  0  0  0  0  0  0  0  0  0  0
  149.5141  142.1654  156.1067 N   0  0  0  0  0  0  0  0  0  0  0  0
  150.2548  141.9918  157.2112 C   0  0  0  0  0  0  0  0  0  0  0  0
  150.1330  141.0256  157.9650 O   0  0  0  0  0  0  0  0  0  0  0  0
  151.2889  143.0864  157.5075 C   0  0  0  0  0  0  0  0  0  0  0  0
  151.9718  142.8868  158.7971 N   0  0  0  0  0  0  0  0  0  0  0  0
  151.7818  143.8736  159.7808 C   0  0  0  0  0  0  0  0  0  0  0  0
  152.3505  143.7822  160.9905 C   0  0  0  0  0  0  0  0  0  0  0  0
  153.1718  142.6305  161.2733 C   0  0  0  0  0  0  0  0  0  0  0  0
  153.3749  141.6656  160.3465 C   0  0  0  0  0  0  0  0  0  0  0  0
  154.2293  140.4331  160.6339 C   0  0  0  0  0  0  0  0  0  0  0  0
  155.3407  140.4534  159.8974 F   0  0  0  0  0  0  0  0  0  0  0  0
  154.5905  140.3691  161.9163 F   0  0  0  0  0  0  0  0  0  0  0  0
  153.5581  139.3174  160.3443 F   0  0  0  0  0  0  0  0  0  0  0  0
  152.7518  141.7814  159.0123 C   0  0  0  0  0  0  0  0  0  0  0  0
  152.9171  140.9347  158.1318 O   0  0  0  0  0  0  0  0  0  0  0  0
  146.5746  141.3176  154.6316 H   0  0  0  0  0  0  0  0  0  0  0  0
  147.6468  142.6434  154.1867 H   0  0  0  0  0  0  0  0  0  0  0  0
  146.8733  142.6216  155.7706 H   0  0  0  0  0  0  0  0  0  0  0  0
  148.1580  140.5791  156.3867 H   0  0  0  0  0  0  0  0  0  0  0  0
  148.4060  139.7566  154.0235 H   0  0  0  0  0  0  0  0  0  0  0  0
  149.6377  140.9402  153.7271 H   0  0  0  0  0  0  0  0  0  0  0  0
  149.4353  137.7760  153.8595 H   0  0  0  0  0  0  0  0  0  0  0  0
  150.7180  138.6915  153.1004 H   0  0  0  0  0  0  0  0  0  0  0  0
  151.0529  136.7412  155.4442 H   0  0  0  0  0  0  0  0  0  0  0  0
  151.5804  136.4868  153.7895 H   0  0  0  0  0  0  0  0  0  0  0  0
  152.2046  138.5071  156.7552 H   0  0  0  0  0  0  0  0  0  0  0  0
  153.4746  139.4151  155.9551 H   0  0  0  0  0  0  0  0  0  0  0  0
  151.8594  140.4869  154.4371 H   0  0  0  0  0  0  0  0  0  0  0  0
  151.3599  140.7251  156.0980 H   0  0  0  0  0  0  0  0  0  0  0  0
  149.6784  142.9952  155.5553 H   0  0  0  0  0  0  0  0  0  0  0  0
  152.0265  143.1293  156.7034 H   0  0  0  0  0  0  0  0  0  0  0  0
  150.7785  144.0498  157.4789 H   0  0  0  0  0  0  0  0  0  0  0  0
  151.1469  144.6990  159.4931 H   0  0  0  0  0  0  0  0  0  0  0  0
  152.1933  144.5479  161.7359 H   0  0  0  0  0  0  0  0  0  0  0  0
  153.6218  142.5501  162.2515 H   0  0  0  0  0  0  0  0  0  0  0  0
  1  2  1  0  0  0  0
  1 25  1  0  0  0  0
  1 26  1  0  0  0  0
  1 27  1  0  0  0  0
  2  3  1  0  0  0  0
  2 10  1  0  0  0  0
  2 28  1  0  0  0  0
  3  4  1  0  0  0  0
  3 29  1  0  0  0  0
  3 30  1  0  0  0  0
  4  9  1  0  0  0  0
  4  5  1  0  0  0  0
  5  6  1  0  0  0  0
  5 31  1  0  0  0  0
  5 32  1  0  0  0  0
  6  7  1  0  0  0  0
  6 33  1  0  0  0  0
  6 34  1  0  0  0  0
  7  8  1  0  0  0  0
  8  9  1  0  0  0  0
  8 35  1  0  0  0  0
  8 36  1  0  0  0  0
  9 37  1  0  0  0  0
  9 38  1  0  0  0  0
 10 11  1  0  0  0  0
 10 39  1  0  0  0  0
 11 12  2  0  0  0  0
 11 13  1  0  0  0  0
 13 14  1  0  0  0  0
 13 40  1  0  0  0  0
 13 41  1  0  0  0  0
 14 23  1  0  0  0  0
 14 15  1  0  0  0  0
 15 16  2  0  0  0  0
 15 42  1  0  0  0  0
 16 17  1  0  0  0  0
 16 43  1  0  0  0  0
 17 18  2  0  0  0  0
 17 44  1  0  0  0  0
 18 19  1  0  0  0  0
 18 23  1  0  0  0  0
 19 20  1  0  0  0  0
 19 21  1  0  0  0  0
 19 22  1  0  0  0  0
 23 24  2  0  0  0  0
M  END
> <s_m_source_file>
AV-unprocessed.smi

> <i_m_source_file_index>
821

> <i_lp_mmshare_version>
43012

> <i_f3d_flags>
0

> <s_epik_input>
W0NIMl0xW0NIMl1PW0NIMl1bQ0gyXU4xW0NIMl1bQ0BASF0oW0NIM10pW05IXUMoPU8pW0NIMl1uMltjSF1bY0hdW2NIXWMoQyhGKShGKUYpYzI9Tw==

> <s_epik_cmdline>
J2VwaWtfcHl0aG9uJywgJy1waCcsICc3LjAnLCAnLXRuJywgJzgnLCAnLW1hJywgJzIwMCcsICctbWV0YWxfYmluZGluZycsICctaW1hZScsICc8aW5maWxlLm1hZT4nLCAnLW9tYWUnLCAnPG91dGZpbGUubWFlPic=

> <r_lp_tautomer_probability>
1

> <r_epik_Ionization_Penalty>
0.237382

> <r_epik_Ionization_Penalty_Charging>
1.90699e-09

> <r_epik_Ionization_Penalty_Neutral>
0.237382

> <r_epik_State_Penalty>
0.228245

> <r_epik_Charging_Adjusted_Penalty>
0.228245

> <i_epik_Tot_Q>
0

> <i_epik_Tot_abs_Q>
0

> <r_epik_Metal_State_Penalty>
0.228219

> <b_epik_Metal_Only>
0

> <s_lp_Force_Field>
OPLS_2005

> <r_lp_Energy>
36.3574

> <b_lp_Chiralities_Consistent>
1

> <s_lp_Variant>
AV-unprocessed.smi:821-2

> <Gold.Version>
5.8.1

> <Gold.Id.Protein>
6NUR|6NUR_protein|mol2

> <Gold.PLP.Fitness>
51.7371

> <Gold.PLP.PLP>
-49.8215

> <Gold.PLP.part.hbond>
-3.0000

> <Gold.PLP.part.metal>
0.0000

> <Gold.PLP.part.buried>
0.7662

> <Gold.PLP.part.nonpolar>
-47.6582

> <Gold.PLP.part.repulsive>
0.2439

> <Gold.PLP.ligand.clash>
0.1492

> <Gold.PLP.ligand.torsion>
0.7711

> <Gold.PLP.Chemscore.Hbond>
1.0542

> <Gold.PLP.Chemscore.CHOScore>
0.0000

> <Gold.PLP.Chemscore.Metal>
0.0000

> <Gold.Chemscore.Hbonds>
donor molecule, donor type, donor heavy atom, donor atom, acceptor molecule, acceptor atom, score
      L1  H    10    39       P1  8028  0.62
      P1  H  7997  8008       L1    24  0.40

> <Gold.PLP.Chemscore.Internal.Correction>
0.4445

> <Gold.Rescore>
     Score         DG    S(hbond)    S(metal)    S(lipo)     H(rot)  DE(clash)    DE(int)     intcor
     10.32     -16.43       1.04        0.00     109.56       2.09       1.35       4.75       ----

> <Gold.Chemscore.Fitness>
10.3239

> <Gold.Chemscore.DG>
-16.4269

> <Gold.Chemscore.ZeroCoef>
-5.4800

> <Gold.Chemscore.Hbond>
1.0433

> <Gold.Chemscore.Metal>
0.0000

> <Gold.Chemscore.Lipo>
109.5645

> <Gold.Chemscore.Internal_Hbond>
0.0000

> <Gold.Chemscore.DEClash>
1.3527

> <Gold.Chemscore.DEInternal>
4.7503

> <Gold.Chemscore.Rot>
2.0924

> <Gold.Chemscore.Internal.Correction>
   9.000000E+99

> <Gold.Chemscore.Hbonds>
donor molecule, donor type, donor heavy atom, donor atom, acceptor molecule, acceptor atom, score
      L1  H    10    39       P1  8028  0.62
      P1  H  7997  8008       L1    24  0.39

> <Gold.Chemscore.Hbond.Weighted>
-3.4845

> <Gold.Chemscore.Metal.Weighted>
-0.0000

> <Gold.Chemscore.Lipo.Weighted>
-12.8190

> <Gold.Chemscore.Internal_Hbond.Weighted>
0.0000

> <Gold.Chemscore.DEClash.Weighted>
1.3527

> <Gold.Chemscore.DEInternal.Weighted>
4.7503

> <Gold.Chemscore.Rot.Weighted>
5.3566

> <Gold.Chemscore.Internal.Correction.Weighted>
   9.000000E+99

> <Gold.Protein.RotatedTorsions>
[ 6907 6896 6895 6894 ] final  115.48 input  -60.11 | X-H torsion
[ 7974 7965 7964 7962 ] final -145.80 input  175.53 | X-H torsion
[ 8008 7997 7996 7995 ] final  -76.22 input   59.86 | X-H torsion
[ 10167 10162 10161 10158 ] final  -18.81 input  -65.29 | X-H torsion
[ 10718 10713 10712 10709 ] final   96.56 input   66.30 | X-H torsion
[ 10763 10752 10751 10750 ] final   83.87 input  -60.55 | X-H torsion
[ 11005 11000 10999 10996 ] final   49.80 input  -57.11 | X-H torsion

> <Gold.Protein.ActiveResidues>
 VAL166  LYS551  ARG553  GLY616  TRP617  ASP618  TYR619  PRO620  LYS621  CYS622 
 ASP623  PHE694  ASN695  SER759  ASP760  ASP761  ALA762  ILE779  LEU786  VAL792 
 PHE793  MET794  SER795  GLU796  ALA797  LYS798  CYS799  TRP800  GLU811  SER814 

> <Gold.Protein.RotatedAtoms>
  152.4739  133.8093  159.6994 H   0  0  0  0  0  0  0  0  0  0  0  0  # atno 6907 bound_to 6896
  150.8744  133.7450  159.2958 H   0  0  0  0  0  0  0  0  0  0  0  0  # atno 6908 bound_to 6896
  151.4975  135.1064  159.9872 H   0  0  0  0  0  0  0  0  0  0  0  0  # atno 6909 bound_to 6896
  144.8202  140.5537  143.5583 H   0  0  0  0  0  0  0  0  0  0  0  0  # atno 7974 bound_to 7965
  154.5486  140.0730  156.8630 H   0  0  0  0  0  0  0  0  0  0  0  0  # atno 8008 bound_to 7997
  155.3038  140.3386  155.4228 H   0  0  0  0  0  0  0  0  0  0  0  0  # atno 8009 bound_to 7997
  156.1941  140.1697  156.8020 H   0  0  0  0  0  0  0  0  0  0  0  0  # atno 8010 bound_to 7997
  140.7262  143.4880  151.0030 H   0  0  0  0  0  0  0  0  0  0  0  0  # atno 10167 bound_to 10162
  157.6925  131.0582  150.4510 H   0  0  0  0  0  0  0  0  0  0  0  0  # atno 10718 bound_to 10713
  153.1330  135.4675  154.9378 H   0  0  0  0  0  0  0  0  0  0  0  0  # atno 10763 bound_to 10752
  154.7681  135.3150  154.8248 H   0  0  0  0  0  0  0  0  0  0  0  0  # atno 10764 bound_to 10752
  153.8787  135.6896  153.4822 H   0  0  0  0  0  0  0  0  0  0  0  0  # atno 10765 bound_to 10752
  140.1072  134.5003  155.8709 H   0  0  0  0  0  0  0  0  0  0  0  0  # atno 11005 bound_to 11000
  145.5122  139.1479  143.3599 LP  0  0  0  0  0  0  0  0  0  0  0  0  # atno 17320 bound_to 7965
  146.2507  140.5262  142.8894 LP  0  0  0  0  0  0  0  0  0  0  0  0  # atno 17321 bound_to 7965
  139.8582  143.7349  152.3175 LP  0  0  0  0  0  0  0  0  0  0  0  0  # atno 17342 bound_to 10162
  139.7555  144.7522  151.0442 LP  0  0  0  0  0  0  0  0  0  0  0  0  # atno 17343 bound_to 10162
  156.4861  130.4084  149.6433 LP  0  0  0  0  0  0  0  0  0  0  0  0  # atno 17370 bound_to 10713
  156.3461  130.7407  151.2360 LP  0  0  0  0  0  0  0  0  0  0  0  0  # atno 17371 bound_to 10713
  141.2121  133.6715  156.6634 LP  0  0  0  0  0  0  0  0  0  0  0  0  # atno 17394 bound_to 11000
  140.3140  134.8063  157.4199 LP  0  0  0  0  0  0  0  0  0  0  0  0  # atno 17395 bound_to 11000

$$$$
