AV-unprocessed.smi:1780|AV-procd|sdf|7183|dock1
  -GOLD-   22720 8423D 1   1.00000     0.00000
 Structure written by MMmdl.
 43 44  0  0  0  0  0  0  0  0  1 V2000
  152.7373  142.7479  162.2939 C   0  0  0  0  0  0  0  0  0  0  0  0
  153.1917  142.0850  160.9880 C   0  0  0  0  0  0  0  0  0  0  0  0
  152.5552  142.6831  159.8306 N   0  0  0  0  0  0  0  0  0  0  0  0
  151.5789  142.1423  159.0176 C   0  0  0  0  0  0  0  0  0  0  0  0
  151.3119  143.0902  158.0759 C   0  0  0  0  0  0  0  0  0  0  0  0
  150.3659  142.9484  157.0301 N   0  0  0  0  0  0  0  0  0  0  0  0
  149.7708  141.8161  156.6222 C   0  0  0  0  0  0  0  0  0  0  0  0
  149.9996  140.6948  157.0753 O   0  0  0  0  0  0  0  0  0  0  0  0
  148.8767  142.0592  155.6526 N   0  0  0  0  0  0  0  0  0  0  0  0
  148.0395  141.0566  154.9963 C   0  0  0  0  0  0  0  0  0  0  0  0
  146.5561  141.5004  154.8434 C   0  0  2  0  0  0  0  0  0  0  0  0
  146.5004  142.8312  154.0507 C   0  0  0  0  0  0  0  0  0  0  0  0
  145.8341  141.5758  156.1359 N   0  0  0  0  0  0  0  0  0  0  0  0
  146.2551  142.7156  156.9590 C   0  0  0  0  0  0  0  0  0  0  0  0
  145.5276  142.7773  158.3132 C   0  0  0  0  0  0  0  0  0  0  0  0
  145.7306  141.5634  159.0227 O   0  0  0  0  0  0  0  0  0  0  0  0
  145.2613  140.4377  158.2945 C   0  0  0  0  0  0  0  0  0  0  0  0
  145.9869  140.3572  156.9403 C   0  0  0  0  0  0  0  0  0  0  0  0
  152.1672  144.1879  158.3764 C   0  0  0  0  0  0  0  0  0  0  0  0
  152.9149  143.9305  159.4391 N   0  0  0  0  0  0  0  0  0  0  0  0
  153.2163  142.2787  163.1533 H   0  0  0  0  0  0  0  0  0  0  0  0
  151.6584  142.6609  162.4248 H   0  0  0  0  0  0  0  0  0  0  0  0
  152.9927  143.8079  162.3094 H   0  0  0  0  0  0  0  0  0  0  0  0
  154.2735  142.1684  160.8762 H   0  0  0  0  0  0  0  0  0  0  0  0
  152.9556  141.0205  161.0052 H   0  0  0  0  0  0  0  0  0  0  0  0
  151.1707  141.1553  159.1773 H   0  0  0  0  0  0  0  0  0  0  0  0
  150.0956  143.8004  156.5615 H   0  0  0  0  0  0  0  0  0  0  0  0
  148.7591  143.0138  155.3466 H   0  0  0  0  0  0  0  0  0  0  0  0
  148.5070  140.9095  154.0246 H   0  0  0  0  0  0  0  0  0  0  0  0
  148.0928  140.0949  155.5095 H   0  0  0  0  0  0  0  0  0  0  0  0
  146.0621  140.7462  154.2285 H   0  0  0  0  0  0  0  0  0  0  0  0
  147.0400  142.7750  153.1067 H   0  0  0  0  0  0  0  0  0  0  0  0
  146.9310  143.6511  154.6267 H   0  0  0  0  0  0  0  0  0  0  0  0
  145.4859  143.1104  153.7718 H   0  0  0  0  0  0  0  0  0  0  0  0
  147.3321  142.6731  157.1278 H   0  0  0  0  0  0  0  0  0  0  0  0
  146.0490  143.6550  156.4502 H   0  0  0  0  0  0  0  0  0  0  0  0
  145.9093  143.6057  158.9100 H   0  0  0  0  0  0  0  0  0  0  0  0
  144.4598  142.9507  158.1708 H   0  0  0  0  0  0  0  0  0  0  0  0
  145.4465  139.5355  158.8775 H   0  0  0  0  0  0  0  0  0  0  0  0
  144.1820  140.5096  158.1516 H   0  0  0  0  0  0  0  0  0  0  0  0
  145.5801  139.4954  156.4152 H   0  0  0  0  0  0  0  0  0  0  0  0
  147.0458  140.1563  157.1095 H   0  0  0  0  0  0  0  0  0  0  0  0
  152.2767  145.1400  157.8791 H   0  0  0  0  0  0  0  0  0  0  0  0
  1  2  1  0  0  0  0
  1 21  1  0  0  0  0
  1 22  1  0  0  0  0
  1 23  1  0  0  0  0
  2  3  1  0  0  0  0
  2 24  1  0  0  0  0
  2 25  1  0  0  0  0
  3 20  1  0  0  0  0
  3  4  1  0  0  0  0
  4  5  2  0  0  0  0
  4 26  1  0  0  0  0
  5  6  1  0  0  0  0
  5 19  1  0  0  0  0
  6  7  1  0  0  0  0
  6 27  1  0  0  0  0
  7  8  2  0  0  0  0
  7  9  1  0  0  0  0
  9 10  1  0  0  0  0
  9 28  1  0  0  0  0
 10 11  1  0  0  0  0
 10 29  1  0  0  0  0
 10 30  1  0  0  0  0
 11 12  1  0  0  0  0
 11 13  1  0  0  0  0
 11 31  1  0  0  0  0
 12 32  1  0  0  0  0
 12 33  1  0  0  0  0
 12 34  1  0  0  0  0
 13 18  1  0  0  0  0
 13 14  1  0  0  0  0
 14 15  1  0  0  0  0
 14 35  1  0  0  0  0
 14 36  1  0  0  0  0
 15 16  1  0  0  0  0
 15 37  1  0  0  0  0
 15 38  1  0  0  0  0
 16 17  1  0  0  0  0
 17 18  1  0  0  0  0
 17 39  1  0  0  0  0
 17 40  1  0  0  0  0
 18 41  1  0  0  0  0
 18 42  1  0  0  0  0
 19 20  2  0  0  0  0
 19 43  1  0  0  0  0
M  END
> <s_m_source_file>
AV-unprocessed.smi

> <i_m_source_file_index>
1780

> <i_lp_mmshare_version>
43012

> <i_f3d_flags>
0

> <s_epik_input>
W0NIM11bQ0gyXW4xW2NIXWMoW2NIXW4xKVtOSF1DKD1PKVtOSF1bQ0gyXVtDQEhdKFtDSDNdKU4yW0NIMl1bQ0gyXU9bQ0gyXVtDSDJdMg==

> <s_epik_cmdline>
J2VwaWtfcHl0aG9uJywgJy1waCcsICc3LjAnLCAnLXRuJywgJzgnLCAnLW1hJywgJzIwMCcsICctbWV0YWxfYmluZGluZycsICctaW1hZScsICc8aW5maWxlLm1hZT4nLCAnLW9tYWUnLCAnPG91dGZpbGUubWFlPic=

> <r_lp_tautomer_probability>
1

> <r_epik_Ionization_Penalty>
0.242902

> <r_epik_Ionization_Penalty_Charging>
0

> <r_epik_Ionization_Penalty_Neutral>
0.242902

> <r_epik_State_Penalty>
0.233765

> <r_epik_Charging_Adjusted_Penalty>
0.233765

> <i_epik_Tot_Q>
0

> <i_epik_Tot_abs_Q>
0

> <r_epik_Metal_State_Penalty>
0.233759

> <b_epik_Metal_Only>
0

> <s_lp_Force_Field>
OPLS_2005

> <r_lp_Energy>
32.6304

> <b_lp_Chiralities_Consistent>
1

> <s_lp_Variant>
AV-unprocessed.smi:1780-1

> <Gold.Version>
5.8.1

> <Gold.Id.Protein>
6NUR|6NUR_protein|mol2

> <Gold.PLP.Fitness>
45.9247

> <Gold.PLP.PLP>
-38.1465

> <Gold.PLP.part.hbond>
-3.0000

> <Gold.PLP.part.metal>
0.0000

> <Gold.PLP.part.buried>
-6.0860

> <Gold.PLP.part.nonpolar>
-30.1994

> <Gold.PLP.part.repulsive>
0.2405

> <Gold.PLP.ligand.clash>
0.0000

> <Gold.PLP.ligand.torsion>
0.3624

> <Gold.PLP.Chemscore.Hbond>
2.8160

> <Gold.PLP.Chemscore.CHOScore>
0.0000

> <Gold.PLP.Chemscore.Metal>
0.0000

> <Gold.Chemscore.Hbonds>
donor molecule, donor type, donor heavy atom, donor atom, acceptor molecule, acceptor atom, score
      L1  H     6    27       P1  8028  1.00
      L1  H     9    28       P1  8028  1.00
      P1  H  6934  6946       L1    16  0.59

> <Gold.PLP.Chemscore.Internal.Correction>
0.0550

> <Gold.Rescore>
     Score         DG    S(hbond)    S(metal)    S(lipo)     H(rot)  DE(clash)    DE(int)     intcor
     16.87     -18.84       2.62        0.00      74.65       1.61       0.00       1.97       ----

> <Gold.Chemscore.Fitness>
16.8675

> <Gold.Chemscore.DG>
-18.8445

> <Gold.Chemscore.ZeroCoef>
-5.4800

> <Gold.Chemscore.Hbond>
2.6218

> <Gold.Chemscore.Metal>
0.0000

> <Gold.Chemscore.Lipo>
74.6460

> <Gold.Chemscore.Internal_Hbond>
0.0000

> <Gold.Chemscore.DEClash>
0.0048

> <Gold.Chemscore.DEInternal>
1.9721

> <Gold.Chemscore.Rot>
1.6117

> <Gold.Chemscore.Internal.Correction>
   9.000000E+99

> <Gold.Chemscore.Hbonds>
donor molecule, donor type, donor heavy atom, donor atom, acceptor molecule, acceptor atom, score
      L1  H     6    27       P1  8028  0.94
      L1  H     9    28       P1  8028  0.95
      P1  H  6934  6946       L1    16  0.38

> <Gold.Chemscore.Hbond.Weighted>
-8.7569

> <Gold.Chemscore.Metal.Weighted>
-0.0000

> <Gold.Chemscore.Lipo.Weighted>
-8.7336

> <Gold.Chemscore.Internal_Hbond.Weighted>
0.0000

> <Gold.Chemscore.DEClash.Weighted>
0.0048

> <Gold.Chemscore.DEInternal.Weighted>
1.9721

> <Gold.Chemscore.Rot.Weighted>
4.1260

> <Gold.Chemscore.Internal.Correction.Weighted>
   9.000000E+99

> <Gold.Protein.RotatedTorsions>
[ 6907 6896 6895 6894 ] final   -5.49 input  -60.11 | X-H torsion
[ 7974 7965 7964 7962 ] final -168.74 input  175.53 | X-H torsion
[ 8008 7997 7996 7995 ] final -165.97 input   59.86 | X-H torsion
[ 10167 10162 10161 10158 ] final  -53.92 input  -65.29 | X-H torsion
[ 10718 10713 10712 10709 ] final -146.83 input   66.30 | X-H torsion
[ 10763 10752 10751 10750 ] final -115.40 input  -60.55 | X-H torsion
[ 11005 11000 10999 10996 ] final -171.89 input  -57.11 | X-H torsion

> <Gold.Protein.ActiveResidues>
 VAL166  LYS551  ARG553  GLY616  TRP617  ASP618  TYR619  PRO620  LYS621  CYS622 
 ASP623  PHE694  ASN695  SER759  ASP760  ASP761  ALA762  ILE779  LEU786  VAL792 
 PHE793  MET794  SER795  GLU796  ALA797  LYS798  CYS799  TRP800  GLU811  SER814 

> <Gold.Protein.RotatedAtoms>
  151.4808  135.1052  159.9776 H   0  0  0  0  0  0  0  0  0  0  0  0  # atno 6907 bound_to 6896
  152.4780  133.8181  159.7049 H   0  0  0  0  0  0  0  0  0  0  0  0  # atno 6908 bound_to 6896
  150.8831  133.7283  159.2952 H   0  0  0  0  0  0  0  0  0  0  0  0  # atno 6909 bound_to 6896
  144.7197  140.2325  143.6302 H   0  0  0  0  0  0  0  0  0  0  0  0  # atno 7974 bound_to 7965
  155.8572  140.0972  157.1637 H   0  0  0  0  0  0  0  0  0  0  0  0  # atno 8008 bound_to 7997
  154.3988  140.1372  156.3979 H   0  0  0  0  0  0  0  0  0  0  0  0  # atno 8009 bound_to 7997
  155.7896  140.3456  155.5344 H   0  0  0  0  0  0  0  0  0  0  0  0  # atno 8010 bound_to 7997
  140.6459  143.2535  151.4861 H   0  0  0  0  0  0  0  0  0  0  0  0  # atno 10167 bound_to 10162
  156.3999  130.7928  151.2138 H   0  0  0  0  0  0  0  0  0  0  0  0  # atno 10718 bound_to 10713
  154.8479  135.4383  154.1657 H   0  0  0  0  0  0  0  0  0  0  0  0  # atno 10763 bound_to 10752
  153.2783  135.6951  153.7417 H   0  0  0  0  0  0  0  0  0  0  0  0  # atno 10764 bound_to 10752
  153.6631  135.3431  155.3108 H   0  0  0  0  0  0  0  0  0  0  0  0  # atno 10765 bound_to 10752
  140.5032  134.5873  157.4994 H   0  0  0  0  0  0  0  0  0  0  0  0  # atno 11005 bound_to 11000
  145.8397  139.2124  143.1835 LP  0  0  0  0  0  0  0  0  0  0  0  0  # atno 17320 bound_to 7965
  146.0358  140.8214  142.9853 LP  0  0  0  0  0  0  0  0  0  0  0  0  # atno 17321 bound_to 7965
  139.5669  144.2020  152.1779 LP  0  0  0  0  0  0  0  0  0  0  0  0  # atno 17342 bound_to 10162
  140.1305  144.5293  150.6806 LP  0  0  0  0  0  0  0  0  0  0  0  0  # atno 17343 bound_to 10162
  157.7503  131.0290  150.4073 LP  0  0  0  0  0  0  0  0  0  0  0  0  # atno 17370 bound_to 10713
  156.4351  130.3980  149.6734 LP  0  0  0  0  0  0  0  0  0  0  0  0  # atno 17371 bound_to 10713
  139.9701  134.7307  156.0058 LP  0  0  0  0  0  0  0  0  0  0  0  0  # atno 17394 bound_to 11000
  141.1425  133.6562  156.3770 LP  0  0  0  0  0  0  0  0  0  0  0  0  # atno 17395 bound_to 11000

$$$$
