AV-unprocessed.smi:1626|AV-procd|sdf|6512|dock7
  -GOLD-   22720 7183D 1   1.00000     0.00000
 Structure written by MMmdl.
 49 51  0  0  0  0  0  0  0  0  3 V2000
  152.8108  142.4102  160.4595 C   0  0  0  0  0  0  0  0  0  0  0  0
  152.2353  141.8402  159.1743 C   0  0  0  0  0  0  0  0  0  0  0  0
  151.3553  142.6444  158.4148 C   0  0  0  0  0  0  0  0  0  0  0  0
  150.8486  142.0969  157.2422 C   0  0  0  0  0  0  0  0  0  0  0  0
  149.9807  142.6264  156.2846 N   0  3  0  0  0  0  0  0  0  0  0  0
  149.7752  141.7083  155.2998 C   0  0  0  0  0  0  0  0  0  0  0  0
  150.4895  140.5950  155.6219 N   0  0  0  0  0  0  0  0  0  0  0  0
  150.6279  139.3197  154.9066 C   0  0  0  0  0  0  0  0  0  0  0  0
  149.2987  138.5489  154.7658 C   0  0  2  0  0  0  0  0  0  0  0  0
  149.6244  137.2073  154.4636 O   0  0  0  0  0  0  0  0  0  0  0  0
  148.3796  139.1103  153.6575 C   0  0  0  0  0  0  0  0  0  0  0  0
  147.3928  138.1142  153.1663 N   0  3  2  0  0  0  0  0  0  0  0  0
  146.6348  138.6096  151.9884 C   0  0  0  0  0  0  0  0  0  0  0  0
  145.7285  137.5110  151.4042 C   0  0  0  0  0  0  0  0  0  0  0  0
  144.7795  136.9240  152.4619 C   0  0  2  0  0  0  0  0  0  0  0  0
  143.7969  137.8770  152.8144 O   0  0  0  0  0  0  0  0  0  0  0  0
  145.5710  136.4910  153.7070 C   0  0  0  0  0  0  0  0  0  0  0  0
  146.4798  137.6181  154.2311 C   0  0  0  0  0  0  0  0  0  0  0  0
  151.1843  140.7963  156.8192 C   0  0  0  0  0  0  0  0  0  0  0  0
  152.0506  139.9910  157.5543 C   0  0  0  0  0  0  0  0  0  0  0  0
  152.5784  140.5306  158.7490 C   0  0  0  0  0  0  0  0  0  0  0  0
  153.5276  139.6764  159.5722 C   0  0  0  0  0  0  0  0  0  0  0  0
  152.4785  143.4355  160.6262 H   0  0  0  0  0  0  0  0  0  0  0  0
  153.9003  142.4167  160.4226 H   0  0  0  0  0  0  0  0  0  0  0  0
  152.4963  141.8145  161.3168 H   0  0  0  0  0  0  0  0  0  0  0  0
  151.0921  143.6432  158.7312 H   0  0  0  0  0  0  0  0  0  0  0  0
  149.1560  141.8400  154.4239 H   0  0  0  0  0  0  0  0  0  0  0  0
  151.0408  139.5443  153.9219 H   0  0  0  0  0  0  0  0  0  0  0  0
  151.3758  138.7186  155.4262 H   0  0  0  0  0  0  0  0  0  0  0  0
  148.7887  138.5581  155.7277 H   0  0  0  0  0  0  0  0  0  0  0  0
  149.6124  137.0887  153.5263 H   0  0  0  0  0  0  0  0  0  0  0  0
  147.8374  139.9906  154.0047 H   0  0  0  0  0  0  0  0  0  0  0  0
  149.0077  139.4507  152.8325 H   0  0  0  0  0  0  0  0  0  0  0  0
  146.0426  139.4802  152.2749 H   0  0  0  0  0  0  0  0  0  0  0  0
  147.3296  138.9414  151.2159 H   0  0  0  0  0  0  0  0  0  0  0  0
  145.1592  137.9026  150.5603 H   0  0  0  0  0  0  0  0  0  0  0  0
  146.3538  136.7120  151.0039 H   0  0  0  0  0  0  0  0  0  0  0  0
  144.2582  136.0628  152.0431 H   0  0  0  0  0  0  0  0  0  0  0  0
  144.0516  138.7181  152.4649 H   0  0  0  0  0  0  0  0  0  0  0  0
  144.8909  136.1595  154.4927 H   0  0  0  0  0  0  0  0  0  0  0  0
  146.1872  135.6268  153.4550 H   0  0  0  0  0  0  0  0  0  0  0  0
  147.0503  137.2413  155.0788 H   0  0  0  0  0  0  0  0  0  0  0  0
  145.8745  138.4447  154.6067 H   0  0  0  0  0  0  0  0  0  0  0  0
  152.3156  138.9959  157.2283 H   0  0  0  0  0  0  0  0  0  0  0  0
  153.6761  138.6955  159.1199 H   0  0  0  0  0  0  0  0  0  0  0  0
  153.1330  139.5236  160.5770 H   0  0  0  0  0  0  0  0  0  0  0  0
  154.5031  140.1567  159.6520 H   0  0  0  0  0  0  0  0  0  0  0  0
  147.9270  137.3222  152.8392 H   0  0  0  0  0  0  0  0  0  0  0  0
  149.5646  143.5492  156.2957 H   0  0  0  0  0  0  0  0  0  0  0  0
  1  2  1  0  0  0  0
  1 23  1  0  0  0  0
  1 24  1  0  0  0  0
  1 25  1  0  0  0  0
  2 21  1  0  0  0  0
  2  3  2  0  0  0  0
  3  4  1  0  0  0  0
  3 26  1  0  0  0  0
  4 19  2  0  0  0  0
  4  5  1  0  0  0  0
  5  6  2  0  0  0  0
  5 49  1  0  0  0  0
  6  7  1  0  0  0  0
  6 27  1  0  0  0  0
  7  8  1  0  0  0  0
  7 19  1  0  0  0  0
  8  9  1  0  0  0  0
  8 28  1  0  0  0  0
  8 29  1  0  0  0  0
  9 10  1  0  0  0  0
  9 11  1  0  0  0  0
  9 30  1  0  0  0  0
 10 31  1  0  0  0  0
 11 12  1  0  0  0  0
 11 32  1  0  0  0  0
 11 33  1  0  0  0  0
 12 18  1  0  0  0  0
 12 13  1  0  0  0  0
 12 48  1  0  0  0  0
 13 14  1  0  0  0  0
 13 34  1  0  0  0  0
 13 35  1  0  0  0  0
 14 15  1  0  0  0  0
 14 36  1  0  0  0  0
 14 37  1  0  0  0  0
 15 16  1  0  0  0  0
 15 17  1  0  0  0  0
 15 38  1  0  0  0  0
 16 39  1  0  0  0  0
 17 18  1  0  0  0  0
 17 40  1  0  0  0  0
 17 41  1  0  0  0  0
 18 42  1  0  0  0  0
 18 43  1  0  0  0  0
 19 20  1  0  0  0  0
 20 21  2  0  0  0  0
 20 44  1  0  0  0  0
 21 22  1  0  0  0  0
 22 45  1  0  0  0  0
 22 46  1  0  0  0  0
 22 47  1  0  0  0  0
M  CHG  1   5   1
M  CHG  1  12   1
M  END
> <s_m_source_file>
AV-unprocessed.smi

> <i_m_source_file_index>
1626

> <i_lp_mmshare_version>
43012

> <i_f3d_flags>
0

> <s_epik_input>
W0NIM11jKFtjSF0xKWMoW0NIM10pW2NIXWMoYzEyKW4oW2NIXW4yKVtDSDJdW0NASF0oW09IXSlbQ0gyXU4zW0NIMl1bQ0gyXVtDSF0oW09IXSlbQ0gyXVtDSDJdMw==

> <s_epik_cmdline>
J2VwaWtfcHl0aG9uJywgJy1waCcsICc3LjAnLCAnLXRuJywgJzgnLCAnLW1hJywgJzIwMCcsICctbWV0YWxfYmluZGluZycsICctaW1hZScsICc8aW5maWxlLm1hZT4nLCAnLW9tYWUnLCAnPG91dGZpbGUubWFlPic=

> <r_epik_Ionization_Penalty>
1.19369

> <r_epik_Ionization_Penalty_Charging>
1.19369

> <r_epik_Ionization_Penalty_Neutral>
1.68219e-06

> <r_epik_State_Penalty>
1.27429

> <r_epik_Charging_Adjusted_Penalty>
2.46798

> <i_epik_Tot_Q>
2

> <i_epik_Tot_abs_Q>
2

> <r_epik_Metal_State_Penalty>
5.29157

> <b_epik_Metal_Only>
0

> <s_lp_Force_Field>
OPLS_2005

> <r_lp_Energy>
35.0493

> <b_lp_Chiralities_Consistent>
1

> <s_lp_Variant>
AV-unprocessed.smi:1626-7

> <Gold.Version>
5.8.1

> <Gold.Id.Protein>
6NUR|6NUR_protein|mol2

> <Gold.PLP.Fitness>
57.4477

> <Gold.PLP.PLP>
-40.8863

> <Gold.PLP.part.hbond>
-4.8502

> <Gold.PLP.part.metal>
0.0000

> <Gold.PLP.part.buried>
2.5561

> <Gold.PLP.part.nonpolar>
-38.8191

> <Gold.PLP.part.repulsive>
0.1402

> <Gold.PLP.ligand.clash>
0.0000

> <Gold.PLP.ligand.torsion>
0.3942

> <Gold.PLP.Chemscore.Hbond>
5.7760

> <Gold.PLP.Chemscore.CHOScore>
0.0000

> <Gold.PLP.Chemscore.Metal>
0.0000

> <Gold.Chemscore.Hbonds>
donor molecule, donor type, donor heavy atom, donor atom, acceptor molecule, acceptor atom, score
      L1  H     5    49       P1  8028  1.82
      L1  H    10    31       P1  7948  1.00
      L1  H    12    48       P1  7948  2.00
      L1  H    16    39       P1 10175  0.88

> <Gold.PLP.Chemscore.Internal.Correction>
0.0218

> <Gold.Rescore>
     Score         DG    S(hbond)    S(metal)    S(lipo)     H(rot)  DE(clash)    DE(int)     intcor
     21.56     -23.29       3.74        0.00     105.29       2.74       1.40       0.33       ----

> <Gold.Chemscore.Fitness>
21.5628

> <Gold.Chemscore.DG>
-23.2900

> <Gold.Chemscore.ZeroCoef>
-5.4800

> <Gold.Chemscore.Hbond>
3.7429

> <Gold.Chemscore.Metal>
0.0000

> <Gold.Chemscore.Lipo>
105.2906

> <Gold.Chemscore.Internal_Hbond>
0.0000

> <Gold.Chemscore.DEClash>
1.3966

> <Gold.Chemscore.DEInternal>
0.3306

> <Gold.Chemscore.Rot>
2.7384

> <Gold.Chemscore.Internal.Correction>
   9.000000E+99

> <Gold.Chemscore.Hbonds>
donor molecule, donor type, donor heavy atom, donor atom, acceptor molecule, acceptor atom, score
      L1  H     5    49       P1  8028  0.85
      L1  H    10    31       P1  7948  0.76
      L1  H    12    48       P1  7948  1.00
      L1  H    16    39       P1 10175  0.87

> <Gold.Chemscore.Hbond.Weighted>
-12.5014

> <Gold.Chemscore.Metal.Weighted>
-0.0000

> <Gold.Chemscore.Lipo.Weighted>
-12.3190

> <Gold.Chemscore.Internal_Hbond.Weighted>
0.0000

> <Gold.Chemscore.DEClash.Weighted>
1.3966

> <Gold.Chemscore.DEInternal.Weighted>
0.3306

> <Gold.Chemscore.Rot.Weighted>
7.0103

> <Gold.Chemscore.Internal.Correction.Weighted>
   9.000000E+99

> <Gold.Protein.RotatedTorsions>
[ 6907 6896 6895 6894 ] final -177.35 input  -60.11 | X-H torsion
[ 7974 7965 7964 7962 ] final   80.15 input  175.53 | X-H torsion
[ 8008 7997 7996 7995 ] final   19.76 input   59.86 | X-H torsion
[ 10167 10162 10161 10158 ] final  -87.81 input  -65.29 | X-H torsion
[ 10718 10713 10712 10709 ] final  131.34 input   66.30 | X-H torsion
[ 10763 10752 10751 10750 ] final  123.23 input  -60.55 | X-H torsion
[ 11005 11000 10999 10996 ] final -148.81 input  -57.11 | X-H torsion

> <Gold.Protein.ActiveResidues>
 VAL166  LYS551  ARG553  GLY616  TRP617  ASP618  TYR619  PRO620  LYS621  CYS622 
 ASP623  PHE694  ASN695  SER759  ASP760  ASP761  ALA762  ILE779  LEU786  VAL792 
 PHE793  MET794  SER795  GLU796  ALA797  LYS798  CYS799  TRP800  GLU811  SER814 

> <Gold.Protein.RotatedAtoms>
  151.6196  133.3340  159.3084 H   0  0  0  0  0  0  0  0  0  0  0  0  # atno 6907 bound_to 6896
  150.8113  134.7273  159.6702 H   0  0  0  0  0  0  0  0  0  0  0  0  # atno 6908 bound_to 6896
  152.4209  134.5961  160.0039 H   0  0  0  0  0  0  0  0  0  0  0  0  # atno 6909 bound_to 6896
  145.6550  139.2457  143.1955 H   0  0  0  0  0  0  0  0  0  0  0  0  # atno 7974 bound_to 7965
  154.9255  140.3033  155.5194 H   0  0  0  0  0  0  0  0  0  0  0  0  # atno 8008 bound_to 7997
  156.3007  140.2363  156.4246 H   0  0  0  0  0  0  0  0  0  0  0  0  # atno 8009 bound_to 7997
  154.8288  140.0419  157.1451 H   0  0  0  0  0  0  0  0  0  0  0  0  # atno 8010 bound_to 7997
  140.3808  143.2749  151.9385 H   0  0  0  0  0  0  0  0  0  0  0  0  # atno 10167 bound_to 10162
  157.4977  131.1093  150.9470 H   0  0  0  0  0  0  0  0  0  0  0  0  # atno 10718 bound_to 10713
  153.6422  135.3377  155.3075 H   0  0  0  0  0  0  0  0  0  0  0  0  # atno 10763 bound_to 10752
  154.8557  135.4321  154.1993 H   0  0  0  0  0  0  0  0  0  0  0  0  # atno 10764 bound_to 10752
  153.2914  135.7017  153.7363 H   0  0  0  0  0  0  0  0  0  0  0  0  # atno 10765 bound_to 10752
  140.7574  134.3337  157.5110 H   0  0  0  0  0  0  0  0  0  0  0  0  # atno 11005 bound_to 11000
  146.1172  140.7354  142.9475 LP  0  0  0  0  0  0  0  0  0  0  0  0  # atno 17320 bound_to 7965
  144.7109  140.4034  143.7081 LP  0  0  0  0  0  0  0  0  0  0  0  0  # atno 17321 bound_to 7965
  139.4795  144.5820  151.7917 LP  0  0  0  0  0  0  0  0  0  0  0  0  # atno 17342 bound_to 10162
  140.4939  144.1270  150.5956 LP  0  0  0  0  0  0  0  0  0  0  0  0  # atno 17343 bound_to 10162
  157.0151  130.5652  149.5325 LP  0  0  0  0  0  0  0  0  0  0  0  0  # atno 17370 bound_to 10713
  156.0210  130.5305  150.8275 LP  0  0  0  0  0  0  0  0  0  0  0  0  # atno 17371 bound_to 10713
  139.8777  134.9180  156.3193 LP  0  0  0  0  0  0  0  0  0  0  0  0  # atno 17394 bound_to 11000
  140.9695  133.7336  156.0514 LP  0  0  0  0  0  0  0  0  0  0  0  0  # atno 17395 bound_to 11000

$$$$
