AV-unprocessed.smi:1641|AV-procd|sdf|6564|dock9
  -GOLD-   22720 7253D 1   1.00000     0.00000
 Structure written by MMmdl.
 40 41  0  0  0  0  0  0  0  0  2 V2000
  150.1638  141.4430  155.1637 C   0  0  0  0  0  0  0  0  0  0  0  0
  150.7359  140.0693  155.0828 C   0  0  0  0  0  0  0  0  0  0  0  0
  151.9866  139.8278  154.6820 N   0  0  0  0  0  0  0  0  0  0  0  0
  152.2857  138.4730  154.6904 N   0  0  0  0  0  0  0  0  0  0  0  0
  151.2561  137.7096  155.0840 C   0  0  0  0  0  0  0  0  0  0  0  0
  151.3390  136.3713  155.1648 N   0  5  0  0  0  0  0  0  0  0  0  0
  150.2445  135.6444  155.4862 C   0  0  0  0  0  0  0  0  0  0  0  0
  149.4802  135.8566  156.4302 O   0  0  0  0  0  0  0  0  0  0  0  0
  150.0279  134.6086  154.6632 N   0  0  0  0  0  0  0  0  0  0  0  0
  148.9451  133.6363  154.7625 C   0  0  0  0  0  0  0  0  0  0  0  0
  149.2881  132.3825  153.9419 C   0  0  0  0  0  0  0  0  0  0  0  0
  148.2108  131.8919  153.0836 N   0  0  0  0  0  0  0  0  0  0  0  0
  147.6112  132.9820  152.3256 C   0  0  0  0  0  0  0  0  0  0  0  0
  146.5047  132.4840  151.3788 C   0  0  2  0  0  0  0  0  0  0  0  0
  145.8176  133.6360  150.6384 C   0  0  0  0  0  0  0  0  0  0  0  0
  145.5147  131.7877  152.1337 O   0  0  0  0  0  0  0  0  0  0  0  0
  146.0071  130.7165  152.9407 C   0  0  1  0  0  0  0  0  0  0  0  0
  146.3724  129.4858  152.0931 C   0  0  0  0  0  0  0  0  0  0  0  0
  147.1635  131.2051  153.8367 C   0  0  0  0  0  0  0  0  0  0  0  0
  149.8147  138.6351  155.5023 S   0  0  0  0  0  0  0  0  0  0  0  0
  149.7111  141.7138  154.2098 H   0  0  0  0  0  0  0  0  0  0  0  0
  150.9436  142.1670  155.4014 H   0  0  0  0  0  0  0  0  0  0  0  0
  149.3999  141.4872  155.9402 H   0  0  0  0  0  0  0  0  0  0  0  0
  150.6809  134.4827  153.9038 H   0  0  0  0  0  0  0  0  0  0  0  0
  148.7595  133.3498  155.7989 H   0  0  0  0  0  0  0  0  0  0  0  0
  148.0370  134.1129  154.3948 H   0  0  0  0  0  0  0  0  0  0  0  0
  150.1811  132.5686  153.3432 H   0  0  0  0  0  0  0  0  0  0  0  0
  149.5595  131.5946  154.6465 H   0  0  0  0  0  0  0  0  0  0  0  0
  147.2001  133.7254  153.0107 H   0  0  0  0  0  0  0  0  0  0  0  0
  148.3795  133.4894  151.7408 H   0  0  0  0  0  0  0  0  0  0  0  0
  146.9358  131.8103  150.6377 H   0  0  0  0  0  0  0  0  0  0  0  0
  146.5324  134.1957  150.0345 H   0  0  0  0  0  0  0  0  0  0  0  0
  145.3508  134.3319  151.3362 H   0  0  0  0  0  0  0  0  0  0  0  0
  145.0407  133.2616  149.9713 H   0  0  0  0  0  0  0  0  0  0  0  0
  145.1833  130.4200  153.5904 H   0  0  0  0  0  0  0  0  0  0  0  0
  146.6389  128.6425  152.7302 H   0  0  0  0  0  0  0  0  0  0  0  0
  147.2211  129.6770  151.4365 H   0  0  0  0  0  0  0  0  0  0  0  0
  145.5312  129.1775  151.4721 H   0  0  0  0  0  0  0  0  0  0  0  0
  147.5753  130.3529  154.3762 H   0  0  0  0  0  0  0  0  0  0  0  0
  146.7606  131.8813  154.5926 H   0  0  0  0  0  0  0  0  0  0  0  0
  1  2  1  0  0  0  0
  1 21  1  0  0  0  0
  1 22  1  0  0  0  0
  1 23  1  0  0  0  0
  2 20  1  0  0  0  0
  2  3  2  0  0  0  0
  3  4  1  0  0  0  0
  4  5  2  0  0  0  0
  5  6  1  0  0  0  0
  5 20  1  0  0  0  0
  6  7  1  0  0  0  0
  7  8  2  0  0  0  0
  7  9  1  0  0  0  0
  9 10  1  0  0  0  0
  9 24  1  0  0  0  0
 10 11  1  0  0  0  0
 10 25  1  0  0  0  0
 10 26  1  0  0  0  0
 11 12  1  0  0  0  0
 11 27  1  0  0  0  0
 11 28  1  0  0  0  0
 12 19  1  0  0  0  0
 12 13  1  0  0  0  0
 13 14  1  0  0  0  0
 13 29  1  0  0  0  0
 13 30  1  0  0  0  0
 14 15  1  0  0  0  0
 14 16  1  0  0  0  0
 14 31  1  0  0  0  0
 15 32  1  0  0  0  0
 15 33  1  0  0  0  0
 15 34  1  0  0  0  0
 16 17  1  0  0  0  0
 17 18  1  0  0  0  0
 17 19  1  0  0  0  0
 17 35  1  0  0  0  0
 18 36  1  0  0  0  0
 18 37  1  0  0  0  0
 18 38  1  0  0  0  0
 19 39  1  0  0  0  0
 19 40  1  0  0  0  0
M  CHG  1   6  -1
M  END
> <s_m_source_file>
AV-unprocessed.smi

> <i_m_source_file_index>
1641

> <i_lp_mmshare_version>
43012

> <i_f3d_flags>
0

> <s_epik_input>
W0NIM11jMW5uYyhzMSlbTkhdQyg9TylbTkhdW0NIMl1bQ0gyXU4yW0NIMl1bQ0BASF0oW0NIM10pT1tDQEBIXShbQ0gzXSlbQ0gyXTI=

> <s_epik_cmdline>
J2VwaWtfcHl0aG9uJywgJy1waCcsICc3LjAnLCAnLXRuJywgJzgnLCAnLW1hJywgJzIwMCcsICctbWV0YWxfYmluZGluZycsICctaW1hZScsICc8aW5maWxlLm1hZT4nLCAnLW9tYWUnLCAnPG91dGZpbGUubWFlPic=

> <r_lp_tautomer_probability>
1

> <r_epik_Ionization_Penalty>
3.81681

> <r_epik_Ionization_Penalty_Charging>
3.36369

> <r_epik_Ionization_Penalty_Neutral>
0.45313

> <r_epik_State_Penalty>
3.571

> <r_epik_Charging_Adjusted_Penalty>
6.93469

> <i_epik_Tot_Q>
-1

> <i_epik_Tot_abs_Q>
1

> <r_epik_Metal_State_Penalty>
0.710322

> <b_epik_Metal_Only>
1

> <s_lp_Force_Field>
OPLS_2005

> <r_lp_Energy>
21.0176

> <b_lp_Chiralities_Consistent>
1

> <s_lp_Variant>
AV-unprocessed.smi:1641-9

> <Gold.Version>
5.8.1

> <Gold.Id.Protein>
6NUR|6NUR_protein|mol2

> <Gold.PLP.Fitness>
38.3349

> <Gold.PLP.PLP>
-31.2911

> <Gold.PLP.part.hbond>
-2.0252

> <Gold.PLP.part.metal>
0.0000

> <Gold.PLP.part.buried>
-6.2878

> <Gold.PLP.part.nonpolar>
-25.0582

> <Gold.PLP.part.repulsive>
1.5803

> <Gold.PLP.ligand.clash>
0.0000

> <Gold.PLP.ligand.torsion>
0.9813

> <Gold.PLP.Chemscore.Hbond>
3.0000

> <Gold.PLP.Chemscore.CHOScore>
0.0000

> <Gold.PLP.Chemscore.Metal>
0.0000

> <Gold.Chemscore.Hbonds>
donor molecule, donor type, donor heavy atom, donor atom, acceptor molecule, acceptor atom, score
      P1  H  7989  7998       L1     3  0.27
      P1  H 10752 10764       L1     6  2.00

> <Gold.PLP.Chemscore.Internal.Correction>
0.0063

> <Gold.Rescore>
     Score         DG    S(hbond)    S(metal)    S(lipo)     H(rot)  DE(clash)    DE(int)     intcor
     13.01     -15.21       1.83        0.00      65.14       1.57       0.05       2.15       ----

> <Gold.Chemscore.Fitness>
13.0113

> <Gold.Chemscore.DG>
-15.2098

> <Gold.Chemscore.ZeroCoef>
-5.4800

> <Gold.Chemscore.Hbond>
1.8337

> <Gold.Chemscore.Metal>
0.0000

> <Gold.Chemscore.Lipo>
65.1352

> <Gold.Chemscore.Internal_Hbond>
0.0000

> <Gold.Chemscore.DEClash>
0.0533

> <Gold.Chemscore.DEInternal>
2.1452

> <Gold.Chemscore.Rot>
1.5686

> <Gold.Chemscore.Internal.Correction>
   9.000000E+99

> <Gold.Chemscore.Hbonds>
donor molecule, donor type, donor heavy atom, donor atom, acceptor molecule, acceptor atom, score
      P1  H 10752 10764       L1     6  0.93

> <Gold.Chemscore.Hbond.Weighted>
-6.1247

> <Gold.Chemscore.Metal.Weighted>
-0.0000

> <Gold.Chemscore.Lipo.Weighted>
-7.6208

> <Gold.Chemscore.Internal_Hbond.Weighted>
0.0000

> <Gold.Chemscore.DEClash.Weighted>
0.0533

> <Gold.Chemscore.DEInternal.Weighted>
2.1452

> <Gold.Chemscore.Rot.Weighted>
4.0157

> <Gold.Chemscore.Internal.Correction.Weighted>
   9.000000E+99

> <Gold.Protein.RotatedTorsions>
[ 6907 6896 6895 6894 ] final -151.27 input  -60.11 | X-H torsion
[ 7974 7965 7964 7962 ] final  -20.46 input  175.53 | X-H torsion
[ 8008 7997 7996 7995 ] final  166.05 input   59.86 | X-H torsion
[ 10167 10162 10161 10158 ] final  -10.79 input  -65.29 | X-H torsion
[ 10718 10713 10712 10709 ] final  -27.26 input   66.30 | X-H torsion
[ 10763 10752 10751 10750 ] final  -56.97 input  -60.55 | X-H torsion
[ 11005 11000 10999 10996 ] final -108.30 input  -57.11 | X-H torsion

> <Gold.Protein.ActiveResidues>
 VAL166  LYS551  ARG553  GLY616  TRP617  ASP618  TYR619  PRO620  LYS621  CYS622 
 ASP623  PHE694  ASN695  SER759  ASP760  ASP761  ALA762  ILE779  LEU786  VAL792 
 PHE793  MET794  SER795  GLU796  ALA797  LYS798  CYS799  TRP800  GLU811  SER814 

> <Gold.Protein.RotatedAtoms>
  151.2106  133.4558  159.2597 H   0  0  0  0  0  0  0  0  0  0  0  0  # atno 6907 bound_to 6896
  151.0980  134.9956  159.8445 H   0  0  0  0  0  0  0  0  0  0  0  0  # atno 6908 bound_to 6896
  152.5441  134.2035  159.8774 H   0  0  0  0  0  0  0  0  0  0  0  0  # atno 6909 bound_to 6896
  146.1787  140.4205  142.8503 H   0  0  0  0  0  0  0  0  0  0  0  0  # atno 7974 bound_to 7965
  156.1751  140.1654  156.8378 H   0  0  0  0  0  0  0  0  0  0  0  0  # atno 8008 bound_to 7997
  154.5298  140.0759  156.8358 H   0  0  0  0  0  0  0  0  0  0  0  0  # atno 8009 bound_to 7997
  155.3431  140.3386  155.4241 H   0  0  0  0  0  0  0  0  0  0  0  0  # atno 8010 bound_to 7997
  140.7122  143.5710  150.9093 H   0  0  0  0  0  0  0  0  0  0  0  0  # atno 10167 bound_to 10162
  156.4405  130.4463  149.7056 H   0  0  0  0  0  0  0  0  0  0  0  0  # atno 10718 bound_to 10713
  154.2151  135.6388  153.5127 H   0  0  0  0  0  0  0  0  0  0  0  0  # atno 10763 bound_to 10752
  152.9981  135.5483  154.6174 H   0  0  0  0  0  0  0  0  0  0  0  0  # atno 10764 bound_to 10752
  154.5620  135.2910  155.0883 H   0  0  0  0  0  0  0  0  0  0  0  0  # atno 10765 bound_to 10752
  141.0909  133.9057  157.2078 H   0  0  0  0  0  0  0  0  0  0  0  0  # atno 11005 bound_to 11000
  144.8278  140.6658  143.6310 LP  0  0  0  0  0  0  0  0  0  0  0  0  # atno 17320 bound_to 7965
  145.4139  139.1575  143.4111 LP  0  0  0  0  0  0  0  0  0  0  0  0  # atno 17321 bound_to 7965
  139.9436  143.6353  152.3047 LP  0  0  0  0  0  0  0  0  0  0  0  0  # atno 17342 bound_to 10162
  139.6847  144.7652  151.1546 LP  0  0  0  0  0  0  0  0  0  0  0  0  # atno 17343 bound_to 10162
  156.3923  130.7633  151.2635 LP  0  0  0  0  0  0  0  0  0  0  0  0  # atno 17370 bound_to 10713
  157.7506  131.0264  150.3961 LP  0  0  0  0  0  0  0  0  0  0  0  0  # atno 17371 bound_to 10713
  139.9735  135.0121  156.9571 LP  0  0  0  0  0  0  0  0  0  0  0  0  # atno 17394 bound_to 11000
  140.5255  134.0865  155.7302 LP  0  0  0  0  0  0  0  0  0  0  0  0  # atno 17395 bound_to 11000

$$$$
