AV-unprocessed.smi:1702|AV-procd|sdf|6847|dock7
  -GOLD-   22720 8 23D 1   1.00000     0.00000
 Structure written by MMmdl.
 44 46  0  0  0  0  0  0  0  0  2 V2000
  146.0036  136.7023  156.6107 C   0  0  0  0  0  0  0  0  0  0  0  0
  146.7169  136.1070  155.3844 C   0  0  2  0  0  0  0  0  0  0  0  0
  148.2318  135.9375  155.6019 C   0  0  0  0  0  0  0  0  0  0  0  0
  148.9830  137.2804  155.5507 C   0  0  0  0  0  0  0  0  0  0  0  0
  148.7149  137.9968  154.2775 N   0  3  2  0  0  0  0  0  0  0  0  0
  149.5418  139.2227  154.1319 C   0  0  0  0  0  0  0  0  0  0  0  0
  148.8541  140.4713  154.7190 C   0  0  2  0  0  0  0  0  0  0  0  0
  148.0975  141.0950  153.6985 O   0  0  0  0  0  0  0  0  0  0  0  0
  149.8766  141.4756  155.2856 C   0  0  0  0  0  0  0  0  0  0  0  0
  150.4800  141.0162  156.5243 N   0  0  0  0  0  0  0  0  0  0  0  0
  150.7404  139.7413  156.8724 C   0  0  0  0  0  0  0  0  0  0  0  0
  151.2988  139.5359  158.0615 N   0  0  0  0  0  0  0  0  0  0  0  0
  151.4180  140.8285  158.5419 C   0  0  0  0  0  0  0  0  0  0  0  0
  151.9397  141.3077  159.7646 C   0  0  0  0  0  0  0  0  0  0  0  0
  151.9591  142.6906  160.0408 C   0  0  0  0  0  0  0  0  0  0  0  0
  152.4629  143.1329  161.2173 F   0  0  0  0  0  0  0  0  0  0  0  0
  151.4573  143.6139  159.0996 C   0  0  0  0  0  0  0  0  0  0  0  0
  151.4797  144.9401  159.3720 F   0  0  0  0  0  0  0  0  0  0  0  0
  150.9318  143.1602  157.8746 C   0  0  0  0  0  0  0  0  0  0  0  0
  150.9153  141.7795  157.6030 C   0  0  0  0  0  0  0  0  0  0  0  0
  147.2607  138.2400  154.0848 C   0  0  0  0  0  0  0  0  0  0  0  0
  146.4715  136.9185  154.0992 C   0  0  0  0  0  0  0  0  0  0  0  0
  146.3639  137.7018  156.8525 H   0  0  0  0  0  0  0  0  0  0  0  0
  146.1550  136.0767  157.4910 H   0  0  0  0  0  0  0  0  0  0  0  0
  144.9288  136.7716  156.4415 H   0  0  0  0  0  0  0  0  0  0  0  0
  146.2917  135.1140  155.2328 H   0  0  0  0  0  0  0  0  0  0  0  0
  148.4244  135.4361  156.5509 H   0  0  0  0  0  0  0  0  0  0  0  0
  148.6313  135.2806  154.8281 H   0  0  0  0  0  0  0  0  0  0  0  0
  148.7023  137.9119  156.3945 H   0  0  0  0  0  0  0  0  0  0  0  0
  150.0525  137.0885  155.6451 H   0  0  0  0  0  0  0  0  0  0  0  0
  150.5115  139.0593  154.6049 H   0  0  0  0  0  0  0  0  0  0  0  0
  149.7493  139.4092  153.0769 H   0  0  0  0  0  0  0  0  0  0  0  0
  148.1710  140.1871  155.5189 H   0  0  0  0  0  0  0  0  0  0  0  0
  148.2829  140.6663  152.8766 H   0  0  0  0  0  0  0  0  0  0  0  0
  150.6758  141.6458  154.5630 H   0  0  0  0  0  0  0  0  0  0  0  0
  149.4074  142.4443  155.4624 H   0  0  0  0  0  0  0  0  0  0  0  0
  150.5039  138.9167  156.2159 H   0  0  0  0  0  0  0  0  0  0  0  0
  152.3263  140.6104  160.4929 H   0  0  0  0  0  0  0  0  0  0  0  0
  150.5472  143.8666  157.1547 H   0  0  0  0  0  0  0  0  0  0  0  0
  146.8944  138.9108  154.8630 H   0  0  0  0  0  0  0  0  0  0  0  0
  147.0829  138.7426  153.1350 H   0  0  0  0  0  0  0  0  0  0  0  0
  146.7702  136.3203  153.2372 H   0  0  0  0  0  0  0  0  0  0  0  0
  145.4063  137.1160  153.9739 H   0  0  0  0  0  0  0  0  0  0  0  0
  149.0092  137.3724  153.5395 H   0  0  0  0  0  0  0  0  0  0  0  0
  1  2  1  0  0  0  0
  1 23  1  0  0  0  0
  1 24  1  0  0  0  0
  1 25  1  0  0  0  0
  2 22  1  0  0  0  0
  2  3  1  0  0  0  0
  2 26  1  0  0  0  0
  3  4  1  0  0  0  0
  3 27  1  0  0  0  0
  3 28  1  0  0  0  0
  4  5  1  0  0  0  0
  4 29  1  0  0  0  0
  4 30  1  0  0  0  0
  5  6  1  0  0  0  0
  5 21  1  0  0  0  0
  5 44  1  0  0  0  0
  6  7  1  0  0  0  0
  6 31  1  0  0  0  0
  6 32  1  0  0  0  0
  7  8  1  0  0  0  0
  7  9  1  0  0  0  0
  7 33  1  0  0  0  0
  8 34  1  0  0  0  0
  9 10  1  0  0  0  0
  9 35  1  0  0  0  0
  9 36  1  0  0  0  0
 10 20  1  0  0  0  0
 10 11  1  0  0  0  0
 11 12  2  0  0  0  0
 11 37  1  0  0  0  0
 12 13  1  0  0  0  0
 13 20  2  0  0  0  0
 13 14  1  0  0  0  0
 14 15  2  0  0  0  0
 14 38  1  0  0  0  0
 15 16  1  0  0  0  0
 15 17  1  0  0  0  0
 17 18  1  0  0  0  0
 17 19  2  0  0  0  0
 19 20  1  0  0  0  0
 19 39  1  0  0  0  0
 21 22  1  0  0  0  0
 21 40  1  0  0  0  0
 21 41  1  0  0  0  0
 22 42  1  0  0  0  0
 22 43  1  0  0  0  0
M  CHG  1   5   1
M  END
> <s_m_source_file>
AV-unprocessed.smi

> <i_m_source_file_index>
1702

> <i_lp_mmshare_version>
43012

> <i_f3d_flags>
0

> <s_epik_input>
W0NIM11bQ0hdMVtDSDJdW0NIMl1OKFtDSDJdW0NIMl0xKVtDSDJdW0NASF0oW09IXSlbQ0gyXW4oW2NIXW4yKWMoYzIzKVtjSF1jKEYpYyhGKVtjSF0z

> <s_epik_cmdline>
J2VwaWtfcHl0aG9uJywgJy1waCcsICc3LjAnLCAnLXRuJywgJzgnLCAnLW1hJywgJzIwMCcsICctbWV0YWxfYmluZGluZycsICctaW1hZScsICc8aW5maWxlLm1hZT4nLCAnLW9tYWUnLCAnPG91dGZpbGUubWFlPic=

> <r_epik_Ionization_Penalty>
0.0135195

> <r_epik_Ionization_Penalty_Charging>
0.00181365

> <r_epik_Ionization_Penalty_Neutral>
0.0117059

> <r_epik_State_Penalty>
0.00902283

> <r_epik_Charging_Adjusted_Penalty>
0.0108365

> <i_epik_Tot_Q>
1

> <i_epik_Tot_abs_Q>
1

> <r_epik_Metal_State_Penalty>
9.09181e-06

> <b_epik_Metal_Only>
0

> <s_lp_Force_Field>
OPLS_2005

> <r_lp_Energy>
24.0829

> <b_lp_Chiralities_Consistent>
1

> <s_lp_Variant>
AV-unprocessed.smi:1702-3

> <Gold.Version>
5.8.1

> <Gold.Id.Protein>
6NUR|6NUR_protein|mol2

> <Gold.PLP.Fitness>
45.8499

> <Gold.PLP.PLP>
-39.0992

> <Gold.PLP.part.hbond>
-3.0000

> <Gold.PLP.part.metal>
0.0000

> <Gold.PLP.part.buried>
-2.6224

> <Gold.PLP.part.nonpolar>
-33.8197

> <Gold.PLP.part.repulsive>
0.0008

> <Gold.PLP.ligand.clash>
0.0000

> <Gold.PLP.ligand.torsion>
1.1498

> <Gold.PLP.Chemscore.Hbond>
3.0000

> <Gold.PLP.Chemscore.CHOScore>
0.0000

> <Gold.PLP.Chemscore.Metal>
0.0000

> <Gold.Chemscore.Hbonds>
donor molecule, donor type, donor heavy atom, donor atom, acceptor molecule, acceptor atom, score
      L1  H     5    44       P1  7948  2.00
      L1  H     8    34       P1  7957  0.46

> <Gold.PLP.Chemscore.Internal.Correction>
0.0503

> <Gold.Rescore>
     Score         DG    S(hbond)    S(metal)    S(lipo)     H(rot)  DE(clash)    DE(int)     intcor
     12.58     -15.87       1.95        0.00      82.54       2.26       1.27       2.02       ----

> <Gold.Chemscore.Fitness>
12.5773

> <Gold.Chemscore.DG>
-15.8690

> <Gold.Chemscore.ZeroCoef>
-5.4800

> <Gold.Chemscore.Hbond>
1.9527

> <Gold.Chemscore.Metal>
0.0000

> <Gold.Chemscore.Lipo>
82.5416

> <Gold.Chemscore.Internal_Hbond>
0.0000

> <Gold.Chemscore.DEClash>
1.2734

> <Gold.Chemscore.DEInternal>
2.0184

> <Gold.Chemscore.Rot>
2.2619

> <Gold.Chemscore.Internal.Correction>
   9.000000E+99

> <Gold.Chemscore.Hbonds>
donor molecule, donor type, donor heavy atom, donor atom, acceptor molecule, acceptor atom, score
      L1  H     5    44       P1  7948  0.95
      L1  H     8    34       P1  7957  0.45

> <Gold.Chemscore.Hbond.Weighted>
-6.5221

> <Gold.Chemscore.Metal.Weighted>
-0.0000

> <Gold.Chemscore.Lipo.Weighted>
-9.6574

> <Gold.Chemscore.Internal_Hbond.Weighted>
0.0000

> <Gold.Chemscore.DEClash.Weighted>
1.2734

> <Gold.Chemscore.DEInternal.Weighted>
2.0184

> <Gold.Chemscore.Rot.Weighted>
5.7904

> <Gold.Chemscore.Internal.Correction.Weighted>
   9.000000E+99

> <Gold.Protein.RotatedTorsions>
[ 6907 6896 6895 6894 ] final  130.57 input  -60.11 | X-H torsion
[ 7974 7965 7964 7962 ] final   70.65 input  175.53 | X-H torsion
[ 8008 7997 7996 7995 ] final -136.31 input   59.86 | X-H torsion
[ 10167 10162 10161 10158 ] final    9.40 input  -65.29 | X-H torsion
[ 10718 10713 10712 10709 ] final  -65.86 input   66.30 | X-H torsion
[ 10763 10752 10751 10750 ] final -176.20 input  -60.55 | X-H torsion
[ 11005 11000 10999 10996 ] final -155.05 input  -57.11 | X-H torsion

> <Gold.Protein.ActiveResidues>
 VAL166  LYS551  ARG553  GLY616  TRP617  ASP618  TYR619  PRO620  LYS621  CYS622 
 ASP623  PHE694  ASN695  SER759  ASP760  ASP761  ALA762  ILE779  LEU786  VAL792 
 PHE793  MET794  SER795  GLU796  ALA797  LYS798  CYS799  TRP800  GLU811  SER814 

> <Gold.Protein.RotatedAtoms>
  152.3512  133.6182  159.5946 H   0  0  0  0  0  0  0  0  0  0  0  0  # atno 6907 bound_to 6896
  150.7539  133.9570  159.3512 H   0  0  0  0  0  0  0  0  0  0  0  0  # atno 6908 bound_to 6896
  151.7422  135.0852  160.0368 H   0  0  0  0  0  0  0  0  0  0  0  0  # atno 6909 bound_to 6896
  145.7756  139.2863  143.1296 H   0  0  0  0  0  0  0  0  0  0  0  0  # atno 7974 bound_to 7965
  155.3931  140.0501  157.3040 H   0  0  0  0  0  0  0  0  0  0  0  0  # atno 8008 bound_to 7997
  154.5026  140.2162  155.9276 H   0  0  0  0  0  0  0  0  0  0  0  0  # atno 8009 bound_to 7997
  156.1487  140.3140  155.8617 H   0  0  0  0  0  0  0  0  0  0  0  0  # atno 8010 bound_to 7997
  140.6257  143.8106  150.7230 H   0  0  0  0  0  0  0  0  0  0  0  0  # atno 10167 bound_to 10162
  156.0645  130.4253  150.1625 H   0  0  0  0  0  0  0  0  0  0  0  0  # atno 10718 bound_to 10713
  154.5753  135.2831  155.0787 H   0  0  0  0  0  0  0  0  0  0  0  0  # atno 10763 bound_to 10752
  154.2144  135.6402  153.5129 H   0  0  0  0  0  0  0  0  0  0  0  0  # atno 10764 bound_to 10752
  153.0070  135.5499  154.6389 H   0  0  0  0  0  0  0  0  0  0  0  0  # atno 10765 bound_to 10752
  140.6907  134.4045  157.5219 H   0  0  0  0  0  0  0  0  0  0  0  0  # atno 11005 bound_to 11000
  146.0126  140.8421  142.9963 LP  0  0  0  0  0  0  0  0  0  0  0  0  # atno 17320 bound_to 7965
  144.6805  140.2512  143.7331 LP  0  0  0  0  0  0  0  0  0  0  0  0  # atno 17321 bound_to 7965
  140.1706  143.4197  152.2003 LP  0  0  0  0  0  0  0  0  0  0  0  0  # atno 17342 bound_to 10162
  139.5478  144.7313  151.4529 LP  0  0  0  0  0  0  0  0  0  0  0  0  # atno 17343 bound_to 10162
  156.9688  130.9828  151.3463 LP  0  0  0  0  0  0  0  0  0  0  0  0  # atno 17370 bound_to 10713
  157.5677  130.8289  149.8350 LP  0  0  0  0  0  0  0  0  0  0  0  0  # atno 17371 bound_to 10713
  139.8924  134.8755  156.2271 LP  0  0  0  0  0  0  0  0  0  0  0  0  # atno 17394 bound_to 11000
  141.0244  133.7023  156.1322 LP  0  0  0  0  0  0  0  0  0  0  0  0  # atno 17395 bound_to 11000

$$$$
