AV-unprocessed.smi:2289|AV-procd|sdf|9209|dock2
  -GOLD-   2272012423D 1   1.00000     0.00000
 Structure written by MMmdl.
 40 41  0  0  0  0  0  0  0  0  1 V2000
  147.0713  132.4318  160.8509 C   0  0  0  0  0  0  0  0  0  0  0  0
  147.4876  133.8046  160.3534 C   0  0  0  0  0  0  0  0  0  0  0  0
  147.8594  133.8720  159.0077 N   0  0  0  0  0  0  0  0  0  0  0  0
  148.2253  135.0015  158.4963 C   0  0  0  0  0  0  0  0  0  0  0  0
  148.2629  136.1810  159.2591 N   0  0  0  0  0  0  0  0  0  0  0  0
  148.6854  137.4025  158.5520 C   0  0  0  0  0  0  0  0  0  0  0  0
  150.0840  137.8824  159.0030 C   0  0  1  0  0  0  0  0  0  0  0  0
  150.8999  136.7489  159.2177 O   0  0  0  0  0  0  0  0  0  0  0  0
  150.7605  138.7587  157.9272 C   0  0  0  0  0  0  0  0  0  0  0  0
  151.3520  140.0509  158.4841 C   0  0  0  0  0  0  0  0  0  0  0  0
  150.5955  141.2347  158.3348 C   0  0  0  0  0  0  0  0  0  0  0  0
  151.0732  142.4634  158.8230 C   0  0  0  0  0  0  0  0  0  0  0  0
  152.3214  142.5206  159.4642 C   0  0  0  0  0  0  0  0  0  0  0  0
  153.0891  141.3509  159.6110 C   0  0  0  0  0  0  0  0  0  0  0  0
  152.6223  140.1061  159.1250 C   0  0  0  0  0  0  0  0  0  0  0  0
  153.5026  138.8662  159.2907 C   0  0  0  0  0  0  0  0  0  0  0  0
  154.6789  139.1648  159.8437 F   0  0  0  0  0  0  0  0  0  0  0  0
  152.9068  137.9701  160.0762 F   0  0  0  0  0  0  0  0  0  0  0  0
  153.7437  138.3174  158.0999 F   0  0  0  0  0  0  0  0  0  0  0  0
  147.9142  136.2038  160.5781 C   0  0  0  0  0  0  0  0  0  0  0  0
  147.9447  137.2428  161.2397 O   0  0  0  0  0  0  0  0  0  0  0  0
  147.5027  134.9101  161.1474 C   0  0  0  0  0  0  0  0  0  0  0  0
  147.1080  134.8966  162.6191 C   0  0  0  0  0  0  0  0  0  0  0  0
  147.7432  132.0915  161.6392 H   0  0  0  0  0  0  0  0  0  0  0  0
  147.0962  131.6939  160.0483 H   0  0  0  0  0  0  0  0  0  0  0  0
  146.0554  132.4598  161.2459 H   0  0  0  0  0  0  0  0  0  0  0  0
  148.5193  135.1102  157.4508 H   0  0  0  0  0  0  0  0  0  0  0  0
  148.6531  137.2788  157.4676 H   0  0  0  0  0  0  0  0  0  0  0  0
  147.9507  138.1861  158.7483 H   0  0  0  0  0  0  0  0  0  0  0  0
  149.9967  138.4444  159.9333 H   0  0  0  0  0  0  0  0  0  0  0  0
  151.7939  136.9768  159.0128 H   0  0  0  0  0  0  0  0  0  0  0  0
  151.4856  138.1726  157.3661 H   0  0  0  0  0  0  0  0  0  0  0  0
  150.0129  139.0606  157.1926 H   0  0  0  0  0  0  0  0  0  0  0  0
  149.6354  141.2033  157.8407 H   0  0  0  0  0  0  0  0  0  0  0  0
  150.4830  143.3603  158.7044 H   0  0  0  0  0  0  0  0  0  0  0  0
  152.6932  143.4625  159.8402 H   0  0  0  0  0  0  0  0  0  0  0  0
  154.0480  141.4270  160.1014 H   0  0  0  0  0  0  0  0  0  0  0  0
  146.2425  135.5395  162.7811 H   0  0  0  0  0  0  0  0  0  0  0  0
  147.9276  135.2722  163.2322 H   0  0  0  0  0  0  0  0  0  0  0  0
  146.8546  133.9040  162.9875 H   0  0  0  0  0  0  0  0  0  0  0  0
  1  2  1  0  0  0  0
  1 24  1  0  0  0  0
  1 25  1  0  0  0  0
  1 26  1  0  0  0  0
  2 22  2  0  0  0  0
  2  3  1  0  0  0  0
  3  4  2  0  0  0  0
  4  5  1  0  0  0  0
  4 27  1  0  0  0  0
  5  6  1  0  0  0  0
  5 20  1  0  0  0  0
  6  7  1  0  0  0  0
  6 28  1  0  0  0  0
  6 29  1  0  0  0  0
  7  8  1  0  0  0  0
  7  9  1  0  0  0  0
  7 30  1  0  0  0  0
  8 31  1  0  0  0  0
  9 10  1  0  0  0  0
  9 32  1  0  0  0  0
  9 33  1  0  0  0  0
 10 15  1  0  0  0  0
 10 11  2  0  0  0  0
 11 12  1  0  0  0  0
 11 34  1  0  0  0  0
 12 13  2  0  0  0  0
 12 35  1  0  0  0  0
 13 14  1  0  0  0  0
 13 36  1  0  0  0  0
 14 15  2  0  0  0  0
 14 37  1  0  0  0  0
 15 16  1  0  0  0  0
 16 17  1  0  0  0  0
 16 18  1  0  0  0  0
 16 19  1  0  0  0  0
 20 21  2  0  0  0  0
 20 22  1  0  0  0  0
 22 23  1  0  0  0  0
 23 38  1  0  0  0  0
 23 39  1  0  0  0  0
 23 40  1  0  0  0  0
M  END
> <s_m_source_file>
AV-unprocessed.smi

> <i_m_source_file_index>
2289

> <i_lp_mmshare_version>
43012

> <i_f3d_flags>
0

> <s_epik_input>
W0NIM11jMW5bY0hdbihjKD1PKWMxW0NIM10pW0NIMl1bQ0BIXShbT0hdKVtDSDJdYzJbY0hdW2NIXVtjSF1bY0hdYzJDKEYpKEYpRg==

> <s_epik_cmdline>
J2VwaWtfcHl0aG9uJywgJy1waCcsICc3LjAnLCAnLXRuJywgJzgnLCAnLW1hJywgJzIwMCcsICctbWV0YWxfYmluZGluZycsICctaW1hZScsICc8aW5maWxlLm1hZT4nLCAnLW9tYWUnLCAnPG91dGZpbGUubWFlPic=

> <r_lp_tautomer_probability>
1

> <r_epik_Ionization_Penalty>
8.92636e-05

> <r_epik_Ionization_Penalty_Charging>
8.63033e-08

> <r_epik_Ionization_Penalty_Neutral>
8.91773e-05

> <r_epik_State_Penalty>
-0

> <r_epik_Charging_Adjusted_Penalty>
8.63033e-08

> <i_epik_Tot_Q>
0

> <i_epik_Tot_abs_Q>
0

> <r_epik_Metal_State_Penalty>
-0

> <b_epik_Metal_Only>
0

> <s_lp_Force_Field>
OPLS_2005

> <r_lp_Energy>
23.2294

> <b_lp_Chiralities_Consistent>
1

> <s_lp_Variant>
AV-unprocessed.smi:2289-2

> <Gold.Version>
5.8.1

> <Gold.Id.Protein>
6NUR|6NUR_protein|mol2

> <Gold.PLP.Fitness>
44.2028

> <Gold.PLP.PLP>
-38.8402

> <Gold.PLP.part.hbond>
-2.9026

> <Gold.PLP.part.metal>
0.0000

> <Gold.PLP.part.buried>
-3.4663

> <Gold.PLP.part.nonpolar>
-32.3064

> <Gold.PLP.part.repulsive>
0.0000

> <Gold.PLP.ligand.clash>
1.3316

> <Gold.PLP.ligand.torsion>
1.3571

> <Gold.PLP.Chemscore.Hbond>
2.6503

> <Gold.PLP.Chemscore.CHOScore>
0.0000

> <Gold.PLP.Chemscore.Metal>
0.0000

> <Gold.Chemscore.Hbonds>
donor molecule, donor type, donor heavy atom, donor atom, acceptor molecule, acceptor atom, score
      P1  H  6896  6909       L1     8  1.00
      P1  H  6931  6943       L1    21  0.99
      P1  H  6934  6947       L1    21  0.70

> <Gold.PLP.Chemscore.Internal.Correction>
1.4577

> <Gold.Rescore>
     Score         DG    S(hbond)    S(metal)    S(lipo)     H(rot)  DE(clash)    DE(int)     intcor
     13.16     -17.83       2.50        0.00      85.94       2.37       0.69       3.98       ----

> <Gold.Chemscore.Fitness>
13.1571

> <Gold.Chemscore.DG>
-17.8309

> <Gold.Chemscore.ZeroCoef>
-5.4800

> <Gold.Chemscore.Hbond>
2.5026

> <Gold.Chemscore.Metal>
0.0000

> <Gold.Chemscore.Lipo>
85.9356

> <Gold.Chemscore.Internal_Hbond>
0.0000

> <Gold.Chemscore.DEClash>
0.6920

> <Gold.Chemscore.DEInternal>
3.9818

> <Gold.Chemscore.Rot>
2.3681

> <Gold.Chemscore.Internal.Correction>
   9.000000E+99

> <Gold.Chemscore.Hbonds>
donor molecule, donor type, donor heavy atom, donor atom, acceptor molecule, acceptor atom, score
      P1  H  6896  6909       L1     8  0.30
      P1  H  6931  6943       L1    21  0.94
      P1  H  6934  6947       L1    21  0.71

> <Gold.Chemscore.Hbond.Weighted>
-8.3588

> <Gold.Chemscore.Metal.Weighted>
-0.0000

> <Gold.Chemscore.Lipo.Weighted>
-10.0545

> <Gold.Chemscore.Internal_Hbond.Weighted>
0.0000

> <Gold.Chemscore.DEClash.Weighted>
0.6920

> <Gold.Chemscore.DEInternal.Weighted>
3.9818

> <Gold.Chemscore.Rot.Weighted>
6.0624

> <Gold.Chemscore.Internal.Correction.Weighted>
   9.000000E+99

> <Gold.Protein.RotatedTorsions>
[ 6907 6896 6895 6894 ] final   90.04 input  -60.11 | X-H torsion
[ 7974 7965 7964 7962 ] final   57.39 input  175.53 | X-H torsion
[ 8008 7997 7996 7995 ] final   68.99 input   59.86 | X-H torsion
[ 10167 10162 10161 10158 ] final   69.54 input  -65.29 | X-H torsion
[ 10718 10713 10712 10709 ] final  127.63 input   66.30 | X-H torsion
[ 10763 10752 10751 10750 ] final  111.55 input  -60.55 | X-H torsion
[ 11005 11000 10999 10996 ] final   38.70 input  -57.11 | X-H torsion

> <Gold.Protein.ActiveResidues>
 VAL166  LYS551  ARG553  GLY616  TRP617  ASP618  TYR619  PRO620  LYS621  CYS622 
 ASP623  PHE694  ASN695  SER759  ASP760  ASP761  ALA762  ILE779  LEU786  VAL792 
 PHE793  MET794  SER795  GLU796  ALA797  LYS798  CYS799  TRP800  GLU811  SER814 

> <Gold.Protein.RotatedAtoms>
  152.5441  134.1873  159.8659 H   0  0  0  0  0  0  0  0  0  0  0  0  # atno 6907 bound_to 6896
  151.1871  133.4682  159.2602 H   0  0  0  0  0  0  0  0  0  0  0  0  # atno 6908 bound_to 6896
  151.1120  135.0044  159.8554 H   0  0  0  0  0  0  0  0  0  0  0  0  # atno 6909 bound_to 6896
  145.9295  139.3796  143.0429 H   0  0  0  0  0  0  0  0  0  0  0  0  # atno 7974 bound_to 7965
  155.7168  140.3494  155.4998 H   0  0  0  0  0  0  0  0  0  0  0  0  # atno 8008 bound_to 7997
  155.9306  140.1083  157.1157 H   0  0  0  0  0  0  0  0  0  0  0  0  # atno 8009 bound_to 7997
  154.4084  140.1232  156.4784 H   0  0  0  0  0  0  0  0  0  0  0  0  # atno 8010 bound_to 7997
  140.0667  144.5187  150.7255 H   0  0  0  0  0  0  0  0  0  0  0  0  # atno 10167 bound_to 10162
  157.5316  131.1098  150.9000 H   0  0  0  0  0  0  0  0  0  0  0  0  # atno 10718 bound_to 10713
  153.4650  135.3713  155.2359 H   0  0  0  0  0  0  0  0  0  0  0  0  # atno 10763 bound_to 10752
  154.8757  135.3917  154.3880 H   0  0  0  0  0  0  0  0  0  0  0  0  # atno 10764 bound_to 10752
  153.4459  135.7085  153.6204 H   0  0  0  0  0  0  0  0  0  0  0  0  # atno 10765 bound_to 10752
  140.2100  134.3766  155.8053 H   0  0  0  0  0  0  0  0  0  0  0  0  # atno 11005 bound_to 11000
  145.8444  140.9563  143.0782 LP  0  0  0  0  0  0  0  0  0  0  0  0  # atno 17320 bound_to 7965
  144.6763  140.0326  143.7482 LP  0  0  0  0  0  0  0  0  0  0  0  0  # atno 17321 bound_to 7965
  140.7145  143.2533  151.4477 LP  0  0  0  0  0  0  0  0  0  0  0  0  # atno 17342 bound_to 10162
  139.5860  144.1603  152.2030 LP  0  0  0  0  0  0  0  0  0  0  0  0  # atno 17343 bound_to 10162
  156.9580  130.5444  149.5285 LP  0  0  0  0  0  0  0  0  0  0  0  0  # atno 17370 bound_to 10713
  156.0427  130.5507  150.8808 LP  0  0  0  0  0  0  0  0  0  0  0  0  # atno 17371 bound_to 10713
  141.2226  133.7138  156.8402 LP  0  0  0  0  0  0  0  0  0  0  0  0  # atno 17394 bound_to 11000
  140.1961  134.8931  157.3116 LP  0  0  0  0  0  0  0  0  0  0  0  0  # atno 17395 bound_to 11000

$$$$
