AV-unprocessed.smi:554|AV-procd|sdf|2907|dock5
  -GOLD-   2262023403D 1   1.00000     0.00000
 Structure written by MMmdl.
 27 28  0  0  0  0  0  0  0  0  1 V2000
  152.7877  143.2482  160.7720 C   0  0  0  0  0  0  0  0  0  0  0  0
  151.7925  144.2564  160.2332 C   0  0  1  0  0  0  0  0  0  0  0  0
  152.2004  145.2358  159.1576 C   0  0  0  0  0  0  0  0  0  0  0  0
  151.1802  144.1654  158.8473 C   0  0  1  0  0  0  0  0  0  0  0  0
  151.5073  143.0725  157.8448 C   0  0  0  0  0  0  0  0  0  0  0  0
  150.5377  142.9321  156.7655 N   0  0  0  0  0  0  0  0  0  0  0  0
  150.1282  141.7709  156.2355 C   0  0  0  0  0  0  0  0  0  0  0  0
  150.5554  140.6717  156.5889 O   0  0  0  0  0  0  0  0  0  0  0  0
  149.2031  141.9735  155.2810 N   0  0  0  0  0  0  0  0  0  0  0  0
  148.5240  141.0046  154.4966 C   0  0  0  0  0  0  0  0  0  0  0  0
  147.4586  141.2651  153.7302 N   0  0  0  0  0  0  0  0  0  0  0  0
  146.9955  140.1240  153.0702 C   0  0  0  0  0  0  0  0  0  0  0  0
  147.7257  138.9953  153.3472 C   0  0  0  0  0  0  0  0  0  0  0  0
  149.0312  139.3222  154.4555 S   0  0  0  0  0  0  0  0  0  0  0  0
  153.4954  142.9350  160.0053 H   0  0  0  0  0  0  0  0  0  0  0  0
  152.2639  142.3687  161.1466 H   0  0  0  0  0  0  0  0  0  0  0  0
  153.3512  143.6881  161.5947 H   0  0  0  0  0  0  0  0  0  0  0  0
  151.1295  144.6467  161.0029 H   0  0  0  0  0  0  0  0  0  0  0  0
  151.8427  146.2594  159.2485 H   0  0  0  0  0  0  0  0  0  0  0  0
  153.1937  145.1279  158.7259 H   0  0  0  0  0  0  0  0  0  0  0  0
  150.1530  144.5166  158.7676 H   0  0  0  0  0  0  0  0  0  0  0  0
  152.4629  143.3218  157.3839 H   0  0  0  0  0  0  0  0  0  0  0  0
  151.6696  142.1228  158.3551 H   0  0  0  0  0  0  0  0  0  0  0  0
  150.1351  143.7853  156.4066 H   0  0  0  0  0  0  0  0  0  0  0  0
  148.9506  142.9333  155.0975 H   0  0  0  0  0  0  0  0  0  0  0  0
  146.1373  140.2055  152.4199 H   0  0  0  0  0  0  0  0  0  0  0  0
  147.5749  137.9955  152.9680 H   0  0  0  0  0  0  0  0  0  0  0  0
  1  2  1  0  0  0  0
  1 15  1  0  0  0  0
  1 16  1  0  0  0  0
  1 17  1  0  0  0  0
  2  4  1  0  0  0  0
  2  3  1  0  0  0  0
  2 18  1  0  0  0  0
  3  4  1  0  0  0  0
  3 19  1  0  0  0  0
  3 20  1  0  0  0  0
  4  5  1  0  0  0  0
  4 21  1  0  0  0  0
  5  6  1  0  0  0  0
  5 22  1  0  0  0  0
  5 23  1  0  0  0  0
  6  7  1  0  0  0  0
  6 24  1  0  0  0  0
  7  8  2  0  0  0  0
  7  9  1  0  0  0  0
  9 10  1  0  0  0  0
  9 25  1  0  0  0  0
 10 14  1  0  0  0  0
 10 11  2  0  0  0  0
 11 12  1  0  0  0  0
 12 13  2  0  0  0  0
 12 26  1  0  0  0  0
 13 14  1  0  0  0  0
 13 27  1  0  0  0  0
M  END
> <s_m_source_file>
AV-unprocessed.smi

> <i_m_source_file_index>
554

> <i_lp_mmshare_version>
43012

> <i_f3d_flags>
0

> <s_epik_input>
W0NIM11bQ0BASF0xW0NIMl1bQ0BIXTFbQ0gyXVtOSF1DKD1PKVtOSF1jMm5bY0hdW2NIXXMy

> <s_epik_cmdline>
J2VwaWtfcHl0aG9uJywgJy1waCcsICc3LjAnLCAnLXRuJywgJzgnLCAnLW1hJywgJzIwMCcsICctbWV0YWxfYmluZGluZycsICctaW1hZScsICc8aW5maWxlLm1hZT4nLCAnLW9tYWUnLCAnPG91dGZpbGUubWFlPic=

> <r_lp_tautomer_probability>
0.999

> <r_epik_Ionization_Penalty>
0.00042678

> <r_epik_Ionization_Penalty_Charging>
0

> <r_epik_Ionization_Penalty_Neutral>
0.00042678

> <r_epik_State_Penalty>
0.000177984

> <r_epik_Charging_Adjusted_Penalty>
0.000177984

> <i_epik_Tot_Q>
0

> <i_epik_Tot_abs_Q>
0

> <r_epik_Metal_State_Penalty>
-0

> <b_epik_Metal_Only>
0

> <s_lp_Force_Field>
OPLS_2005

> <r_lp_Energy>
14.702

> <b_lp_Chiralities_Consistent>
1

> <s_lp_Variant>
AV-unprocessed.smi:554-2

> <Gold.Version>
5.8.1

> <Gold.Id.Protein>
6NUR|6NUR_protein|mol2

> <Gold.PLP.Fitness>
42.6835

> <Gold.PLP.PLP>
-31.4121

> <Gold.PLP.part.hbond>
-2.0000

> <Gold.PLP.part.metal>
0.0000

> <Gold.PLP.part.buried>
-4.0077

> <Gold.PLP.part.nonpolar>
-26.6589

> <Gold.PLP.part.repulsive>
0.4123

> <Gold.PLP.ligand.clash>
0.0000

> <Gold.PLP.ligand.torsion>
0.6243

> <Gold.PLP.Chemscore.Hbond>
2.0000

> <Gold.PLP.Chemscore.CHOScore>
2.0000

> <Gold.PLP.Chemscore.Metal>
0.0000

> <Gold.Chemscore.Hbonds>
donor molecule, donor type, donor heavy atom, donor atom, acceptor molecule, acceptor atom, score
      L1  H     6    24       P1  8028  1.00
      L1  H     9    25       P1  8028  1.00
      L1  C    12    26       P1 10175  1.00
      L1  C    13    27       P1  7948  1.00

> <Gold.PLP.Chemscore.Internal.Correction>
0.5200

> <Gold.Rescore>
     Score         DG    S(hbond)    S(metal)    S(lipo)     H(rot)  DE(clash)    DE(int)     intcor
     16.25     -18.09       1.96        0.00      79.79       1.28       0.03       1.80       ----

> <Gold.Chemscore.Fitness>
16.2535

> <Gold.Chemscore.DG>
-18.0890

> <Gold.Chemscore.ZeroCoef>
-5.4800

> <Gold.Chemscore.Hbond>
1.9603

> <Gold.Chemscore.Metal>
0.0000

> <Gold.Chemscore.Lipo>
79.7916

> <Gold.Chemscore.Internal_Hbond>
0.0000

> <Gold.Chemscore.DEClash>
0.0335

> <Gold.Chemscore.DEInternal>
1.8021

> <Gold.Chemscore.Rot>
1.2788

> <Gold.Chemscore.Internal.Correction>
   9.000000E+99

> <Gold.Chemscore.Hbonds>
donor molecule, donor type, donor heavy atom, donor atom, acceptor molecule, acceptor atom, score
      L1  H     6    24       P1  8028  0.98
      L1  H     9    25       P1  8028  0.95

> <Gold.Chemscore.Hbond.Weighted>
-6.5472

> <Gold.Chemscore.Metal.Weighted>
-0.0000

> <Gold.Chemscore.Lipo.Weighted>
-9.3356

> <Gold.Chemscore.Internal_Hbond.Weighted>
0.0000

> <Gold.Chemscore.DEClash.Weighted>
0.0335

> <Gold.Chemscore.DEInternal.Weighted>
1.8021

> <Gold.Chemscore.Rot.Weighted>
3.2738

> <Gold.Chemscore.Internal.Correction.Weighted>
   9.000000E+99

> <Gold.Protein.RotatedTorsions>
[ 6907 6896 6895 6894 ] final  -20.14 input  -60.11 | X-H torsion
[ 7974 7965 7964 7962 ] final   -8.56 input  175.53 | X-H torsion
[ 8008 7997 7996 7995 ] final  156.52 input   59.86 | X-H torsion
[ 10167 10162 10161 10158 ] final  104.48 input  -65.29 | X-H torsion
[ 10718 10713 10712 10709 ] final -112.77 input   66.30 | X-H torsion
[ 10763 10752 10751 10750 ] final   81.48 input  -60.55 | X-H torsion
[ 11005 11000 10999 10996 ] final  -60.58 input  -57.11 | X-H torsion

> <Gold.Protein.ActiveResidues>
 VAL166  LYS551  ARG553  GLY616  TRP617  ASP618  TYR619  PRO620  LYS621  CYS622 
 ASP623  PHE694  ASN695  SER759  ASP760  ASP761  ALA762  ILE779  LEU786  VAL792 
 PHE793  MET794  SER795  GLU796  ALA797  LYS798  CYS799  TRP800  GLU811  SER814 

> <Gold.Protein.RotatedAtoms>
  151.2526  135.0627  159.9067 H   0  0  0  0  0  0  0  0  0  0  0  0  # atno 6907 bound_to 6896
  152.5378  134.0316  159.8037 H   0  0  0  0  0  0  0  0  0  0  0  0  # atno 6908 bound_to 6896
  151.0527  133.5561  159.2672 H   0  0  0  0  0  0  0  0  0  0  0  0  # atno 6909 bound_to 6896
  146.2277  140.2487  142.8346 H   0  0  0  0  0  0  0  0  0  0  0  0  # atno 7974 bound_to 7965
  156.2418  140.1910  156.6967 H   0  0  0  0  0  0  0  0  0  0  0  0  # atno 8008 bound_to 7997
  154.6211  140.0608  156.9643 H   0  0  0  0  0  0  0  0  0  0  0  0  # atno 8009 bound_to 7997
  155.1860  140.3280  155.4369 H   0  0  0  0  0  0  0  0  0  0  0  0  # atno 8010 bound_to 7997
  139.7173  144.7065  151.0929 H   0  0  0  0  0  0  0  0  0  0  0  0  # atno 10167 bound_to 10162
  156.0726  130.5937  150.8553 H   0  0  0  0  0  0  0  0  0  0  0  0  # atno 10718 bound_to 10713
  153.1121  135.4764  154.9052 H   0  0  0  0  0  0  0  0  0  0  0  0  # atno 10763 bound_to 10752
  154.7491  135.3101  154.8593 H   0  0  0  0  0  0  0  0  0  0  0  0  # atno 10764 bound_to 10752
  153.9180  135.6858  153.4802 H   0  0  0  0  0  0  0  0  0  0  0  0  # atno 10765 bound_to 10752
  141.1292  133.6623  156.5244 H   0  0  0  0  0  0  0  0  0  0  0  0  # atno 11005 bound_to 11000
  144.9429  140.8097  143.5619 LP  0  0  0  0  0  0  0  0  0  0  0  0  # atno 17320 bound_to 7965
  145.2440  139.2060  143.4977 LP  0  0  0  0  0  0  0  0  0  0  0  0  # atno 17321 bound_to 7965
  140.7746  143.5212  150.9534 LP  0  0  0  0  0  0  0  0  0  0  0  0  # atno 17342 bound_to 10162
  139.8898  143.6967  152.3146 LP  0  0  0  0  0  0  0  0  0  0  0  0  # atno 17343 bound_to 10162
  157.5804  131.0946  150.9279 LP  0  0  0  0  0  0  0  0  0  0  0  0  # atno 17370 bound_to 10713
  156.9476  130.5408  149.5281 LP  0  0  0  0  0  0  0  0  0  0  0  0  # atno 17371 bound_to 10713
  140.4266  134.7140  157.4919 LP  0  0  0  0  0  0  0  0  0  0  0  0  # atno 17394 bound_to 11000
  140.0323  134.6388  155.9090 LP  0  0  0  0  0  0  0  0  0  0  0  0  # atno 17395 bound_to 11000

$$$$
