AV-unprocessed.smi:82|AV-procd|sdf|798|dock1
  -GOLD-   2262017173D 1   1.00000     0.00000
 Structure written by MMmdl.
 58 61  0  0  0  0  0  0  0  0  1 V2000
  145.3782  142.9713  161.6722 C   0  0  0  0  0  0  0  0  0  0  0  0
  145.9773  142.4898  160.4818 O   0  0  0  0  0  0  0  0  0  0  0  0
  145.1502  142.6713  159.3448 C   0  0  0  0  0  0  0  0  0  0  0  0
  145.9634  142.3167  158.0888 C   0  0  0  0  0  0  0  0  0  0  0  0
  145.2699  141.4539  157.1240 N   0  0  0  0  0  0  0  0  0  0  0  0
  144.6689  140.3159  157.8261 C   0  0  0  0  0  0  0  0  0  0  0  0
  143.8522  139.4086  156.8957 C   0  0  0  0  0  0  0  0  0  0  0  0
  144.6983  138.9293  155.8086 N   0  0  0  0  0  0  0  0  0  0  0  0
  144.1731  137.9075  155.0852 C   0  0  0  0  0  0  0  0  0  0  0  0
  143.0311  137.2958  155.5003 N   0  0  0  0  0  0  0  0  0  0  0  0
  142.5113  136.2860  154.7964 C   0  0  0  0  0  0  0  0  0  0  0  0
  142.9622  135.7366  153.6672 N   0  0  0  0  0  0  0  0  0  0  0  0
  144.1048  136.3475  153.2416 C   0  0  0  0  0  0  0  0  0  0  0  0
  144.7675  137.4334  153.8814 C   0  0  0  0  0  0  0  0  0  0  0  0
  145.8811  137.8093  153.1393 N   0  0  0  0  0  0  0  0  0  0  0  0
  145.8790  136.9905  152.1233 C   0  0  0  0  0  0  0  0  0  0  0  0
  144.8650  136.0592  152.1210 N   0  0  0  0  0  0  0  0  0  0  0  0
  144.6060  135.0758  151.1096 C   0  0  0  0  0  0  0  0  0  0  0  0
  143.6918  133.8788  151.3880 C   0  0  0  0  0  0  0  0  0  0  0  0
  144.5967  132.9693  150.5268 C   0  0  0  0  0  0  0  0  0  0  0  0
  144.9273  131.6137  151.1706 C   0  0  0  0  0  0  0  0  0  0  0  0
  145.4829  131.7750  152.4602 O   0  0  0  0  0  0  0  0  0  0  0  0
  144.1093  132.6834  149.0889 C   0  0  0  0  0  0  0  0  0  0  0  0
  142.8324  132.0798  149.0407 O   0  0  0  0  0  0  0  0  0  0  0  0
  145.6772  134.0595  150.7012 C   0  0  0  0  0  0  0  0  0  0  0  0
  145.3645  140.0133  155.0879 C   0  0  0  0  0  0  0  0  0  0  0  0
  146.1505  140.9256  156.0583 C   0  0  1  0  0  0  0  0  0  0  0  0
  146.8800  141.9913  155.2221 C   0  0  0  0  0  0  0  0  0  0  0  0
  146.0517  142.8082  162.5134 H   0  0  0  0  0  0  0  0  0  0  0  0
  144.4439  142.4490  161.8829 H   0  0  0  0  0  0  0  0  0  0  0  0
  145.1746  144.0408  161.6066 H   0  0  0  0  0  0  0  0  0  0  0  0
  144.2800  142.0166  159.4143 H   0  0  0  0  0  0  0  0  0  0  0  0
  144.7820  143.6946  159.3252 H   0  0  0  0  0  0  0  0  0  0  0  0
  146.3212  143.2222  157.5969 H   0  0  0  0  0  0  0  0  0  0  0  0
  146.8616  141.8124  158.4484 H   0  0  0  0  0  0  0  0  0  0  0  0
  145.4465  139.7294  158.3186 H   0  0  0  0  0  0  0  0  0  0  0  0
  144.0080  140.6771  158.6149 H   0  0  0  0  0  0  0  0  0  0  0  0
  143.4356  138.5837  157.4724 H   0  0  0  0  0  0  0  0  0  0  0  0
  143.0093  139.9604  156.4774 H   0  0  0  0  0  0  0  0  0  0  0  0
  141.6058  135.8546  155.1971 H   0  0  0  0  0  0  0  0  0  0  0  0
  146.6265  137.0429  151.3450 H   0  0  0  0  0  0  0  0  0  0  0  0
  144.2547  135.6325  150.2401 H   0  0  0  0  0  0  0  0  0  0  0  0
  143.6878  133.6010  152.4433 H   0  0  0  0  0  0  0  0  0  0  0  0
  142.6733  133.9981  151.0168 H   0  0  0  0  0  0  0  0  0  0  0  0
  144.0304  131.0017  151.2712 H   0  0  0  0  0  0  0  0  0  0  0  0
  145.6224  131.0423  150.5544 H   0  0  0  0  0  0  0  0  0  0  0  0
  145.4026  130.9566  152.9262 H   0  0  0  0  0  0  0  0  0  0  0  0
  144.0550  133.6024  148.5050 H   0  0  0  0  0  0  0  0  0  0  0  0
  144.8059  132.0246  148.5690 H   0  0  0  0  0  0  0  0  0  0  0  0
  142.1782  132.7618  149.0326 H   0  0  0  0  0  0  0  0  0  0  0  0
  146.2173  134.3174  149.7897 H   0  0  0  0  0  0  0  0  0  0  0  0
  146.3707  133.8360  151.5137 H   0  0  0  0  0  0  0  0  0  0  0  0
  146.0473  139.5881  154.3509 H   0  0  0  0  0  0  0  0  0  0  0  0
  144.6221  140.5980  154.5421 H   0  0  0  0  0  0  0  0  0  0  0  0
  146.9220  140.3102  156.5248 H   0  0  0  0  0  0  0  0  0  0  0  0
  147.4091  141.5368  154.3839 H   0  0  0  0  0  0  0  0  0  0  0  0
  147.6329  142.5155  155.8098 H   0  0  0  0  0  0  0  0  0  0  0  0
  146.1836  142.7235  154.8122 H   0  0  0  0  0  0  0  0  0  0  0  0
  1  2  1  0  0  0  0
  1 29  1  0  0  0  0
  1 30  1  0  0  0  0
  1 31  1  0  0  0  0
  2  3  1  0  0  0  0
  3  4  1  0  0  0  0
  3 32  1  0  0  0  0
  3 33  1  0  0  0  0
  4  5  1  0  0  0  0
  4 34  1  0  0  0  0
  4 35  1  0  0  0  0
  5 27  1  0  0  0  0
  5  6  1  0  0  0  0
  6  7  1  0  0  0  0
  6 36  1  0  0  0  0
  6 37  1  0  0  0  0
  7  8  1  0  0  0  0
  7 38  1  0  0  0  0
  7 39  1  0  0  0  0
  8  9  1  0  0  0  0
  8 26  1  0  0  0  0
  9 14  1  0  0  0  0
  9 10  2  0  0  0  0
 10 11  1  0  0  0  0
 11 12  2  0  0  0  0
 11 40  1  0  0  0  0
 12 13  1  0  0  0  0
 13 17  1  0  0  0  0
 13 14  2  0  0  0  0
 14 15  1  0  0  0  0
 15 16  2  0  0  0  0
 16 17  1  0  0  0  0
 16 41  1  0  0  0  0
 17 18  1  0  0  0  0
 18 25  1  0  0  0  0
 18 19  1  0  0  0  0
 18 42  1  0  0  0  0
 19 20  1  0  0  0  0
 19 43  1  0  0  0  0
 19 44  1  0  0  0  0
 20 21  1  0  0  0  0
 20 23  1  0  0  0  0
 20 25  1  0  0  0  0
 21 22  1  0  0  0  0
 21 45  1  0  0  0  0
 21 46  1  0  0  0  0
 22 47  1  0  0  0  0
 23 24  1  0  0  0  0
 23 48  1  0  0  0  0
 23 49  1  0  0  0  0
 24 50  1  0  0  0  0
 25 51  1  0  0  0  0
 25 52  1  0  0  0  0
 26 27  1  0  0  0  0
 26 53  1  0  0  0  0
 26 54  1  0  0  0  0
 27 28  1  0  0  0  0
 27 55  1  0  0  0  0
 28 56  1  0  0  0  0
 28 57  1  0  0  0  0
 28 58  1  0  0  0  0
M  END
> <s_m_source_file>
AV-unprocessed.smi

> <i_m_source_file_index>
82

> <i_lp_mmshare_version>
43012

> <i_f3d_flags>
0

> <s_epik_input>
W0NIM11PW0NIMl1bQ0gyXU4xW0NIMl1bQ0gyXU4oW0NIMl1bQ0BIXTFbQ0gzXSljKG5bY0hdbjIpYyhjMjMpbltjSF1uM1tDSF0oW0NIMl00KVtDSDJdQzQoW0NIMl1bT0hdKVtDSDJdW09IXQ==

> <s_epik_cmdline>
J2VwaWtfcHl0aG9uJywgJy1waCcsICc3LjAnLCAnLXRuJywgJzgnLCAnLW1hJywgJzIwMCcsICctbWV0YWxfYmluZGluZycsICctaW1hZScsICc8aW5maWxlLm1hZT4nLCAnLW9tYWUnLCAnPG91dGZpbGUubWFlPic=

> <r_lp_tautomer_probability>
1

> <r_epik_Ionization_Penalty>
0.549054

> <r_epik_Ionization_Penalty_Charging>
0

> <r_epik_Ionization_Penalty_Neutral>
0.549054

> <r_epik_State_Penalty>
0.552556

> <r_epik_Charging_Adjusted_Penalty>
0.552556

> <i_epik_Tot_Q>
0

> <i_epik_Tot_abs_Q>
0

> <r_epik_Metal_State_Penalty>
0.545162

> <b_epik_Metal_Only>
0

> <s_lp_Force_Field>
OPLS_2005

> <r_lp_Energy>
72.4409

> <b_lp_Chiralities_Consistent>
1

> <s_lp_Variant>
AV-unprocessed.smi:82-5

> <Gold.Version>
5.8.1

> <Gold.Id.Protein>
6NUR|6NUR_protein|mol2

> <Gold.PLP.Fitness>
46.0802

> <Gold.PLP.PLP>
-34.5006

> <Gold.PLP.part.hbond>
-4.0000

> <Gold.PLP.part.metal>
0.0000

> <Gold.PLP.part.buried>
-6.1206

> <Gold.PLP.part.nonpolar>
-25.6213

> <Gold.PLP.part.repulsive>
0.3933

> <Gold.PLP.ligand.clash>
0.0000

> <Gold.PLP.ligand.torsion>
1.3620

> <Gold.PLP.Chemscore.Hbond>
3.0000

> <Gold.PLP.Chemscore.CHOScore>
1.4598

> <Gold.PLP.Chemscore.Metal>
0.0000

> <Gold.Chemscore.Hbonds>
donor molecule, donor type, donor heavy atom, donor atom, acceptor molecule, acceptor atom, score
      L1  H    24    50       P1 10186  0.88
      P1  H  6934  6946       L1     2  1.00
      P1  H 10785 10796       L1    24  1.00
      L1  C    11    40       P1 11000  0.68
      L1  C    16    41       P1  7948  0.79

> <Gold.PLP.Chemscore.Internal.Correction>
0.9242

> <Gold.Rescore>
     Score         DG    S(hbond)    S(metal)    S(lipo)     H(rot)  DE(clash)    DE(int)     intcor
      8.79     -11.61       2.58        0.00      62.81       3.84       0.08       2.74       ----

> <Gold.Chemscore.Fitness>
8.7878

> <Gold.Chemscore.DG>
-11.6096

> <Gold.Chemscore.ZeroCoef>
-5.4800

> <Gold.Chemscore.Hbond>
2.5807

> <Gold.Chemscore.Metal>
0.0000

> <Gold.Chemscore.Lipo>
62.8144

> <Gold.Chemscore.Internal_Hbond>
0.0000

> <Gold.Chemscore.DEClash>
0.0820

> <Gold.Chemscore.DEInternal>
2.7399

> <Gold.Chemscore.Rot>
3.8434

> <Gold.Chemscore.Internal.Correction>
   9.000000E+99

> <Gold.Chemscore.Hbonds>
donor molecule, donor type, donor heavy atom, donor atom, acceptor molecule, acceptor atom, score
      L1  H    24    50       P1 10186  0.85
      P1  H  6934  6946       L1     2  0.83
      P1  H 10785 10796       L1    24  0.48

> <Gold.Chemscore.Hbond.Weighted>
-8.6194

> <Gold.Chemscore.Metal.Weighted>
-0.0000

> <Gold.Chemscore.Lipo.Weighted>
-7.3493

> <Gold.Chemscore.Internal_Hbond.Weighted>
0.0000

> <Gold.Chemscore.DEClash.Weighted>
0.0820

> <Gold.Chemscore.DEInternal.Weighted>
2.7399

> <Gold.Chemscore.Rot.Weighted>
9.8391

> <Gold.Chemscore.Internal.Correction.Weighted>
   9.000000E+99

> <Gold.Protein.RotatedTorsions>
[ 6907 6896 6895 6894 ] final  -57.88 input  -60.11 | X-H torsion
[ 7974 7965 7964 7962 ] final  -52.79 input  175.53 | X-H torsion
[ 8008 7997 7996 7995 ] final -126.16 input   59.86 | X-H torsion
[ 10167 10162 10161 10158 ] final  -24.31 input  -65.29 | X-H torsion
[ 10718 10713 10712 10709 ] final  -69.17 input   66.30 | X-H torsion
[ 10763 10752 10751 10750 ] final  112.03 input  -60.55 | X-H torsion
[ 11005 11000 10999 10996 ] final -132.02 input  -57.11 | X-H torsion

> <Gold.Protein.ActiveResidues>
 VAL166  LYS551  ARG553  GLY616  TRP617  ASP618  TYR619  PRO620  LYS621  CYS622 
 ASP623  PHE694  ASN695  SER759  ASP760  ASP761  ALA762  ILE779  LEU786  VAL792 
 PHE793  MET794  SER795  GLU796  ALA797  LYS798  CYS799  TRP800  GLU811  SER814 

> <Gold.Protein.RotatedAtoms>
  150.8051  134.7171  159.6636 H   0  0  0  0  0  0  0  0  0  0  0  0  # atno 6907 bound_to 6896
  152.4170  134.6020  160.0012 H   0  0  0  0  0  0  0  0  0  0  0  0  # atno 6908 bound_to 6896
  151.6247  133.3299  159.3131 H   0  0  0  0  0  0  0  0  0  0  0  0  # atno 6909 bound_to 6896
  145.9041  140.7970  142.9728 H   0  0  0  0  0  0  0  0  0  0  0  0  # atno 7974 bound_to 7965
  155.2251  140.0423  157.2954 H   0  0  0  0  0  0  0  0  0  0  0  0  # atno 8008 bound_to 7997
  154.5924  140.2430  155.7873 H   0  0  0  0  0  0  0  0  0  0  0  0  # atno 8009 bound_to 7997
  156.2268  140.2952  156.0096 H   0  0  0  0  0  0  0  0  0  0  0  0  # atno 8010 bound_to 7997
  140.7288  143.4365  151.0722 H   0  0  0  0  0  0  0  0  0  0  0  0  # atno 10167 bound_to 10162
  156.0468  130.4308  150.2108 H   0  0  0  0  0  0  0  0  0  0  0  0  # atno 10718 bound_to 10713
  153.4719  135.3699  155.2395 H   0  0  0  0  0  0  0  0  0  0  0  0  # atno 10763 bound_to 10752
  154.8757  135.3933  154.3802 H   0  0  0  0  0  0  0  0  0  0  0  0  # atno 10764 bound_to 10752
  153.4392  135.7084  153.6245 H   0  0  0  0  0  0  0  0  0  0  0  0  # atno 10765 bound_to 10752
  140.9207  134.1447  157.4316 H   0  0  0  0  0  0  0  0  0  0  0  0  # atno 11005 bound_to 11000
  144.6738  140.1722  143.7413 LP  0  0  0  0  0  0  0  0  0  0  0  0  # atno 17320 bound_to 7965
  145.8754  139.2294  143.1636 LP  0  0  0  0  0  0  0  0  0  0  0  0  # atno 17321 bound_to 7965
  139.8027  143.8061  152.3164 LP  0  0  0  0  0  0  0  0  0  0  0  0  # atno 17342 bound_to 10162
  139.8083  144.7346  150.9731 LP  0  0  0  0  0  0  0  0  0  0  0  0  # atno 17343 bound_to 10162
  157.0197  130.9975  151.3343 LP  0  0  0  0  0  0  0  0  0  0  0  0  # atno 17370 bound_to 10713
  157.5353  130.8084  149.7964 LP  0  0  0  0  0  0  0  0  0  0  0  0  # atno 17371 bound_to 10713
  139.8775  134.9970  156.5826 LP  0  0  0  0  0  0  0  0  0  0  0  0  # atno 17394 bound_to 11000
  140.7991  133.8520  155.8711 LP  0  0  0  0  0  0  0  0  0  0  0  0  # atno 17395 bound_to 11000

$$$$
