AV-unprocessed.smi:2365|AV-procd|sdf|9419|dock5
  -GOLD-   2272013 53D 1   1.00000     0.00000
 Structure written by MMmdl.
 29 30  0  0  0  0  0  0  0  0  1 V2000
  152.2163  144.0574  161.5895 C   0  0  0  0  0  0  0  0  0  0  0  0
  152.1341  143.8051  160.0807 C   0  0  2  0  0  0  0  0  0  0  0  0
  152.4412  145.0253  159.2208 C   0  0  0  0  0  0  0  0  0  0  0  0
  151.7641  144.6896  157.9024 C   0  0  0  0  0  0  0  0  0  0  0  0
  150.6737  143.6675  158.2836 C   0  0  1  0  0  0  0  0  0  0  0  0
  150.8256  142.3168  157.5599 C   0  0  0  0  0  0  0  0  0  0  0  0
  151.6055  141.4767  158.0081 O   0  0  0  0  0  0  0  0  0  0  0  0
  150.0768  142.1381  156.4557 N   0  0  0  0  0  0  0  0  0  0  0  0
  149.9884  140.9874  155.6267 C   0  0  0  0  0  0  0  0  0  0  0  0
  151.0486  140.0613  155.4715 C   0  0  0  0  0  0  0  0  0  0  0  0
  150.9800  138.9791  154.6679 N   0  0  0  0  0  0  0  0  0  0  0  0
  149.8409  138.7769  153.9743 C   0  0  0  0  0  0  0  0  0  0  0  0
  148.7301  139.6403  154.0402 C   0  0  0  0  0  0  0  0  0  0  0  0
  147.3164  139.3021  153.1064 Cl  0  0  0  0  0  0  0  0  0  0  0  0
  148.8072  140.7727  154.8799 C   0  0  0  0  0  0  0  0  0  0  0  0
  147.4740  141.8715  154.9998 Cl  0  0  0  0  0  0  0  0  0  0  0  0
  150.8031  143.4951  159.6970 O   0  0  0  0  0  0  0  0  0  0  0  0
  153.2293  144.3306  161.8850 H   0  0  0  0  0  0  0  0  0  0  0  0
  151.9354  143.1642  162.1477 H   0  0  0  0  0  0  0  0  0  0  0  0
  151.5485  144.8638  161.8933 H   0  0  0  0  0  0  0  0  0  0  0  0
  152.7884  142.9767  159.8027 H   0  0  0  0  0  0  0  0  0  0  0  0
  151.9822  145.9160  159.6521 H   0  0  0  0  0  0  0  0  0  0  0  0
  153.5102  145.2123  159.1157 H   0  0  0  0  0  0  0  0  0  0  0  0
  151.3435  145.5793  157.4329 H   0  0  0  0  0  0  0  0  0  0  0  0
  152.4960  144.2712  157.2095 H   0  0  0  0  0  0  0  0  0  0  0  0
  149.6797  144.0626  158.0720 H   0  0  0  0  0  0  0  0  0  0  0  0
  149.4185  142.8765  156.2503 H   0  0  0  0  0  0  0  0  0  0  0  0
  151.9912  140.1889  155.9812 H   0  0  0  0  0  0  0  0  0  0  0  0
  149.8173  137.9010  153.3426 H   0  0  0  0  0  0  0  0  0  0  0  0
  1  2  1  0  0  0  0
  1 18  1  0  0  0  0
  1 19  1  0  0  0  0
  1 20  1  0  0  0  0
  2 17  1  0  0  0  0
  2  3  1  0  0  0  0
  2 21  1  0  0  0  0
  3  4  1  0  0  0  0
  3 22  1  0  0  0  0
  3 23  1  0  0  0  0
  4  5  1  0  0  0  0
  4 24  1  0  0  0  0
  4 25  1  0  0  0  0
  5  6  1  0  0  0  0
  5 17  1  0  0  0  0
  5 26  1  0  0  0  0
  6  7  2  0  0  0  0
  6  8  1  0  0  0  0
  8  9  1  0  0  0  0
  8 27  1  0  0  0  0
  9 15  1  0  0  0  0
  9 10  2  0  0  0  0
 10 11  1  0  0  0  0
 10 28  1  0  0  0  0
 11 12  2  0  0  0  0
 12 13  1  0  0  0  0
 12 29  1  0  0  0  0
 13 14  1  0  0  0  0
 13 15  2  0  0  0  0
 15 16  1  0  0  0  0
M  END
> <s_m_source_file>
AV-unprocessed.smi

> <i_m_source_file_index>
2365

> <i_lp_mmshare_version>
43012

> <i_f3d_flags>
0

> <s_epik_input>
W0NIM11bQ0BASF0xW0NIMl1bQ0gyXVtDQEhdKE8xKUMoPU8pW05IXWMyW2NIXW5bY0hdYyhDbCljMkNs

> <s_epik_cmdline>
J2VwaWtfcHl0aG9uJywgJy1waCcsICc3LjAnLCAnLXRuJywgJzgnLCAnLW1hJywgJzIwMCcsICctbWV0YWxfYmluZGluZycsICctaW1hZScsICc8aW5maWxlLm1hZT4nLCAnLW9tYWUnLCAnPG91dGZpbGUubWFlPic=

> <r_lp_tautomer_probability>
1

> <r_epik_Ionization_Penalty>
7.32461e-06

> <r_epik_Ionization_Penalty_Charging>
0

> <r_epik_Ionization_Penalty_Neutral>
7.32461e-06

> <r_epik_State_Penalty>
-0

> <r_epik_Charging_Adjusted_Penalty>
0

> <i_epik_Tot_Q>
0

> <i_epik_Tot_abs_Q>
0

> <r_epik_Metal_State_Penalty>
-0

> <b_epik_Metal_Only>
0

> <s_lp_Force_Field>
OPLS_2005

> <r_lp_Energy>
23.4255

> <b_lp_Chiralities_Consistent>
1

> <s_lp_Variant>
AV-unprocessed.smi:2365-1

> <Gold.Version>
5.8.1

> <Gold.Id.Protein>
6NUR|6NUR_protein|mol2

> <Gold.PLP.Fitness>
42.5300

> <Gold.PLP.PLP>
-38.1852

> <Gold.PLP.part.hbond>
-1.2284

> <Gold.PLP.part.metal>
0.0000

> <Gold.PLP.part.buried>
-3.1325

> <Gold.PLP.part.nonpolar>
-32.8028

> <Gold.PLP.part.repulsive>
0.2504

> <Gold.PLP.ligand.clash>
0.0000

> <Gold.PLP.ligand.torsion>
0.8309

> <Gold.PLP.Chemscore.Hbond>
1.0000

> <Gold.PLP.Chemscore.CHOScore>
1.0000

> <Gold.PLP.Chemscore.Metal>
0.0000

> <Gold.Chemscore.Hbonds>
donor molecule, donor type, donor heavy atom, donor atom, acceptor molecule, acceptor atom, score
      L1  H     8    27       P1  8028  1.00
      L1  C    12    29       P1  7948  1.00

> <Gold.PLP.Chemscore.Internal.Correction>
0.0066

> <Gold.Rescore>
     Score         DG    S(hbond)    S(metal)    S(lipo)     H(rot)  DE(clash)    DE(int)     intcor
     16.79     -18.75       1.00        0.00     106.76       1.00       0.13       1.82       ----

> <Gold.Chemscore.Fitness>
16.7906

> <Gold.Chemscore.DG>
-18.7476

> <Gold.Chemscore.ZeroCoef>
-5.4800

> <Gold.Chemscore.Hbond>
0.9990

> <Gold.Chemscore.Metal>
0.0000

> <Gold.Chemscore.Lipo>
106.7609

> <Gold.Chemscore.Internal_Hbond>
0.0000

> <Gold.Chemscore.DEClash>
0.1325

> <Gold.Chemscore.DEInternal>
1.8245

> <Gold.Chemscore.Rot>
1.0000

> <Gold.Chemscore.Internal.Correction>
   9.000000E+99

> <Gold.Chemscore.Hbonds>
donor molecule, donor type, donor heavy atom, donor atom, acceptor molecule, acceptor atom, score
      L1  H     8    27       P1  8028  0.93

> <Gold.Chemscore.Hbond.Weighted>
-3.3366

> <Gold.Chemscore.Metal.Weighted>
-0.0000

> <Gold.Chemscore.Lipo.Weighted>
-12.4910

> <Gold.Chemscore.Internal_Hbond.Weighted>
0.0000

> <Gold.Chemscore.DEClash.Weighted>
0.1325

> <Gold.Chemscore.DEInternal.Weighted>
1.8245

> <Gold.Chemscore.Rot.Weighted>
2.5600

> <Gold.Chemscore.Internal.Correction.Weighted>
   9.000000E+99

> <Gold.Protein.RotatedTorsions>
[ 6907 6896 6895 6894 ] final  171.87 input  -60.11 | X-H torsion
[ 7974 7965 7964 7962 ] final -113.09 input  175.53 | X-H torsion
[ 8008 7997 7996 7995 ] final   21.10 input   59.86 | X-H torsion
[ 10167 10162 10161 10158 ] final   54.55 input  -65.29 | X-H torsion
[ 10718 10713 10712 10709 ] final  -30.02 input   66.30 | X-H torsion
[ 10763 10752 10751 10750 ] final   35.46 input  -60.55 | X-H torsion
[ 11005 11000 10999 10996 ] final -129.16 input  -57.11 | X-H torsion

> <Gold.Protein.ActiveResidues>
 VAL166  LYS551  ARG553  GLY616  TRP617  ASP618  TYR619  PRO620  LYS621  CYS622 
 ASP623  PHE694  ASN695  SER759  ASP760  ASP761  ALA762  ILE779  LEU786  VAL792 
 PHE793  MET794  SER795  GLU796  ALA797  LYS798  CYS799  TRP800  GLU811  SER814 

> <Gold.Protein.RotatedAtoms>
  151.7933  133.3361  159.3505 H   0  0  0  0  0  0  0  0  0  0  0  0  # atno 6907 bound_to 6896
  150.7384  134.5822  159.5954 H   0  0  0  0  0  0  0  0  0  0  0  0  # atno 6908 bound_to 6896
  152.3195  134.7399  160.0368 H   0  0  0  0  0  0  0  0  0  0  0  0  # atno 6909 bound_to 6896
  145.1361  140.8752  143.3729 H   0  0  0  0  0  0  0  0  0  0  0  0  # atno 7974 bound_to 7965
  154.9456  140.3059  155.5100 H   0  0  0  0  0  0  0  0  0  0  0  0  # atno 8008 bound_to 7997
  156.2992  140.2328  156.4466 H   0  0  0  0  0  0  0  0  0  0  0  0  # atno 8009 bound_to 7997
  154.8104  140.0429  157.1327 H   0  0  0  0  0  0  0  0  0  0  0  0  # atno 8010 bound_to 7997
  140.2290  144.3708  150.6422 H   0  0  0  0  0  0  0  0  0  0  0  0  # atno 10167 bound_to 10162
  156.4051  130.4397  149.7293 H   0  0  0  0  0  0  0  0  0  0  0  0  # atno 10718 bound_to 10713
  153.0118  135.6332  154.1831 H   0  0  0  0  0  0  0  0  0  0  0  0  # atno 10763 bound_to 10752
  154.1572  135.2825  155.3120 H   0  0  0  0  0  0  0  0  0  0  0  0  # atno 10764 bound_to 10752
  154.6008  135.5588  153.7433 H   0  0  0  0  0  0  0  0  0  0  0  0  # atno 10765 bound_to 10752
  140.9455  134.1136  157.4111 H   0  0  0  0  0  0  0  0  0  0  0  0  # atno 11005 bound_to 11000
  145.0582  139.3126  143.5894 LP  0  0  0  0  0  0  0  0  0  0  0  0  # atno 17320 bound_to 7965
  146.3509  140.0015  142.8675 LP  0  0  0  0  0  0  0  0  0  0  0  0  # atno 17321 bound_to 7965
  140.6199  143.2175  151.6715 LP  0  0  0  0  0  0  0  0  0  0  0  0  # atno 17342 bound_to 10162
  139.5117  144.3501  152.0660 LP  0  0  0  0  0  0  0  0  0  0  0  0  # atno 17343 bound_to 10162
  156.4294  130.7807  151.2827 LP  0  0  0  0  0  0  0  0  0  0  0  0  # atno 17370 bound_to 10713
  157.7505  131.0158  150.3521 LP  0  0  0  0  0  0  0  0  0  0  0  0  # atno 17371 bound_to 10713
  139.8832  135.0050  156.6284 LP  0  0  0  0  0  0  0  0  0  0  0  0  # atno 17394 bound_to 11000
  140.7675  133.8766  155.8466 LP  0  0  0  0  0  0  0  0  0  0  0  0  # atno 17395 bound_to 11000

$$$$
