AV-unprocessed.smi:1793|AV-procd|sdf|7227|dock1
  -GOLD-   22720 8473D 1   1.00000     0.00000
 Structure written by MMmdl.
 46 48  0  0  0  0  0  0  0  0  1 V2000
  144.5400  134.7404  153.0432 C   0  0  0  0  0  0  0  0  0  0  0  0
  145.2048  135.3103  151.7802 C   0  0  1  0  0  0  0  0  0  0  0  0
  146.2965  136.2096  152.1470 N   0  0  0  0  0  0  0  0  0  0  0  0
  146.1587  137.4397  152.6590 C   0  0  0  0  0  0  0  0  0  0  0  0
  145.0709  137.9669  152.8924 O   0  0  0  0  0  0  0  0  0  0  0  0
  147.3563  137.9991  152.8941 N   0  0  0  0  0  0  0  0  0  0  0  0
  147.6258  139.2582  153.4985 C   0  0  0  0  0  0  0  0  0  0  0  0
  146.7171  140.3380  153.3828 C   0  0  0  0  0  0  0  0  0  0  0  0
  147.0557  141.5854  153.9341 C   0  0  0  0  0  0  0  0  0  0  0  0
  148.3019  141.7143  154.5695 C   0  0  0  0  0  0  0  0  0  0  0  0
  149.1835  140.7000  154.6757 N   0  0  0  0  0  0  0  0  0  0  0  0
  148.8654  139.4859  154.1622 C   0  0  0  0  0  0  0  0  0  0  0  0
  149.8209  138.4551  154.3198 N   0  0  0  0  0  0  0  0  0  0  0  0
  151.2066  138.7718  154.6502 C   0  0  0  0  0  0  0  0  0  0  0  0
  151.8122  137.4540  155.1251 C   0  0  0  0  0  0  0  0  0  0  0  0
  150.6392  136.7992  155.8473 C   0  0  0  0  0  0  0  0  0  0  0  0
  149.4208  137.2450  155.0327 C   0  0  0  0  0  0  0  0  0  0  0  0
  145.7221  134.2013  150.8428 C   0  0  1  0  0  0  0  0  0  0  0  0
  146.5489  133.1054  151.5402 C   0  0  0  0  0  0  0  0  0  0  0  0
  145.8037  131.8201  151.2281 C   0  0  0  0  0  0  0  0  0  0  0  0
  145.0195  132.1839  149.9759 C   0  0  0  0  0  0  0  0  0  0  0  0
  144.6281  133.5222  150.2299 O   0  0  0  0  0  0  0  0  0  0  0  0
  143.7153  134.0759  152.7854 H   0  0  0  0  0  0  0  0  0  0  0  0
  144.1358  135.5370  153.6687 H   0  0  0  0  0  0  0  0  0  0  0  0
  145.2495  134.1723  153.6456 H   0  0  0  0  0  0  0  0  0  0  0  0
  144.4467  135.8708  151.2302 H   0  0  0  0  0  0  0  0  0  0  0  0
  147.2320  135.8621  151.9947 H   0  0  0  0  0  0  0  0  0  0  0  0
  148.1617  137.4101  152.7413 H   0  0  0  0  0  0  0  0  0  0  0  0
  145.7781  140.2336  152.8607 H   0  0  0  0  0  0  0  0  0  0  0  0
  146.3816  142.4259  153.8599 H   0  0  0  0  0  0  0  0  0  0  0  0
  148.6021  142.6583  154.9996 H   0  0  0  0  0  0  0  0  0  0  0  0
  151.7385  139.1758  153.7886 H   0  0  0  0  0  0  0  0  0  0  0  0
  151.2546  139.5033  155.4580 H   0  0  0  0  0  0  0  0  0  0  0  0
  152.1082  136.8475  154.2682 H   0  0  0  0  0  0  0  0  0  0  0  0
  152.6855  137.5926  155.7631 H   0  0  0  0  0  0  0  0  0  0  0  0
  150.7301  135.7149  155.9149 H   0  0  0  0  0  0  0  0  0  0  0  0
  150.5669  137.1949  156.8612 H   0  0  0  0  0  0  0  0  0  0  0  0
  148.5521  137.4095  155.6718 H   0  0  0  0  0  0  0  0  0  0  0  0
  149.1635  136.4774  154.3027 H   0  0  0  0  0  0  0  0  0  0  0  0
  146.3289  134.6440  150.0513 H   0  0  0  0  0  0  0  0  0  0  0  0
  147.5537  133.0746  151.1175 H   0  0  0  0  0  0  0  0  0  0  0  0
  146.6522  133.2578  152.6152 H   0  0  0  0  0  0  0  0  0  0  0  0
  146.4648  130.9651  151.0845 H   0  0  0  0  0  0  0  0  0  0  0  0
  145.1138  131.5858  152.0399 H   0  0  0  0  0  0  0  0  0  0  0  0
  145.6558  132.1483  149.0902 H   0  0  0  0  0  0  0  0  0  0  0  0
  144.1586  131.5355  149.8128 H   0  0  0  0  0  0  0  0  0  0  0  0
  1  2  1  0  0  0  0
  1 23  1  0  0  0  0
  1 24  1  0  0  0  0
  1 25  1  0  0  0  0
  2  3  1  0  0  0  0
  2 18  1  0  0  0  0
  2 26  1  0  0  0  0
  3  4  1  0  0  0  0
  3 27  1  0  0  0  0
  4  5  2  0  0  0  0
  4  6  1  0  0  0  0
  6  7  1  0  0  0  0
  6 28  1  0  0  0  0
  7 12  1  0  0  0  0
  7  8  2  0  0  0  0
  8  9  1  0  0  0  0
  8 29  1  0  0  0  0
  9 10  2  0  0  0  0
  9 30  1  0  0  0  0
 10 11  1  0  0  0  0
 10 31  1  0  0  0  0
 11 12  2  0  0  0  0
 12 13  1  0  0  0  0
 13 17  1  0  0  0  0
 13 14  1  0  0  0  0
 14 15  1  0  0  0  0
 14 32  1  0  0  0  0
 14 33  1  0  0  0  0
 15 16  1  0  0  0  0
 15 34  1  0  0  0  0
 15 35  1  0  0  0  0
 16 17  1  0  0  0  0
 16 36  1  0  0  0  0
 16 37  1  0  0  0  0
 17 38  1  0  0  0  0
 17 39  1  0  0  0  0
 18 22  1  0  0  0  0
 18 19  1  0  0  0  0
 18 40  1  0  0  0  0
 19 20  1  0  0  0  0
 19 41  1  0  0  0  0
 19 42  1  0  0  0  0
 20 21  1  0  0  0  0
 20 43  1  0  0  0  0
 20 44  1  0  0  0  0
 21 22  1  0  0  0  0
 21 45  1  0  0  0  0
 21 46  1  0  0  0  0
M  END
> <s_m_source_file>
AV-unprocessed.smi

> <i_m_source_file_index>
1793

> <i_lp_mmshare_version>
43012

> <i_f3d_flags>
0

> <s_epik_input>
TzFbQ0gyXVtDSDJdW0NIMl1bQ0BIXTFbQ0BIXShbQ0gzXSlbTkhdQyg9TylbTkhdYzJbY0hdW2NIXVtjSF1uYzJOM1tDSDJdW0NIMl1bQ0gyXVtDSDJdMw==

> <s_epik_cmdline>
J2VwaWtfcHl0aG9uJywgJy1waCcsICc3LjAnLCAnLXRuJywgJzgnLCAnLW1hJywgJzIwMCcsICctbWV0YWxfYmluZGluZycsICctaW1hZScsICc8aW5maWxlLm1hZT4nLCAnLW9tYWUnLCAnPG91dGZpbGUubWFlPic=

> <r_lp_tautomer_probability>
1

> <r_epik_Ionization_Penalty>
0.0992086

> <r_epik_Ionization_Penalty_Charging>
0

> <r_epik_Ionization_Penalty_Neutral>
0.0992086

> <r_epik_State_Penalty>
0.0887141

> <r_epik_Charging_Adjusted_Penalty>
0.0887141

> <i_epik_Tot_Q>
0

> <i_epik_Tot_abs_Q>
0

> <r_epik_Metal_State_Penalty>
0.075945

> <b_epik_Metal_Only>
0

> <s_lp_Force_Field>
OPLS_2005

> <r_lp_Energy>
46.9131

> <b_lp_Chiralities_Consistent>
1

> <s_lp_Variant>
AV-unprocessed.smi:1793-4

> <Gold.Version>
5.8.1

> <Gold.Id.Protein>
6NUR|6NUR_protein|mol2

> <Gold.PLP.Fitness>
41.1789

> <Gold.PLP.PLP>
-33.3470

> <Gold.PLP.part.hbond>
-2.0000

> <Gold.PLP.part.metal>
0.0000

> <Gold.PLP.part.buried>
-2.5712

> <Gold.PLP.part.nonpolar>
-31.0895

> <Gold.PLP.part.repulsive>
2.2930

> <Gold.PLP.ligand.clash>
0.0000

> <Gold.PLP.ligand.torsion>
0.7585

> <Gold.PLP.Chemscore.Hbond>
1.9920

> <Gold.PLP.Chemscore.CHOScore>
1.0000

> <Gold.PLP.Chemscore.Metal>
0.0000

> <Gold.Chemscore.Hbonds>
donor molecule, donor type, donor heavy atom, donor atom, acceptor molecule, acceptor atom, score
      L1  H     3    27       P1  7948  0.98
      L1  H     6    28       P1  7948  1.00
      L1  C    10    31       P1  8028  1.00

> <Gold.PLP.Chemscore.Internal.Correction>
0.3729

> <Gold.Rescore>
     Score         DG    S(hbond)    S(metal)    S(lipo)     H(rot)  DE(clash)    DE(int)     intcor
     15.99     -18.80       1.92        0.00      88.66       1.36       0.72       2.10       ----

> <Gold.Chemscore.Fitness>
15.9914

> <Gold.Chemscore.DG>
-18.8030

> <Gold.Chemscore.ZeroCoef>
-5.4800

> <Gold.Chemscore.Hbond>
1.9241

> <Gold.Chemscore.Metal>
0.0000

> <Gold.Chemscore.Lipo>
88.6625

> <Gold.Chemscore.Internal_Hbond>
0.0000

> <Gold.Chemscore.DEClash>
0.7153

> <Gold.Chemscore.DEInternal>
2.0963

> <Gold.Chemscore.Rot>
1.3582

> <Gold.Chemscore.Internal.Correction>
   9.000000E+99

> <Gold.Chemscore.Hbonds>
donor molecule, donor type, donor heavy atom, donor atom, acceptor molecule, acceptor atom, score
      L1  H     3    27       P1  7948  0.92
      L1  H     6    28       P1  7948  0.94

> <Gold.Chemscore.Hbond.Weighted>
-6.4266

> <Gold.Chemscore.Metal.Weighted>
-0.0000

> <Gold.Chemscore.Lipo.Weighted>
-10.3735

> <Gold.Chemscore.Internal_Hbond.Weighted>
0.0000

> <Gold.Chemscore.DEClash.Weighted>
0.7153

> <Gold.Chemscore.DEInternal.Weighted>
2.0963

> <Gold.Chemscore.Rot.Weighted>
3.4771

> <Gold.Chemscore.Internal.Correction.Weighted>
   9.000000E+99

> <Gold.Protein.RotatedTorsions>
[ 6907 6896 6895 6894 ] final -179.13 input  -60.11 | X-H torsion
[ 7974 7965 7964 7962 ] final -103.50 input  175.53 | X-H torsion
[ 8008 7997 7996 7995 ] final  170.15 input   59.86 | X-H torsion
[ 10167 10162 10161 10158 ] final  173.29 input  -65.29 | X-H torsion
[ 10718 10713 10712 10709 ] final  120.10 input   66.30 | X-H torsion
[ 10763 10752 10751 10750 ] final   34.74 input  -60.55 | X-H torsion
[ 11005 11000 10999 10996 ] final    6.02 input  -57.11 | X-H torsion

> <Gold.Protein.ActiveResidues>
 VAL166  LYS551  ARG553  GLY616  TRP617  ASP618  TYR619  PRO620  LYS621  CYS622 
 ASP623  PHE694  ASN695  SER759  ASP760  ASP761  ALA762  ILE779  LEU786  VAL792 
 PHE793  MET794  SER795  GLU796  ALA797  LYS798  CYS799  TRP800  GLU811  SER814 

> <Gold.Protein.RotatedAtoms>
  151.6484  133.3322  159.3146 H   0  0  0  0  0  0  0  0  0  0  0  0  # atno 6907 bound_to 6896
  150.7972  134.7044  159.6578 H   0  0  0  0  0  0  0  0  0  0  0  0  # atno 6908 bound_to 6896
  152.4061  134.6209  160.0102 H   0  0  0  0  0  0  0  0  0  0  0  0  # atno 6909 bound_to 6896
  145.2551  140.9251  143.3073 H   0  0  0  0  0  0  0  0  0  0  0  0  # atno 7974 bound_to 7965
  156.1392  140.1545  156.8946 H   0  0  0  0  0  0  0  0  0  0  0  0  # atno 8008 bound_to 7997
  154.4973  140.0834  156.7763 H   0  0  0  0  0  0  0  0  0  0  0  0  # atno 8009 bound_to 7997
  155.4110  140.3419  155.4266 H   0  0  0  0  0  0  0  0  0  0  0  0  # atno 8010 bound_to 7997
  139.5103  144.3277  152.0141 H   0  0  0  0  0  0  0  0  0  0  0  0  # atno 10167 bound_to 10162
  157.5915  131.1063  150.7989 H   0  0  0  0  0  0  0  0  0  0  0  0  # atno 10718 bound_to 10713
  153.0150  135.6352  154.1716 H   0  0  0  0  0  0  0  0  0  0  0  0  # atno 10763 bound_to 10752
  154.1456  135.2832  155.3151 H   0  0  0  0  0  0  0  0  0  0  0  0  # atno 10764 bound_to 10752
  154.6092  135.5562  153.7516 H   0  0  0  0  0  0  0  0  0  0  0  0  # atno 10765 bound_to 10752
  140.5641  134.0164  155.7983 H   0  0  0  0  0  0  0  0  0  0  0  0  # atno 11005 bound_to 11000
  144.9468  139.4127  143.6422 LP  0  0  0  0  0  0  0  0  0  0  0  0  # atno 17320 bound_to 7965
  146.3291  139.8456  142.8882 LP  0  0  0  0  0  0  0  0  0  0  0  0  # atno 17321 bound_to 7965
  140.2718  144.3956  150.6149 LP  0  0  0  0  0  0  0  0  0  0  0  0  # atno 17342 bound_to 10162
  140.6083  143.2168  151.6937 LP  0  0  0  0  0  0  0  0  0  0  0  0  # atno 17343 bound_to 10162
  156.8410  130.5048  149.5321 LP  0  0  0  0  0  0  0  0  0  0  0  0  # atno 17370 bound_to 10713
  156.0970  130.5940  150.9830 LP  0  0  0  0  0  0  0  0  0  0  0  0  # atno 17371 bound_to 10713
  141.1096  133.9637  157.2934 LP  0  0  0  0  0  0  0  0  0  0  0  0  # atno 17394 bound_to 11000
  139.9393  135.0193  156.8658 LP  0  0  0  0  0  0  0  0  0  0  0  0  # atno 17395 bound_to 11000

$$$$
