AV-unprocessed.smi:174|AV-procd|sdf|1425|dock7
  -GOLD-   2262019193D 1   1.00000     0.00000
 Structure written by MMmdl.
 51 54  0  0  0  0  0  0  0  0  1 V2000
  150.5960  129.3807  154.5835 N   0  0  0  0  0  0  0  0  0  0  0  0
  150.9044  130.3333  155.4701 C   0  0  0  0  0  0  0  0  0  0  0  0
  152.0430  130.4483  155.9174 O   0  0  0  0  0  0  0  0  0  0  0  0
  149.8072  131.3067  155.9357 C   0  0  0  0  0  0  0  0  0  0  0  0
  150.0839  132.7319  155.6821 N   0  0  0  0  0  0  0  0  0  0  0  0
  151.0455  133.3840  156.5777 C   0  0  0  0  0  0  0  0  0  0  0  0
  150.7228  134.8662  156.7907 C   0  0  0  0  0  0  0  0  0  0  0  0
  150.5875  135.5426  155.5066 N   0  0  0  0  0  0  0  0  0  0  0  0
  150.7279  136.8959  155.4298 C   0  0  0  0  0  0  0  0  0  0  0  0
  150.4397  137.4918  154.2417 N   0  0  0  0  0  0  0  0  0  0  0  0
  150.5620  138.8128  154.0899 C   0  0  0  0  0  0  0  0  0  0  0  0
  150.9507  139.7215  154.9842 N   0  0  0  0  0  0  0  0  0  0  0  0
  151.2350  139.1397  156.1834 C   0  0  0  0  0  0  0  0  0  0  0  0
  151.1520  137.7505  156.4949 C   0  0  0  0  0  0  0  0  0  0  0  0
  151.5089  137.5575  157.8269 N   0  0  0  0  0  0  0  0  0  0  0  0
  151.7987  138.7510  158.2666 C   0  0  0  0  0  0  0  0  0  0  0  0
  151.6615  139.7600  157.3434 N   0  0  0  0  0  0  0  0  0  0  0  0
  151.9137  141.1743  157.5542 C   0  0  0  0  0  0  0  0  0  0  0  0
  150.6387  142.0252  157.3988 C   0  0  2  0  0  0  0  0  0  0  0  0
  150.3465  142.2392  156.0306 O   0  0  0  0  0  0  0  0  0  0  0  0
  150.7195  143.3658  158.1569 C   0  0  2  0  0  0  0  0  0  0  0  0
  151.8047  144.3443  157.7002 C   0  0  0  0  0  0  0  0  0  0  0  0
  151.9702  145.1971  158.9383 C   0  0  0  0  0  0  0  0  0  0  0  0
  151.8235  144.1622  160.0513 C   0  0  0  0  0  0  0  0  0  0  0  0
  150.9161  143.1805  159.5567 O   0  0  0  0  0  0  0  0  0  0  0  0
  149.8296  134.8851  154.4295 C   0  0  0  0  0  0  0  0  0  0  0  0
  149.5230  133.3900  154.6381 C   0  0  0  0  0  0  0  0  0  0  0  0
  148.7623  132.8411  153.8408 O   0  0  0  0  0  0  0  0  0  0  0  0
  151.3073  128.7327  154.2775 H   0  0  0  0  0  0  0  0  0  0  0  0
  149.6536  129.3073  154.2288 H   0  0  0  0  0  0  0  0  0  0  0  0
  148.8668  131.0151  155.4646 H   0  0  0  0  0  0  0  0  0  0  0  0
  149.6464  131.1433  157.0017 H   0  0  0  0  0  0  0  0  0  0  0  0
  151.0811  132.8848  157.5464 H   0  0  0  0  0  0  0  0  0  0  0  0
  152.0404  133.2823  156.1420 H   0  0  0  0  0  0  0  0  0  0  0  0
  149.7968  134.9747  157.3577 H   0  0  0  0  0  0  0  0  0  0  0  0
  151.5275  135.3098  157.3779 H   0  0  0  0  0  0  0  0  0  0  0  0
  150.3129  139.1957  153.1112 H   0  0  0  0  0  0  0  0  0  0  0  0
  152.1247  138.9289  159.2812 H   0  0  0  0  0  0  0  0  0  0  0  0
  152.3330  141.3007  158.5531 H   0  0  0  0  0  0  0  0  0  0  0  0
  152.6807  141.4993  156.8500 H   0  0  0  0  0  0  0  0  0  0  0  0
  149.7979  141.4645  157.8091 H   0  0  0  0  0  0  0  0  0  0  0  0
  149.7313  142.9533  155.9640 H   0  0  0  0  0  0  0  0  0  0  0  0
  149.7571  143.8708  158.0580 H   0  0  0  0  0  0  0  0  0  0  0  0
  152.7432  143.8339  157.4820 H   0  0  0  0  0  0  0  0  0  0  0  0
  151.5154  144.9184  156.8196 H   0  0  0  0  0  0  0  0  0  0  0  0
  152.9221  145.7277  158.9721 H   0  0  0  0  0  0  0  0  0  0  0  0
  151.1658  145.9316  158.9988 H   0  0  0  0  0  0  0  0  0  0  0  0
  152.7816  143.6787  160.2469 H   0  0  0  0  0  0  0  0  0  0  0  0
  151.4685  144.6006  160.9844 H   0  0  0  0  0  0  0  0  0  0  0  0
  148.8839  135.4104  154.2853 H   0  0  0  0  0  0  0  0  0  0  0  0
  150.3863  134.9666  153.4949 H   0  0  0  0  0  0  0  0  0  0  0  0
  1  2  1  0  0  0  0
  1 29  1  0  0  0  0
  1 30  1  0  0  0  0
  2  3  2  0  0  0  0
  2  4  1  0  0  0  0
  4  5  1  0  0  0  0
  4 31  1  0  0  0  0
  4 32  1  0  0  0  0
  5 27  1  0  0  0  0
  5  6  1  0  0  0  0
  6  7  1  0  0  0  0
  6 33  1  0  0  0  0
  6 34  1  0  0  0  0
  7  8  1  0  0  0  0
  7 35  1  0  0  0  0
  7 36  1  0  0  0  0
  8  9  1  0  0  0  0
  8 26  1  0  0  0  0
  9 14  1  0  0  0  0
  9 10  2  0  0  0  0
 10 11  1  0  0  0  0
 11 12  2  0  0  0  0
 11 37  1  0  0  0  0
 12 13  1  0  0  0  0
 13 17  1  0  0  0  0
 13 14  2  0  0  0  0
 14 15  1  0  0  0  0
 15 16  2  0  0  0  0
 16 17  1  0  0  0  0
 16 38  1  0  0  0  0
 17 18  1  0  0  0  0
 18 19  1  0  0  0  0
 18 39  1  0  0  0  0
 18 40  1  0  0  0  0
 19 20  1  0  0  0  0
 19 21  1  0  0  0  0
 19 41  1  0  0  0  0
 20 42  1  0  0  0  0
 21 25  1  0  0  0  0
 21 22  1  0  0  0  0
 21 43  1  0  0  0  0
 22 23  1  0  0  0  0
 22 44  1  0  0  0  0
 22 45  1  0  0  0  0
 23 24  1  0  0  0  0
 23 46  1  0  0  0  0
 23 47  1  0  0  0  0
 24 25  1  0  0  0  0
 24 48  1  0  0  0  0
 24 49  1  0  0  0  0
 26 27  1  0  0  0  0
 26 50  1  0  0  0  0
 26 51  1  0  0  0  0
 27 28  2  0  0  0  0
M  END
> <s_m_source_file>
AV-unprocessed.smi

> <i_m_source_file_index>
174

> <i_lp_mmshare_version>
43012

> <i_f3d_flags>
0

> <s_epik_input>
W05IMl1DKD1PKVtDSDJdTjFbQ0gyXVtDSDJdTihbQ0gyXUMxPU8pYyhuW2NIXW4yKWMoYzIzKW5bY0hdbjNbQ0gyXVtDQEhdKFtPSF0pW0NAQEhdNFtDSDJdW0NIMl1bQ0gyXU80

> <s_epik_cmdline>
J2VwaWtfcHl0aG9uJywgJy1waCcsICc3LjAnLCAnLXRuJywgJzgnLCAnLW1hJywgJzIwMCcsICctbWV0YWxfYmluZGluZycsICctaW1hZScsICc8aW5maWxlLm1hZT4nLCAnLW9tYWUnLCAnPG91dGZpbGUubWFlPic=

> <r_lp_tautomer_probability>
1

> <r_epik_Ionization_Penalty>
0.000250477

> <r_epik_Ionization_Penalty_Charging>
0

> <r_epik_Ionization_Penalty_Neutral>
0.000250477

> <r_epik_State_Penalty>
-0

> <r_epik_Charging_Adjusted_Penalty>
0

> <i_epik_Tot_Q>
0

> <i_epik_Tot_abs_Q>
0

> <r_epik_Metal_State_Penalty>
-0

> <b_epik_Metal_Only>
0

> <s_lp_Force_Field>
OPLS_2005

> <r_lp_Energy>
38.8972

> <b_lp_Chiralities_Consistent>
1

> <s_lp_Variant>
AV-unprocessed.smi:174-1

> <Gold.Version>
5.8.1

> <Gold.Id.Protein>
6NUR|6NUR_protein|mol2

> <Gold.PLP.Fitness>
51.6083

> <Gold.PLP.PLP>
-44.9145

> <Gold.PLP.part.hbond>
-2.1985

> <Gold.PLP.part.metal>
0.0000

> <Gold.PLP.part.buried>
-7.3320

> <Gold.PLP.part.nonpolar>
-37.2004

> <Gold.PLP.part.repulsive>
0.9495

> <Gold.PLP.ligand.clash>
0.0000

> <Gold.PLP.ligand.torsion>
0.5367

> <Gold.PLP.Chemscore.Hbond>
1.5000

> <Gold.PLP.Chemscore.CHOScore>
1.0000

> <Gold.PLP.Chemscore.Metal>
0.0000

> <Gold.Chemscore.Hbonds>
donor molecule, donor type, donor heavy atom, donor atom, acceptor molecule, acceptor atom, score
      L1  H    20    42       P1  8028  1.00
      P1  H  7989  7998       L1    12  0.50
      L1  C    11    37       P1  7957  1.00

> <Gold.PLP.Chemscore.Internal.Correction>
0.2672

> <Gold.Rescore>
     Score         DG    S(hbond)    S(metal)    S(lipo)     H(rot)  DE(clash)    DE(int)     intcor
      8.56     -10.19       0.99        0.00      87.73       3.46       0.11       1.53       ----

> <Gold.Chemscore.Fitness>
8.5564

> <Gold.Chemscore.DG>
-10.1943

> <Gold.Chemscore.ZeroCoef>
-5.4800

> <Gold.Chemscore.Hbond>
0.9896

> <Gold.Chemscore.Metal>
0.0000

> <Gold.Chemscore.Lipo>
87.7296

> <Gold.Chemscore.Internal_Hbond>
0.0000

> <Gold.Chemscore.DEClash>
0.1069

> <Gold.Chemscore.DEInternal>
1.5310

> <Gold.Chemscore.Rot>
3.4591

> <Gold.Chemscore.Internal.Correction>
   9.000000E+99

> <Gold.Chemscore.Hbonds>
donor molecule, donor type, donor heavy atom, donor atom, acceptor molecule, acceptor atom, score
      L1  H    20    42       P1  8028  0.97
      P1  H  7989  7998       L1    12  0.02

> <Gold.Chemscore.Hbond.Weighted>
-3.3053

> <Gold.Chemscore.Metal.Weighted>
-0.0000

> <Gold.Chemscore.Lipo.Weighted>
-10.2644

> <Gold.Chemscore.Internal_Hbond.Weighted>
0.0000

> <Gold.Chemscore.DEClash.Weighted>
0.1069

> <Gold.Chemscore.DEInternal.Weighted>
1.5310

> <Gold.Chemscore.Rot.Weighted>
8.8553

> <Gold.Chemscore.Internal.Correction.Weighted>
   9.000000E+99

> <Gold.Protein.RotatedTorsions>
[ 6907 6896 6895 6894 ] final  -10.92 input  -60.11 | X-H torsion
[ 7974 7965 7964 7962 ] final  121.48 input  175.53 | X-H torsion
[ 8008 7997 7996 7995 ] final   49.90 input   59.86 | X-H torsion
[ 10167 10162 10161 10158 ] final  -79.03 input  -65.29 | X-H torsion
[ 10718 10713 10712 10709 ] final  -58.15 input   66.30 | X-H torsion
[ 10763 10752 10751 10750 ] final -125.47 input  -60.55 | X-H torsion
[ 11005 11000 10999 10996 ] final   97.80 input  -57.11 | X-H torsion

> <Gold.Protein.ActiveResidues>
 VAL166  LYS551  ARG553  GLY616  TRP617  ASP618  TYR619  PRO620  LYS621  CYS622 
 ASP623  PHE694  ASN695  SER759  ASP760  ASP761  ALA762  ILE779  LEU786  VAL792 
 PHE793  MET794  SER795  GLU796  ALA797  LYS798  CYS799  TRP800  GLU811  SER814 

> <Gold.Protein.RotatedAtoms>
  151.3943  135.0961  159.9535 H   0  0  0  0  0  0  0  0  0  0  0  0  # atno 6907 bound_to 6896
  152.5070  133.8949  159.7423 H   0  0  0  0  0  0  0  0  0  0  0  0  # atno 6908 bound_to 6896
  150.9409  133.6601  159.2819 H   0  0  0  0  0  0  0  0  0  0  0  0  # atno 6909 bound_to 6896
  145.1188  139.3403  143.4725 H   0  0  0  0  0  0  0  0  0  0  0  0  # atno 7974 bound_to 7965
  155.4098  140.3442  155.4263 H   0  0  0  0  0  0  0  0  0  0  0  0  # atno 8008 bound_to 7997
  156.1455  140.1555  156.8885 H   0  0  0  0  0  0  0  0  0  0  0  0  # atno 8009 bound_to 7997
  154.5007  140.0815  156.7773 H   0  0  0  0  0  0  0  0  0  0  0  0  # atno 8010 bound_to 7997
  140.4629  143.2448  151.8321 H   0  0  0  0  0  0  0  0  0  0  0  0  # atno 10167 bound_to 10162
  156.1157  130.4170  150.0538 H   0  0  0  0  0  0  0  0  0  0  0  0  # atno 10718 bound_to 10713
  154.8736  135.4028  154.3273 H   0  0  0  0  0  0  0  0  0  0  0  0  # atno 10763 bound_to 10752
  153.4092  135.7020  153.6376 H   0  0  0  0  0  0  0  0  0  0  0  0  # atno 10764 bound_to 10752
  153.5086  135.3712  155.2546 H   0  0  0  0  0  0  0  0  0  0  0  0  # atno 10765 bound_to 10752
  139.8774  134.9018  156.4362 H   0  0  0  0  0  0  0  0  0  0  0  0  # atno 11005 bound_to 11000
  146.3522  140.1139  142.8603 LP  0  0  0  0  0  0  0  0  0  0  0  0  # atno 17320 bound_to 7965
  145.0763  140.9190  143.4852 LP  0  0  0  0  0  0  0  0  0  0  0  0  # atno 17321 bound_to 7965
  139.4808  144.4985  151.9091 LP  0  0  0  0  0  0  0  0  0  0  0  0  # atno 17342 bound_to 10162
  140.4071  144.2417  150.5890 LP  0  0  0  0  0  0  0  0  0  0  0  0  # atno 17343 bound_to 10162
  156.8490  130.9452  151.3627 LP  0  0  0  0  0  0  0  0  0  0  0  0  # atno 17370 bound_to 10713
  157.6340  130.8752  149.9325 LP  0  0  0  0  0  0  0  0  0  0  0  0  # atno 17371 bound_to 10713
  140.9032  133.7764  155.9704 LP  0  0  0  0  0  0  0  0  0  0  0  0  # atno 17394 bound_to 11000
  140.8628  134.2820  157.5226 LP  0  0  0  0  0  0  0  0  0  0  0  0  # atno 17395 bound_to 11000

$$$$
