AV-unprocessed.smi:461|AV-procd|sdf|2630|dock3
  -GOLD-   2262023 33D 1   1.00000     0.00000
 Structure written by MMmdl.
 33 34  0  0  0  0  0  0  0  0  1 V2000
  149.3730  141.9678  156.3928 C   0  0  0  0  0  0  0  0  0  0  0  0
  150.5557  141.1578  156.6882 N   0  0  0  0  0  0  0  0  0  0  0  0
  151.1265  141.4373  157.9192 N   0  0  0  0  0  0  0  0  0  0  0  0
  152.1915  140.7646  158.2440 C   0  0  0  0  0  0  0  0  0  0  0  0
  152.9119  140.8996  159.4236 N   0  0  0  0  0  0  0  0  0  0  0  0
  152.5915  141.8244  160.5014 C   0  0  0  0  0  0  0  0  0  0  0  0
  152.8203  143.2931  160.1047 C   0  0  2  0  0  0  0  0  0  0  0  0
  152.0113  144.2828  160.9377 C   0  0  0  0  0  0  0  0  0  0  0  0
  151.9821  145.5191  160.0574 C   0  0  0  0  0  0  0  0  0  0  0  0
  152.1925  144.9654  158.6447 C   0  0  0  0  0  0  0  0  0  0  0  0
  152.3370  143.5583  158.7969 O   0  0  0  0  0  0  0  0  0  0  0  0
  152.7674  139.7130  157.3087 C   0  0  0  0  0  0  0  0  0  0  0  0
  153.7809  139.0826  157.6247 O   0  0  0  0  0  0  0  0  0  0  0  0
  152.1011  139.5287  156.1352 N   0  0  0  0  0  0  0  0  0  0  0  0
  152.6423  138.5105  155.2166 C   0  0  0  0  0  0  0  0  0  0  0  0
  150.9893  140.2366  155.7783 C   0  0  0  0  0  0  0  0  0  0  0  0
  150.4044  140.0671  154.7056 O   0  0  0  0  0  0  0  0  0  0  0  0
  148.5005  141.3326  156.2341 H   0  0  0  0  0  0  0  0  0  0  0  0
  149.5303  142.5649  155.4935 H   0  0  0  0  0  0  0  0  0  0  0  0
  149.1314  142.6565  157.2044 H   0  0  0  0  0  0  0  0  0  0  0  0
  153.2410  141.5722  161.3400 H   0  0  0  0  0  0  0  0  0  0  0  0
  151.5684  141.6700  160.8478 H   0  0  0  0  0  0  0  0  0  0  0  0
  153.8807  143.5478  160.1594 H   0  0  0  0  0  0  0  0  0  0  0  0
  150.9960  143.9108  161.0828 H   0  0  0  0  0  0  0  0  0  0  0  0
  152.4474  144.4690  161.9194 H   0  0  0  0  0  0  0  0  0  0  0  0
  151.0445  146.0668  160.1555 H   0  0  0  0  0  0  0  0  0  0  0  0
  152.7963  146.1959  160.3195 H   0  0  0  0  0  0  0  0  0  0  0  0
  151.3538  145.1878  157.9847 H   0  0  0  0  0  0  0  0  0  0  0  0
  153.0963  145.3814  158.1980 H   0  0  0  0  0  0  0  0  0  0  0  0
  152.0326  138.3236  154.3319 H   0  0  0  0  0  0  0  0  0  0  0  0
  152.7449  137.5496  155.7242 H   0  0  0  0  0  0  0  0  0  0  0  0
  153.6303  138.8091  154.8629 H   0  0  0  0  0  0  0  0  0  0  0  0
  153.7702  140.3850  159.5606 H   0  0  0  0  0  0  0  0  0  0  0  0
  1 18  1  0  0  0  0
  1 19  1  0  0  0  0
  1 20  1  0  0  0  0
  1  2  1  0  0  0  0
  2 16  1  0  0  0  0
  2  3  1  0  0  0  0
  3  4  2  0  0  0  0
  4 12  1  0  0  0  0
  4  5  1  0  0  0  0
  5  6  1  0  0  0  0
  5 33  1  0  0  0  0
  6  7  1  0  0  0  0
  6 21  1  0  0  0  0
  6 22  1  0  0  0  0
  7 11  1  0  0  0  0
  7  8  1  0  0  0  0
  7 23  1  0  0  0  0
  8  9  1  0  0  0  0
  8 24  1  0  0  0  0
  8 25  1  0  0  0  0
  9 10  1  0  0  0  0
  9 26  1  0  0  0  0
  9 27  1  0  0  0  0
 10 11  1  0  0  0  0
 10 28  1  0  0  0  0
 10 29  1  0  0  0  0
 12 13  2  0  0  0  0
 12 14  1  0  0  0  0
 14 15  1  0  0  0  0
 14 16  1  0  0  0  0
 15 30  1  0  0  0  0
 15 31  1  0  0  0  0
 15 32  1  0  0  0  0
 16 17  2  0  0  0  0
M  END
> <s_m_source_file>
AV-unprocessed.smi

> <i_m_source_file_index>
461

> <i_lp_mmshare_version>
43012

> <i_f3d_flags>
0

> <s_epik_input>
Tz1jMW4oW0NIM10pYyg9TyljKG5uMVtDSDNdKVtOSF1bQ0gyXVtDQEBIXTJbQ0gyXVtDSDJdW0NIMl1PMg==

> <s_epik_cmdline>
J2VwaWtfcHl0aG9uJywgJy1waCcsICc3LjAnLCAnLXRuJywgJzgnLCAnLW1hJywgJzIwMCcsICctbWV0YWxfYmluZGluZycsICctaW1hZScsICc8aW5maWxlLm1hZT4nLCAnLW9tYWUnLCAnPG91dGZpbGUubWFlPic=

> <r_lp_tautomer_probability>
1

> <r_epik_Ionization_Penalty>
0.000103292

> <r_epik_Ionization_Penalty_Charging>
5.59445e-09

> <r_epik_Ionization_Penalty_Neutral>
0.000103287

> <r_epik_State_Penalty>
-0

> <r_epik_Charging_Adjusted_Penalty>
5.59445e-09

> <i_epik_Tot_Q>
0

> <i_epik_Tot_abs_Q>
0

> <r_epik_Metal_State_Penalty>
-0

> <b_epik_Metal_Only>
0

> <s_lp_Force_Field>
OPLS_2005

> <r_lp_Energy>
41.4084

> <b_lp_Chiralities_Consistent>
1

> <s_lp_Variant>
AV-unprocessed.smi:461-1

> <Gold.Version>
5.8.1

> <Gold.Id.Protein>
6NUR|6NUR_protein|mol2

> <Gold.PLP.Fitness>
41.1321

> <Gold.PLP.PLP>
-35.6041

> <Gold.PLP.part.hbond>
-1.7400

> <Gold.PLP.part.metal>
0.0000

> <Gold.PLP.part.buried>
-1.3500

> <Gold.PLP.part.nonpolar>
-33.1289

> <Gold.PLP.part.repulsive>
0.2265

> <Gold.PLP.ligand.clash>
0.0000

> <Gold.PLP.ligand.torsion>
0.2286

> <Gold.PLP.Chemscore.Hbond>
1.9920

> <Gold.PLP.Chemscore.CHOScore>
0.0000

> <Gold.PLP.Chemscore.Metal>
0.0000

> <Gold.Chemscore.Hbonds>
donor molecule, donor type, donor heavy atom, donor atom, acceptor molecule, acceptor atom, score
      P1  H  7989  7998       L1    17  1.00
      P1  H  7997  8010       L1    13  0.78

> <Gold.PLP.Chemscore.Internal.Correction>
0.0092

> <Gold.Rescore>
     Score         DG    S(hbond)    S(metal)    S(lipo)     H(rot)  DE(clash)    DE(int)     intcor
     10.51     -13.40       0.88        0.00      70.94       1.30       0.02       2.87       ----

> <Gold.Chemscore.Fitness>
10.5101

> <Gold.Chemscore.DG>
-13.3973

> <Gold.Chemscore.ZeroCoef>
-5.4800

> <Gold.Chemscore.Hbond>
0.8782

> <Gold.Chemscore.Metal>
0.0000

> <Gold.Chemscore.Lipo>
70.9449

> <Gold.Chemscore.Internal_Hbond>
0.0000

> <Gold.Chemscore.DEClash>
0.0203

> <Gold.Chemscore.DEInternal>
2.8669

> <Gold.Chemscore.Rot>
1.2954

> <Gold.Chemscore.Internal.Correction>
   9.000000E+99

> <Gold.Chemscore.Hbonds>
donor molecule, donor type, donor heavy atom, donor atom, acceptor molecule, acceptor atom, score
      P1  H  7989  7998       L1    17  0.30
      P1  H  7997  8010       L1    13  0.22

> <Gold.Chemscore.Hbond.Weighted>
-2.9330

> <Gold.Chemscore.Metal.Weighted>
-0.0000

> <Gold.Chemscore.Lipo.Weighted>
-8.3006

> <Gold.Chemscore.Internal_Hbond.Weighted>
0.0000

> <Gold.Chemscore.DEClash.Weighted>
0.0203

> <Gold.Chemscore.DEInternal.Weighted>
2.8669

> <Gold.Chemscore.Rot.Weighted>
3.3163

> <Gold.Chemscore.Internal.Correction.Weighted>
   9.000000E+99

> <Gold.Protein.RotatedTorsions>
[ 6907 6896 6895 6894 ] final  169.73 input  -60.11 | X-H torsion
[ 7974 7965 7964 7962 ] final -107.46 input  175.53 | X-H torsion
[ 8008 7997 7996 7995 ] final   16.93 input   59.86 | X-H torsion
[ 10167 10162 10161 10158 ] final  144.32 input  -65.29 | X-H torsion
[ 10718 10713 10712 10709 ] final   -4.48 input   66.30 | X-H torsion
[ 10763 10752 10751 10750 ] final   85.80 input  -60.55 | X-H torsion
[ 11005 11000 10999 10996 ] final -135.43 input  -57.11 | X-H torsion

> <Gold.Protein.ActiveResidues>
 VAL166  LYS551  ARG553  GLY616  TRP617  ASP618  TYR619  PRO620  LYS621  CYS622 
 ASP623  PHE694  ASN695  SER759  ASP760  ASP761  ALA762  ILE779  LEU786  VAL792 
 PHE793  MET794  SER795  GLU796  ALA797  LYS798  CYS799  TRP800  GLU811  SER814 

> <Gold.Protein.RotatedAtoms>
  151.8273  133.3403  159.3602 H   0  0  0  0  0  0  0  0  0  0  0  0  # atno 6907 bound_to 6896
  150.7275  134.5516  159.5807 H   0  0  0  0  0  0  0  0  0  0  0  0  # atno 6908 bound_to 6896
  152.2962  134.7666  160.0419 H   0  0  0  0  0  0  0  0  0  0  0  0  # atno 6909 bound_to 6896
  145.2051  140.9072  143.3347 H   0  0  0  0  0  0  0  0  0  0  0  0  # atno 7974 bound_to 7965
  154.8840  140.2977  155.5408 H   0  0  0  0  0  0  0  0  0  0  0  0  # atno 8008 bound_to 7997
  156.3021  140.2437  156.3781 H   0  0  0  0  0  0  0  0  0  0  0  0  # atno 8009 bound_to 7997
  154.8687  140.0402  157.1700 H   0  0  0  0  0  0  0  0  0  0  0  0  # atno 8010 bound_to 7997
  139.4949  144.5980  151.6542 H   0  0  0  0  0  0  0  0  0  0  0  0  # atno 10167 bound_to 10162
  156.7607  130.5268  149.5786 H   0  0  0  0  0  0  0  0  0  0  0  0  # atno 10718 bound_to 10713
  153.1510  135.4603  154.9636 H   0  0  0  0  0  0  0  0  0  0  0  0  # atno 10763 bound_to 10752
  154.7824  135.3193  154.7962 H   0  0  0  0  0  0  0  0  0  0  0  0  # atno 10764 bound_to 10752
  153.8468  135.6925  153.4851 H   0  0  0  0  0  0  0  0  0  0  0  0  # atno 10765 bound_to 10752
  140.8899  134.1825  157.4535 H   0  0  0  0  0  0  0  0  0  0  0  0  # atno 11005 bound_to 11000
  144.9910  139.3689  143.6215 LP  0  0  0  0  0  0  0  0  0  0  0  0  # atno 17320 bound_to 7965
  146.3409  139.9093  142.8782 LP  0  0  0  0  0  0  0  0  0  0  0  0  # atno 17321 bound_to 7965
  140.5623  144.0248  150.6175 LP  0  0  0  0  0  0  0  0  0  0  0  0  # atno 17342 bound_to 10162
  140.3338  143.3061  152.0659 LP  0  0  0  0  0  0  0  0  0  0  0  0  # atno 17343 bound_to 10162
  156.1341  130.6199  151.0375 LP  0  0  0  0  0  0  0  0  0  0  0  0  # atno 17370 bound_to 10713
  157.6736  131.0855  150.7551 LP  0  0  0  0  0  0  0  0  0  0  0  0  # atno 17371 bound_to 10713
  139.8728  134.9854  156.5279 LP  0  0  0  0  0  0  0  0  0  0  0  0  # atno 17394 bound_to 11000
  140.8360  133.8242  155.9029 LP  0  0  0  0  0  0  0  0  0  0  0  0  # atno 17395 bound_to 11000

$$$$
