AV-unprocessed.smi:2525|AV-procd|sdf|9927|dock4
  -GOLD-   2272013563D 1   1.00000     0.00000
 Structure written by MMmdl.
 44 45  0  0  0  0  0  0  0  0  1 V2000
  146.8614  139.2774  152.9341 C   0  0  0  0  0  0  0  0  0  0  0  0
  147.0582  139.7334  154.3868 C   0  0  0  0  0  0  0  0  0  0  0  0
  148.0274  140.9194  154.5902 C   0  0  0  0  0  0  0  0  0  0  0  0
  147.4582  142.1441  153.8069 C   0  0  0  0  0  0  0  0  0  0  0  0
  146.0702  142.6443  154.2431 C   0  0  0  0  0  0  0  0  0  0  0  0
  148.4129  141.1646  156.0789 C   0  0  2  0  0  0  0  0  0  0  0  0
  147.7036  142.2577  156.7319 N   0  0  0  0  0  0  0  0  0  0  0  0
  146.5940  142.1094  157.4702 C   0  0  0  0  0  0  0  0  0  0  0  0
  146.1167  141.0148  157.7678 O   0  0  0  0  0  0  0  0  0  0  0  0
  145.9002  143.3962  157.9165 C   0  0  0  0  0  0  0  0  0  0  0  0
  146.1332  143.6404  159.3295 N   0  0  0  0  0  0  0  0  0  0  0  0
  145.7832  144.7441  160.0803 C   0  0  0  0  0  0  0  0  0  0  0  0
  146.2703  144.4511  161.3220 C   0  0  0  0  0  0  0  0  0  0  0  0
  146.8863  143.2017  161.2768 N   0  0  0  0  0  0  0  0  0  0  0  0
  146.7957  142.7238  160.0757 N   0  0  0  0  0  0  0  0  0  0  0  0
  149.8198  141.5543  155.6124 C   0  0  1  0  0  0  0  0  0  0  0  0
  151.0129  141.3250  156.5314 C   0  0  0  0  0  0  0  0  0  0  0  0
  149.5470  140.6210  154.4164 C   0  0  1  0  0  0  0  0  0  0  0  0
  149.8551  139.2595  154.7023 O   0  0  0  0  0  0  0  0  0  0  0  0
  151.2448  138.9820  154.6705 C   0  0  0  0  0  0  0  0  0  0  0  0
  146.3040  138.3412  152.9018 H   0  0  0  0  0  0  0  0  0  0  0  0
  147.8146  139.1100  152.4324 H   0  0  0  0  0  0  0  0  0  0  0  0
  146.2908  140.0053  152.3592 H   0  0  0  0  0  0  0  0  0  0  0  0
  146.0841  139.9596  154.8219 H   0  0  0  0  0  0  0  0  0  0  0  0
  147.4137  138.8718  154.9526 H   0  0  0  0  0  0  0  0  0  0  0  0
  148.1558  142.9810  153.8541 H   0  0  0  0  0  0  0  0  0  0  0  0
  147.3738  141.9284  152.7425 H   0  0  0  0  0  0  0  0  0  0  0  0
  145.8419  143.5954  153.7617 H   0  0  0  0  0  0  0  0  0  0  0  0
  145.9939  142.7947  155.3182 H   0  0  0  0  0  0  0  0  0  0  0  0
  145.2868  141.9463  153.9486 H   0  0  0  0  0  0  0  0  0  0  0  0
  148.4302  140.2468  156.6721 H   0  0  0  0  0  0  0  0  0  0  0  0
  148.0302  143.1944  156.5430 H   0  0  0  0  0  0  0  0  0  0  0  0
  146.2796  144.2455  157.3466 H   0  0  0  0  0  0  0  0  0  0  0  0
  144.8282  143.3292  157.7245 H   0  0  0  0  0  0  0  0  0  0  0  0
  145.2531  145.5968  159.6827 H   0  0  0  0  0  0  0  0  0  0  0  0
  146.2319  145.0291  162.2335 H   0  0  0  0  0  0  0  0  0  0  0  0
  149.8222  142.5863  155.2542 H   0  0  0  0  0  0  0  0  0  0  0  0
  151.0335  140.3051  156.9160 H   0  0  0  0  0  0  0  0  0  0  0  0
  150.9809  141.9969  157.3890 H   0  0  0  0  0  0  0  0  0  0  0  0
  151.9531  141.5026  156.0095 H   0  0  0  0  0  0  0  0  0  0  0  0
  149.9744  140.9600  153.4732 H   0  0  0  0  0  0  0  0  0  0  0  0
  151.4152  137.9406  154.9431 H   0  0  0  0  0  0  0  0  0  0  0  0
  151.7969  139.6086  155.3710 H   0  0  0  0  0  0  0  0  0  0  0  0
  151.6499  139.1372  153.6698 H   0  0  0  0  0  0  0  0  0  0  0  0
  1  2  1  0  0  0  0
  1 21  1  0  0  0  0
  1 22  1  0  0  0  0
  1 23  1  0  0  0  0
  2  3  1  0  0  0  0
  2 24  1  0  0  0  0
  2 25  1  0  0  0  0
  3 18  1  0  0  0  0
  3  4  1  0  0  0  0
  3  6  1  0  0  0  0
  4  5  1  0  0  0  0
  4 26  1  0  0  0  0
  4 27  1  0  0  0  0
  5 28  1  0  0  0  0
  5 29  1  0  0  0  0
  5 30  1  0  0  0  0
  6  7  1  0  0  0  0
  6 16  1  0  0  0  0
  6 31  1  0  0  0  0
  7  8  1  0  0  0  0
  7 32  1  0  0  0  0
  8  9  2  0  0  0  0
  8 10  1  0  0  0  0
 10 11  1  0  0  0  0
 10 33  1  0  0  0  0
 10 34  1  0  0  0  0
 11 15  1  0  0  0  0
 11 12  1  0  0  0  0
 12 13  2  0  0  0  0
 12 35  1  0  0  0  0
 13 14  1  0  0  0  0
 13 36  1  0  0  0  0
 14 15  2  0  0  0  0
 16 17  1  0  0  0  0
 16 18  1  0  0  0  0
 16 37  1  0  0  0  0
 17 38  1  0  0  0  0
 17 39  1  0  0  0  0
 17 40  1  0  0  0  0
 18 19  1  0  0  0  0
 18 41  1  0  0  0  0
 19 20  1  0  0  0  0
 20 42  1  0  0  0  0
 20 43  1  0  0  0  0
 20 44  1  0  0  0  0
M  END
> <s_m_source_file>
AV-unprocessed.smi

> <i_m_source_file_index>
2525

> <i_lp_mmshare_version>
43012

> <i_f3d_flags>
0

> <s_epik_input>
W0NIM11PW0NAQEhdMVtDQEhdKFtDSDNdKVtDQEBIXShDMShbQ0gyXVtDSDNdKVtDSDJdW0NIM10pW05IXUMoPU8pW0NIMl1uMltjSF1bY0hdbm4y

> <s_epik_cmdline>
J2VwaWtfcHl0aG9uJywgJy1waCcsICc3LjAnLCAnLXRuJywgJzgnLCAnLW1hJywgJzIwMCcsICctbWV0YWxfYmluZGluZycsICctaW1hZScsICc8aW5maWxlLm1hZT4nLCAnLW9tYWUnLCAnPG91dGZpbGUubWFlPic=

> <r_lp_tautomer_probability>
1

> <r_epik_Ionization_Penalty>
1.18045e-06

> <r_epik_Ionization_Penalty_Charging>
0

> <r_epik_Ionization_Penalty_Neutral>
1.18045e-06

> <r_epik_State_Penalty>
-0

> <r_epik_Charging_Adjusted_Penalty>
0

> <i_epik_Tot_Q>
0

> <i_epik_Tot_abs_Q>
0

> <r_epik_Metal_State_Penalty>
-0

> <b_epik_Metal_Only>
0

> <s_lp_Force_Field>
OPLS_2005

> <r_lp_Energy>
28.7766

> <b_lp_Chiralities_Consistent>
1

> <s_lp_Variant>
AV-unprocessed.smi:2525-2

> <Gold.Version>
5.8.1

> <Gold.Id.Protein>
6NUR|6NUR_protein|mol2

> <Gold.PLP.Fitness>
41.4547

> <Gold.PLP.PLP>
-36.0480

> <Gold.PLP.part.hbond>
-4.5055

> <Gold.PLP.part.metal>
0.0000

> <Gold.PLP.part.buried>
-4.7339

> <Gold.PLP.part.nonpolar>
-26.9928

> <Gold.PLP.part.repulsive>
0.1915

> <Gold.PLP.ligand.clash>
0.0000

> <Gold.PLP.ligand.torsion>
0.7107

> <Gold.PLP.Chemscore.Hbond>
2.0452

> <Gold.PLP.Chemscore.CHOScore>
0.0000

> <Gold.PLP.Chemscore.Metal>
0.0000

> <Gold.Chemscore.Hbonds>
donor molecule, donor type, donor heavy atom, donor atom, acceptor molecule, acceptor atom, score
      L1  H     7    32       P1  8028  0.95
      P1  H  6933  6944       L1    14  0.45
      P1  H  6934  6946       L1    15  0.60

> <Gold.PLP.Chemscore.Internal.Correction>
0.6925

> <Gold.Rescore>
     Score         DG    S(hbond)    S(metal)    S(lipo)     H(rot)  DE(clash)    DE(int)     intcor
      7.41     -10.89       0.61        0.00      72.24       1.98       0.04       3.44       ----

> <Gold.Chemscore.Fitness>
7.4138

> <Gold.Chemscore.DG>
-10.8920

> <Gold.Chemscore.ZeroCoef>
-5.4800

> <Gold.Chemscore.Hbond>
0.6087

> <Gold.Chemscore.Metal>
0.0000

> <Gold.Chemscore.Lipo>
72.2400

> <Gold.Chemscore.Internal_Hbond>
0.0000

> <Gold.Chemscore.DEClash>
0.0351

> <Gold.Chemscore.DEInternal>
3.4431

> <Gold.Chemscore.Rot>
1.9817

> <Gold.Chemscore.Internal.Correction>
   9.000000E+99

> <Gold.Chemscore.Hbonds>
donor molecule, donor type, donor heavy atom, donor atom, acceptor molecule, acceptor atom, score
      L1  H     7    32       P1  8028  0.21
      P1  H  6933  6944       L1    14  0.02
      P1  H  6934  6946       L1    15  0.04

> <Gold.Chemscore.Hbond.Weighted>
-2.0330

> <Gold.Chemscore.Metal.Weighted>
-0.0000

> <Gold.Chemscore.Lipo.Weighted>
-8.4521

> <Gold.Chemscore.Internal_Hbond.Weighted>
0.0000

> <Gold.Chemscore.DEClash.Weighted>
0.0351

> <Gold.Chemscore.DEInternal.Weighted>
3.4431

> <Gold.Chemscore.Rot.Weighted>
5.0731

> <Gold.Chemscore.Internal.Correction.Weighted>
   9.000000E+99

> <Gold.Protein.RotatedTorsions>
[ 6907 6896 6895 6894 ] final  149.98 input  -60.11 | X-H torsion
[ 7974 7965 7964 7962 ] final  104.52 input  175.53 | X-H torsion
[ 8008 7997 7996 7995 ] final -139.28 input   59.86 | X-H torsion
[ 10167 10162 10161 10158 ] final   68.68 input  -65.29 | X-H torsion
[ 10718 10713 10712 10709 ] final   70.54 input   66.30 | X-H torsion
[ 10763 10752 10751 10750 ] final -154.85 input  -60.55 | X-H torsion
[ 11005 11000 10999 10996 ] final -156.67 input  -57.11 | X-H torsion

> <Gold.Protein.ActiveResidues>
 VAL166  LYS551  ARG553  GLY616  TRP617  ASP618  TYR619  PRO620  LYS621  CYS622 
 ASP623  PHE694  ASN695  SER759  ASP760  ASP761  ALA762  ILE779  LEU786  VAL792 
 PHE793  MET794  SER795  GLU796  ALA797  LYS798  CYS799  TRP800  GLU811  SER814 

> <Gold.Protein.RotatedAtoms>
  152.1206  133.4351  159.4673 H   0  0  0  0  0  0  0  0  0  0  0  0  # atno 6907 bound_to 6896
  150.6872  134.2539  159.4531 H   0  0  0  0  0  0  0  0  0  0  0  0  # atno 6908 bound_to 6896
  152.0415  134.9708  160.0624 H   0  0  0  0  0  0  0  0  0  0  0  0  # atno 6909 bound_to 6896
  145.3317  139.2485  143.3657 H   0  0  0  0  0  0  0  0  0  0  0  0  # atno 7974 bound_to 7965
  155.4423  140.0532  157.3009 H   0  0  0  0  0  0  0  0  0  0  0  0  # atno 8008 bound_to 7997
  154.4813  140.2082  155.9714 H   0  0  0  0  0  0  0  0  0  0  0  0  # atno 8009 bound_to 7997
  156.1209  140.3188  155.8212 H   0  0  0  0  0  0  0  0  0  0  0  0  # atno 8010 bound_to 7997
  140.0760  144.5111  150.7194 H   0  0  0  0  0  0  0  0  0  0  0  0  # atno 10167 bound_to 10162
  157.6405  130.9482  150.0665 H   0  0  0  0  0  0  0  0  0  0  0  0  # atno 10718 bound_to 10713
  154.7829  135.3180  154.7950 H   0  0  0  0  0  0  0  0  0  0  0  0  # atno 10763 bound_to 10752
  153.8657  135.6849  153.4783 H   0  0  0  0  0  0  0  0  0  0  0  0  # atno 10764 bound_to 10752
  153.1471  135.4715  154.9520 H   0  0  0  0  0  0  0  0  0  0  0  0  # atno 10765 bound_to 10752
  140.6730  134.4226  157.5230 H   0  0  0  0  0  0  0  0  0  0  0  0  # atno 11005 bound_to 11000
  146.3043  140.3897  142.8693 LP  0  0  0  0  0  0  0  0  0  0  0  0  # atno 17320 bound_to 7965
  144.8859  140.7461  143.5957 LP  0  0  0  0  0  0  0  0  0  0  0  0  # atno 17321 bound_to 7965
  140.7101  143.2498  151.4606 LP  0  0  0  0  0  0  0  0  0  0  0  0  # atno 17342 bound_to 10162
  139.5807  144.1716  152.1964 LP  0  0  0  0  0  0  0  0  0  0  0  0  # atno 17343 bound_to 10162
  156.1682  130.3645  149.9203 LP  0  0  0  0  0  0  0  0  0  0  0  0  # atno 17370 bound_to 10713
  156.7185  130.8997  151.3616 LP  0  0  0  0  0  0  0  0  0  0  0  0  # atno 17371 bound_to 10713
  139.8975  134.8634  156.2040 LP  0  0  0  0  0  0  0  0  0  0  0  0  # atno 17394 bound_to 11000
  141.0377  133.6954  156.1542 LP  0  0  0  0  0  0  0  0  0  0  0  0  # atno 17395 bound_to 11000

$$$$
