AV-unprocessed.smi:1672|AV-procd|sdf|6707|dock2
  -GOLD-   22720 7453D 1   1.00000     0.00000
 Structure written by MMmdl.
 49 51  0  0  0  0  0  0  0  0  3 V2000
  147.4742  132.8395  155.4285 C   0  0  0  0  0  0  0  0  0  0  0  0
  147.8093  133.5902  154.1278 C   0  0  2  0  0  0  0  0  0  0  0  0
  149.3185  133.6129  153.8249 C   0  0  0  0  0  0  0  0  0  0  0  0
  150.0829  134.5855  154.7412 C   0  0  0  0  0  0  0  0  0  0  0  0
  149.5131  135.9553  154.6673 N   0  3  2  0  0  0  0  0  0  0  0  0
  150.3180  136.9444  155.4301 C   0  0  0  0  0  0  0  0  0  0  0  0
  150.2158  138.3661  154.8432 C   0  0  2  0  0  0  0  0  0  0  0  0
  150.2040  138.2745  153.4317 O   0  0  0  0  0  0  0  0  0  0  0  0
  151.3891  139.2591  155.2937 C   0  0  0  0  0  0  0  0  0  0  0  0
  150.9440  140.5168  155.9167 N   0  0  0  0  0  0  0  0  0  0  0  0
  150.0306  141.4334  155.4825 C   0  0  0  0  0  0  0  0  0  0  0  0
  149.2273  141.3731  154.2255 C   0  0  0  0  0  0  0  0  0  0  0  0
  148.4661  142.5421  154.0199 O   0  0  0  0  0  0  0  0  0  0  0  0
  149.9715  142.4212  156.4189 N   0  3  0  0  0  0  0  0  0  0  0  0
  150.8546  142.1385  157.4611 C   0  0  0  0  0  0  0  0  0  0  0  0
  151.1427  142.8437  158.6255 C   0  0  0  0  0  0  0  0  0  0  0  0
  152.1010  142.2745  159.4895 C   0  0  0  0  0  0  0  0  0  0  0  0
  152.7320  141.0521  159.1814 C   0  0  0  0  0  0  0  0  0  0  0  0
  152.4317  140.3463  157.9975 C   0  0  0  0  0  0  0  0  0  0  0  0
  151.4823  140.9149  157.1477 C   0  0  0  0  0  0  0  0  0  0  0  0
  148.0703  135.9676  155.0275 C   0  0  0  0  0  0  0  0  0  0  0  0
  147.2626  135.0295  154.1130 C   0  0  0  0  0  0  0  0  0  0  0  0
  147.9289  133.3054  156.3023 H   0  0  0  0  0  0  0  0  0  0  0  0
  147.8263  131.8084  155.3853 H   0  0  0  0  0  0  0  0  0  0  0  0
  146.3971  132.8092  155.5951 H   0  0  0  0  0  0  0  0  0  0  0  0
  147.3190  133.0428  153.3215 H   0  0  0  0  0  0  0  0  0  0  0  0
  149.7366  132.6094  153.9119 H   0  0  0  0  0  0  0  0  0  0  0  0
  149.4697  133.9131  152.7871 H   0  0  0  0  0  0  0  0  0  0  0  0
  150.0669  134.2359  155.7743 H   0  0  0  0  0  0  0  0  0  0  0  0
  151.1293  134.6075  154.4342 H   0  0  0  0  0  0  0  0  0  0  0  0
  150.0003  136.9349  156.4740 H   0  0  0  0  0  0  0  0  0  0  0  0
  151.3684  136.6482  155.4327 H   0  0  0  0  0  0  0  0  0  0  0  0
  149.2847  138.8373  155.1550 H   0  0  0  0  0  0  0  0  0  0  0  0
  149.7201  137.5019  153.1818 H   0  0  0  0  0  0  0  0  0  0  0  0
  151.9914  138.7320  156.0345 H   0  0  0  0  0  0  0  0  0  0  0  0
  152.0615  139.4821  154.4651 H   0  0  0  0  0  0  0  0  0  0  0  0
  149.8954  141.2324  153.3753 H   0  0  0  0  0  0  0  0  0  0  0  0
  148.5609  140.5111  154.2547 H   0  0  0  0  0  0  0  0  0  0  0  0
  148.7177  143.1848  154.6656 H   0  0  0  0  0  0  0  0  0  0  0  0
  150.6607  143.7807  158.8632 H   0  0  0  0  0  0  0  0  0  0  0  0
  152.3570  142.7855  160.4065 H   0  0  0  0  0  0  0  0  0  0  0  0
  153.4618  140.6472  159.8677 H   0  0  0  0  0  0  0  0  0  0  0  0
  152.9249  139.4123  157.7747 H   0  0  0  0  0  0  0  0  0  0  0  0
  147.9499  135.6773  156.0721 H   0  0  0  0  0  0  0  0  0  0  0  0
  147.6661  136.9752  154.9384 H   0  0  0  0  0  0  0  0  0  0  0  0
  147.2971  135.4146  153.0929 H   0  0  0  0  0  0  0  0  0  0  0  0
  146.2112  135.0373  154.4023 H   0  0  0  0  0  0  0  0  0  0  0  0
  149.5764  136.2303  153.6970 H   0  0  0  0  0  0  0  0  0  0  0  0
  149.3649  143.2285  156.3490 H   0  0  0  0  0  0  0  0  0  0  0  0
  1  2  1  0  0  0  0
  1 23  1  0  0  0  0
  1 24  1  0  0  0  0
  1 25  1  0  0  0  0
  2 22  1  0  0  0  0
  2  3  1  0  0  0  0
  2 26  1  0  0  0  0
  3  4  1  0  0  0  0
  3 27  1  0  0  0  0
  3 28  1  0  0  0  0
  4  5  1  0  0  0  0
  4 29  1  0  0  0  0
  4 30  1  0  0  0  0
  5  6  1  0  0  0  0
  5 21  1  0  0  0  0
  5 48  1  0  0  0  0
  6  7  1  0  0  0  0
  6 31  1  0  0  0  0
  6 32  1  0  0  0  0
  7  8  1  0  0  0  0
  7  9  1  0  0  0  0
  7 33  1  0  0  0  0
  8 34  1  0  0  0  0
  9 10  1  0  0  0  0
  9 35  1  0  0  0  0
  9 36  1  0  0  0  0
 10 20  1  0  0  0  0
 10 11  1  0  0  0  0
 11 12  1  0  0  0  0
 11 14  2  0  0  0  0
 12 13  1  0  0  0  0
 12 37  1  0  0  0  0
 12 38  1  0  0  0  0
 13 39  1  0  0  0  0
 14 15  1  0  0  0  0
 14 49  1  0  0  0  0
 15 20  2  0  0  0  0
 15 16  1  0  0  0  0
 16 17  2  0  0  0  0
 16 40  1  0  0  0  0
 17 18  1  0  0  0  0
 17 41  1  0  0  0  0
 18 19  2  0  0  0  0
 18 42  1  0  0  0  0
 19 20  1  0  0  0  0
 19 43  1  0  0  0  0
 21 22  1  0  0  0  0
 21 44  1  0  0  0  0
 21 45  1  0  0  0  0
 22 46  1  0  0  0  0
 22 47  1  0  0  0  0
M  CHG  1   5   1
M  CHG  1  14   1
M  END
> <s_m_source_file>
AV-unprocessed.smi

> <i_m_source_file_index>
1672

> <i_lp_mmshare_version>
43012

> <i_f3d_flags>
0

> <s_epik_input>
W0NIM11bQ0hdMVtDSDJdW0NIMl1OKFtDSDJdW0NIMl0xKVtDSDJdW0NASF0oW09IXSlbQ0gyXW4oYyhuMilbQ0gyXVtPSF0pYyhjMjMpW2NIXVtjSF1bY0hdW2NIXTM=

> <s_epik_cmdline>
J2VwaWtfcHl0aG9uJywgJy1waCcsICc3LjAnLCAnLXRuJywgJzgnLCAnLW1hJywgJzIwMCcsICctbWV0YWxfYmluZGluZycsICctaW1hZScsICc8aW5maWxlLm1hZT4nLCAnLW9tYWUnLCAnPG91dGZpbGUubWFlPic=

> <r_epik_Ionization_Penalty>
1.51642

> <r_epik_Ionization_Penalty_Charging>
1.51557

> <r_epik_Ionization_Penalty_Neutral>
0.000856474

> <r_epik_State_Penalty>
1.6048

> <r_epik_Charging_Adjusted_Penalty>
3.12037

> <i_epik_Tot_Q>
2

> <i_epik_Tot_abs_Q>
2

> <r_epik_Metal_State_Penalty>
5.65673

> <b_epik_Metal_Only>
0

> <s_lp_Force_Field>
OPLS_2005

> <r_lp_Energy>
31.2365

> <b_lp_Chiralities_Consistent>
1

> <s_lp_Variant>
AV-unprocessed.smi:1672-7

> <Gold.Version>
5.8.1

> <Gold.Id.Protein>
6NUR|6NUR_protein|mol2

> <Gold.PLP.Fitness>
57.4058

> <Gold.PLP.PLP>
-41.9095

> <Gold.PLP.part.hbond>
-6.8389

> <Gold.PLP.part.metal>
0.0000

> <Gold.PLP.part.buried>
-1.4613

> <Gold.PLP.part.nonpolar>
-32.0509

> <Gold.PLP.part.repulsive>
0.0905

> <Gold.PLP.ligand.clash>
0.0000

> <Gold.PLP.ligand.torsion>
1.3431

> <Gold.PLP.Chemscore.Hbond>
6.0000

> <Gold.PLP.Chemscore.CHOScore>
0.0000

> <Gold.PLP.Chemscore.Metal>
0.0000

> <Gold.Chemscore.Hbonds>
donor molecule, donor type, donor heavy atom, donor atom, acceptor molecule, acceptor atom, score
      L1  H     5    48       P1  7948  2.00
      L1  H     8    34       P1  7948  1.00
      L1  H    13    39       P1  8028  1.00
      L1  H    14    49       P1  8028  2.00

> <Gold.PLP.Chemscore.Internal.Correction>
0.1825

> <Gold.Rescore>
     Score         DG    S(hbond)    S(metal)    S(lipo)     H(rot)  DE(clash)    DE(int)     intcor
     19.70     -21.03       3.63        0.00      94.02       2.96       0.01       1.32       ----

> <Gold.Chemscore.Fitness>
19.6991

> <Gold.Chemscore.DG>
-21.0285

> <Gold.Chemscore.ZeroCoef>
-5.4800

> <Gold.Chemscore.Hbond>
3.6268

> <Gold.Chemscore.Metal>
0.0000

> <Gold.Chemscore.Lipo>
94.0247

> <Gold.Chemscore.Internal_Hbond>
0.0000

> <Gold.Chemscore.DEClash>
0.0082

> <Gold.Chemscore.DEInternal>
1.3211

> <Gold.Chemscore.Rot>
2.9555

> <Gold.Chemscore.Internal.Correction>
   9.000000E+99

> <Gold.Chemscore.Hbonds>
donor molecule, donor type, donor heavy atom, donor atom, acceptor molecule, acceptor atom, score
      L1  H     5    48       P1  7948  0.54
      L1  H     8    34       P1  7948  0.62
      L1  H    13    39       P1  8028  1.00
      L1  H    14    49       P1  8028  0.97

> <Gold.Chemscore.Hbond.Weighted>
-12.1136

> <Gold.Chemscore.Metal.Weighted>
-0.0000

> <Gold.Chemscore.Lipo.Weighted>
-11.0009

> <Gold.Chemscore.Internal_Hbond.Weighted>
0.0000

> <Gold.Chemscore.DEClash.Weighted>
0.0082

> <Gold.Chemscore.DEInternal.Weighted>
1.3211

> <Gold.Chemscore.Rot.Weighted>
7.5660

> <Gold.Chemscore.Internal.Correction.Weighted>
   9.000000E+99

> <Gold.Protein.RotatedTorsions>
[ 6907 6896 6895 6894 ] final   90.34 input  -60.11 | X-H torsion
[ 7974 7965 7964 7962 ] final  101.60 input  175.53 | X-H torsion
[ 8008 7997 7996 7995 ] final  -49.71 input   59.86 | X-H torsion
[ 10167 10162 10161 10158 ] final -139.68 input  -65.29 | X-H torsion
[ 10718 10713 10712 10709 ] final  -86.10 input   66.30 | X-H torsion
[ 10763 10752 10751 10750 ] final   35.34 input  -60.55 | X-H torsion
[ 11005 11000 10999 10996 ] final   99.86 input  -57.11 | X-H torsion

> <Gold.Protein.ActiveResidues>
 VAL166  LYS551  ARG553  GLY616  TRP617  ASP618  TYR619  PRO620  LYS621  CYS622 
 ASP623  PHE694  ASN695  SER759  ASP760  ASP761  ALA762  ILE779  LEU786  VAL792 
 PHE793  MET794  SER795  GLU796  ALA797  LYS798  CYS799  TRP800  GLU811  SER814 

> <Gold.Protein.RotatedAtoms>
  152.5444  134.1827  159.8641 H   0  0  0  0  0  0  0  0  0  0  0  0  # atno 6907 bound_to 6896
  151.1828  133.4708  159.2601 H   0  0  0  0  0  0  0  0  0  0  0  0  # atno 6908 bound_to 6896
  151.1161  135.0065  159.8572 H   0  0  0  0  0  0  0  0  0  0  0  0  # atno 6909 bound_to 6896
  145.3702  139.2400  143.3459 H   0  0  0  0  0  0  0  0  0  0  0  0  # atno 7974 bound_to 7965
  154.4049  140.1290  156.4547 H   0  0  0  0  0  0  0  0  0  0  0  0  # atno 8008 bound_to 7997
  155.7332  140.3491  155.5049 H   0  0  0  0  0  0  0  0  0  0  0  0  # atno 8009 bound_to 7997
  155.9108  140.1035  157.1271 H   0  0  0  0  0  0  0  0  0  0  0  0  # atno 8010 bound_to 7997
  139.8356  143.7390  152.2665 H   0  0  0  0  0  0  0  0  0  0  0  0  # atno 10167 bound_to 10162
  155.9992  130.4753  150.4663 H   0  0  0  0  0  0  0  0  0  0  0  0  # atno 10718 bound_to 10713
  153.0123  135.6336  154.1811 H   0  0  0  0  0  0  0  0  0  0  0  0  # atno 10763 bound_to 10752
  154.1552  135.2826  155.3126 H   0  0  0  0  0  0  0  0  0  0  0  0  # atno 10764 bound_to 10752
  154.6023  135.5583  153.7448 H   0  0  0  0  0  0  0  0  0  0  0  0  # atno 10765 bound_to 10752
  139.8770  134.9114  156.4669 H   0  0  0  0  0  0  0  0  0  0  0  0  # atno 11005 bound_to 11000
  146.2889  140.4351  142.8747 LP  0  0  0  0  0  0  0  0  0  0  0  0  # atno 17320 bound_to 7965
  144.8582  140.7101  143.6124 LP  0  0  0  0  0  0  0  0  0  0  0  0  # atno 17321 bound_to 7965
  139.7611  144.7506  151.0363 LP  0  0  0  0  0  0  0  0  0  0  0  0  # atno 17342 bound_to 10162
  140.7803  143.4750  151.0094 LP  0  0  0  0  0  0  0  0  0  0  0  0  # atno 17343 bound_to 10162
  157.2683  131.0581  151.2276 LP  0  0  0  0  0  0  0  0  0  0  0  0  # atno 17370 bound_to 10713
  157.3366  130.7012  149.6356 LP  0  0  0  0  0  0  0  0  0  0  0  0  # atno 17371 bound_to 10713
  140.8823  133.7908  155.9480 LP  0  0  0  0  0  0  0  0  0  0  0  0  # atno 17394 bound_to 11000
  140.8841  134.2576  157.5129 LP  0  0  0  0  0  0  0  0  0  0  0  0  # atno 17395 bound_to 11000

$$$$
