AV-unprocessed.smi:1941|AV-procd|sdf|7847|dock3
  -GOLD-   22720 9593D 1   1.00000     0.00000
 Structure written by MMmdl.
 40 41  0  0  0  0  0  0  0  0  1 V2000
  155.5367  140.0798  160.4735 C   0  0  0  0  0  0  0  0  0  0  0  0
  154.5167  141.1614  160.5763 C   0  0  0  0  0  0  0  0  0  0  0  0
  153.9376  141.7355  159.5186 N   0  0  0  0  0  0  0  0  0  0  0  0
  153.0167  142.7243  159.8798 C   0  0  0  0  0  0  0  0  0  0  0  0
  152.2664  143.4739  158.8210 C   0  0  0  0  0  0  0  0  0  0  0  0
  151.2493  142.5828  158.0880 C   0  0  0  0  0  0  0  0  0  0  0  0
  149.8784  142.9131  158.4599 N   0  0  0  0  0  0  0  0  0  0  0  0
  148.8669  142.0353  158.5096 C   0  0  0  0  0  0  0  0  0  0  0  0
  148.9786  140.8410  158.2318 O   0  0  0  0  0  0  0  0  0  0  0  0
  147.7266  142.6146  158.9104 N   0  0  0  0  0  0  0  0  0  0  0  0
  146.4431  141.9399  159.1031 C   0  0  2  0  0  0  0  0  0  0  0  0
  145.3569  142.6569  158.2886 C   0  0  0  0  0  0  0  0  0  0  0  0
  146.0862  141.8629  160.6019 C   0  0  1  0  0  0  0  0  0  0  0  0
  144.8330  141.0421  160.9420 C   0  0  0  0  0  0  0  0  0  0  0  0
  145.1771  140.3567  162.2580 C   0  0  0  0  0  0  0  0  0  0  0  0
  146.5652  140.8894  162.6064 C   0  0  0  0  0  0  0  0  0  0  0  0
  147.1198  141.2353  161.3482 O   0  0  0  0  0  0  0  0  0  0  0  0
  152.9045  142.8887  161.2379 C   0  0  0  0  0  0  0  0  0  0  0  0
  153.9546  141.8084  162.1126 S   0  0  0  0  0  0  0  0  0  0  0  0
  155.7791  139.8774  159.4296 H   0  0  0  0  0  0  0  0  0  0  0  0
  155.1565  139.1650  160.9281 H   0  0  0  0  0  0  0  0  0  0  0  0
  156.4480  140.3774  160.9924 H   0  0  0  0  0  0  0  0  0  0  0  0
  151.7534  144.3255  159.2699 H   0  0  0  0  0  0  0  0  0  0  0  0
  152.9665  143.8961  158.0987 H   0  0  0  0  0  0  0  0  0  0  0  0
  151.3485  142.7133  157.0101 H   0  0  0  0  0  0  0  0  0  0  0  0
  151.4473  141.5292  158.2926 H   0  0  0  0  0  0  0  0  0  0  0  0
  149.6902  143.8741  158.7052 H   0  0  0  0  0  0  0  0  0  0  0  0
  147.7473  143.6019  159.1204 H   0  0  0  0  0  0  0  0  0  0  0  0
  146.4981  140.9158  158.7299 H   0  0  0  0  0  0  0  0  0  0  0  0
  144.3942  142.1557  158.3925 H   0  0  0  0  0  0  0  0  0  0  0  0
  145.6067  142.6697  157.2272 H   0  0  0  0  0  0  0  0  0  0  0  0
  145.2306  143.6901  158.6140 H   0  0  0  0  0  0  0  0  0  0  0  0
  145.9563  142.8727  160.9959 H   0  0  0  0  0  0  0  0  0  0  0  0
  143.9545  141.6820  161.0284 H   0  0  0  0  0  0  0  0  0  0  0  0
  144.6141  140.2900  160.1838 H   0  0  0  0  0  0  0  0  0  0  0  0
  144.4507  140.5639  163.0444 H   0  0  0  0  0  0  0  0  0  0  0  0
  145.2152  139.2766  162.1120 H   0  0  0  0  0  0  0  0  0  0  0  0
  146.4936  141.7825  163.2291 H   0  0  0  0  0  0  0  0  0  0  0  0
  147.1790  140.1555  163.1290 H   0  0  0  0  0  0  0  0  0  0  0  0
  152.2681  143.5770  161.7746 H   0  0  0  0  0  0  0  0  0  0  0  0
  1  2  1  0  0  0  0
  1 20  1  0  0  0  0
  1 21  1  0  0  0  0
  1 22  1  0  0  0  0
  2 19  1  0  0  0  0
  2  3  2  0  0  0  0
  3  4  1  0  0  0  0
  4  5  1  0  0  0  0
  4 18  2  0  0  0  0
  5  6  1  0  0  0  0
  5 23  1  0  0  0  0
  5 24  1  0  0  0  0
  6  7  1  0  0  0  0
  6 25  1  0  0  0  0
  6 26  1  0  0  0  0
  7  8  1  0  0  0  0
  7 27  1  0  0  0  0
  8  9  2  0  0  0  0
  8 10  1  0  0  0  0
 10 11  1  0  0  0  0
 10 28  1  0  0  0  0
 11 12  1  0  0  0  0
 11 13  1  0  0  0  0
 11 29  1  0  0  0  0
 12 30  1  0  0  0  0
 12 31  1  0  0  0  0
 12 32  1  0  0  0  0
 13 17  1  0  0  0  0
 13 14  1  0  0  0  0
 13 33  1  0  0  0  0
 14 15  1  0  0  0  0
 14 34  1  0  0  0  0
 14 35  1  0  0  0  0
 15 16  1  0  0  0  0
 15 36  1  0  0  0  0
 15 37  1  0  0  0  0
 16 17  1  0  0  0  0
 16 38  1  0  0  0  0
 16 39  1  0  0  0  0
 18 19  1  0  0  0  0
 18 40  1  0  0  0  0
M  END
> <s_m_source_file>
AV-unprocessed.smi

> <i_m_source_file_index>
1941

> <i_lp_mmshare_version>
43012

> <i_f3d_flags>
0

> <s_epik_input>
W0NIM11jMW5jKFtjSF1zMSlbQ0gyXVtDSDJdW05IXUMoPU8pW05IXVtDQEhdKFtDSDNdKVtDQEBIXTJbQ0gyXVtDSDJdW0NIMl1PMg==

> <s_epik_cmdline>
J2VwaWtfcHl0aG9uJywgJy1waCcsICc3LjAnLCAnLXRuJywgJzgnLCAnLW1hJywgJzIwMCcsICctbWV0YWxfYmluZGluZycsICctaW1hZScsICc8aW5maWxlLm1hZT4nLCAnLW9tYWUnLCAnPG91dGZpbGUubWFlPic=

> <r_epik_Ionization_Penalty>
0.00195486

> <r_epik_Ionization_Penalty_Charging>
0

> <r_epik_Ionization_Penalty_Neutral>
0.00195486

> <r_epik_State_Penalty>
0.00129472

> <r_epik_Charging_Adjusted_Penalty>
0.00129472

> <i_epik_Tot_Q>
0

> <i_epik_Tot_abs_Q>
0

> <r_epik_Metal_State_Penalty>
-0

> <b_epik_Metal_Only>
0

> <s_lp_Force_Field>
OPLS_2005

> <r_lp_Energy>
12.2091

> <b_lp_Chiralities_Consistent>
1

> <s_lp_Variant>
AV-unprocessed.smi:1941-3

> <Gold.Version>
5.8.1

> <Gold.Id.Protein>
6NUR|6NUR_protein|mol2

> <Gold.PLP.Fitness>
46.2376

> <Gold.PLP.PLP>
-39.9075

> <Gold.PLP.part.hbond>
-5.1826

> <Gold.PLP.part.metal>
0.0000

> <Gold.PLP.part.buried>
-5.2306

> <Gold.PLP.part.nonpolar>
-30.4355

> <Gold.PLP.part.repulsive>
0.1683

> <Gold.PLP.ligand.clash>
0.0000

> <Gold.PLP.ligand.torsion>
0.6914

> <Gold.PLP.Chemscore.Hbond>
2.5490

> <Gold.PLP.Chemscore.CHOScore>
0.0000

> <Gold.PLP.Chemscore.Metal>
0.0000

> <Gold.PLP.Chemscore.Internal.Correction>
0.0660

> <Gold.Rescore>
     Score         DG    S(hbond)    S(metal)    S(lipo)     H(rot)  DE(clash)    DE(int)     intcor
     17.42     -18.49       1.88        0.00      94.65       1.69       0.14       0.93       ----

> <Gold.Chemscore.Fitness>
17.4226

> <Gold.Chemscore.DG>
-18.4914

> <Gold.Chemscore.ZeroCoef>
-5.4800

> <Gold.Chemscore.Hbond>
1.8772

> <Gold.Chemscore.Metal>
0.0000

> <Gold.Chemscore.Lipo>
94.6467

> <Gold.Chemscore.Internal_Hbond>
0.0000

> <Gold.Chemscore.DEClash>
0.1409

> <Gold.Chemscore.DEInternal>
0.9279

> <Gold.Chemscore.Rot>
1.6923

> <Gold.Chemscore.Internal.Correction>
   9.000000E+99

> <Gold.Chemscore.Hbond.Weighted>
-6.2700

> <Gold.Chemscore.Metal.Weighted>
-0.0000

> <Gold.Chemscore.Lipo.Weighted>
-11.0737

> <Gold.Chemscore.Internal_Hbond.Weighted>
0.0000

> <Gold.Chemscore.DEClash.Weighted>
0.1409

> <Gold.Chemscore.DEInternal.Weighted>
0.9279

> <Gold.Chemscore.Rot.Weighted>
4.3323

> <Gold.Chemscore.Internal.Correction.Weighted>
   9.000000E+99

> <Gold.Protein.RotatedTorsions>
[ 6907 6896 6895 6894 ] final   22.40 input  -60.11 | X-H torsion
[ 7974 7965 7964 7962 ] final  -93.59 input  175.53 | X-H torsion
[ 8008 7997 7996 7995 ] final -124.81 input   59.86 | X-H torsion
[ 10167 10162 10161 10158 ] final -160.65 input  -65.29 | X-H torsion
[ 10718 10713 10712 10709 ] final  -87.72 input   66.30 | X-H torsion
[ 10763 10752 10751 10750 ] final -134.99 input  -60.55 | X-H torsion
[ 11005 11000 10999 10996 ] final  -87.37 input  -57.11 | X-H torsion

> <Gold.Protein.ActiveResidues>
 VAL166  LYS551  ARG553  GLY616  TRP617  ASP618  TYR619  PRO620  LYS621  CYS622 
 ASP623  PHE694  ASN695  SER759  ASP760  ASP761  ALA762  ILE779  LEU786  VAL792 
 PHE793  MET794  SER795  GLU796  ALA797  LYS798  CYS799  TRP800  GLU811  SER814 

> <Gold.Protein.RotatedAtoms>
  151.9266  135.0275  160.0525 H   0  0  0  0  0  0  0  0  0  0  0  0  # atno 6907 bound_to 6896
  152.2154  133.4938  159.5141 H   0  0  0  0  0  0  0  0  0  0  0  0  # atno 6908 bound_to 6896
  150.6986  134.1329  159.4119 H   0  0  0  0  0  0  0  0  0  0  0  0  # atno 6909 bound_to 6896
  145.3845  140.9521  143.2375 H   0  0  0  0  0  0  0  0  0  0  0  0  # atno 7974 bound_to 7965
  155.2029  140.0416  157.2920 H   0  0  0  0  0  0  0  0  0  0  0  0  # atno 8008 bound_to 7997
  154.6063  140.2465  155.7699 H   0  0  0  0  0  0  0  0  0  0  0  0  # atno 8009 bound_to 7997
  156.2352  140.2924  156.0302 H   0  0  0  0  0  0  0  0  0  0  0  0  # atno 8010 bound_to 7997
  139.6524  144.0060  152.2170 H   0  0  0  0  0  0  0  0  0  0  0  0  # atno 10167 bound_to 10162
  155.9985  130.4810  150.4910 H   0  0  0  0  0  0  0  0  0  0  0  0  # atno 10718 bound_to 10713
  154.8710  135.3717  154.4826 H   0  0  0  0  0  0  0  0  0  0  0  0  # atno 10763 bound_to 10752
  153.5478  135.7025  153.5610 H   0  0  0  0  0  0  0  0  0  0  0  0  # atno 10764 bound_to 10752
  153.3743  135.4013  155.1775 H   0  0  0  0  0  0  0  0  0  0  0  0  # atno 10765 bound_to 10752
  141.1618  133.7507  156.9296 H   0  0  0  0  0  0  0  0  0  0  0  0  # atno 11005 bound_to 11000
  144.8484  139.5360  143.6868 LP  0  0  0  0  0  0  0  0  0  0  0  0  # atno 17320 bound_to 7965
  146.2827  139.6919  142.9218 LP  0  0  0  0  0  0  0  0  0  0  0  0  # atno 17321 bound_to 7965
  139.9778  144.6449  150.7929 LP  0  0  0  0  0  0  0  0  0  0  0  0  # atno 17342 bound_to 10162
  140.7543  143.3025  151.3043 LP  0  0  0  0  0  0  0  0  0  0  0  0  # atno 17343 bound_to 10162
  157.2905  131.0625  151.2137 LP  0  0  0  0  0  0  0  0  0  0  0  0  # atno 17370 bound_to 10713
  157.3151  130.6909  149.6237 LP  0  0  0  0  0  0  0  0  0  0  0  0  # atno 17371 bound_to 10713
  140.1395  134.9303  157.2448 LP  0  0  0  0  0  0  0  0  0  0  0  0  # atno 17394 bound_to 11000
  140.2854  134.3302  155.7331 LP  0  0  0  0  0  0  0  0  0  0  0  0  # atno 17395 bound_to 11000

$$$$
