AV-unprocessed.smi:1556|AV-procd|sdf|6268|dock1
  -GOLD-   22720 6453D 1   1.00000     0.00000
 Structure written by MMmdl.
 37 38  0  0  0  0  0  0  0  0  1 V2000
  143.6687  132.4552  150.1524 C   0  0  0  0  0  0  0  0  0  0  0  0
  144.8626  132.7758  150.9046 N   0  0  0  0  0  0  0  0  0  0  0  0
  145.6601  131.9366  151.6523 C   0  0  0  0  0  0  0  0  0  0  0  0
  146.6696  132.6917  152.1792 C   0  0  0  0  0  0  0  0  0  0  0  0
  147.8006  132.2561  153.0685 C   0  0  0  0  0  0  0  0  0  0  0  0
  147.8414  133.0681  154.3731 C   0  0  0  0  0  0  0  0  0  0  0  0
  148.5776  134.3149  154.2025 N   0  0  0  0  0  0  0  0  0  0  0  0
  149.2257  134.9671  155.1826 C   0  0  0  0  0  0  0  0  0  0  0  0
  149.2549  134.5801  156.3493 O   0  0  0  0  0  0  0  0  0  0  0  0
  149.8429  136.0979  154.7964 N   0  0  0  0  0  0  0  0  0  0  0  0
  150.6251  137.0264  155.6134 C   0  0  2  0  0  0  0  0  0  0  0  0
  149.7490  137.6716  156.7037 C   0  0  0  0  0  0  0  0  0  0  0  0
  150.4957  138.8760  157.2916 C   0  0  0  0  0  0  0  0  0  0  0  0
  151.5594  139.5251  155.9466 S   0  0  0  0  0  0  0  0  0  0  0  0
  150.9838  140.7698  155.4152 O   0  0  0  0  0  0  0  0  0  0  0  0
  152.9632  139.4642  156.3809 O   0  0  0  0  0  0  0  0  0  0  0  0
  151.2301  138.1604  154.7708 C   0  0  0  0  0  0  0  0  0  0  0  0
  146.3965  133.9992  151.6842 C   0  0  0  0  0  0  0  0  0  0  0  0
  145.3148  134.0464  150.9237 N   0  0  0  0  0  0  0  0  0  0  0  0
  143.4774  131.3825  150.1941 H   0  0  0  0  0  0  0  0  0  0  0  0
  143.7966  132.7518  149.1110 H   0  0  0  0  0  0  0  0  0  0  0  0
  142.8141  132.9846  150.5743 H   0  0  0  0  0  0  0  0  0  0  0  0
  145.4456  130.8823  151.7480 H   0  0  0  0  0  0  0  0  0  0  0  0
  147.7088  131.1951  153.3043 H   0  0  0  0  0  0  0  0  0  0  0  0
  148.7537  132.3616  152.5489 H   0  0  0  0  0  0  0  0  0  0  0  0
  146.8285  133.3149  154.6921 H   0  0  0  0  0  0  0  0  0  0  0  0
  148.2846  132.4781  155.1773 H   0  0  0  0  0  0  0  0  0  0  0  0
  148.5994  134.7083  153.2731 H   0  0  0  0  0  0  0  0  0  0  0  0
  149.7225  136.3625  153.8292 H   0  0  0  0  0  0  0  0  0  0  0  0
  151.4321  136.4921  156.1183 H   0  0  0  0  0  0  0  0  0  0  0  0
  148.8199  138.0255  156.2541 H   0  0  0  0  0  0  0  0  0  0  0  0
  149.4727  136.9563  157.4789 H   0  0  0  0  0  0  0  0  0  0  0  0
  149.8246  139.6561  157.6514 H   0  0  0  0  0  0  0  0  0  0  0  0
  151.1431  138.5683  158.1129 H   0  0  0  0  0  0  0  0  0  0  0  0
  152.1497  137.8764  154.2589 H   0  0  0  0  0  0  0  0  0  0  0  0
  150.5170  138.5251  154.0304 H   0  0  0  0  0  0  0  0  0  0  0  0
  146.9488  134.9109  151.8573 H   0  0  0  0  0  0  0  0  0  0  0  0
  1  2  1  0  0  0  0
  1 20  1  0  0  0  0
  1 21  1  0  0  0  0
  1 22  1  0  0  0  0
  2 19  1  0  0  0  0
  2  3  1  0  0  0  0
  3  4  2  0  0  0  0
  3 23  1  0  0  0  0
  4  5  1  0  0  0  0
  4 18  1  0  0  0  0
  5  6  1  0  0  0  0
  5 24  1  0  0  0  0
  5 25  1  0  0  0  0
  6  7  1  0  0  0  0
  6 26  1  0  0  0  0
  6 27  1  0  0  0  0
  7  8  1  0  0  0  0
  7 28  1  0  0  0  0
  8  9  2  0  0  0  0
  8 10  1  0  0  0  0
 10 11  1  0  0  0  0
 10 29  1  0  0  0  0
 11 17  1  0  0  0  0
 11 12  1  0  0  0  0
 11 30  1  0  0  0  0
 12 13  1  0  0  0  0
 12 31  1  0  0  0  0
 12 32  1  0  0  0  0
 13 14  1  0  0  0  0
 13 33  1  0  0  0  0
 13 34  1  0  0  0  0
 14 15  2  0  0  0  0
 14 16  2  0  0  0  0
 14 17  1  0  0  0  0
 17 35  1  0  0  0  0
 17 36  1  0  0  0  0
 18 19  2  0  0  0  0
 18 37  1  0  0  0  0
M  END
> <s_m_source_file>
AV-unprocessed.smi

> <i_m_source_file_index>
1556

> <i_lp_mmshare_version>
43012

> <i_f3d_flags>
0

> <s_epik_input>
W0NIM11uMVtjSF1jKFtjSF1uMSlbQ0gyXVtDSDJdW05IXUMoPU8pW05IXVtDQEBIXShbQ0gyXTIpW0NIMl1bQ0gyXVMyKD1PKT1P

> <s_epik_cmdline>
J2VwaWtfcHl0aG9uJywgJy1waCcsICc3LjAnLCAnLXRuJywgJzgnLCAnLW1hJywgJzIwMCcsICctbWV0YWxfYmluZGluZycsICctaW1hZScsICc8aW5maWxlLm1hZT4nLCAnLW9tYWUnLCAnPG91dGZpbGUubWFlPic=

> <r_lp_tautomer_probability>
1

> <r_epik_Ionization_Penalty>
0.000530192

> <r_epik_Ionization_Penalty_Charging>
0

> <r_epik_Ionization_Penalty_Neutral>
0.000530192

> <r_epik_State_Penalty>
-0

> <r_epik_Charging_Adjusted_Penalty>
0

> <i_epik_Tot_Q>
0

> <i_epik_Tot_abs_Q>
0

> <r_epik_Metal_State_Penalty>
-0

> <b_epik_Metal_Only>
0

> <s_lp_Force_Field>
OPLS_2005

> <r_lp_Energy>
8.62968

> <b_lp_Chiralities_Consistent>
1

> <s_lp_Variant>
AV-unprocessed.smi:1556-1

> <Gold.Version>
5.8.1

> <Gold.Id.Protein>
6NUR|6NUR_protein|mol2

> <Gold.PLP.Fitness>
44.6111

> <Gold.PLP.PLP>
-30.9242

> <Gold.PLP.part.hbond>
-3.9924

> <Gold.PLP.part.metal>
0.0000

> <Gold.PLP.part.buried>
-3.3855

> <Gold.PLP.part.nonpolar>
-23.9464

> <Gold.PLP.part.repulsive>
0.2870

> <Gold.PLP.ligand.clash>
0.0000

> <Gold.PLP.ligand.torsion>
0.3521

> <Gold.PLP.Chemscore.Hbond>
3.7840

> <Gold.PLP.Chemscore.CHOScore>
1.0000

> <Gold.PLP.Chemscore.Metal>
0.0000

> <Gold.Chemscore.Hbonds>
donor molecule, donor type, donor heavy atom, donor atom, acceptor molecule, acceptor atom, score
      L1  H     7    28       P1  7948  0.91
      L1  H    10    29       P1  7948  0.88
      P1  H  7989  7998       L1    15  0.82
      P1  H  7997  8009       L1    16  0.98
      L1  C    18    37       P1  7948  1.00

> <Gold.PLP.Chemscore.Internal.Correction>
0.0391

> <Gold.Rescore>
     Score         DG    S(hbond)    S(metal)    S(lipo)     H(rot)  DE(clash)    DE(int)     intcor
     17.02     -17.75       3.08        0.00      56.86       1.82       0.26       0.47       ----

> <Gold.Chemscore.Fitness>
17.0205

> <Gold.Chemscore.DG>
-17.7497

> <Gold.Chemscore.ZeroCoef>
-5.4800

> <Gold.Chemscore.Hbond>
3.0784

> <Gold.Chemscore.Metal>
0.0000

> <Gold.Chemscore.Lipo>
56.8552

> <Gold.Chemscore.Internal_Hbond>
0.0000

> <Gold.Chemscore.DEClash>
0.2560

> <Gold.Chemscore.DEInternal>
0.4732

> <Gold.Chemscore.Rot>
1.8220

> <Gold.Chemscore.Internal.Correction>
   9.000000E+99

> <Gold.Chemscore.Hbonds>
donor molecule, donor type, donor heavy atom, donor atom, acceptor molecule, acceptor atom, score
      L1  H     7    28       P1  7948  0.38
      L1  H    10    29       P1  7948  0.37
      P1  H  7989  7998       L1    15  0.42
      P1  H  7997  8009       L1    16  0.91

> <Gold.Chemscore.Hbond.Weighted>
-10.2819

> <Gold.Chemscore.Metal.Weighted>
-0.0000

> <Gold.Chemscore.Lipo.Weighted>
-6.6521

> <Gold.Chemscore.Internal_Hbond.Weighted>
0.0000

> <Gold.Chemscore.DEClash.Weighted>
0.2560

> <Gold.Chemscore.DEInternal.Weighted>
0.4732

> <Gold.Chemscore.Rot.Weighted>
4.6642

> <Gold.Chemscore.Internal.Correction.Weighted>
   9.000000E+99

> <Gold.Protein.RotatedTorsions>
[ 6907 6896 6895 6894 ] final  -11.42 input  -60.11 | X-H torsion
[ 7974 7965 7964 7962 ] final  -92.69 input  175.53 | X-H torsion
[ 8008 7997 7996 7995 ] final -170.99 input   59.86 | X-H torsion
[ 10167 10162 10161 10158 ] final  116.54 input  -65.29 | X-H torsion
[ 10718 10713 10712 10709 ] final  -14.27 input   66.30 | X-H torsion
[ 10763 10752 10751 10750 ] final  155.49 input  -60.55 | X-H torsion
[ 11005 11000 10999 10996 ] final  -90.21 input  -57.11 | X-H torsion

> <Gold.Protein.ActiveResidues>
 VAL166  LYS551  ARG553  GLY616  TRP617  ASP618  TYR619  PRO620  LYS621  CYS622 
 ASP623  PHE694  ASN695  SER759  ASP760  ASP761  ALA762  ILE779  LEU786  VAL792 
 PHE793  MET794  SER795  GLU796  ALA797  LYS798  CYS799  TRP800  GLU811  SER814 

> <Gold.Protein.RotatedAtoms>
  151.3865  135.0949  159.9512 H   0  0  0  0  0  0  0  0  0  0  0  0  # atno 6907 bound_to 6896
  152.5092  133.9021  159.7456 H   0  0  0  0  0  0  0  0  0  0  0  0  # atno 6908 bound_to 6896
  150.9466  133.6541  159.2809 H   0  0  0  0  0  0  0  0  0  0  0  0  # atno 6909 bound_to 6896
  145.3965  140.9533  143.2311 H   0  0  0  0  0  0  0  0  0  0  0  0  # atno 7974 bound_to 7965
  155.9257  140.1082  157.1172 H   0  0  0  0  0  0  0  0  0  0  0  0  # atno 8008 bound_to 7997
  154.4062  140.1247  156.4802 H   0  0  0  0  0  0  0  0  0  0  0  0  # atno 8009 bound_to 7997
  155.7142  140.3470  155.4989 H   0  0  0  0  0  0  0  0  0  0  0  0  # atno 8010 bound_to 7997
  139.6240  144.7105  151.2574 H   0  0  0  0  0  0  0  0  0  0  0  0  # atno 10167 bound_to 10162
  156.6184  130.4868  149.6174 H   0  0  0  0  0  0  0  0  0  0  0  0  # atno 10718 bound_to 10713
  154.1693  135.2805  155.3086 H   0  0  0  0  0  0  0  0  0  0  0  0  # atno 10763 bound_to 10752
  154.6088  135.5505  153.7454 H   0  0  0  0  0  0  0  0  0  0  0  0  # atno 10764 bound_to 10752
  153.0169  135.6410  154.1833 H   0  0  0  0  0  0  0  0  0  0  0  0  # atno 10765 bound_to 10752
  141.1570  133.7678  156.9705 H   0  0  0  0  0  0  0  0  0  0  0  0  # atno 11005 bound_to 11000
  144.8404  139.5482  143.6903 LP  0  0  0  0  0  0  0  0  0  0  0  0  # atno 17320 bound_to 7965
  146.2772  139.6784  142.9254 LP  0  0  0  0  0  0  0  0  0  0  0  0  # atno 17321 bound_to 7965
  140.7399  143.6603  150.8170 LP  0  0  0  0  0  0  0  0  0  0  0  0  # atno 17342 bound_to 10162
  140.0218  143.5535  152.2797 LP  0  0  0  0  0  0  0  0  0  0  0  0  # atno 17343 bound_to 10162
  156.2332  130.6807  151.1484 LP  0  0  0  0  0  0  0  0  0  0  0  0  # atno 17370 bound_to 10713
  157.7235  131.0666  150.6036 LP  0  0  0  0  0  0  0  0  0  0  0  0  # atno 17371 bound_to 10713
  140.1132  134.9463  157.2097 LP  0  0  0  0  0  0  0  0  0  0  0  0  # atno 17394 bound_to 11000
  140.3166  134.2963  155.7255 LP  0  0  0  0  0  0  0  0  0  0  0  0  # atno 17395 bound_to 11000

$$$$
