AV-unprocessed.smi:1469|AV-procd|sdf|5958|dock8
  -GOLD-   22720 6 43D 1   1.00000     0.00000
 Structure written by MMmdl.
 41 42  0  0  0  0  0  0  0  0  2 V2000
  148.7435  132.4029  155.4279 C   0  0  0  0  0  0  0  0  0  0  0  0
  148.8952  133.6735  154.5602 C   0  0  2  0  0  0  0  0  0  0  0  0
  148.9283  134.9535  155.4357 C   0  0  0  0  0  0  0  0  0  0  0  0
  149.5673  136.0848  154.7678 N   0  0  0  0  0  0  0  0  0  0  0  0
  150.5205  136.8684  155.2956 C   0  0  0  0  0  0  0  0  0  0  0  0
  150.9934  136.6900  156.4190 O   0  0  0  0  0  0  0  0  0  0  0  0
  151.0183  138.0100  154.3966 C   0  0  0  0  0  0  0  0  0  0  0  0
  150.4790  139.3310  154.7613 N   0  0  0  0  0  0  0  0  0  0  0  0
  149.3823  139.8039  154.0132 C   0  0  0  0  0  0  0  0  0  0  0  0
  148.8108  140.9923  154.2648 C   0  0  0  0  0  0  0  0  0  0  0  0
  149.3492  141.7956  155.3370 C   0  0  0  0  0  0  0  0  0  0  0  0
  150.4005  141.3545  156.0563 C   0  0  0  0  0  0  0  0  0  0  0  0
  151.0296  140.0570  155.7833 C   0  0  0  0  0  0  0  0  0  0  0  0
  151.9923  139.6475  156.4328 O   0  0  0  0  0  0  0  0  0  0  0  0
  147.8055  133.7645  153.5440 N   0  3  0  0  0  0  0  0  0  0  0  0
  147.7445  132.6378  152.5772 C   0  0  0  0  0  0  0  0  0  0  0  0
  146.2620  132.3346  152.3193 C   0  0  0  0  0  0  0  0  0  0  0  0
  145.5110  133.5020  152.9474 C   0  0  0  0  0  0  0  0  0  0  0  0
  146.4361  133.9346  154.0788 C   0  0  0  0  0  0  0  0  0  0  0  0
  149.5512  132.3115  156.1535 H   0  0  0  0  0  0  0  0  0  0  0  0
  148.7747  131.4902  154.8334 H   0  0  0  0  0  0  0  0  0  0  0  0
  147.8031  132.4118  155.9801 H   0  0  0  0  0  0  0  0  0  0  0  0
  149.8426  133.5980  154.0234 H   0  0  0  0  0  0  0  0  0  0  0  0
  147.9184  135.2813  155.6801 H   0  0  0  0  0  0  0  0  0  0  0  0
  149.4106  134.7418  156.3918 H   0  0  0  0  0  0  0  0  0  0  0  0
  149.2455  136.3020  153.8353 H   0  0  0  0  0  0  0  0  0  0  0  0
  152.1088  138.0212  154.4329 H   0  0  0  0  0  0  0  0  0  0  0  0
  150.7709  137.7792  153.3587 H   0  0  0  0  0  0  0  0  0  0  0  0
  149.0429  139.1461  153.2263 H   0  0  0  0  0  0  0  0  0  0  0  0
  147.9722  141.3396  153.6792 H   0  0  0  0  0  0  0  0  0  0  0  0
  148.9076  142.7552  155.5627 H   0  0  0  0  0  0  0  0  0  0  0  0
  150.7908  141.9697  156.8538 H   0  0  0  0  0  0  0  0  0  0  0  0
  148.2556  132.9272  151.6582 H   0  0  0  0  0  0  0  0  0  0  0  0
  148.2365  131.7441  152.9641 H   0  0  0  0  0  0  0  0  0  0  0  0
  146.0353  132.2158  151.2592 H   0  0  0  0  0  0  0  0  0  0  0  0
  145.9847  131.4077  152.8230 H   0  0  0  0  0  0  0  0  0  0  0  0
  145.4077  134.3105  152.2224 H   0  0  0  0  0  0  0  0  0  0  0  0
  144.5137  133.2295  153.2944 H   0  0  0  0  0  0  0  0  0  0  0  0
  146.2922  133.2815  154.9414 H   0  0  0  0  0  0  0  0  0  0  0  0
  146.2425  134.9618  154.3898 H   0  0  0  0  0  0  0  0  0  0  0  0
  147.9860  134.5922  152.9937 H   0  0  0  0  0  0  0  0  0  0  0  0
  1  2  1  0  0  0  0
  1 20  1  0  0  0  0
  1 21  1  0  0  0  0
  1 22  1  0  0  0  0
  2  3  1  0  0  0  0
  2 15  1  0  0  0  0
  2 23  1  0  0  0  0
  3  4  1  0  0  0  0
  3 24  1  0  0  0  0
  3 25  1  0  0  0  0
  4  5  1  0  0  0  0
  4 26  1  0  0  0  0
  5  6  2  0  0  0  0
  5  7  1  0  0  0  0
  7  8  1  0  0  0  0
  7 27  1  0  0  0  0
  7 28  1  0  0  0  0
  8 13  1  0  0  0  0
  8  9  1  0  0  0  0
  9 10  2  0  0  0  0
  9 29  1  0  0  0  0
 10 11  1  0  0  0  0
 10 30  1  0  0  0  0
 11 12  2  0  0  0  0
 11 31  1  0  0  0  0
 12 13  1  0  0  0  0
 12 32  1  0  0  0  0
 13 14  2  0  0  0  0
 15 19  1  0  0  0  0
 15 16  1  0  0  0  0
 15 41  1  0  0  0  0
 16 17  1  0  0  0  0
 16 33  1  0  0  0  0
 16 34  1  0  0  0  0
 17 18  1  0  0  0  0
 17 35  1  0  0  0  0
 17 36  1  0  0  0  0
 18 19  1  0  0  0  0
 18 37  1  0  0  0  0
 18 38  1  0  0  0  0
 19 39  1  0  0  0  0
 19 40  1  0  0  0  0
M  CHG  1  15   1
M  END
> <s_m_source_file>
AV-unprocessed.smi

> <i_m_source_file_index>
1469

> <i_lp_mmshare_version>
43012

> <i_f3d_flags>
0

> <s_epik_input>
W0NIMl0xW0NIMl1bQ0gyXVtDSDJdTjFbQ0BIXShbQ0gzXSlbQ0gyXVtOSF1DKD1PKVtDSDJdbjJbY0hdW2NIXVtjSF1bY0hdYzI9Tw==

> <s_epik_cmdline>
J2VwaWtfcHl0aG9uJywgJy1waCcsICc3LjAnLCAnLXRuJywgJzgnLCAnLW1hJywgJzIwMCcsICctbWV0YWxfYmluZGluZycsICctaW1hZScsICc8aW5maWxlLm1hZT4nLCAnLW9tYWUnLCAnPG91dGZpbGUubWFlPic=

> <r_lp_tautomer_probability>
1

> <r_epik_Ionization_Penalty>
0.00497231

> <r_epik_Ionization_Penalty_Charging>
0.00497223

> <r_epik_Ionization_Penalty_Neutral>
8.2288e-08

> <r_epik_State_Penalty>
0.0036131

> <r_epik_Charging_Adjusted_Penalty>
0.00858533

> <i_epik_Tot_Q>
1

> <i_epik_Tot_abs_Q>
1

> <r_epik_Metal_State_Penalty>
-0

> <b_epik_Metal_Only>
0

> <s_lp_Force_Field>
OPLS_2005

> <r_lp_Energy>
39.8185

> <b_lp_Chiralities_Consistent>
1

> <s_lp_Variant>
AV-unprocessed.smi:1469-1

> <Gold.Version>
5.8.1

> <Gold.Id.Protein>
6NUR|6NUR_protein|mol2

> <Gold.PLP.Fitness>
53.6561

> <Gold.PLP.PLP>
-37.6593

> <Gold.PLP.part.hbond>
-4.4053

> <Gold.PLP.part.metal>
0.0000

> <Gold.PLP.part.buried>
0.1088

> <Gold.PLP.part.nonpolar>
-32.5538

> <Gold.PLP.part.repulsive>
0.0838

> <Gold.PLP.ligand.clash>
0.0000

> <Gold.PLP.ligand.torsion>
0.7976

> <Gold.PLP.Chemscore.Hbond>
5.0000

> <Gold.PLP.Chemscore.CHOScore>
0.8525

> <Gold.PLP.Chemscore.Metal>
0.0000

> <Gold.Chemscore.Hbonds>
donor molecule, donor type, donor heavy atom, donor atom, acceptor molecule, acceptor atom, score
      L1  H     4    26       P1  7948  1.00
      L1  H    15    41       P1  7948  1.27
      P1  H  7997  8008       L1    14  0.08
      L1  C     9    29       P1  7957  0.61

> <Gold.PLP.Chemscore.Internal.Correction>
0.0346

> <Gold.Rescore>
     Score         DG    S(hbond)    S(metal)    S(lipo)     H(rot)  DE(clash)    DE(int)     intcor
     17.56     -19.10       3.14        0.00      67.97       1.89       0.40       1.14       ----

> <Gold.Chemscore.Fitness>
17.5591

> <Gold.Chemscore.DG>
-19.0982

> <Gold.Chemscore.ZeroCoef>
-5.4800

> <Gold.Chemscore.Hbond>
3.1436

> <Gold.Chemscore.Metal>
0.0000

> <Gold.Chemscore.Lipo>
67.9699

> <Gold.Chemscore.Internal_Hbond>
0.0000

> <Gold.Chemscore.DEClash>
0.4030

> <Gold.Chemscore.DEInternal>
1.1360

> <Gold.Chemscore.Rot>
1.8882

> <Gold.Chemscore.Internal.Correction>
   9.000000E+99

> <Gold.Chemscore.Hbonds>
donor molecule, donor type, donor heavy atom, donor atom, acceptor molecule, acceptor atom, score
      L1  H     4    26       P1  7948  0.90
      L1  H    15    41       P1  7948  0.49
      P1  H  7997  8008       L1    14  0.11

> <Gold.Chemscore.Hbond.Weighted>
-10.4995

> <Gold.Chemscore.Metal.Weighted>
-0.0000

> <Gold.Chemscore.Lipo.Weighted>
-7.9525

> <Gold.Chemscore.Internal_Hbond.Weighted>
0.0000

> <Gold.Chemscore.DEClash.Weighted>
0.4030

> <Gold.Chemscore.DEInternal.Weighted>
1.1360

> <Gold.Chemscore.Rot.Weighted>
4.8338

> <Gold.Chemscore.Internal.Correction.Weighted>
   9.000000E+99

> <Gold.Protein.RotatedTorsions>
[ 6907 6896 6895 6894 ] final  -85.72 input  -60.11 | X-H torsion
[ 7974 7965 7964 7962 ] final  -41.15 input  175.53 | X-H torsion
[ 8008 7997 7996 7995 ] final  -38.37 input   59.86 | X-H torsion
[ 10167 10162 10161 10158 ] final  -67.18 input  -65.29 | X-H torsion
[ 10718 10713 10712 10709 ] final  -89.21 input   66.30 | X-H torsion
[ 10763 10752 10751 10750 ] final  -17.78 input  -60.55 | X-H torsion
[ 11005 11000 10999 10996 ] final -179.27 input  -57.11 | X-H torsion

> <Gold.Protein.ActiveResidues>
 VAL166  LYS551  ARG553  GLY616  TRP617  ASP618  TYR619  PRO620  LYS621  CYS622 
 ASP623  PHE694  ASN695  SER759  ASP760  ASP761  ALA762  ILE779  LEU786  VAL792 
 PHE793  MET794  SER795  GLU796  ALA797  LYS798  CYS799  TRP800  GLU811  SER814 

> <Gold.Protein.RotatedAtoms>
  150.6869  134.3161  159.4766 H   0  0  0  0  0  0  0  0  0  0  0  0  # atno 6907 bound_to 6896
  152.1041  134.9318  160.0578 H   0  0  0  0  0  0  0  0  0  0  0  0  # atno 6908 bound_to 6896
  152.0585  133.4017  159.4445 H   0  0  0  0  0  0  0  0  0  0  0  0  # atno 6909 bound_to 6896
  146.0238  140.6817  142.9165 H   0  0  0  0  0  0  0  0  0  0  0  0  # atno 7974 bound_to 7965
  154.4038  140.1579  156.2690 H   0  0  0  0  0  0  0  0  0  0  0  0  # atno 8008 bound_to 7997
  155.8970  140.3435  155.5976 H   0  0  0  0  0  0  0  0  0  0  0  0  # atno 8009 bound_to 7997
  155.7492  140.0802  157.2200 H   0  0  0  0  0  0  0  0  0  0  0  0  # atno 8010 bound_to 7997
  140.5602  143.2312  151.6742 H   0  0  0  0  0  0  0  0  0  0  0  0  # atno 10167 bound_to 10162
  155.9984  130.4864  150.5136 H   0  0  0  0  0  0  0  0  0  0  0  0  # atno 10718 bound_to 10713
  153.5792  135.7005  153.5471 H   0  0  0  0  0  0  0  0  0  0  0  0  # atno 10763 bound_to 10752
  153.3276  135.4056  155.1468 H   0  0  0  0  0  0  0  0  0  0  0  0  # atno 10764 bound_to 10752
  154.8620  135.3711  154.5318 H   0  0  0  0  0  0  0  0  0  0  0  0  # atno 10765 bound_to 10752
  140.4205  134.6610  157.4661 H   0  0  0  0  0  0  0  0  0  0  0  0  # atno 11005 bound_to 11000
  144.7001  140.3614  143.7163 LP  0  0  0  0  0  0  0  0  0  0  0  0  # atno 17320 bound_to 7965
  145.7150  139.1694  143.2517 LP  0  0  0  0  0  0  0  0  0  0  0  0  # atno 17321 bound_to 7965
  139.5066  144.3674  152.0504 LP  0  0  0  0  0  0  0  0  0  0  0  0  # atno 17342 bound_to 10162
  140.2800  144.3870  150.6122 LP  0  0  0  0  0  0  0  0  0  0  0  0  # atno 17343 bound_to 10162
  157.3106  131.0663  151.2003 LP  0  0  0  0  0  0  0  0  0  0  0  0  # atno 17370 bound_to 10713
  157.2951  130.6815  149.6134 LP  0  0  0  0  0  0  0  0  0  0  0  0  # atno 17371 bound_to 10713
  140.0204  134.6556  155.9248 LP  0  0  0  0  0  0  0  0  0  0  0  0  # atno 17394 bound_to 11000
  141.1786  133.6543  156.4927 LP  0  0  0  0  0  0  0  0  0  0  0  0  # atno 17395 bound_to 11000

$$$$
