AV-unprocessed.smi:72|AV-procd|sdf|706|dock3
  -GOLD-   2262017 23D 1   1.00000     0.00000
 Structure written by MMmdl.
 30 31  0  0  0  0  0  0  0  0  2 V2000
  148.9127  135.0990  154.3803 N   0  0  0  0  0  0  0  0  0  0  0  0
  149.4907  136.1841  155.0051 C   0  0  0  0  0  0  0  0  0  0  0  0
  149.8189  137.2762  154.2238 N   0  3  0  0  0  0  0  0  0  0  0  0
  150.3598  138.4142  154.6790 C   0  0  0  0  0  0  0  0  0  0  0  0
  150.5719  138.5539  155.9739 N   0  0  0  0  0  0  0  0  0  0  0  0
  151.1766  139.8194  156.5412 C   0  0  1  0  0  0  0  0  0  0  0  0
  151.2979  140.7486  155.5042 O   0  0  0  0  0  0  0  0  0  0  0  0
  150.2482  141.7144  155.5422 C   0  0  1  0  0  0  0  0  0  0  0  0
  149.0039  141.2212  154.7643 C   0  0  0  0  0  0  0  0  0  0  0  0
  149.2252  141.3423  153.3759 O   0  0  0  0  0  0  0  0  0  0  0  0
  150.0511  141.8813  157.0541 C   0  0  1  0  0  0  0  0  0  0  0  0
  148.7728  142.3811  157.3952 O   0  0  0  0  0  0  0  0  0  0  0  0
  150.2741  140.4790  157.6106 C   0  0  2  0  0  0  0  0  0  0  0  0
  150.9226  140.5641  158.8639 O   0  0  0  0  0  0  0  0  0  0  0  0
  150.3598  137.4468  156.8377 C   0  0  0  0  0  0  0  0  0  0  0  0
  150.6729  137.5113  158.0251 O   0  0  0  0  0  0  0  0  0  0  0  0
  149.7852  136.3006  156.2700 N   0  0  0  0  0  0  0  0  0  0  0  0
  152.1624  139.5180  156.8993 H   0  0  0  0  0  0  0  0  0  0  0  0
  150.5929  142.6544  155.1088 H   0  0  0  0  0  0  0  0  0  0  0  0
  150.8147  142.5642  157.4309 H   0  0  0  0  0  0  0  0  0  0  0  0
  149.3295  139.9399  157.6992 H   0  0  0  0  0  0  0  0  0  0  0  0
  148.6519  134.2543  154.8694 H   0  0  0  0  0  0  0  0  0  0  0  0
  148.7047  135.0597  153.3928 H   0  0  0  0  0  0  0  0  0  0  0  0
  150.6248  139.1830  153.9658 H   0  0  0  0  0  0  0  0  0  0  0  0
  148.7204  140.2011  155.0189 H   0  0  0  0  0  0  0  0  0  0  0  0
  148.1416  141.8491  154.9877 H   0  0  0  0  0  0  0  0  0  0  0  0
  149.3195  140.4765  153.0083 H   0  0  0  0  0  0  0  0  0  0  0  0
  148.5625  143.0946  156.8117 H   0  0  0  0  0  0  0  0  0  0  0  0
  150.2748  140.7366  159.5299 H   0  0  0  0  0  0  0  0  0  0  0  0
  149.6423  137.2049  153.2318 H   0  0  0  0  0  0  0  0  0  0  0  0
  1  2  1  0  0  0  0
  1 22  1  0  0  0  0
  1 23  1  0  0  0  0
  2 17  2  0  0  0  0
  2  3  1  0  0  0  0
  3  4  2  0  0  0  0
  3 30  1  0  0  0  0
  4  5  1  0  0  0  0
  4 24  1  0  0  0  0
  5  6  1  0  0  0  0
  5 15  1  0  0  0  0
  6 18  1  0  0  0  0
  6 13  1  0  0  0  0
  6  7  1  0  0  0  0
  7  8  1  0  0  0  0
  8 19  1  0  0  0  0
  8  9  1  0  0  0  0
  8 11  1  0  0  0  0
  9 10  1  0  0  0  0
  9 25  1  0  0  0  0
  9 26  1  0  0  0  0
 10 27  1  0  0  0  0
 11 20  1  0  0  0  0
 11 12  1  0  0  0  0
 11 13  1  0  0  0  0
 12 28  1  0  0  0  0
 13 21  1  0  0  0  0
 13 14  1  0  0  0  0
 14 29  1  0  0  0  0
 15 16  2  0  0  0  0
 15 17  1  0  0  0  0
M  CHG  1   3   1
M  END
> <s_m_source_file>
AV-unprocessed.smi

> <i_m_source_file_index>
72

> <i_lp_mmshare_version>
43012

> <i_f3d_flags>
0

> <s_epik_input>
W05IMl1jMW5bY0hdbihjKD1PKW4xKVtDQEBIXTJPW0NASF0oW0NIMl1bT0hdKVtDQEBIXShbT0hdKVtDQEhdMltPSF0=

> <s_epik_cmdline>
J2VwaWtfcHl0aG9uJywgJy1waCcsICc3LjAnLCAnLXRuJywgJzgnLCAnLW1hJywgJzIwMCcsICctbWV0YWxfYmluZGluZycsICctaW1hZScsICc8aW5maWxlLm1hZT4nLCAnLW9tYWUnLCAnPG91dGZpbGUubWFlPic=

> <r_lp_tautomer_probability>
4.77166e-05

> <r_epik_Ionization_Penalty>
0.104979

> <r_epik_Ionization_Penalty_Charging>
0.0999619

> <r_epik_Ionization_Penalty_Neutral>
0.00501745

> <r_epik_State_Penalty>
2.51541

> <r_epik_Charging_Adjusted_Penalty>
2.61537

> <i_epik_Tot_Q>
1

> <i_epik_Tot_abs_Q>
1

> <r_epik_Metal_State_Penalty>
3.53763

> <b_epik_Metal_Only>
0

> <s_epik_Chemistry_Notes>
This compound contains an acetal/aminal-like group ( X-CH(R)-Y where X, Y are N, S, or O) that may be acid/base labile, releasing an aldehyde.

> <s_lp_Force_Field>
OPLS_2005

> <r_lp_Energy>
30.8227

> <b_lp_Chiralities_Consistent>
1

> <s_lp_Variant>
AV-unprocessed.smi:72-44

> <Gold.Version>
5.8.1

> <Gold.Id.Protein>
6NUR|6NUR_protein|mol2

> <Gold.PLP.Fitness>
40.1925

> <Gold.PLP.PLP>
-22.6673

> <Gold.PLP.part.hbond>
-7.0370

> <Gold.PLP.part.metal>
0.0000

> <Gold.PLP.part.buried>
-2.7694

> <Gold.PLP.part.nonpolar>
-12.6173

> <Gold.PLP.part.repulsive>
0.0860

> <Gold.PLP.ligand.clash>
0.0000

> <Gold.PLP.ligand.torsion>
0.1239

> <Gold.PLP.Chemscore.Hbond>
5.9040

> <Gold.PLP.Chemscore.CHOScore>
0.0000

> <Gold.PLP.Chemscore.Metal>
0.0000

> <Gold.Chemscore.Hbonds>
donor molecule, donor type, donor heavy atom, donor atom, acceptor molecule, acceptor atom, score
      L1  H     1    23       P1  7948  0.74
      L1  H     3    30       P1  7948  1.95
      L1  H    10    27       P1  7957  0.53
      L1  H    12    28       P1  8028  1.00
      P1  H  7989  7998       L1     7  0.60
      P1  H  8011  8017       L1    10  0.99

> <Gold.PLP.Chemscore.Internal.Correction>
0.0610

> <Gold.Rescore>
     Score         DG    S(hbond)    S(metal)    S(lipo)     H(rot)  DE(clash)    DE(int)     intcor
      9.05     -10.13       3.62        0.00      25.73       4.08       0.13       0.95       ----

> <Gold.Chemscore.Fitness>
9.0460

> <Gold.Chemscore.DG>
-10.1306

> <Gold.Chemscore.ZeroCoef>
-5.4800

> <Gold.Chemscore.Hbond>
3.6168

> <Gold.Chemscore.Metal>
0.0000

> <Gold.Chemscore.Lipo>
25.7339

> <Gold.Chemscore.Internal_Hbond>
0.0000

> <Gold.Chemscore.DEClash>
0.1322

> <Gold.Chemscore.DEInternal>
0.9524

> <Gold.Chemscore.Rot>
4.0783

> <Gold.Chemscore.Internal.Correction>
   9.000000E+99

> <Gold.Chemscore.Hbonds>
donor molecule, donor type, donor heavy atom, donor atom, acceptor molecule, acceptor atom, score
      L1  H     1    23       P1  7948  0.48
      L1  H     3    30       P1  7948  0.65
      L1  H    10    27       P1  7957  0.52
      L1  H    12    28       P1  8028  0.62
      P1  H  7989  7998       L1     7  0.08
      P1  H  8011  8017       L1    10  0.65

> <Gold.Chemscore.Hbond.Weighted>
-12.0801

> <Gold.Chemscore.Metal.Weighted>
-0.0000

> <Gold.Chemscore.Lipo.Weighted>
-3.0109

> <Gold.Chemscore.Internal_Hbond.Weighted>
0.0000

> <Gold.Chemscore.DEClash.Weighted>
0.1322

> <Gold.Chemscore.DEInternal.Weighted>
0.9524

> <Gold.Chemscore.Rot.Weighted>
10.4404

> <Gold.Chemscore.Internal.Correction.Weighted>
   9.000000E+99

> <Gold.Protein.RotatedTorsions>
[ 6907 6896 6895 6894 ] final   91.83 input  -60.11 | X-H torsion
[ 7974 7965 7964 7962 ] final   21.35 input  175.53 | X-H torsion
[ 8008 7997 7996 7995 ] final  -60.90 input   59.86 | X-H torsion
[ 10167 10162 10161 10158 ] final   43.44 input  -65.29 | X-H torsion
[ 10718 10713 10712 10709 ] final   24.91 input   66.30 | X-H torsion
[ 10763 10752 10751 10750 ] final  -56.02 input  -60.55 | X-H torsion
[ 11005 11000 10999 10996 ] final   30.75 input  -57.11 | X-H torsion

> <Gold.Protein.ActiveResidues>
 VAL166  LYS551  ARG553  GLY616  TRP617  ASP618  TYR619  PRO620  LYS621  CYS622 
 ASP623  PHE694  ASN695  SER759  ASP760  ASP761  ALA762  ILE779  LEU786  VAL792 
 PHE793  MET794  SER795  GLU796  ALA797  LYS798  CYS799  TRP800  GLU811  SER814 

> <Gold.Protein.RotatedAtoms>
  152.5451  134.1596  159.8552 H   0  0  0  0  0  0  0  0  0  0  0  0  # atno 6907 bound_to 6896
  151.1616  133.4834  159.2601 H   0  0  0  0  0  0  0  0  0  0  0  0  # atno 6908 bound_to 6896
  151.1367  135.0169  159.8662 H   0  0  0  0  0  0  0  0  0  0  0  0  # atno 6909 bound_to 6896
  146.2075  139.8039  142.8715 H   0  0  0  0  0  0  0  0  0  0  0  0  # atno 7974 bound_to 7965
  154.4421  140.1029  156.6346 H   0  0  0  0  0  0  0  0  0  0  0  0  # atno 8008 bound_to 7997
  155.5567  140.3486  155.4463 H   0  0  0  0  0  0  0  0  0  0  0  0  # atno 8009 bound_to 7997
  156.0489  140.1299  157.0061 H   0  0  0  0  0  0  0  0  0  0  0  0  # atno 8010 bound_to 7997
  140.3443  144.2431  150.6152 H   0  0  0  0  0  0  0  0  0  0  0  0  # atno 10167 bound_to 10162
  157.1862  130.6825  149.6132 H   0  0  0  0  0  0  0  0  0  0  0  0  # atno 10718 bound_to 10713
  154.2000  135.6412  153.5084 H   0  0  0  0  0  0  0  0  0  0  0  0  # atno 10763 bound_to 10752
  153.0014  135.5449  154.6325 H   0  0  0  0  0  0  0  0  0  0  0  0  # atno 10764 bound_to 10752
  154.5736  135.2919  155.0776 H   0  0  0  0  0  0  0  0  0  0  0  0  # atno 10765 bound_to 10752
  140.2911  134.2863  155.7776 H   0  0  0  0  0  0  0  0  0  0  0  0  # atno 11005 bound_to 11000
  145.3267  141.0257  143.3470 LP  0  0  0  0  0  0  0  0  0  0  0  0  # atno 17320 bound_to 7965
  144.8828  139.4880  143.6715 LP  0  0  0  0  0  0  0  0  0  0  0  0  # atno 17321 bound_to 7965
  140.5279  143.2250  151.8285 LP  0  0  0  0  0  0  0  0  0  0  0  0  # atno 17342 bound_to 10162
  139.4835  144.4756  151.9371 LP  0  0  0  0  0  0  0  0  0  0  0  0  # atno 17343 bound_to 10162
  155.9717  130.4630  150.6166 LP  0  0  0  0  0  0  0  0  0  0  0  0  # atno 17370 bound_to 10713
  157.3905  131.0795  151.1398 LP  0  0  0  0  0  0  0  0  0  0  0  0  # atno 17371 bound_to 10713
  141.2146  133.7586  156.9626 LP  0  0  0  0  0  0  0  0  0  0  0  0  # atno 17394 bound_to 11000
  140.1195  134.9426  157.2182 LP  0  0  0  0  0  0  0  0  0  0  0  0  # atno 17395 bound_to 11000

$$$$
