AV-unprocessed.smi:344|AV-procd|sdf|2390|dock1
  -GOLD-   2262022313D 1   1.00000     0.00000
 Structure written by MMmdl.
 37 38  0  0  0  0  0  0  0  0  2 V2000
  150.0448  134.6820  153.5988 N   0  0  0  0  0  0  0  0  0  0  0  0
  150.3377  135.4083  154.6816 C   0  0  0  0  0  0  0  0  0  0  0  0
  150.7598  134.8999  155.7184 O   0  0  0  0  0  0  0  0  0  0  0  0
  150.1121  136.9199  154.5949 C   0  0  0  0  0  0  0  0  0  0  0  0
  151.3824  137.6641  154.8902 C   0  0  0  0  0  0  0  0  0  0  0  0
  152.3577  138.0211  153.9947 C   0  0  0  0  0  0  0  0  0  0  0  0
  153.6575  138.8823  154.7678 S   0  0  0  0  0  0  0  0  0  0  0  0
  152.8300  138.7174  156.3181 C   0  0  0  0  0  0  0  0  0  0  0  0
  153.2782  139.2002  157.4873 N   0  5  0  0  0  0  0  0  0  0  0  0
  152.4813  139.1527  158.5819 C   0  0  0  0  0  0  0  0  0  0  0  0
  151.8703  138.1932  159.0546 O   0  0  0  0  0  0  0  0  0  0  0  0
  152.3705  140.5184  159.2662 C   0  0  0  0  0  0  0  0  0  0  0  0
  152.1992  141.6571  158.2442 C   0  0  0  0  0  0  0  0  0  0  0  0
  151.6074  142.9383  158.8579 C   0  0  0  0  0  0  0  0  0  0  0  0
  151.9428  144.2034  158.0649 C   0  0  0  0  0  0  0  0  0  0  0  0
  151.7153  145.3595  159.0444 C   0  0  0  0  0  0  0  0  0  0  0  0
  151.8555  144.7627  160.4531 C   0  0  0  0  0  0  0  0  0  0  0  0
  152.1248  143.2655  160.2623 C   0  0  0  0  0  0  0  0  0  0  0  0
  151.6690  138.0646  156.1988 N   0  0  0  0  0  0  0  0  0  0  0  0
  150.1981  133.6843  153.6052 H   0  0  0  0  0  0  0  0  0  0  0  0
  149.6902  135.1389  152.7702 H   0  0  0  0  0  0  0  0  0  0  0  0
  149.7369  137.1673  153.6010 H   0  0  0  0  0  0  0  0  0  0  0  0
  149.3302  137.2088  155.2985 H   0  0  0  0  0  0  0  0  0  0  0  0
  152.3874  137.8361  152.9314 H   0  0  0  0  0  0  0  0  0  0  0  0
  151.5156  140.4995  159.9434 H   0  0  0  0  0  0  0  0  0  0  0  0
  153.2475  140.6940  159.8917 H   0  0  0  0  0  0  0  0  0  0  0  0
  153.1584  141.8849  157.7765 H   0  0  0  0  0  0  0  0  0  0  0  0
  151.5444  141.3169  157.4405 H   0  0  0  0  0  0  0  0  0  0  0  0
  150.5209  142.8454  158.9016 H   0  0  0  0  0  0  0  0  0  0  0  0
  152.9915  144.1850  157.7640 H   0  0  0  0  0  0  0  0  0  0  0  0
  151.3424  144.3004  157.1598 H   0  0  0  0  0  0  0  0  0  0  0  0
  152.4216  146.1723  158.8723 H   0  0  0  0  0  0  0  0  0  0  0  0
  150.7117  145.7666  158.9161 H   0  0  0  0  0  0  0  0  0  0  0  0
  152.6574  145.2389  161.0185 H   0  0  0  0  0  0  0  0  0  0  0  0
  150.9304  144.9119  161.0110 H   0  0  0  0  0  0  0  0  0  0  0  0
  151.6508  142.6594  161.0350 H   0  0  0  0  0  0  0  0  0  0  0  0
  153.1990  143.0812  160.3139 H   0  0  0  0  0  0  0  0  0  0  0  0
  1  2  1  0  0  0  0
  1 20  1  0  0  0  0
  1 21  1  0  0  0  0
  2  3  2  0  0  0  0
  2  4  1  0  0  0  0
  4  5  1  0  0  0  0
  4 22  1  0  0  0  0
  4 23  1  0  0  0  0
  5 19  1  0  0  0  0
  5  6  2  0  0  0  0
  6  7  1  0  0  0  0
  6 24  1  0  0  0  0
  7  8  1  0  0  0  0
  8  9  1  0  0  0  0
  8 19  2  0  0  0  0
  9 10  1  0  0  0  0
 10 11  2  0  0  0  0
 10 12  1  0  0  0  0
 12 13  1  0  0  0  0
 12 25  1  0  0  0  0
 12 26  1  0  0  0  0
 13 14  1  0  0  0  0
 13 27  1  0  0  0  0
 13 28  1  0  0  0  0
 14 18  1  0  0  0  0
 14 15  1  0  0  0  0
 14 29  1  0  0  0  0
 15 16  1  0  0  0  0
 15 30  1  0  0  0  0
 15 31  1  0  0  0  0
 16 17  1  0  0  0  0
 16 32  1  0  0  0  0
 16 33  1  0  0  0  0
 17 18  1  0  0  0  0
 17 34  1  0  0  0  0
 17 35  1  0  0  0  0
 18 36  1  0  0  0  0
 18 37  1  0  0  0  0
M  CHG  1   9  -1
M  END
> <s_m_source_file>
AV-unprocessed.smi

> <i_m_source_file_index>
344

> <i_lp_mmshare_version>
43012

> <i_f3d_flags>
0

> <s_epik_input>
W05IMl1DKD1PKVtDSDJdYzFbY0hdc2MobjEpW05IXUMoPU8pW0NIMl1bQ0gyXVtDSF0yW0NIMl1bQ0gyXVtDSDJdW0NIMl0y

> <s_epik_cmdline>
J2VwaWtfcHl0aG9uJywgJy1waCcsICc3LjAnLCAnLXRuJywgJzgnLCAnLW1hJywgJzIwMCcsICctbWV0YWxfYmluZGluZycsICctaW1hZScsICc8aW5maWxlLm1hZT4nLCAnLW9tYWUnLCAnPG91dGZpbGUubWFlPic=

> <r_lp_tautomer_probability>
1

> <r_epik_Ionization_Penalty>
5.48595

> <r_epik_Ionization_Penalty_Charging>
4.99802

> <r_epik_Ionization_Penalty_Neutral>
0.48793

> <r_epik_State_Penalty>
4.99789

> <r_epik_Charging_Adjusted_Penalty>
9.99592

> <i_epik_Tot_Q>
-1

> <i_epik_Tot_abs_Q>
1

> <r_epik_Metal_State_Penalty>
1.11866

> <b_epik_Metal_Only>
1

> <s_lp_Force_Field>
OPLS_2005

> <r_lp_Energy>
17.7805

> <b_lp_Chiralities_Consistent>
1

> <s_lp_Variant>
AV-unprocessed.smi:344-2

> <Gold.Version>
5.8.1

> <Gold.Id.Protein>
6NUR|6NUR_protein|mol2

> <Gold.PLP.Fitness>
48.8135

> <Gold.PLP.PLP>
-39.3023

> <Gold.PLP.part.hbond>
-2.0000

> <Gold.PLP.part.metal>
0.0000

> <Gold.PLP.part.buried>
-3.8928

> <Gold.PLP.part.nonpolar>
-32.7603

> <Gold.PLP.part.repulsive>
0.0450

> <Gold.PLP.ligand.clash>
0.0000

> <Gold.PLP.ligand.torsion>
1.4031

> <Gold.PLP.Chemscore.Hbond>
2.9920

> <Gold.PLP.Chemscore.CHOScore>
1.0000

> <Gold.PLP.Chemscore.Metal>
0.0000

> <Gold.Chemscore.Hbonds>
donor molecule, donor type, donor heavy atom, donor atom, acceptor molecule, acceptor atom, score
      P1  H  7997  8010       L1     9  1.50
      L1  C     6    24       P1  7949  0.76

> <Gold.PLP.Chemscore.Internal.Correction>
0.3415

> <Gold.Rescore>
     Score         DG    S(hbond)    S(metal)    S(lipo)     H(rot)  DE(clash)    DE(int)     intcor
     13.71     -17.48       1.89        0.00     101.07       2.39       1.16       2.62       ----

> <Gold.Chemscore.Fitness>
13.7071

> <Gold.Chemscore.DG>
-17.4840

> <Gold.Chemscore.ZeroCoef>
-5.4800

> <Gold.Chemscore.Hbond>
1.8858

> <Gold.Chemscore.Metal>
0.0000

> <Gold.Chemscore.Lipo>
101.0728

> <Gold.Chemscore.Internal_Hbond>
0.0000

> <Gold.Chemscore.DEClash>
1.1591

> <Gold.Chemscore.DEInternal>
2.6178

> <Gold.Chemscore.Rot>
2.3907

> <Gold.Chemscore.Internal.Correction>
   9.000000E+99

> <Gold.Chemscore.Hbonds>
donor molecule, donor type, donor heavy atom, donor atom, acceptor molecule, acceptor atom, score
      P1  H  7997  8010       L1     9  0.09

> <Gold.Chemscore.Hbond.Weighted>
-6.2986

> <Gold.Chemscore.Metal.Weighted>
-0.0000

> <Gold.Chemscore.Lipo.Weighted>
-11.8255

> <Gold.Chemscore.Internal_Hbond.Weighted>
0.0000

> <Gold.Chemscore.DEClash.Weighted>
1.1591

> <Gold.Chemscore.DEInternal.Weighted>
2.6178

> <Gold.Chemscore.Rot.Weighted>
6.1201

> <Gold.Chemscore.Internal.Correction.Weighted>
   9.000000E+99

> <Gold.Protein.RotatedTorsions>
[ 6907 6896 6895 6894 ] final  -51.46 input  -60.11 | X-H torsion
[ 7974 7965 7964 7962 ] final  -25.78 input  175.53 | X-H torsion
[ 8008 7997 7996 7995 ] final   46.67 input   59.86 | X-H torsion
[ 10167 10162 10161 10158 ] final  139.54 input  -65.29 | X-H torsion
[ 10718 10713 10712 10709 ] final   99.62 input   66.30 | X-H torsion
[ 10763 10752 10751 10750 ] final -137.58 input  -60.55 | X-H torsion
[ 11005 11000 10999 10996 ] final -122.24 input  -57.11 | X-H torsion

> <Gold.Protein.ActiveResidues>
 VAL166  LYS551  ARG553  GLY616  TRP617  ASP618  TYR619  PRO620  LYS621  CYS622 
 ASP623  PHE694  ASN695  SER759  ASP760  ASP761  ALA762  ILE779  LEU786  VAL792 
 PHE793  MET794  SER795  GLU796  ALA797  LYS798  CYS799  TRP800  GLU811  SER814 

> <Gold.Protein.RotatedAtoms>
  150.8610  134.7961  159.7082 H   0  0  0  0  0  0  0  0  0  0  0  0  # atno 6907 bound_to 6896
  152.4647  134.5101  159.9761 H   0  0  0  0  0  0  0  0  0  0  0  0  # atno 6908 bound_to 6896
  151.5205  133.3429  159.2936 H   0  0  0  0  0  0  0  0  0  0  0  0  # atno 6909 bound_to 6896
  146.1469  140.4932  142.8628 H   0  0  0  0  0  0  0  0  0  0  0  0  # atno 7974 bound_to 7965
  155.3564  140.3416  155.4240 H   0  0  0  0  0  0  0  0  0  0  0  0  # atno 8008 bound_to 7997
  156.1737  140.1640  156.8436 H   0  0  0  0  0  0  0  0  0  0  0  0  # atno 8009 bound_to 7997
  154.5259  140.0756  156.8241 H   0  0  0  0  0  0  0  0  0  0  0  0  # atno 8010 bound_to 7997
  139.5076  144.6288  151.5869 H   0  0  0  0  0  0  0  0  0  0  0  0  # atno 10167 bound_to 10162
  157.6872  131.0675  150.4977 H   0  0  0  0  0  0  0  0  0  0  0  0  # atno 10718 bound_to 10713
  154.8658  135.3638  154.5247 H   0  0  0  0  0  0  0  0  0  0  0  0  # atno 10763 bound_to 10752
  153.5875  135.7016  153.5442 H   0  0  0  0  0  0  0  0  0  0  0  0  # atno 10764 bound_to 10752
  153.3402  135.4100  155.1528 H   0  0  0  0  0  0  0  0  0  0  0  0  # atno 10765 bound_to 10752
  141.0010  134.0403  157.3537 H   0  0  0  0  0  0  0  0  0  0  0  0  # atno 11005 bound_to 11000
  144.7857  140.5931  143.6575 LP  0  0  0  0  0  0  0  0  0  0  0  0  # atno 17320 bound_to 7965
  145.4916  139.1488  143.3706 LP  0  0  0  0  0  0  0  0  0  0  0  0  # atno 17321 bound_to 7965
  140.6014  143.9603  150.6389 LP  0  0  0  0  0  0  0  0  0  0  0  0  # atno 17342 bound_to 10162
  140.2816  143.3386  152.1146 LP  0  0  0  0  0  0  0  0  0  0  0  0  # atno 17343 bound_to 10162
  156.5300  130.4182  149.6206 LP  0  0  0  0  0  0  0  0  0  0  0  0  # atno 17370 bound_to 10713
  156.3078  130.7212  151.2098 LP  0  0  0  0  0  0  0  0  0  0  0  0  # atno 17371 bound_to 10713
  139.9039  135.0173  156.7395 LP  0  0  0  0  0  0  0  0  0  0  0  0  # atno 17394 bound_to 11000
  140.6889  133.9408  155.7954 LP  0  0  0  0  0  0  0  0  0  0  0  0  # atno 17395 bound_to 11000

$$$$
