AV-unprocessed.smi:2198|AV-procd|sdf|8915|dock8
  -GOLD-   2272012133D 1   1.00000     0.00000
 Structure written by MMmdl.
 43 44  0  0  0  0  0  0  0  0  1 V2000
  146.4932  142.5583  153.7676 C   0  0  0  0  0  0  0  0  0  0  0  0
  147.5078  141.8419  154.6320 C   0  0  0  0  0  0  0  0  0  0  0  0
  147.2239  141.8986  155.9865 N   0  0  0  0  0  0  0  0  0  0  0  0
  148.0967  141.2714  156.8576 C   0  0  0  0  0  0  0  0  0  0  0  0
  147.7146  141.3829  158.3234 C   0  0  0  0  0  0  0  0  0  0  0  0
  149.1943  140.6159  156.4017 C   0  0  0  0  0  0  0  0  0  0  0  0
  150.1776  139.9052  157.3307 C   0  0  0  0  0  0  0  0  0  0  0  0
  151.5335  140.5905  157.5194 C   0  0  0  0  0  0  0  0  0  0  0  0
  152.5579  140.0856  157.0597 O   0  0  0  0  0  0  0  0  0  0  0  0
  151.5226  141.7447  158.2030 N   0  0  0  0  0  0  0  0  0  0  0  0
  152.6970  142.5578  158.5140 C   0  0  2  0  0  0  0  0  0  0  0  0
  153.5090  141.9084  159.6511 C   0  0  0  0  0  0  0  0  0  0  0  0
  152.7963  142.0153  161.0100 C   0  0  0  0  0  0  0  0  0  0  0  0
  152.4427  143.4732  161.3419 C   0  0  0  0  0  0  0  0  0  0  0  0
  151.5866  144.1128  160.2324 C   0  0  1  0  0  0  0  0  0  0  0  0
  151.2306  145.5682  160.5671 C   0  0  0  0  0  0  0  0  0  0  0  0
  152.3038  144.0084  158.8702 C   0  0  0  0  0  0  0  0  0  0  0  0
  149.4410  140.5828  154.9406 C   0  0  0  0  0  0  0  0  0  0  0  0
  150.4100  139.9933  154.4644 O   0  0  0  0  0  0  0  0  0  0  0  0
  148.5293  141.2423  154.1003 N   0  0  0  0  0  0  0  0  0  0  0  0
  146.4164  142.3704  156.3677 H   0  0  0  0  0  0  0  0  0  0  0  0
  146.8427  142.6336  152.7370 H   0  0  0  0  0  0  0  0  0  0  0  0
  146.3163  143.5678  154.1401 H   0  0  0  0  0  0  0  0  0  0  0  0
  145.5472  142.0164  153.7691 H   0  0  0  0  0  0  0  0  0  0  0  0
  148.4914  141.9070  158.8804 H   0  0  0  0  0  0  0  0  0  0  0  0
  147.5841  140.3928  158.7602 H   0  0  0  0  0  0  0  0  0  0  0  0
  146.7812  141.9317  158.4549 H   0  0  0  0  0  0  0  0  0  0  0  0
  150.3497  138.9013  156.9411 H   0  0  0  0  0  0  0  0  0  0  0  0
  149.7342  139.7480  158.3145 H   0  0  0  0  0  0  0  0  0  0  0  0
  150.6337  142.0855  158.5393 H   0  0  0  0  0  0  0  0  0  0  0  0
  153.3335  142.5803  157.6276 H   0  0  0  0  0  0  0  0  0  0  0  0
  153.7176  140.8636  159.4180 H   0  0  0  0  0  0  0  0  0  0  0  0
  154.4792  142.4015  159.7214 H   0  0  0  0  0  0  0  0  0  0  0  0
  151.8882  141.4113  161.0004 H   0  0  0  0  0  0  0  0  0  0  0  0
  153.4313  141.6007  161.7933 H   0  0  0  0  0  0  0  0  0  0  0  0
  151.9117  143.5120  162.2937 H   0  0  0  0  0  0  0  0  0  0  0  0
  153.3605  144.0471  161.4776 H   0  0  0  0  0  0  0  0  0  0  0  0
  150.6503  143.5569  160.1674 H   0  0  0  0  0  0  0  0  0  0  0  0
  152.1242  146.1882  160.6451 H   0  0  0  0  0  0  0  0  0  0  0  0
  150.6961  145.6336  161.5152 H   0  0  0  0  0  0  0  0  0  0  0  0
  150.5905  146.0019  159.7980 H   0  0  0  0  0  0  0  0  0  0  0  0
  153.2064  144.6203  158.8953 H   0  0  0  0  0  0  0  0  0  0  0  0
  151.6782  144.4328  158.0839 H   0  0  0  0  0  0  0  0  0  0  0  0
  1 22  1  0  0  0  0
  1 23  1  0  0  0  0
  1 24  1  0  0  0  0
  1  2  1  0  0  0  0
  2  3  1  0  0  0  0
  2 20  2  0  0  0  0
  3  4  1  0  0  0  0
  3 21  1  0  0  0  0
  4  6  2  0  0  0  0
  4  5  1  0  0  0  0
  5 25  1  0  0  0  0
  5 26  1  0  0  0  0
  5 27  1  0  0  0  0
  6 18  1  0  0  0  0
  6  7  1  0  0  0  0
  7  8  1  0  0  0  0
  7 28  1  0  0  0  0
  7 29  1  0  0  0  0
  8  9  2  0  0  0  0
  8 10  1  0  0  0  0
 10 11  1  0  0  0  0
 10 30  1  0  0  0  0
 11 17  1  0  0  0  0
 11 12  1  0  0  0  0
 11 31  1  0  0  0  0
 12 13  1  0  0  0  0
 12 32  1  0  0  0  0
 12 33  1  0  0  0  0
 13 14  1  0  0  0  0
 13 34  1  0  0  0  0
 13 35  1  0  0  0  0
 14 15  1  0  0  0  0
 14 36  1  0  0  0  0
 14 37  1  0  0  0  0
 15 16  1  0  0  0  0
 15 17  1  0  0  0  0
 15 38  1  0  0  0  0
 16 39  1  0  0  0  0
 16 40  1  0  0  0  0
 16 41  1  0  0  0  0
 17 42  1  0  0  0  0
 17 43  1  0  0  0  0
 18 19  2  0  0  0  0
 18 20  1  0  0  0  0
M  END
> <s_m_source_file>
AV-unprocessed.smi

> <i_m_source_file_index>
2198

> <i_lp_mmshare_version>
43012

> <i_f3d_flags>
0

> <s_epik_input>
W0NIM11jMW5jKFtDSDNdKWMoYyg9TylbbkhdMSlbQ0gyXUMoPU8pW05IXVtDQEBIXTJbQ0gyXVtDSDJdW0NIMl1bQ0BASF0oW0NIM10pW0NIMl0y

> <s_epik_cmdline>
J2VwaWtfcHl0aG9uJywgJy1waCcsICc3LjAnLCAnLXRuJywgJzgnLCAnLW1hJywgJzIwMCcsICctbWV0YWxfYmluZGluZycsICctaW1hZScsICc8aW5maWxlLm1hZT4nLCAnLW9tYWUnLCAnPG91dGZpbGUubWFlPic=

> <r_lp_tautomer_probability>
0.156392

> <r_epik_Ionization_Penalty>
0.0136514

> <r_epik_Ionization_Penalty_Charging>
0.0135207

> <r_epik_Ionization_Penalty_Neutral>
0.000130657

> <r_epik_State_Penalty>
1.15342

> <r_epik_Charging_Adjusted_Penalty>
1.16694

> <i_epik_Tot_Q>
0

> <i_epik_Tot_abs_Q>
0

> <r_epik_Metal_State_Penalty>
1.31404

> <b_epik_Metal_Only>
0

> <s_lp_Force_Field>
OPLS_2005

> <r_lp_Energy>
13.5111

> <b_lp_Chiralities_Consistent>
1

> <s_lp_Variant>
AV-unprocessed.smi:2198-5

> <Gold.Version>
5.8.1

> <Gold.Id.Protein>
6NUR|6NUR_protein|mol2

> <Gold.PLP.Fitness>
45.8594

> <Gold.PLP.PLP>
-38.9208

> <Gold.PLP.part.hbond>
-4.0000

> <Gold.PLP.part.metal>
0.0000

> <Gold.PLP.part.buried>
-0.9448

> <Gold.PLP.part.nonpolar>
-32.1194

> <Gold.PLP.part.repulsive>
0.4004

> <Gold.PLP.ligand.clash>
0.0000

> <Gold.PLP.ligand.torsion>
0.4653

> <Gold.PLP.Chemscore.Hbond>
2.6201

> <Gold.PLP.Chemscore.CHOScore>
0.0000

> <Gold.PLP.Chemscore.Metal>
0.0000

> <Gold.Chemscore.Hbonds>
donor molecule, donor type, donor heavy atom, donor atom, acceptor molecule, acceptor atom, score
      P1  H  7989  7998       L1    19  1.00
      P1  H  7997  8009       L1     9  1.00

> <Gold.PLP.Chemscore.Internal.Correction>
0.0089

> <Gold.Rescore>
     Score         DG    S(hbond)    S(metal)    S(lipo)     H(rot)  DE(clash)    DE(int)     intcor
     18.01     -21.39       2.37        0.00     100.84       1.48       3.02       0.36       ----

> <Gold.Chemscore.Fitness>
18.0107

> <Gold.Chemscore.DG>
-21.3943

> <Gold.Chemscore.ZeroCoef>
-5.4800

> <Gold.Chemscore.Hbond>
2.3669

> <Gold.Chemscore.Metal>
0.0000

> <Gold.Chemscore.Lipo>
100.8377

> <Gold.Chemscore.Internal_Hbond>
0.0000

> <Gold.Chemscore.DEClash>
3.0228

> <Gold.Chemscore.DEInternal>
0.3608

> <Gold.Chemscore.Rot>
1.4801

> <Gold.Chemscore.Internal.Correction>
   9.000000E+99

> <Gold.Chemscore.Hbonds>
donor molecule, donor type, donor heavy atom, donor atom, acceptor molecule, acceptor atom, score
      P1  H  7989  7998       L1    19  0.98
      P1  H  7997  8009       L1     9  0.98
      P1  H  8011  8017       L1    20  0.02

> <Gold.Chemscore.Hbond.Weighted>
-7.9054

> <Gold.Chemscore.Metal.Weighted>
-0.0000

> <Gold.Chemscore.Lipo.Weighted>
-11.7980

> <Gold.Chemscore.Internal_Hbond.Weighted>
0.0000

> <Gold.Chemscore.DEClash.Weighted>
3.0228

> <Gold.Chemscore.DEInternal.Weighted>
0.3608

> <Gold.Chemscore.Rot.Weighted>
3.7891

> <Gold.Chemscore.Internal.Correction.Weighted>
   9.000000E+99

> <Gold.Protein.RotatedTorsions>
[ 6907 6896 6895 6894 ] final -147.50 input  -60.11 | X-H torsion
[ 7974 7965 7964 7962 ] final  149.55 input  175.53 | X-H torsion
[ 8008 7997 7996 7995 ] final -175.35 input   59.86 | X-H torsion
[ 10167 10162 10161 10158 ] final -169.42 input  -65.29 | X-H torsion
[ 10718 10713 10712 10709 ] final -133.20 input   66.30 | X-H torsion
[ 10763 10752 10751 10750 ] final   18.33 input  -60.55 | X-H torsion
[ 11005 11000 10999 10996 ] final   28.01 input  -57.11 | X-H torsion

> <Gold.Protein.ActiveResidues>
 VAL166  LYS551  ARG553  GLY616  TRP617  ASP618  TYR619  PRO620  LYS621  CYS622 
 ASP623  PHE694  ASN695  SER759  ASP760  ASP761  ALA762  ILE779  LEU786  VAL792 
 PHE793  MET794  SER795  GLU796  ALA797  LYS798  CYS799  TRP800  GLU811  SER814 

> <Gold.Protein.RotatedAtoms>
  151.1565  133.4873  159.2594 H   0  0  0  0  0  0  0  0  0  0  0  0  # atno 6907 bound_to 6896
  151.1499  135.0221  159.8673 H   0  0  0  0  0  0  0  0  0  0  0  0  # atno 6908 bound_to 6896
  152.5463  134.1450  159.8548 H   0  0  0  0  0  0  0  0  0  0  0  0  # atno 6909 bound_to 6896
  144.8429  139.6295  143.6008 H   0  0  0  0  0  0  0  0  0  0  0  0  # atno 7974 bound_to 7965
  155.9815  140.1182  157.0722 H   0  0  0  0  0  0  0  0  0  0  0  0  # atno 8008 bound_to 7997
  154.4184  140.1143  156.5510 H   0  0  0  0  0  0  0  0  0  0  0  0  # atno 8009 bound_to 7997
  155.6464  140.3473  155.4735 H   0  0  0  0  0  0  0  0  0  0  0  0  # atno 8010 bound_to 7997
  139.5924  144.1185  152.1650 H   0  0  0  0  0  0  0  0  0  0  0  0  # atno 10167 bound_to 10162
  156.2425  130.7104  151.0971 H   0  0  0  0  0  0  0  0  0  0  0  0  # atno 10718 bound_to 10713
  153.1259  135.6729  153.9258 H   0  0  0  0  0  0  0  0  0  0  0  0  # atno 10763 bound_to 10752
  153.8760  135.3064  155.3445 H   0  0  0  0  0  0  0  0  0  0  0  0  # atno 10764 bound_to 10752
  154.7664  135.4962  153.9643 H   0  0  0  0  0  0  0  0  0  0  0  0  # atno 10765 bound_to 10752
  140.3202  134.2552  155.7718 H   0  0  0  0  0  0  0  0  0  0  0  0  # atno 11005 bound_to 11000
  146.2719  139.6656  142.9290 LP  0  0  0  0  0  0  0  0  0  0  0  0  # atno 17320 bound_to 7965
  145.4656  141.0434  143.2727 LP  0  0  0  0  0  0  0  0  0  0  0  0  # atno 17321 bound_to 7965
  140.0762  144.5738  150.7155 LP  0  0  0  0  0  0  0  0  0  0  0  0  # atno 17342 bound_to 10162
  140.7184  143.2565  151.4359 LP  0  0  0  0  0  0  0  0  0  0  0  0  # atno 17343 bound_to 10162
  157.7181  131.0698  150.6247 LP  0  0  0  0  0  0  0  0  0  0  0  0  # atno 17370 bound_to 10713
  156.6321  130.4435  149.5783 LP  0  0  0  0  0  0  0  0  0  0  0  0  # atno 17371 bound_to 10713
  141.2088  133.7766  157.0035 LP  0  0  0  0  0  0  0  0  0  0  0  0  # atno 17394 bound_to 11000
  140.0949  134.9570  157.1833 LP  0  0  0  0  0  0  0  0  0  0  0  0  # atno 17395 bound_to 11000

$$$$
