AV-unprocessed.smi:91|AV-procd|sdf|838|dock3
  -GOLD-   2262017273D 1   1.00000     0.00000
 Structure written by MMmdl.
 60 63  0  0  0  0  0  0  0  0  1 V2000
  148.2681  127.5222  152.1440 C   0  0  0  0  0  0  0  0  0  0  0  0
  147.7727  128.8516  152.1570 O   0  0  0  0  0  0  0  0  0  0  0  0
  146.5139  129.0004  152.8018 C   0  0  0  0  0  0  0  0  0  0  0  0
  145.8431  130.3490  152.4867 C   0  0  1  0  0  0  0  0  0  0  0  0
  146.4220  131.4928  153.3389 C   0  0  0  0  0  0  0  0  0  0  0  0
  145.8804  132.7663  152.8931 N   0  0  0  0  0  0  0  0  0  0  0  0
  146.1260  133.7827  153.7473 C   0  0  0  0  0  0  0  0  0  0  0  0
  145.0669  134.5538  154.0965 N   0  0  0  0  0  0  0  0  0  0  0  0
  145.2304  135.5707  154.9478 C   0  0  0  0  0  0  0  0  0  0  0  0
  146.3443  135.9737  155.5623 N   0  0  0  0  0  0  0  0  0  0  0  0
  147.4085  135.1904  155.2253 C   0  0  0  0  0  0  0  0  0  0  0  0
  147.3906  134.0828  154.3305 C   0  0  0  0  0  0  0  0  0  0  0  0
  148.6610  133.5242  154.2480 N   0  0  0  0  0  0  0  0  0  0  0  0
  149.3874  134.2596  155.0444 C   0  0  0  0  0  0  0  0  0  0  0  0
  148.7135  135.2779  155.6777 N   0  0  0  0  0  0  0  0  0  0  0  0
  149.2744  136.2305  156.6201 C   0  0  0  0  0  0  0  0  0  0  0  0
  150.6841  136.7282  156.2140 C   0  0  2  0  0  0  0  0  0  0  0  0
  151.7523  136.4475  157.2993 C   0  0  0  0  0  0  0  0  0  0  0  0
  151.2731  136.7644  158.5900 O   0  0  0  0  0  0  0  0  0  0  0  0
  150.6590  138.2161  155.7817 C   0  0  1  0  0  0  0  0  0  0  0  0
  150.5602  139.2139  156.9222 C   0  0  0  0  0  0  0  0  0  0  0  0
  151.0227  140.5053  156.2578 C   0  0  0  0  0  0  0  0  0  0  0  0
  151.9979  140.1122  155.2994 O   0  0  0  0  0  0  0  0  0  0  0  0
  151.9400  138.7036  155.0953 C   0  0  0  0  0  0  0  0  0  0  0  0
  146.1207  133.0195  151.4790 C   0  0  0  0  0  0  0  0  0  0  0  0
  145.5482  131.8722  150.6181 C   0  0  0  0  0  0  0  0  0  0  0  0
  144.0045  131.8691  150.6074 C   0  0  0  0  0  0  0  0  0  0  0  0
  146.0620  131.9982  149.1755 C   0  0  0  0  0  0  0  0  0  0  0  0
  146.0666  130.6266  151.1021 O   0  0  0  0  0  0  0  0  0  0  0  0
  149.1990  127.4898  151.5779 H   0  0  0  0  0  0  0  0  0  0  0  0
  147.5633  126.8410  151.6656 H   0  0  0  0  0  0  0  0  0  0  0  0
  148.4821  127.1579  153.1485 H   0  0  0  0  0  0  0  0  0  0  0  0
  145.8695  128.1924  152.4543 H   0  0  0  0  0  0  0  0  0  0  0  0
  146.6209  128.8632  153.8790 H   0  0  0  0  0  0  0  0  0  0  0  0
  144.7719  130.2636  152.6620 H   0  0  0  0  0  0  0  0  0  0  0  0
  146.1857  131.3305  154.3916 H   0  0  0  0  0  0  0  0  0  0  0  0
  147.5095  131.5168  153.2527 H   0  0  0  0  0  0  0  0  0  0  0  0
  144.3412  136.1418  155.1700 H   0  0  0  0  0  0  0  0  0  0  0  0
  150.4402  134.0733  155.1997 H   0  0  0  0  0  0  0  0  0  0  0  0
  148.5785  137.0663  156.6932 H   0  0  0  0  0  0  0  0  0  0  0  0
  149.3048  135.7703  157.6083 H   0  0  0  0  0  0  0  0  0  0  0  0
  150.9805  136.1471  155.3394 H   0  0  0  0  0  0  0  0  0  0  0  0
  152.0587  135.4017  157.2871 H   0  0  0  0  0  0  0  0  0  0  0  0
  152.6579  137.0240  157.1120 H   0  0  0  0  0  0  0  0  0  0  0  0
  151.6737  137.5734  158.8700 H   0  0  0  0  0  0  0  0  0  0  0  0
  149.8207  138.3858  155.1037 H   0  0  0  0  0  0  0  0  0  0  0  0
  149.5552  139.2977  157.3369 H   0  0  0  0  0  0  0  0  0  0  0  0
  151.2428  138.9424  157.7289 H   0  0  0  0  0  0  0  0  0  0  0  0
  150.1930  140.9811  155.7336 H   0  0  0  0  0  0  0  0  0  0  0  0
  151.4288  141.2218  156.9721 H   0  0  0  0  0  0  0  0  0  0  0  0
  152.8217  138.2579  155.5577 H   0  0  0  0  0  0  0  0  0  0  0  0
  151.9600  138.4624  154.0322 H   0  0  0  0  0  0  0  0  0  0  0  0
  145.6819  133.9749  151.1875 H   0  0  0  0  0  0  0  0  0  0  0  0
  147.1945  133.0919  151.3058 H   0  0  0  0  0  0  0  0  0  0  0  0
  143.6169  132.7677  150.1267 H   0  0  0  0  0  0  0  0  0  0  0  0
  143.5789  131.8401  151.6101 H   0  0  0  0  0  0  0  0  0  0  0  0
  143.6177  131.0098  150.0591 H   0  0  0  0  0  0  0  0  0  0  0  0
  145.7378  132.9339  148.7186 H   0  0  0  0  0  0  0  0  0  0  0  0
  145.6955  131.1809  148.5535 H   0  0  0  0  0  0  0  0  0  0  0  0
  147.1517  131.9730  149.1403 H   0  0  0  0  0  0  0  0  0  0  0  0
  1  2  1  0  0  0  0
  1 30  1  0  0  0  0
  1 31  1  0  0  0  0
  1 32  1  0  0  0  0
  2  3  1  0  0  0  0
  3  4  1  0  0  0  0
  3 33  1  0  0  0  0
  3 34  1  0  0  0  0
  4 29  1  0  0  0  0
  4  5  1  0  0  0  0
  4 35  1  0  0  0  0
  5  6  1  0  0  0  0
  5 36  1  0  0  0  0
  5 37  1  0  0  0  0
  6  7  1  0  0  0  0
  6 25  1  0  0  0  0
  7 12  1  0  0  0  0
  7  8  2  0  0  0  0
  8  9  1  0  0  0  0
  9 10  2  0  0  0  0
  9 38  1  0  0  0  0
 10 11  1  0  0  0  0
 11 15  1  0  0  0  0
 11 12  2  0  0  0  0
 12 13  1  0  0  0  0
 13 14  2  0  0  0  0
 14 15  1  0  0  0  0
 14 39  1  0  0  0  0
 15 16  1  0  0  0  0
 16 17  1  0  0  0  0
 16 40  1  0  0  0  0
 16 41  1  0  0  0  0
 17 18  1  0  0  0  0
 17 20  1  0  0  0  0
 17 42  1  0  0  0  0
 18 19  1  0  0  0  0
 18 43  1  0  0  0  0
 18 44  1  0  0  0  0
 19 45  1  0  0  0  0
 20 24  1  0  0  0  0
 20 21  1  0  0  0  0
 20 46  1  0  0  0  0
 21 22  1  0  0  0  0
 21 47  1  0  0  0  0
 21 48  1  0  0  0  0
 22 23  1  0  0  0  0
 22 49  1  0  0  0  0
 22 50  1  0  0  0  0
 23 24  1  0  0  0  0
 24 51  1  0  0  0  0
 24 52  1  0  0  0  0
 25 26  1  0  0  0  0
 25 53  1  0  0  0  0
 25 54  1  0  0  0  0
 26 27  1  0  0  0  0
 26 28  1  0  0  0  0
 26 29  1  0  0  0  0
 27 55  1  0  0  0  0
 27 56  1  0  0  0  0
 27 57  1  0  0  0  0
 28 58  1  0  0  0  0
 28 59  1  0  0  0  0
 28 60  1  0  0  0  0
M  END
> <s_m_source_file>
AV-unprocessed.smi

> <i_m_source_file_index>
91

> <i_lp_mmshare_version>
43012

> <i_f3d_flags>
0

> <s_epik_input>
W0NIM11PW0NIMl1bQ0BASF0oTzEpW0NIMl1OKFtDSDJdQzEoW0NIM10pW0NIM10pYyhuW2NIXW4yKWMoYzIzKW5bY0hdbjNbQ0gyXVtDQEhdKFtDSDJdW09IXSlbQ0BASF00W0NIMl1bQ0gyXU9bQ0gyXTQ=

> <s_epik_cmdline>
J2VwaWtfcHl0aG9uJywgJy1waCcsICc3LjAnLCAnLXRuJywgJzgnLCAnLW1hJywgJzIwMCcsICctbWV0YWxfYmluZGluZycsICctaW1hZScsICc8aW5maWxlLm1hZT4nLCAnLW9tYWUnLCAnPG91dGZpbGUubWFlPic=

> <r_lp_tautomer_probability>
1

> <r_epik_Ionization_Penalty>
8.63591e-05

> <r_epik_Ionization_Penalty_Charging>
0

> <r_epik_Ionization_Penalty_Neutral>
8.63591e-05

> <r_epik_State_Penalty>
-0

> <r_epik_Charging_Adjusted_Penalty>
0

> <i_epik_Tot_Q>
0

> <i_epik_Tot_abs_Q>
0

> <r_epik_Metal_State_Penalty>
-0

> <b_epik_Metal_Only>
0

> <s_lp_Force_Field>
OPLS_2005

> <r_lp_Energy>
49.535

> <b_lp_Chiralities_Consistent>
1

> <s_lp_Variant>
AV-unprocessed.smi:91-6

> <Gold.Version>
5.8.1

> <Gold.Id.Protein>
6NUR|6NUR_protein|mol2

> <Gold.PLP.Fitness>
41.8883

> <Gold.PLP.PLP>
-40.0078

> <Gold.PLP.part.hbond>
-2.6575

> <Gold.PLP.part.metal>
0.0000

> <Gold.PLP.part.buried>
-7.8954

> <Gold.PLP.part.nonpolar>
-31.5670

> <Gold.PLP.part.repulsive>
2.4736

> <Gold.PLP.ligand.clash>
0.0000

> <Gold.PLP.ligand.torsion>
2.0090

> <Gold.PLP.Chemscore.Hbond>
1.8156

> <Gold.PLP.Chemscore.CHOScore>
0.0000

> <Gold.PLP.Chemscore.Metal>
0.0000

> <Gold.Chemscore.Hbonds>
donor molecule, donor type, donor heavy atom, donor atom, acceptor molecule, acceptor atom, score
      P1  H  6896  6909       L1    19  0.61
      P1  H  7989  7998       L1    23  0.80

> <Gold.PLP.Chemscore.Internal.Correction>
0.4519

> <Gold.Rescore>
     Score         DG    S(hbond)    S(metal)    S(lipo)     H(rot)  DE(clash)    DE(int)     intcor
     12.75     -14.55       1.54        0.00      99.75       3.03       0.02       1.78       ----

> <Gold.Chemscore.Fitness>
12.7509

> <Gold.Chemscore.DG>
-14.5513

> <Gold.Chemscore.ZeroCoef>
-5.4800

> <Gold.Chemscore.Hbond>
1.5428

> <Gold.Chemscore.Metal>
0.0000

> <Gold.Chemscore.Lipo>
99.7527

> <Gold.Chemscore.Internal_Hbond>
0.0000

> <Gold.Chemscore.DEClash>
0.0174

> <Gold.Chemscore.DEInternal>
1.7830

> <Gold.Chemscore.Rot>
3.0284

> <Gold.Chemscore.Internal.Correction>
   9.000000E+99

> <Gold.Chemscore.Hbonds>
donor molecule, donor type, donor heavy atom, donor atom, acceptor molecule, acceptor atom, score
      P1  H  6896  6909       L1    19  0.43
      P1  H  7989  7998       L1    23  0.30

> <Gold.Chemscore.Hbond.Weighted>
-5.1531

> <Gold.Chemscore.Metal.Weighted>
-0.0000

> <Gold.Chemscore.Lipo.Weighted>
-11.6711

> <Gold.Chemscore.Internal_Hbond.Weighted>
0.0000

> <Gold.Chemscore.DEClash.Weighted>
0.0174

> <Gold.Chemscore.DEInternal.Weighted>
1.7830

> <Gold.Chemscore.Rot.Weighted>
7.7528

> <Gold.Chemscore.Internal.Correction.Weighted>
   9.000000E+99

> <Gold.Protein.RotatedTorsions>
[ 6907 6896 6895 6894 ] final  116.15 input  -60.11 | X-H torsion
[ 7974 7965 7964 7962 ] final -118.39 input  175.53 | X-H torsion
[ 8008 7997 7996 7995 ] final   98.47 input   59.86 | X-H torsion
[ 10167 10162 10161 10158 ] final -133.12 input  -65.29 | X-H torsion
[ 10718 10713 10712 10709 ] final   18.68 input   66.30 | X-H torsion
[ 10763 10752 10751 10750 ] final -161.59 input  -60.55 | X-H torsion
[ 11005 11000 10999 10996 ] final  -97.92 input  -57.11 | X-H torsion

> <Gold.Protein.ActiveResidues>
 VAL166  LYS551  ARG553  GLY616  TRP617  ASP618  TYR619  PRO620  LYS621  CYS622 
 ASP623  PHE694  ASN695  SER759  ASP760  ASP761  ALA762  ILE779  LEU786  VAL792 
 PHE793  MET794  SER795  GLU796  ALA797  LYS798  CYS799  TRP800  GLU811  SER814 

> <Gold.Protein.RotatedAtoms>
  152.4697  133.8001  159.6947 H   0  0  0  0  0  0  0  0  0  0  0  0  # atno 6907 bound_to 6896
  150.8679  133.7538  159.2977 H   0  0  0  0  0  0  0  0  0  0  0  0  # atno 6908 bound_to 6896
  151.5083  135.1067  159.9899 H   0  0  0  0  0  0  0  0  0  0  0  0  # atno 6909 bound_to 6896
  145.0743  140.8381  143.4077 H   0  0  0  0  0  0  0  0  0  0  0  0  # atno 7974 bound_to 7965
  156.1007  140.3243  155.7938 H   0  0  0  0  0  0  0  0  0  0  0  0  # atno 8008 bound_to 7997
  155.4841  140.0556  157.2980 H   0  0  0  0  0  0  0  0  0  0  0  0  # atno 8009 bound_to 7997
  154.4695  140.2005  156.0046 H   0  0  0  0  0  0  0  0  0  0  0  0  # atno 8010 bound_to 7997
  139.9015  143.6602  152.2594 H   0  0  0  0  0  0  0  0  0  0  0  0  # atno 10167 bound_to 10162
  157.0998  130.6463  149.5869 H   0  0  0  0  0  0  0  0  0  0  0  0  # atno 10718 bound_to 10713
  154.7290  135.3042  154.8923 H   0  0  0  0  0  0  0  0  0  0  0  0  # atno 10763 bound_to 10752
  153.9771  135.6735  153.4753 H   0  0  0  0  0  0  0  0  0  0  0  0  # atno 10764 bound_to 10752
  153.0901  135.4964  154.8594 H   0  0  0  0  0  0  0  0  0  0  0  0  # atno 10765 bound_to 10752
  141.1362  133.8207  157.0771 H   0  0  0  0  0  0  0  0  0  0  0  0  # atno 11005 bound_to 11000
  145.1254  139.2666  143.5567 LP  0  0  0  0  0  0  0  0  0  0  0  0  # atno 17320 bound_to 7965
  146.3529  140.0890  142.8613 LP  0  0  0  0  0  0  0  0  0  0  0  0  # atno 17321 bound_to 7965
  139.7021  144.7633  151.1255 LP  0  0  0  0  0  0  0  0  0  0  0  0  # atno 17342 bound_to 10162
  140.7706  143.5444  150.9276 LP  0  0  0  0  0  0  0  0  0  0  0  0  # atno 17343 bound_to 10162
  155.9876  130.4917  150.7135 LP  0  0  0  0  0  0  0  0  0  0  0  0  # atno 17370 bound_to 10713
  157.4651  131.0887  151.0704 LP  0  0  0  0  0  0  0  0  0  0  0  0  # atno 17371 bound_to 10713
  140.0475  134.9823  157.1075 LP  0  0  0  0  0  0  0  0  0  0  0  0  # atno 17394 bound_to 11000
  140.4041  134.2051  155.7163 LP  0  0  0  0  0  0  0  0  0  0  0  0  # atno 17395 bound_to 11000

$$$$
