AV-unprocessed.smi:1027|AV-procd|sdf|4469|dock3
  -GOLD-   22720 2443D 1   1.00000     0.00000
 Structure written by MMmdl.
 35 36  0  0  0  0  0  0  0  0  1 V2000
  145.6824  142.7859  156.1890 C   0  0  0  0  0  0  0  0  0  0  0  0
  145.7030  141.7254  155.0733 C   0  0  0  0  0  0  0  0  0  0  0  0
  145.7275  140.3205  155.7063 C   0  0  0  0  0  0  0  0  0  0  0  0
  146.8689  141.9462  154.0714 C   0  0  2  0  0  0  0  0  0  0  0  0
  147.1269  140.7339  153.1598 C   0  0  0  0  0  0  0  0  0  0  0  0
  148.1135  142.2451  154.7812 N   0  0  0  0  0  0  0  0  0  0  0  0
  148.8250  141.3849  155.5258 C   0  0  0  0  0  0  0  0  0  0  0  0
  148.5157  140.2042  155.6882 O   0  0  0  0  0  0  0  0  0  0  0  0
  149.9041  141.9847  156.0585 N   0  0  0  0  0  0  0  0  0  0  0  0
  150.8983  141.4207  156.9006 C   0  0  0  0  0  0  0  0  0  0  0  0
  151.5852  140.3097  156.6013 N   0  0  0  0  0  0  0  0  0  0  0  0
  152.4911  139.9767  157.5985 N   0  0  0  0  0  0  0  0  0  0  0  0
  152.4630  140.8413  158.6197 C   0  0  0  0  0  0  0  0  0  0  0  0
  153.3422  140.6890  159.8157 C   0  0  0  0  0  0  0  0  0  0  0  0
  153.1697  141.5852  161.0206 C   0  0  0  0  0  0  0  0  0  0  0  0
  154.3980  141.7179  160.1574 C   0  0  0  0  0  0  0  0  0  0  0  0
  151.3140  142.1626  158.4358 S   0  0  0  0  0  0  0  0  0  0  0  0
  146.6239  142.8004  156.7388 H   0  0  0  0  0  0  0  0  0  0  0  0
  144.8847  142.5867  156.9051 H   0  0  0  0  0  0  0  0  0  0  0  0
  145.5069  143.7865  155.7953 H   0  0  0  0  0  0  0  0  0  0  0  0
  144.7644  141.8134  154.5240 H   0  0  0  0  0  0  0  0  0  0  0  0
  146.6682  140.1391  156.2276 H   0  0  0  0  0  0  0  0  0  0  0  0
  145.6030  139.5356  154.9605 H   0  0  0  0  0  0  0  0  0  0  0  0
  144.9194  140.2002  156.4283 H   0  0  0  0  0  0  0  0  0  0  0  0
  146.6050  142.7852  153.4248 H   0  0  0  0  0  0  0  0  0  0  0  0
  146.2832  140.5376  152.4988 H   0  0  0  0  0  0  0  0  0  0  0  0
  147.3157  139.8313  153.7417 H   0  0  0  0  0  0  0  0  0  0  0  0
  147.9942  140.9035  152.5204 H   0  0  0  0  0  0  0  0  0  0  0  0
  148.4540  143.1923  154.7057 H   0  0  0  0  0  0  0  0  0  0  0  0
  150.0219  142.9646  155.8468 H   0  0  0  0  0  0  0  0  0  0  0  0
  153.5777  139.6410  159.9895 H   0  0  0  0  0  0  0  0  0  0  0  0
  152.4253  142.3767  160.9597 H   0  0  0  0  0  0  0  0  0  0  0  0
  153.2901  141.1325  162.0028 H   0  0  0  0  0  0  0  0  0  0  0  0
  155.3393  141.3537  160.5636 H   0  0  0  0  0  0  0  0  0  0  0  0
  154.4731  142.6068  159.5343 H   0  0  0  0  0  0  0  0  0  0  0  0
  1  2  1  0  0  0  0
  1 18  1  0  0  0  0
  1 19  1  0  0  0  0
  1 20  1  0  0  0  0
  2  3  1  0  0  0  0
  2  4  1  0  0  0  0
  2 21  1  0  0  0  0
  3 22  1  0  0  0  0
  3 23  1  0  0  0  0
  3 24  1  0  0  0  0
  4  5  1  0  0  0  0
  4  6  1  0  0  0  0
  4 25  1  0  0  0  0
  5 26  1  0  0  0  0
  5 27  1  0  0  0  0
  5 28  1  0  0  0  0
  6  7  1  0  0  0  0
  6 29  1  0  0  0  0
  7  8  2  0  0  0  0
  7  9  1  0  0  0  0
  9 10  1  0  0  0  0
  9 30  1  0  0  0  0
 10 17  1  0  0  0  0
 10 11  2  0  0  0  0
 11 12  1  0  0  0  0
 12 13  2  0  0  0  0
 13 14  1  0  0  0  0
 13 17  1  0  0  0  0
 14 16  1  0  0  0  0
 14 15  1  0  0  0  0
 14 31  1  0  0  0  0
 15 16  1  0  0  0  0
 15 32  1  0  0  0  0
 15 33  1  0  0  0  0
 16 34  1  0  0  0  0
 16 35  1  0  0  0  0
M  END
> <s_m_source_file>
AV-unprocessed.smi

> <i_m_source_file_index>
1027

> <i_lp_mmshare_version>
43012

> <i_f3d_flags>
0

> <s_epik_input>
W0NIM11bQ0hdKFtDSDNdKVtDQEhdKFtDSDNdKVtOSF1DKD1PKVtOSF1jMW5uYyhzMSlbQ0hdMltDSDJdW0NIMl0y

> <s_epik_cmdline>
J2VwaWtfcHl0aG9uJywgJy1waCcsICc3LjAnLCAnLXRuJywgJzgnLCAnLW1hJywgJzIwMCcsICctbWV0YWxfYmluZGluZycsICctaW1hZScsICc8aW5maWxlLm1hZT4nLCAnLW9tYWUnLCAnPG91dGZpbGUubWFlPic=

> <r_lp_tautomer_probability>
1

> <r_epik_Ionization_Penalty>
0.000943246

> <r_epik_Ionization_Penalty_Charging>
0

> <r_epik_Ionization_Penalty_Neutral>
0.000943246

> <r_epik_State_Penalty>
-0

> <r_epik_Charging_Adjusted_Penalty>
0

> <i_epik_Tot_Q>
0

> <i_epik_Tot_abs_Q>
0

> <r_epik_Metal_State_Penalty>
0.281646

> <b_epik_Metal_Only>
0

> <s_lp_Force_Field>
OPLS_2005

> <r_lp_Energy>
3.85842

> <b_lp_Chiralities_Consistent>
1

> <s_lp_Variant>
AV-unprocessed.smi:1027-1

> <Gold.Version>
5.8.1

> <Gold.Id.Protein>
6NUR|6NUR_protein|mol2

> <Gold.PLP.Fitness>
37.0431

> <Gold.PLP.PLP>
-30.0676

> <Gold.PLP.part.hbond>
-3.0000

> <Gold.PLP.part.metal>
0.0000

> <Gold.PLP.part.buried>
-5.4189

> <Gold.PLP.part.nonpolar>
-22.4221

> <Gold.PLP.part.repulsive>
0.3347

> <Gold.PLP.ligand.clash>
0.0000

> <Gold.PLP.ligand.torsion>
0.8728

> <Gold.PLP.Chemscore.Hbond>
2.8560

> <Gold.PLP.Chemscore.CHOScore>
0.0000

> <Gold.PLP.Chemscore.Metal>
0.0000

> <Gold.Chemscore.Hbonds>
donor molecule, donor type, donor heavy atom, donor atom, acceptor molecule, acceptor atom, score
      L1  H     6    29       P1  8028  0.91
      L1  H     9    30       P1  8028  0.68
      P1  H  7997  8010       L1    12  0.73

> <Gold.PLP.Chemscore.Internal.Correction>
0.1530

> <Gold.Rescore>
     Score         DG    S(hbond)    S(metal)    S(lipo)     H(rot)  DE(clash)    DE(int)     intcor
     15.52     -18.63       2.69        0.00      65.97       1.39       0.09       3.03       ----

> <Gold.Chemscore.Fitness>
15.5201

> <Gold.Chemscore.DG>
-18.6334

> <Gold.Chemscore.ZeroCoef>
-5.4800

> <Gold.Chemscore.Hbond>
2.6917

> <Gold.Chemscore.Metal>
0.0000

> <Gold.Chemscore.Lipo>
65.9739

> <Gold.Chemscore.Internal_Hbond>
0.0000

> <Gold.Chemscore.DEClash>
0.0857

> <Gold.Chemscore.DEInternal>
3.0275

> <Gold.Chemscore.Rot>
1.3890

> <Gold.Chemscore.Internal.Correction>
   9.000000E+99

> <Gold.Chemscore.Hbonds>
donor molecule, donor type, donor heavy atom, donor atom, acceptor molecule, acceptor atom, score
      L1  H     6    29       P1  8028  0.89
      L1  H     9    30       P1  8028  0.67
      P1  H  7997  8010       L1    12  0.18

> <Gold.Chemscore.Hbond.Weighted>
-8.9903

> <Gold.Chemscore.Metal.Weighted>
-0.0000

> <Gold.Chemscore.Lipo.Weighted>
-7.7189

> <Gold.Chemscore.Internal_Hbond.Weighted>
0.0000

> <Gold.Chemscore.DEClash.Weighted>
0.0857

> <Gold.Chemscore.DEInternal.Weighted>
3.0275

> <Gold.Chemscore.Rot.Weighted>
3.5559

> <Gold.Chemscore.Internal.Correction.Weighted>
   9.000000E+99

> <Gold.Protein.RotatedTorsions>
[ 6907 6896 6895 6894 ] final  124.79 input  -60.11 | X-H torsion
[ 7974 7965 7964 7962 ] final  164.88 input  175.53 | X-H torsion
[ 8008 7997 7996 7995 ] final   66.36 input   59.86 | X-H torsion
[ 10167 10162 10161 10158 ] final  121.81 input  -65.29 | X-H torsion
[ 10718 10713 10712 10709 ] final -154.74 input   66.30 | X-H torsion
[ 10763 10752 10751 10750 ] final  -78.27 input  -60.55 | X-H torsion
[ 11005 11000 10999 10996 ] final   67.03 input  -57.11 | X-H torsion

> <Gold.Protein.ActiveResidues>
 VAL166  LYS551  ARG553  GLY616  TRP617  ASP618  TYR619  PRO620  LYS621  CYS622 
 ASP623  PHE694  ASN695  SER759  ASP760  ASP761  ALA762  ILE779  LEU786  VAL792 
 PHE793  MET794  SER795  GLU796  ALA797  LYS798  CYS799  TRP800  GLU811  SER814 

> <Gold.Protein.RotatedAtoms>
  152.4048  133.6872  159.6346 H   0  0  0  0  0  0  0  0  0  0  0  0  # atno 6907 bound_to 6896
  150.7934  133.8729  159.3272 H   0  0  0  0  0  0  0  0  0  0  0  0  # atno 6908 bound_to 6896
  151.6486  135.1006  160.0207 H   0  0  0  0  0  0  0  0  0  0  0  0  # atno 6909 bound_to 6896
  144.7526  139.8390  143.6361 H   0  0  0  0  0  0  0  0  0  0  0  0  # atno 7974 bound_to 7965
  155.6762  140.3497  155.4837 H   0  0  0  0  0  0  0  0  0  0  0  0  # atno 8008 bound_to 7997
  155.9646  140.1144  157.0889 H   0  0  0  0  0  0  0  0  0  0  0  0  # atno 8009 bound_to 7997
  154.4151  140.1169  156.5211 H   0  0  0  0  0  0  0  0  0  0  0  0  # atno 8010 bound_to 7997
  139.5897  144.7020  151.3321 H   0  0  0  0  0  0  0  0  0  0  0  0  # atno 10167 bound_to 10162
  156.5033  130.8401  151.2618 H   0  0  0  0  0  0  0  0  0  0  0  0  # atno 10718 bound_to 10713
  154.5237  135.5736  153.6701 H   0  0  0  0  0  0  0  0  0  0  0  0  # atno 10763 bound_to 10752
  152.9923  135.6188  154.2721 H   0  0  0  0  0  0  0  0  0  0  0  0  # atno 10764 bound_to 10752
  154.2643  135.2855  155.2744 H   0  0  0  0  0  0  0  0  0  0  0  0  # atno 10765 bound_to 10752
  139.9795  134.6767  156.0289 H   0  0  0  0  0  0  0  0  0  0  0  0  # atno 11005 bound_to 11000
  146.1496  139.4575  143.0057 LP  0  0  0  0  0  0  0  0  0  0  0  0  # atno 17320 bound_to 7965
  145.6890  141.0169  143.1565 LP  0  0  0  0  0  0  0  0  0  0  0  0  # atno 17321 bound_to 7965
  140.7162  143.7259  150.7660 LP  0  0  0  0  0  0  0  0  0  0  0  0  # atno 17342 bound_to 10162
  140.0812  143.4967  152.2529 LP  0  0  0  0  0  0  0  0  0  0  0  0  # atno 17343 bound_to 10162
  157.7460  130.9974  150.2815 LP  0  0  0  0  0  0  0  0  0  0  0  0  # atno 17370 bound_to 10713
  156.3311  130.3800  149.7490 LP  0  0  0  0  0  0  0  0  0  0  0  0  # atno 17371 bound_to 10713
  141.1469  133.6554  156.3894 LP  0  0  0  0  0  0  0  0  0  0  0  0  # atno 17394 bound_to 11000
  140.5125  134.6381  157.5289 LP  0  0  0  0  0  0  0  0  0  0  0  0  # atno 17395 bound_to 11000

$$$$
