AV-unprocessed.smi:2823|AV-procd|sdf|10884|dock7
  -GOLD-   2272015323D 1   1.00000     0.00000
 Structure written by MMmdl.
 42 43  0  0  0  0  0  0  0  0  1 V2000
  153.1159  137.1951  157.1824 C   0  0  0  0  0  0  0  0  0  0  0  0
  151.9011  136.4312  156.7804 C   0  0  0  0  0  0  0  0  0  0  0  0
  151.1138  135.8697  157.6910 N   0  0  0  0  0  0  0  0  0  0  0  0
  150.1084  135.2642  156.9226 O   0  0  0  0  0  0  0  0  0  0  0  0
  150.4219  135.5416  155.6331 C   0  0  0  0  0  0  0  0  0  0  0  0
  149.6457  135.1042  154.5330 N   0  0  0  0  0  0  0  0  0  0  0  0
  149.0751  133.8990  154.3783 C   0  0  0  0  0  0  0  0  0  0  0  0
  149.1463  132.9747  155.1885 O   0  0  0  0  0  0  0  0  0  0  0  0
  148.4020  133.8239  153.2211 N   0  0  0  0  0  0  0  0  0  0  0  0
  147.6359  132.6685  152.7508 C   0  0  0  0  0  0  0  0  0  0  0  0
  146.3475  133.0610  151.9640 C   0  0  0  0  0  0  0  0  0  0  0  0
  145.7742  134.4391  152.4428 C   0  0  0  0  0  0  0  0  0  0  0  0
  145.6013  135.3159  151.5924 O   0  0  0  0  0  0  0  0  0  0  0  0
  145.4608  134.6939  153.7426 N   0  0  0  0  0  0  0  0  0  0  0  0
  145.6041  133.6282  154.7404 C   0  0  0  0  0  0  0  0  0  0  0  0
  144.9899  135.9512  154.3308 C   0  0  0  0  0  0  0  0  0  0  0  0
  146.5087  132.9855  150.4235 C   0  0  0  0  0  0  0  0  0  0  0  0
  145.1141  132.7187  149.8421 C   0  0  0  0  0  0  0  0  0  0  0  0
  144.3182  132.0422  150.9605 C   0  0  0  0  0  0  0  0  0  0  0  0
  145.2921  131.9328  152.1383 C   0  0  0  0  0  0  0  0  0  0  0  0
  151.5277  136.2634  155.4810 N   0  0  0  0  0  0  0  0  0  0  0  0
  153.8116  136.5453  157.7138 H   0  0  0  0  0  0  0  0  0  0  0  0
  152.8421  138.0223  157.8379 H   0  0  0  0  0  0  0  0  0  0  0  0
  153.6241  137.6022  156.3076 H   0  0  0  0  0  0  0  0  0  0  0  0
  149.5067  135.7788  153.7956 H   0  0  0  0  0  0  0  0  0  0  0  0
  148.4032  134.6361  152.6216 H   0  0  0  0  0  0  0  0  0  0  0  0
  148.3149  132.0680  152.1528 H   0  0  0  0  0  0  0  0  0  0  0  0
  147.3782  132.0229  153.5921 H   0  0  0  0  0  0  0  0  0  0  0  0
  145.0534  132.7353  154.4397 H   0  0  0  0  0  0  0  0  0  0  0  0
  145.2242  133.9211  155.7203 H   0  0  0  0  0  0  0  0  0  0  0  0
  146.6538  133.3579  154.8629 H   0  0  0  0  0  0  0  0  0  0  0  0
  145.0558  136.8217  153.6887 H   0  0  0  0  0  0  0  0  0  0  0  0
  145.5690  136.1878  155.2241 H   0  0  0  0  0  0  0  0  0  0  0  0
  143.9467  135.8473  154.6309 H   0  0  0  0  0  0  0  0  0  0  0  0
  146.9470  133.8599  149.9509 H   0  0  0  0  0  0  0  0  0  0  0  0
  147.1611  132.1481  150.1718 H   0  0  0  0  0  0  0  0  0  0  0  0
  144.6346  133.6582  149.5642 H   0  0  0  0  0  0  0  0  0  0  0  0
  145.1680  132.1008  148.9454 H   0  0  0  0  0  0  0  0  0  0  0  0
  143.4594  132.6571  151.2321 H   0  0  0  0  0  0  0  0  0  0  0  0
  143.9402  131.0636  150.6630 H   0  0  0  0  0  0  0  0  0  0  0  0
  145.7839  130.9605  152.0801 H   0  0  0  0  0  0  0  0  0  0  0  0
  144.7754  131.9425  153.0990 H   0  0  0  0  0  0  0  0  0  0  0  0
  1  2  1  0  0  0  0
  1 22  1  0  0  0  0
  1 23  1  0  0  0  0
  1 24  1  0  0  0  0
  2 21  1  0  0  0  0
  2  3  2  0  0  0  0
  3  4  1  0  0  0  0
  4  5  1  0  0  0  0
  5  6  1  0  0  0  0
  5 21  2  0  0  0  0
  6  7  1  0  0  0  0
  6 25  1  0  0  0  0
  7  8  2  0  0  0  0
  7  9  1  0  0  0  0
  9 10  1  0  0  0  0
  9 26  1  0  0  0  0
 10 11  1  0  0  0  0
 10 27  1  0  0  0  0
 10 28  1  0  0  0  0
 11 20  1  0  0  0  0
 11 12  1  0  0  0  0
 11 17  1  0  0  0  0
 12 13  2  0  0  0  0
 12 14  1  0  0  0  0
 14 15  1  0  0  0  0
 14 16  1  0  0  0  0
 15 29  1  0  0  0  0
 15 30  1  0  0  0  0
 15 31  1  0  0  0  0
 16 32  1  0  0  0  0
 16 33  1  0  0  0  0
 16 34  1  0  0  0  0
 17 18  1  0  0  0  0
 17 35  1  0  0  0  0
 17 36  1  0  0  0  0
 18 19  1  0  0  0  0
 18 37  1  0  0  0  0
 18 38  1  0  0  0  0
 19 20  1  0  0  0  0
 19 39  1  0  0  0  0
 19 40  1  0  0  0  0
 20 41  1  0  0  0  0
 20 42  1  0  0  0  0
M  END
> <s_m_source_file>
AV-unprocessed.smi

> <i_m_source_file_index>
2823

> <i_lp_mmshare_version>
43012

> <i_f3d_flags>
0

> <s_epik_input>
W0NIM11jMW5vYyhuMSlbTkhdQyg9TylbTkhdW0NIMl1DMihDKD1PKU4oW0NIM10pW0NIM10pW0NIMl1bQ0gyXVtDSDJdW0NIMl0y

> <s_epik_cmdline>
J2VwaWtfcHl0aG9uJywgJy1waCcsICc3LjAnLCAnLXRuJywgJzgnLCAnLW1hJywgJzIwMCcsICctbWV0YWxfYmluZGluZycsICctaW1hZScsICc8aW5maWxlLm1hZT4nLCAnLW9tYWUnLCAnPG91dGZpbGUubWFlPic=

> <r_lp_tautomer_probability>
1

> <r_epik_Ionization_Penalty>
4.1201e-05

> <r_epik_Ionization_Penalty_Charging>
0

> <r_epik_Ionization_Penalty_Neutral>
4.1201e-05

> <r_epik_State_Penalty>
-0

> <r_epik_Charging_Adjusted_Penalty>
0

> <i_epik_Tot_Q>
0

> <i_epik_Tot_abs_Q>
0

> <r_epik_Metal_State_Penalty>
0.0212056

> <b_epik_Metal_Only>
0

> <s_lp_Force_Field>
OPLS_2005

> <r_lp_Energy>
33.0432

> <b_lp_Chiralities_Consistent>
1

> <s_lp_Variant>
AV-unprocessed.smi:2823-1

> <Gold.Version>
5.8.1

> <Gold.Id.Protein>
6NUR|6NUR_protein|mol2

> <Gold.PLP.Fitness>
35.7534

> <Gold.PLP.PLP>
-28.5038

> <Gold.PLP.part.hbond>
-4.0000

> <Gold.PLP.part.metal>
0.0000

> <Gold.PLP.part.buried>
-4.6814

> <Gold.PLP.part.nonpolar>
-19.8262

> <Gold.PLP.part.repulsive>
0.3173

> <Gold.PLP.ligand.clash>
0.0000

> <Gold.PLP.ligand.torsion>
1.2347

> <Gold.PLP.Chemscore.Hbond>
3.1750

> <Gold.PLP.Chemscore.CHOScore>
0.0000

> <Gold.PLP.Chemscore.Metal>
0.0000

> <Gold.Chemscore.Hbonds>
donor molecule, donor type, donor heavy atom, donor atom, acceptor molecule, acceptor atom, score
      L1  H     6    25       P1  7948  0.99
      L1  H     9    26       P1  7948  0.95
      P1  H  6896  6908       L1     3  0.19
      P1  H 10752 10763       L1    21  1.00

> <Gold.PLP.Chemscore.Internal.Correction>
0.1939

> <Gold.Rescore>
     Score         DG    S(hbond)    S(metal)    S(lipo)     H(rot)  DE(clash)    DE(int)     intcor
     11.86     -14.16       2.04        0.00      53.87       1.74       0.03       2.27       ----

> <Gold.Chemscore.Fitness>
11.8630

> <Gold.Chemscore.DG>
-14.1603

> <Gold.Chemscore.ZeroCoef>
-5.4800

> <Gold.Chemscore.Hbond>
2.0425

> <Gold.Chemscore.Metal>
0.0000

> <Gold.Chemscore.Lipo>
53.8703

> <Gold.Chemscore.Internal_Hbond>
0.0000

> <Gold.Chemscore.DEClash>
0.0308

> <Gold.Chemscore.DEInternal>
2.2665

> <Gold.Chemscore.Rot>
1.7360

> <Gold.Chemscore.Internal.Correction>
   9.000000E+99

> <Gold.Chemscore.Hbonds>
donor molecule, donor type, donor heavy atom, donor atom, acceptor molecule, acceptor atom, score
      L1  H     6    25       P1  7948  0.35
      L1  H     9    26       P1  7948  0.21
      P1  H  6896  6908       L1     3  0.06
      P1  H 10752 10763       L1    21  0.49

> <Gold.Chemscore.Hbond.Weighted>
-6.8218

> <Gold.Chemscore.Metal.Weighted>
-0.0000

> <Gold.Chemscore.Lipo.Weighted>
-6.3028

> <Gold.Chemscore.Internal_Hbond.Weighted>
0.0000

> <Gold.Chemscore.DEClash.Weighted>
0.0308

> <Gold.Chemscore.DEInternal.Weighted>
2.2665

> <Gold.Chemscore.Rot.Weighted>
4.4443

> <Gold.Chemscore.Internal.Correction.Weighted>
   9.000000E+99

> <Gold.Protein.RotatedTorsions>
[ 6907 6896 6895 6894 ] final -170.90 input  -60.11 | X-H torsion
[ 7974 7965 7964 7962 ] final  124.60 input  175.53 | X-H torsion
[ 8008 7997 7996 7995 ] final  179.33 input   59.86 | X-H torsion
[ 10167 10162 10161 10158 ] final   72.86 input  -65.29 | X-H torsion
[ 10718 10713 10712 10709 ] final   42.35 input   66.30 | X-H torsion
[ 10763 10752 10751 10750 ] final   63.58 input  -60.55 | X-H torsion
[ 11005 11000 10999 10996 ] final  -45.29 input  -57.11 | X-H torsion

> <Gold.Protein.ActiveResidues>
 VAL166  LYS551  ARG553  GLY616  TRP617  ASP618  TYR619  PRO620  LYS621  CYS622 
 ASP623  PHE694  ASN695  SER759  ASP760  ASP761  ALA762  ILE779  LEU786  VAL792 
 PHE793  MET794  SER795  GLU796  ALA797  LYS798  CYS799  TRP800  GLU811  SER814 

> <Gold.Protein.RotatedAtoms>
  151.5151  133.3477  159.2891 H   0  0  0  0  0  0  0  0  0  0  0  0  # atno 6907 bound_to 6896
  150.8688  134.8059  159.7150 H   0  0  0  0  0  0  0  0  0  0  0  0  # atno 6908 bound_to 6896
  152.4683  134.5032  159.9783 H   0  0  0  0  0  0  0  0  0  0  0  0  # atno 6909 bound_to 6896
  145.0826  139.3646  143.4901 H   0  0  0  0  0  0  0  0  0  0  0  0  # atno 7974 bound_to 7965
  156.0446  140.1311  157.0118 H   0  0  0  0  0  0  0  0  0  0  0  0  # atno 8008 bound_to 7997
  154.4406  140.1023  156.6357 H   0  0  0  0  0  0  0  0  0  0  0  0  # atno 8009 bound_to 7997
  155.5615  140.3465  155.4495 H   0  0  0  0  0  0  0  0  0  0  0  0  # atno 8010 bound_to 7997
  140.0308  144.5467  150.7509 H   0  0  0  0  0  0  0  0  0  0  0  0  # atno 10167 bound_to 10162
  157.4038  130.7875  149.7371 H   0  0  0  0  0  0  0  0  0  0  0  0  # atno 10718 bound_to 10713
  153.0023  135.5424  154.6374 H   0  0  0  0  0  0  0  0  0  0  0  0  # atno 10763 bound_to 10752
  154.5637  135.2836  155.0896 H   0  0  0  0  0  0  0  0  0  0  0  0  # atno 10764 bound_to 10752
  154.2089  135.6471  153.5162 H   0  0  0  0  0  0  0  0  0  0  0  0  # atno 10765 bound_to 10752
  141.0506  133.6744  156.2993 H   0  0  0  0  0  0  0  0  0  0  0  0  # atno 11005 bound_to 11000
  146.3531  140.0623  142.8628 LP  0  0  0  0  0  0  0  0  0  0  0  0  # atno 17320 bound_to 7965
  145.1160  140.9434  143.4628 LP  0  0  0  0  0  0  0  0  0  0  0  0  # atno 17321 bound_to 7965
  140.7303  143.2682  151.3976 LP  0  0  0  0  0  0  0  0  0  0  0  0  # atno 17342 bound_to 10162
  139.6077  144.1162  152.2267 LP  0  0  0  0  0  0  0  0  0  0  0  0  # atno 17343 bound_to 10162
  155.9831  130.4004  150.3383 LP  0  0  0  0  0  0  0  0  0  0  0  0  # atno 17370 bound_to 10713
  157.1513  131.0321  151.2883 LP  0  0  0  0  0  0  0  0  0  0  0  0  # atno 17371 bound_to 10713
  140.6062  134.5504  157.5526 LP  0  0  0  0  0  0  0  0  0  0  0  0  # atno 17394 bound_to 11000
  139.9347  134.7897  156.0834 LP  0  0  0  0  0  0  0  0  0  0  0  0  # atno 17395 bound_to 11000

$$$$
