AV-unprocessed.smi:86|AV-procd|sdf|814|dock1
  -GOLD-   2262017213D 1   1.00000     0.00000
 Structure written by MMmdl.
 51 55  0  0  0  0  0  0  0  0  1 V2000
  149.3462  135.1446  154.2315 O   0  0  0  0  0  0  0  0  0  0  0  0
  150.6245  135.4457  154.7544 C   0  0  0  0  0  0  0  0  0  0  0  0
  150.8616  134.8082  156.1385 C   0  0  0  0  0  0  0  0  0  0  0  0
  152.2309  135.2745  156.6667 C   0  0  0  0  0  0  0  0  0  0  0  0
  152.2814  136.6890  157.0046 N   0  0  0  0  0  0  0  0  0  0  0  0
  152.0046  137.7476  156.1703 C   0  0  0  0  0  0  0  0  0  0  0  0
  152.1288  138.9282  156.7111 N   0  0  0  0  0  0  0  0  0  0  0  0
  152.5250  138.6697  158.0191 C   0  0  0  0  0  0  0  0  0  0  0  0
  152.8401  139.4821  159.1484 C   0  0  0  0  0  0  0  0  0  0  0  0
  152.7944  140.8385  159.1486 N   0  0  0  0  0  0  0  0  0  0  0  0
  152.8918  141.6212  160.3791 C   0  0  0  0  0  0  0  0  0  0  0  0
  152.6491  143.0524  159.9070 C   0  0  2  0  0  0  0  0  0  0  0  0
  152.1863  144.1001  160.9251 C   0  0  0  0  0  0  0  0  0  0  0  0
  151.9213  145.4336  160.1900 C   0  0  0  0  0  0  0  0  0  0  0  0
  150.9680  145.2884  158.9756 C   0  0  2  0  0  0  0  0  0  0  0  0
  149.6457  145.0945  159.4368 O   0  0  0  0  0  0  0  0  0  0  0  0
  151.3672  144.1296  158.0291 C   0  0  0  0  0  0  0  0  0  0  0  0
  151.5894  142.8426  158.8357 C   0  0  1  0  0  0  0  0  0  0  0  0
  152.0988  141.5958  158.1101 C   0  0  0  0  0  0  0  0  0  0  0  0
  153.2274  138.8439  160.2844 N   0  0  0  0  0  0  0  0  0  0  0  0
  153.2874  137.5103  160.3277 C   0  0  0  0  0  0  0  0  0  0  0  0
  153.0131  136.6321  159.3624 N   0  0  0  0  0  0  0  0  0  0  0  0
  152.6362  137.2626  158.2136 C   0  0  0  0  0  0  0  0  0  0  0  0
  149.7087  134.9230  157.1461 C   0  0  0  0  0  0  0  0  0  0  0  0
  149.3497  133.5327  156.9860 O   0  0  0  0  0  0  0  0  0  0  0  0
  150.5703  133.3047  156.2473 C   0  0  0  0  0  0  0  0  0  0  0  0
  149.2049  135.6725  153.4605 H   0  0  0  0  0  0  0  0  0  0  0  0
  151.3578  135.0955  154.0280 H   0  0  0  0  0  0  0  0  0  0  0  0
  150.7221  136.5306  154.8057 H   0  0  0  0  0  0  0  0  0  0  0  0
  152.5169  134.6976  157.5470 H   0  0  0  0  0  0  0  0  0  0  0  0
  153.0102  135.0856  155.9272 H   0  0  0  0  0  0  0  0  0  0  0  0
  151.7083  137.6186  155.1396 H   0  0  0  0  0  0  0  0  0  0  0  0
  152.1215  141.3058  161.0845 H   0  0  0  0  0  0  0  0  0  0  0  0
  153.8677  141.5101  160.8529 H   0  0  0  0  0  0  0  0  0  0  0  0
  153.5673  143.4086  159.4346 H   0  0  0  0  0  0  0  0  0  0  0  0
  151.2802  143.7626  161.4297 H   0  0  0  0  0  0  0  0  0  0  0  0
  152.9439  144.2387  161.6970 H   0  0  0  0  0  0  0  0  0  0  0  0
  151.5344  146.1763  160.8888 H   0  0  0  0  0  0  0  0  0  0  0  0
  152.8747  145.8271  159.8352 H   0  0  0  0  0  0  0  0  0  0  0  0
  150.9676  146.2220  158.4122 H   0  0  0  0  0  0  0  0  0  0  0  0
  149.0530  145.5161  158.8334 H   0  0  0  0  0  0  0  0  0  0  0  0
  150.6057  143.9774  157.2633 H   0  0  0  0  0  0  0  0  0  0  0  0
  152.2864  144.3913  157.5035 H   0  0  0  0  0  0  0  0  0  0  0  0
  150.6508  142.5710  159.3233 H   0  0  0  0  0  0  0  0  0  0  0  0
  152.8059  141.8556  157.3215 H   0  0  0  0  0  0  0  0  0  0  0  0
  151.2716  141.0395  157.6685 H   0  0  0  0  0  0  0  0  0  0  0  0
  153.6005  137.0867  161.2706 H   0  0  0  0  0  0  0  0  0  0  0  0
  150.0311  135.1412  158.1654 H   0  0  0  0  0  0  0  0  0  0  0  0
  148.9099  135.6006  156.8436 H   0  0  0  0  0  0  0  0  0  0  0  0
  150.3966  132.8125  155.2899 H   0  0  0  0  0  0  0  0  0  0  0  0
  151.2977  132.7507  156.8411 H   0  0  0  0  0  0  0  0  0  0  0  0
  1  2  1  0  0  0  0
  1 27  1  0  0  0  0
  2  3  1  0  0  0  0
  2 28  1  0  0  0  0
  2 29  1  0  0  0  0
  3 26  1  0  0  0  0
  3  4  1  0  0  0  0
  3 24  1  0  0  0  0
  4  5  1  0  0  0  0
  4 30  1  0  0  0  0
  4 31  1  0  0  0  0
  5 23  1  0  0  0  0
  5  6  1  0  0  0  0
  6  7  2  0  0  0  0
  6 32  1  0  0  0  0
  7  8  1  0  0  0  0
  8 23  2  0  0  0  0
  8  9  1  0  0  0  0
  9 10  1  0  0  0  0
  9 20  2  0  0  0  0
 10 19  1  0  0  0  0
 10 11  1  0  0  0  0
 11 12  1  0  0  0  0
 11 33  1  0  0  0  0
 11 34  1  0  0  0  0
 12 18  1  0  0  0  0
 12 13  1  0  0  0  0
 12 35  1  0  0  0  0
 13 14  1  0  0  0  0
 13 36  1  0  0  0  0
 13 37  1  0  0  0  0
 14 15  1  0  0  0  0
 14 38  1  0  0  0  0
 14 39  1  0  0  0  0
 15 16  1  0  0  0  0
 15 17  1  0  0  0  0
 15 40  1  0  0  0  0
 16 41  1  0  0  0  0
 17 18  1  0  0  0  0
 17 42  1  0  0  0  0
 17 43  1  0  0  0  0
 18 19  1  0  0  0  0
 18 44  1  0  0  0  0
 19 45  1  0  0  0  0
 19 46  1  0  0  0  0
 20 21  1  0  0  0  0
 21 22  2  0  0  0  0
 21 47  1  0  0  0  0
 22 23  1  0  0  0  0
 24 25  1  0  0  0  0
 24 48  1  0  0  0  0
 24 49  1  0  0  0  0
 25 26  1  0  0  0  0
 26 50  1  0  0  0  0
 26 51  1  0  0  0  0
M  END
> <s_m_source_file>
AV-unprocessed.smi

> <i_m_source_file_index>
86

> <i_lp_mmshare_version>
43012

> <i_f3d_flags>
0

> <s_epik_input>
W0NIMl0xT1tDSDJdQzEoW0NIMl1bT0hdKVtDSDJdbihbY0hdbjIpYyhjMjMpbltjSF1uYzNOKFtDSDJdNClbQ0gyXVtDQEBIXShbQ0BIXTQ1KVtDSDJdW0NASF0oW09IXSlbQ0gyXVtDSDJdNQ==

> <s_epik_cmdline>
J2VwaWtfcHl0aG9uJywgJy1waCcsICc3LjAnLCAnLXRuJywgJzgnLCAnLW1hJywgJzIwMCcsICctbWV0YWxfYmluZGluZycsICctaW1hZScsICc8aW5maWxlLm1hZT4nLCAnLW9tYWUnLCAnPG91dGZpbGUubWFlPic=

> <r_lp_tautomer_probability>
1

> <r_epik_Ionization_Penalty>
0.00425795

> <r_epik_Ionization_Penalty_Charging>
0

> <r_epik_Ionization_Penalty_Neutral>
0.00425795

> <r_epik_State_Penalty>
0.00299946

> <r_epik_Charging_Adjusted_Penalty>
0.00299946

> <i_epik_Tot_Q>
0

> <i_epik_Tot_abs_Q>
0

> <r_epik_Metal_State_Penalty>
-0

> <b_epik_Metal_Only>
0

> <s_lp_Force_Field>
OPLS_2005

> <r_lp_Energy>
55.6071

> <b_lp_Chiralities_Consistent>
1

> <s_lp_Variant>
AV-unprocessed.smi:86-3

> <Gold.Version>
5.8.1

> <Gold.Id.Protein>
6NUR|6NUR_protein|mol2

> <Gold.PLP.Fitness>
52.8394

> <Gold.PLP.PLP>
-43.9667

> <Gold.PLP.part.hbond>
-3.0858

> <Gold.PLP.part.metal>
0.0000

> <Gold.PLP.part.buried>
-4.5277

> <Gold.PLP.part.nonpolar>
-36.5183

> <Gold.PLP.part.repulsive>
0.0000

> <Gold.PLP.ligand.clash>
0.0000

> <Gold.PLP.ligand.torsion>
0.3084

> <Gold.PLP.Chemscore.Hbond>
3.0000

> <Gold.PLP.Chemscore.CHOScore>
0.0000

> <Gold.PLP.Chemscore.Metal>
0.0000

> <Gold.Chemscore.Hbonds>
donor molecule, donor type, donor heavy atom, donor atom, acceptor molecule, acceptor atom, score
      L1  H     1    27       P1  7948  1.00
      L1  H    16    41       P1  8029  1.00
      P1  H  6896  6909       L1    22  0.99

> <Gold.PLP.Chemscore.Internal.Correction>
0.4895

> <Gold.Rescore>
     Score         DG    S(hbond)    S(metal)    S(lipo)     H(rot)  DE(clash)    DE(int)     intcor
     19.90     -21.24       2.83        0.00     114.47       2.76       0.06       1.28       ----

> <Gold.Chemscore.Fitness>
19.8964

> <Gold.Chemscore.DG>
-21.2389

> <Gold.Chemscore.ZeroCoef>
-5.4800

> <Gold.Chemscore.Hbond>
2.8262

> <Gold.Chemscore.Metal>
0.0000

> <Gold.Chemscore.Lipo>
114.4685

> <Gold.Chemscore.Internal_Hbond>
0.0000

> <Gold.Chemscore.DEClash>
0.0591

> <Gold.Chemscore.DEInternal>
1.2834

> <Gold.Chemscore.Rot>
2.7630

> <Gold.Chemscore.Internal.Correction>
   9.000000E+99

> <Gold.Chemscore.Hbonds>
donor molecule, donor type, donor heavy atom, donor atom, acceptor molecule, acceptor atom, score
      L1  H     1    27       P1  7948  0.55
      L1  H    16    41       P1  8029  0.97
      P1  H  6896  6909       L1    22  0.70

> <Gold.Chemscore.Hbond.Weighted>
-9.4394

> <Gold.Chemscore.Metal.Weighted>
-0.0000

> <Gold.Chemscore.Lipo.Weighted>
-13.3928

> <Gold.Chemscore.Internal_Hbond.Weighted>
0.0000

> <Gold.Chemscore.DEClash.Weighted>
0.0591

> <Gold.Chemscore.DEInternal.Weighted>
1.2834

> <Gold.Chemscore.Rot.Weighted>
7.0734

> <Gold.Chemscore.Internal.Correction.Weighted>
   9.000000E+99

> <Gold.Protein.RotatedTorsions>
[ 6907 6896 6895 6894 ] final  137.02 input  -60.11 | X-H torsion
[ 7974 7965 7964 7962 ] final  -32.81 input  175.53 | X-H torsion
[ 8008 7997 7996 7995 ] final  -21.69 input   59.86 | X-H torsion
[ 10167 10162 10161 10158 ] final   75.07 input  -65.29 | X-H torsion
[ 10718 10713 10712 10709 ] final   13.93 input   66.30 | X-H torsion
[ 10763 10752 10751 10750 ] final  -22.49 input  -60.55 | X-H torsion
[ 11005 11000 10999 10996 ] final   74.47 input  -57.11 | X-H torsion

> <Gold.Protein.ActiveResidues>
 VAL166  LYS551  ARG553  GLY616  TRP617  ASP618  TYR619  PRO620  LYS621  CYS622 
 ASP623  PHE694  ASN695  SER759  ASP760  ASP761  ALA762  ILE779  LEU786  VAL792 
 PHE793  MET794  SER795  GLU796  ALA797  LYS798  CYS799  TRP800  GLU811  SER814 

> <Gold.Protein.RotatedAtoms>
  152.2828  133.5486  159.5507 H   0  0  0  0  0  0  0  0  0  0  0  0  # atno 6907 bound_to 6896
  150.7203  134.0540  159.3817 H   0  0  0  0  0  0  0  0  0  0  0  0  # atno 6908 bound_to 6896
  151.8450  135.0577  160.0503 H   0  0  0  0  0  0  0  0  0  0  0  0  # atno 6909 bound_to 6896
  146.0961  140.5838  142.8842 H   0  0  0  0  0  0  0  0  0  0  0  0  # atno 7974 bound_to 7965
  154.4690  140.2028  156.0043 H   0  0  0  0  0  0  0  0  0  0  0  0  # atno 8008 bound_to 7997
  156.0978  140.3248  155.7871 H   0  0  0  0  0  0  0  0  0  0  0  0  # atno 8009 bound_to 7997
  155.4849  140.0541  157.2952 H   0  0  0  0  0  0  0  0  0  0  0  0  # atno 8010 bound_to 7997
  140.0069  144.5644  150.7691 H   0  0  0  0  0  0  0  0  0  0  0  0  # atno 10167 bound_to 10162
  157.0318  130.6196  149.5736 H   0  0  0  0  0  0  0  0  0  0  0  0  # atno 10718 bound_to 10713
  153.6527  135.6980  153.5203 H   0  0  0  0  0  0  0  0  0  0  0  0  # atno 10763 bound_to 10752
  153.2694  135.4220  155.0972 H   0  0  0  0  0  0  0  0  0  0  0  0  # atno 10764 bound_to 10752
  154.8472  135.3574  154.6072 H   0  0  0  0  0  0  0  0  0  0  0  0  # atno 10765 bound_to 10752
  139.9389  134.7435  156.1152 H   0  0  0  0  0  0  0  0  0  0  0  0  # atno 11005 bound_to 11000
  144.7396  140.4905  143.6879 LP  0  0  0  0  0  0  0  0  0  0  0  0  # atno 17320 bound_to 7965
  145.5946  139.1498  143.3163 LP  0  0  0  0  0  0  0  0  0  0  0  0  # atno 17321 bound_to 7965
  140.7397  143.2794  151.3643 LP  0  0  0  0  0  0  0  0  0  0  0  0  # atno 17342 bound_to 10162
  139.6232  144.0865  152.2410 LP  0  0  0  0  0  0  0  0  0  0  0  0  # atno 17343 bound_to 10162
  156.0067  130.5154  150.7853 LP  0  0  0  0  0  0  0  0  0  0  0  0  # atno 17370 bound_to 10713
  157.5171  131.0929  151.0125 LP  0  0  0  0  0  0  0  0  0  0  0  0  # atno 17371 bound_to 10713
  141.1016  133.6675  156.2767 LP  0  0  0  0  0  0  0  0  0  0  0  0  # atno 17394 bound_to 11000
  140.6002  134.5563  157.5516 LP  0  0  0  0  0  0  0  0  0  0  0  0  # atno 17395 bound_to 11000

$$$$
