AV-unprocessed.smi:2397|AV-procd|sdf|9493|dock6
  -GOLD-   2272013123D 1   1.00000     0.00000
 Structure written by MMmdl.
 36 37  0  0  0  0  0  0  0  0  1 V2000
  152.4745  145.0334  158.4160 C   0  0  0  0  0  0  0  0  0  0  0  0
  151.6955  144.1221  159.3775 C   0  0  0  0  0  0  0  0  0  0  0  0
  152.1570  144.2540  160.8369 C   0  0  0  0  0  0  0  0  0  0  0  0
  151.6910  142.6725  158.9105 C   0  0  0  0  0  0  0  0  0  0  0  0
  152.2928  141.7809  159.7034 N   0  0  0  0  0  0  0  0  0  0  0  0
  152.2869  140.4962  159.2906 C   0  0  0  0  0  0  0  0  0  0  0  0
  151.6788  140.1059  158.0812 C   0  0  0  0  0  0  0  0  0  0  0  0
  151.0775  141.1319  157.3124 C   0  0  0  0  0  0  0  0  0  0  0  0
  150.4248  140.8926  156.0861 N   0  0  0  0  0  0  0  0  0  0  0  0
  149.0543  141.4001  156.0994 C   0  0  0  0  0  0  0  0  0  0  0  0
  148.4375  141.3376  154.6949 C   0  0  0  0  0  0  0  0  0  0  0  0
  148.5190  140.0051  154.2083 O   0  0  0  0  0  0  0  0  0  0  0  0
  149.8703  139.5814  154.0743 C   0  0  0  0  0  0  0  0  0  0  0  0
  150.5773  139.5751  155.4503 C   0  0  1  0  0  0  0  0  0  0  0  0
  152.0339  139.1231  155.2368 C   0  0  0  0  0  0  0  0  0  0  0  0
  152.3377  137.8718  155.5901 N   0  0  0  0  0  0  0  0  0  0  0  0
  152.8679  139.8847  154.7497 O   0  0  0  0  0  0  0  0  0  0  0  0
  151.0856  142.4127  157.7469 N   0  0  0  0  0  0  0  0  0  0  0  0
  152.0724  144.9696  157.4046 H   0  0  0  0  0  0  0  0  0  0  0  0
  153.5290  144.7592  158.3736 H   0  0  0  0  0  0  0  0  0  0  0  0
  152.4162  146.0757  158.7298 H   0  0  0  0  0  0  0  0  0  0  0  0
  150.6613  144.4705  159.3541 H   0  0  0  0  0  0  0  0  0  0  0  0
  151.5377  143.6485  161.4991 H   0  0  0  0  0  0  0  0  0  0  0  0
  152.0915  145.2878  161.1769 H   0  0  0  0  0  0  0  0  0  0  0  0
  153.1909  143.9301  160.9589 H   0  0  0  0  0  0  0  0  0  0  0  0
  152.7682  139.7725  159.9314 H   0  0  0  0  0  0  0  0  0  0  0  0
  151.6797  139.0708  157.7753 H   0  0  0  0  0  0  0  0  0  0  0  0
  148.4580  140.8061  156.7936 H   0  0  0  0  0  0  0  0  0  0  0  0
  149.0232  142.4308  156.4558 H   0  0  0  0  0  0  0  0  0  0  0  0
  147.3906  141.6396  154.7301 H   0  0  0  0  0  0  0  0  0  0  0  0
  148.9446  142.0226  154.0132 H   0  0  0  0  0  0  0  0  0  0  0  0
  149.8709  138.5803  153.6410 H   0  0  0  0  0  0  0  0  0  0  0  0
  150.3878  140.2307  153.3650 H   0  0  0  0  0  0  0  0  0  0  0  0
  150.0709  138.8402  156.0783 H   0  0  0  0  0  0  0  0  0  0  0  0
  153.2791  137.5273  155.4702 H   0  0  0  0  0  0  0  0  0  0  0  0
  151.6218  137.2740  155.9769 H   0  0  0  0  0  0  0  0  0  0  0  0
  1  2  1  0  0  0  0
  1 19  1  0  0  0  0
  1 20  1  0  0  0  0
  1 21  1  0  0  0  0
  2  3  1  0  0  0  0
  2  4  1  0  0  0  0
  2 22  1  0  0  0  0
  3 23  1  0  0  0  0
  3 24  1  0  0  0  0
  3 25  1  0  0  0  0
  4 18  1  0  0  0  0
  4  5  2  0  0  0  0
  5  6  1  0  0  0  0
  6  7  2  0  0  0  0
  6 26  1  0  0  0  0
  7  8  1  0  0  0  0
  7 27  1  0  0  0  0
  8  9  1  0  0  0  0
  8 18  2  0  0  0  0
  9 14  1  0  0  0  0
  9 10  1  0  0  0  0
 10 11  1  0  0  0  0
 10 28  1  0  0  0  0
 10 29  1  0  0  0  0
 11 12  1  0  0  0  0
 11 30  1  0  0  0  0
 11 31  1  0  0  0  0
 12 13  1  0  0  0  0
 13 14  1  0  0  0  0
 13 32  1  0  0  0  0
 13 33  1  0  0  0  0
 14 15  1  0  0  0  0
 14 34  1  0  0  0  0
 15 16  1  0  0  0  0
 15 17  2  0  0  0  0
 16 35  1  0  0  0  0
 16 36  1  0  0  0  0
M  END
> <s_m_source_file>
AV-unprocessed.smi

> <i_m_source_file_index>
2397

> <i_lp_mmshare_version>
43012

> <i_f3d_flags>
0

> <s_epik_input>
W0NIM11bQ0hdKFtDSDNdKWMxbltjSF1bY0hdYyhuMSlOMltDSDJdW0NIMl1PW0NIMl1bQ0BIXTJDKD1PKVtOSDJd

> <s_epik_cmdline>
J2VwaWtfcHl0aG9uJywgJy1waCcsICc3LjAnLCAnLXRuJywgJzgnLCAnLW1hJywgJzIwMCcsICctbWV0YWxfYmluZGluZycsICctaW1hZScsICc8aW5maWxlLm1hZT4nLCAnLW9tYWUnLCAnPG91dGZpbGUubWFlPic=

> <r_lp_tautomer_probability>
1

> <r_epik_Ionization_Penalty>
0.0323151

> <r_epik_Ionization_Penalty_Charging>
0

> <r_epik_Ionization_Penalty_Neutral>
0.0323151

> <r_epik_State_Penalty>
0.0267324

> <r_epik_Charging_Adjusted_Penalty>
0.0267324

> <i_epik_Tot_Q>
0

> <i_epik_Tot_abs_Q>
0

> <r_epik_Metal_State_Penalty>
0.0253461

> <b_epik_Metal_Only>
0

> <s_lp_Force_Field>
OPLS_2005

> <r_lp_Energy>
6.33426

> <b_lp_Chiralities_Consistent>
1

> <s_lp_Variant>
AV-unprocessed.smi:2397-1

> <Gold.Version>
5.8.1

> <Gold.Id.Protein>
6NUR|6NUR_protein|mol2

> <Gold.PLP.Fitness>
38.0353

> <Gold.PLP.PLP>
-34.6151

> <Gold.PLP.part.hbond>
-1.9821

> <Gold.PLP.part.metal>
0.0000

> <Gold.PLP.part.buried>
-4.8553

> <Gold.PLP.part.nonpolar>
-28.1701

> <Gold.PLP.part.repulsive>
0.4236

> <Gold.PLP.ligand.clash>
0.0000

> <Gold.PLP.ligand.torsion>
0.6267

> <Gold.PLP.Chemscore.Hbond>
1.4480

> <Gold.PLP.Chemscore.CHOScore>
0.0000

> <Gold.PLP.Chemscore.Metal>
0.0000

> <Gold.Chemscore.Hbonds>
donor molecule, donor type, donor heavy atom, donor atom, acceptor molecule, acceptor atom, score
      P1  H  7989  7998       L1    17  0.36
      P1  H  7997  8009       L1    17  1.00

> <Gold.PLP.Chemscore.Internal.Correction>
0.3297

> <Gold.Rescore>
     Score         DG    S(hbond)    S(metal)    S(lipo)     H(rot)  DE(clash)    DE(int)     intcor
     12.85     -13.70       1.13        0.00      76.17       1.74       0.04       0.81       ----

> <Gold.Chemscore.Fitness>
12.8544

> <Gold.Chemscore.DG>
-13.6989

> <Gold.Chemscore.ZeroCoef>
-5.4800

> <Gold.Chemscore.Hbond>
1.1280

> <Gold.Chemscore.Metal>
0.0000

> <Gold.Chemscore.Lipo>
76.1740

> <Gold.Chemscore.Internal_Hbond>
0.0000

> <Gold.Chemscore.DEClash>
0.0354

> <Gold.Chemscore.DEInternal>
0.8091

> <Gold.Chemscore.Rot>
1.7426

> <Gold.Chemscore.Internal.Correction>
   9.000000E+99

> <Gold.Chemscore.Hbonds>
donor molecule, donor type, donor heavy atom, donor atom, acceptor molecule, acceptor atom, score
      P1  H  7989  7998       L1    17  0.08
      P1  H  7997  8009       L1    17  0.86

> <Gold.Chemscore.Hbond.Weighted>
-3.7675

> <Gold.Chemscore.Metal.Weighted>
-0.0000

> <Gold.Chemscore.Lipo.Weighted>
-8.9124

> <Gold.Chemscore.Internal_Hbond.Weighted>
0.0000

> <Gold.Chemscore.DEClash.Weighted>
0.0354

> <Gold.Chemscore.DEInternal.Weighted>
0.8091

> <Gold.Chemscore.Rot.Weighted>
4.4610

> <Gold.Chemscore.Internal.Correction.Weighted>
   9.000000E+99

> <Gold.Protein.RotatedTorsions>
[ 6907 6896 6895 6894 ] final  -45.48 input  -60.11 | X-H torsion
[ 7974 7965 7964 7962 ] final -155.13 input  175.53 | X-H torsion
[ 8008 7997 7996 7995 ] final -136.90 input   59.86 | X-H torsion
[ 10167 10162 10161 10158 ] final -160.30 input  -65.29 | X-H torsion
[ 10718 10713 10712 10709 ] final   52.91 input   66.30 | X-H torsion
[ 10763 10752 10751 10750 ] final  -75.58 input  -60.55 | X-H torsion
[ 11005 11000 10999 10996 ] final  -35.74 input  -57.11 | X-H torsion

> <Gold.Protein.ActiveResidues>
 VAL166  LYS551  ARG553  GLY616  TRP617  ASP618  TYR619  PRO620  LYS621  CYS622 
 ASP623  PHE694  ASN695  SER759  ASP760  ASP761  ALA762  ILE779  LEU786  VAL792 
 PHE793  MET794  SER795  GLU796  ALA797  LYS798  CYS799  TRP800  GLU811  SER814 

> <Gold.Protein.RotatedAtoms>
  150.9215  134.8632  159.7491 H   0  0  0  0  0  0  0  0  0  0  0  0  # atno 6907 bound_to 6896
  152.4994  134.4212  159.9491 H   0  0  0  0  0  0  0  0  0  0  0  0  # atno 6908 bound_to 6896
  151.4245  133.3648  159.2795 H   0  0  0  0  0  0  0  0  0  0  0  0  # atno 6909 bound_to 6896
  144.7655  140.4292  143.5945 H   0  0  0  0  0  0  0  0  0  0  0  0  # atno 7974 bound_to 7965
  155.4028  140.0507  157.3036 H   0  0  0  0  0  0  0  0  0  0  0  0  # atno 8008 bound_to 7997
  154.4982  140.2147  155.9362 H   0  0  0  0  0  0  0  0  0  0  0  0  # atno 8009 bound_to 7997
  156.1433  140.3150  155.8536 H   0  0  0  0  0  0  0  0  0  0  0  0  # atno 8010 bound_to 7997
  139.6549  144.0016  152.2187 H   0  0  0  0  0  0  0  0  0  0  0  0  # atno 10167 bound_to 10162
  157.5118  130.8506  149.8445 H   0  0  0  0  0  0  0  0  0  0  0  0  # atno 10718 bound_to 10713
  154.4885  135.5826  153.6441 H   0  0  0  0  0  0  0  0  0  0  0  0  # atno 10763 bound_to 10752
  152.9858  135.6107  154.3155 H   0  0  0  0  0  0  0  0  0  0  0  0  # atno 10764 bound_to 10752
  154.3053  135.2846  155.2571 H   0  0  0  0  0  0  0  0  0  0  0  0  # atno 10765 bound_to 10752
  140.9820  133.7051  156.1700 H   0  0  0  0  0  0  0  0  0  0  0  0  # atno 11005 bound_to 11000
  145.6484  139.1561  143.2876 LP  0  0  0  0  0  0  0  0  0  0  0  0  # atno 17320 bound_to 7965
  146.1758  140.6575  142.9212 LP  0  0  0  0  0  0  0  0  0  0  0  0  # atno 17321 bound_to 7965
  139.9740  144.6474  150.7962 LP  0  0  0  0  0  0  0  0  0  0  0  0  # atno 17342 bound_to 10162
  140.7555  143.3047  151.2992 LP  0  0  0  0  0  0  0  0  0  0  0  0  # atno 17343 bound_to 10162
  156.0294  130.3769  150.1730 LP  0  0  0  0  0  0  0  0  0  0  0  0  # atno 17370 bound_to 10713
  156.9919  130.9896  151.3412 LP  0  0  0  0  0  0  0  0  0  0  0  0  # atno 17371 bound_to 10713
  140.7172  134.4398  157.5577 LP  0  0  0  0  0  0  0  0  0  0  0  0  # atno 17394 bound_to 11000
  139.8954  134.8683  156.2133 LP  0  0  0  0  0  0  0  0  0  0  0  0  # atno 17395 bound_to 11000

$$$$
