AV-unprocessed.smi:2805|AV-procd|sdf|10814|dock4
  -GOLD-   2272015253D 1   1.00000     0.00000
 Structure written by MMmdl.
 43 44  0  0  0  0  0  0  0  0  1 V2000
  144.9004  132.1234  149.7962 C   0  0  0  0  0  0  0  0  0  0  0  0
  145.8027  131.9241  150.9956 C   0  0  0  0  0  0  0  0  0  0  0  0
  145.9666  130.6490  151.5696 C   0  0  0  0  0  0  0  0  0  0  0  0
  146.8218  130.5259  152.6822 C   0  0  0  0  0  0  0  0  0  0  0  0
  147.0454  129.1847  153.3489 C   0  0  0  0  0  0  0  0  0  0  0  0
  147.4883  131.5706  153.2183 N   0  0  0  0  0  0  0  0  0  0  0  0
  147.3384  132.8032  152.6732 C   0  0  0  0  0  0  0  0  0  0  0  0
  147.9922  133.9654  153.1608 N   0  0  0  0  0  0  0  0  0  0  0  0
  148.7521  134.0913  154.2626 C   0  0  0  0  0  0  0  0  0  0  0  0
  149.0060  133.1895  155.0619 O   0  0  0  0  0  0  0  0  0  0  0  0
  149.2152  135.3433  154.3882 N   0  0  0  0  0  0  0  0  0  0  0  0
  150.0888  135.8232  155.4577 C   0  0  1  0  0  0  0  0  0  0  0  0
  151.2867  136.6168  154.8949 C   0  0  0  0  0  0  0  0  0  0  0  0
  150.8573  137.9628  154.2854 C   0  0  0  0  0  0  0  0  0  0  0  0
  150.0711  138.8247  155.2962 C   0  0  1  0  0  0  0  0  0  0  0  0
  149.6189  140.1636  154.6849 C   0  0  0  0  0  0  0  0  0  0  0  0
  148.7343  139.9497  153.6054 O   0  0  0  0  0  0  0  0  0  0  0  0
  148.8641  138.0345  155.8401 C   0  0  0  0  0  0  0  0  0  0  0  0
  149.2871  136.6858  156.4502 C   0  0  0  0  0  0  0  0  0  0  0  0
  146.4998  133.0135  151.5557 C   0  0  0  0  0  0  0  0  0  0  0  0
  150.4683  134.9545  155.9989 H   0  0  0  0  0  0  0  0  0  0  0  0
  150.7274  139.0446  156.1399 H   0  0  0  0  0  0  0  0  0  0  0  0
  144.1669  131.3202  149.7199 H   0  0  0  0  0  0  0  0  0  0  0  0
  145.4912  132.1378  148.8803 H   0  0  0  0  0  0  0  0  0  0  0  0
  144.3613  133.0679  149.8733 H   0  0  0  0  0  0  0  0  0  0  0  0
  145.4514  129.7887  151.1674 H   0  0  0  0  0  0  0  0  0  0  0  0
  146.3717  128.4268  152.9481 H   0  0  0  0  0  0  0  0  0  0  0  0
  146.8715  129.2591  154.4228 H   0  0  0  0  0  0  0  0  0  0  0  0
  148.0705  128.8498  153.1886 H   0  0  0  0  0  0  0  0  0  0  0  0
  147.8725  134.7967  152.6015 H   0  0  0  0  0  0  0  0  0  0  0  0
  148.9518  136.0178  153.6850 H   0  0  0  0  0  0  0  0  0  0  0  0
  151.9990  136.8038  155.6994 H   0  0  0  0  0  0  0  0  0  0  0  0
  151.8236  136.0256  154.1522 H   0  0  0  0  0  0  0  0  0  0  0  0
  151.7442  138.4978  153.9448 H   0  0  0  0  0  0  0  0  0  0  0  0
  150.2488  137.7859  153.3975 H   0  0  0  0  0  0  0  0  0  0  0  0
  149.1307  140.7883  155.4336 H   0  0  0  0  0  0  0  0  0  0  0  0
  150.4785  140.7214  154.3120 H   0  0  0  0  0  0  0  0  0  0  0  0
  149.2423  139.8513  152.8147 H   0  0  0  0  0  0  0  0  0  0  0  0
  148.3454  138.6243  156.5964 H   0  0  0  0  0  0  0  0  0  0  0  0
  148.1435  137.8648  155.0391 H   0  0  0  0  0  0  0  0  0  0  0  0
  148.4087  136.1415  156.7989 H   0  0  0  0  0  0  0  0  0  0  0  0
  149.8974  136.8722  157.3347 H   0  0  0  0  0  0  0  0  0  0  0  0
  146.3904  134.0007  151.1301 H   0  0  0  0  0  0  0  0  0  0  0  0
  1  2  1  0  0  0  0
  1 23  1  0  0  0  0
  1 24  1  0  0  0  0
  1 25  1  0  0  0  0
  2 20  1  0  0  0  0
  2  3  2  0  0  0  0
  3  4  1  0  0  0  0
  3 26  1  0  0  0  0
  4  5  1  0  0  0  0
  4  6  2  0  0  0  0
  5 27  1  0  0  0  0
  5 28  1  0  0  0  0
  5 29  1  0  0  0  0
  6  7  1  0  0  0  0
  7  8  1  0  0  0  0
  7 20  2  0  0  0  0
  8  9  1  0  0  0  0
  8 30  1  0  0  0  0
  9 10  2  0  0  0  0
  9 11  1  0  0  0  0
 11 12  1  0  0  0  0
 11 31  1  0  0  0  0
 12 21  1  0  0  0  0
 12 19  1  0  0  0  0
 12 13  1  0  0  0  0
 13 14  1  0  0  0  0
 13 32  1  0  0  0  0
 13 33  1  0  0  0  0
 14 15  1  0  0  0  0
 14 34  1  0  0  0  0
 14 35  1  0  0  0  0
 15 22  1  0  0  0  0
 15 16  1  0  0  0  0
 15 18  1  0  0  0  0
 16 17  1  0  0  0  0
 16 36  1  0  0  0  0
 16 37  1  0  0  0  0
 17 38  1  0  0  0  0
 18 19  1  0  0  0  0
 18 39  1  0  0  0  0
 18 40  1  0  0  0  0
 19 41  1  0  0  0  0
 19 42  1  0  0  0  0
 20 43  1  0  0  0  0
M  END
> <s_m_source_file>
AV-unprocessed.smi

> <i_m_source_file_index>
2805

> <i_lp_mmshare_version>
43012

> <i_f3d_flags>
0

> <s_epik_input>
W0NIM11jMVtjSF1jKFtDSDNdKW5jKFtjSF0xKVtOSF1DKD1PKVtOSF1bQ0BIXTJbQ0gyXVtDSDJdW0NASF0oW0NIMl1bT0hdKVtDSDJdW0NIMl0y

> <s_epik_cmdline>
J2VwaWtfcHl0aG9uJywgJy1waCcsICc3LjAnLCAnLXRuJywgJzgnLCAnLW1hJywgJzIwMCcsICctbWV0YWxfYmluZGluZycsICctaW1hZScsICc8aW5maWxlLm1hZT4nLCAnLW9tYWUnLCAnPG91dGZpbGUubWFlPic=

> <r_lp_tautomer_probability>
1

> <r_epik_Ionization_Penalty>
0.000279533

> <r_epik_Ionization_Penalty_Charging>
0

> <r_epik_Ionization_Penalty_Neutral>
0.000279533

> <r_epik_State_Penalty>
-0

> <r_epik_Charging_Adjusted_Penalty>
0

> <i_epik_Tot_Q>
0

> <i_epik_Tot_abs_Q>
0

> <r_epik_Metal_State_Penalty>
-0

> <b_epik_Metal_Only>
0

> <s_lp_Force_Field>
OPLS_2005

> <r_lp_Energy>
9.89075

> <b_lp_Chiralities_Consistent>
1

> <s_lp_Variant>
AV-unprocessed.smi:2805-2

> <Gold.Version>
5.8.1

> <Gold.Id.Protein>
6NUR|6NUR_protein|mol2

> <Gold.PLP.Fitness>
39.8262

> <Gold.PLP.PLP>
-32.1877

> <Gold.PLP.part.hbond>
-2.8652

> <Gold.PLP.part.metal>
0.0000

> <Gold.PLP.part.buried>
-2.8118

> <Gold.PLP.part.nonpolar>
-26.4202

> <Gold.PLP.part.repulsive>
0.1340

> <Gold.PLP.ligand.clash>
0.0000

> <Gold.PLP.ligand.torsion>
0.1572

> <Gold.PLP.Chemscore.Hbond>
2.6480

> <Gold.PLP.Chemscore.CHOScore>
0.0000

> <Gold.PLP.Chemscore.Metal>
0.0000

> <Gold.Chemscore.Hbonds>
donor molecule, donor type, donor heavy atom, donor atom, acceptor molecule, acceptor atom, score
      L1  H     8    30       P1  7948  0.77
      L1  H    11    31       P1  7948  0.78
      L1  H    17    38       P1  7957  1.00

> <Gold.PLP.Chemscore.Internal.Correction>
0.0088

> <Gold.Rescore>
     Score         DG    S(hbond)    S(metal)    S(lipo)     H(rot)  DE(clash)    DE(int)     intcor
     17.30     -18.82       2.54        0.00      79.80       1.75       0.06       1.47       ----

> <Gold.Chemscore.Fitness>
17.2969

> <Gold.Chemscore.DG>
-18.8225

> <Gold.Chemscore.ZeroCoef>
-5.4800

> <Gold.Chemscore.Hbond>
2.5443

> <Gold.Chemscore.Metal>
0.0000

> <Gold.Chemscore.Lipo>
79.8037

> <Gold.Chemscore.Internal_Hbond>
0.0000

> <Gold.Chemscore.DEClash>
0.0567

> <Gold.Chemscore.DEInternal>
1.4689

> <Gold.Chemscore.Rot>
1.7548

> <Gold.Chemscore.Internal.Correction>
   9.000000E+99

> <Gold.Chemscore.Hbonds>
donor molecule, donor type, donor heavy atom, donor atom, acceptor molecule, acceptor atom, score
      L1  H     8    30       P1  7948  0.65
      L1  H    11    31       P1  7948  0.76
      L1  H    17    38       P1  7957  0.98

> <Gold.Chemscore.Hbond.Weighted>
-8.4978

> <Gold.Chemscore.Metal.Weighted>
-0.0000

> <Gold.Chemscore.Lipo.Weighted>
-9.3370

> <Gold.Chemscore.Internal_Hbond.Weighted>
0.0000

> <Gold.Chemscore.DEClash.Weighted>
0.0567

> <Gold.Chemscore.DEInternal.Weighted>
1.4689

> <Gold.Chemscore.Rot.Weighted>
4.4924

> <Gold.Chemscore.Internal.Correction.Weighted>
   9.000000E+99

> <Gold.Protein.RotatedTorsions>
[ 6907 6896 6895 6894 ] final -168.31 input  -60.11 | X-H torsion
[ 7974 7965 7964 7962 ] final -113.79 input  175.53 | X-H torsion
[ 8008 7997 7996 7995 ] final  153.70 input   59.86 | X-H torsion
[ 10167 10162 10161 10158 ] final  -16.93 input  -65.29 | X-H torsion
[ 10718 10713 10712 10709 ] final   79.46 input   66.30 | X-H torsion
[ 10763 10752 10751 10750 ] final  -34.95 input  -60.55 | X-H torsion
[ 11005 11000 10999 10996 ] final  150.50 input  -57.11 | X-H torsion

> <Gold.Protein.ActiveResidues>
 VAL166  LYS551  ARG553  GLY616  TRP617  ASP618  TYR619  PRO620  LYS621  CYS622 
 ASP623  PHE694  ASN695  SER759  ASP760  ASP761  ALA762  ILE779  LEU786  VAL792 
 PHE793  MET794  SER795  GLU796  ALA797  LYS798  CYS799  TRP800  GLU811  SER814 

> <Gold.Protein.RotatedAtoms>
  151.4735  133.3563  159.2826 H   0  0  0  0  0  0  0  0  0  0  0  0  # atno 6907 bound_to 6896
  150.8945  134.8354  159.7328 H   0  0  0  0  0  0  0  0  0  0  0  0  # atno 6908 bound_to 6896
  152.4843  134.4648  159.9668 H   0  0  0  0  0  0  0  0  0  0  0  0  # atno 6909 bound_to 6896
  145.1278  140.8707  143.3775 H   0  0  0  0  0  0  0  0  0  0  0  0  # atno 7974 bound_to 7965
  156.2568  140.1986  156.6531 H   0  0  0  0  0  0  0  0  0  0  0  0  # atno 8008 bound_to 7997
  154.6521  140.0570  156.9993 H   0  0  0  0  0  0  0  0  0  0  0  0  # atno 8009 bound_to 7997
  155.1402  140.3242  155.4456 H   0  0  0  0  0  0  0  0  0  0  0  0  # atno 8010 bound_to 7997
  140.7240  143.5066  150.9802 H   0  0  0  0  0  0  0  0  0  0  0  0  # atno 10167 bound_to 10162
  157.6777  130.9915  150.1936 H   0  0  0  0  0  0  0  0  0  0  0  0  # atno 10718 bound_to 10713
  153.8551  135.6845  153.4788 H   0  0  0  0  0  0  0  0  0  0  0  0  # atno 10763 bound_to 10752
  153.1374  135.4672  154.9442 H   0  0  0  0  0  0  0  0  0  0  0  0  # atno 10764 bound_to 10752
  154.7784  135.3261  154.7990 H   0  0  0  0  0  0  0  0  0  0  0  0  # atno 10765 bound_to 10752
  140.1137  134.8908  157.1973 H   0  0  0  0  0  0  0  0  0  0  0  0  # atno 11005 bound_to 11000
  145.0668  139.3062  143.5852 LP  0  0  0  0  0  0  0  0  0  0  0  0  # atno 17320 bound_to 7965
  146.3516  140.0129  142.8665 LP  0  0  0  0  0  0  0  0  0  0  0  0  # atno 17321 bound_to 7965
  139.8778  143.7111  152.3160 LP  0  0  0  0  0  0  0  0  0  0  0  0  # atno 17342 bound_to 10162
  139.7382  144.7566  151.0694 LP  0  0  0  0  0  0  0  0  0  0  0  0  # atno 17343 bound_to 10162
  156.2642  130.3714  149.8099 LP  0  0  0  0  0  0  0  0  0  0  0  0  # atno 17370 bound_to 10713
  156.5835  130.8476  151.3389 LP  0  0  0  0  0  0  0  0  0  0  0  0  # atno 17371 bound_to 10713
  140.3057  134.3081  155.7279 LP  0  0  0  0  0  0  0  0  0  0  0  0  # atno 17394 bound_to 11000
  141.2136  133.7619  156.9705 LP  0  0  0  0  0  0  0  0  0  0  0  0  # atno 17395 bound_to 11000

$$$$
