AV-unprocessed.smi:2750|AV-procd|sdf|10593|dock2
  -GOLD-   2272015 43D 1   1.00000     0.00000
 Structure written by MMmdl.
 24 25  0  0  0  0  0  0  0  0  3 V2000
  152.1345  136.0945  156.5289 O   0  0  0  0  0  0  0  0  0  0  0  0
  151.4806  136.8665  157.2643 C   0  0  0  0  0  0  0  0  0  0  0  0
  151.0066  136.5779  158.3854 O   0  5  0  0  0  0  0  0  0  0  0  0
  151.2532  138.2903  156.7563 C   0  0  0  0  0  0  0  0  0  0  0  0
  151.8798  139.2840  157.6091 N   0  0  0  0  0  0  0  0  0  0  0  0
  151.2851  140.3116  158.3119 C   0  0  0  0  0  0  0  0  0  0  0  0
  152.3354  140.9168  158.9418 C   0  0  0  0  0  0  0  0  0  0  0  0
  152.3264  142.1025  159.8627 C   0  0  0  0  0  0  0  0  0  0  0  0
  152.3358  143.4572  159.1193 C   0  0  2  0  0  0  0  0  0  0  0  0
  152.1299  144.5783  160.0217 N   0  5  0  0  0  0  0  0  0  0  0  0
  151.0302  145.2577  159.6215 C   0  0  0  0  0  0  0  0  0  0  0  0
  150.5456  146.2682  160.1259 O   0  0  0  0  0  0  0  0  0  0  0  0
  150.4812  144.6787  158.5489 N   0  0  0  0  0  0  0  0  0  0  0  0
  151.1590  143.5990  158.1726 C   0  0  0  0  0  0  0  0  0  0  0  0
  150.9002  142.8439  157.2361 O   0  0  0  0  0  0  0  0  0  0  0  0
  153.5083  140.2433  158.5996 N   0  0  0  0  0  0  0  0  0  0  0  0
  153.2218  139.2683  157.7951 N   0  0  0  0  0  0  0  0  0  0  0  0
  151.6610  138.3890  155.7493 H   0  0  0  0  0  0  0  0  0  0  0  0
  150.1838  138.4960  156.6858 H   0  0  0  0  0  0  0  0  0  0  0  0
  150.2239  140.5102  158.2990 H   0  0  0  0  0  0  0  0  0  0  0  0
  151.4394  142.0454  160.4953 H   0  0  0  0  0  0  0  0  0  0  0  0
  153.1731  142.0467  160.5491 H   0  0  0  0  0  0  0  0  0  0  0  0
  153.2522  143.5530  158.5349 H   0  0  0  0  0  0  0  0  0  0  0  0
  149.6486  145.0151  158.0887 H   0  0  0  0  0  0  0  0  0  0  0  0
  1  2  2  0  0  0  0
  2  3  1  0  0  0  0
  2  4  1  0  0  0  0
  4  5  1  0  0  0  0
  4 18  1  0  0  0  0
  4 19  1  0  0  0  0
  5 17  1  0  0  0  0
  5  6  1  0  0  0  0
  6  7  2  0  0  0  0
  6 20  1  0  0  0  0
  7  8  1  0  0  0  0
  7 16  1  0  0  0  0
  8  9  1  0  0  0  0
  8 21  1  0  0  0  0
  8 22  1  0  0  0  0
  9 14  1  0  0  0  0
  9 10  1  0  0  0  0
  9 23  1  0  0  0  0
 10 11  1  0  0  0  0
 11 12  2  0  0  0  0
 11 13  1  0  0  0  0
 13 14  1  0  0  0  0
 13 24  1  0  0  0  0
 14 15  2  0  0  0  0
 16 17  2  0  0  0  0
M  CHG  1   3  -1
M  CHG  1  10  -1
M  END
> <s_m_source_file>
AV-unprocessed.smi

> <i_m_source_file_index>
2750

> <i_lp_mmshare_version>
43012

> <i_f3d_flags>
0

> <s_epik_input>
Tz1DKFtPSF0pW0NIMl1uMVtjSF1jKG5uMSlbQ0gyXVtDQEBIXTJbTkhdQyg9TylbTkhdQzI9Tw==

> <s_epik_cmdline>
J2VwaWtfcHl0aG9uJywgJy1waCcsICc3LjAnLCAnLXRuJywgJzgnLCAnLW1hJywgJzIwMCcsICctbWV0YWxfYmluZGluZycsICctaW1hZScsICc8aW5maWxlLm1hZT4nLCAnLW9tYWUnLCAnPG91dGZpbGUubWFlPic=

> <r_lp_tautomer_probability>
1

> <r_epik_Ionization_Penalty>
5.10791

> <r_epik_Ionization_Penalty_Charging>
5.10788

> <r_epik_Ionization_Penalty_Neutral>
2.55687e-05

> <r_epik_State_Penalty>
5.12334

> <r_epik_Charging_Adjusted_Penalty>
10.2312

> <i_epik_Tot_Q>
-2

> <i_epik_Tot_abs_Q>
2

> <r_epik_Metal_State_Penalty>
1.50935

> <b_epik_Metal_Only>
1

> <s_lp_Force_Field>
OPLS_2005

> <r_lp_Energy>
16.0951

> <b_lp_Chiralities_Consistent>
1

> <s_lp_Variant>
AV-unprocessed.smi:2750-5

> <Gold.Version>
5.8.1

> <Gold.Id.Protein>
6NUR|6NUR_protein|mol2

> <Gold.PLP.Fitness>
37.3375

> <Gold.PLP.PLP>
-24.1144

> <Gold.PLP.part.hbond>
-6.2977

> <Gold.PLP.part.metal>
0.0000

> <Gold.PLP.part.buried>
-1.8929

> <Gold.PLP.part.nonpolar>
-17.0658

> <Gold.PLP.part.repulsive>
0.6177

> <Gold.PLP.ligand.clash>
0.0000

> <Gold.PLP.ligand.torsion>
0.3651

> <Gold.PLP.Chemscore.Hbond>
4.6472

> <Gold.PLP.Chemscore.CHOScore>
0.0000

> <Gold.PLP.Chemscore.Metal>
0.0000

> <Gold.Chemscore.Hbonds>
donor molecule, donor type, donor heavy atom, donor atom, acceptor molecule, acceptor atom, score
      L1  H    13    24       P1  8029  0.67
      P1  H  6896  6907       L1     3  1.32
      P1  H  7997  8010       L1    17  0.30
      P1  H 10752 10764       L1     1  2.00

> <Gold.PLP.Chemscore.Internal.Correction>
0.0117

> <Gold.Rescore>
     Score         DG    S(hbond)    S(metal)    S(lipo)     H(rot)  DE(clash)    DE(int)     intcor
      5.03     -10.68       2.35        0.00      38.52       2.80       2.81       2.84       ----

> <Gold.Chemscore.Fitness>
5.0251

> <Gold.Chemscore.DG>
-10.6767

> <Gold.Chemscore.ZeroCoef>
-5.4800

> <Gold.Chemscore.Hbond>
2.3507

> <Gold.Chemscore.Metal>
0.0000

> <Gold.Chemscore.Lipo>
38.5157

> <Gold.Chemscore.Internal_Hbond>
0.0000

> <Gold.Chemscore.DEClash>
2.8122

> <Gold.Chemscore.DEInternal>
2.8393

> <Gold.Chemscore.Rot>
2.7973

> <Gold.Chemscore.Internal.Correction>
   9.000000E+99

> <Gold.Chemscore.Hbonds>
donor molecule, donor type, donor heavy atom, donor atom, acceptor molecule, acceptor atom, score
      L1  H    13    24       P1  8029  0.13
      P1  H  6896  6907       L1     3  0.65
      P1  H  7997  8010       L1    17  0.01
      P1  H 10752 10764       L1     1  1.00

> <Gold.Chemscore.Hbond.Weighted>
-7.8515

> <Gold.Chemscore.Metal.Weighted>
-0.0000

> <Gold.Chemscore.Lipo.Weighted>
-4.5063

> <Gold.Chemscore.Internal_Hbond.Weighted>
0.0000

> <Gold.Chemscore.DEClash.Weighted>
2.8122

> <Gold.Chemscore.DEInternal.Weighted>
2.8393

> <Gold.Chemscore.Rot.Weighted>
7.1611

> <Gold.Chemscore.Internal.Correction.Weighted>
   9.000000E+99

> <Gold.Protein.RotatedTorsions>
[ 6907 6896 6895 6894 ] final  -33.23 input  -60.11 | X-H torsion
[ 7974 7965 7964 7962 ] final  126.27 input  175.53 | X-H torsion
[ 8008 7997 7996 7995 ] final   71.02 input   59.86 | X-H torsion
[ 10167 10162 10161 10158 ] final  115.53 input  -65.29 | X-H torsion
[ 10718 10713 10712 10709 ] final   71.95 input   66.30 | X-H torsion
[ 10763 10752 10751 10750 ] final  -20.95 input  -60.55 | X-H torsion
[ 11005 11000 10999 10996 ] final  117.76 input  -57.11 | X-H torsion

> <Gold.Protein.ActiveResidues>
 VAL166  LYS551  ARG553  GLY616  TRP617  ASP618  TYR619  PRO620  LYS621  CYS622 
 ASP623  PHE694  ASN695  SER759  ASP760  ASP761  ALA762  ILE779  LEU786  VAL792 
 PHE793  MET794  SER795  GLU796  ALA797  LYS798  CYS799  TRP800  GLU811  SER814 

> <Gold.Protein.RotatedAtoms>
  151.0683  134.9782  159.8295 H   0  0  0  0  0  0  0  0  0  0  0  0  # atno 6907 bound_to 6896
  152.5405  134.2331  159.8843 H   0  0  0  0  0  0  0  0  0  0  0  0  # atno 6908 bound_to 6896
  151.2354  133.4384  159.2639 H   0  0  0  0  0  0  0  0  0  0  0  0  # atno 6909 bound_to 6896
  145.0636  139.3785  143.4993 H   0  0  0  0  0  0  0  0  0  0  0  0  # atno 7974 bound_to 7965
  155.7476  140.3489  155.5134 H   0  0  0  0  0  0  0  0  0  0  0  0  # atno 8008 bound_to 7997
  155.9035  140.1038  157.1353 H   0  0  0  0  0  0  0  0  0  0  0  0  # atno 8009 bound_to 7997
  154.4047  140.1281  156.4453 H   0  0  0  0  0  0  0  0  0  0  0  0  # atno 8010 bound_to 7997
  139.6311  144.7115  151.2431 H   0  0  0  0  0  0  0  0  0  0  0  0  # atno 10167 bound_to 10162
  157.6477  130.9554  150.0860 H   0  0  0  0  0  0  0  0  0  0  0  0  # atno 10718 bound_to 10713
  153.6284  135.6990  153.5284 H   0  0  0  0  0  0  0  0  0  0  0  0  # atno 10763 bound_to 10752
  153.2880  135.4166  155.1139 H   0  0  0  0  0  0  0  0  0  0  0  0  # atno 10764 bound_to 10752
  154.8527  135.3618  154.5826 H   0  0  0  0  0  0  0  0  0  0  0  0  # atno 10765 bound_to 10752
  139.9086  134.9613  156.7400 H   0  0  0  0  0  0  0  0  0  0  0  0  # atno 11005 bound_to 11000
  146.3525  140.0347  142.8647 LP  0  0  0  0  0  0  0  0  0  0  0  0  # atno 17320 bound_to 7965
  145.1378  140.9554  143.4506 LP  0  0  0  0  0  0  0  0  0  0  0  0  # atno 17321 bound_to 7965
  140.7439  143.6479  150.8275 LP  0  0  0  0  0  0  0  0  0  0  0  0  # atno 17342 bound_to 10162
  140.0104  143.5649  152.2841 LP  0  0  0  0  0  0  0  0  0  0  0  0  # atno 17343 bound_to 10162
  156.1823  130.3650  149.9019 LP  0  0  0  0  0  0  0  0  0  0  0  0  # atno 17370 bound_to 10713
  156.6968  130.8917  151.3595 LP  0  0  0  0  0  0  0  0  0  0  0  0  # atno 17371 bound_to 10713
  140.6857  133.9435  155.7936 LP  0  0  0  0  0  0  0  0  0  0  0  0  # atno 17394 bound_to 11000
  141.0478  134.0528  157.3822 LP  0  0  0  0  0  0  0  0  0  0  0  0  # atno 17395 bound_to 11000

$$$$
