AV-unprocessed.smi:3335|AV-procd|sdf|12845|dock3
  -GOLD-   2272019233D 1   1.00000     0.00000
 Structure written by MMmdl.
 46 47  0  0  0  0  0  0  0  0  1 V2000
  150.7103  136.0534  154.7102 C   0  0  0  0  0  0  0  0  0  0  0  0
  150.4906  137.5360  154.7978 C   0  0  0  0  0  0  0  0  0  0  0  0
  151.4324  138.5758  154.5558 C   0  0  0  0  0  0  0  0  0  0  0  0
  150.9196  139.7829  154.7243 N   0  0  0  0  0  0  0  0  0  0  0  0
  149.6331  139.5606  155.0754 N   0  0  0  0  0  0  0  0  0  0  0  0
  148.7431  140.6794  155.3594 C   0  0  2  0  0  0  0  0  0  0  0  0
  148.7482  141.6744  154.1823 C   0  0  0  0  0  0  0  0  0  0  0  0
  149.0767  141.3520  156.7186 C   0  0  2  0  0  0  0  0  0  0  0  0
  147.8619  142.0141  157.3953 C   0  0  0  0  0  0  0  0  0  0  0  0
  150.0694  142.4018  156.5012 N   0  0  0  0  0  0  0  0  0  0  0  0
  150.8759  142.7168  157.6930 C   0  0  2  0  0  0  0  0  0  0  0  0
  151.6843  144.0124  157.4874 C   0  0  0  0  0  0  0  0  0  0  0  0
  151.8348  141.5542  158.0188 C   0  0  0  0  0  0  0  0  0  0  0  0
  151.9440  140.6271  157.2135 O   0  0  0  0  0  0  0  0  0  0  0  0
  152.5383  141.5769  159.1724 N   0  0  0  0  0  0  0  0  0  0  0  0
  153.4620  140.5136  159.5665 C   0  0  0  0  0  0  0  0  0  0  0  0
  153.8608  140.8193  161.0102 C   0  0  0  0  0  0  0  0  0  0  0  0
  153.6730  142.3239  161.1353 C   0  0  0  0  0  0  0  0  0  0  0  0
  152.5197  142.6362  160.1817 C   0  0  0  0  0  0  0  0  0  0  0  0
  149.3498  138.2116  155.1270 C   0  0  0  0  0  0  0  0  0  0  0  0
  151.7693  135.7978  154.7513 H   0  0  0  0  0  0  0  0  0  0  0  0
  150.3161  135.6437  153.7803 H   0  0  0  0  0  0  0  0  0  0  0  0
  150.2216  135.5243  155.5285 H   0  0  0  0  0  0  0  0  0  0  0  0
  152.4691  138.4888  154.2659 H   0  0  0  0  0  0  0  0  0  0  0  0
  147.7373  140.2609  155.4276 H   0  0  0  0  0  0  0  0  0  0  0  0
  147.9803  142.4385  154.3032 H   0  0  0  0  0  0  0  0  0  0  0  0
  148.5500  141.1651  153.2389 H   0  0  0  0  0  0  0  0  0  0  0  0
  149.7083  142.1830  154.0913 H   0  0  0  0  0  0  0  0  0  0  0  0
  149.4540  140.5892  157.4015 H   0  0  0  0  0  0  0  0  0  0  0  0
  147.1055  141.2793  157.6711 H   0  0  0  0  0  0  0  0  0  0  0  0
  147.3900  142.7460  156.7387 H   0  0  0  0  0  0  0  0  0  0  0  0
  148.1540  142.5279  158.3122 H   0  0  0  0  0  0  0  0  0  0  0  0
  149.6243  143.2273  156.1261 H   0  0  0  0  0  0  0  0  0  0  0  0
  150.1907  142.8545  158.5286 H   0  0  0  0  0  0  0  0  0  0  0  0
  152.3062  144.2335  158.3555 H   0  0  0  0  0  0  0  0  0  0  0  0
  151.0344  144.8740  157.3344 H   0  0  0  0  0  0  0  0  0  0  0  0
  152.3421  143.9389  156.6203 H   0  0  0  0  0  0  0  0  0  0  0  0
  153.0101  139.5241  159.4819 H   0  0  0  0  0  0  0  0  0  0  0  0
  154.3361  140.5436  158.9144 H   0  0  0  0  0  0  0  0  0  0  0  0
  153.1814  140.3085  161.6941 H   0  0  0  0  0  0  0  0  0  0  0  0
  154.8757  140.4982  161.2461 H   0  0  0  0  0  0  0  0  0  0  0  0
  153.4746  142.6429  162.1590 H   0  0  0  0  0  0  0  0  0  0  0  0
  154.5762  142.8327  160.7957 H   0  0  0  0  0  0  0  0  0  0  0  0
  152.6345  143.6288  159.7443 H   0  0  0  0  0  0  0  0  0  0  0  0
  151.5681  142.6034  160.7141 H   0  0  0  0  0  0  0  0  0  0  0  0
  148.3694  137.8463  155.3951 H   0  0  0  0  0  0  0  0  0  0  0  0
  1  2  1  0  0  0  0
  1 21  1  0  0  0  0
  1 22  1  0  0  0  0
  1 23  1  0  0  0  0
  2 20  2  0  0  0  0
  2  3  1  0  0  0  0
  3  4  2  0  0  0  0
  3 24  1  0  0  0  0
  4  5  1  0  0  0  0
  5  6  1  0  0  0  0
  5 20  1  0  0  0  0
  6  7  1  0  0  0  0
  6  8  1  0  0  0  0
  6 25  1  0  0  0  0
  7 26  1  0  0  0  0
  7 27  1  0  0  0  0
  7 28  1  0  0  0  0
  8  9  1  0  0  0  0
  8 10  1  0  0  0  0
  8 29  1  0  0  0  0
  9 30  1  0  0  0  0
  9 31  1  0  0  0  0
  9 32  1  0  0  0  0
 10 11  1  0  0  0  0
 10 33  1  0  0  0  0
 11 12  1  0  0  0  0
 11 13  1  0  0  0  0
 11 34  1  0  0  0  0
 12 35  1  0  0  0  0
 12 36  1  0  0  0  0
 12 37  1  0  0  0  0
 13 14  2  0  0  0  0
 13 15  1  0  0  0  0
 15 19  1  0  0  0  0
 15 16  1  0  0  0  0
 16 17  1  0  0  0  0
 16 38  1  0  0  0  0
 16 39  1  0  0  0  0
 17 18  1  0  0  0  0
 17 40  1  0  0  0  0
 17 41  1  0  0  0  0
 18 19  1  0  0  0  0
 18 42  1  0  0  0  0
 18 43  1  0  0  0  0
 19 44  1  0  0  0  0
 19 45  1  0  0  0  0
 20 46  1  0  0  0  0
M  END
> <s_m_source_file>
AV-unprocessed.smi

> <i_m_source_file_index>
3335

> <i_lp_mmshare_version>
43012

> <i_f3d_flags>
0

> <s_epik_input>
W0NIM11jMVtjSF1ubihbY0hdMSlbQ0BIXShbQ0gzXSlbQ0BIXShbQ0gzXSlbTkhdW0NASF0oW0NIM10pQyg9TylOMltDSDJdW0NIMl1bQ0gyXVtDSDJdMg==

> <s_epik_cmdline>
J2VwaWtfcHl0aG9uJywgJy1waCcsICc3LjAnLCAnLXRuJywgJzgnLCAnLW1hJywgJzIwMCcsICctbWV0YWxfYmluZGluZycsICctaW1hZScsICc8aW5maWxlLm1hZT4nLCAnLW9tYWUnLCAnPG91dGZpbGUubWFlPic=

> <r_lp_tautomer_probability>
1

> <r_epik_Ionization_Penalty>
0.918803

> <r_epik_Ionization_Penalty_Charging>
0

> <r_epik_Ionization_Penalty_Neutral>
0.918803

> <r_epik_State_Penalty>
0.958258

> <r_epik_Charging_Adjusted_Penalty>
0.958258

> <i_epik_Tot_Q>
0

> <i_epik_Tot_abs_Q>
0

> <r_epik_Metal_State_Penalty>
0.956786

> <b_epik_Metal_Only>
0

> <s_lp_Force_Field>
OPLS_2005

> <r_lp_Energy>
39.0848

> <b_lp_Chiralities_Consistent>
1

> <s_lp_Variant>
AV-unprocessed.smi:3335-9

> <Gold.Version>
5.8.1

> <Gold.Id.Protein>
6NUR|6NUR_protein|mol2

> <Gold.PLP.Fitness>
45.1118

> <Gold.PLP.PLP>
-41.3785

> <Gold.PLP.part.hbond>
-2.0000

> <Gold.PLP.part.metal>
0.0000

> <Gold.PLP.part.buried>
-3.8742

> <Gold.PLP.part.nonpolar>
-35.2250

> <Gold.PLP.part.repulsive>
0.0677

> <Gold.PLP.ligand.clash>
0.0000

> <Gold.PLP.ligand.torsion>
1.2067

> <Gold.PLP.Chemscore.Hbond>
2.0000

> <Gold.PLP.Chemscore.CHOScore>
0.0000

> <Gold.PLP.Chemscore.Metal>
0.0000

> <Gold.Chemscore.Hbonds>
donor molecule, donor type, donor heavy atom, donor atom, acceptor molecule, acceptor atom, score
      L1  H    10    33       P1  8028  1.00
      P1  H  7989  7998       L1     4  1.00

> <Gold.PLP.Chemscore.Internal.Correction>
0.1467

> <Gold.Rescore>
     Score         DG    S(hbond)    S(metal)    S(lipo)     H(rot)  DE(clash)    DE(int)     intcor
     16.16     -19.82       1.88        0.00     104.39       1.62       0.30       3.37       ----

> <Gold.Chemscore.Fitness>
16.1599

> <Gold.Chemscore.DG>
-19.8239

> <Gold.Chemscore.ZeroCoef>
-5.4800

> <Gold.Chemscore.Hbond>
1.8796

> <Gold.Chemscore.Metal>
0.0000

> <Gold.Chemscore.Lipo>
104.3946

> <Gold.Chemscore.Internal_Hbond>
0.0000

> <Gold.Chemscore.DEClash>
0.2955

> <Gold.Chemscore.DEInternal>
3.3685

> <Gold.Chemscore.Rot>
1.6204

> <Gold.Chemscore.Internal.Correction>
   9.000000E+99

> <Gold.Chemscore.Hbonds>
donor molecule, donor type, donor heavy atom, donor atom, acceptor molecule, acceptor atom, score
      L1  H    10    33       P1  8028  1.00
      P1  H  7989  7998       L1     4  0.65

> <Gold.Chemscore.Hbond.Weighted>
-6.2779

> <Gold.Chemscore.Metal.Weighted>
-0.0000

> <Gold.Chemscore.Lipo.Weighted>
-12.2142

> <Gold.Chemscore.Internal_Hbond.Weighted>
0.0000

> <Gold.Chemscore.DEClash.Weighted>
0.2955

> <Gold.Chemscore.DEInternal.Weighted>
3.3685

> <Gold.Chemscore.Rot.Weighted>
4.1482

> <Gold.Chemscore.Internal.Correction.Weighted>
   9.000000E+99

> <Gold.Protein.RotatedTorsions>
[ 6907 6896 6895 6894 ] final   35.98 input  -60.11 | X-H torsion
[ 7974 7965 7964 7962 ] final -166.65 input  175.53 | X-H torsion
[ 8008 7997 7996 7995 ] final   21.14 input   59.86 | X-H torsion
[ 10167 10162 10161 10158 ] final  132.97 input  -65.29 | X-H torsion
[ 10718 10713 10712 10709 ] final   74.15 input   66.30 | X-H torsion
[ 10763 10752 10751 10750 ] final -106.35 input  -60.55 | X-H torsion
[ 11005 11000 10999 10996 ] final  -13.03 input  -57.11 | X-H torsion

> <Gold.Protein.ActiveResidues>
 VAL166  LYS551  ARG553  GLY616  TRP617  ASP618  TYR619  PRO620  LYS621  CYS622 
 ASP623  PHE694  ASN695  SER759  ASP760  ASP761  ALA762  ILE779  LEU786  VAL792 
 PHE793  MET794  SER795  GLU796  ALA797  LYS798  CYS799  TRP800  GLU811  SER814 

> <Gold.Protein.RotatedAtoms>
  152.1236  134.9187  160.0561 H   0  0  0  0  0  0  0  0  0  0  0  0  # atno 6907 bound_to 6896
  152.0319  133.3936  159.4309 H   0  0  0  0  0  0  0  0  0  0  0  0  # atno 6908 bound_to 6896
  150.6851  134.3432  159.4921 H   0  0  0  0  0  0  0  0  0  0  0  0  # atno 6909 bound_to 6896
  144.7240  140.2634  143.6261 H   0  0  0  0  0  0  0  0  0  0  0  0  # atno 7974 bound_to 7965
  154.9462  140.3059  155.5097 H   0  0  0  0  0  0  0  0  0  0  0  0  # atno 8008 bound_to 7997
  156.2991  140.2327  156.4473 H   0  0  0  0  0  0  0  0  0  0  0  0  # atno 8009 bound_to 7997
  154.8098  140.0429  157.1323 H   0  0  0  0  0  0  0  0  0  0  0  0  # atno 8010 bound_to 7997
  139.5317  144.6637  151.4928 H   0  0  0  0  0  0  0  0  0  0  0  0  # atno 10167 bound_to 10162
  157.6579  130.9663  150.1170 H   0  0  0  0  0  0  0  0  0  0  0  0  # atno 10718 bound_to 10713
  154.8007  135.4715  154.0268 H   0  0  0  0  0  0  0  0  0  0  0  0  # atno 10763 bound_to 10752
  153.1776  135.6835  153.8529 H   0  0  0  0  0  0  0  0  0  0  0  0  # atno 10764 bound_to 10752
  153.8090  135.3219  155.3376 H   0  0  0  0  0  0  0  0  0  0  0  0  # atno 10765 bound_to 10752
  140.7718  133.8432  155.9214 H   0  0  0  0  0  0  0  0  0  0  0  0  # atno 11005 bound_to 11000
  145.8113  139.2004  143.1991 LP  0  0  0  0  0  0  0  0  0  0  0  0  # atno 17320 bound_to 7965
  146.0593  140.7987  142.9742 LP  0  0  0  0  0  0  0  0  0  0  0  0  # atno 17321 bound_to 7965
  140.6499  143.8718  150.6775 LP  0  0  0  0  0  0  0  0  0  0  0  0  # atno 17342 bound_to 10162
  140.2080  143.3906  152.1740 LP  0  0  0  0  0  0  0  0  0  0  0  0  # atno 17343 bound_to 10162
  156.2051  130.3663  149.8739 LP  0  0  0  0  0  0  0  0  0  0  0  0  # atno 17370 bound_to 10713
  156.6633  130.8791  151.3551 LP  0  0  0  0  0  0  0  0  0  0  0  0  # atno 17371 bound_to 10713
  140.9566  134.1710  157.4687 LP  0  0  0  0  0  0  0  0  0  0  0  0  # atno 17394 bound_to 11000
  139.8754  134.9929  156.5619 LP  0  0  0  0  0  0  0  0  0  0  0  0  # atno 17395 bound_to 11000

$$$$
