AV-unprocessed.smi:206|AV-procd|sdf|1601|dock10
  -GOLD-   2262019513D 1   1.00000     0.00000
 Structure written by MMmdl.
 47 50  0  0  0  0  0  0  0  0  1 V2000
  155.2019  141.0259  163.6265 O   0  0  0  0  0  0  0  0  0  0  0  0
  154.7337  140.9271  162.4934 C   0  0  0  0  0  0  0  0  0  0  0  0
  153.8335  141.9804  161.8741 C   0  0  0  0  0  0  0  0  0  0  0  0
  153.5975  141.4155  160.5510 N   0  0  0  0  0  0  0  0  0  0  0  0
  152.7586  141.9777  159.6428 C   0  0  0  0  0  0  0  0  0  0  0  0
  152.6645  143.3330  159.6112 N   0  0  0  0  0  0  0  0  0  0  0  0
  151.8553  143.9384  158.7382 C   0  0  0  0  0  0  0  0  0  0  0  0
  151.0608  143.3888  157.8194 N   0  0  0  0  0  0  0  0  0  0  0  0
  151.1471  142.0281  157.8400 C   0  0  0  0  0  0  0  0  0  0  0  0
  151.9657  141.2473  158.7076 C   0  0  0  0  0  0  0  0  0  0  0  0
  151.7925  139.8984  158.4170 N   0  0  0  0  0  0  0  0  0  0  0  0
  150.9297  139.8837  157.4390 C   0  0  0  0  0  0  0  0  0  0  0  0
  150.4743  141.1198  157.0394 N   0  0  0  0  0  0  0  0  0  0  0  0
  149.5470  141.4022  155.9793 C   0  0  0  0  0  0  0  0  0  0  0  0
  148.0832  140.9520  156.0380 C   0  0  0  0  0  0  0  0  0  0  0  0
  148.1073  140.6434  154.5233 C   0  0  0  0  0  0  0  0  0  0  0  0
  147.5209  139.2803  154.1240 C   0  0  0  0  0  0  0  0  0  0  0  0
  148.0618  138.8222  152.9014 O   0  0  0  0  0  0  0  0  0  0  0  0
  147.4890  141.6982  153.5786 C   0  0  0  0  0  0  0  0  0  0  0  0
  147.6547  143.0242  154.0389 O   0  0  0  0  0  0  0  0  0  0  0  0
  149.6481  140.6595  154.6463 C   0  0  0  0  0  0  0  0  0  0  0  0
  154.2564  140.1298  160.3672 C   0  0  0  0  0  0  0  0  0  0  0  0
  154.9313  139.9185  161.6373 N   0  0  0  0  0  0  0  0  0  0  0  0
  155.7460  138.7267  161.8630 C   0  0  0  0  0  0  0  0  0  0  0  0
  154.9231  137.5507  162.4186 C   0  0  0  0  0  0  0  0  0  0  0  0
  153.7497  137.5073  161.7890 F   0  0  0  0  0  0  0  0  0  0  0  0
  155.5489  136.3900  162.2255 F   0  0  0  0  0  0  0  0  0  0  0  0
  154.6993  137.7165  163.7223 F   0  0  0  0  0  0  0  0  0  0  0  0
  152.9089  142.0807  162.4438 H   0  0  0  0  0  0  0  0  0  0  0  0
  154.3410  142.9439  161.8149 H   0  0  0  0  0  0  0  0  0  0  0  0
  151.8406  145.0175  158.7842 H   0  0  0  0  0  0  0  0  0  0  0  0
  150.6057  138.9606  156.9818 H   0  0  0  0  0  0  0  0  0  0  0  0
  149.5880  142.4797  155.8149 H   0  0  0  0  0  0  0  0  0  0  0  0
  147.9296  140.0590  156.6445 H   0  0  0  0  0  0  0  0  0  0  0  0
  147.3865  141.7387  156.3293 H   0  0  0  0  0  0  0  0  0  0  0  0
  147.7036  138.5308  154.8948 H   0  0  0  0  0  0  0  0  0  0  0  0
  146.4385  139.3411  154.0056 H   0  0  0  0  0  0  0  0  0  0  0  0
  148.5342  139.5334  152.4959 H   0  0  0  0  0  0  0  0  0  0  0  0
  147.9356  141.6348  152.5858 H   0  0  0  0  0  0  0  0  0  0  0  0
  146.4194  141.5309  153.4501 H   0  0  0  0  0  0  0  0  0  0  0  0
  147.0617  143.1681  154.7607 H   0  0  0  0  0  0  0  0  0  0  0  0
  150.1661  141.2156  153.8641 H   0  0  0  0  0  0  0  0  0  0  0  0
  150.0784  139.6632  154.7613 H   0  0  0  0  0  0  0  0  0  0  0  0
  153.5324  139.3351  160.1820 H   0  0  0  0  0  0  0  0  0  0  0  0
  154.9769  140.1686  159.5491 H   0  0  0  0  0  0  0  0  0  0  0  0
  156.2137  138.4343  160.9219 H   0  0  0  0  0  0  0  0  0  0  0  0
  156.5624  138.9671  162.5460 H   0  0  0  0  0  0  0  0  0  0  0  0
  1  2  2  0  0  0  0
  2 23  1  0  0  0  0
  2  3  1  0  0  0  0
  3  4  1  0  0  0  0
  3 29  1  0  0  0  0
  3 30  1  0  0  0  0
  4  5  1  0  0  0  0
  4 22  1  0  0  0  0
  5 10  1  0  0  0  0
  5  6  2  0  0  0  0
  6  7  1  0  0  0  0
  7  8  2  0  0  0  0
  7 31  1  0  0  0  0
  8  9  1  0  0  0  0
  9 13  1  0  0  0  0
  9 10  2  0  0  0  0
 10 11  1  0  0  0  0
 11 12  2  0  0  0  0
 12 13  1  0  0  0  0
 12 32  1  0  0  0  0
 13 14  1  0  0  0  0
 14 21  1  0  0  0  0
 14 15  1  0  0  0  0
 14 33  1  0  0  0  0
 15 16  1  0  0  0  0
 15 34  1  0  0  0  0
 15 35  1  0  0  0  0
 16 17  1  0  0  0  0
 16 19  1  0  0  0  0
 16 21  1  0  0  0  0
 17 18  1  0  0  0  0
 17 36  1  0  0  0  0
 17 37  1  0  0  0  0
 18 38  1  0  0  0  0
 19 20  1  0  0  0  0
 19 39  1  0  0  0  0
 19 40  1  0  0  0  0
 20 41  1  0  0  0  0
 21 42  1  0  0  0  0
 21 43  1  0  0  0  0
 22 23  1  0  0  0  0
 22 44  1  0  0  0  0
 22 45  1  0  0  0  0
 23 24  1  0  0  0  0
 24 25  1  0  0  0  0
 24 46  1  0  0  0  0
 24 47  1  0  0  0  0
 25 26  1  0  0  0  0
 25 27  1  0  0  0  0
 25 28  1  0  0  0  0
M  END
> <s_m_source_file>
AV-unprocessed.smi

> <i_m_source_file_index>
206

> <i_lp_mmshare_version>
43012

> <i_f3d_flags>
0

> <s_epik_input>
RkMoRikoRilbQ0gyXU4xW0NIMl1OKFtDSDJdQzE9TyljKG5bY0hdbjIpYyhjMjMpbltjSF1uM1tDSF0oW0NIMl00KVtDSDJdQzQoW0NIMl1bT0hdKVtDSDJdW09IXQ==

> <s_epik_cmdline>
J2VwaWtfcHl0aG9uJywgJy1waCcsICc3LjAnLCAnLXRuJywgJzgnLCAnLW1hJywgJzIwMCcsICctbWV0YWxfYmluZGluZycsICctaW1hZScsICc8aW5maWxlLm1hZT4nLCAnLW9tYWUnLCAnPG91dGZpbGUubWFlPic=

> <r_lp_tautomer_probability>
1

> <r_epik_Ionization_Penalty>
0.000251167

> <r_epik_Ionization_Penalty_Charging>
0

> <r_epik_Ionization_Penalty_Neutral>
0.000251167

> <r_epik_State_Penalty>
-0

> <r_epik_Charging_Adjusted_Penalty>
0

> <i_epik_Tot_Q>
0

> <i_epik_Tot_abs_Q>
0

> <r_epik_Metal_State_Penalty>
-0

> <b_epik_Metal_Only>
0

> <s_epik_Chemistry_Notes>
This compound contains an acetal/aminal-like group ( X-CH(R)-Y where X, Y are N, S, or O) that may be acid/base labile, releasing an aldehyde.

> <s_lp_Force_Field>
OPLS_2005

> <r_lp_Energy>
40.1188

> <b_lp_Chiralities_Consistent>
1

> <s_lp_Variant>
AV-unprocessed.smi:206-1

> <Gold.Version>
5.8.1

> <Gold.Id.Protein>
6NUR|6NUR_protein|mol2

> <Gold.PLP.Fitness>
52.9356

> <Gold.PLP.PLP>
-50.7406

> <Gold.PLP.part.hbond>
-5.9678

> <Gold.PLP.part.metal>
0.0000

> <Gold.PLP.part.buried>
-3.1787

> <Gold.PLP.part.nonpolar>
-41.2776

> <Gold.PLP.part.repulsive>
0.1355

> <Gold.PLP.ligand.clash>
0.0000

> <Gold.PLP.ligand.torsion>
1.6702

> <Gold.PLP.Chemscore.Hbond>
1.6800

> <Gold.PLP.Chemscore.CHOScore>
0.0000

> <Gold.PLP.Chemscore.Metal>
0.0000

> <Gold.Chemscore.Hbonds>
donor molecule, donor type, donor heavy atom, donor atom, acceptor molecule, acceptor atom, score
      L1  H    18    38       P1  7957  0.91
      P1  H  8022  8030       L1    20  0.74

> <Gold.PLP.Chemscore.Internal.Correction>
0.4953

> <Gold.Rescore>
     Score         DG    S(hbond)    S(metal)    S(lipo)     H(rot)  DE(clash)    DE(int)     intcor
      5.74      -8.44       1.56        0.00      63.70       3.79       1.01       1.69       ----

> <Gold.Chemscore.Fitness>
5.7376

> <Gold.Chemscore.DG>
-8.4404

> <Gold.Chemscore.ZeroCoef>
-5.4800

> <Gold.Chemscore.Hbond>
1.5623

> <Gold.Chemscore.Metal>
0.0000

> <Gold.Chemscore.Lipo>
63.7004

> <Gold.Chemscore.Internal_Hbond>
0.0000

> <Gold.Chemscore.DEClash>
1.0104

> <Gold.Chemscore.DEInternal>
1.6924

> <Gold.Chemscore.Rot>
3.7932

> <Gold.Chemscore.Internal.Correction>
   9.000000E+99

> <Gold.Chemscore.Hbonds>
donor molecule, donor type, donor heavy atom, donor atom, acceptor molecule, acceptor atom, score
      L1  H    18    38       P1  7957  0.90
      P1  H  8022  8030       L1    20  0.49

> <Gold.Chemscore.Hbond.Weighted>
-5.2181

> <Gold.Chemscore.Metal.Weighted>
-0.0000

> <Gold.Chemscore.Lipo.Weighted>
-7.4529

> <Gold.Chemscore.Internal_Hbond.Weighted>
0.0000

> <Gold.Chemscore.DEClash.Weighted>
1.0104

> <Gold.Chemscore.DEInternal.Weighted>
1.6924

> <Gold.Chemscore.Rot.Weighted>
9.7107

> <Gold.Chemscore.Internal.Correction.Weighted>
   9.000000E+99

> <Gold.Protein.RotatedTorsions>
[ 6907 6896 6895 6894 ] final    0.05 input  -60.11 | X-H torsion
[ 7974 7965 7964 7962 ] final   75.94 input  175.53 | X-H torsion
[ 8008 7997 7996 7995 ] final  -24.43 input   59.86 | X-H torsion
[ 10167 10162 10161 10158 ] final   30.61 input  -65.29 | X-H torsion
[ 10718 10713 10712 10709 ] final  -66.10 input   66.30 | X-H torsion
[ 10763 10752 10751 10750 ] final   71.03 input  -60.55 | X-H torsion
[ 11005 11000 10999 10996 ] final   13.97 input  -57.11 | X-H torsion

> <Gold.Protein.ActiveResidues>
 VAL166  LYS551  ARG553  GLY616  TRP617  ASP618  TYR619  PRO620  LYS621  CYS622 
 ASP623  PHE694  ASN695  SER759  ASP760  ASP761  ALA762  ILE779  LEU786  VAL792 
 PHE793  MET794  SER795  GLU796  ALA797  LYS798  CYS799  TRP800  GLU811  SER814 

> <Gold.Protein.RotatedAtoms>
  151.5702  135.1062  159.9993 H   0  0  0  0  0  0  0  0  0  0  0  0  # atno 6907 bound_to 6896
  152.4404  133.7434  159.6664 H   0  0  0  0  0  0  0  0  0  0  0  0  # atno 6908 bound_to 6896
  150.8309  133.8024  159.3122 H   0  0  0  0  0  0  0  0  0  0  0  0  # atno 6909 bound_to 6896
  145.7092  139.2609  143.1660 H   0  0  0  0  0  0  0  0  0  0  0  0  # atno 7974 bound_to 7965
  154.4530  140.1954  156.0463 H   0  0  0  0  0  0  0  0  0  0  0  0  # atno 8008 bound_to 7997
  156.0687  140.3287  155.7522 H   0  0  0  0  0  0  0  0  0  0  0  0  # atno 8009 bound_to 7997
  155.5297  140.0577  157.2882 H   0  0  0  0  0  0  0  0  0  0  0  0  # atno 8010 bound_to 7997
  140.4663  144.0831  150.6225 H   0  0  0  0  0  0  0  0  0  0  0  0  # atno 10167 bound_to 10162
  156.0631  130.4257  150.1660 H   0  0  0  0  0  0  0  0  0  0  0  0  # atno 10718 bound_to 10713
  153.0375  135.5152  154.7531 H   0  0  0  0  0  0  0  0  0  0  0  0  # atno 10763 bound_to 10752
  154.6496  135.2923  155.0006 H   0  0  0  0  0  0  0  0  0  0  0  0  # atno 10764 bound_to 10752
  154.0895  135.6652  153.4903 H   0  0  0  0  0  0  0  0  0  0  0  0  # atno 10765 bound_to 10752
  140.4748  134.0994  155.7739 H   0  0  0  0  0  0  0  0  0  0  0  0  # atno 11005 bound_to 11000
  146.0728  140.7850  142.9680 LP  0  0  0  0  0  0  0  0  0  0  0  0  # atno 17320 bound_to 7965
  144.6946  140.3368  143.7206 LP  0  0  0  0  0  0  0  0  0  0  0  0  # atno 17321 bound_to 7965
  140.4032  143.2693  151.9922 LP  0  0  0  0  0  0  0  0  0  0  0  0  # atno 17342 bound_to 10162
  139.4812  144.5979  151.7657 LP  0  0  0  0  0  0  0  0  0  0  0  0  # atno 17343 bound_to 10162
  156.9725  130.9839  151.3456 LP  0  0  0  0  0  0  0  0  0  0  0  0  # atno 17370 bound_to 10713
  157.5655  130.8274  149.8321 LP  0  0  0  0  0  0  0  0  0  0  0  0  # atno 17371 bound_to 10713
  141.1560  133.8882  157.1977 LP  0  0  0  0  0  0  0  0  0  0  0  0  # atno 17394 bound_to 11000
  139.9863  135.0081  156.9869 LP  0  0  0  0  0  0  0  0  0  0  0  0  # atno 17395 bound_to 11000

$$$$
