AV-unprocessed.smi:72|AV-procd|sdf|727|dock3
  -GOLD-   2262017 53D 1   1.00000     0.00000
 Structure written by MMmdl.
 28 29  0  0  0  0  0  0  0  0  2 V2000
  152.9948  141.2033  158.8548 N   0  0  0  0  0  0  0  0  0  0  0  0
  152.3005  141.0511  157.8133 C   0  0  0  0  0  0  0  0  0  0  0  0
  151.2746  142.0155  157.4809 N   0  0  0  0  0  0  0  0  0  0  0  0
  150.6001  141.8285  156.3882 C   0  0  0  0  0  0  0  0  0  0  0  0
  150.8628  140.6991  155.5068 N   0  0  0  0  0  0  0  0  0  0  0  0
  150.0611  140.4821  154.2409 C   0  0  2  0  0  0  0  0  0  0  0  0
  149.1953  141.5652  154.0450 O   0  0  0  0  0  0  0  0  0  0  0  0
  147.8731  141.0870  153.8318 C   0  0  2  0  0  0  0  0  0  0  0  0
  146.8317  142.1574  154.2067 C   0  0  0  0  0  0  0  0  0  0  0  0
  146.9811  142.6091  155.5372 O   0  0  0  0  0  0  0  0  0  0  0  0
  147.8151  139.7584  154.5878 C   0  0  1  0  0  0  0  0  0  0  0  0
  146.7868  138.9002  154.1302 O   0  0  0  0  0  0  0  0  0  0  0  0
  149.2157  139.1997  154.3588 C   0  0  1  0  0  0  0  0  0  0  0  0
  149.3157  138.4219  153.1799 O   0  0  0  0  0  0  0  0  0  0  0  0
  151.8503  139.7482  155.8765 C   0  0  0  0  0  0  0  0  0  0  0  0
  152.0212  138.7727  155.1446 O   0  0  0  0  0  0  0  0  0  0  0  0
  152.5542  139.9498  157.0254 N   0  5  0  0  0  0  0  0  0  0  0  0
  150.7844  140.4657  153.4240 H   0  0  0  0  0  0  0  0  0  0  0  0
  147.7942  140.8885  152.7613 H   0  0  0  0  0  0  0  0  0  0  0  0
  147.6834  139.9307  155.6564 H   0  0  0  0  0  0  0  0  0  0  0  0
  149.5441  138.5854  155.1985 H   0  0  0  0  0  0  0  0  0  0  0  0
  152.7448  142.0328  159.3729 H   0  0  0  0  0  0  0  0  0  0  0  0
  149.8004  142.4962  156.0677 H   0  0  0  0  0  0  0  0  0  0  0  0
  146.8920  143.0056  153.5246 H   0  0  0  0  0  0  0  0  0  0  0  0
  145.8290  141.7410  154.1090 H   0  0  0  0  0  0  0  0  0  0  0  0
  147.7960  143.0827  155.6038 H   0  0  0  0  0  0  0  0  0  0  0  0
  146.1487  138.8070  154.8208 H   0  0  0  0  0  0  0  0  0  0  0  0
  149.4704  139.0055  152.4527 H   0  0  0  0  0  0  0  0  0  0  0  0
  1  2  2  0  0  0  0
  1 22  1  0  0  0  0
  2 17  1  0  0  0  0
  2  3  1  0  0  0  0
  3  4  2  0  0  0  0
  4  5  1  0  0  0  0
  4 23  1  0  0  0  0
  5  6  1  0  0  0  0
  5 15  1  0  0  0  0
  6 18  1  0  0  0  0
  6 13  1  0  0  0  0
  6  7  1  0  0  0  0
  7  8  1  0  0  0  0
  8 19  1  0  0  0  0
  8  9  1  0  0  0  0
  8 11  1  0  0  0  0
  9 10  1  0  0  0  0
  9 24  1  0  0  0  0
  9 25  1  0  0  0  0
 10 26  1  0  0  0  0
 11 20  1  0  0  0  0
 11 12  1  0  0  0  0
 11 13  1  0  0  0  0
 12 27  1  0  0  0  0
 13 21  1  0  0  0  0
 13 14  1  0  0  0  0
 14 28  1  0  0  0  0
 15 16  2  0  0  0  0
 15 17  1  0  0  0  0
M  CHG  1  17  -1
M  END
> <s_m_source_file>
AV-unprocessed.smi

> <i_m_source_file_index>
72

> <i_lp_mmshare_version>
43012

> <i_f3d_flags>
0

> <s_epik_input>
W05IMl1jMW5bY0hdbihjKD1PKW4xKVtDQEBIXTJPW0NASF0oW0NIMl1bT0hdKVtDQEBIXShbT0hdKVtDQEhdMltPSF0=

> <s_epik_cmdline>
J2VwaWtfcHl0aG9uJywgJy1waCcsICc3LjAnLCAnLXRuJywgJzgnLCAnLW1hJywgJzIwMCcsICctbWV0YWxfYmluZGluZycsICctaW1hZScsICc8aW5maWxlLm1hZT4nLCAnLW9tYWUnLCAnPG91dGZpbGUubWFlPic=

> <r_lp_tautomer_probability>
7.17554e-07

> <r_epik_Ionization_Penalty>
12.8705

> <r_epik_Ionization_Penalty_Charging>
5.64144

> <r_epik_Ionization_Penalty_Neutral>
7.22905

> <r_epik_State_Penalty>
3.30104

> <r_epik_Charging_Adjusted_Penalty>
8.94249

> <i_epik_Tot_Q>
-1

> <i_epik_Tot_abs_Q>
1

> <r_epik_Metal_State_Penalty>
0.529074

> <b_epik_Metal_Only>
1

> <s_epik_Chemistry_Notes>
This compound contains an acetal/aminal-like group ( X-CH(R)-Y where X, Y are N, S, or O) that may be acid/base labile, releasing an aldehyde.

> <s_lp_Force_Field>
OPLS_2005

> <r_lp_Energy>
37.824

> <b_lp_Chiralities_Consistent>
1

> <s_lp_Variant>
AV-unprocessed.smi:72-65

> <Gold.Version>
5.8.1

> <Gold.Id.Protein>
6NUR|6NUR_protein|mol2

> <Gold.PLP.Fitness>
44.3055

> <Gold.PLP.PLP>
-27.4857

> <Gold.PLP.part.hbond>
-5.8652

> <Gold.PLP.part.metal>
0.0000

> <Gold.PLP.part.buried>
-0.2708

> <Gold.PLP.part.nonpolar>
-20.6662

> <Gold.PLP.part.repulsive>
0.2510

> <Gold.PLP.ligand.clash>
0.0000

> <Gold.PLP.ligand.torsion>
0.0551

> <Gold.PLP.Chemscore.Hbond>
4.6400

> <Gold.PLP.Chemscore.CHOScore>
1.0000

> <Gold.PLP.Chemscore.Metal>
0.0000

> <Gold.Chemscore.Hbonds>
donor molecule, donor type, donor heavy atom, donor atom, acceptor molecule, acceptor atom, score
      L1  H    10    26       P1  8028  1.00
      L1  H    14    28       P1  7957  1.00
      P1  H  7997  8008       L1    17  2.00
      P1  H  8011  8017       L1     7  0.64
      L1  C     4    23       P1  8028  1.00

> <Gold.PLP.Chemscore.Internal.Correction>
0.0099

> <Gold.Rescore>
     Score         DG    S(hbond)    S(metal)    S(lipo)     H(rot)  DE(clash)    DE(int)     intcor
      4.20      -6.00       2.43        0.00      23.43       4.04       1.41       0.39       ----

> <Gold.Chemscore.Fitness>
4.2006

> <Gold.Chemscore.DG>
-6.0041

> <Gold.Chemscore.ZeroCoef>
-5.4800

> <Gold.Chemscore.Hbond>
2.4329

> <Gold.Chemscore.Metal>
0.0000

> <Gold.Chemscore.Lipo>
23.4293

> <Gold.Chemscore.Internal_Hbond>
0.0000

> <Gold.Chemscore.DEClash>
1.4124

> <Gold.Chemscore.DEInternal>
0.3911

> <Gold.Chemscore.Rot>
4.0403

> <Gold.Chemscore.Internal.Correction>
   9.000000E+99

> <Gold.Chemscore.Hbonds>
donor molecule, donor type, donor heavy atom, donor atom, acceptor molecule, acceptor atom, score
      L1  H    10    26       P1  8028  0.48
      L1  H    14    28       P1  7957  0.90
      P1  H  7997  8008       L1    17  0.27
      P1  H  8011  8017       L1     7  0.20

> <Gold.Chemscore.Hbond.Weighted>
-8.1260

> <Gold.Chemscore.Metal.Weighted>
-0.0000

> <Gold.Chemscore.Lipo.Weighted>
-2.7412

> <Gold.Chemscore.Internal_Hbond.Weighted>
0.0000

> <Gold.Chemscore.DEClash.Weighted>
1.4124

> <Gold.Chemscore.DEInternal.Weighted>
0.3911

> <Gold.Chemscore.Rot.Weighted>
10.3431

> <Gold.Chemscore.Internal.Correction.Weighted>
   9.000000E+99

> <Gold.Protein.RotatedTorsions>
[ 6907 6896 6895 6894 ] final   37.68 input  -60.11 | X-H torsion
[ 7974 7965 7964 7962 ] final  152.76 input  175.53 | X-H torsion
[ 8008 7997 7996 7995 ] final  -49.21 input   59.86 | X-H torsion
[ 10167 10162 10161 10158 ] final   92.88 input  -65.29 | X-H torsion
[ 10718 10713 10712 10709 ] final -130.24 input   66.30 | X-H torsion
[ 10763 10752 10751 10750 ] final -155.86 input  -60.55 | X-H torsion
[ 11005 11000 10999 10996 ] final   96.04 input  -57.11 | X-H torsion

> <Gold.Protein.ActiveResidues>
 VAL166  LYS551  ARG553  GLY616  TRP617  ASP618  TYR619  PRO620  LYS621  CYS622 
 ASP623  PHE694  ASN695  SER759  ASP760  ASP761  ALA762  ILE779  LEU786  VAL792 
 PHE793  MET794  SER795  GLU796  ALA797  LYS798  CYS799  TRP800  GLU811  SER814 

> <Gold.Protein.RotatedAtoms>
  152.1464  134.9023  160.0550 H   0  0  0  0  0  0  0  0  0  0  0  0  # atno 6907 bound_to 6896
  152.0071  133.3842  159.4213 H   0  0  0  0  0  0  0  0  0  0  0  0  # atno 6908 bound_to 6896
  150.6870  134.3692  159.5028 H   0  0  0  0  0  0  0  0  0  0  0  0  # atno 6909 bound_to 6896
  144.8201  139.6710  143.6104 H   0  0  0  0  0  0  0  0  0  0  0  0  # atno 7974 bound_to 7965
  154.4040  140.1302  156.4465 H   0  0  0  0  0  0  0  0  0  0  0  0  # atno 8008 bound_to 7997
  155.7408  140.3490  155.5083 H   0  0  0  0  0  0  0  0  0  0  0  0  # atno 8009 bound_to 7997
  155.9041  140.1024  157.1318 H   0  0  0  0  0  0  0  0  0  0  0  0  # atno 8010 bound_to 7997
  139.8234  144.6721  150.9490 H   0  0  0  0  0  0  0  0  0  0  0  0  # atno 10167 bound_to 10162
  156.2125  130.6927  151.0665 H   0  0  0  0  0  0  0  0  0  0  0  0  # atno 10718 bound_to 10713
  154.7756  135.3158  154.8099 H   0  0  0  0  0  0  0  0  0  0  0  0  # atno 10763 bound_to 10752
  153.8823  135.6833  153.4770 H   0  0  0  0  0  0  0  0  0  0  0  0  # atno 10764 bound_to 10752
  153.1379  135.4752  154.9387 H   0  0  0  0  0  0  0  0  0  0  0  0  # atno 10765 bound_to 10752
  139.8784  134.8930  156.4099 H   0  0  0  0  0  0  0  0  0  0  0  0  # atno 11005 bound_to 11000
  146.2506  139.6191  142.9430 LP  0  0  0  0  0  0  0  0  0  0  0  0  # atno 17320 bound_to 7965
  145.5125  141.0435  143.2480 LP  0  0  0  0  0  0  0  0  0  0  0  0  # atno 17321 bound_to 7965
  140.7812  143.4070  151.1055 LP  0  0  0  0  0  0  0  0  0  0  0  0  # atno 17342 bound_to 10162
  139.7729  143.8468  152.3124 LP  0  0  0  0  0  0  0  0  0  0  0  0  # atno 17343 bound_to 10162
  157.7046  131.0762  150.6710 LP  0  0  0  0  0  0  0  0  0  0  0  0  # atno 17370 bound_to 10713
  156.6770  130.4556  149.5639 LP  0  0  0  0  0  0  0  0  0  0  0  0  # atno 17371 bound_to 10713
  140.9207  133.7647  155.9903 LP  0  0  0  0  0  0  0  0  0  0  0  0  # atno 17394 bound_to 11000
  140.8442  134.3030  157.5301 LP  0  0  0  0  0  0  0  0  0  0  0  0  # atno 17395 bound_to 11000

$$$$
