AV-unprocessed.smi:1550|AV-procd|sdf|6229|dock7
  -GOLD-   22720 6403D 1   1.00000     0.00000
 Structure written by MMmdl.
 42 43  0  0  0  0  0  0  0  0  2 V2000
  149.3812  139.3838  154.0540 C   0  0  0  0  0  0  0  0  0  0  0  0
  150.6658  139.1055  154.8484 C   0  0  1  0  0  0  0  0  0  0  0  0
  150.5291  139.7391  156.1180 O   0  0  0  0  0  0  0  0  0  0  0  0
  151.6834  139.6996  156.9500 C   0  0  0  0  0  0  0  0  0  0  0  0
  151.6246  140.8804  157.9270 C   0  0  2  0  0  0  0  0  0  0  0  0
  151.3438  142.2119  157.2032 C   0  0  0  0  0  0  0  0  0  0  0  0
  151.3844  143.3826  158.1924 C   0  0  0  0  0  0  0  0  0  0  0  0
  152.7071  143.3589  158.9654 C   0  0  0  0  0  0  0  0  0  0  0  0
  152.9340  141.9743  159.5923 C   0  0  0  0  0  0  0  0  0  0  0  0
  152.8887  140.9720  158.5816 O   0  0  0  0  0  0  0  0  0  0  0  0
  150.8954  137.5962  155.0286 C   0  0  0  0  0  0  0  0  0  0  0  0
  151.8969  137.0736  154.5394 O   0  0  0  0  0  0  0  0  0  0  0  0
  149.9470  136.9471  155.7318 N   0  0  0  0  0  0  0  0  0  0  0  0
  149.8257  135.5738  156.0011 C   0  0  0  0  0  0  0  0  0  0  0  0
  149.4931  134.6323  155.0751 C   0  0  0  0  0  0  0  0  0  0  0  0
  149.3557  133.2213  155.4151 C   0  0  0  0  0  0  0  0  0  0  0  0
  148.9882  132.1330  154.4232 C   0  0  0  0  0  0  0  0  0  0  0  0
  148.8763  132.6452  153.1980 F   0  0  0  0  0  0  0  0  0  0  0  0
  149.9367  131.1972  154.3934 F   0  0  0  0  0  0  0  0  0  0  0  0
  147.8324  131.5510  154.7435 F   0  0  0  0  0  0  0  0  0  0  0  0
  149.5853  132.9786  156.7546 C   0  0  0  0  0  0  0  0  0  0  0  0
  149.9085  133.8509  157.7345 N   0  5  0  0  0  0  0  0  0  0  0  0
  150.0373  135.1675  157.4060 C   0  0  0  0  0  0  0  0  0  0  0  0
  150.3236  136.0175  158.2500 O   0  0  0  0  0  0  0  0  0  0  0  0
  149.4138  138.9131  153.0709 H   0  0  0  0  0  0  0  0  0  0  0  0
  149.2463  140.4547  153.9015 H   0  0  0  0  0  0  0  0  0  0  0  0
  148.4979  139.0127  154.5753 H   0  0  0  0  0  0  0  0  0  0  0  0
  151.5058  139.5505  154.3109 H   0  0  0  0  0  0  0  0  0  0  0  0
  151.7588  138.7633  157.5043 H   0  0  0  0  0  0  0  0  0  0  0  0
  152.5723  139.7802  156.3225 H   0  0  0  0  0  0  0  0  0  0  0  0
  150.8402  140.6948  158.6630 H   0  0  0  0  0  0  0  0  0  0  0  0
  152.0891  142.3696  156.4224 H   0  0  0  0  0  0  0  0  0  0  0  0
  150.3736  142.1774  156.7067 H   0  0  0  0  0  0  0  0  0  0  0  0
  151.2669  144.3306  157.6669 H   0  0  0  0  0  0  0  0  0  0  0  0
  150.5491  143.3037  158.8893 H   0  0  0  0  0  0  0  0  0  0  0  0
  153.5310  143.5905  158.2891 H   0  0  0  0  0  0  0  0  0  0  0  0
  152.7081  144.1291  159.7371 H   0  0  0  0  0  0  0  0  0  0  0  0
  153.9087  141.9387  160.0793 H   0  0  0  0  0  0  0  0  0  0  0  0
  152.1870  141.7660  160.3599 H   0  0  0  0  0  0  0  0  0  0  0  0
  149.2301  137.5192  156.1539 H   0  0  0  0  0  0  0  0  0  0  0  0
  149.2949  134.9138  154.0538 H   0  0  0  0  0  0  0  0  0  0  0  0
  149.4919  131.9228  157.0875 H   0  0  0  0  0  0  0  0  0  0  0  0
  1  2  1  0  0  0  0
  1 25  1  0  0  0  0
  1 26  1  0  0  0  0
  1 27  1  0  0  0  0
  2  3  1  0  0  0  0
  2 11  1  0  0  0  0
  2 28  1  0  0  0  0
  3  4  1  0  0  0  0
  4  5  1  0  0  0  0
  4 29  1  0  0  0  0
  4 30  1  0  0  0  0
  5 10  1  0  0  0  0
  5  6  1  0  0  0  0
  5 31  1  0  0  0  0
  6  7  1  0  0  0  0
  6 32  1  0  0  0  0
  6 33  1  0  0  0  0
  7  8  1  0  0  0  0
  7 34  1  0  0  0  0
  7 35  1  0  0  0  0
  8  9  1  0  0  0  0
  8 36  1  0  0  0  0
  8 37  1  0  0  0  0
  9 10  1  0  0  0  0
  9 38  1  0  0  0  0
  9 39  1  0  0  0  0
 11 12  2  0  0  0  0
 11 13  1  0  0  0  0
 13 14  1  0  0  0  0
 13 40  1  0  0  0  0
 14 23  1  0  0  0  0
 14 15  2  0  0  0  0
 15 16  1  0  0  0  0
 15 41  1  0  0  0  0
 16 17  1  0  0  0  0
 16 21  2  0  0  0  0
 17 18  1  0  0  0  0
 17 19  1  0  0  0  0
 17 20  1  0  0  0  0
 21 22  1  0  0  0  0
 21 42  1  0  0  0  0
 22 23  1  0  0  0  0
 23 24  2  0  0  0  0
M  CHG  1  22  -1
M  END
> <s_m_source_file>
AV-unprocessed.smi

> <i_m_source_file_index>
1550

> <i_lp_mmshare_version>
43012

> <i_f3d_flags>
0

> <s_epik_input>
TzFbQ0gyXVtDSDJdW0NIMl1bQ0gyXVtDQEhdMVtDSDJdT1tDQEBIXShbQ0gzXSlDKD1PKVtOSF1jMltjSF1jKEMoRikoRilGKVtjSF1bbkhdYzI9Tw==

> <s_epik_cmdline>
J2VwaWtfcHl0aG9uJywgJy1waCcsICc3LjAnLCAnLXRuJywgJzgnLCAnLW1hJywgJzIwMCcsICctbWV0YWxfYmluZGluZycsICctaW1hZScsICc8aW5maWxlLm1hZT4nLCAnLW9tYWUnLCAnPG91dGZpbGUubWFlPic=

> <r_epik_Ionization_Penalty>
2.54933

> <r_epik_Ionization_Penalty_Charging>
0.0583423

> <r_epik_Ionization_Penalty_Neutral>
2.49099

> <r_epik_State_Penalty>
2.65532

> <r_epik_Charging_Adjusted_Penalty>
2.71366

> <i_epik_Tot_Q>
-1

> <i_epik_Tot_abs_Q>
1

> <r_epik_Metal_State_Penalty>
0.516364

> <b_epik_Metal_Only>
0

> <s_lp_Force_Field>
OPLS_2005

> <r_lp_Energy>
27.7266

> <b_lp_Chiralities_Consistent>
1

> <s_lp_Variant>
AV-unprocessed.smi:1550-6

> <Gold.Version>
5.8.1

> <Gold.Id.Protein>
6NUR|6NUR_protein|mol2

> <Gold.PLP.Fitness>
45.9263

> <Gold.PLP.PLP>
-38.1961

> <Gold.PLP.part.hbond>
-3.1887

> <Gold.PLP.part.metal>
0.0000

> <Gold.PLP.part.buried>
-2.4442

> <Gold.PLP.part.nonpolar>
-33.2532

> <Gold.PLP.part.repulsive>
0.1655

> <Gold.PLP.ligand.clash>
0.0000

> <Gold.PLP.ligand.torsion>
0.9033

> <Gold.PLP.Chemscore.Hbond>
3.1648

> <Gold.PLP.Chemscore.CHOScore>
0.0000

> <Gold.PLP.Chemscore.Metal>
0.0000

> <Gold.Chemscore.Hbonds>
donor molecule, donor type, donor heavy atom, donor atom, acceptor molecule, acceptor atom, score
      P1  H  6896  6907       L1    24  0.41
      P1  H  6896  6909       L1    22  1.70
      P1  H 10752 10764       L1    12  1.00

> <Gold.PLP.Chemscore.Internal.Correction>
0.0423

> <Gold.Rescore>
     Score         DG    S(hbond)    S(metal)    S(lipo)     H(rot)  DE(clash)    DE(int)     intcor
     16.26     -17.33       1.82        0.00      89.20       1.82       0.17       0.90       ----

> <Gold.Chemscore.Fitness>
16.2615

> <Gold.Chemscore.DG>
-17.3253

> <Gold.Chemscore.ZeroCoef>
-5.4800

> <Gold.Chemscore.Hbond>
1.8195

> <Gold.Chemscore.Metal>
0.0000

> <Gold.Chemscore.Lipo>
89.2000

> <Gold.Chemscore.Internal_Hbond>
0.0000

> <Gold.Chemscore.DEClash>
0.1657

> <Gold.Chemscore.DEInternal>
0.8980

> <Gold.Chemscore.Rot>
1.8236

> <Gold.Chemscore.Internal.Correction>
   9.000000E+99

> <Gold.Chemscore.Hbonds>
donor molecule, donor type, donor heavy atom, donor atom, acceptor molecule, acceptor atom, score
      P1  H  6896  6907       L1    24  0.29
      P1  H  6896  6909       L1    22  0.47
      P1  H 10752 10764       L1    12  0.95

> <Gold.Chemscore.Hbond.Weighted>
-6.0773

> <Gold.Chemscore.Metal.Weighted>
-0.0000

> <Gold.Chemscore.Lipo.Weighted>
-10.4364

> <Gold.Chemscore.Internal_Hbond.Weighted>
0.0000

> <Gold.Chemscore.DEClash.Weighted>
0.1657

> <Gold.Chemscore.DEInternal.Weighted>
0.8980

> <Gold.Chemscore.Rot.Weighted>
4.6684

> <Gold.Chemscore.Internal.Correction.Weighted>
   9.000000E+99

> <Gold.Protein.RotatedTorsions>
[ 6907 6896 6895 6894 ] final  -16.31 input  -60.11 | X-H torsion
[ 7974 7965 7964 7962 ] final    2.11 input  175.53 | X-H torsion
[ 8008 7997 7996 7995 ] final -129.05 input   59.86 | X-H torsion
[ 10167 10162 10161 10158 ] final   60.11 input  -65.29 | X-H torsion
[ 10718 10713 10712 10709 ] final   -7.07 input   66.30 | X-H torsion
[ 10763 10752 10751 10750 ] final  -79.40 input  -60.55 | X-H torsion
[ 11005 11000 10999 10996 ] final -141.04 input  -57.11 | X-H torsion

> <Gold.Protein.ActiveResidues>
 VAL166  LYS551  ARG553  GLY616  TRP617  ASP618  TYR619  PRO620  LYS621  CYS622 
 ASP623  PHE694  ASN695  SER759  ASP760  ASP761  ALA762  ILE779  LEU786  VAL792 
 PHE793  MET794  SER795  GLU796  ALA797  LYS798  CYS799  TRP800  GLU811  SER814 

> <Gold.Protein.RotatedAtoms>
  151.3105  135.0793  159.9270 H   0  0  0  0  0  0  0  0  0  0  0  0  # atno 6907 bound_to 6896
  152.5278  133.9741  159.7786 H   0  0  0  0  0  0  0  0  0  0  0  0  # atno 6908 bound_to 6896
  151.0043  133.5974  159.2721 H   0  0  0  0  0  0  0  0  0  0  0  0  # atno 6909 bound_to 6896
  146.2443  140.0885  142.8353 H   0  0  0  0  0  0  0  0  0  0  0  0  # atno 7974 bound_to 7965
  155.2728  140.0440  157.3008 H   0  0  0  0  0  0  0  0  0  0  0  0  # atno 8008 bound_to 7997
  154.5643  140.2355  155.8256 H   0  0  0  0  0  0  0  0  0  0  0  0  # atno 8009 bound_to 7997
  156.2072  140.3009  155.9661 H   0  0  0  0  0  0  0  0  0  0  0  0  # atno 8010 bound_to 7997
  140.1692  144.4294  150.6670 H   0  0  0  0  0  0  0  0  0  0  0  0  # atno 10167 bound_to 10162
  156.7225  130.5155  149.5864 H   0  0  0  0  0  0  0  0  0  0  0  0  # atno 10718 bound_to 10713
  154.5381  135.5697  153.6816 H   0  0  0  0  0  0  0  0  0  0  0  0  # atno 10763 bound_to 10752
  152.9956  135.6221  154.2538 H   0  0  0  0  0  0  0  0  0  0  0  0  # atno 10764 bound_to 10752
  154.2468  135.2860  155.2812 H   0  0  0  0  0  0  0  0  0  0  0  0  # atno 10765 bound_to 10752
  140.8363  134.2455  157.4832 H   0  0  0  0  0  0  0  0  0  0  0  0  # atno 11005 bound_to 11000
  145.0671  140.9129  143.4904 LP  0  0  0  0  0  0  0  0  0  0  0  0  # atno 17320 bound_to 7965
  145.1012  139.2821  143.5685 LP  0  0  0  0  0  0  0  0  0  0  0  0  # atno 17321 bound_to 7965
  140.6593  143.2247  151.5894 LP  0  0  0  0  0  0  0  0  0  0  0  0  # atno 17342 bound_to 10162
  139.5346  144.2819  152.1222 LP  0  0  0  0  0  0  0  0  0  0  0  0  # atno 17343 bound_to 10162
  156.1584  130.6357  151.0687 LP  0  0  0  0  0  0  0  0  0  0  0  0  # atno 17370 bound_to 10713
  157.6892  131.0815  150.7156 LP  0  0  0  0  0  0  0  0  0  0  0  0  # atno 17371 bound_to 10713
  139.8704  134.9612  156.4390 LP  0  0  0  0  0  0  0  0  0  0  0  0  # atno 17394 bound_to 11000
  140.8943  133.7825  155.9607 LP  0  0  0  0  0  0  0  0  0  0  0  0  # atno 17395 bound_to 11000

$$$$
