AV-unprocessed.smi:861|AV-procd|sdf|3972|dock7
  -GOLD-   22720 1443D 1   1.00000     0.00000
 Structure written by MMmdl.
 45 46  0  0  0  0  0  0  0  0  3 V2000
  146.0346  132.9741  152.1942 C   0  0  0  0  0  0  0  0  0  0  0  0
  145.0321  134.1369  152.0935 C   0  0  0  0  0  0  0  0  0  0  0  0
  144.2713  134.0683  150.7599 C   0  0  0  0  0  0  0  0  0  0  0  0
  145.7028  135.5156  152.2685 C   0  0  0  0  0  0  0  0  0  0  0  0
  144.7359  136.7074  152.1183 C   0  0  0  0  0  0  0  0  0  0  0  0
  145.1235  137.8692  152.9591 N   0  3  1  0  0  0  0  0  0  0  0  0
  144.9330  137.6402  154.4130 C   0  0  0  0  0  0  0  0  0  0  0  0
  145.3324  138.8905  155.2119 C   0  0  0  0  0  0  0  0  0  0  0  0
  146.6785  139.2362  154.9125 O   0  0  0  0  0  0  0  0  0  0  0  0
  146.8644  139.5600  153.5397 C   0  0  1  0  0  0  0  0  0  0  0  0
  148.3313  140.0001  153.3745 C   0  0  0  0  0  0  0  0  0  0  0  0
  149.2660  138.8823  153.3647 N   0  0  0  0  0  0  0  0  0  0  0  0
  150.4503  138.8977  154.1157 C   0  0  0  0  0  0  0  0  0  0  0  0
  150.8596  139.9675  154.9463 C   0  0  0  0  0  0  0  0  0  0  0  0
  152.0742  139.8442  155.6425 C   0  0  0  0  0  0  0  0  0  0  0  0
  152.8081  138.6577  155.4682 C   0  0  0  0  0  0  0  0  0  0  0  0
  152.3996  137.6460  154.6705 N   0  0  0  0  0  0  0  0  0  0  0  0
  151.2333  137.7940  154.0182 N   0  3  0  0  0  0  0  0  0  0  0  0
  146.5100  138.3222  152.6872 C   0  0  0  0  0  0  0  0  0  0  0  0
  146.8207  133.0621  151.4434 H   0  0  0  0  0  0  0  0  0  0  0  0
  145.5372  132.0161  152.0390 H   0  0  0  0  0  0  0  0  0  0  0  0
  146.5100  132.9299  153.1734 H   0  0  0  0  0  0  0  0  0  0  0  0
  144.2960  134.0149  152.8892 H   0  0  0  0  0  0  0  0  0  0  0  0
  144.9461  134.1901  149.9117 H   0  0  0  0  0  0  0  0  0  0  0  0
  143.5127  134.8490  150.6970 H   0  0  0  0  0  0  0  0  0  0  0  0
  143.7622  133.1107  150.6453 H   0  0  0  0  0  0  0  0  0  0  0  0
  146.1975  135.5610  153.2397 H   0  0  0  0  0  0  0  0  0  0  0  0
  146.4932  135.6012  151.5235 H   0  0  0  0  0  0  0  0  0  0  0  0
  144.6599  137.0151  151.0744 H   0  0  0  0  0  0  0  0  0  0  0  0
  143.7386  136.3861  152.4186 H   0  0  0  0  0  0  0  0  0  0  0  0
  143.8945  137.3975  154.6332 H   0  0  0  0  0  0  0  0  0  0  0  0
  145.5355  136.7882  154.7316 H   0  0  0  0  0  0  0  0  0  0  0  0
  144.6688  139.7275  154.9884 H   0  0  0  0  0  0  0  0  0  0  0  0
  145.2479  138.6942  156.2809 H   0  0  0  0  0  0  0  0  0  0  0  0
  146.2035  140.3897  153.2825 H   0  0  0  0  0  0  0  0  0  0  0  0
  148.4524  140.5828  152.4610 H   0  0  0  0  0  0  0  0  0  0  0  0
  148.6077  140.6676  154.1909 H   0  0  0  0  0  0  0  0  0  0  0  0
  149.0186  138.0534  152.8427 H   0  0  0  0  0  0  0  0  0  0  0  0
  150.2717  140.8660  155.0578 H   0  0  0  0  0  0  0  0  0  0  0  0
  152.4328  140.6311  156.2899 H   0  0  0  0  0  0  0  0  0  0  0  0
  153.7476  138.5144  155.9814 H   0  0  0  0  0  0  0  0  0  0  0  0
  147.2047  137.5071  152.8977 H   0  0  0  0  0  0  0  0  0  0  0  0
  146.6108  138.5632  151.6282 H   0  0  0  0  0  0  0  0  0  0  0  0
  144.5164  138.6325  152.6960 H   0  0  0  0  0  0  0  0  0  0  0  0
  150.9182  137.0317  153.4175 H   0  0  0  0  0  0  0  0  0  0  0  0
  1  2  1  0  0  0  0
  1 20  1  0  0  0  0
  1 21  1  0  0  0  0
  1 22  1  0  0  0  0
  2  3  1  0  0  0  0
  2  4  1  0  0  0  0
  2 23  1  0  0  0  0
  3 24  1  0  0  0  0
  3 25  1  0  0  0  0
  3 26  1  0  0  0  0
  4  5  1  0  0  0  0
  4 27  1  0  0  0  0
  4 28  1  0  0  0  0
  5  6  1  0  0  0  0
  5 29  1  0  0  0  0
  5 30  1  0  0  0  0
  6 19  1  0  0  0  0
  6  7  1  0  0  0  0
  6 44  1  0  0  0  0
  7  8  1  0  0  0  0
  7 31  1  0  0  0  0
  7 32  1  0  0  0  0
  8  9  1  0  0  0  0
  8 33  1  0  0  0  0
  8 34  1  0  0  0  0
  9 10  1  0  0  0  0
 10 11  1  0  0  0  0
 10 19  1  0  0  0  0
 10 35  1  0  0  0  0
 11 12  1  0  0  0  0
 11 36  1  0  0  0  0
 11 37  1  0  0  0  0
 12 13  1  0  0  0  0
 12 38  1  0  0  0  0
 13 18  1  0  0  0  0
 13 14  2  0  0  0  0
 14 15  1  0  0  0  0
 14 39  1  0  0  0  0
 15 16  2  0  0  0  0
 15 40  1  0  0  0  0
 16 17  1  0  0  0  0
 16 41  1  0  0  0  0
 17 18  2  0  0  0  0
 18 45  1  0  0  0  0
 19 42  1  0  0  0  0
 19 43  1  0  0  0  0
M  CHG  1   6   1
M  CHG  1  18   1
M  END
> <s_m_source_file>
AV-unprocessed.smi

> <i_m_source_file_index>
861

> <i_lp_mmshare_version>
43012

> <i_f3d_flags>
0

> <s_epik_input>
W0NIM11bQ0hdKFtDSDNdKVtDSDJdW0NIMl1OMVtDSDJdW0NIMl1PW0NASF0oW0NIMl0xKVtDSDJdW05IXWMyW2NIXVtjSF1bY0hdbm4y

> <s_epik_cmdline>
J2VwaWtfcHl0aG9uJywgJy1waCcsICc3LjAnLCAnLXRuJywgJzgnLCAnLW1hJywgJzIwMCcsICctbWV0YWxfYmluZGluZycsICctaW1hZScsICc8aW5maWxlLm1hZT4nLCAnLW9tYWUnLCAnPG91dGZpbGUubWFlPic=

> <r_lp_tautomer_probability>
0.966961

> <r_epik_Ionization_Penalty>
2.478

> <r_epik_Ionization_Penalty_Charging>
2.47799

> <r_epik_Ionization_Penalty_Neutral>
3.15286e-06

> <r_epik_State_Penalty>
2.10794

> <r_epik_Charging_Adjusted_Penalty>
4.58594

> <i_epik_Tot_Q>
2

> <i_epik_Tot_abs_Q>
2

> <r_epik_Metal_State_Penalty>
2.11378

> <b_epik_Metal_Only>
0

> <s_lp_Force_Field>
OPLS_2005

> <r_lp_Energy>
34.6119

> <b_lp_Chiralities_Consistent>
1

> <s_lp_Variant>
AV-unprocessed.smi:861-7

> <Gold.Version>
5.8.1

> <Gold.Id.Protein>
6NUR|6NUR_protein|mol2

> <Gold.PLP.Fitness>
49.5421

> <Gold.PLP.PLP>
-30.6739

> <Gold.PLP.part.hbond>
-5.1869

> <Gold.PLP.part.metal>
0.0000

> <Gold.PLP.part.buried>
4.4051

> <Gold.PLP.part.nonpolar>
-29.1820

> <Gold.PLP.part.repulsive>
0.3878

> <Gold.PLP.ligand.clash>
0.0000

> <Gold.PLP.ligand.torsion>
0.4650

> <Gold.PLP.Chemscore.Hbond>
6.5880

> <Gold.PLP.Chemscore.CHOScore>
0.0000

> <Gold.PLP.Chemscore.Metal>
0.0000

> <Gold.Chemscore.Hbonds>
donor molecule, donor type, donor heavy atom, donor atom, acceptor molecule, acceptor atom, score
      L1  H     6    44       P1 10175  2.00
      L1  H    12    38       P1  7948  1.95
      L1  H    18    45       P1  7949  1.00
      P1  H 10752 10765       L1    17  0.57

> <Gold.PLP.Chemscore.Internal.Correction>
0.0343

> <Gold.Rescore>
     Score         DG    S(hbond)    S(metal)    S(lipo)     H(rot)  DE(clash)    DE(int)     intcor
     15.31     -19.27       2.82        0.00      76.10       1.78       3.49       0.47       ----

> <Gold.Chemscore.Fitness>
15.3122

> <Gold.Chemscore.DG>
-19.2713

> <Gold.Chemscore.ZeroCoef>
-5.4800

> <Gold.Chemscore.Hbond>
2.8244

> <Gold.Chemscore.Metal>
0.0000

> <Gold.Chemscore.Lipo>
76.1025

> <Gold.Chemscore.Internal_Hbond>
0.0000

> <Gold.Chemscore.DEClash>
3.4913

> <Gold.Chemscore.DEInternal>
0.4678

> <Gold.Chemscore.Rot>
1.7759

> <Gold.Chemscore.Internal.Correction>
   9.000000E+99

> <Gold.Chemscore.Hbonds>
donor molecule, donor type, donor heavy atom, donor atom, acceptor molecule, acceptor atom, score
      L1  H     6    44       P1 10175  0.94
      L1  H    12    38       P1  7948  0.92
      L1  H    18    45       P1  7949  0.11
      P1  H 10752 10765       L1    17  0.28

> <Gold.Chemscore.Hbond.Weighted>
-9.4335

> <Gold.Chemscore.Metal.Weighted>
-0.0000

> <Gold.Chemscore.Lipo.Weighted>
-8.9040

> <Gold.Chemscore.Internal_Hbond.Weighted>
0.0000

> <Gold.Chemscore.DEClash.Weighted>
3.4913

> <Gold.Chemscore.DEInternal.Weighted>
0.4678

> <Gold.Chemscore.Rot.Weighted>
4.5462

> <Gold.Chemscore.Internal.Correction.Weighted>
   9.000000E+99

> <Gold.Protein.RotatedTorsions>
[ 6907 6896 6895 6894 ] final   23.01 input  -60.11 | X-H torsion
[ 7974 7965 7964 7962 ] final   75.88 input  175.53 | X-H torsion
[ 8008 7997 7996 7995 ] final   -9.40 input   59.86 | X-H torsion
[ 10167 10162 10161 10158 ] final  101.31 input  -65.29 | X-H torsion
[ 10718 10713 10712 10709 ] final  148.60 input   66.30 | X-H torsion
[ 10763 10752 10751 10750 ] final  163.47 input  -60.55 | X-H torsion
[ 11005 11000 10999 10996 ] final  -11.18 input  -57.11 | X-H torsion

> <Gold.Protein.ActiveResidues>
 VAL166  LYS551  ARG553  GLY616  TRP617  ASP618  TYR619  PRO620  LYS621  CYS622 
 ASP623  PHE694  ASN695  SER759  ASP760  ASP761  ALA762  ILE779  LEU786  VAL792 
 PHE793  MET794  SER795  GLU796  ALA797  LYS798  CYS799  TRP800  GLU811  SER814 

> <Gold.Protein.RotatedAtoms>
  151.9358  135.0236  160.0532 H   0  0  0  0  0  0  0  0  0  0  0  0  # atno 6907 bound_to 6896
  152.2079  133.4884  159.5102 H   0  0  0  0  0  0  0  0  0  0  0  0  # atno 6908 bound_to 6896
  150.6969  134.1423  159.4152 H   0  0  0  0  0  0  0  0  0  0  0  0  # atno 6909 bound_to 6896
  145.7100  139.2611  143.1656 H   0  0  0  0  0  0  0  0  0  0  0  0  # atno 7974 bound_to 7965
  154.5651  140.2356  155.8276 H   0  0  0  0  0  0  0  0  0  0  0  0  # atno 8008 bound_to 7997
  156.2061  140.3039  155.9589 H   0  0  0  0  0  0  0  0  0  0  0  0  # atno 8009 bound_to 7997
  155.2817  140.0423  157.3006 H   0  0  0  0  0  0  0  0  0  0  0  0  # atno 8010 bound_to 7997
  139.7449  144.7001  151.0519 H   0  0  0  0  0  0  0  0  0  0  0  0  # atno 10167 bound_to 10162
  157.3065  131.0880  151.1349 H   0  0  0  0  0  0  0  0  0  0  0  0  # atno 10718 bound_to 10713
  154.2942  135.2760  155.2641 H   0  0  0  0  0  0  0  0  0  0  0  0  # atno 10763 bound_to 10752
  154.5106  135.5783  153.6605 H   0  0  0  0  0  0  0  0  0  0  0  0  # atno 10764 bound_to 10752
  152.9910  135.6180  154.3109 H   0  0  0  0  0  0  0  0  0  0  0  0  # atno 10765 bound_to 10752
  140.7525  133.8580  155.9057 H   0  0  0  0  0  0  0  0  0  0  0  0  # atno 11005 bound_to 11000
  146.0721  140.7857  142.9683 LP  0  0  0  0  0  0  0  0  0  0  0  0  # atno 17320 bound_to 7965
  144.6944  140.3358  143.7208 LP  0  0  0  0  0  0  0  0  0  0  0  0  # atno 17321 bound_to 7965
  140.7791  143.4879  150.9932 LP  0  0  0  0  0  0  0  0  0  0  0  0  # atno 17342 bound_to 10162
  139.8567  143.7368  152.3175 LP  0  0  0  0  0  0  0  0  0  0  0  0  # atno 17343 bound_to 10162
  157.2688  130.6694  149.6009 LP  0  0  0  0  0  0  0  0  0  0  0  0  # atno 17370 bound_to 10713
  155.9675  130.4485  150.5624 LP  0  0  0  0  0  0  0  0  0  0  0  0  # atno 17371 bound_to 10713
  140.9737  134.1497  157.4554 LP  0  0  0  0  0  0  0  0  0  0  0  0  # atno 17394 bound_to 11000
  139.8785  134.9987  156.5916 LP  0  0  0  0  0  0  0  0  0  0  0  0  # atno 17395 bound_to 11000

$$$$
