AV-unprocessed.smi:1403|AV-procd|sdf|5701|dock5
  -GOLD-   22720 5333D 1   1.00000     0.00000
 Structure written by MMmdl.
 35 36  0  0  0  0  0  0  0  0  2 V2000
  149.9730  141.5353  155.7794 C   0  0  0  0  0  0  0  0  0  0  0  0
  151.2661  141.0876  156.4752 C   0  0  2  0  0  0  0  0  0  0  0  0
  151.4171  139.6410  156.3356 N   0  0  0  0  0  0  0  0  0  0  0  0
  151.2266  138.9317  155.2128 C   0  0  0  0  0  0  0  0  0  0  0  0
  150.7958  139.4134  154.1655 O   0  0  0  0  0  0  0  0  0  0  0  0
  151.6041  137.4499  155.2846 C   0  0  0  0  0  0  0  0  0  0  0  0
  150.6237  136.7066  156.0902 N   0  0  0  0  0  0  0  0  0  0  0  0
  149.4150  136.3558  155.4625 C   0  0  0  0  0  0  0  0  0  0  0  0
  148.4314  135.7133  156.1195 C   0  0  0  0  0  0  0  0  0  0  0  0
  148.6448  135.3769  157.5213 C   0  0  0  0  0  0  0  0  0  0  0  0
  147.7580  134.7894  158.1375 O   0  0  0  0  0  0  0  0  0  0  0  0
  149.8346  135.7367  158.0862 N   0  5  0  0  0  0  0  0  0  0  0  0
  150.8240  136.3965  157.4067 C   0  0  0  0  0  0  0  0  0  0  0  0
  151.8848  136.7203  157.9409 O   0  0  0  0  0  0  0  0  0  0  0  0
  151.2939  141.4940  157.9654 C   0  0  2  0  0  0  0  0  0  0  0  0
  151.3372  143.0027  158.2421 C   0  0  0  0  0  0  0  0  0  0  0  0
  152.0287  143.0539  159.5848 C   0  0  0  0  0  0  0  0  0  0  0  0
  153.0596  141.9413  159.4358 C   0  0  0  0  0  0  0  0  0  0  0  0
  152.4359  140.9480  158.6276 O   0  0  0  0  0  0  0  0  0  0  0  0
  149.8438  142.6157  155.8498 H   0  0  0  0  0  0  0  0  0  0  0  0
  149.0962  141.0656  156.2264 H   0  0  0  0  0  0  0  0  0  0  0  0
  149.9872  141.2748  154.7206 H   0  0  0  0  0  0  0  0  0  0  0  0
  152.0900  141.5993  155.9751 H   0  0  0  0  0  0  0  0  0  0  0  0
  151.7702  139.1484  157.1431 H   0  0  0  0  0  0  0  0  0  0  0  0
  151.6608  137.0285  154.2795 H   0  0  0  0  0  0  0  0  0  0  0  0
  152.6125  137.3571  155.6911 H   0  0  0  0  0  0  0  0  0  0  0  0
  149.3352  136.6492  154.4259 H   0  0  0  0  0  0  0  0  0  0  0  0
  147.5068  135.4579  155.6233 H   0  0  0  0  0  0  0  0  0  0  0  0
  150.4144  141.0866  158.4661 H   0  0  0  0  0  0  0  0  0  0  0  0
  151.9430  143.5342  157.5086 H   0  0  0  0  0  0  0  0  0  0  0  0
  150.3474  143.4594  158.2529 H   0  0  0  0  0  0  0  0  0  0  0  0
  152.4773  144.0242  159.8005 H   0  0  0  0  0  0  0  0  0  0  0  0
  151.3237  142.8137  160.3814 H   0  0  0  0  0  0  0  0  0  0  0  0
  153.9422  142.3107  158.9126 H   0  0  0  0  0  0  0  0  0  0  0  0
  153.3800  141.5348  160.3951 H   0  0  0  0  0  0  0  0  0  0  0  0
  1  2  1  0  0  0  0
  1 20  1  0  0  0  0
  1 21  1  0  0  0  0
  1 22  1  0  0  0  0
  2  3  1  0  0  0  0
  2 15  1  0  0  0  0
  2 23  1  0  0  0  0
  3  4  1  0  0  0  0
  3 24  1  0  0  0  0
  4  5  2  0  0  0  0
  4  6  1  0  0  0  0
  6  7  1  0  0  0  0
  6 25  1  0  0  0  0
  6 26  1  0  0  0  0
  7 13  1  0  0  0  0
  7  8  1  0  0  0  0
  8  9  2  0  0  0  0
  8 27  1  0  0  0  0
  9 10  1  0  0  0  0
  9 28  1  0  0  0  0
 10 11  2  0  0  0  0
 10 12  1  0  0  0  0
 12 13  1  0  0  0  0
 13 14  2  0  0  0  0
 15 19  1  0  0  0  0
 15 16  1  0  0  0  0
 15 29  1  0  0  0  0
 16 17  1  0  0  0  0
 16 30  1  0  0  0  0
 16 31  1  0  0  0  0
 17 18  1  0  0  0  0
 17 32  1  0  0  0  0
 17 33  1  0  0  0  0
 18 19  1  0  0  0  0
 18 34  1  0  0  0  0
 18 35  1  0  0  0  0
M  CHG  1  12  -1
M  END
> <s_m_source_file>
AV-unprocessed.smi

> <i_m_source_file_index>
1403

> <i_lp_mmshare_version>
43012

> <i_f3d_flags>
0

> <s_epik_input>
TzFbQ0gyXVtDSDJdW0NIMl1bQ0BIXTFbQ0BIXShbQ0gzXSlbTkhdQyg9TylbQ0gyXW4yW2NIXVtjSF1jKD1PKVtuSF1jMj1P

> <s_epik_cmdline>
J2VwaWtfcHl0aG9uJywgJy1waCcsICc3LjAnLCAnLXRuJywgJzgnLCAnLW1hJywgJzIwMCcsICctbWV0YWxfYmluZGluZycsICctaW1hZScsICc8aW5maWxlLm1hZT4nLCAnLW9tYWUnLCAnPG91dGZpbGUubWFlPic=

> <r_lp_tautomer_probability>
0.999537

> <r_epik_Ionization_Penalty>
3.07438

> <r_epik_Ionization_Penalty_Charging>
2.82466e-08

> <r_epik_Ionization_Penalty_Neutral>
3.07438

> <r_epik_State_Penalty>
3.07341

> <r_epik_Charging_Adjusted_Penalty>
3.07341

> <i_epik_Tot_Q>
-1

> <i_epik_Tot_abs_Q>
1

> <r_epik_Metal_State_Penalty>
0.45947

> <b_epik_Metal_Only>
1

> <s_lp_Force_Field>
OPLS_2005

> <r_lp_Energy>
29.4252

> <b_lp_Chiralities_Consistent>
1

> <s_lp_Variant>
AV-unprocessed.smi:1403-5

> <Gold.Version>
5.8.1

> <Gold.Id.Protein>
6NUR|6NUR_protein|mol2

> <Gold.PLP.Fitness>
36.8520

> <Gold.PLP.PLP>
-26.7411

> <Gold.PLP.part.hbond>
-2.0993

> <Gold.PLP.part.metal>
0.0000

> <Gold.PLP.part.buried>
-4.2727

> <Gold.PLP.part.nonpolar>
-21.1407

> <Gold.PLP.part.repulsive>
0.2883

> <Gold.PLP.ligand.clash>
0.0000

> <Gold.PLP.ligand.torsion>
0.6304

> <Gold.PLP.Chemscore.Hbond>
2.9840

> <Gold.PLP.Chemscore.CHOScore>
0.7974

> <Gold.PLP.Chemscore.Metal>
0.0000

> <Gold.Chemscore.Hbonds>
donor molecule, donor type, donor heavy atom, donor atom, acceptor molecule, acceptor atom, score
      P1  H  6896  6909       L1    12  1.98
      P1  H  7989  7998       L1     5  1.00
      L1  C     8    27       P1  7948  0.81

> <Gold.PLP.Chemscore.Internal.Correction>
0.0276

> <Gold.Rescore>
     Score         DG    S(hbond)    S(metal)    S(lipo)     H(rot)  DE(clash)    DE(int)     intcor
     12.31     -13.92       1.75        0.00      65.70       1.99       0.05       1.56       ----

> <Gold.Chemscore.Fitness>
12.3060

> <Gold.Chemscore.DG>
-13.9173

> <Gold.Chemscore.ZeroCoef>
-5.4800

> <Gold.Chemscore.Hbond>
1.7530

> <Gold.Chemscore.Metal>
0.0000

> <Gold.Chemscore.Lipo>
65.7017

> <Gold.Chemscore.Internal_Hbond>
0.0000

> <Gold.Chemscore.DEClash>
0.0471

> <Gold.Chemscore.DEInternal>
1.5642

> <Gold.Chemscore.Rot>
1.9940

> <Gold.Chemscore.Internal.Correction>
   9.000000E+99

> <Gold.Chemscore.Hbonds>
donor molecule, donor type, donor heavy atom, donor atom, acceptor molecule, acceptor atom, score
      P1  H  6896  6909       L1    12  0.56
      P1  H  7989  7998       L1     5  0.96

> <Gold.Chemscore.Hbond.Weighted>
-5.8549

> <Gold.Chemscore.Metal.Weighted>
-0.0000

> <Gold.Chemscore.Lipo.Weighted>
-7.6871

> <Gold.Chemscore.Internal_Hbond.Weighted>
0.0000

> <Gold.Chemscore.DEClash.Weighted>
0.0471

> <Gold.Chemscore.DEInternal.Weighted>
1.5642

> <Gold.Chemscore.Rot.Weighted>
5.1047

> <Gold.Chemscore.Internal.Correction.Weighted>
   9.000000E+99

> <Gold.Protein.RotatedTorsions>
[ 6907 6896 6895 6894 ] final   53.66 input  -60.11 | X-H torsion
[ 7974 7965 7964 7962 ] final  -88.49 input  175.53 | X-H torsion
[ 8008 7997 7996 7995 ] final  147.96 input   59.86 | X-H torsion
[ 10167 10162 10161 10158 ] final  -62.97 input  -65.29 | X-H torsion
[ 10718 10713 10712 10709 ] final   43.78 input   66.30 | X-H torsion
[ 10763 10752 10751 10750 ] final   13.82 input  -60.55 | X-H torsion
[ 11005 11000 10999 10996 ] final  -62.18 input  -57.11 | X-H torsion

> <Gold.Protein.ActiveResidues>
 VAL166  LYS551  ARG553  GLY616  TRP617  ASP618  TYR619  PRO620  LYS621  CYS622 
 ASP623  PHE694  ASN695  SER759  ASP760  ASP761  ALA762  ILE779  LEU786  VAL792 
 PHE793  MET794  SER795  GLU796  ALA797  LYS798  CYS799  TRP800  GLU811  SER814 

> <Gold.Protein.RotatedAtoms>
  152.3359  134.7198  160.0276 H   0  0  0  0  0  0  0  0  0  0  0  0  # atno 6907 bound_to 6896
  151.7599  133.3327  159.3423 H   0  0  0  0  0  0  0  0  0  0  0  0  # atno 6908 bound_to 6896
  150.7450  134.6047  159.6099 H   0  0  0  0  0  0  0  0  0  0  0  0  # atno 6909 bound_to 6896
  145.4524  140.9561  143.2015 H   0  0  0  0  0  0  0  0  0  0  0  0  # atno 7974 bound_to 7965
  156.2807  140.2141  156.5622 H   0  0  0  0  0  0  0  0  0  0  0  0  # atno 8008 bound_to 7997
  154.7204  140.0504  157.0656 H   0  0  0  0  0  0  0  0  0  0  0  0  # atno 8009 bound_to 7997
  155.0486  140.3154  155.4702 H   0  0  0  0  0  0  0  0  0  0  0  0  # atno 8010 bound_to 7997
  140.5903  143.2340  151.6154 H   0  0  0  0  0  0  0  0  0  0  0  0  # atno 10167 bound_to 10162
  157.4197  130.7962  149.7504 H   0  0  0  0  0  0  0  0  0  0  0  0  # atno 10718 bound_to 10713
  153.1683  135.6808  153.8644 H   0  0  0  0  0  0  0  0  0  0  0  0  # atno 10763 bound_to 10752
  153.8017  135.3155  155.3392 H   0  0  0  0  0  0  0  0  0  0  0  0  # atno 10764 bound_to 10752
  154.7980  135.4795  154.0299 H   0  0  0  0  0  0  0  0  0  0  0  0  # atno 10765 bound_to 10752
  141.1350  133.6637  156.5487 H   0  0  0  0  0  0  0  0  0  0  0  0  # atno 11005 bound_to 11000
  144.8053  139.6063  143.7053 LP  0  0  0  0  0  0  0  0  0  0  0  0  # atno 17320 bound_to 7965
  146.2497  139.6172  142.9436 LP  0  0  0  0  0  0  0  0  0  0  0  0  # atno 17321 bound_to 7965
  139.5223  144.3167  152.0946 LP  0  0  0  0  0  0  0  0  0  0  0  0  # atno 17342 bound_to 10162
  140.2330  144.4348  150.6292 LP  0  0  0  0  0  0  0  0  0  0  0  0  # atno 17343 bound_to 10162
  155.9876  130.3965  150.3155 LP  0  0  0  0  0  0  0  0  0  0  0  0  # atno 17370 bound_to 10713
  157.1302  131.0269  151.2972 LP  0  0  0  0  0  0  0  0  0  0  0  0  # atno 17371 bound_to 10713
  140.4081  134.7297  157.4819 LP  0  0  0  0  0  0  0  0  0  0  0  0  # atno 17394 bound_to 11000
  140.0447  134.6216  155.8936 LP  0  0  0  0  0  0  0  0  0  0  0  0  # atno 17395 bound_to 11000

$$$$
