AV-unprocessed.smi:2329|AV-procd|sdf|9308|dock6
  -GOLD-   2272012523D 1   1.00000     0.00000
 Structure written by MMmdl.
 45 48  0  0  0  0  0  0  0  0  1 V2000
  154.1914  141.3469  160.8684 C   0  0  0  0  0  0  0  0  0  0  0  0
  153.1066  142.3680  160.5979 C   0  0  0  0  0  0  0  0  0  0  0  0
  152.8477  143.4105  161.5094 C   0  0  0  0  0  0  0  0  0  0  0  0
  151.8274  144.3263  161.1962 C   0  0  0  0  0  0  0  0  0  0  0  0
  151.1128  144.1630  159.9939 C   0  0  0  0  0  0  0  0  0  0  0  0
  151.4354  143.0888  159.1346 C   0  0  0  0  0  0  0  0  0  0  0  0
  150.6568  143.0132  157.9503 N   0  0  0  0  0  0  0  0  0  0  0  0
  150.7334  142.1090  156.9535 C   0  0  0  0  0  0  0  0  0  0  0  0
  151.5379  141.1802  156.9059 O   0  0  0  0  0  0  0  0  0  0  0  0
  149.8238  142.2935  155.9809 N   0  0  0  0  0  0  0  0  0  0  0  0
  149.6425  141.4869  154.7632 C   0  0  2  0  0  0  0  0  0  0  0  0
  148.2886  141.6849  154.0713 C   0  0  2  0  0  0  0  0  0  0  0  0
  147.2375  142.7363  154.0717 C   0  0  0  0  0  0  0  0  0  0  0  0
  146.0104  141.7887  154.1246 C   0  0  0  0  0  0  0  0  0  0  0  0
  146.5409  140.4638  154.3817 O   0  0  0  0  0  0  0  0  0  0  0  0
  147.7444  140.7021  155.0864 C   0  0  1  0  0  0  0  0  0  0  0  0
  149.1312  140.0181  155.0267 C   0  0  0  0  0  0  0  0  0  0  0  0
  149.3413  138.9667  153.9172 C   0  0  0  0  0  0  0  0  0  0  0  0
  149.9878  137.7282  154.5404 C   0  0  0  0  0  0  0  0  0  0  0  0
  149.6269  137.8117  156.0160 C   0  0  0  0  0  0  0  0  0  0  0  0
  149.6143  139.3107  156.2986 C   0  0  0  0  0  0  0  0  0  0  0  0
  152.4214  142.2107  159.4450 N   0  0  0  0  0  0  0  0  0  0  0  0
  154.6724  141.5258  161.8304 H   0  0  0  0  0  0  0  0  0  0  0  0
  154.9554  141.3920  160.0916 H   0  0  0  0  0  0  0  0  0  0  0  0
  153.7716  140.3406  160.8799 H   0  0  0  0  0  0  0  0  0  0  0  0
  153.4139  143.5087  162.4240 H   0  0  0  0  0  0  0  0  0  0  0  0
  151.5958  145.1410  161.8664 H   0  0  0  0  0  0  0  0  0  0  0  0
  150.3256  144.8575  159.7380 H   0  0  0  0  0  0  0  0  0  0  0  0
  149.9418  143.7191  157.8550 H   0  0  0  0  0  0  0  0  0  0  0  0
  149.1752  143.0576  156.1055 H   0  0  0  0  0  0  0  0  0  0  0  0
  150.4938  141.5239  154.0817 H   0  0  0  0  0  0  0  0  0  0  0  0
  148.3543  141.2500  153.0687 H   0  0  0  0  0  0  0  0  0  0  0  0
  147.2932  143.3786  154.9515 H   0  0  0  0  0  0  0  0  0  0  0  0
  147.2551  143.3549  153.1742 H   0  0  0  0  0  0  0  0  0  0  0  0
  145.3258  142.0852  154.9202 H   0  0  0  0  0  0  0  0  0  0  0  0
  145.4574  141.7848  153.1850 H   0  0  0  0  0  0  0  0  0  0  0  0
  147.5315  141.1387  156.0676 H   0  0  0  0  0  0  0  0  0  0  0  0
  148.3829  138.6841  153.4798 H   0  0  0  0  0  0  0  0  0  0  0  0
  149.9551  139.3462  153.0996 H   0  0  0  0  0  0  0  0  0  0  0  0
  149.6540  136.7994  154.0767 H   0  0  0  0  0  0  0  0  0  0  0  0
  151.0711  137.7858  154.4275 H   0  0  0  0  0  0  0  0  0  0  0  0
  148.6300  137.3984  156.1751 H   0  0  0  0  0  0  0  0  0  0  0  0
  150.3230  137.2667  156.6542 H   0  0  0  0  0  0  0  0  0  0  0  0
  150.6276  139.6334  156.5417 H   0  0  0  0  0  0  0  0  0  0  0  0
  148.9945  139.5410  157.1657 H   0  0  0  0  0  0  0  0  0  0  0  0
  1  2  1  0  0  0  0
  1 23  1  0  0  0  0
  1 24  1  0  0  0  0
  1 25  1  0  0  0  0
  2 22  1  0  0  0  0
  2  3  2  0  0  0  0
  3  4  1  0  0  0  0
  3 26  1  0  0  0  0
  4  5  2  0  0  0  0
  4 27  1  0  0  0  0
  5  6  1  0  0  0  0
  5 28  1  0  0  0  0
  6  7  1  0  0  0  0
  6 22  2  0  0  0  0
  7  8  1  0  0  0  0
  7 29  1  0  0  0  0
  8  9  2  0  0  0  0
  8 10  1  0  0  0  0
 10 11  1  0  0  0  0
 10 30  1  0  0  0  0
 11 17  1  0  0  0  0
 11 12  1  0  0  0  0
 11 31  1  0  0  0  0
 12 16  1  0  0  0  0
 12 13  1  0  0  0  0
 12 32  1  0  0  0  0
 13 14  1  0  0  0  0
 13 33  1  0  0  0  0
 13 34  1  0  0  0  0
 14 15  1  0  0  0  0
 14 35  1  0  0  0  0
 14 36  1  0  0  0  0
 15 16  1  0  0  0  0
 16 17  1  0  0  0  0
 16 37  1  0  0  0  0
 17 21  1  0  0  0  0
 17 18  1  0  0  0  0
 18 19  1  0  0  0  0
 18 38  1  0  0  0  0
 18 39  1  0  0  0  0
 19 20  1  0  0  0  0
 19 40  1  0  0  0  0
 19 41  1  0  0  0  0
 20 21  1  0  0  0  0
 20 42  1  0  0  0  0
 20 43  1  0  0  0  0
 21 44  1  0  0  0  0
 21 45  1  0  0  0  0
M  END
> <s_m_source_file>
AV-unprocessed.smi

> <i_m_source_file_index>
2329

> <i_lp_mmshare_version>
43012

> <i_f3d_flags>
0

> <s_epik_input>
W0NIM11jMVtjSF1bY0hdW2NIXWMobjEpW05IXUMoPU8pW05IXVtDQEBIXTJbQ0BASF0oW0NIMl1bQ0gyXU8zKVtDQEhdM0MyNFtDSDJdW0NIMl1bQ0gyXVtDSDJdNA==

> <s_epik_cmdline>
J2VwaWtfcHl0aG9uJywgJy1waCcsICc3LjAnLCAnLXRuJywgJzgnLCAnLW1hJywgJzIwMCcsICctbWV0YWxfYmluZGluZycsICctaW1hZScsICc8aW5maWxlLm1hZT4nLCAnLW9tYWUnLCAnPG91dGZpbGUubWFlPic=

> <r_lp_tautomer_probability>
1

> <r_epik_Ionization_Penalty>
8.97002e-05

> <r_epik_Ionization_Penalty_Charging>
0

> <r_epik_Ionization_Penalty_Neutral>
8.97002e-05

> <r_epik_State_Penalty>
-0

> <r_epik_Charging_Adjusted_Penalty>
0

> <i_epik_Tot_Q>
0

> <i_epik_Tot_abs_Q>
0

> <r_epik_Metal_State_Penalty>
-0

> <b_epik_Metal_Only>
0

> <s_lp_Force_Field>
OPLS_2005

> <r_lp_Energy>
90.3412

> <b_lp_Chiralities_Consistent>
1

> <s_lp_Variant>
AV-unprocessed.smi:2329-7

> <Gold.Version>
5.8.1

> <Gold.Id.Protein>
6NUR|6NUR_protein|mol2

> <Gold.PLP.Fitness>
40.5435

> <Gold.PLP.PLP>
-37.5570

> <Gold.PLP.part.hbond>
-1.0000

> <Gold.PLP.part.metal>
0.0000

> <Gold.PLP.part.buried>
-3.6331

> <Gold.PLP.part.nonpolar>
-33.4083

> <Gold.PLP.part.repulsive>
0.2662

> <Gold.PLP.ligand.clash>
0.0000

> <Gold.PLP.ligand.torsion>
0.1414

> <Gold.PLP.Chemscore.Hbond>
1.0000

> <Gold.PLP.Chemscore.CHOScore>
0.0000

> <Gold.PLP.Chemscore.Metal>
0.0000

> <Gold.Chemscore.Hbonds>
donor molecule, donor type, donor heavy atom, donor atom, acceptor molecule, acceptor atom, score
      L1  H    10    30       P1  8028  0.86

> <Gold.PLP.Chemscore.Internal.Correction>
0.2694

> <Gold.Rescore>
     Score         DG    S(hbond)    S(metal)    S(lipo)     H(rot)  DE(clash)    DE(int)     intcor
     15.15     -18.72       0.92        0.00     108.75       1.00       0.76       2.81       ----

> <Gold.Chemscore.Fitness>
15.1482

> <Gold.Chemscore.DG>
-18.7241

> <Gold.Chemscore.ZeroCoef>
-5.4800

> <Gold.Chemscore.Hbond>
0.9223

> <Gold.Chemscore.Metal>
0.0000

> <Gold.Chemscore.Lipo>
108.7471

> <Gold.Chemscore.Internal_Hbond>
0.0000

> <Gold.Chemscore.DEClash>
0.7624

> <Gold.Chemscore.DEInternal>
2.8135

> <Gold.Chemscore.Rot>
1.0000

> <Gold.Chemscore.Internal.Correction>
   9.000000E+99

> <Gold.Chemscore.Hbonds>
donor molecule, donor type, donor heavy atom, donor atom, acceptor molecule, acceptor atom, score
      L1  H    10    30       P1  8028  0.85

> <Gold.Chemscore.Hbond.Weighted>
-3.0806

> <Gold.Chemscore.Metal.Weighted>
-0.0000

> <Gold.Chemscore.Lipo.Weighted>
-12.7234

> <Gold.Chemscore.Internal_Hbond.Weighted>
0.0000

> <Gold.Chemscore.DEClash.Weighted>
0.7624

> <Gold.Chemscore.DEInternal.Weighted>
2.8135

> <Gold.Chemscore.Rot.Weighted>
2.5600

> <Gold.Chemscore.Internal.Correction.Weighted>
   9.000000E+99

> <Gold.Protein.RotatedTorsions>
[ 6907 6896 6895 6894 ] final    7.42 input  -60.11 | X-H torsion
[ 7974 7965 7964 7962 ] final   15.03 input  175.53 | X-H torsion
[ 8008 7997 7996 7995 ] final -121.62 input   59.86 | X-H torsion
[ 10167 10162 10161 10158 ] final   54.00 input  -65.29 | X-H torsion
[ 10718 10713 10712 10709 ] final -159.96 input   66.30 | X-H torsion
[ 10763 10752 10751 10750 ] final   56.06 input  -60.55 | X-H torsion
[ 11005 11000 10999 10996 ] final  -61.37 input  -57.11 | X-H torsion

> <Gold.Protein.ActiveResidues>
 VAL166  LYS551  ARG553  GLY616  TRP617  ASP618  TYR619  PRO620  LYS621  CYS622 
 ASP623  PHE694  ASN695  SER759  ASP760  ASP761  ALA762  ILE779  LEU786  VAL792 
 PHE793  MET794  SER795  GLU796  ALA797  LYS798  CYS799  TRP800  GLU811  SER814 

> <Gold.Protein.RotatedAtoms>
  151.6896  135.0948  160.0230 H   0  0  0  0  0  0  0  0  0  0  0  0  # atno 6907 bound_to 6896
  152.3786  133.6511  159.6152 H   0  0  0  0  0  0  0  0  0  0  0  0  # atno 6908 bound_to 6896
  150.7729  133.9068  159.3399 H   0  0  0  0  0  0  0  0  0  0  0  0  # atno 6909 bound_to 6896
  146.2289  139.8955  142.8548 H   0  0  0  0  0  0  0  0  0  0  0  0  # atno 7974 bound_to 7965
  155.1510  140.0404  157.2821 H   0  0  0  0  0  0  0  0  0  0  0  0  # atno 8008 bound_to 7997
  154.6404  140.2545  155.7302 H   0  0  0  0  0  0  0  0  0  0  0  0  # atno 8009 bound_to 7997
  156.2529  140.2857  156.0795 H   0  0  0  0  0  0  0  0  0  0  0  0  # atno 8010 bound_to 7997
  140.2347  144.3648  150.6401 H   0  0  0  0  0  0  0  0  0  0  0  0  # atno 10167 bound_to 10162
  156.5755  130.8707  151.2850 H   0  0  0  0  0  0  0  0  0  0  0  0  # atno 10718 bound_to 10713
  152.9826  135.5689  154.5168 H   0  0  0  0  0  0  0  0  0  0  0  0  # atno 10763 bound_to 10752
  154.4662  135.2783  155.1678 H   0  0  0  0  0  0  0  0  0  0  0  0  # atno 10764 bound_to 10752
  154.3245  135.6262  153.5576 H   0  0  0  0  0  0  0  0  0  0  0  0  # atno 10765 bound_to 10752
  141.1322  133.6629  156.5366 H   0  0  0  0  0  0  0  0  0  0  0  0  # atno 11005 bound_to 11000
  145.2375  140.9997  143.3955 LP  0  0  0  0  0  0  0  0  0  0  0  0  # atno 17320 bound_to 7965
  144.9479  139.4115  143.6417 LP  0  0  0  0  0  0  0  0  0  0  0  0  # atno 17321 bound_to 7965
  140.6158  143.2172  151.6794 LP  0  0  0  0  0  0  0  0  0  0  0  0  # atno 17342 bound_to 10162
  139.5097  144.3566  152.0602 LP  0  0  0  0  0  0  0  0  0  0  0  0  # atno 17343 bound_to 10162
  157.7338  130.9737  150.1999 LP  0  0  0  0  0  0  0  0  0  0  0  0  # atno 17370 bound_to 10713
  156.2677  130.3718  149.8064 LP  0  0  0  0  0  0  0  0  0  0  0  0  # atno 17371 bound_to 10713
  140.4173  134.7218  157.4870 LP  0  0  0  0  0  0  0  0  0  0  0  0  # atno 17394 bound_to 11000
  140.0384  134.6303  155.9012 LP  0  0  0  0  0  0  0  0  0  0  0  0  # atno 17395 bound_to 11000

$$$$
