AV-unprocessed.smi:445|AV-procd|sdf|2589|dock5
  -GOLD-   2262022583D 1   1.00000     0.00000
 Structure written by MMmdl.
 44 45  0  0  0  0  0  0  0  0  3 V2000
  151.2430  141.3726  156.5818 C   0  0  0  0  0  0  0  0  0  0  0  0
  151.3841  142.1349  157.9119 C   0  0  2  0  0  0  0  0  0  0  0  0
  151.6475  143.6321  157.6515 C   0  0  0  0  0  0  0  0  0  0  0  0
  151.7840  144.4256  158.9594 C   0  0  0  0  0  0  0  0  0  0  0  0
  152.8870  143.8359  159.8485 C   0  0  0  0  0  0  0  0  0  0  0  0
  152.6304  142.3486  160.1300 C   0  0  0  0  0  0  0  0  0  0  0  0
  152.4841  141.5374  158.8249 C   0  0  1  0  0  0  0  0  0  0  0  0
  152.1806  140.1435  159.1413 N   0  0  0  0  0  0  0  0  0  0  0  0
  153.0487  139.1230  159.0726 C   0  0  0  0  0  0  0  0  0  0  0  0
  154.2289  139.2603  158.7480 O   0  0  0  0  0  0  0  0  0  0  0  0
  152.4938  137.7429  159.4525 C   0  0  0  0  0  0  0  0  0  0  0  0
  151.2787  137.3806  158.7004 N   0  0  0  0  0  0  0  0  0  0  0  0
  150.0763  137.3498  159.4287 C   0  0  0  0  0  0  0  0  0  0  0  0
  148.9013  137.0278  158.8602 C   0  0  0  0  0  0  0  0  0  0  0  0
  147.6781  136.9965  159.6332 N   0  3  0  0  0  0  0  0  0  0  0  0
  147.7096  137.3679  160.8020 O   0  0  0  0  0  0  0  0  0  0  0  0
  146.6461  136.5999  159.0999 O   0  5  0  0  0  0  0  0  0  0  0  0
  148.8982  136.7085  157.4475 C   0  0  0  0  0  0  0  0  0  0  0  0
  150.0476  136.7262  156.7252 C   0  0  0  0  0  0  0  0  0  0  0  0
  150.0907  136.4072  155.2802 C   0  0  0  0  0  0  0  0  0  0  0  0
  148.9003  136.1044  154.7467 N   0  0  0  0  0  0  0  0  0  0  0  0
  151.0846  136.3968  154.5540 O   0  0  0  0  0  0  0  0  0  0  0  0
  151.3445  137.0764  157.3662 C   0  0  0  0  0  0  0  0  0  0  0  0
  152.4327  137.1061  156.7847 O   0  0  0  0  0  0  0  0  0  0  0  0
  152.1776  141.3829  156.0200 H   0  0  0  0  0  0  0  0  0  0  0  0
  150.4733  141.8212  155.9533 H   0  0  0  0  0  0  0  0  0  0  0  0
  150.9622  140.3312  156.7402 H   0  0  0  0  0  0  0  0  0  0  0  0
  150.4300  142.0560  158.4360 H   0  0  0  0  0  0  0  0  0  0  0  0
  152.5580  143.7484  157.0616 H   0  0  0  0  0  0  0  0  0  0  0  0
  150.8387  144.0547  157.0544 H   0  0  0  0  0  0  0  0  0  0  0  0
  152.0034  145.4707  158.7391 H   0  0  0  0  0  0  0  0  0  0  0  0
  150.8346  144.4145  159.4964 H   0  0  0  0  0  0  0  0  0  0  0  0
  153.8549  143.9547  159.3599 H   0  0  0  0  0  0  0  0  0  0  0  0
  152.9435  144.3879  160.7872 H   0  0  0  0  0  0  0  0  0  0  0  0
  153.4468  141.9486  160.7328 H   0  0  0  0  0  0  0  0  0  0  0  0
  151.7258  142.2466  160.7314 H   0  0  0  0  0  0  0  0  0  0  0  0
  153.4305  141.5800  158.2820 H   0  0  0  0  0  0  0  0  0  0  0  0
  151.2326  139.9390  159.4225 H   0  0  0  0  0  0  0  0  0  0  0  0
  153.2816  137.0063  159.2888 H   0  0  0  0  0  0  0  0  0  0  0  0
  152.2993  137.7104  160.5264 H   0  0  0  0  0  0  0  0  0  0  0  0
  150.1799  137.5955  160.4758 H   0  0  0  0  0  0  0  0  0  0  0  0
  147.9542  136.4566  156.9885 H   0  0  0  0  0  0  0  0  0  0  0  0
  148.8279  135.8733  153.7666 H   0  0  0  0  0  0  0  0  0  0  0  0
  148.0761  136.1095  155.3302 H   0  0  0  0  0  0  0  0  0  0  0  0
  1  2  1  0  0  0  0
  1 25  1  0  0  0  0
  1 26  1  0  0  0  0
  1 27  1  0  0  0  0
  2  7  1  0  0  0  0
  2  3  1  0  0  0  0
  2 28  1  0  0  0  0
  3  4  1  0  0  0  0
  3 29  1  0  0  0  0
  3 30  1  0  0  0  0
  4  5  1  0  0  0  0
  4 31  1  0  0  0  0
  4 32  1  0  0  0  0
  5  6  1  0  0  0  0
  5 33  1  0  0  0  0
  5 34  1  0  0  0  0
  6  7  1  0  0  0  0
  6 35  1  0  0  0  0
  6 36  1  0  0  0  0
  7  8  1  0  0  0  0
  7 37  1  0  0  0  0
  8  9  1  0  0  0  0
  8 38  1  0  0  0  0
  9 10  2  0  0  0  0
  9 11  1  0  0  0  0
 11 12  1  0  0  0  0
 11 39  1  0  0  0  0
 11 40  1  0  0  0  0
 12 23  1  0  0  0  0
 12 13  1  0  0  0  0
 13 14  2  0  0  0  0
 13 41  1  0  0  0  0
 14 15  1  0  0  0  0
 14 18  1  0  0  0  0
 15 16  2  0  0  0  0
 15 17  1  0  0  0  0
 18 19  2  0  0  0  0
 18 42  1  0  0  0  0
 19 20  1  0  0  0  0
 19 23  1  0  0  0  0
 20 21  1  0  0  0  0
 20 22  2  0  0  0  0
 21 43  1  0  0  0  0
 21 44  1  0  0  0  0
 23 24  2  0  0  0  0
M  CHG  1  15   1
M  CHG  1  17  -1
M  END
> <s_m_source_file>
AV-unprocessed.smi

> <i_m_source_file_index>
445

> <i_lp_mmshare_version>
43012

> <i_f3d_flags>
0

> <s_epik_input>
W0NIM11bQ0BASF0xW0NIMl1bQ0gyXVtDSDJdW0NIMl1bQ0BIXTFbTkhdQyg9TylbQ0gyXW4yW2NIXWMoW04rXSg9TylbTy1dKVtjSF1jKGMyPU8pQyg9TylbTkgyXQ==

> <s_epik_cmdline>
J2VwaWtfcHl0aG9uJywgJy1waCcsICc3LjAnLCAnLXRuJywgJzgnLCAnLW1hJywgJzIwMCcsICctbWV0YWxfYmluZGluZycsICctaW1hZScsICc8aW5maWxlLm1hZT4nLCAnLW9tYWUnLCAnPG91dGZpbGUubWFlPic=

> <r_lp_tautomer_probability>
1

> <r_epik_Ionization_Penalty>
2.81321e-06

> <r_epik_Ionization_Penalty_Charging>
2.43777e-12

> <r_epik_Ionization_Penalty_Neutral>
2.81321e-06

> <r_epik_State_Penalty>
-0

> <r_epik_Charging_Adjusted_Penalty>
2.43777e-12

> <i_epik_Tot_Q>
0

> <i_epik_Tot_abs_Q>
2

> <r_epik_Metal_State_Penalty>
-0

> <b_epik_Metal_Only>
0

> <s_lp_Force_Field>
OPLS_2005

> <r_lp_Energy>
28.5082

> <b_lp_Chiralities_Consistent>
1

> <s_lp_Variant>
AV-unprocessed.smi:445-1

> <Gold.Version>
5.8.1

> <Gold.Id.Protein>
6NUR|6NUR_protein|mol2

> <Gold.PLP.Fitness>
51.8587

> <Gold.PLP.PLP>
-38.5083

> <Gold.PLP.part.hbond>
-5.1806

> <Gold.PLP.part.metal>
0.0000

> <Gold.PLP.part.buried>
-6.2321

> <Gold.PLP.part.nonpolar>
-28.6300

> <Gold.PLP.part.repulsive>
1.0249

> <Gold.PLP.ligand.clash>
0.0000

> <Gold.PLP.ligand.torsion>
0.3397

> <Gold.PLP.Chemscore.Hbond>
4.6640

> <Gold.PLP.Chemscore.CHOScore>
0.0000

> <Gold.PLP.Chemscore.Metal>
0.0000

> <Gold.Chemscore.Hbonds>
donor molecule, donor type, donor heavy atom, donor atom, acceptor molecule, acceptor atom, score
      L1  H    21    43       P1  7948  1.00
      P1  H  6931  6943       L1    16  0.75
      P1  H  6934  6947       L1    16  0.88
      P1  H  7997  8008       L1    10  1.00
      P1  H 10752 10765       L1    22  1.00

> <Gold.PLP.Chemscore.Internal.Correction>
0.0377

> <Gold.Rescore>
     Score         DG    S(hbond)    S(metal)    S(lipo)     H(rot)  DE(clash)    DE(int)     intcor
     24.40     -26.50       4.49        0.00      89.10       1.71       0.15       1.96       ----

> <Gold.Chemscore.Fitness>
24.3955

> <Gold.Chemscore.DG>
-26.5042

> <Gold.Chemscore.ZeroCoef>
-5.4800

> <Gold.Chemscore.Hbond>
4.4860

> <Gold.Chemscore.Metal>
0.0000

> <Gold.Chemscore.Lipo>
89.0970

> <Gold.Chemscore.Internal_Hbond>
0.0000

> <Gold.Chemscore.DEClash>
0.1461

> <Gold.Chemscore.DEInternal>
1.9626

> <Gold.Chemscore.Rot>
1.7123

> <Gold.Chemscore.Internal.Correction>
   9.000000E+99

> <Gold.Chemscore.Hbonds>
donor molecule, donor type, donor heavy atom, donor atom, acceptor molecule, acceptor atom, score
      L1  H    21    43       P1  7948  0.96
      P1  H  6931  6943       L1    16  0.75
      P1  H  6934  6947       L1    16  0.64
      P1  H  7997  8008       L1    10  0.96
      P1  H 10752 10765       L1    22  0.93

> <Gold.Chemscore.Hbond.Weighted>
-14.9834

> <Gold.Chemscore.Metal.Weighted>
-0.0000

> <Gold.Chemscore.Lipo.Weighted>
-10.4243

> <Gold.Chemscore.Internal_Hbond.Weighted>
0.0000

> <Gold.Chemscore.DEClash.Weighted>
0.1461

> <Gold.Chemscore.DEInternal.Weighted>
1.9626

> <Gold.Chemscore.Rot.Weighted>
4.3835

> <Gold.Chemscore.Internal.Correction.Weighted>
   9.000000E+99

> <Gold.Protein.RotatedTorsions>
[ 6907 6896 6895 6894 ] final -129.50 input  -60.11 | X-H torsion
[ 7974 7965 7964 7962 ] final   10.34 input  175.53 | X-H torsion
[ 8008 7997 7996 7995 ] final -128.27 input   59.86 | X-H torsion
[ 10167 10162 10161 10158 ] final  -36.05 input  -65.29 | X-H torsion
[ 10718 10713 10712 10709 ] final   79.69 input   66.30 | X-H torsion
[ 10763 10752 10751 10750 ] final  156.91 input  -60.55 | X-H torsion
[ 11005 11000 10999 10996 ] final  152.93 input  -57.11 | X-H torsion

> <Gold.Protein.ActiveResidues>
 VAL166  LYS551  ARG553  GLY616  TRP617  ASP618  TYR619  PRO620  LYS621  CYS622 
 ASP623  PHE694  ASN695  SER759  ASP760  ASP761  ALA762  ILE779  LEU786  VAL792 
 PHE793  MET794  SER795  GLU796  ALA797  LYS798  CYS799  TRP800  GLU811  SER814 

> <Gold.Protein.RotatedAtoms>
  150.9294  133.6784  159.2813 H   0  0  0  0  0  0  0  0  0  0  0  0  # atno 6907 bound_to 6896
  151.4211  135.0997  159.9624 H   0  0  0  0  0  0  0  0  0  0  0  0  # atno 6908 bound_to 6896
  152.5019  133.8746  159.7370 H   0  0  0  0  0  0  0  0  0  0  0  0  # atno 6909 bound_to 6896
  146.2390  139.9648  142.8454 H   0  0  0  0  0  0  0  0  0  0  0  0  # atno 7974 bound_to 7965
  155.2599  140.0435  157.2996 H   0  0  0  0  0  0  0  0  0  0  0  0  # atno 8008 bound_to 7997
  154.5717  140.2375  155.8151 H   0  0  0  0  0  0  0  0  0  0  0  0  # atno 8009 bound_to 7997
  156.2127  140.2994  155.9778 H   0  0  0  0  0  0  0  0  0  0  0  0  # atno 8010 bound_to 7997
  140.7151  143.3435  151.2306 H   0  0  0  0  0  0  0  0  0  0  0  0  # atno 10167 bound_to 10162
  157.6784  130.9925  150.1969 H   0  0  0  0  0  0  0  0  0  0  0  0  # atno 10718 bound_to 10713
  154.1918  135.2794  155.3019 H   0  0  0  0  0  0  0  0  0  0  0  0  # atno 10763 bound_to 10752
  154.5923  135.5556  153.7294 H   0  0  0  0  0  0  0  0  0  0  0  0  # atno 10764 bound_to 10752
  153.0110  135.6371  154.2057 H   0  0  0  0  0  0  0  0  0  0  0  0  # atno 10765 bound_to 10752
  140.1352  134.8775  157.2257 H   0  0  0  0  0  0  0  0  0  0  0  0  # atno 11005 bound_to 11000
  145.1736  140.9733  143.4307 LP  0  0  0  0  0  0  0  0  0  0  0  0  # atno 17320 bound_to 7965
  145.0005  139.3602  143.6169 LP  0  0  0  0  0  0  0  0  0  0  0  0  # atno 17321 bound_to 7965
  139.6949  143.9630  152.2877 LP  0  0  0  0  0  0  0  0  0  0  0  0  # atno 17342 bound_to 10162
  139.9304  144.6745  150.8369 LP  0  0  0  0  0  0  0  0  0  0  0  0  # atno 17343 bound_to 10162
  156.2668  130.3717  149.8073 LP  0  0  0  0  0  0  0  0  0  0  0  0  # atno 17370 bound_to 10713
  156.5801  130.8462  151.3380 LP  0  0  0  0  0  0  0  0  0  0  0  0  # atno 17371 bound_to 10713
  140.2791  134.3370  155.7348 LP  0  0  0  0  0  0  0  0  0  0  0  0  # atno 17394 bound_to 11000
  141.2177  133.7468  156.9337 LP  0  0  0  0  0  0  0  0  0  0  0  0  # atno 17395 bound_to 11000

$$$$
