AV-unprocessed.smi:1661|AV-procd|sdf|6653|dock9
  -GOLD-   22720 7363D 1   1.00000     0.00000
 Structure written by MMmdl.
 38 39  0  0  0  0  0  0  0  0  2 V2000
  146.0292  129.9418  151.8023 C   0  0  0  0  0  0  0  0  0  0  0  0
  145.8644  131.3611  151.2412 C   0  0  2  0  0  0  0  0  0  0  0  0
  146.6865  132.3881  152.0372 C   0  0  0  0  0  0  0  0  0  0  0  0
  146.4888  133.8105  151.4865 C   0  0  0  0  0  0  0  0  0  0  0  0
  145.0527  134.1914  151.4835 N   0  3  1  0  0  0  0  0  0  0  0  0
  144.8484  135.6045  151.0780 C   0  0  0  0  0  0  0  0  0  0  0  0
  144.9147  136.5740  152.2743 C   0  0  0  0  0  0  0  0  0  0  0  0
  146.2813  137.0116  152.5347 N   0  0  0  0  0  0  0  0  0  0  0  0
  146.6114  138.1504  153.1613 C   0  0  0  0  0  0  0  0  0  0  0  0
  145.7789  138.9573  153.5761 O   0  0  0  0  0  0  0  0  0  0  0  0
  147.9454  138.2827  153.2671 N   0  0  0  0  0  0  0  0  0  0  0  0
  148.6793  139.3455  153.8577 C   0  0  0  0  0  0  0  0  0  0  0  0
  149.9279  139.2138  154.3326 N   0  0  0  0  0  0  0  0  0  0  0  0
  150.4121  140.4047  154.8583 N   0  0  0  0  0  0  0  0  0  0  0  0
  149.5114  141.3865  154.7589 C   0  0  0  0  0  0  0  0  0  0  0  0
  147.9831  140.9521  154.0130 S   0  0  0  0  0  0  0  0  0  0  0  0
  144.2391  133.2325  150.6887 C   0  0  0  0  0  0  0  0  0  0  0  0
  144.3903  131.7986  151.2233 C   0  0  0  0  0  0  0  0  0  0  0  0
  145.6795  129.8783  152.8333 H   0  0  0  0  0  0  0  0  0  0  0  0
  147.0745  129.6318  151.7860 H   0  0  0  0  0  0  0  0  0  0  0  0
  145.4632  129.2192  151.2138 H   0  0  0  0  0  0  0  0  0  0  0  0
  146.2301  131.3560  150.2132 H   0  0  0  0  0  0  0  0  0  0  0  0
  146.3957  132.3615  153.0885 H   0  0  0  0  0  0  0  0  0  0  0  0
  147.7447  132.1264  152.0034 H   0  0  0  0  0  0  0  0  0  0  0  0
  147.0553  134.5109  152.1014 H   0  0  0  0  0  0  0  0  0  0  0  0
  146.8881  133.8823  150.4735 H   0  0  0  0  0  0  0  0  0  0  0  0
  145.6264  135.8934  150.3698 H   0  0  0  0  0  0  0  0  0  0  0  0
  143.9006  135.6960  150.5449 H   0  0  0  0  0  0  0  0  0  0  0  0
  144.2859  137.4506  152.1170 H   0  0  0  0  0  0  0  0  0  0  0  0
  144.5400  136.0816  153.1721 H   0  0  0  0  0  0  0  0  0  0  0  0
  147.0246  136.4011  152.2274 H   0  0  0  0  0  0  0  0  0  0  0  0
  148.5036  137.5360  152.8802 H   0  0  0  0  0  0  0  0  0  0  0  0
  149.7489  142.3736  155.1272 H   0  0  0  0  0  0  0  0  0  0  0  0
  143.1859  133.5086  150.7191 H   0  0  0  0  0  0  0  0  0  0  0  0
  144.5437  133.2750  149.6415 H   0  0  0  0  0  0  0  0  0  0  0  0
  143.8060  131.1151  150.6061 H   0  0  0  0  0  0  0  0  0  0  0  0
  143.9727  131.7393  152.2295 H   0  0  0  0  0  0  0  0  0  0  0  0
  144.7420  134.1201  152.4418 H   0  0  0  0  0  0  0  0  0  0  0  0
  1  2  1  0  0  0  0
  1 19  1  0  0  0  0
  1 20  1  0  0  0  0
  1 21  1  0  0  0  0
  2 18  1  0  0  0  0
  2  3  1  0  0  0  0
  2 22  1  0  0  0  0
  3  4  1  0  0  0  0
  3 23  1  0  0  0  0
  3 24  1  0  0  0  0
  4  5  1  0  0  0  0
  4 25  1  0  0  0  0
  4 26  1  0  0  0  0
  5  6  1  0  0  0  0
  5 17  1  0  0  0  0
  5 38  1  0  0  0  0
  6  7  1  0  0  0  0
  6 27  1  0  0  0  0
  6 28  1  0  0  0  0
  7  8  1  0  0  0  0
  7 29  1  0  0  0  0
  7 30  1  0  0  0  0
  8  9  1  0  0  0  0
  8 31  1  0  0  0  0
  9 10  2  0  0  0  0
  9 11  1  0  0  0  0
 11 12  1  0  0  0  0
 11 32  1  0  0  0  0
 12 16  1  0  0  0  0
 12 13  2  0  0  0  0
 13 14  1  0  0  0  0
 14 15  2  0  0  0  0
 15 16  1  0  0  0  0
 15 33  1  0  0  0  0
 17 18  1  0  0  0  0
 17 34  1  0  0  0  0
 17 35  1  0  0  0  0
 18 36  1  0  0  0  0
 18 37  1  0  0  0  0
M  CHG  1   5   1
M  END
> <s_m_source_file>
AV-unprocessed.smi

> <i_m_source_file_index>
1661

> <i_lp_mmshare_version>
43012

> <i_f3d_flags>
0

> <s_epik_input>
W0NIM11bQ0hdMVtDSDJdW0NIMl1OKFtDSDJdW0NIMl0xKVtDSDJdW0NIMl1bTkhdQyg9TylbTkhdYzJubltjSF1zMg==

> <s_epik_cmdline>
J2VwaWtfcHl0aG9uJywgJy1waCcsICc3LjAnLCAnLXRuJywgJzgnLCAnLW1hJywgJzIwMCcsICctbWV0YWxfYmluZGluZycsICctaW1hZScsICc8aW5maWxlLm1hZT4nLCAnLW9tYWUnLCAnPG91dGZpbGUubWFlPic=

> <r_lp_tautomer_probability>
1

> <r_epik_Ionization_Penalty>
0.0053917

> <r_epik_Ionization_Penalty_Charging>
0.00168873

> <r_epik_Ionization_Penalty_Neutral>
0.00370297

> <r_epik_State_Penalty>
-0

> <r_epik_Charging_Adjusted_Penalty>
0.00168873

> <i_epik_Tot_Q>
1

> <i_epik_Tot_abs_Q>
1

> <r_epik_Metal_State_Penalty>
0.36997

> <b_epik_Metal_Only>
0

> <s_lp_Force_Field>
OPLS_2005

> <r_lp_Energy>
14.0049

> <b_lp_Chiralities_Consistent>
1

> <s_lp_Variant>
AV-unprocessed.smi:1661-1

> <Gold.Version>
5.8.1

> <Gold.Id.Protein>
6NUR|6NUR_protein|mol2

> <Gold.PLP.Fitness>
41.2261

> <Gold.PLP.PLP>
-31.1149

> <Gold.PLP.part.hbond>
-3.4857

> <Gold.PLP.part.metal>
0.0000

> <Gold.PLP.part.buried>
-3.7282

> <Gold.PLP.part.nonpolar>
-26.8731

> <Gold.PLP.part.repulsive>
2.5460

> <Gold.PLP.ligand.clash>
0.0000

> <Gold.PLP.ligand.torsion>
0.8686

> <Gold.PLP.Chemscore.Hbond>
2.9440

> <Gold.PLP.Chemscore.CHOScore>
1.0000

> <Gold.PLP.Chemscore.Metal>
0.0000

> <Gold.Chemscore.Hbonds>
donor molecule, donor type, donor heavy atom, donor atom, acceptor molecule, acceptor atom, score
      L1  H     8    31       P1  7948  0.93
      L1  H    11    32       P1  7948  1.00
      P1  H  7989  7998       L1    14  1.00
      L1  C    15    33       P1  8028  0.95

> <Gold.PLP.Chemscore.Internal.Correction>
0.0165

> <Gold.Rescore>
     Score         DG    S(hbond)    S(metal)    S(lipo)     H(rot)  DE(clash)    DE(int)     intcor
     14.43     -16.24       1.95        0.00      73.63       1.70       0.00       1.81       ----

> <Gold.Chemscore.Fitness>
14.4251

> <Gold.Chemscore.DG>
-16.2402

> <Gold.Chemscore.ZeroCoef>
-5.4800

> <Gold.Chemscore.Hbond>
1.9490

> <Gold.Chemscore.Metal>
0.0000

> <Gold.Chemscore.Lipo>
73.6273

> <Gold.Chemscore.Internal_Hbond>
0.0000

> <Gold.Chemscore.DEClash>
0.0034

> <Gold.Chemscore.DEInternal>
1.8118

> <Gold.Chemscore.Rot>
1.7046

> <Gold.Chemscore.Internal.Correction>
   9.000000E+99

> <Gold.Chemscore.Hbonds>
donor molecule, donor type, donor heavy atom, donor atom, acceptor molecule, acceptor atom, score
      L1  H     8    31       P1  7948  0.90
      L1  H    11    32       P1  7948  1.00
      P1  H  7989  7998       L1    14  0.07

> <Gold.Chemscore.Hbond.Weighted>
-6.5097

> <Gold.Chemscore.Metal.Weighted>
-0.0000

> <Gold.Chemscore.Lipo.Weighted>
-8.6144

> <Gold.Chemscore.Internal_Hbond.Weighted>
0.0000

> <Gold.Chemscore.DEClash.Weighted>
0.0034

> <Gold.Chemscore.DEInternal.Weighted>
1.8118

> <Gold.Chemscore.Rot.Weighted>
4.3638

> <Gold.Chemscore.Internal.Correction.Weighted>
   9.000000E+99

> <Gold.Protein.RotatedTorsions>
[ 6907 6896 6895 6894 ] final  113.08 input  -60.11 | X-H torsion
[ 7974 7965 7964 7962 ] final   -3.48 input  175.53 | X-H torsion
[ 8008 7997 7996 7995 ] final  -57.71 input   59.86 | X-H torsion
[ 10167 10162 10161 10158 ] final  -87.18 input  -65.29 | X-H torsion
[ 10718 10713 10712 10709 ] final  176.41 input   66.30 | X-H torsion
[ 10763 10752 10751 10750 ] final -111.91 input  -60.55 | X-H torsion
[ 11005 11000 10999 10996 ] final -164.25 input  -57.11 | X-H torsion

> <Gold.Protein.ActiveResidues>
 VAL166  LYS551  ARG553  GLY616  TRP617  ASP618  TYR619  PRO620  LYS621  CYS622 
 ASP623  PHE694  ASN695  SER759  ASP760  ASP761  ALA762  ILE779  LEU786  VAL792 
 PHE793  MET794  SER795  GLU796  ALA797  LYS798  CYS799  TRP800  GLU811  SER814 

> <Gold.Protein.RotatedAtoms>
  152.4881  133.8425  159.7159 H   0  0  0  0  0  0  0  0  0  0  0  0  # atno 6907 bound_to 6896
  150.8985  133.7140  159.2892 H   0  0  0  0  0  0  0  0  0  0  0  0  # atno 6908 bound_to 6896
  151.4590  135.1040  159.9771 H   0  0  0  0  0  0  0  0  0  0  0  0  # atno 6909 bound_to 6896
  146.2389  140.1728  142.8332 H   0  0  0  0  0  0  0  0  0  0  0  0  # atno 7974 bound_to 7965
  154.4279  140.1100  156.5841 H   0  0  0  0  0  0  0  0  0  0  0  0  # atno 8008 bound_to 7997
  155.6081  140.3494  155.4595 H   0  0  0  0  0  0  0  0  0  0  0  0  # atno 8009 bound_to 7997
  156.0120  140.1221  157.0433 H   0  0  0  0  0  0  0  0  0  0  0  0  # atno 8010 bound_to 7997
  140.3870  143.2722  151.9313 H   0  0  0  0  0  0  0  0  0  0  0  0  # atno 10167 bound_to 10162
  156.9205  130.9939  151.3005 H   0  0  0  0  0  0  0  0  0  0  0  0  # atno 10718 bound_to 10713
  154.8323  135.4510  154.1111 H   0  0  0  0  0  0  0  0  0  0  0  0  # atno 10763 bound_to 10752
  153.2373  135.6912  153.7828 H   0  0  0  0  0  0  0  0  0  0  0  0  # atno 10764 bound_to 10752
  153.7189  135.3345  155.3238 H   0  0  0  0  0  0  0  0  0  0  0  0  # atno 10765 bound_to 10752
  140.5890  134.5064  157.5190 H   0  0  0  0  0  0  0  0  0  0  0  0  # atno 11005 bound_to 11000
  144.9998  140.8621  143.5289 LP  0  0  0  0  0  0  0  0  0  0  0  0  # atno 17320 bound_to 7965
  145.1745  139.2385  143.5324 LP  0  0  0  0  0  0  0  0  0  0  0  0  # atno 17321 bound_to 7965
  139.4791  144.5764  151.8004 LP  0  0  0  0  0  0  0  0  0  0  0  0  # atno 17342 bound_to 10162
  140.4879  144.1353  150.5944 LP  0  0  0  0  0  0  0  0  0  0  0  0  # atno 17343 bound_to 10162
  157.5910  130.8444  149.8660 LP  0  0  0  0  0  0  0  0  0  0  0  0  # atno 17370 bound_to 10713
  156.0493  130.3721  150.1240 LP  0  0  0  0  0  0  0  0  0  0  0  0  # atno 17371 bound_to 10713
  139.9283  134.8014  156.1005 LP  0  0  0  0  0  0  0  0  0  0  0  0  # atno 17394 bound_to 11000
  141.0947  133.6700  156.2619 LP  0  0  0  0  0  0  0  0  0  0  0  0  # atno 17395 bound_to 11000

$$$$
