AV-unprocessed.smi:2786|AV-procd|sdf|10753|dock6
  -GOLD-   2272015183D 1   1.00000     0.00000
 Structure written by MMmdl.
 27 28  0  0  0  0  0  0  0  0  2 V2000
  153.1026  142.2798  159.6073 C   0  0  0  0  0  0  0  0  0  0  0  0
  152.2497  143.3655  159.1198 N   0  0  0  0  0  0  0  0  0  0  0  0
  152.1621  144.6310  159.6410 C   0  0  0  0  0  0  0  0  0  0  0  0
  151.2410  145.3055  158.8832 C   0  0  0  0  0  0  0  0  0  0  0  0
  150.8064  144.4247  157.9307 N   0  3  0  0  0  0  0  0  0  0  0  0
  151.4248  143.2446  158.0660 C   0  0  0  0  0  0  0  0  0  0  0  0
  151.1983  142.0316  157.2124 C   0  0  1  0  0  0  0  0  0  0  0  0
  150.6499  140.8568  158.0518 C   0  0  0  0  0  0  0  0  0  0  0  0
  150.4454  139.6700  157.2197 N   0  0  0  0  0  0  0  0  0  0  0  0
  149.5469  139.9610  156.1019 C   0  0  0  0  0  0  0  0  0  0  0  0
  150.0948  141.1252  155.2568 C   0  0  0  0  0  0  0  0  0  0  0  0
  150.3030  142.3158  156.0841 N   0  0  0  0  0  0  0  0  0  0  0  0
  153.5879  142.5846  160.5350 H   0  0  0  0  0  0  0  0  0  0  0  0
  153.8625  142.0557  158.8583 H   0  0  0  0  0  0  0  0  0  0  0  0
  152.4938  141.3948  159.7945 H   0  0  0  0  0  0  0  0  0  0  0  0
  152.7450  144.9497  160.4930 H   0  0  0  0  0  0  0  0  0  0  0  0
  150.8711  146.3183  158.9494 H   0  0  0  0  0  0  0  0  0  0  0  0
  152.1775  141.7554  156.8196 H   0  0  0  0  0  0  0  0  0  0  0  0
  151.3426  140.6209  158.8598 H   0  0  0  0  0  0  0  0  0  0  0  0
  149.7094  141.1446  158.5240 H   0  0  0  0  0  0  0  0  0  0  0  0
  150.0513  138.9234  157.7838 H   0  0  0  0  0  0  0  0  0  0  0  0
  149.4297  139.0743  155.4787 H   0  0  0  0  0  0  0  0  0  0  0  0
  148.5532  140.2108  156.4764 H   0  0  0  0  0  0  0  0  0  0  0  0
  151.0339  140.8291  154.7871 H   0  0  0  0  0  0  0  0  0  0  0  0
  149.4013  141.3526  154.4473 H   0  0  0  0  0  0  0  0  0  0  0  0
  150.7097  143.0469  155.5093 H   0  0  0  0  0  0  0  0  0  0  0  0
  150.1173  144.6303  157.2180 H   0  0  0  0  0  0  0  0  0  0  0  0
  1  2  1  0  0  0  0
  1 13  1  0  0  0  0
  1 14  1  0  0  0  0
  1 15  1  0  0  0  0
  2  6  1  0  0  0  0
  2  3  1  0  0  0  0
  3  4  2  0  0  0  0
  3 16  1  0  0  0  0
  4  5  1  0  0  0  0
  4 17  1  0  0  0  0
  5  6  2  0  0  0  0
  5 27  1  0  0  0  0
  6  7  1  0  0  0  0
  7 12  1  0  0  0  0
  7  8  1  0  0  0  0
  7 18  1  0  0  0  0
  8  9  1  0  0  0  0
  8 19  1  0  0  0  0
  8 20  1  0  0  0  0
  9 10  1  0  0  0  0
  9 21  1  0  0  0  0
 10 11  1  0  0  0  0
 10 22  1  0  0  0  0
 10 23  1  0  0  0  0
 11 12  1  0  0  0  0
 11 24  1  0  0  0  0
 11 25  1  0  0  0  0
 12 26  1  0  0  0  0
M  CHG  1   5   1
M  END
> <s_m_source_file>
AV-unprocessed.smi

> <i_m_source_file_index>
2786

> <i_lp_mmshare_version>
43012

> <i_f3d_flags>
0

> <s_epik_input>
W0NIM11uMVtjSF1bY0hdbmMxW0NAQEhdMltDSDJdW05IXVtDSDJdW0NIMl1bTkhdMg==

> <s_epik_cmdline>
J2VwaWtfcHl0aG9uJywgJy1waCcsICc3LjAnLCAnLXRuJywgJzgnLCAnLW1hJywgJzIwMCcsICctbWV0YWxfYmluZGluZycsICctaW1hZScsICc8aW5maWxlLm1hZT4nLCAnLW9tYWUnLCAnPG91dGZpbGUubWFlPic=

> <r_epik_Ionization_Penalty>
1.38811

> <r_epik_Ionization_Penalty_Charging>
0

> <r_epik_Ionization_Penalty_Neutral>
1.38811

> <r_epik_State_Penalty>
1.49833

> <r_epik_Charging_Adjusted_Penalty>
1.49833

> <i_epik_Tot_Q>
1

> <i_epik_Tot_abs_Q>
1

> <r_epik_Metal_State_Penalty>
3.89997

> <b_epik_Metal_Only>
0

> <s_lp_Force_Field>
OPLS_2005

> <r_lp_Energy>
24.8343

> <b_lp_Chiralities_Consistent>
1

> <s_lp_Variant>
AV-unprocessed.smi:2786-6

> <Gold.Version>
5.8.1

> <Gold.Id.Protein>
6NUR|6NUR_protein|mol2

> <Gold.PLP.Fitness>
34.9731

> <Gold.PLP.PLP>
-29.0078

> <Gold.PLP.part.hbond>
-2.0913

> <Gold.PLP.part.metal>
0.0000

> <Gold.PLP.part.buried>
-3.4049

> <Gold.PLP.part.nonpolar>
-23.0591

> <Gold.PLP.part.repulsive>
0.0736

> <Gold.PLP.ligand.clash>
0.0000

> <Gold.PLP.ligand.torsion>
0.0339

> <Gold.PLP.Chemscore.Hbond>
2.0052

> <Gold.PLP.Chemscore.CHOScore>
0.0000

> <Gold.PLP.Chemscore.Metal>
0.0000

> <Gold.Chemscore.Hbonds>
donor molecule, donor type, donor heavy atom, donor atom, acceptor molecule, acceptor atom, score
      L1  H     5    27       P1  8028  2.00

> <Gold.PLP.Chemscore.Internal.Correction>
0.0174

> <Gold.Rescore>
     Score         DG    S(hbond)    S(metal)    S(lipo)     H(rot)  DE(clash)    DE(int)     intcor
     12.96     -12.98       0.99        0.00      57.89       1.00       0.01       0.01       ----

> <Gold.Chemscore.Fitness>
12.9606

> <Gold.Chemscore.DG>
-12.9842

> <Gold.Chemscore.ZeroCoef>
-5.4800

> <Gold.Chemscore.Hbond>
0.9855

> <Gold.Chemscore.Metal>
0.0000

> <Gold.Chemscore.Lipo>
57.8851

> <Gold.Chemscore.Internal_Hbond>
0.0000

> <Gold.Chemscore.DEClash>
0.0149

> <Gold.Chemscore.DEInternal>
0.0088

> <Gold.Chemscore.Rot>
1.0000

> <Gold.Chemscore.Internal.Correction>
   9.000000E+99

> <Gold.Chemscore.Hbonds>
donor molecule, donor type, donor heavy atom, donor atom, acceptor molecule, acceptor atom, score
      L1  H     5    27       P1  8028  0.34

> <Gold.Chemscore.Hbond.Weighted>
-3.2917

> <Gold.Chemscore.Metal.Weighted>
-0.0000

> <Gold.Chemscore.Lipo.Weighted>
-6.7726

> <Gold.Chemscore.Internal_Hbond.Weighted>
0.0000

> <Gold.Chemscore.DEClash.Weighted>
0.0149

> <Gold.Chemscore.DEInternal.Weighted>
0.0088

> <Gold.Chemscore.Rot.Weighted>
2.5600

> <Gold.Chemscore.Internal.Correction.Weighted>
   9.000000E+99

> <Gold.Protein.RotatedTorsions>
[ 6907 6896 6895 6894 ] final   57.14 input  -60.11 | X-H torsion
[ 7974 7965 7964 7962 ] final  -69.62 input  175.53 | X-H torsion
[ 8008 7997 7996 7995 ] final -119.48 input   59.86 | X-H torsion
[ 10167 10162 10161 10158 ] final -154.78 input  -65.29 | X-H torsion
[ 10718 10713 10712 10709 ] final    8.79 input   66.30 | X-H torsion
[ 10763 10752 10751 10750 ] final  -52.93 input  -60.55 | X-H torsion
[ 11005 11000 10999 10996 ] final    2.22 input  -57.11 | X-H torsion

> <Gold.Protein.ActiveResidues>
 VAL166  LYS551  ARG553  GLY616  TRP617  ASP618  TYR619  PRO620  LYS621  CYS622 
 ASP623  PHE694  ASN695  SER759  ASP760  ASP761  ALA762  ILE779  LEU786  VAL792 
 PHE793  MET794  SER795  GLU796  ALA797  LYS798  CYS799  TRP800  GLU811  SER814 

> <Gold.Protein.RotatedAtoms>
  152.3703  134.6743  160.0177 H   0  0  0  0  0  0  0  0  0  0  0  0  # atno 6907 bound_to 6896
  151.7038  133.3306  159.3281 H   0  0  0  0  0  0  0  0  0  0  0  0  # atno 6908 bound_to 6896
  150.7669  134.6527  159.6341 H   0  0  0  0  0  0  0  0  0  0  0  0  # atno 6909 bound_to 6896
  145.7014  140.9115  143.0729 H   0  0  0  0  0  0  0  0  0  0  0  0  # atno 7974 bound_to 7965
  155.1164  140.0398  157.2738 H   0  0  0  0  0  0  0  0  0  0  0  0  # atno 8008 bound_to 7997
  154.6646  140.2599  155.7046 H   0  0  0  0  0  0  0  0  0  0  0  0  # atno 8009 bound_to 7997
  156.2633  140.2810  156.1132 H   0  0  0  0  0  0  0  0  0  0  0  0  # atno 8010 bound_to 7997
  139.6985  143.9303  152.2418 H   0  0  0  0  0  0  0  0  0  0  0  0  # atno 10167 bound_to 10162
  156.9568  130.5917  149.5660 H   0  0  0  0  0  0  0  0  0  0  0  0  # atno 10718 bound_to 10713
  154.1507  135.6490  153.4963 H   0  0  0  0  0  0  0  0  0  0  0  0  # atno 10763 bound_to 10752
  153.0138  135.5337  154.6811 H   0  0  0  0  0  0  0  0  0  0  0  0  # atno 10764 bound_to 10752
  154.6098  135.2952  155.0416 H   0  0  0  0  0  0  0  0  0  0  0  0  # atno 10765 bound_to 10752
  140.6067  133.9786  155.8157 H   0  0  0  0  0  0  0  0  0  0  0  0  # atno 11005 bound_to 11000
  144.6967  139.8952  143.7455 LP  0  0  0  0  0  0  0  0  0  0  0  0  # atno 17320 bound_to 7965
  146.0794  139.3782  143.0473 LP  0  0  0  0  0  0  0  0  0  0  0  0  # atno 17321 bound_to 7965
  139.9138  144.6840  150.8533 LP  0  0  0  0  0  0  0  0  0  0  0  0  # atno 17342 bound_to 10162
  140.7703  143.3424  151.2181 LP  0  0  0  0  0  0  0  0  0  0  0  0  # atno 17343 bound_to 10162
  156.0339  130.5428  150.8605 LP  0  0  0  0  0  0  0  0  0  0  0  0  # atno 17370 bound_to 10713
  157.5685  131.0946  150.9453 LP  0  0  0  0  0  0  0  0  0  0  0  0  # atno 17371 bound_to 10713
  141.0836  134.0025  157.3348 LP  0  0  0  0  0  0  0  0  0  0  0  0  # atno 17394 bound_to 11000
  139.9209  135.0200  156.8061 LP  0  0  0  0  0  0  0  0  0  0  0  0  # atno 17395 bound_to 11000

$$$$
