AV-unprocessed.smi:506|AV-procd|sdf|2750|dock2
  -GOLD-   2262023213D 1   1.00000     0.00000
 Structure written by MMmdl.
 40 42  0  0  0  0  0  0  0  0  1 V2000
  145.5374  143.4663  153.5862 C   0  0  0  0  0  0  0  0  0  0  0  0
  145.6731  142.6570  154.7451 O   0  0  0  0  0  0  0  0  0  0  0  0
  146.9238  142.1635  155.0487 C   0  0  0  0  0  0  0  0  0  0  0  0
  147.2014  141.9105  156.4064 C   0  0  0  0  0  0  0  0  0  0  0  0
  148.4537  141.4057  156.8036 C   0  0  0  0  0  0  0  0  0  0  0  0
  149.4593  141.1434  155.8531 C   0  0  0  0  0  0  0  0  0  0  0  0
  150.6555  140.6524  156.3281 O   0  0  0  0  0  0  0  0  0  0  0  0
  150.8531  140.5945  157.7345 C   0  0  0  0  0  0  0  0  0  0  0  0
  152.3588  140.5921  158.0344 C   0  0  0  0  0  0  0  0  0  0  0  0
  152.6705  141.2841  159.2771 N   0  0  0  0  0  0  0  0  0  0  0  0
  153.4829  140.8754  160.2839 C   0  0  0  0  0  0  0  0  0  0  0  0
  154.2086  139.5657  160.2437 C   0  0  0  0  0  0  0  0  0  0  0  0
  155.1280  139.4851  159.1757 O   0  0  0  0  0  0  0  0  0  0  0  0
  153.5949  141.7130  161.3156 N   0  0  0  0  0  0  0  0  0  0  0  0
  152.7820  142.7654  160.9421 C   0  0  0  0  0  0  0  0  0  0  0  0
  152.4798  143.9739  161.6095 C   0  0  0  0  0  0  0  0  0  0  0  0
  151.6120  144.9170  161.0207 C   0  0  0  0  0  0  0  0  0  0  0  0
  151.0347  144.6657  159.7593 C   0  0  0  0  0  0  0  0  0  0  0  0
  151.3209  143.4670  159.0782 C   0  0  0  0  0  0  0  0  0  0  0  0
  152.1880  142.5288  159.6700 C   0  0  0  0  0  0  0  0  0  0  0  0
  149.1853  141.3945  154.4865 C   0  0  0  0  0  0  0  0  0  0  0  0
  147.9316  141.8990  154.0888 C   0  0  0  0  0  0  0  0  0  0  0  0
  144.4972  143.7754  153.4834 H   0  0  0  0  0  0  0  0  0  0  0  0
  145.8093  142.9181  152.6831 H   0  0  0  0  0  0  0  0  0  0  0  0
  146.1443  144.3699  153.6572 H   0  0  0  0  0  0  0  0  0  0  0  0
  146.4457  142.1056  157.1528 H   0  0  0  0  0  0  0  0  0  0  0  0
  148.6454  141.2195  157.8504 H   0  0  0  0  0  0  0  0  0  0  0  0
  150.3883  141.4560  158.2161 H   0  0  0  0  0  0  0  0  0  0  0  0
  150.3952  139.6922  158.1426 H   0  0  0  0  0  0  0  0  0  0  0  0
  152.7216  139.5666  158.1088 H   0  0  0  0  0  0  0  0  0  0  0  0
  152.9114  141.0509  157.2148 H   0  0  0  0  0  0  0  0  0  0  0  0
  154.7312  139.4017  161.1857 H   0  0  0  0  0  0  0  0  0  0  0  0
  153.4852  138.7559  160.1425 H   0  0  0  0  0  0  0  0  0  0  0  0
  155.6373  138.6959  159.2775 H   0  0  0  0  0  0  0  0  0  0  0  0
  152.9176  144.1765  162.5756 H   0  0  0  0  0  0  0  0  0  0  0  0
  151.3893  145.8380  161.5392 H   0  0  0  0  0  0  0  0  0  0  0  0
  150.3729  145.3941  159.3140 H   0  0  0  0  0  0  0  0  0  0  0  0
  150.8834  143.2732  158.1101 H   0  0  0  0  0  0  0  0  0  0  0  0
  149.9216  141.2065  153.7201 H   0  0  0  0  0  0  0  0  0  0  0  0
  147.7681  142.0751  153.0365 H   0  0  0  0  0  0  0  0  0  0  0  0
  1  2  1  0  0  0  0
  1 23  1  0  0  0  0
  1 24  1  0  0  0  0
  1 25  1  0  0  0  0
  2  3  1  0  0  0  0
  3 22  1  0  0  0  0
  3  4  2  0  0  0  0
  4  5  1  0  0  0  0
  4 26  1  0  0  0  0
  5  6  2  0  0  0  0
  5 27  1  0  0  0  0
  6  7  1  0  0  0  0
  6 21  1  0  0  0  0
  7  8  1  0  0  0  0
  8  9  1  0  0  0  0
  8 28  1  0  0  0  0
  8 29  1  0  0  0  0
  9 10  1  0  0  0  0
  9 30  1  0  0  0  0
  9 31  1  0  0  0  0
 10 20  1  0  0  0  0
 10 11  1  0  0  0  0
 11 12  1  0  0  0  0
 11 14  2  0  0  0  0
 12 13  1  0  0  0  0
 12 32  1  0  0  0  0
 12 33  1  0  0  0  0
 13 34  1  0  0  0  0
 14 15  1  0  0  0  0
 15 20  2  0  0  0  0
 15 16  1  0  0  0  0
 16 17  2  0  0  0  0
 16 35  1  0  0  0  0
 17 18  1  0  0  0  0
 17 36  1  0  0  0  0
 18 19  2  0  0  0  0
 18 37  1  0  0  0  0
 19 20  1  0  0  0  0
 19 38  1  0  0  0  0
 21 22  2  0  0  0  0
 21 39  1  0  0  0  0
 22 40  1  0  0  0  0
M  END
> <s_m_source_file>
AV-unprocessed.smi

> <i_m_source_file_index>
506

> <i_lp_mmshare_version>
43012

> <i_f3d_flags>
0

> <s_epik_input>
W0NIM11PYzFbY0hdW2NIXWMoW2NIXVtjSF0xKU9bQ0gyXVtDSDJdbihjKG4yKVtDSDJdW09IXSljKGMyMylbY0hdW2NIXVtjSF1bY0hdMw==

> <s_epik_cmdline>
J2VwaWtfcHl0aG9uJywgJy1waCcsICc3LjAnLCAnLXRuJywgJzgnLCAnLW1hJywgJzIwMCcsICctbWV0YWxfYmluZGluZycsICctaW1hZScsICc8aW5maWxlLm1hZT4nLCAnLW9tYWUnLCAnPG91dGZpbGUubWFlPic=

> <r_lp_tautomer_probability>
1

> <r_epik_Ionization_Penalty>
0.0483634

> <r_epik_Ionization_Penalty_Charging>
0

> <r_epik_Ionization_Penalty_Neutral>
0.0483634

> <r_epik_State_Penalty>
0.0411758

> <r_epik_Charging_Adjusted_Penalty>
0.0411758

> <i_epik_Tot_Q>
0

> <i_epik_Tot_abs_Q>
0

> <r_epik_Metal_State_Penalty>
4.26388e-05

> <b_epik_Metal_Only>
0

> <s_lp_Force_Field>
OPLS_2005

> <r_lp_Energy>
17.7354

> <b_lp_Chiralities_Consistent>
1

> <s_lp_Variant>
AV-unprocessed.smi:506-1

> <Gold.Version>
5.8.1

> <Gold.Id.Protein>
6NUR|6NUR_protein|mol2

> <Gold.PLP.Fitness>
46.5278

> <Gold.PLP.PLP>
-47.1217

> <Gold.PLP.part.hbond>
-1.0000

> <Gold.PLP.part.metal>
0.0000

> <Gold.PLP.part.buried>
-3.9317

> <Gold.PLP.part.nonpolar>
-41.1897

> <Gold.PLP.part.repulsive>
0.2260

> <Gold.PLP.ligand.clash>
1.8583

> <Gold.PLP.ligand.torsion>
0.9219

> <Gold.PLP.Chemscore.Hbond>
1.0000

> <Gold.PLP.Chemscore.CHOScore>
0.0000

> <Gold.PLP.Chemscore.Metal>
0.0000

> <Gold.Chemscore.Hbonds>
donor molecule, donor type, donor heavy atom, donor atom, acceptor molecule, acceptor atom, score
      P1  H  7997  8009       L1    13  1.00

> <Gold.PLP.Chemscore.Internal.Correction>
0.1083

> <Gold.Rescore>
     Score         DG    S(hbond)    S(metal)    S(lipo)     H(rot)  DE(clash)    DE(int)     intcor
     16.20     -17.19       0.97        0.00     126.18       2.46       0.19       0.81       ----

> <Gold.Chemscore.Fitness>
16.1953

> <Gold.Chemscore.DG>
-17.1903

> <Gold.Chemscore.ZeroCoef>
-5.4800

> <Gold.Chemscore.Hbond>
0.9687

> <Gold.Chemscore.Metal>
0.0000

> <Gold.Chemscore.Lipo>
126.1790

> <Gold.Chemscore.Internal_Hbond>
0.0000

> <Gold.Chemscore.DEClash>
0.1878

> <Gold.Chemscore.DEInternal>
0.8073

> <Gold.Chemscore.Rot>
2.4562

> <Gold.Chemscore.Internal.Correction>
   9.000000E+99

> <Gold.Chemscore.Hbonds>
donor molecule, donor type, donor heavy atom, donor atom, acceptor molecule, acceptor atom, score
      P1  H  7997  8009       L1    13  0.65

> <Gold.Chemscore.Hbond.Weighted>
-3.2354

> <Gold.Chemscore.Metal.Weighted>
-0.0000

> <Gold.Chemscore.Lipo.Weighted>
-14.7629

> <Gold.Chemscore.Internal_Hbond.Weighted>
0.0000

> <Gold.Chemscore.DEClash.Weighted>
0.1878

> <Gold.Chemscore.DEInternal.Weighted>
0.8073

> <Gold.Chemscore.Rot.Weighted>
6.2880

> <Gold.Chemscore.Internal.Correction.Weighted>
   9.000000E+99

> <Gold.Protein.RotatedTorsions>
[ 6907 6896 6895 6894 ] final  118.57 input  -60.11 | X-H torsion
[ 7974 7965 7964 7962 ] final  -15.63 input  175.53 | X-H torsion
[ 8008 7997 7996 7995 ] final  111.78 input   59.86 | X-H torsion
[ 10167 10162 10161 10158 ] final   90.32 input  -65.29 | X-H torsion
[ 10718 10713 10712 10709 ] final  -41.50 input   66.30 | X-H torsion
[ 10763 10752 10751 10750 ] final   60.10 input  -60.55 | X-H torsion
[ 11005 11000 10999 10996 ] final -176.01 input  -57.11 | X-H torsion

> <Gold.Protein.ActiveResidues>
 VAL166  LYS551  ARG553  GLY616  TRP617  ASP618  TYR619  PRO620  LYS621  CYS622 
 ASP623  PHE694  ASN695  SER759  ASP760  ASP761  ALA762  ILE779  LEU786  VAL792 
 PHE793  MET794  SER795  GLU796  ALA797  LYS798  CYS799  TRP800  GLU811  SER814 

> <Gold.Protein.RotatedAtoms>
  152.4534  133.7673  159.6779 H   0  0  0  0  0  0  0  0  0  0  0  0  # atno 6907 bound_to 6896
  150.8452  133.7863  159.3052 H   0  0  0  0  0  0  0  0  0  0  0  0  # atno 6908 bound_to 6896
  151.5475  135.1070  159.9993 H   0  0  0  0  0  0  0  0  0  0  0  0  # atno 6909 bound_to 6896
  146.2023  140.3521  142.8419 H   0  0  0  0  0  0  0  0  0  0  0  0  # atno 7974 bound_to 7965
  156.2147  140.3012  155.9813 H   0  0  0  0  0  0  0  0  0  0  0  0  # atno 8008 bound_to 7997
  155.2634  140.0430  157.3017 H   0  0  0  0  0  0  0  0  0  0  0  0  # atno 8009 bound_to 7997
  154.5751  140.2359  155.8143 H   0  0  0  0  0  0  0  0  0  0  0  0  # atno 8010 bound_to 7997
  139.8485  144.6605  150.9198 H   0  0  0  0  0  0  0  0  0  0  0  0  # atno 10167 bound_to 10162
  156.2697  130.4205  149.8451 H   0  0  0  0  0  0  0  0  0  0  0  0  # atno 10718 bound_to 10713
  152.9912  135.5548  154.5820 H   0  0  0  0  0  0  0  0  0  0  0  0  # atno 10763 bound_to 10752
  154.5199  135.2807  155.1273 H   0  0  0  0  0  0  0  0  0  0  0  0  # atno 10764 bound_to 10752
  154.2631  135.6377  153.5335 H   0  0  0  0  0  0  0  0  0  0  0  0  # atno 10765 bound_to 10752
  140.4569  134.6291  157.4826 H   0  0  0  0  0  0  0  0  0  0  0  0  # atno 11005 bound_to 11000
  144.8712  140.7275  143.6046 LP  0  0  0  0  0  0  0  0  0  0  0  0  # atno 17320 bound_to 7965
  145.3440  139.1724  143.4470 LP  0  0  0  0  0  0  0  0  0  0  0  0  # atno 17321 bound_to 7965
  140.7790  143.3848  151.1412 LP  0  0  0  0  0  0  0  0  0  0  0  0  # atno 17342 bound_to 10162
  139.7489  143.8810  152.3071 LP  0  0  0  0  0  0  0  0  0  0  0  0  # atno 17343 bound_to 10162
  156.5937  130.8517  151.3414 LP  0  0  0  0  0  0  0  0  0  0  0  0  # atno 17370 bound_to 10713
  157.7280  130.9650  150.1721 LP  0  0  0  0  0  0  0  0  0  0  0  0  # atno 17371 bound_to 10713
  139.9970  134.6895  155.9592 LP  0  0  0  0  0  0  0  0  0  0  0  0  # atno 17394 bound_to 11000
  141.1639  133.6537  156.4412 LP  0  0  0  0  0  0  0  0  0  0  0  0  # atno 17395 bound_to 11000

$$$$
