AV-unprocessed.smi:2119|AV-procd|sdf|8632|dock7
  -GOLD-   2272011373D 1   1.00000     0.00000
 Structure written by MMmdl.
 47 49  0  0  0  0  0  0  0  0  1 V2000
  145.2010  135.3117  154.2550 O   0  0  0  0  0  0  0  0  0  0  0  0
  146.2177  135.4171  153.5696 C   0  0  0  0  0  0  0  0  0  0  0  0
  147.2646  136.1792  153.9154 N   0  0  0  0  0  0  0  0  0  0  0  0
  147.3348  137.0161  155.1106 C   0  0  0  0  0  0  0  0  0  0  0  0
  148.5461  136.6794  156.0368 C   0  0  2  0  0  0  0  0  0  0  0  0
  148.0357  136.5345  157.5120 C   0  0  1  0  0  0  0  0  0  0  0  0
  149.0231  136.2799  158.6380 C   0  0  0  0  0  0  0  0  0  0  0  0
  148.1482  136.5166  159.8628 C   0  0  0  0  0  0  0  0  0  0  0  0
  147.2849  137.5871  159.4947 O   0  0  0  0  0  0  0  0  0  0  0  0
  147.2845  137.7463  158.0775 C   0  0  0  0  0  0  0  0  0  0  0  0
  149.7174  137.5820  155.8956 N   0  0  0  0  0  0  0  0  0  0  0  0
  150.3739  137.4200  154.5916 C   0  0  0  0  0  0  0  0  0  0  0  0
  151.6482  138.2713  154.4705 C   0  0  0  0  0  0  0  0  0  0  0  0
  151.3162  139.6415  154.6592 O   0  0  0  0  0  0  0  0  0  0  0  0
  150.6907  139.8815  155.9138 C   0  0  0  0  0  0  0  0  0  0  0  0
  149.4265  139.0120  156.0450 C   0  0  0  0  0  0  0  0  0  0  0  0
  146.4389  134.7936  152.3999 N   0  0  0  0  0  0  0  0  0  0  0  0
  145.5682  133.9450  151.6637 C   0  0  0  0  0  0  0  0  0  0  0  0
  145.9851  133.0673  150.6332 C   0  0  0  0  0  0  0  0  0  0  0  0
  145.0212  132.2646  149.9929 C   0  0  0  0  0  0  0  0  0  0  0  0
  143.6795  132.3615  150.4100 C   0  0  0  0  0  0  0  0  0  0  0  0
  143.2703  133.1836  151.3990 N   0  0  0  0  0  0  0  0  0  0  0  0
  144.1997  133.9505  152.0078 C   0  0  0  0  0  0  0  0  0  0  0  0
  148.0633  136.2006  153.2982 H   0  0  0  0  0  0  0  0  0  0  0  0
  147.3735  138.0523  154.7721 H   0  0  0  0  0  0  0  0  0  0  0  0
  146.3952  136.9059  155.6524 H   0  0  0  0  0  0  0  0  0  0  0  0
  148.8731  135.6860  155.7259 H   0  0  0  0  0  0  0  0  0  0  0  0
  147.3463  135.6892  157.5369 H   0  0  0  0  0  0  0  0  0  0  0  0
  149.4635  135.2827  158.6153 H   0  0  0  0  0  0  0  0  0  0  0  0
  149.8186  137.0248  158.6473 H   0  0  0  0  0  0  0  0  0  0  0  0
  147.5435  135.6345  160.0776 H   0  0  0  0  0  0  0  0  0  0  0  0
  148.7279  136.7572  160.7542 H   0  0  0  0  0  0  0  0  0  0  0  0
  147.8048  138.6733  157.8329 H   0  0  0  0  0  0  0  0  0  0  0  0
  146.2648  137.8213  157.6994 H   0  0  0  0  0  0  0  0  0  0  0  0
  150.6248  136.3855  154.3829 H   0  0  0  0  0  0  0  0  0  0  0  0
  149.6828  137.7129  153.7995 H   0  0  0  0  0  0  0  0  0  0  0  0
  152.3940  137.9608  155.2037 H   0  0  0  0  0  0  0  0  0  0  0  0
  152.0950  138.1474  153.4840 H   0  0  0  0  0  0  0  0  0  0  0  0
  151.3913  139.6666  156.7220 H   0  0  0  0  0  0  0  0  0  0  0  0
  150.4330  140.9380  155.9865 H   0  0  0  0  0  0  0  0  0  0  0  0
  148.6917  139.3245  155.3011 H   0  0  0  0  0  0  0  0  0  0  0  0
  148.9962  139.2121  157.0259 H   0  0  0  0  0  0  0  0  0  0  0  0
  147.3571  134.9190  151.9990 H   0  0  0  0  0  0  0  0  0  0  0  0
  147.0167  132.9808  150.3302 H   0  0  0  0  0  0  0  0  0  0  0  0
  145.3052  131.5858  149.2025 H   0  0  0  0  0  0  0  0  0  0  0  0
  142.9164  131.7585  149.9407 H   0  0  0  0  0  0  0  0  0  0  0  0
  143.8365  134.5934  152.7963 H   0  0  0  0  0  0  0  0  0  0  0  0
  1  2  2  0  0  0  0
  2  3  1  0  0  0  0
  2 17  1  0  0  0  0
  3  4  1  0  0  0  0
  3 24  1  0  0  0  0
  4  5  1  0  0  0  0
  4 25  1  0  0  0  0
  4 26  1  0  0  0  0
  5  6  1  0  0  0  0
  5 11  1  0  0  0  0
  5 27  1  0  0  0  0
  6 10  1  0  0  0  0
  6  7  1  0  0  0  0
  6 28  1  0  0  0  0
  7  8  1  0  0  0  0
  7 29  1  0  0  0  0
  7 30  1  0  0  0  0
  8  9  1  0  0  0  0
  8 31  1  0  0  0  0
  8 32  1  0  0  0  0
  9 10  1  0  0  0  0
 10 33  1  0  0  0  0
 10 34  1  0  0  0  0
 11 16  1  0  0  0  0
 11 12  1  0  0  0  0
 12 13  1  0  0  0  0
 12 35  1  0  0  0  0
 12 36  1  0  0  0  0
 13 14  1  0  0  0  0
 13 37  1  0  0  0  0
 13 38  1  0  0  0  0
 14 15  1  0  0  0  0
 15 16  1  0  0  0  0
 15 39  1  0  0  0  0
 15 40  1  0  0  0  0
 16 41  1  0  0  0  0
 16 42  1  0  0  0  0
 17 18  1  0  0  0  0
 17 43  1  0  0  0  0
 18 23  1  0  0  0  0
 18 19  2  0  0  0  0
 19 20  1  0  0  0  0
 19 44  1  0  0  0  0
 20 21  2  0  0  0  0
 20 45  1  0  0  0  0
 21 22  1  0  0  0  0
 21 46  1  0  0  0  0
 22 23  2  0  0  0  0
 23 47  1  0  0  0  0
M  END
> <s_m_source_file>
AV-unprocessed.smi

> <i_m_source_file_index>
2119

> <i_lp_mmshare_version>
43012

> <i_f3d_flags>
0

> <s_epik_input>
W2NIXTFuW2NIXVtjSF1bY0hdYzFbTkhdQyg9TylbTkhdW0NIMl1bQ0BIXShbQ0BASF0yW0NIMl1bQ0gyXU9bQ0gyXTIpTjNbQ0gyXVtDSDJdT1tDSDJdW0NIMl0z

> <s_epik_cmdline>
J2VwaWtfcHl0aG9uJywgJy1waCcsICc3LjAnLCAnLXRuJywgJzgnLCAnLW1hJywgJzIwMCcsICctbWV0YWxfYmluZGluZycsICctaW1hZScsICc8aW5maWxlLm1hZT4nLCAnLW9tYWUnLCAnPG91dGZpbGUubWFlPic=

> <r_epik_Ionization_Penalty>
0.129787

> <r_epik_Ionization_Penalty_Charging>
0

> <r_epik_Ionization_Penalty_Neutral>
0.129787

> <r_epik_State_Penalty>
0.121311

> <r_epik_Charging_Adjusted_Penalty>
0.121311

> <i_epik_Tot_Q>
0

> <i_epik_Tot_abs_Q>
0

> <r_epik_Metal_State_Penalty>
0.117931

> <b_epik_Metal_Only>
0

> <s_lp_Force_Field>
OPLS_2005

> <r_lp_Energy>
58.2648

> <b_lp_Chiralities_Consistent>
1

> <s_lp_Variant>
AV-unprocessed.smi:2119-3

> <Gold.Version>
5.8.1

> <Gold.Id.Protein>
6NUR|6NUR_protein|mol2

> <Gold.PLP.Fitness>
42.7374

> <Gold.PLP.PLP>
-30.4844

> <Gold.PLP.part.hbond>
-4.0000

> <Gold.PLP.part.metal>
0.0000

> <Gold.PLP.part.buried>
-6.9217

> <Gold.PLP.part.nonpolar>
-21.7354

> <Gold.PLP.part.repulsive>
0.4025

> <Gold.PLP.ligand.clash>
0.0000

> <Gold.PLP.ligand.torsion>
0.9010

> <Gold.PLP.Chemscore.Hbond>
3.6960

> <Gold.PLP.Chemscore.CHOScore>
0.9364

> <Gold.PLP.Chemscore.Metal>
0.0000

> <Gold.Chemscore.Hbonds>
donor molecule, donor type, donor heavy atom, donor atom, acceptor molecule, acceptor atom, score
      L1  H     3    24       P1  7948  1.00
      L1  H    17    43       P1  7948  0.91
      P1  H  6934  6947       L1     9  0.78
      P1  H  7989  7998       L1    14  1.00
      L1  C    21    46       P1 10952  0.94

> <Gold.PLP.Chemscore.Internal.Correction>
0.1576

> <Gold.Rescore>
     Score         DG    S(hbond)    S(metal)    S(lipo)     H(rot)  DE(clash)    DE(int)     intcor
     19.85     -22.03       3.71        0.00      71.51       1.65       0.00       2.17       ----

> <Gold.Chemscore.Fitness>
19.8548

> <Gold.Chemscore.DG>
-22.0262

> <Gold.Chemscore.ZeroCoef>
-5.4800

> <Gold.Chemscore.Hbond>
3.7142

> <Gold.Chemscore.Metal>
0.0000

> <Gold.Chemscore.Lipo>
71.5133

> <Gold.Chemscore.Internal_Hbond>
0.0000

> <Gold.Chemscore.DEClash>
0.0000

> <Gold.Chemscore.DEInternal>
2.1714

> <Gold.Chemscore.Rot>
1.6508

> <Gold.Chemscore.Internal.Correction>
   9.000000E+99

> <Gold.Chemscore.Hbonds>
donor molecule, donor type, donor heavy atom, donor atom, acceptor molecule, acceptor atom, score
      L1  H     3    24       P1  7948  1.00
      L1  H    17    43       P1  7948  0.75
      P1  H  6934  6947       L1     9  0.63
      P1  H  7989  7998       L1    14  0.99

> <Gold.Chemscore.Hbond.Weighted>
-12.4053

> <Gold.Chemscore.Metal.Weighted>
-0.0000

> <Gold.Chemscore.Lipo.Weighted>
-8.3671

> <Gold.Chemscore.Internal_Hbond.Weighted>
0.0000

> <Gold.Chemscore.DEClash.Weighted>
0.0000

> <Gold.Chemscore.DEInternal.Weighted>
2.1714

> <Gold.Chemscore.Rot.Weighted>
4.2262

> <Gold.Chemscore.Internal.Correction.Weighted>
   9.000000E+99

> <Gold.Protein.RotatedTorsions>
[ 6907 6896 6895 6894 ] final  -31.32 input  -60.11 | X-H torsion
[ 7974 7965 7964 7962 ] final    9.96 input  175.53 | X-H torsion
[ 8008 7997 7996 7995 ] final  -84.68 input   59.86 | X-H torsion
[ 10167 10162 10161 10158 ] final -129.00 input  -65.29 | X-H torsion
[ 10718 10713 10712 10709 ] final  168.88 input   66.30 | X-H torsion
[ 10763 10752 10751 10750 ] final  -89.08 input  -60.55 | X-H torsion
[ 11005 11000 10999 10996 ] final -122.03 input  -57.11 | X-H torsion

> <Gold.Protein.ActiveResidues>
 VAL166  LYS551  ARG553  GLY616  TRP617  ASP618  TYR619  PRO620  LYS621  CYS622 
 ASP623  PHE694  ASN695  SER759  ASP760  ASP761  ALA762  ILE779  LEU786  VAL792 
 PHE793  MET794  SER795  GLU796  ALA797  LYS798  CYS799  TRP800  GLU811  SER814 

> <Gold.Protein.RotatedAtoms>
  151.0937  134.9931  159.8414 H   0  0  0  0  0  0  0  0  0  0  0  0  # atno 6907 bound_to 6896
  152.5431  134.2034  159.8731 H   0  0  0  0  0  0  0  0  0  0  0  0  # atno 6908 bound_to 6896
  151.2072  133.4532  159.2631 H   0  0  0  0  0  0  0  0  0  0  0  0  # atno 6909 bound_to 6896
  146.2396  139.9705  142.8447 H   0  0  0  0  0  0  0  0  0  0  0  0  # atno 7974 bound_to 7965
  154.6324  140.0602  156.9748 H   0  0  0  0  0  0  0  0  0  0  0  0  # atno 8008 bound_to 7997
  155.1644  140.3285  155.4386 H   0  0  0  0  0  0  0  0  0  0  0  0  # atno 8009 bound_to 7997
  156.2490  140.1925  156.6750 H   0  0  0  0  0  0  0  0  0  0  0  0  # atno 8010 bound_to 7997
  139.9444  143.6126  152.2494 H   0  0  0  0  0  0  0  0  0  0  0  0  # atno 10167 bound_to 10162
  157.0307  131.0258  151.2745 H   0  0  0  0  0  0  0  0  0  0  0  0  # atno 10718 bound_to 10713
  154.6515  135.5354  153.7907 H   0  0  0  0  0  0  0  0  0  0  0  0  # atno 10763 bound_to 10752
  153.0389  135.6483  154.1010 H   0  0  0  0  0  0  0  0  0  0  0  0  # atno 10764 bound_to 10752
  154.0926  135.2939  155.3248 H   0  0  0  0  0  0  0  0  0  0  0  0  # atno 10765 bound_to 10752
  141.0026  134.0381  157.3518 H   0  0  0  0  0  0  0  0  0  0  0  0  # atno 11005 bound_to 11000
  145.1686  140.9709  143.4335 LP  0  0  0  0  0  0  0  0  0  0  0  0  # atno 17320 bound_to 7965
  145.0050  139.3563  143.6149 LP  0  0  0  0  0  0  0  0  0  0  0  0  # atno 17321 bound_to 7965
  139.6678  144.7662  151.1839 LP  0  0  0  0  0  0  0  0  0  0  0  0  # atno 17342 bound_to 10162
  140.7601  143.5910  150.8796 LP  0  0  0  0  0  0  0  0  0  0  0  0  # atno 17343 bound_to 10162
  157.5180  130.7980  149.7777 LP  0  0  0  0  0  0  0  0  0  0  0  0  # atno 17370 bound_to 10713
  156.0070  130.3851  150.2395 LP  0  0  0  0  0  0  0  0  0  0  0  0  # atno 17371 bound_to 10713
  139.9046  135.0176  156.7429 LP  0  0  0  0  0  0  0  0  0  0  0  0  # atno 17394 bound_to 11000
  140.6865  133.9428  155.7940 LP  0  0  0  0  0  0  0  0  0  0  0  0  # atno 17395 bound_to 11000

$$$$
