AV-unprocessed.smi:1643|AV-procd|sdf|6572|dock4
  -GOLD-   22720 7253D 1   1.00000     0.00000
 Structure written by MMmdl.
 54 56  0  0  0  0  0  0  0  0  2 V2000
  143.8653  139.3085  155.6285 C   0  0  0  0  0  0  0  0  0  0  0  0
  144.7092  139.6821  156.8501 C   0  0  0  0  0  0  0  0  0  0  0  0
  144.9256  138.8101  157.6917 O   0  0  0  0  0  0  0  0  0  0  0  0
  145.1954  140.9432  156.9609 N   0  0  0  0  0  0  0  0  0  0  0  0
  144.8363  141.9877  155.9901 C   0  0  0  0  0  0  0  0  0  0  0  0
  145.9512  142.2295  154.9479 C   0  0  0  0  0  0  0  0  0  0  0  0
  147.3353  141.6324  155.2896 C   0  0  0  0  0  0  0  0  0  0  0  0
  147.9899  142.1994  156.5049 N   0  3  2  0  0  0  0  0  0  0  0  0
  149.1861  141.4228  156.9318 C   0  0  0  0  0  0  0  0  0  0  0  0
  150.4449  141.7131  156.0878 C   0  0  2  0  0  0  0  0  0  0  0  0
  150.5439  140.6997  155.1076 O   0  0  0  0  0  0  0  0  0  0  0  0
  151.7389  141.7403  156.9272 C   0  0  0  0  0  0  0  0  0  0  0  0
  151.6247  142.5964  158.0944 N   0  0  0  0  0  0  0  0  0  0  0  0
  150.8940  143.7224  158.2042 C   0  0  0  0  0  0  0  0  0  0  0  0
  150.9322  144.3623  159.3688 N   0  0  0  0  0  0  0  0  0  0  0  0
  151.7860  143.5566  160.1025 C   0  0  0  0  0  0  0  0  0  0  0  0
  152.2484  143.6808  161.4307 C   0  0  0  0  0  0  0  0  0  0  0  0
  153.1328  142.7266  161.9822 C   0  0  0  0  0  0  0  0  0  0  0  0
  153.6067  142.9000  163.4147 C   0  0  0  0  0  0  0  0  0  0  0  0
  153.5678  141.6259  161.2012 C   0  0  0  0  0  0  0  0  0  0  0  0
  154.5179  140.5885  161.7728 C   0  0  0  0  0  0  0  0  0  0  0  0
  153.1152  141.4866  159.8724 C   0  0  0  0  0  0  0  0  0  0  0  0
  152.2358  142.4428  159.3347 C   0  0  0  0  0  0  0  0  0  0  0  0
  147.0845  142.5106  157.6497 C   0  0  0  0  0  0  0  0  0  0  0  0
  146.1022  141.3752  158.0414 C   0  0  0  0  0  0  0  0  0  0  0  0
  144.3578  139.6106  154.7038 H   0  0  0  0  0  0  0  0  0  0  0  0
  142.8839  139.7802  155.6791 H   0  0  0  0  0  0  0  0  0  0  0  0
  143.7138  138.2294  155.5840 H   0  0  0  0  0  0  0  0  0  0  0  0
  143.9005  141.7645  155.4752 H   0  0  0  0  0  0  0  0  0  0  0  0
  144.6143  142.9095  156.5282 H   0  0  0  0  0  0  0  0  0  0  0  0
  145.6293  141.7892  154.0034 H   0  0  0  0  0  0  0  0  0  0  0  0
  146.0431  143.2987  154.7531 H   0  0  0  0  0  0  0  0  0  0  0  0
  147.2590  140.5477  155.3800 H   0  0  0  0  0  0  0  0  0  0  0  0
  147.9904  141.8095  154.4371 H   0  0  0  0  0  0  0  0  0  0  0  0
  149.4194  141.6498  157.9732 H   0  0  0  0  0  0  0  0  0  0  0  0
  148.9469  140.3584  156.8997 H   0  0  0  0  0  0  0  0  0  0  0  0
  150.3337  142.6547  155.5511 H   0  0  0  0  0  0  0  0  0  0  0  0
  149.6737  140.3920  154.9023 H   0  0  0  0  0  0  0  0  0  0  0  0
  151.9907  140.7365  157.2709 H   0  0  0  0  0  0  0  0  0  0  0  0
  152.5813  142.0816  156.3241 H   0  0  0  0  0  0  0  0  0  0  0  0
  150.3021  144.0952  157.3809 H   0  0  0  0  0  0  0  0  0  0  0  0
  151.9173  144.5198  162.0249 H   0  0  0  0  0  0  0  0  0  0  0  0
  153.3125  142.0433  164.0213 H   0  0  0  0  0  0  0  0  0  0  0  0
  153.1804  143.7946  163.8697 H   0  0  0  0  0  0  0  0  0  0  0  0
  154.6925  142.9930  163.4491 H   0  0  0  0  0  0  0  0  0  0  0  0
  154.7627  139.8240  161.0350 H   0  0  0  0  0  0  0  0  0  0  0  0
  154.0686  140.0918  162.6330 H   0  0  0  0  0  0  0  0  0  0  0  0
  155.4500  141.0567  162.0901 H   0  0  0  0  0  0  0  0  0  0  0  0
  153.4406  140.6540  159.2665 H   0  0  0  0  0  0  0  0  0  0  0  0
  147.6798  142.7784  158.5233 H   0  0  0  0  0  0  0  0  0  0  0  0
  146.5457  143.4288  157.4185 H   0  0  0  0  0  0  0  0  0  0  0  0
  145.4919  141.7010  158.8845 H   0  0  0  0  0  0  0  0  0  0  0  0
  146.7049  140.5434  158.4051 H   0  0  0  0  0  0  0  0  0  0  0  0
  148.3487  143.1009  156.2245 H   0  0  0  0  0  0  0  0  0  0  0  0
  1  2  1  0  0  0  0
  1 26  1  0  0  0  0
  1 27  1  0  0  0  0
  1 28  1  0  0  0  0
  2  3  2  0  0  0  0
  2  4  1  0  0  0  0
  4 25  1  0  0  0  0
  4  5  1  0  0  0  0
  5  6  1  0  0  0  0
  5 29  1  0  0  0  0
  5 30  1  0  0  0  0
  6  7  1  0  0  0  0
  6 31  1  0  0  0  0
  6 32  1  0  0  0  0
  7  8  1  0  0  0  0
  7 33  1  0  0  0  0
  7 34  1  0  0  0  0
  8  9  1  0  0  0  0
  8 24  1  0  0  0  0
  8 54  1  0  0  0  0
  9 10  1  0  0  0  0
  9 35  1  0  0  0  0
  9 36  1  0  0  0  0
 10 11  1  0  0  0  0
 10 12  1  0  0  0  0
 10 37  1  0  0  0  0
 11 38  1  0  0  0  0
 12 13  1  0  0  0  0
 12 39  1  0  0  0  0
 12 40  1  0  0  0  0
 13 23  1  0  0  0  0
 13 14  1  0  0  0  0
 14 15  2  0  0  0  0
 14 41  1  0  0  0  0
 15 16  1  0  0  0  0
 16 23  2  0  0  0  0
 16 17  1  0  0  0  0
 17 18  2  0  0  0  0
 17 42  1  0  0  0  0
 18 19  1  0  0  0  0
 18 20  1  0  0  0  0
 19 43  1  0  0  0  0
 19 44  1  0  0  0  0
 19 45  1  0  0  0  0
 20 21  1  0  0  0  0
 20 22  2  0  0  0  0
 21 46  1  0  0  0  0
 21 47  1  0  0  0  0
 21 48  1  0  0  0  0
 22 23  1  0  0  0  0
 22 49  1  0  0  0  0
 24 25  1  0  0  0  0
 24 50  1  0  0  0  0
 24 51  1  0  0  0  0
 25 52  1  0  0  0  0
 25 53  1  0  0  0  0
M  CHG  1   8   1
M  END
> <s_m_source_file>
AV-unprocessed.smi

> <i_m_source_file_index>
1643

> <i_lp_mmshare_version>
43012

> <i_f3d_flags>
0

> <s_epik_input>
W0NIM11DKD1PKU4xW0NIMl1bQ0gyXVtDSDJdTihbQ0gyXVtDSDJdMSlbQ0gyXVtDQEhdKFtPSF0pW0NIMl1uKFtjSF1uMiljKGMyMylbY0hdYyhbQ0gzXSljKFtjSF0zKVtDSDNd

> <s_epik_cmdline>
J2VwaWtfcHl0aG9uJywgJy1waCcsICc3LjAnLCAnLXRuJywgJzgnLCAnLW1hJywgJzIwMCcsICctbWV0YWxfYmluZGluZycsICctaW1hZScsICc8aW5maWxlLm1hZT4nLCAnLW9tYWUnLCAnPG91dGZpbGUubWFlPic=

> <r_epik_Ionization_Penalty>
0.189467

> <r_epik_Ionization_Penalty_Charging>
0.101761

> <r_epik_Ionization_Penalty_Neutral>
0.0877056

> <r_epik_State_Penalty>
0.170758

> <r_epik_Charging_Adjusted_Penalty>
0.272519

> <i_epik_Tot_Q>
1

> <i_epik_Tot_abs_Q>
1

> <r_epik_Metal_State_Penalty>
0.0948013

> <b_epik_Metal_Only>
0

> <s_lp_Force_Field>
OPLS_2005

> <r_lp_Energy>
49.989

> <b_lp_Chiralities_Consistent>
1

> <s_lp_Variant>
AV-unprocessed.smi:1643-1

> <Gold.Version>
5.8.1

> <Gold.Id.Protein>
6NUR|6NUR_protein|mol2

> <Gold.PLP.Fitness>
56.6273

> <Gold.PLP.PLP>
-47.2492

> <Gold.PLP.part.hbond>
-2.0000

> <Gold.PLP.part.metal>
0.0000

> <Gold.PLP.part.buried>
-7.2757

> <Gold.PLP.part.nonpolar>
-37.8366

> <Gold.PLP.part.repulsive>
0.1262

> <Gold.PLP.ligand.clash>
0.0000

> <Gold.PLP.ligand.torsion>
1.2301

> <Gold.PLP.Chemscore.Hbond>
2.9120

> <Gold.PLP.Chemscore.CHOScore>
1.0000

> <Gold.PLP.Chemscore.Metal>
0.0000

> <Gold.Chemscore.Hbonds>
donor molecule, donor type, donor heavy atom, donor atom, acceptor molecule, acceptor atom, score
      L1  H     8    54       P1  8028  2.00
      P1  H  7989  7998       L1    11  0.90
      L1  C    14    41       P1  8028  1.00

> <Gold.PLP.Chemscore.Internal.Correction>
0.1023

> <Gold.Rescore>
     Score         DG    S(hbond)    S(metal)    S(lipo)     H(rot)  DE(clash)    DE(int)     intcor
     17.25     -19.83       1.68        0.00     120.92       2.12       1.29       1.29       ----

> <Gold.Chemscore.Fitness>
17.2535

> <Gold.Chemscore.DG>
-19.8318

> <Gold.Chemscore.ZeroCoef>
-5.4800

> <Gold.Chemscore.Hbond>
1.6844

> <Gold.Chemscore.Metal>
0.0000

> <Gold.Chemscore.Lipo>
120.9164

> <Gold.Chemscore.Internal_Hbond>
0.0000

> <Gold.Chemscore.DEClash>
1.2911

> <Gold.Chemscore.DEInternal>
1.2871

> <Gold.Chemscore.Rot>
2.1178

> <Gold.Chemscore.Internal.Correction>
   9.000000E+99

> <Gold.Chemscore.Hbonds>
donor molecule, donor type, donor heavy atom, donor atom, acceptor molecule, acceptor atom, score
      L1  H     8    54       P1  8028  0.78
      P1  H  7989  7998       L1    11  0.68

> <Gold.Chemscore.Hbond.Weighted>
-5.6260

> <Gold.Chemscore.Metal.Weighted>
-0.0000

> <Gold.Chemscore.Lipo.Weighted>
-14.1472

> <Gold.Chemscore.Internal_Hbond.Weighted>
0.0000

> <Gold.Chemscore.DEClash.Weighted>
1.2911

> <Gold.Chemscore.DEInternal.Weighted>
1.2871

> <Gold.Chemscore.Rot.Weighted>
5.4215

> <Gold.Chemscore.Internal.Correction.Weighted>
   9.000000E+99

> <Gold.Protein.RotatedTorsions>
[ 6907 6896 6895 6894 ] final -142.67 input  -60.11 | X-H torsion
[ 7974 7965 7964 7962 ] final -167.28 input  175.53 | X-H torsion
[ 8008 7997 7996 7995 ] final  -25.98 input   59.86 | X-H torsion
[ 10167 10162 10161 10158 ] final  -36.44 input  -65.29 | X-H torsion
[ 10718 10713 10712 10709 ] final  -31.59 input   66.30 | X-H torsion
[ 10763 10752 10751 10750 ] final -141.26 input  -60.55 | X-H torsion
[ 11005 11000 10999 10996 ] final  165.73 input  -57.11 | X-H torsion

> <Gold.Protein.ActiveResidues>
 VAL166  LYS551  ARG553  GLY616  TRP617  ASP618  TYR619  PRO620  LYS621  CYS622 
 ASP623  PHE694  ASN695  SER759  ASP760  ASP761  ALA762  ILE779  LEU786  VAL792 
 PHE793  MET794  SER795  GLU796  ALA797  LYS798  CYS799  TRP800  GLU811  SER814 

> <Gold.Protein.RotatedAtoms>
  151.0902  133.5322  159.2615 H   0  0  0  0  0  0  0  0  0  0  0  0  # atno 6907 bound_to 6896
  151.2192  135.0511  159.8952 H   0  0  0  0  0  0  0  0  0  0  0  0  # atno 6908 bound_to 6896
  152.5433  134.0707  159.8246 H   0  0  0  0  0  0  0  0  0  0  0  0  # atno 6909 bound_to 6896
  144.7226  140.2541  143.6274 H   0  0  0  0  0  0  0  0  0  0  0  0  # atno 7974 bound_to 7965
  154.4448  140.1912  156.0703 H   0  0  0  0  0  0  0  0  0  0  0  0  # atno 8008 bound_to 7997
  156.0516  140.3308  155.7331 H   0  0  0  0  0  0  0  0  0  0  0  0  # atno 8009 bound_to 7997
  155.5548  140.0598  157.2833 H   0  0  0  0  0  0  0  0  0  0  0  0  # atno 8010 bound_to 7997
  140.7142  143.3409  151.2360 H   0  0  0  0  0  0  0  0  0  0  0  0  # atno 10167 bound_to 10162
  156.3854  130.4363  149.7436 H   0  0  0  0  0  0  0  0  0  0  0  0  # atno 10718 bound_to 10713
  154.8551  135.3529  154.5840 H   0  0  0  0  0  0  0  0  0  0  0  0  # atno 10763 bound_to 10752
  153.6451  135.6996  153.5233 H   0  0  0  0  0  0  0  0  0  0  0  0  # atno 10764 bound_to 10752
  153.2940  135.4226  155.1151 H   0  0  0  0  0  0  0  0  0  0  0  0  # atno 10765 bound_to 10752
  140.2591  134.7916  157.3573 H   0  0  0  0  0  0  0  0  0  0  0  0  # atno 11005 bound_to 11000
  145.8199  139.2039  143.1944 LP  0  0  0  0  0  0  0  0  0  0  0  0  # atno 17320 bound_to 7965
  146.0523  140.8057  142.9775 LP  0  0  0  0  0  0  0  0  0  0  0  0  # atno 17321 bound_to 7965
  139.6916  143.9683  152.2862 LP  0  0  0  0  0  0  0  0  0  0  0  0  # atno 17342 bound_to 10162
  139.9346  144.6720  150.8328 LP  0  0  0  0  0  0  0  0  0  0  0  0  # atno 17343 bound_to 10162
  156.4511  130.7907  151.2928 LP  0  0  0  0  0  0  0  0  0  0  0  0  # atno 17370 bound_to 10713
  157.7495  131.0095  150.3270 LP  0  0  0  0  0  0  0  0  0  0  0  0  # atno 17371 bound_to 10713
  140.1482  134.4884  155.7980 LP  0  0  0  0  0  0  0  0  0  0  0  0  # atno 17394 bound_to 11000
  141.2192  133.6852  156.7332 LP  0  0  0  0  0  0  0  0  0  0  0  0  # atno 17395 bound_to 11000

$$$$
