AV-unprocessed.smi:1762|AV-procd|sdf|7119|dock5
  -GOLD-   22720 8353D 1   1.00000     0.00000
 Structure written by MMmdl.
 52 53  0  0  0  0  0  0  0  0  3 V2000
  152.3838  143.8058  159.4227 C   0  0  0  0  0  0  0  0  0  0  0  0
  152.7835  142.3329  159.2797 C   0  0  2  0  0  0  0  0  0  0  0  0
  151.6057  141.4590  158.8100 C   0  0  0  0  0  0  0  0  0  0  0  0
  151.9928  140.0227  158.7621 N   0  3  2  0  0  0  0  0  0  0  0  0
  150.9425  139.0938  158.2234 C   0  0  2  0  0  0  0  0  0  0  0  0
  151.4009  137.6201  158.3503 C   0  0  0  0  0  0  0  0  0  0  0  0
  152.4631  137.2827  157.8160 O   0  0  0  0  0  0  0  0  0  0  0  0
  150.5270  136.8961  159.1002 N   0  5  0  0  0  0  0  0  0  0  0  0
  149.1165  137.2361  159.2782 C   0  0  0  0  0  0  0  0  0  0  0  0
  148.3747  136.0873  160.0004 C   0  0  0  0  0  0  0  0  0  0  0  0
  147.1769  136.5134  160.8467 C   0  0  0  0  0  0  0  0  0  0  0  0
  145.8626  136.1636  160.4607 C   0  0  0  0  0  0  0  0  0  0  0  0
  144.7868  136.5871  161.2640 C   0  0  0  0  0  0  0  0  0  0  0  0
  145.0593  137.3496  162.4156 C   0  0  0  0  0  0  0  0  0  0  0  0
  146.4019  137.6556  162.7134 C   0  0  0  0  0  0  0  0  0  0  0  0
  147.4412  137.2548  161.9502 N   0  0  0  0  0  0  0  0  0  0  0  0
  150.4668  139.4135  156.7650 C   0  0  0  0  0  0  0  0  0  0  0  0
  151.6169  139.3798  155.7391 C   0  0  0  0  0  0  0  0  0  0  0  0
  149.6694  140.7272  156.6235 C   0  0  0  0  0  0  0  0  0  0  0  0
  152.4955  139.6158  160.1064 C   0  0  0  0  0  0  0  0  0  0  0  0
  153.6480  140.5181  160.5813 C   0  0  1  0  0  0  0  0  0  0  0  0
  154.9678  140.2749  159.8277 C   0  0  0  0  0  0  0  0  0  0  0  0
  153.2434  141.8841  160.5492 O   0  0  0  0  0  0  0  0  0  0  0  0
  152.0378  144.2139  158.4726 H   0  0  0  0  0  0  0  0  0  0  0  0
  153.2301  144.4086  159.7534 H   0  0  0  0  0  0  0  0  0  0  0  0
  151.5824  143.9288  160.1518 H   0  0  0  0  0  0  0  0  0  0  0  0
  153.5939  142.2746  158.5527 H   0  0  0  0  0  0  0  0  0  0  0  0
  150.7476  141.5819  159.4729 H   0  0  0  0  0  0  0  0  0  0  0  0
  151.3090  141.8245  157.8293 H   0  0  0  0  0  0  0  0  0  0  0  0
  150.0686  139.2526  158.8608 H   0  0  0  0  0  0  0  0  0  0  0  0
  148.9940  138.1596  159.8448 H   0  0  0  0  0  0  0  0  0  0  0  0
  148.6187  137.4094  158.3230 H   0  0  0  0  0  0  0  0  0  0  0  0
  148.0250  135.3714  159.2552 H   0  0  0  0  0  0  0  0  0  0  0  0
  149.0745  135.5351  160.6292 H   0  0  0  0  0  0  0  0  0  0  0  0
  145.6862  135.5747  159.5725 H   0  0  0  0  0  0  0  0  0  0  0  0
  143.7711  136.3315  161.0009 H   0  0  0  0  0  0  0  0  0  0  0  0
  144.2595  137.6923  163.0550 H   0  0  0  0  0  0  0  0  0  0  0  0
  146.6480  138.2400  163.5875 H   0  0  0  0  0  0  0  0  0  0  0  0
  149.8114  138.6029  156.4495 H   0  0  0  0  0  0  0  0  0  0  0  0
  152.3136  140.2068  155.8788 H   0  0  0  0  0  0  0  0  0  0  0  0
  151.2341  139.4475  154.7205 H   0  0  0  0  0  0  0  0  0  0  0  0
  152.1843  138.4515  155.8141 H   0  0  0  0  0  0  0  0  0  0  0  0
  150.3029  141.6023  156.7672 H   0  0  0  0  0  0  0  0  0  0  0  0
  148.8512  140.7915  157.3400 H   0  0  0  0  0  0  0  0  0  0  0  0
  149.2346  140.8080  155.6270 H   0  0  0  0  0  0  0  0  0  0  0  0
  151.6726  139.6683  160.8211 H   0  0  0  0  0  0  0  0  0  0  0  0
  152.8442  138.5835  160.1166 H   0  0  0  0  0  0  0  0  0  0  0  0
  153.8380  140.2872  161.6300 H   0  0  0  0  0  0  0  0  0  0  0  0
  155.3205  139.2556  159.9877 H   0  0  0  0  0  0  0  0  0  0  0  0
  155.7470  140.9513  160.1792 H   0  0  0  0  0  0  0  0  0  0  0  0
  154.8631  140.4130  158.7518 H   0  0  0  0  0  0  0  0  0  0  0  0
  152.7729  139.9528  158.1245 H   0  0  0  0  0  0  0  0  0  0  0  0
  1  2  1  0  0  0  0
  1 24  1  0  0  0  0
  1 25  1  0  0  0  0
  1 26  1  0  0  0  0
  2 23  1  0  0  0  0
  2  3  1  0  0  0  0
  2 27  1  0  0  0  0
  3  4  1  0  0  0  0
  3 28  1  0  0  0  0
  3 29  1  0  0  0  0
  4  5  1  0  0  0  0
  4 20  1  0  0  0  0
  4 52  1  0  0  0  0
  5  6  1  0  0  0  0
  5 17  1  0  0  0  0
  5 30  1  0  0  0  0
  6  7  2  0  0  0  0
  6  8  1  0  0  0  0
  8  9  1  0  0  0  0
  9 10  1  0  0  0  0
  9 31  1  0  0  0  0
  9 32  1  0  0  0  0
 10 11  1  0  0  0  0
 10 33  1  0  0  0  0
 10 34  1  0  0  0  0
 11 16  1  0  0  0  0
 11 12  2  0  0  0  0
 12 13  1  0  0  0  0
 12 35  1  0  0  0  0
 13 14  2  0  0  0  0
 13 36  1  0  0  0  0
 14 15  1  0  0  0  0
 14 37  1  0  0  0  0
 15 16  2  0  0  0  0
 15 38  1  0  0  0  0
 17 18  1  0  0  0  0
 17 19  1  0  0  0  0
 17 39  1  0  0  0  0
 18 40  1  0  0  0  0
 18 41  1  0  0  0  0
 18 42  1  0  0  0  0
 19 43  1  0  0  0  0
 19 44  1  0  0  0  0
 19 45  1  0  0  0  0
 20 21  1  0  0  0  0
 20 46  1  0  0  0  0
 20 47  1  0  0  0  0
 21 22  1  0  0  0  0
 21 23  1  0  0  0  0
 21 48  1  0  0  0  0
 22 49  1  0  0  0  0
 22 50  1  0  0  0  0
 22 51  1  0  0  0  0
M  CHG  1   4   1
M  CHG  1   8  -1
M  END
> <s_m_source_file>
AV-unprocessed.smi

> <i_m_source_file_index>
1762

> <i_lp_mmshare_version>
43012

> <i_f3d_flags>
0

> <s_epik_input>
W0NIM11bQ0BASF0xW0NIMl1OKFtDSDJdW0NASF0oTzEpW0NIM10pW0NAQEhdKFtDSF0oW0NIM10pW0NIM10pQyg9TylbTkhdW0NIMl1bQ0gyXWMyW2NIXVtjSF1bY0hdW2NIXW4y

> <s_epik_cmdline>
J2VwaWtfcHl0aG9uJywgJy1waCcsICc3LjAnLCAnLXRuJywgJzgnLCAnLW1hJywgJzIwMCcsICctbWV0YWxfYmluZGluZycsICctaW1hZScsICc8aW5maWxlLm1hZT4nLCAnLW9tYWUnLCAnPG91dGZpbGUubWFlPic=

> <r_epik_Ionization_Penalty>
7.82966

> <r_epik_Ionization_Penalty_Charging>
7.7461

> <r_epik_Ionization_Penalty_Neutral>
0.0835571

> <r_epik_State_Penalty>
8.52273

> <r_epik_Charging_Adjusted_Penalty>
16.2688

> <i_epik_Tot_Q>
0

> <i_epik_Tot_abs_Q>
2

> <r_epik_Metal_State_Penalty>
4.47451

> <b_epik_Metal_Only>
1

> <s_lp_Force_Field>
OPLS_2005

> <r_lp_Energy>
24.7252

> <b_lp_Chiralities_Consistent>
1

> <s_lp_Variant>
AV-unprocessed.smi:1762-21

> <Gold.Version>
5.8.1

> <Gold.Id.Protein>
6NUR|6NUR_protein|mol2

> <Gold.PLP.Fitness>
45.3295

> <Gold.PLP.PLP>
-37.1306

> <Gold.PLP.part.hbond>
-3.0000

> <Gold.PLP.part.metal>
0.0000

> <Gold.PLP.part.buried>
-5.3630

> <Gold.PLP.part.nonpolar>
-30.4527

> <Gold.PLP.part.repulsive>
0.1224

> <Gold.PLP.ligand.clash>
0.0000

> <Gold.PLP.ligand.torsion>
0.6451

> <Gold.PLP.Chemscore.Hbond>
3.0296

> <Gold.PLP.Chemscore.CHOScore>
0.0000

> <Gold.PLP.Chemscore.Metal>
0.0000

> <Gold.Chemscore.Hbonds>
donor molecule, donor type, donor heavy atom, donor atom, acceptor molecule, acceptor atom, score
      P1  H  6896  6909       L1     8  1.69
      P1  H  6931  6943       L1    16  0.88
      P1  H  6934  6947       L1    16  0.11

> <Gold.PLP.Chemscore.Internal.Correction>
0.4004

> <Gold.Rescore>
     Score         DG    S(hbond)    S(metal)    S(lipo)     H(rot)  DE(clash)    DE(int)     intcor
     19.46     -20.36       1.67        0.00     114.64       1.60       0.17       0.72       ----

> <Gold.Chemscore.Fitness>
19.4620

> <Gold.Chemscore.DG>
-20.3563

> <Gold.Chemscore.ZeroCoef>
-5.4800

> <Gold.Chemscore.Hbond>
1.6653

> <Gold.Chemscore.Metal>
0.0000

> <Gold.Chemscore.Lipo>
114.6409

> <Gold.Chemscore.Internal_Hbond>
0.0000

> <Gold.Chemscore.DEClash>
0.1734

> <Gold.Chemscore.DEInternal>
0.7208

> <Gold.Chemscore.Rot>
1.6012

> <Gold.Chemscore.Internal.Correction>
   9.000000E+99

> <Gold.Chemscore.Hbonds>
donor molecule, donor type, donor heavy atom, donor atom, acceptor molecule, acceptor atom, score
      P1  H  6896  6909       L1     8  0.69
      P1  H  6931  6943       L1    16  0.80

> <Gold.Chemscore.Hbond.Weighted>
-5.5622

> <Gold.Chemscore.Metal.Weighted>
-0.0000

> <Gold.Chemscore.Lipo.Weighted>
-13.4130

> <Gold.Chemscore.Internal_Hbond.Weighted>
0.0000

> <Gold.Chemscore.DEClash.Weighted>
0.1734

> <Gold.Chemscore.DEInternal.Weighted>
0.7208

> <Gold.Chemscore.Rot.Weighted>
4.0990

> <Gold.Chemscore.Internal.Correction.Weighted>
   9.000000E+99

> <Gold.Protein.RotatedTorsions>
[ 6907 6896 6895 6894 ] final  107.47 input  -60.11 | X-H torsion
[ 7974 7965 7964 7962 ] final  179.69 input  175.53 | X-H torsion
[ 8008 7997 7996 7995 ] final   99.57 input   59.86 | X-H torsion
[ 10167 10162 10161 10158 ] final  102.78 input  -65.29 | X-H torsion
[ 10718 10713 10712 10709 ] final  -59.85 input   66.30 | X-H torsion
[ 10763 10752 10751 10750 ] final  110.51 input  -60.55 | X-H torsion
[ 11005 11000 10999 10996 ] final  -95.38 input  -57.11 | X-H torsion

> <Gold.Protein.ActiveResidues>
 VAL166  LYS551  ARG553  GLY616  TRP617  ASP618  TYR619  PRO620  LYS621  CYS622 
 ASP623  PHE694  ASN695  SER759  ASP760  ASP761  ALA762  ILE779  LEU786  VAL792 
 PHE793  MET794  SER795  GLU796  ALA797  LYS798  CYS799  TRP800  GLU811  SER814 

> <Gold.Protein.RotatedAtoms>
  152.5153  133.9230  159.7543 H   0  0  0  0  0  0  0  0  0  0  0  0  # atno 6907 bound_to 6896
  150.9597  133.6450  159.2763 H   0  0  0  0  0  0  0  0  0  0  0  0  # atno 6908 bound_to 6896
  151.3699  135.0926  159.9515 H   0  0  0  0  0  0  0  0  0  0  0  0  # atno 6909 bound_to 6896
  144.7143  140.0587  143.6433 H   0  0  0  0  0  0  0  0  0  0  0  0  # atno 7974 bound_to 7965
  156.1118  140.3226  155.8083 H   0  0  0  0  0  0  0  0  0  0  0  0  # atno 8008 bound_to 7997
  155.4660  140.0543  157.3002 H   0  0  0  0  0  0  0  0  0  0  0  0  # atno 8009 bound_to 7997
  154.4765  140.2034  155.9880 H   0  0  0  0  0  0  0  0  0  0  0  0  # atno 8010 bound_to 7997
  139.7320  144.7033  151.0707 H   0  0  0  0  0  0  0  0  0  0  0  0  # atno 10167 bound_to 10162
  156.1032  130.4183  150.0773 H   0  0  0  0  0  0  0  0  0  0  0  0  # atno 10718 bound_to 10713
  153.4501  135.3746  155.2278 H   0  0  0  0  0  0  0  0  0  0  0  0  # atno 10763 bound_to 10752
  154.8756  135.3883  154.4049 H   0  0  0  0  0  0  0  0  0  0  0  0  # atno 10764 bound_to 10752
  153.4607  135.7086  153.6116 H   0  0  0  0  0  0  0  0  0  0  0  0  # atno 10765 bound_to 10752
  141.1443  133.8022  157.0427 H   0  0  0  0  0  0  0  0  0  0  0  0  # atno 11005 bound_to 11000
  145.9883  139.2994  143.1000 LP  0  0  0  0  0  0  0  0  0  0  0  0  # atno 17320 bound_to 7965
  145.8932  140.9290  143.0541 LP  0  0  0  0  0  0  0  0  0  0  0  0  # atno 17321 bound_to 7965
  140.7773  143.5031  150.9746 LP  0  0  0  0  0  0  0  0  0  0  0  0  # atno 17342 bound_to 10162
  139.8719  143.7181  152.3165 LP  0  0  0  0  0  0  0  0  0  0  0  0  # atno 17343 bound_to 10162
  156.8755  130.9539  151.3605 LP  0  0  0  0  0  0  0  0  0  0  0  0  # atno 17370 bound_to 10713
  157.6205  130.8651  149.9101 LP  0  0  0  0  0  0  0  0  0  0  0  0  # atno 17371 bound_to 10713
  140.0682  134.9717  157.1423 LP  0  0  0  0  0  0  0  0  0  0  0  0  # atno 17394 bound_to 11000
  140.3748  134.2350  155.7175 LP  0  0  0  0  0  0  0  0  0  0  0  0  # atno 17395 bound_to 11000

$$$$
