AV-unprocessed.smi:3231|AV-procd|sdf|12336|dock3
  -GOLD-   2272018193D 1   1.00000     0.00000
 Structure written by MMmdl.
 42 43  0  0  0  0  0  0  0  0  3 V2000
  144.5899  137.9078  152.1276 O   0  0  0  0  0  0  0  0  0  0  0  0
  145.9065  137.4780  152.4107 C   0  0  1  0  0  0  0  0  0  0  0  0
  146.7081  138.7205  152.8425 C   0  0  0  0  0  0  0  0  0  0  0  0
  148.1607  138.4538  152.8724 N   0  3  0  0  0  0  0  0  0  0  0  0
  148.6980  138.2204  154.2268 C   0  0  0  0  0  0  0  0  0  0  0  0
  150.1307  138.7580  154.3514 C   0  0  0  0  0  0  0  0  0  0  0  0
  150.2212  139.8214  155.3328 N   0  0  0  0  0  0  0  0  0  0  0  0
  150.2510  139.7219  156.7080 C   0  0  0  0  0  0  0  0  0  0  0  0
  150.3384  140.9909  157.2041 C   0  0  0  0  0  0  0  0  0  0  0  0
  150.3532  141.8095  156.0404 C   0  0  0  0  0  0  0  0  0  0  0  0
  150.2822  141.1060  154.9216 N   0  0  0  0  0  0  0  0  0  0  0  0
  145.8484  136.3999  153.5164 C   0  0  0  0  0  0  0  0  0  0  0  0
  146.9333  135.3888  153.4139 N   0  3  0  0  0  0  0  0  0  0  0  0
  147.4595  134.9395  154.7274 C   0  0  0  0  0  0  0  0  0  0  0  0
  148.5896  133.9133  154.5342 C   0  0  0  0  0  0  0  0  0  0  0  0
  148.1127  132.8165  153.7655 O   0  0  0  0  0  0  0  0  0  0  0  0
  147.6942  133.2199  152.4683 C   0  0  0  0  0  0  0  0  0  0  0  0
  146.5330  134.2213  152.5915 C   0  0  0  0  0  0  0  0  0  0  0  0
  144.5481  138.8489  152.2018 H   0  0  0  0  0  0  0  0  0  0  0  0
  146.3374  137.0840  151.4908 H   0  0  0  0  0  0  0  0  0  0  0  0
  146.5338  139.5372  152.1401 H   0  0  0  0  0  0  0  0  0  0  0  0
  146.3741  139.0676  153.8217 H   0  0  0  0  0  0  0  0  0  0  0  0
  148.3523  137.6359  152.3122 H   0  0  0  0  0  0  0  0  0  0  0  0
  148.0529  138.7051  154.9611 H   0  0  0  0  0  0  0  0  0  0  0  0
  148.6787  137.1500  154.4365 H   0  0  0  0  0  0  0  0  0  0  0  0
  150.8163  137.9605  154.6424 H   0  0  0  0  0  0  0  0  0  0  0  0
  150.4785  139.1416  153.3912 H   0  0  0  0  0  0  0  0  0  0  0  0
  150.2085  138.7686  157.2142 H   0  0  0  0  0  0  0  0  0  0  0  0
  150.3832  141.2898  158.2409 H   0  0  0  0  0  0  0  0  0  0  0  0
  150.4128  142.8861  155.9757 H   0  0  0  0  0  0  0  0  0  0  0  0
  145.8900  136.8603  154.5047 H   0  0  0  0  0  0  0  0  0  0  0  0
  144.8806  135.8982  153.4587 H   0  0  0  0  0  0  0  0  0  0  0  0
  147.8404  135.7845  155.2991 H   0  0  0  0  0  0  0  0  0  0  0  0
  146.6533  134.4947  155.3131 H   0  0  0  0  0  0  0  0  0  0  0  0
  149.4524  134.3691  154.0456 H   0  0  0  0  0  0  0  0  0  0  0  0
  148.9307  133.5442  155.5017 H   0  0  0  0  0  0  0  0  0  0  0  0
  148.5309  133.6564  151.9205 H   0  0  0  0  0  0  0  0  0  0  0  0
  147.3734  132.3397  151.9110 H   0  0  0  0  0  0  0  0  0  0  0  0
  145.6672  133.7344  153.0428 H   0  0  0  0  0  0  0  0  0  0  0  0
  146.2324  134.5533  151.5971 H   0  0  0  0  0  0  0  0  0  0  0  0
  148.6423  139.2448  152.4687 H   0  0  0  0  0  0  0  0  0  0  0  0
  147.6974  135.8286  152.9208 H   0  0  0  0  0  0  0  0  0  0  0  0
  1  2  1  0  0  0  0
  1 19  1  0  0  0  0
  2  3  1  0  0  0  0
  2 12  1  0  0  0  0
  2 20  1  0  0  0  0
  3  4  1  0  0  0  0
  3 21  1  0  0  0  0
  3 22  1  0  0  0  0
  4  5  1  0  0  0  0
  4 23  1  0  0  0  0
  4 41  1  0  0  0  0
  5  6  1  0  0  0  0
  5 24  1  0  0  0  0
  5 25  1  0  0  0  0
  6  7  1  0  0  0  0
  6 26  1  0  0  0  0
  6 27  1  0  0  0  0
  7 11  1  0  0  0  0
  7  8  1  0  0  0  0
  8  9  2  0  0  0  0
  8 28  1  0  0  0  0
  9 10  1  0  0  0  0
  9 29  1  0  0  0  0
 10 11  2  0  0  0  0
 10 30  1  0  0  0  0
 12 13  1  0  0  0  0
 12 31  1  0  0  0  0
 12 32  1  0  0  0  0
 13 18  1  0  0  0  0
 13 14  1  0  0  0  0
 13 42  1  0  0  0  0
 14 15  1  0  0  0  0
 14 33  1  0  0  0  0
 14 34  1  0  0  0  0
 15 16  1  0  0  0  0
 15 35  1  0  0  0  0
 15 36  1  0  0  0  0
 16 17  1  0  0  0  0
 17 18  1  0  0  0  0
 17 37  1  0  0  0  0
 17 38  1  0  0  0  0
 18 39  1  0  0  0  0
 18 40  1  0  0  0  0
M  CHG  1   4   1
M  CHG  1  13   1
M  END
> <s_m_source_file>
AV-unprocessed.smi

> <i_m_source_file_index>
3231

> <i_lp_mmshare_version>
43012

> <i_f3d_flags>
0

> <s_epik_input>
W0NIMl0xW0NIMl1PW0NIMl1bQ0gyXU4xW0NIMl1bQ0BIXShbT0hdKVtDSDJdW05IXVtDSDJdW0NIMl1uMltjSF1bY0hdW2NIXW4y

> <s_epik_cmdline>
J2VwaWtfcHl0aG9uJywgJy1waCcsICc3LjAnLCAnLXRuJywgJzgnLCAnLW1hJywgJzIwMCcsICctbWV0YWxfYmluZGluZycsICctaW1hZScsICc8aW5maWxlLm1hZT4nLCAnLW9tYWUnLCAnPG91dGZpbGUubWFlPic=

> <r_lp_tautomer_probability>
1

> <r_epik_Ionization_Penalty>
2.09881

> <r_epik_Ionization_Penalty_Charging>
2.09628

> <r_epik_Ionization_Penalty_Neutral>
0.0025303

> <r_epik_State_Penalty>
1.58657

> <r_epik_Charging_Adjusted_Penalty>
3.68285

> <i_epik_Tot_Q>
2

> <i_epik_Tot_abs_Q>
2

> <r_epik_Metal_State_Penalty>
1.58685

> <b_epik_Metal_Only>
0

> <s_lp_Force_Field>
OPLS_2005

> <r_lp_Energy>
27.3068

> <b_lp_Chiralities_Consistent>
1

> <s_lp_Variant>
AV-unprocessed.smi:3231-6

> <Gold.Version>
5.8.1

> <Gold.Id.Protein>
6NUR|6NUR_protein|mol2

> <Gold.PLP.Fitness>
47.2537

> <Gold.PLP.PLP>
-28.0640

> <Gold.PLP.part.hbond>
-6.0000

> <Gold.PLP.part.metal>
0.0000

> <Gold.PLP.part.buried>
-2.3362

> <Gold.PLP.part.nonpolar>
-20.8110

> <Gold.PLP.part.repulsive>
0.2777

> <Gold.PLP.ligand.clash>
0.0000

> <Gold.PLP.ligand.torsion>
2.0731

> <Gold.PLP.Chemscore.Hbond>
6.6880

> <Gold.PLP.Chemscore.CHOScore>
1.0000

> <Gold.PLP.Chemscore.Metal>
0.0000

> <Gold.Chemscore.Hbonds>
donor molecule, donor type, donor heavy atom, donor atom, acceptor molecule, acceptor atom, score
      L1  H     1    19       P1 10175  1.00
      L1  H     4    23       P1  7948  2.00
      L1  H     4    41       P1  7957  1.00
      L1  H    13    42       P1  7948  2.00
      P1  H  7989  7998       L1    11  0.61
      L1  C    10    30       P1  8028  1.00

> <Gold.PLP.Chemscore.Internal.Correction>
0.2720

> <Gold.Rescore>
     Score         DG    S(hbond)    S(metal)    S(lipo)     H(rot)  DE(clash)    DE(int)     intcor
     18.93     -20.70       4.76        0.00      58.50       2.94       0.08       1.69       ----

> <Gold.Chemscore.Fitness>
18.9286

> <Gold.Chemscore.DG>
-20.7021

> <Gold.Chemscore.ZeroCoef>
-5.4800

> <Gold.Chemscore.Hbond>
4.7647

> <Gold.Chemscore.Metal>
0.0000

> <Gold.Chemscore.Lipo>
58.4955

> <Gold.Chemscore.Internal_Hbond>
0.0000

> <Gold.Chemscore.DEClash>
0.0790

> <Gold.Chemscore.DEInternal>
1.6945

> <Gold.Chemscore.Rot>
2.9437

> <Gold.Chemscore.Internal.Correction>
   9.000000E+99

> <Gold.Chemscore.Hbonds>
donor molecule, donor type, donor heavy atom, donor atom, acceptor molecule, acceptor atom, score
      L1  H     1    19       P1 10175  0.97
      L1  H     4    23       P1  7948  0.96
      L1  H     4    41       P1  7957  0.95
      L1  H    13    42       P1  7948  1.00
      P1  H  7989  7998       L1    11  0.14

> <Gold.Chemscore.Hbond.Weighted>
-15.9140

> <Gold.Chemscore.Metal.Weighted>
-0.0000

> <Gold.Chemscore.Lipo.Weighted>
-6.8440

> <Gold.Chemscore.Internal_Hbond.Weighted>
0.0000

> <Gold.Chemscore.DEClash.Weighted>
0.0790

> <Gold.Chemscore.DEInternal.Weighted>
1.6945

> <Gold.Chemscore.Rot.Weighted>
7.5359

> <Gold.Chemscore.Internal.Correction.Weighted>
   9.000000E+99

> <Gold.Protein.RotatedTorsions>
[ 6907 6896 6895 6894 ] final   87.23 input  -60.11 | X-H torsion
[ 7974 7965 7964 7962 ] final  -68.31 input  175.53 | X-H torsion
[ 8008 7997 7996 7995 ] final -125.78 input   59.86 | X-H torsion
[ 10167 10162 10161 10158 ] final  -44.26 input  -65.29 | X-H torsion
[ 10718 10713 10712 10709 ] final  -55.27 input   66.30 | X-H torsion
[ 10763 10752 10751 10750 ] final   99.79 input  -60.55 | X-H torsion
[ 11005 11000 10999 10996 ] final  -61.76 input  -57.11 | X-H torsion

> <Gold.Protein.ActiveResidues>
 VAL166  LYS551  ARG553  GLY616  TRP617  ASP618  TYR619  PRO620  LYS621  CYS622 
 ASP623  PHE694  ASN695  SER759  ASP760  ASP761  ALA762  ILE779  LEU786  VAL792 
 PHE793  MET794  SER795  GLU796  ALA797  LYS798  CYS799  TRP800  GLU811  SER814 

> <Gold.Protein.RotatedAtoms>
  152.5408  134.2309  159.8824 H   0  0  0  0  0  0  0  0  0  0  0  0  # atno 6907 bound_to 6896
  151.2281  133.4459  159.2610 H   0  0  0  0  0  0  0  0  0  0  0  0  # atno 6908 bound_to 6896
  151.0742  134.9831  159.8379 H   0  0  0  0  0  0  0  0  0  0  0  0  # atno 6909 bound_to 6896
  145.7181  140.9050  143.0645 H   0  0  0  0  0  0  0  0  0  0  0  0  # atno 7974 bound_to 7965
  155.2188  140.0421  157.2945 H   0  0  0  0  0  0  0  0  0  0  0  0  # atno 8008 bound_to 7997
  154.5963  140.2440  155.7823 H   0  0  0  0  0  0  0  0  0  0  0  0  # atno 8009 bound_to 7997
  156.2292  140.2944  156.0154 H   0  0  0  0  0  0  0  0  0  0  0  0  # atno 8010 bound_to 7997
  140.6903  143.2939  151.3470 H   0  0  0  0  0  0  0  0  0  0  0  0  # atno 10167 bound_to 10162
  156.1382  130.4156  150.0148 H   0  0  0  0  0  0  0  0  0  0  0  0  # atno 10718 bound_to 10713
  153.3058  135.4101  155.1292 H   0  0  0  0  0  0  0  0  0  0  0  0  # atno 10763 bound_to 10752
  154.8562  135.3552  154.5790 H   0  0  0  0  0  0  0  0  0  0  0  0  # atno 10764 bound_to 10752
  153.6217  135.7064  153.5366 H   0  0  0  0  0  0  0  0  0  0  0  0  # atno 10765 bound_to 10752
  141.1336  133.6633  156.5424 H   0  0  0  0  0  0  0  0  0  0  0  0  # atno 11005 bound_to 11000
  144.6924  139.9165  143.7466 LP  0  0  0  0  0  0  0  0  0  0  0  0  # atno 17320 bound_to 7965
  146.0651  139.3642  143.0557 LP  0  0  0  0  0  0  0  0  0  0  0  0  # atno 17321 bound_to 7965
  139.6300  144.0739  152.2468 LP  0  0  0  0  0  0  0  0  0  0  0  0  # atno 17342 bound_to 10162
  140.0211  144.6152  150.7566 LP  0  0  0  0  0  0  0  0  0  0  0  0  # atno 17343 bound_to 10162
  156.8041  130.9301  151.3645 LP  0  0  0  0  0  0  0  0  0  0  0  0  # atno 17370 bound_to 10713
  157.6552  130.8918  149.9714 LP  0  0  0  0  0  0  0  0  0  0  0  0  # atno 17371 bound_to 10713
  140.4129  134.7256  157.4846 LP  0  0  0  0  0  0  0  0  0  0  0  0  # atno 17394 bound_to 11000
  140.0414  134.6262  155.8976 LP  0  0  0  0  0  0  0  0  0  0  0  0  # atno 17395 bound_to 11000

$$$$
