AV-unprocessed.smi:740|AV-procd|sdf|3551|dock5
  -GOLD-   22720 0543D 1   1.00000     0.00000
 Structure written by MMmdl.
 45 47  0  0  0  0  0  0  0  0  2 V2000
  151.3635  144.6441  160.5265 C   0  0  0  0  0  0  0  0  0  0  0  0
  152.1913  143.3753  160.6401 C   0  0  0  0  0  0  0  0  0  0  0  0
  152.9945  143.1949  161.7883 C   0  0  0  0  0  0  0  0  0  0  0  0
  153.7385  142.0238  161.8644 C   0  0  0  0  0  0  0  0  0  0  0  0
  154.6096  141.5584  162.8513 N   0  3  0  0  0  0  0  0  0  0  0  0
  155.1069  140.3457  162.4830 C   0  0  0  0  0  0  0  0  0  0  0  0
  154.5689  140.0307  161.2736 N   0  0  0  0  0  0  0  0  0  0  0  0
  154.7776  138.8368  160.4421 C   0  0  0  0  0  0  0  0  0  0  0  0
  154.4608  137.5268  161.1897 C   0  0  1  0  0  0  0  0  0  0  0  0
  154.4903  136.4558  160.2667 O   0  0  0  0  0  0  0  0  0  0  0  0
  155.4869  137.2498  162.3083 C   0  0  0  0  0  0  0  0  0  0  0  0
  155.1974  136.0037  163.0272 N   0  0  0  0  0  0  0  0  0  0  0  0
  154.4398  135.9318  164.1301 C   0  0  0  0  0  0  0  0  0  0  0  0
  153.8904  136.8749  164.6987 O   0  0  0  0  0  0  0  0  0  0  0  0
  154.3220  134.4950  164.6188 C   0  0  0  0  0  0  0  0  0  0  0  0
  155.1447  133.7033  163.5912 C   0  0  1  0  0  0  0  0  0  0  0  0
  154.3380  132.6224  162.8527 C   0  0  0  0  0  0  0  0  0  0  0  0
  155.6319  134.7957  162.6410 C   0  0  0  0  0  0  0  0  0  0  0  0
  156.3291  134.5572  161.6548 O   0  0  0  0  0  0  0  0  0  0  0  0
  153.7072  141.0490  160.8478 C   0  0  0  0  0  0  0  0  0  0  0  0
  152.9213  141.2123  159.7091 C   0  0  0  0  0  0  0  0  0  0  0  0
  152.1539  142.3954  159.6145 C   0  0  0  0  0  0  0  0  0  0  0  0
  151.2833  142.5972  158.3857 C   0  0  0  0  0  0  0  0  0  0  0  0
  151.5374  145.3106  161.3718 H   0  0  0  0  0  0  0  0  0  0  0  0
  150.3000  144.4049  160.5035 H   0  0  0  0  0  0  0  0  0  0  0  0
  151.6166  145.1886  159.6166 H   0  0  0  0  0  0  0  0  0  0  0  0
  153.0267  143.9351  162.5744 H   0  0  0  0  0  0  0  0  0  0  0  0
  155.8027  139.7423  163.0479 H   0  0  0  0  0  0  0  0  0  0  0  0
  154.1974  138.9250  159.5233 H   0  0  0  0  0  0  0  0  0  0  0  0
  155.8261  138.8445  160.1417 H   0  0  0  0  0  0  0  0  0  0  0  0
  153.4561  137.5973  161.6090 H   0  0  0  0  0  0  0  0  0  0  0  0
  154.7979  135.6819  160.7134 H   0  0  0  0  0  0  0  0  0  0  0  0
  156.5030  137.2527  161.9091 H   0  0  0  0  0  0  0  0  0  0  0  0
  155.4647  138.0665  163.0321 H   0  0  0  0  0  0  0  0  0  0  0  0
  154.7317  134.4002  165.6250 H   0  0  0  0  0  0  0  0  0  0  0  0
  153.2747  134.1910  164.6403 H   0  0  0  0  0  0  0  0  0  0  0  0
  156.0097  133.2501  164.0774 H   0  0  0  0  0  0  0  0  0  0  0  0
  154.9693  132.0632  162.1613 H   0  0  0  0  0  0  0  0  0  0  0  0
  153.5165  133.0546  162.2798 H   0  0  0  0  0  0  0  0  0  0  0  0
  153.9108  131.9080  163.5567 H   0  0  0  0  0  0  0  0  0  0  0  0
  152.8892  140.4666  158.9291 H   0  0  0  0  0  0  0  0  0  0  0  0
  151.3241  141.7338  157.7209 H   0  0  0  0  0  0  0  0  0  0  0  0
  151.6159  143.4689  157.8215 H   0  0  0  0  0  0  0  0  0  0  0  0
  150.2420  142.7457  158.6721 H   0  0  0  0  0  0  0  0  0  0  0  0
  154.8484  142.0311  163.7138 H   0  0  0  0  0  0  0  0  0  0  0  0
  1  2  1  0  0  0  0
  1 24  1  0  0  0  0
  1 25  1  0  0  0  0
  1 26  1  0  0  0  0
  2 22  1  0  0  0  0
  2  3  2  0  0  0  0
  3  4  1  0  0  0  0
  3 27  1  0  0  0  0
  4 20  2  0  0  0  0
  4  5  1  0  0  0  0
  5  6  2  0  0  0  0
  5 45  1  0  0  0  0
  6  7  1  0  0  0  0
  6 28  1  0  0  0  0
  7  8  1  0  0  0  0
  7 20  1  0  0  0  0
  8  9  1  0  0  0  0
  8 29  1  0  0  0  0
  8 30  1  0  0  0  0
  9 10  1  0  0  0  0
  9 11  1  0  0  0  0
  9 31  1  0  0  0  0
 10 32  1  0  0  0  0
 11 12  1  0  0  0  0
 11 33  1  0  0  0  0
 11 34  1  0  0  0  0
 12 18  1  0  0  0  0
 12 13  1  0  0  0  0
 13 14  2  0  0  0  0
 13 15  1  0  0  0  0
 15 16  1  0  0  0  0
 15 35  1  0  0  0  0
 15 36  1  0  0  0  0
 16 17  1  0  0  0  0
 16 18  1  0  0  0  0
 16 37  1  0  0  0  0
 17 38  1  0  0  0  0
 17 39  1  0  0  0  0
 17 40  1  0  0  0  0
 18 19  2  0  0  0  0
 20 21  1  0  0  0  0
 21 22  2  0  0  0  0
 21 41  1  0  0  0  0
 22 23  1  0  0  0  0
 23 42  1  0  0  0  0
 23 43  1  0  0  0  0
 23 44  1  0  0  0  0
M  CHG  1   5   1
M  END
> <s_m_source_file>
AV-unprocessed.smi

> <i_m_source_file_index>
740

> <i_lp_mmshare_version>
43012

> <i_f3d_flags>
0

> <s_epik_input>
W0NIM11jKFtjSF0xKWMoW0NIM10pW2NIXWMoYzEyKW4oW2NIXW4yKVtDSDJdW0NASF0oW09IXSlbQ0gyXU4zQyg9TylbQ0gyXVtDQEBIXShbQ0gzXSlDMz1P

> <s_epik_cmdline>
J2VwaWtfcHl0aG9uJywgJy1waCcsICc3LjAnLCAnLXRuJywgJzgnLCAnLW1hJywgJzIwMCcsICctbWV0YWxfYmluZGluZycsICctaW1hZScsICc8aW5maWxlLm1hZT4nLCAnLW9tYWUnLCAnPG91dGZpbGUubWFlPic=

> <r_lp_tautomer_probability>
1

> <r_epik_Ionization_Penalty>
1.08202

> <r_epik_Ionization_Penalty_Charging>
1.08202

> <r_epik_Ionization_Penalty_Neutral>
1.16605e-06

> <r_epik_State_Penalty>
1.13754

> <r_epik_Charging_Adjusted_Penalty>
2.21956

> <i_epik_Tot_Q>
1

> <i_epik_Tot_abs_Q>
1

> <r_epik_Metal_State_Penalty>
5.13645

> <b_epik_Metal_Only>
0

> <s_lp_Force_Field>
OPLS_2005

> <r_lp_Energy>
22.2654

> <b_lp_Chiralities_Consistent>
1

> <s_lp_Variant>
AV-unprocessed.smi:740-6

> <Gold.Version>
5.8.1

> <Gold.Id.Protein>
6NUR|6NUR_protein|mol2

> <Gold.PLP.Fitness>
45.9205

> <Gold.PLP.PLP>
-46.7447

> <Gold.PLP.part.hbond>
-1.0000

> <Gold.PLP.part.metal>
0.0000

> <Gold.PLP.part.buried>
-5.0208

> <Gold.PLP.part.nonpolar>
-39.8128

> <Gold.PLP.part.repulsive>
0.1046

> <Gold.PLP.ligand.clash>
0.0000

> <Gold.PLP.ligand.torsion>
0.4221

> <Gold.PLP.Chemscore.Hbond>
0.0000

> <Gold.PLP.Chemscore.CHOScore>
0.0000

> <Gold.PLP.Chemscore.Metal>
0.0000

> <Gold.PLP.Chemscore.Internal.Correction>
0.0200

> <Gold.Rescore>
     Score         DG    S(hbond)    S(metal)    S(lipo)     H(rot)  DE(clash)    DE(int)     intcor
     12.48     -13.21       0.00        0.00     118.02       2.37       0.31       0.43       ----

> <Gold.Chemscore.Fitness>
12.4818

> <Gold.Chemscore.DG>
-13.2147

> <Gold.Chemscore.ZeroCoef>
-5.4800

> <Gold.Chemscore.Hbond>
0.0000

> <Gold.Chemscore.Metal>
0.0000

> <Gold.Chemscore.Lipo>
118.0180

> <Gold.Chemscore.Internal_Hbond>
0.0000

> <Gold.Chemscore.DEClash>
0.3066

> <Gold.Chemscore.DEInternal>
0.4263

> <Gold.Chemscore.Rot>
2.3724

> <Gold.Chemscore.Internal.Correction>
   9.000000E+99

> <Gold.Chemscore.Hbond.Weighted>
-0.0000

> <Gold.Chemscore.Metal.Weighted>
-0.0000

> <Gold.Chemscore.Lipo.Weighted>
-13.8081

> <Gold.Chemscore.Internal_Hbond.Weighted>
0.0000

> <Gold.Chemscore.DEClash.Weighted>
0.3066

> <Gold.Chemscore.DEInternal.Weighted>
0.4263

> <Gold.Chemscore.Rot.Weighted>
6.0734

> <Gold.Chemscore.Internal.Correction.Weighted>
   9.000000E+99

> <Gold.Protein.RotatedTorsions>
[ 6907 6896 6895 6894 ] final  -55.99 input  -60.11 | X-H torsion
[ 7974 7965 7964 7962 ] final -137.29 input  175.53 | X-H torsion
[ 8008 7997 7996 7995 ] final   -0.48 input   59.86 | X-H torsion
[ 10167 10162 10161 10158 ] final  122.99 input  -65.29 | X-H torsion
[ 10718 10713 10712 10709 ] final  114.49 input   66.30 | X-H torsion
[ 10763 10752 10751 10750 ] final  -12.51 input  -60.55 | X-H torsion
[ 11005 11000 10999 10996 ] final  -23.91 input  -57.11 | X-H torsion

> <Gold.Protein.ActiveResidues>
 VAL166  LYS551  ARG553  GLY616  TRP617  ASP618  TYR619  PRO620  LYS621  CYS622 
 ASP623  PHE694  ASN695  SER759  ASP760  ASP761  ALA762  ILE779  LEU786  VAL792 
 PHE793  MET794  SER795  GLU796  ALA797  LYS798  CYS799  TRP800  GLU811  SER814 

> <Gold.Protein.RotatedAtoms>
  150.8205  134.7410  159.6767 H   0  0  0  0  0  0  0  0  0  0  0  0  # atno 6907 bound_to 6896
  152.4321  134.5755  159.9943 H   0  0  0  0  0  0  0  0  0  0  0  0  # atno 6908 bound_to 6896
  151.5940  133.3326  159.3069 H   0  0  0  0  0  0  0  0  0  0  0  0  # atno 6909 bound_to 6896
  144.8854  140.6567  143.5179 H   0  0  0  0  0  0  0  0  0  0  0  0  # atno 7974 bound_to 7965
  154.6576  140.2583  155.7144 H   0  0  0  0  0  0  0  0  0  0  0  0  # atno 8008 bound_to 7997
  156.2604  140.2855  156.0957 H   0  0  0  0  0  0  0  0  0  0  0  0  # atno 8009 bound_to 7997
  155.1356  140.0379  157.2776 H   0  0  0  0  0  0  0  0  0  0  0  0  # atno 8010 bound_to 7997
  139.5826  144.6992  151.3491 H   0  0  0  0  0  0  0  0  0  0  0  0  # atno 10167 bound_to 10162
  157.6278  131.0999  150.7194 H   0  0  0  0  0  0  0  0  0  0  0  0  # atno 10718 bound_to 10713
  153.4996  135.7017  153.5839 H   0  0  0  0  0  0  0  0  0  0  0  0  # atno 10763 bound_to 10752
  153.3976  135.3880  155.1966 H   0  0  0  0  0  0  0  0  0  0  0  0  # atno 10764 bound_to 10752
  154.8711  135.3873  154.4465 H   0  0  0  0  0  0  0  0  0  0  0  0  # atno 10765 bound_to 10752
  140.8796  133.7663  156.0285 H   0  0  0  0  0  0  0  0  0  0  0  0  # atno 11005 bound_to 11000
  145.3878  139.1623  143.4245 LP  0  0  0  0  0  0  0  0  0  0  0  0  # atno 17320 bound_to 7965
  146.3021  140.3964  142.8700 LP  0  0  0  0  0  0  0  0  0  0  0  0  # atno 17321 bound_to 7965
  140.7102  143.7410  150.7553 LP  0  0  0  0  0  0  0  0  0  0  0  0  # atno 17342 bound_to 10162
  140.0947  143.4845  152.2459 LP  0  0  0  0  0  0  0  0  0  0  0  0  # atno 17343 bound_to 10162
  156.7539  130.4777  149.5451 LP  0  0  0  0  0  0  0  0  0  0  0  0  # atno 17370 bound_to 10713
  156.1461  130.6278  151.0533 LP  0  0  0  0  0  0  0  0  0  0  0  0  # atno 17371 bound_to 10713
  140.8477  134.2991  157.5288 LP  0  0  0  0  0  0  0  0  0  0  0  0  # atno 17394 bound_to 11000
  139.8718  134.9451  156.3899 LP  0  0  0  0  0  0  0  0  0  0  0  0  # atno 17395 bound_to 11000

$$$$
