AV-unprocessed.smi:1205|AV-procd|sdf|5043|dock9
  -GOLD-   22720 4 63D 1   1.00000     0.00000
 Structure written by MMmdl.
 49 50  0  0  0  0  0  0  0  0  2 V2000
  146.4315  129.7214  151.9790 C   0  0  0  0  0  0  0  0  0  0  0  0
  146.1779  131.1976  151.8952 C   0  0  0  0  0  0  0  0  0  0  0  0
  146.9789  132.2571  152.4122 C   0  0  0  0  0  0  0  0  0  0  0  0
  146.2752  133.3722  152.0474 C   0  0  0  0  0  0  0  0  0  0  0  0
  146.5720  134.6807  152.2685 N   0  0  0  0  0  0  0  0  0  0  0  0
  145.7606  135.6657  152.6909 C   0  0  0  0  0  0  0  0  0  0  0  0
  144.5643  135.5428  152.9548 O   0  0  0  0  0  0  0  0  0  0  0  0
  146.4229  136.8273  152.7981 N   0  0  0  0  0  0  0  0  0  0  0  0
  145.8363  138.1008  153.2088 C   0  0  0  0  0  0  0  0  0  0  0  0
  146.8662  139.2547  153.2345 C   0  0  2  0  0  0  0  0  0  0  0  0
  148.2361  138.8498  153.8232 C   0  0  0  0  0  0  0  0  0  0  0  0
  146.2848  140.4556  153.9039 N   0  3  1  0  0  0  0  0  0  0  0  0
  145.6290  140.1981  155.2155 C   0  0  0  0  0  0  0  0  0  0  0  0
  144.8479  141.4350  155.6844 C   0  0  0  0  0  0  0  0  0  0  0  0
  145.7642  142.6652  155.7599 C   0  0  0  0  0  0  0  0  0  0  0  0
  146.5035  142.8973  154.4283 C   0  0  2  0  0  0  0  0  0  0  0  0
  145.5879  143.4689  153.3314 C   0  0  0  0  0  0  0  0  0  0  0  0
  147.2223  141.6093  153.9738 C   0  0  0  0  0  0  0  0  0  0  0  0
  145.1452  132.9815  151.3638 N   0  0  0  0  0  0  0  0  0  0  0  0
  144.0959  133.7912  150.7762 C   0  0  0  0  0  0  0  0  0  0  0  0
  145.0898  131.6353  151.2716 N   0  0  0  0  0  0  0  0  0  0  0  0
  147.3123  129.5062  152.5843 H   0  0  0  0  0  0  0  0  0  0  0  0
  146.5973  129.2954  150.9892 H   0  0  0  0  0  0  0  0  0  0  0  0
  145.5853  129.2017  152.4295 H   0  0  0  0  0  0  0  0  0  0  0  0
  147.9100  132.1868  152.9540 H   0  0  0  0  0  0  0  0  0  0  0  0
  147.5284  134.9414  152.0783 H   0  0  0  0  0  0  0  0  0  0  0  0
  147.4048  136.8351  152.5620 H   0  0  0  0  0  0  0  0  0  0  0  0
  145.0440  138.3375  152.4978 H   0  0  0  0  0  0  0  0  0  0  0  0
  145.3444  137.9893  154.1756 H   0  0  0  0  0  0  0  0  0  0  0  0
  147.0360  139.5234  152.1908 H   0  0  0  0  0  0  0  0  0  0  0  0
  148.7226  138.0945  153.2064 H   0  0  0  0  0  0  0  0  0  0  0  0
  148.1381  138.4341  154.8262 H   0  0  0  0  0  0  0  0  0  0  0  0
  148.9196  139.6968  153.8759 H   0  0  0  0  0  0  0  0  0  0  0  0
  144.9449  139.3536  155.1444 H   0  0  0  0  0  0  0  0  0  0  0  0
  146.3785  139.9366  155.9636 H   0  0  0  0  0  0  0  0  0  0  0  0
  144.0175  141.6273  155.0044 H   0  0  0  0  0  0  0  0  0  0  0  0
  144.4037  141.2448  156.6618 H   0  0  0  0  0  0  0  0  0  0  0  0
  145.1906  143.5493  156.0402 H   0  0  0  0  0  0  0  0  0  0  0  0
  146.4965  142.5135  156.5542 H   0  0  0  0  0  0  0  0  0  0  0  0
  147.2698  143.6517  154.6110 H   0  0  0  0  0  0  0  0  0  0  0  0
  144.7994  142.7700  153.0524 H   0  0  0  0  0  0  0  0  0  0  0  0
  146.1562  143.6999  152.4299 H   0  0  0  0  0  0  0  0  0  0  0  0
  145.1109  144.3921  153.6613 H   0  0  0  0  0  0  0  0  0  0  0  0
  148.0312  141.3769  154.6677 H   0  0  0  0  0  0  0  0  0  0  0  0
  147.6861  141.7791  153.0012 H   0  0  0  0  0  0  0  0  0  0  0  0
  143.7838  134.5610  151.4827 H   0  0  0  0  0  0  0  0  0  0  0  0
  143.2317  133.1745  150.5254 H   0  0  0  0  0  0  0  0  0  0  0  0
  144.4677  134.2681  149.8691 H   0  0  0  0  0  0  0  0  0  0  0  0
  145.5471  140.7623  153.2859 H   0  0  0  0  0  0  0  0  0  0  0  0
  1  2  1  0  0  0  0
  1 22  1  0  0  0  0
  1 23  1  0  0  0  0
  1 24  1  0  0  0  0
  2 21  2  0  0  0  0
  2  3  1  0  0  0  0
  3  4  2  0  0  0  0
  3 25  1  0  0  0  0
  4  5  1  0  0  0  0
  4 19  1  0  0  0  0
  5  6  1  0  0  0  0
  5 26  1  0  0  0  0
  6  7  2  0  0  0  0
  6  8  1  0  0  0  0
  8  9  1  0  0  0  0
  8 27  1  0  0  0  0
  9 10  1  0  0  0  0
  9 28  1  0  0  0  0
  9 29  1  0  0  0  0
 10 11  1  0  0  0  0
 10 12  1  0  0  0  0
 10 30  1  0  0  0  0
 11 31  1  0  0  0  0
 11 32  1  0  0  0  0
 11 33  1  0  0  0  0
 12 18  1  0  0  0  0
 12 13  1  0  0  0  0
 12 49  1  0  0  0  0
 13 14  1  0  0  0  0
 13 34  1  0  0  0  0
 13 35  1  0  0  0  0
 14 15  1  0  0  0  0
 14 36  1  0  0  0  0
 14 37  1  0  0  0  0
 15 16  1  0  0  0  0
 15 38  1  0  0  0  0
 15 39  1  0  0  0  0
 16 17  1  0  0  0  0
 16 18  1  0  0  0  0
 16 40  1  0  0  0  0
 17 41  1  0  0  0  0
 17 42  1  0  0  0  0
 17 43  1  0  0  0  0
 18 44  1  0  0  0  0
 18 45  1  0  0  0  0
 19 20  1  0  0  0  0
 19 21  1  0  0  0  0
 20 46  1  0  0  0  0
 20 47  1  0  0  0  0
 20 48  1  0  0  0  0
M  CHG  1  12   1
M  END
> <s_m_source_file>
AV-unprocessed.smi

> <i_m_source_file_index>
1205

> <i_lp_mmshare_version>
43012

> <i_f3d_flags>
0

> <s_epik_input>
W0NIM11jMVtjSF1jKG4objEpW0NIM10pW05IXUMoPU8pW05IXVtDSDJdW0NASF0oW0NIM10pTjJbQ0gyXVtDSDJdW0NIMl1bQ0BASF0oW0NIM10pW0NIMl0y

> <s_epik_cmdline>
J2VwaWtfcHl0aG9uJywgJy1waCcsICc3LjAnLCAnLXRuJywgJzgnLCAnLW1hJywgJzIwMCcsICctbWV0YWxfYmluZGluZycsICctaW1hZScsICc8aW5maWxlLm1hZT4nLCAnLW9tYWUnLCAnPG91dGZpbGUubWFlPic=

> <r_lp_tautomer_probability>
1

> <r_epik_Ionization_Penalty>
0.0020309

> <r_epik_Ionization_Penalty_Charging>
0.00195276

> <r_epik_Ionization_Penalty_Neutral>
7.81448e-05

> <r_epik_State_Penalty>
0.00133177

> <r_epik_Charging_Adjusted_Penalty>
0.00328452

> <i_epik_Tot_Q>
1

> <i_epik_Tot_abs_Q>
1

> <r_epik_Metal_State_Penalty>
-0

> <b_epik_Metal_Only>
0

> <s_lp_Force_Field>
OPLS_2005

> <r_lp_Energy>
25.0457

> <b_lp_Chiralities_Consistent>
1

> <s_lp_Variant>
AV-unprocessed.smi:1205-5

> <Gold.Version>
5.8.1

> <Gold.Id.Protein>
6NUR|6NUR_protein|mol2

> <Gold.PLP.Fitness>
44.3053

> <Gold.PLP.PLP>
-33.4759

> <Gold.PLP.part.hbond>
-3.0000

> <Gold.PLP.part.metal>
0.0000

> <Gold.PLP.part.buried>
-3.6647

> <Gold.PLP.part.nonpolar>
-27.8362

> <Gold.PLP.part.repulsive>
0.2263

> <Gold.PLP.ligand.clash>
0.0000

> <Gold.PLP.ligand.torsion>
0.6240

> <Gold.PLP.Chemscore.Hbond>
3.9825

> <Gold.PLP.Chemscore.CHOScore>
0.0000

> <Gold.PLP.Chemscore.Metal>
0.0000

> <Gold.Chemscore.Hbonds>
donor molecule, donor type, donor heavy atom, donor atom, acceptor molecule, acceptor atom, score
      L1  H     5    26       P1  7948  1.00
      L1  H     8    27       P1  7948  1.00
      L1  H    12    49       P1 10175  1.92

> <Gold.PLP.Chemscore.Internal.Correction>
0.1299

> <Gold.Rescore>
     Score         DG    S(hbond)    S(metal)    S(lipo)     H(rot)  DE(clash)    DE(int)     intcor
     16.90     -19.51       2.76        0.00      73.34       1.47       0.12       2.50       ----

> <Gold.Chemscore.Fitness>
16.8966

> <Gold.Chemscore.DG>
-19.5139

> <Gold.Chemscore.ZeroCoef>
-5.4800

> <Gold.Chemscore.Hbond>
2.7563

> <Gold.Chemscore.Metal>
0.0000

> <Gold.Chemscore.Lipo>
73.3377

> <Gold.Chemscore.Internal_Hbond>
0.0000

> <Gold.Chemscore.DEClash>
0.1200

> <Gold.Chemscore.DEInternal>
2.4973

> <Gold.Chemscore.Rot>
1.4658

> <Gold.Chemscore.Internal.Correction>
   9.000000E+99

> <Gold.Chemscore.Hbonds>
donor molecule, donor type, donor heavy atom, donor atom, acceptor molecule, acceptor atom, score
      L1  H     5    26       P1  7948  0.86
      L1  H     8    27       P1  7948  0.99
      L1  H    12    49       P1 10175  0.68

> <Gold.Chemscore.Hbond.Weighted>
-9.2059

> <Gold.Chemscore.Metal.Weighted>
-0.0000

> <Gold.Chemscore.Lipo.Weighted>
-8.5805

> <Gold.Chemscore.Internal_Hbond.Weighted>
0.0000

> <Gold.Chemscore.DEClash.Weighted>
0.1200

> <Gold.Chemscore.DEInternal.Weighted>
2.4973

> <Gold.Chemscore.Rot.Weighted>
3.7526

> <Gold.Chemscore.Internal.Correction.Weighted>
   9.000000E+99

> <Gold.Protein.RotatedTorsions>
[ 6907 6896 6895 6894 ] final -113.41 input  -60.11 | X-H torsion
[ 7974 7965 7964 7962 ] final -109.37 input  175.53 | X-H torsion
[ 8008 7997 7996 7995 ] final    9.83 input   59.86 | X-H torsion
[ 10167 10162 10161 10158 ] final  117.93 input  -65.29 | X-H torsion
[ 10718 10713 10712 10709 ] final  -43.63 input   66.30 | X-H torsion
[ 10763 10752 10751 10750 ] final -111.92 input  -60.55 | X-H torsion
[ 11005 11000 10999 10996 ] final -135.53 input  -57.11 | X-H torsion

> <Gold.Protein.ActiveResidues>
 VAL166  LYS551  ARG553  GLY616  TRP617  ASP618  TYR619  PRO620  LYS621  CYS622 
 ASP623  PHE694  ASN695  SER759  ASP760  ASP761  ALA762  ILE779  LEU786  VAL792 
 PHE793  MET794  SER795  GLU796  ALA797  LYS798  CYS799  TRP800  GLU811  SER814 

> <Gold.Protein.RotatedAtoms>
  150.7827  133.8949  159.3324 H   0  0  0  0  0  0  0  0  0  0  0  0  # atno 6907 bound_to 6896
  151.6808  135.0960  160.0225 H   0  0  0  0  0  0  0  0  0  0  0  0  # atno 6908 bound_to 6896
  152.3883  133.6603  159.6252 H   0  0  0  0  0  0  0  0  0  0  0  0  # atno 6909 bound_to 6896
  145.1814  140.8973  143.3478 H   0  0  0  0  0  0  0  0  0  0  0  0  # atno 7974 bound_to 7965
  154.7853  140.2826  155.6032 H   0  0  0  0  0  0  0  0  0  0  0  0  # atno 8008 bound_to 7997
  156.2956  140.2615  156.2616 H   0  0  0  0  0  0  0  0  0  0  0  0  # atno 8009 bound_to 7997
  154.9735  140.0376  157.2235 H   0  0  0  0  0  0  0  0  0  0  0  0  # atno 8010 bound_to 7997
  139.6145  144.7089  151.2770 H   0  0  0  0  0  0  0  0  0  0  0  0  # atno 10167 bound_to 10162
  156.2470  130.4184  149.8694 H   0  0  0  0  0  0  0  0  0  0  0  0  # atno 10718 bound_to 10713
  154.8324  135.4510  154.1113 H   0  0  0  0  0  0  0  0  0  0  0  0  # atno 10763 bound_to 10752
  153.2375  135.6912  153.7827 H   0  0  0  0  0  0  0  0  0  0  0  0  # atno 10764 bound_to 10752
  153.7187  135.3345  155.3238 H   0  0  0  0  0  0  0  0  0  0  0  0  # atno 10765 bound_to 10752
  140.8889  134.1836  157.4541 H   0  0  0  0  0  0  0  0  0  0  0  0  # atno 11005 bound_to 11000
  145.0133  139.3490  143.6109 LP  0  0  0  0  0  0  0  0  0  0  0  0  # atno 17320 bound_to 7965
  146.3452  139.9404  142.8742 LP  0  0  0  0  0  0  0  0  0  0  0  0  # atno 17321 bound_to 7965
  140.7342  143.6774  150.8030 LP  0  0  0  0  0  0  0  0  0  0  0  0  # atno 17342 bound_to 10162
  140.0374  143.5381  152.2733 LP  0  0  0  0  0  0  0  0  0  0  0  0  # atno 17343 bound_to 10162
  156.6256  130.8644  151.3484 LP  0  0  0  0  0  0  0  0  0  0  0  0  # atno 17370 bound_to 10713
  157.7199  130.9545  150.1397 LP  0  0  0  0  0  0  0  0  0  0  0  0  # atno 17371 bound_to 10713
  139.8727  134.9850  156.5263 LP  0  0  0  0  0  0  0  0  0  0  0  0  # atno 17394 bound_to 11000
  140.8370  133.8234  155.9039 LP  0  0  0  0  0  0  0  0  0  0  0  0  # atno 17395 bound_to 11000

$$$$
