AV-unprocessed.smi:3284|AV-procd|sdf|12572|dock1
  -GOLD-   2272018493D 1   1.00000     0.00000
 Structure written by MMmdl.
 44 45  0  0  0  0  0  0  0  0  2 V2000
  152.3976  144.6470  158.1075 C   0  0  0  0  0  0  0  0  0  0  0  0
  152.5108  143.9543  159.4559 C   0  0  0  0  0  0  0  0  0  0  0  0
  152.2048  144.6072  160.5946 C   0  0  0  0  0  0  0  0  0  0  0  0
  152.3445  144.0271  161.9913 C   0  0  0  0  0  0  0  0  0  0  0  0
  152.7119  142.5339  161.9934 C   0  0  0  0  0  0  0  0  0  0  0  0
  153.6756  142.1872  160.8447 C   0  0  1  0  0  0  0  0  0  0  0  0
  154.2300  140.7572  160.9669 C   0  0  0  0  0  0  0  0  0  0  0  0
  153.0376  142.5129  159.4644 C   0  0  1  0  0  0  0  0  0  0  0  0
  151.9534  141.4853  159.0444 C   0  0  0  0  0  0  0  0  0  0  0  0
  151.6863  141.4864  157.5929 N   0  3  0  0  0  0  0  0  0  0  0  0
  150.3002  141.1287  157.2355 C   0  0  0  0  0  0  0  0  0  0  0  0
  150.1408  140.9849  155.7166 C   0  0  0  0  0  0  0  0  0  0  0  0
  151.0222  139.9147  155.1521 C   0  0  0  0  0  0  0  0  0  0  0  0
  152.3469  139.9218  155.2629 N   0  0  0  0  0  0  0  0  0  0  0  0
  152.7622  138.7542  154.6314 C   0  0  0  0  0  0  0  0  0  0  0  0
  151.6639  138.0738  154.1640 C   0  0  0  0  0  0  0  0  0  0  0  0
  150.5504  138.8275  154.5114 N   0  0  0  0  0  0  0  0  0  0  0  0
  149.1698  138.4860  154.2290 C   0  0  0  0  0  0  0  0  0  0  0  0
  153.3109  144.5091  157.5284 H   0  0  0  0  0  0  0  0  0  0  0  0
  152.2446  145.7197  158.2305 H   0  0  0  0  0  0  0  0  0  0  0  0
  151.5569  144.2666  157.5300 H   0  0  0  0  0  0  0  0  0  0  0  0
  151.8624  145.6310  160.5474 H   0  0  0  0  0  0  0  0  0  0  0  0
  153.1223  144.5956  162.5022 H   0  0  0  0  0  0  0  0  0  0  0  0
  151.4206  144.1882  162.5473 H   0  0  0  0  0  0  0  0  0  0  0  0
  153.1544  142.2737  162.9558 H   0  0  0  0  0  0  0  0  0  0  0  0
  151.8058  141.9335  161.9086 H   0  0  0  0  0  0  0  0  0  0  0  0
  154.5398  142.8458  160.9502 H   0  0  0  0  0  0  0  0  0  0  0  0
  153.4347  140.0143  161.0278 H   0  0  0  0  0  0  0  0  0  0  0  0
  154.8342  140.6538  161.8688 H   0  0  0  0  0  0  0  0  0  0  0  0
  154.8659  140.5063  160.1175 H   0  0  0  0  0  0  0  0  0  0  0  0
  153.8441  142.4633  158.7312 H   0  0  0  0  0  0  0  0  0  0  0  0
  152.2606  140.4737  159.3070 H   0  0  0  0  0  0  0  0  0  0  0  0
  151.0209  141.6826  159.5741 H   0  0  0  0  0  0  0  0  0  0  0  0
  151.8816  142.4108  157.2356 H   0  0  0  0  0  0  0  0  0  0  0  0
  150.0338  140.1933  157.7296 H   0  0  0  0  0  0  0  0  0  0  0  0
  149.6214  141.8966  157.6093 H   0  0  0  0  0  0  0  0  0  0  0  0
  149.1013  140.7766  155.4614 H   0  0  0  0  0  0  0  0  0  0  0  0
  150.3903  141.9274  155.2273 H   0  0  0  0  0  0  0  0  0  0  0  0
  153.8087  138.4952  154.5642 H   0  0  0  0  0  0  0  0  0  0  0  0
  151.5856  137.1382  153.6297 H   0  0  0  0  0  0  0  0  0  0  0  0
  149.1101  137.4856  153.7989 H   0  0  0  0  0  0  0  0  0  0  0  0
  148.7509  139.1999  153.5192 H   0  0  0  0  0  0  0  0  0  0  0  0
  148.5853  138.5073  155.1491 H   0  0  0  0  0  0  0  0  0  0  0  0
  152.3130  140.8293  157.1503 H   0  0  0  0  0  0  0  0  0  0  0  0
  1  2  1  0  0  0  0
  1 19  1  0  0  0  0
  1 20  1  0  0  0  0
  1 21  1  0  0  0  0
  2  8  1  0  0  0  0
  2  3  2  0  0  0  0
  3  4  1  0  0  0  0
  3 22  1  0  0  0  0
  4  5  1  0  0  0  0
  4 23  1  0  0  0  0
  4 24  1  0  0  0  0
  5  6  1  0  0  0  0
  5 25  1  0  0  0  0
  5 26  1  0  0  0  0
  6  7  1  0  0  0  0
  6  8  1  0  0  0  0
  6 27  1  0  0  0  0
  7 28  1  0  0  0  0
  7 29  1  0  0  0  0
  7 30  1  0  0  0  0
  8  9  1  0  0  0  0
  8 31  1  0  0  0  0
  9 10  1  0  0  0  0
  9 32  1  0  0  0  0
  9 33  1  0  0  0  0
 10 11  1  0  0  0  0
 10 34  1  0  0  0  0
 10 44  1  0  0  0  0
 11 12  1  0  0  0  0
 11 35  1  0  0  0  0
 11 36  1  0  0  0  0
 12 13  1  0  0  0  0
 12 37  1  0  0  0  0
 12 38  1  0  0  0  0
 13 17  1  0  0  0  0
 13 14  2  0  0  0  0
 14 15  1  0  0  0  0
 15 16  2  0  0  0  0
 15 39  1  0  0  0  0
 16 17  1  0  0  0  0
 16 40  1  0  0  0  0
 17 18  1  0  0  0  0
 18 41  1  0  0  0  0
 18 42  1  0  0  0  0
 18 43  1  0  0  0  0
M  CHG  1  10   1
M  END
> <s_m_source_file>
AV-unprocessed.smi

> <i_m_source_file_index>
3284

> <i_lp_mmshare_version>
43012

> <i_f3d_flags>
0

> <s_epik_input>
W0NIM11DMT1bQ0hdW0NIMl1bQ0gyXVtDQEBIXShbQ0gzXSlbQ0BIXTFbQ0gyXVtOSF1bQ0gyXVtDSDJdYzJuW2NIXVtjSF1uMltDSDNd

> <s_epik_cmdline>
J2VwaWtfcHl0aG9uJywgJy1waCcsICc3LjAnLCAnLXRuJywgJzgnLCAnLW1hJywgJzIwMCcsICctbWV0YWxfYmluZGluZycsICctaW1hZScsICc8aW5maWxlLm1hZT4nLCAnLW9tYWUnLCAnPG91dGZpbGUubWFlPic=

> <r_lp_tautomer_probability>
1

> <r_epik_Ionization_Penalty>
0.150779

> <r_epik_Ionization_Penalty_Charging>
0.150779

> <r_epik_Ionization_Penalty_Neutral>
1.39452e-13

> <r_epik_State_Penalty>
0.349447

> <r_epik_Charging_Adjusted_Penalty>
0.500226

> <i_epik_Tot_Q>
1

> <i_epik_Tot_abs_Q>
1

> <r_epik_Metal_State_Penalty>
0.000470967

> <b_epik_Metal_Only>
0

> <s_lp_Force_Field>
OPLS_2005

> <r_lp_Energy>
13.2562

> <b_lp_Chiralities_Consistent>
1

> <s_lp_Variant>
AV-unprocessed.smi:3284-1

> <Gold.Version>
5.8.1

> <Gold.Id.Protein>
6NUR|6NUR_protein|mol2

> <Gold.PLP.Fitness>
55.9809

> <Gold.PLP.PLP>
-52.6325

> <Gold.PLP.part.hbond>
-1.5186

> <Gold.PLP.part.metal>
0.0000

> <Gold.PLP.part.buried>
-3.6005

> <Gold.PLP.part.nonpolar>
-47.2033

> <Gold.PLP.part.repulsive>
0.0746

> <Gold.PLP.ligand.clash>
0.0000

> <Gold.PLP.ligand.torsion>
0.3595

> <Gold.PLP.Chemscore.Hbond>
0.3396

> <Gold.PLP.Chemscore.CHOScore>
1.0000

> <Gold.PLP.Chemscore.Metal>
0.0000

> <Gold.Chemscore.Hbonds>
donor molecule, donor type, donor heavy atom, donor atom, acceptor molecule, acceptor atom, score
      P1  H  7997  8010       L1    14  0.28
      L1  C    16    40       P1  7949  1.00

> <Gold.PLP.Chemscore.Internal.Correction>
0.0485

> <Gold.Rescore>
     Score         DG    S(hbond)    S(metal)    S(lipo)     H(rot)  DE(clash)    DE(int)     intcor
     16.64     -18.28       0.18        0.00     139.49       1.61       0.08       1.56       ----

> <Gold.Chemscore.Fitness>
16.6413

> <Gold.Chemscore.DG>
-18.2823

> <Gold.Chemscore.ZeroCoef>
-5.4800

> <Gold.Chemscore.Hbond>
0.1813

> <Gold.Chemscore.Metal>
0.0000

> <Gold.Chemscore.Lipo>
139.4855

> <Gold.Chemscore.Internal_Hbond>
0.0000

> <Gold.Chemscore.DEClash>
0.0823

> <Gold.Chemscore.DEInternal>
1.5588

> <Gold.Chemscore.Rot>
1.6105

> <Gold.Chemscore.Internal.Correction>
   9.000000E+99

> <Gold.Chemscore.Hbonds>
donor molecule, donor type, donor heavy atom, donor atom, acceptor molecule, acceptor atom, score
      P1  H  7997  8010       L1    14  0.01

> <Gold.Chemscore.Hbond.Weighted>
-0.6055

> <Gold.Chemscore.Metal.Weighted>
-0.0000

> <Gold.Chemscore.Lipo.Weighted>
-16.3198

> <Gold.Chemscore.Internal_Hbond.Weighted>
0.0000

> <Gold.Chemscore.DEClash.Weighted>
0.0823

> <Gold.Chemscore.DEInternal.Weighted>
1.5588

> <Gold.Chemscore.Rot.Weighted>
4.1230

> <Gold.Chemscore.Internal.Correction.Weighted>
   9.000000E+99

> <Gold.Protein.RotatedTorsions>
[ 6907 6896 6895 6894 ] final  -19.87 input  -60.11 | X-H torsion
[ 7974 7965 7964 7962 ] final  -85.73 input  175.53 | X-H torsion
[ 8008 7997 7996 7995 ] final   89.10 input   59.86 | X-H torsion
[ 10167 10162 10161 10158 ] final  -66.94 input  -65.29 | X-H torsion
[ 10718 10713 10712 10709 ] final -176.44 input   66.30 | X-H torsion
[ 10763 10752 10751 10750 ] final  -39.33 input  -60.55 | X-H torsion
[ 11005 11000 10999 10996 ] final  119.35 input  -57.11 | X-H torsion

> <Gold.Protein.ActiveResidues>
 VAL166  LYS551  ARG553  GLY616  TRP617  ASP618  TYR619  PRO620  LYS621  CYS622 
 ASP623  PHE694  ASN695  SER759  ASP760  ASP761  ALA762  ILE779  LEU786  VAL792 
 PHE793  MET794  SER795  GLU796  ALA797  LYS798  CYS799  TRP800  GLU811  SER814 

> <Gold.Protein.RotatedAtoms>
  151.2567  135.0640  159.9082 H   0  0  0  0  0  0  0  0  0  0  0  0  # atno 6907 bound_to 6896
  152.5372  134.0275  159.8020 H   0  0  0  0  0  0  0  0  0  0  0  0  # atno 6908 bound_to 6896
  151.0491  133.5590  159.2675 H   0  0  0  0  0  0  0  0  0  0  0  0  # atno 6909 bound_to 6896
  145.4894  140.9553  143.1820 H   0  0  0  0  0  0  0  0  0  0  0  0  # atno 7974 bound_to 7965
  155.9959  140.3364  155.6797 H   0  0  0  0  0  0  0  0  0  0  0  0  # atno 8008 bound_to 7997
  155.6357  140.0690  157.2652 H   0  0  0  0  0  0  0  0  0  0  0  0  # atno 8009 bound_to 7997
  154.4233  140.1751  156.1507 H   0  0  0  0  0  0  0  0  0  0  0  0  # atno 8010 bound_to 7997
  140.5620  143.2313  151.6709 H   0  0  0  0  0  0  0  0  0  0  0  0  # atno 10167 bound_to 10162
  156.8147  130.9598  151.3114 H   0  0  0  0  0  0  0  0  0  0  0  0  # atno 10718 bound_to 10713
  153.9276  135.6775  153.4746 H   0  0  0  0  0  0  0  0  0  0  0  0  # atno 10763 bound_to 10752
  153.0996  135.4834  154.8839 H   0  0  0  0  0  0  0  0  0  0  0  0  # atno 10764 bound_to 10752
  154.7445  135.3169  154.8626 H   0  0  0  0  0  0  0  0  0  0  0  0  # atno 10765 bound_to 10752
  139.9143  134.9628  156.7642 H   0  0  0  0  0  0  0  0  0  0  0  0  # atno 11005 bound_to 11000
  144.7843  139.6460  143.7141 LP  0  0  0  0  0  0  0  0  0  0  0  0  # atno 17320 bound_to 7965
  146.2293  139.5783  142.9566 LP  0  0  0  0  0  0  0  0  0  0  0  0  # atno 17321 bound_to 7965
  139.5074  144.3646  152.0529 LP  0  0  0  0  0  0  0  0  0  0  0  0  # atno 17342 bound_to 10162
  140.2773  144.3898  150.6130 LP  0  0  0  0  0  0  0  0  0  0  0  0  # atno 17343 bound_to 10162
  157.6488  130.8867  149.9591 LP  0  0  0  0  0  0  0  0  0  0  0  0  # atno 17370 bound_to 10713
  156.1024  130.3655  150.0194 LP  0  0  0  0  0  0  0  0  0  0  0  0  # atno 17371 bound_to 10713
  140.6673  133.9591  155.7837 LP  0  0  0  0  0  0  0  0  0  0  0  0  # atno 17394 bound_to 11000
  141.0602  134.0357  157.3668 LP  0  0  0  0  0  0  0  0  0  0  0  0  # atno 17395 bound_to 11000

$$$$
