AV-unprocessed.smi:701|AV-procd|sdf|3408|dock9
  -GOLD-   22720 0393D 1   1.00000     0.00000
 Structure written by MMmdl.
 49 51  0  0  0  0  0  0  0  0  1 V2000
  150.2421  128.9673  155.9902 C   0  0  0  0  0  0  0  0  0  0  0  0
  150.0009  130.3754  156.5384 C   0  0  0  0  0  0  0  0  0  0  0  0
  148.6422  130.7195  156.3270 O   0  0  0  0  0  0  0  0  0  0  0  0
  148.3017  130.8428  154.9512 C   0  0  2  0  0  0  0  0  0  0  0  0
  148.6004  132.2458  154.4057 C   0  0  0  0  0  0  0  0  0  0  0  0
  147.1894  132.6210  154.8603 C   0  0  1  0  0  0  0  0  0  0  0  0
  146.5131  133.5152  153.9278 N   0  0  0  0  0  0  0  0  0  0  0  0
  145.4288  134.2425  154.2317 C   0  0  0  0  0  0  0  0  0  0  0  0
  144.8907  134.2182  155.3394 O   0  0  0  0  0  0  0  0  0  0  0  0
  144.8489  135.1041  153.1019 C   0  0  0  0  0  0  0  0  0  0  0  0
  144.4986  134.3135  151.9135 N   0  0  0  0  0  0  0  0  0  0  0  0
  143.5540  133.3003  151.9972 C   0  0  0  0  0  0  0  0  0  0  0  0
  143.1737  132.5465  150.9385 C   0  0  0  0  0  0  0  0  0  0  0  0
  143.7589  132.7739  149.6215 C   0  0  0  0  0  0  0  0  0  0  0  0
  143.4804  132.1447  148.6034 O   0  0  0  0  0  0  0  0  0  0  0  0
  144.7043  133.8021  149.5781 N   0  0  0  0  0  0  0  0  0  0  0  0
  145.0992  134.5840  150.6647 C   0  0  0  0  0  0  0  0  0  0  0  0
  145.9396  135.4703  150.5156 O   0  0  0  0  0  0  0  0  0  0  0  0
  146.7905  131.1274  154.7338 C   0  0  0  0  0  0  0  0  0  0  0  0
  146.2258  130.6606  153.3711 C   0  0  0  0  0  0  0  0  0  0  0  0
  146.0673  129.1325  153.2787 C   0  0  0  0  0  0  0  0  0  0  0  0
  145.1807  128.5942  154.4091 C   0  0  0  0  0  0  0  0  0  0  0  0
  145.6737  129.0745  155.7802 C   0  0  0  0  0  0  0  0  0  0  0  0
  145.8219  130.6044  155.8096 C   0  0  0  0  0  0  0  0  0  0  0  0
  145.1358  133.9972  148.6865 H   0  0  0  0  0  0  0  0  0  0  0  0
  151.2786  128.6638  156.1373 H   0  0  0  0  0  0  0  0  0  0  0  0
  150.0277  128.9213  154.9220 H   0  0  0  0  0  0  0  0  0  0  0  0
  149.6054  128.2387  156.4922 H   0  0  0  0  0  0  0  0  0  0  0  0
  150.2432  130.4058  157.6011 H   0  0  0  0  0  0  0  0  0  0  0  0
  150.6511  131.0895  156.0311 H   0  0  0  0  0  0  0  0  0  0  0  0
  148.6913  130.0296  154.3373 H   0  0  0  0  0  0  0  0  0  0  0  0
  149.3973  132.7870  154.9158 H   0  0  0  0  0  0  0  0  0  0  0  0
  148.7353  132.2602  153.3229 H   0  0  0  0  0  0  0  0  0  0  0  0
  147.1861  132.9724  155.8950 H   0  0  0  0  0  0  0  0  0  0  0  0
  146.8918  133.5830  152.9944 H   0  0  0  0  0  0  0  0  0  0  0  0
  143.9771  135.6574  153.4572 H   0  0  0  0  0  0  0  0  0  0  0  0
  145.5874  135.8652  152.8465 H   0  0  0  0  0  0  0  0  0  0  0  0
  143.0901  133.0999  152.9524 H   0  0  0  0  0  0  0  0  0  0  0  0
  142.4311  131.7721  151.0662 H   0  0  0  0  0  0  0  0  0  0  0  0
  145.2537  131.1220  153.1915 H   0  0  0  0  0  0  0  0  0  0  0  0
  146.8630  130.9936  152.5518 H   0  0  0  0  0  0  0  0  0  0  0  0
  145.6399  128.8615  152.3130 H   0  0  0  0  0  0  0  0  0  0  0  0
  147.0463  128.6550  153.3243 H   0  0  0  0  0  0  0  0  0  0  0  0
  144.1554  128.9331  154.2553 H   0  0  0  0  0  0  0  0  0  0  0  0
  145.1543  127.5047  154.3795 H   0  0  0  0  0  0  0  0  0  0  0  0
  144.9798  128.7524  156.5571 H   0  0  0  0  0  0  0  0  0  0  0  0
  146.6332  128.6097  156.0104 H   0  0  0  0  0  0  0  0  0  0  0  0
  146.1465  130.9113  156.8041 H   0  0  0  0  0  0  0  0  0  0  0  0
  144.8398  131.0601  155.6762 H   0  0  0  0  0  0  0  0  0  0  0  0
  1  2  1  0  0  0  0
  1 26  1  0  0  0  0
  1 27  1  0  0  0  0
  1 28  1  0  0  0  0
  2  3  1  0  0  0  0
  2 29  1  0  0  0  0
  2 30  1  0  0  0  0
  3  4  1  0  0  0  0
  4 19  1  0  0  0  0
  4  5  1  0  0  0  0
  4 31  1  0  0  0  0
  5  6  1  0  0  0  0
  5 32  1  0  0  0  0
  5 33  1  0  0  0  0
  6  7  1  0  0  0  0
  6 19  1  0  0  0  0
  6 34  1  0  0  0  0
  7  8  1  0  0  0  0
  7 35  1  0  0  0  0
  8  9  2  0  0  0  0
  8 10  1  0  0  0  0
 10 11  1  0  0  0  0
 10 36  1  0  0  0  0
 10 37  1  0  0  0  0
 11 17  1  0  0  0  0
 11 12  1  0  0  0  0
 12 13  2  0  0  0  0
 12 38  1  0  0  0  0
 13 14  1  0  0  0  0
 13 39  1  0  0  0  0
 14 15  2  0  0  0  0
 14 16  1  0  0  0  0
 16 25  1  0  0  0  0
 16 17  1  0  0  0  0
 17 18  2  0  0  0  0
 19 24  1  0  0  0  0
 19 20  1  0  0  0  0
 20 21  1  0  0  0  0
 20 40  1  0  0  0  0
 20 41  1  0  0  0  0
 21 22  1  0  0  0  0
 21 42  1  0  0  0  0
 21 43  1  0  0  0  0
 22 23  1  0  0  0  0
 22 44  1  0  0  0  0
 22 45  1  0  0  0  0
 23 24  1  0  0  0  0
 23 46  1  0  0  0  0
 23 47  1  0  0  0  0
 24 48  1  0  0  0  0
 24 49  1  0  0  0  0
M  END
> <s_m_source_file>
AV-unprocessed.smi

> <i_m_source_file_index>
701

> <i_lp_mmshare_version>
43012

> <i_f3d_flags>
0

> <s_epik_input>
W0NIMl0xW0NIMl1bQ0gyXVtDSDJdW0NIMl1DMTJbQ0BIXShPW0NIMl1bQ0gzXSlbQ0gyXVtDQEhdMltOSF1DKD1PKVtDSDJdbjNbY0hdW2NIXWMoPU8pW25IXWMzPU8=

> <s_epik_cmdline>
J2VwaWtfcHl0aG9uJywgJy1waCcsICc3LjAnLCAnLXRuJywgJzgnLCAnLW1hJywgJzIwMCcsICctbWV0YWxfYmluZGluZycsICctaW1hZScsICc8aW5maWxlLm1hZT4nLCAnLW9tYWUnLCAnPG91dGZpbGUubWFlPic=

> <r_lp_tautomer_probability>
0.999537

> <r_epik_Ionization_Penalty>
0.00304597

> <r_epik_Ionization_Penalty_Charging>
0.00304595

> <r_epik_Ionization_Penalty_Neutral>
1.88422e-08

> <r_epik_State_Penalty>
0.00214084

> <r_epik_Charging_Adjusted_Penalty>
0.00518679

> <i_epik_Tot_Q>
0

> <i_epik_Tot_abs_Q>
0

> <r_epik_Metal_State_Penalty>
0.361872

> <b_epik_Metal_Only>
0

> <s_lp_Force_Field>
OPLS_2005

> <r_lp_Energy>
27.2214

> <b_lp_Chiralities_Consistent>
1

> <s_lp_Variant>
AV-unprocessed.smi:701-1

> <Gold.Version>
5.8.1

> <Gold.Id.Protein>
6NUR|6NUR_protein|mol2

> <Gold.PLP.Fitness>
41.5114

> <Gold.PLP.PLP>
-34.5862

> <Gold.PLP.part.hbond>
-1.9464

> <Gold.PLP.part.metal>
0.0000

> <Gold.PLP.part.buried>
-6.1328

> <Gold.PLP.part.nonpolar>
-28.1667

> <Gold.PLP.part.repulsive>
1.3068

> <Gold.PLP.ligand.clash>
0.0000

> <Gold.PLP.ligand.torsion>
0.4402

> <Gold.PLP.Chemscore.Hbond>
1.4930

> <Gold.PLP.Chemscore.CHOScore>
0.9952

> <Gold.PLP.Chemscore.Metal>
0.0000

> <Gold.Chemscore.Hbonds>
donor molecule, donor type, donor heavy atom, donor atom, acceptor molecule, acceptor atom, score
      L1  H    16    25       P1  7921  1.00
      P1  H 10785 10796       L1    15  0.77
      L1  C    12    38       P1 10957  1.00

> <Gold.PLP.Chemscore.Internal.Correction>
0.3410

> <Gold.Rescore>
     Score         DG    S(hbond)    S(metal)    S(lipo)     H(rot)  DE(clash)    DE(int)     intcor
     13.35     -14.17       1.76        0.00      69.86       2.09       0.28       0.54       ----

> <Gold.Chemscore.Fitness>
13.3548

> <Gold.Chemscore.DG>
-14.1724

> <Gold.Chemscore.ZeroCoef>
-5.4800

> <Gold.Chemscore.Hbond>
1.7597

> <Gold.Chemscore.Metal>
0.0000

> <Gold.Chemscore.Lipo>
69.8609

> <Gold.Chemscore.Internal_Hbond>
0.0000

> <Gold.Chemscore.DEClash>
0.2792

> <Gold.Chemscore.DEInternal>
0.5383

> <Gold.Chemscore.Rot>
2.0933

> <Gold.Chemscore.Internal.Correction>
   9.000000E+99

> <Gold.Chemscore.Hbonds>
donor molecule, donor type, donor heavy atom, donor atom, acceptor molecule, acceptor atom, score
      L1  H    16    25       P1  7921  0.95
      P1  H 10785 10796       L1    15  0.70

> <Gold.Chemscore.Hbond.Weighted>
-5.8774

> <Gold.Chemscore.Metal.Weighted>
-0.0000

> <Gold.Chemscore.Lipo.Weighted>
-8.1737

> <Gold.Chemscore.Internal_Hbond.Weighted>
0.0000

> <Gold.Chemscore.DEClash.Weighted>
0.2792

> <Gold.Chemscore.DEInternal.Weighted>
0.5383

> <Gold.Chemscore.Rot.Weighted>
5.3588

> <Gold.Chemscore.Internal.Correction.Weighted>
   9.000000E+99

> <Gold.Protein.RotatedTorsions>
[ 6907 6896 6895 6894 ] final -175.74 input  -60.11 | X-H torsion
[ 7974 7965 7964 7962 ] final  -28.07 input  175.53 | X-H torsion
[ 8008 7997 7996 7995 ] final -114.08 input   59.86 | X-H torsion
[ 10167 10162 10161 10158 ] final  106.26 input  -65.29 | X-H torsion
[ 10718 10713 10712 10709 ] final  155.03 input   66.30 | X-H torsion
[ 10763 10752 10751 10750 ] final   91.30 input  -60.55 | X-H torsion
[ 11005 11000 10999 10996 ] final  115.26 input  -57.11 | X-H torsion

> <Gold.Protein.ActiveResidues>
 VAL166  LYS551  ARG553  GLY616  TRP617  ASP618  TYR619  PRO620  LYS621  CYS622 
 ASP623  PHE694  ASN695  SER759  ASP760  ASP761  ALA762  ILE779  LEU786  VAL792 
 PHE793  MET794  SER795  GLU796  ALA797  LYS798  CYS799  TRP800  GLU811  SER814 

> <Gold.Protein.RotatedAtoms>
  151.5935  133.3364  159.3032 H   0  0  0  0  0  0  0  0  0  0  0  0  # atno 6907 bound_to 6896
  150.8247  134.7475  159.6814 H   0  0  0  0  0  0  0  0  0  0  0  0  # atno 6908 bound_to 6896
  152.4337  134.5733  159.9979 H   0  0  0  0  0  0  0  0  0  0  0  0  # atno 6909 bound_to 6896
  146.1314  140.5235  142.8692 H   0  0  0  0  0  0  0  0  0  0  0  0  # atno 7974 bound_to 7965
  155.0308  140.0393  157.2473 H   0  0  0  0  0  0  0  0  0  0  0  0  # atno 8008 bound_to 7997
  154.7299  140.2728  155.6442 H   0  0  0  0  0  0  0  0  0  0  0  0  # atno 8009 bound_to 7997
  156.2838  140.2686  156.1995 H   0  0  0  0  0  0  0  0  0  0  0  0  # atno 8010 bound_to 7997
  139.7024  144.7092  151.1164 H   0  0  0  0  0  0  0  0  0  0  0  0  # atno 10167 bound_to 10162
  157.2238  131.0724  151.1896 H   0  0  0  0  0  0  0  0  0  0  0  0  # atno 10718 bound_to 10713
  153.2068  135.4402  155.0332 H   0  0  0  0  0  0  0  0  0  0  0  0  # atno 10763 bound_to 10752
  154.8178  135.3323  154.7129 H   0  0  0  0  0  0  0  0  0  0  0  0  # atno 10764 bound_to 10752
  153.7570  135.6994  153.4989 H   0  0  0  0  0  0  0  0  0  0  0  0  # atno 10765 bound_to 10752
  139.9004  134.9581  156.7018 H   0  0  0  0  0  0  0  0  0  0  0  0  # atno 11005 bound_to 11000
  144.7694  140.5604  143.6680 LP  0  0  0  0  0  0  0  0  0  0  0  0  # atno 17320 bound_to 7965
  145.5253  139.1476  143.3530 LP  0  0  0  0  0  0  0  0  0  0  0  0  # atno 17321 bound_to 7965
  140.7713  143.5406  150.9317 LP  0  0  0  0  0  0  0  0  0  0  0  0  # atno 17342 bound_to 10162
  139.9088  143.6745  152.3119 LP  0  0  0  0  0  0  0  0  0  0  0  0  # atno 17343 bound_to 10162
  157.3549  130.7101  149.6464 LP  0  0  0  0  0  0  0  0  0  0  0  0  # atno 17370 bound_to 10713
  155.9680  130.4242  150.4597 LP  0  0  0  0  0  0  0  0  0  0  0  0  # atno 17371 bound_to 10713
  140.7144  133.9195  155.8106 LP  0  0  0  0  0  0  0  0  0  0  0  0  # atno 17394 bound_to 11000
  141.0275  134.0802  157.4052 LP  0  0  0  0  0  0  0  0  0  0  0  0  # atno 17395 bound_to 11000

$$$$
