AV-unprocessed.smi:26|AV-procd|sdf|183|dock6
  -GOLD-   2262015443D 1   1.00000     0.00000
 Structure written by MMmdl.
 58 61  0  0  0  0  0  0  0  0  1 V2000
  147.0506  141.7956  153.5273 C   0  0  0  0  0  0  0  0  0  0  0  0
  147.8653  140.6534  154.0454 C   0  0  0  0  0  0  0  0  0  0  0  0
  149.1841  140.6358  154.3868 C   0  0  0  0  0  0  0  0  0  0  0  0
  149.5195  139.3300  154.8338 C   0  0  0  0  0  0  0  0  0  0  0  0
  150.8415  138.8319  155.2954 C   0  0  0  0  0  0  0  0  0  0  0  0
  151.0920  137.6384  155.4698 O   0  0  0  0  0  0  0  0  0  0  0  0
  151.9126  139.9114  155.5407 C   0  0  0  0  0  0  0  0  0  0  0  0
  152.0338  140.2931  156.9428 N   0  0  0  0  0  0  0  0  0  0  0  0
  152.6973  139.3962  157.8168 C   0  0  0  0  0  0  0  0  0  0  0  0
  153.1672  138.3262  157.4258 O   0  0  0  0  0  0  0  0  0  0  0  0
  152.7872  139.8536  159.1984 C   0  0  0  0  0  0  0  0  0  0  0  0
  153.4031  139.0868  160.1141 F   0  0  0  0  0  0  0  0  0  0  0  0
  152.2638  141.0398  159.5755 C   0  0  0  0  0  0  0  0  0  0  0  0
  151.6098  141.8932  158.7051 N   0  0  0  0  0  0  0  0  0  0  0  0
  151.1122  143.2247  159.2249 C   0  0  2  0  0  0  0  0  0  0  0  0
  151.8568  144.4366  158.6446 C   0  0  0  0  0  0  0  0  0  0  0  0
  151.8571  145.3760  159.8312 C   0  0  0  0  0  0  0  0  0  0  0  0
  151.9945  144.4085  161.0019 C   0  0  0  0  0  0  0  0  0  0  0  0
  151.2517  143.2550  160.6161 O   0  0  0  0  0  0  0  0  0  0  0  0
  151.5055  141.5470  157.3369 C   0  0  0  0  0  0  0  0  0  0  0  0
  150.9876  142.3109  156.5206 O   0  0  0  0  0  0  0  0  0  0  0  0
  148.3763  138.5658  154.7670 C   0  0  0  0  0  0  0  0  0  0  0  0
  148.1703  137.1219  155.1362 C   0  0  0  0  0  0  0  0  0  0  0  0
  147.3517  139.3751  154.2539 N   0  0  0  0  0  0  0  0  0  0  0  0
  145.9568  138.9911  153.9856 C   0  0  2  0  0  0  0  0  0  0  0  0
  145.2083  138.6505  155.2899 C   0  0  0  0  0  0  0  0  0  0  0  0
  145.8411  137.9717  152.8481 C   0  0  0  0  0  0  0  0  0  0  0  0
  145.2531  136.7144  153.1148 C   0  0  0  0  0  0  0  0  0  0  0  0
  145.1364  135.7459  152.0994 C   0  0  0  0  0  0  0  0  0  0  0  0
  145.6130  136.0229  150.8049 C   0  0  0  0  0  0  0  0  0  0  0  0
  146.2071  137.2686  150.5290 C   0  0  0  0  0  0  0  0  0  0  0  0
  146.3241  138.2375  151.5447 C   0  0  0  0  0  0  0  0  0  0  0  0
  147.6331  142.7172  153.5248 H   0  0  0  0  0  0  0  0  0  0  0  0
  146.1703  141.9636  154.1477 H   0  0  0  0  0  0  0  0  0  0  0  0
  146.7235  141.6088  152.5044 H   0  0  0  0  0  0  0  0  0  0  0  0
  149.8452  141.4871  154.3181 H   0  0  0  0  0  0  0  0  0  0  0  0
  152.8915  139.5732  155.1975 H   0  0  0  0  0  0  0  0  0  0  0  0
  151.7005  140.8118  154.9623 H   0  0  0  0  0  0  0  0  0  0  0  0
  152.3650  141.3277  160.6118 H   0  0  0  0  0  0  0  0  0  0  0  0
  150.0466  143.2592  158.9944 H   0  0  0  0  0  0  0  0  0  0  0  0
  152.8760  144.1840  158.3559 H   0  0  0  0  0  0  0  0  0  0  0  0
  151.3360  144.8349  157.7738 H   0  0  0  0  0  0  0  0  0  0  0  0
  152.6566  146.1161  159.7924 H   0  0  0  0  0  0  0  0  0  0  0  0
  150.9041  145.9030  159.8913 H   0  0  0  0  0  0  0  0  0  0  0  0
  153.0390  144.1344  161.1515 H   0  0  0  0  0  0  0  0  0  0  0  0
  151.6204  144.8269  161.9365 H   0  0  0  0  0  0  0  0  0  0  0  0
  148.6453  136.4688  154.4043 H   0  0  0  0  0  0  0  0  0  0  0  0
  147.1257  136.8360  155.2031 H   0  0  0  0  0  0  0  0  0  0  0  0
  148.6050  136.9062  156.1118 H   0  0  0  0  0  0  0  0  0  0  0  0
  145.4408  139.8602  153.5816 H   0  0  0  0  0  0  0  0  0  0  0  0
  144.1430  138.5095  155.1057 H   0  0  0  0  0  0  0  0  0  0  0  0
  145.3031  139.4643  156.0095 H   0  0  0  0  0  0  0  0  0  0  0  0
  145.5855  137.7496  155.7714 H   0  0  0  0  0  0  0  0  0  0  0  0
  144.8861  136.4893  154.1057 H   0  0  0  0  0  0  0  0  0  0  0  0
  144.6818  134.7901  152.3150 H   0  0  0  0  0  0  0  0  0  0  0  0
  145.5244  135.2808  150.0252 H   0  0  0  0  0  0  0  0  0  0  0  0
  146.5753  137.4818  149.5364 H   0  0  0  0  0  0  0  0  0  0  0  0
  146.7840  139.1830  151.3018 H   0  0  0  0  0  0  0  0  0  0  0  0
  1  2  1  0  0  0  0
  1 33  1  0  0  0  0
  1 34  1  0  0  0  0
  1 35  1  0  0  0  0
  2 24  1  0  0  0  0
  2  3  2  0  0  0  0
  3  4  1  0  0  0  0
  3 36  1  0  0  0  0
  4  5  1  0  0  0  0
  4 22  2  0  0  0  0
  5  6  2  0  0  0  0
  5  7  1  0  0  0  0
  7  8  1  0  0  0  0
  7 37  1  0  0  0  0
  7 38  1  0  0  0  0
  8 20  1  0  0  0  0
  8  9  1  0  0  0  0
  9 10  2  0  0  0  0
  9 11  1  0  0  0  0
 11 12  1  0  0  0  0
 11 13  2  0  0  0  0
 13 14  1  0  0  0  0
 13 39  1  0  0  0  0
 14 15  1  0  0  0  0
 14 20  1  0  0  0  0
 15 19  1  0  0  0  0
 15 16  1  0  0  0  0
 15 40  1  0  0  0  0
 16 17  1  0  0  0  0
 16 41  1  0  0  0  0
 16 42  1  0  0  0  0
 17 18  1  0  0  0  0
 17 43  1  0  0  0  0
 17 44  1  0  0  0  0
 18 19  1  0  0  0  0
 18 45  1  0  0  0  0
 18 46  1  0  0  0  0
 20 21  2  0  0  0  0
 22 23  1  0  0  0  0
 22 24  1  0  0  0  0
 23 47  1  0  0  0  0
 23 48  1  0  0  0  0
 23 49  1  0  0  0  0
 24 25  1  0  0  0  0
 25 26  1  0  0  0  0
 25 27  1  0  0  0  0
 25 50  1  0  0  0  0
 26 51  1  0  0  0  0
 26 52  1  0  0  0  0
 26 53  1  0  0  0  0
 27 32  1  0  0  0  0
 27 28  2  0  0  0  0
 28 29  1  0  0  0  0
 28 54  1  0  0  0  0
 29 30  2  0  0  0  0
 29 55  1  0  0  0  0
 30 31  1  0  0  0  0
 30 56  1  0  0  0  0
 31 32  2  0  0  0  0
 31 57  1  0  0  0  0
 32 58  1  0  0  0  0
M  END
> <s_m_source_file>
AV-unprocessed.smi

> <i_m_source_file_index>
26

> <i_lp_mmshare_version>
43012

> <i_f3d_flags>
0

> <s_epik_input>
W2NIXTFbY0hdW2NIXVtjSF1bY0hdYzFbQ0BASF0oW0NIM10pbjJjKFtDSDNdKWMoW2NIXWMyW0NIM10pQyg9TylbQ0gyXW4zYyg9TyljKEYpW2NIXW4oYzM9TylbQ0BASF00W0NIMl1bQ0gyXVtDSDJdTzQ=

> <s_epik_cmdline>
J2VwaWtfcHl0aG9uJywgJy1waCcsICc3LjAnLCAnLXRuJywgJzgnLCAnLW1hJywgJzIwMCcsICctbWV0YWxfYmluZGluZycsICctaW1hZScsICc8aW5maWxlLm1hZT4nLCAnLW9tYWUnLCAnPG91dGZpbGUubWFlPic=

> <r_lp_tautomer_probability>
1

> <r_epik_Ionization_Penalty>
5.02402e-09

> <r_epik_Ionization_Penalty_Charging>
5.01743e-09

> <r_epik_Ionization_Penalty_Neutral>
6.58831e-12

> <r_epik_State_Penalty>
-0

> <r_epik_Charging_Adjusted_Penalty>
5.01743e-09

> <i_epik_Tot_Q>
0

> <i_epik_Tot_abs_Q>
0

> <r_epik_Metal_State_Penalty>
-0

> <b_epik_Metal_Only>
0

> <s_epik_Chemistry_Notes>
This compound contains an acetal/aminal-like group ( X-CH(R)-Y where X, Y are N, S, or O) that may be acid/base labile, releasing an aldehyde.

> <s_lp_Force_Field>
OPLS_2005

> <r_lp_Energy>
45.9461

> <b_lp_Chiralities_Consistent>
1

> <s_lp_Variant>
AV-unprocessed.smi:26-1

> <Gold.Version>
5.8.1

> <Gold.Id.Protein>
6NUR|6NUR_protein|mol2

> <Gold.PLP.Fitness>
52.4814

> <Gold.PLP.PLP>
-53.7572

> <Gold.PLP.part.hbond>
-1.4661

> <Gold.PLP.part.metal>
0.0000

> <Gold.PLP.part.buried>
1.5324

> <Gold.PLP.part.nonpolar>
-53.3077

> <Gold.PLP.part.repulsive>
0.2509

> <Gold.PLP.ligand.clash>
0.0000

> <Gold.PLP.ligand.torsion>
0.8043

> <Gold.PLP.Chemscore.Hbond>
0.0000

> <Gold.PLP.Chemscore.CHOScore>
0.0000

> <Gold.PLP.Chemscore.Metal>
0.0000

> <Gold.PLP.Chemscore.Internal.Correction>
0.3328

> <Gold.Rescore>
     Score         DG    S(hbond)    S(metal)    S(lipo)     H(rot)  DE(clash)    DE(int)     intcor
     12.37     -17.21       0.41        0.00     128.79       1.84       1.67       3.16       ----

> <Gold.Chemscore.Fitness>
12.3742

> <Gold.Chemscore.DG>
-17.2099

> <Gold.Chemscore.ZeroCoef>
-5.4800

> <Gold.Chemscore.Hbond>
0.4077

> <Gold.Chemscore.Metal>
0.0000

> <Gold.Chemscore.Lipo>
128.7864

> <Gold.Chemscore.Internal_Hbond>
0.0000

> <Gold.Chemscore.DEClash>
1.6707

> <Gold.Chemscore.DEInternal>
3.1650

> <Gold.Chemscore.Rot>
1.8359

> <Gold.Chemscore.Internal.Correction>
   9.000000E+99

> <Gold.Chemscore.Hbond.Weighted>
-1.3619

> <Gold.Chemscore.Metal.Weighted>
-0.0000

> <Gold.Chemscore.Lipo.Weighted>
-15.0680

> <Gold.Chemscore.Internal_Hbond.Weighted>
0.0000

> <Gold.Chemscore.DEClash.Weighted>
1.6707

> <Gold.Chemscore.DEInternal.Weighted>
3.1650

> <Gold.Chemscore.Rot.Weighted>
4.7000

> <Gold.Chemscore.Internal.Correction.Weighted>
   9.000000E+99

> <Gold.Protein.RotatedTorsions>
[ 6907 6896 6895 6894 ] final -176.59 input  -60.11 | X-H torsion
[ 7974 7965 7964 7962 ] final  -83.44 input  175.53 | X-H torsion
[ 8008 7997 7996 7995 ] final   27.47 input   59.86 | X-H torsion
[ 10167 10162 10161 10158 ] final  -24.94 input  -65.29 | X-H torsion
[ 10718 10713 10712 10709 ] final   81.00 input   66.30 | X-H torsion
[ 10763 10752 10751 10750 ] final  174.40 input  -60.55 | X-H torsion
[ 11005 11000 10999 10996 ] final  -12.24 input  -57.11 | X-H torsion

> <Gold.Protein.ActiveResidues>
 VAL166  LYS551  ARG553  GLY616  TRP617  ASP618  TYR619  PRO620  LYS621  CYS622 
 ASP623  PHE694  ASN695  SER759  ASP760  ASP761  ALA762  ILE779  LEU786  VAL792 
 PHE793  MET794  SER795  GLU796  ALA797  LYS798  CYS799  TRP800  GLU811  SER814 

> <Gold.Protein.RotatedAtoms>
  151.6073  133.3350  159.3059 H   0  0  0  0  0  0  0  0  0  0  0  0  # atno 6907 bound_to 6896
  150.8175  134.7369  159.6754 H   0  0  0  0  0  0  0  0  0  0  0  0  # atno 6908 bound_to 6896
  152.4270  134.5854  160.0011 H   0  0  0  0  0  0  0  0  0  0  0  0  # atno 6909 bound_to 6896
  145.5200  140.9532  143.1660 H   0  0  0  0  0  0  0  0  0  0  0  0  # atno 7974 bound_to 7965
  155.0435  140.3172  155.4716 H   0  0  0  0  0  0  0  0  0  0  0  0  # atno 8008 bound_to 7997
  156.2850  140.2159  156.5502 H   0  0  0  0  0  0  0  0  0  0  0  0  # atno 8009 bound_to 7997
  154.7270  140.0484  157.0679 H   0  0  0  0  0  0  0  0  0  0  0  0  # atno 8010 bound_to 7997
  140.7287  143.4309  151.0804 H   0  0  0  0  0  0  0  0  0  0  0  0  # atno 10167 bound_to 10162
  157.6821  130.9985  150.2162 H   0  0  0  0  0  0  0  0  0  0  0  0  # atno 10718 bound_to 10713
  154.4534  135.2765  155.1764 H   0  0  0  0  0  0  0  0  0  0  0  0  # atno 10763 bound_to 10752
  154.3582  135.6135  153.5681 H   0  0  0  0  0  0  0  0  0  0  0  0  # atno 10764 bound_to 10752
  152.9849  135.5828  154.4883 H   0  0  0  0  0  0  0  0  0  0  0  0  # atno 10765 bound_to 10752
  140.7636  133.8495  155.9146 H   0  0  0  0  0  0  0  0  0  0  0  0  # atno 11005 bound_to 11000
  144.7681  139.6797  143.7206 LP  0  0  0  0  0  0  0  0  0  0  0  0  # atno 17320 bound_to 7965
  146.2112  139.5470  142.9680 LP  0  0  0  0  0  0  0  0  0  0  0  0  # atno 17321 bound_to 7965
  139.7965  143.8144  152.3158 LP  0  0  0  0  0  0  0  0  0  0  0  0  # atno 17342 bound_to 10162
  139.8146  144.7321  150.9652 LP  0  0  0  0  0  0  0  0  0  0  0  0  # atno 17343 bound_to 10162
  156.2823  130.3735  149.7923 LP  0  0  0  0  0  0  0  0  0  0  0  0  # atno 17370 bound_to 10713
  156.5607  130.8382  151.3328 LP  0  0  0  0  0  0  0  0  0  0  0  0  # atno 17371 bound_to 10713
  140.9640  134.1619  157.4631 LP  0  0  0  0  0  0  0  0  0  0  0  0  # atno 17394 bound_to 11000
  139.8767  134.9955  156.5746 LP  0  0  0  0  0  0  0  0  0  0  0  0  # atno 17395 bound_to 11000

$$$$
