AV-unprocessed.smi:611|AV-procd|sdf|3061|dock2
  -GOLD-   2262023583D 1   1.00000     0.00000
 Structure written by MMmdl.
 41 42  0  0  0  0  0  0  0  0  1 V2000
  152.5206  144.6746  158.0339 C   0  0  0  0  0  0  0  0  0  0  0  0
  151.5038  144.1238  159.0616 C   0  0  0  0  0  0  0  0  0  0  0  0
  150.6552  145.2817  159.6184 C   0  0  0  0  0  0  0  0  0  0  0  0
  150.5948  143.1454  158.2806 C   0  0  0  0  0  0  0  0  0  0  0  0
  152.2203  143.4072  160.2195 C   0  0  0  0  0  0  0  0  0  0  0  0
  153.0176  142.3786  159.9013 N   0  0  0  0  0  0  0  0  0  0  0  0
  153.7393  141.8103  160.8910 C   0  0  0  0  0  0  0  0  0  0  0  0
  153.6868  142.2953  162.2195 C   0  0  0  0  0  0  0  0  0  0  0  0
  154.4183  141.7671  163.3163 N   0  0  0  0  0  0  0  0  0  0  0  0
  154.7292  142.3622  164.4844 C   0  0  0  0  0  0  0  0  0  0  0  0
  154.4012  143.5041  164.7977 O   0  0  0  0  0  0  0  0  0  0  0  0
  155.4727  141.6015  165.3084 N   0  0  0  0  0  0  0  0  0  0  0  0
  155.9801  141.9371  166.6416 C   0  0  0  0  0  0  0  0  0  0  0  0
  154.8293  141.9794  167.6660 C   0  0  0  0  0  0  0  0  0  0  0  0
  155.0062  143.2796  168.4520 C   0  0  0  0  0  0  0  0  0  0  0  0
  155.6696  144.2300  167.4612 C   0  0  0  0  0  0  0  0  0  0  0  0
  156.6273  143.3376  166.6720 C   0  0  0  0  0  0  0  0  0  0  0  0
  152.8610  143.4172  162.4291 C   0  0  0  0  0  0  0  0  0  0  0  0
  152.1445  143.9747  161.4307 N   0  0  0  0  0  0  0  0  0  0  0  0
  152.0166  145.1369  157.1845 H   0  0  0  0  0  0  0  0  0  0  0  0
  153.1596  143.8817  157.6437 H   0  0  0  0  0  0  0  0  0  0  0  0
  153.1682  145.4376  158.4676 H   0  0  0  0  0  0  0  0  0  0  0  0
  151.2740  146.0084  160.1460 H   0  0  0  0  0  0  0  0  0  0  0  0
  149.9031  144.9194  160.3200 H   0  0  0  0  0  0  0  0  0  0  0  0
  150.1331  145.8115  158.8211 H   0  0  0  0  0  0  0  0  0  0  0  0
  150.1230  143.6357  157.4283 H   0  0  0  0  0  0  0  0  0  0  0  0
  149.7890  142.7523  158.9014 H   0  0  0  0  0  0  0  0  0  0  0  0
  151.1618  142.2960  157.8976 H   0  0  0  0  0  0  0  0  0  0  0  0
  154.3680  140.9863  160.5924 H   0  0  0  0  0  0  0  0  0  0  0  0
  154.8096  140.8473  163.1737 H   0  0  0  0  0  0  0  0  0  0  0  0
  155.7280  140.6876  164.9632 H   0  0  0  0  0  0  0  0  0  0  0  0
  156.7092  141.1892  166.9586 H   0  0  0  0  0  0  0  0  0  0  0  0
  153.8632  142.0030  167.1591 H   0  0  0  0  0  0  0  0  0  0  0  0
  154.8271  141.1066  168.3195 H   0  0  0  0  0  0  0  0  0  0  0  0
  154.0643  143.6671  168.8414 H   0  0  0  0  0  0  0  0  0  0  0  0
  155.6722  143.1100  169.2990 H   0  0  0  0  0  0  0  0  0  0  0  0
  154.9167  144.6458  166.7901 H   0  0  0  0  0  0  0  0  0  0  0  0
  156.1774  145.0614  167.9506 H   0  0  0  0  0  0  0  0  0  0  0  0
  157.5796  143.2789  167.2004 H   0  0  0  0  0  0  0  0  0  0  0  0
  156.8370  143.7446  165.6819 H   0  0  0  0  0  0  0  0  0  0  0  0
  152.7735  143.8743  163.4041 H   0  0  0  0  0  0  0  0  0  0  0  0
  1  2  1  0  0  0  0
  1 20  1  0  0  0  0
  1 21  1  0  0  0  0
  1 22  1  0  0  0  0
  2  3  1  0  0  0  0
  2  4  1  0  0  0  0
  2  5  1  0  0  0  0
  3 23  1  0  0  0  0
  3 24  1  0  0  0  0
  3 25  1  0  0  0  0
  4 26  1  0  0  0  0
  4 27  1  0  0  0  0
  4 28  1  0  0  0  0
  5 19  1  0  0  0  0
  5  6  2  0  0  0  0
  6  7  1  0  0  0  0
  7  8  2  0  0  0  0
  7 29  1  0  0  0  0
  8  9  1  0  0  0  0
  8 18  1  0  0  0  0
  9 10  1  0  0  0  0
  9 30  1  0  0  0  0
 10 11  2  0  0  0  0
 10 12  1  0  0  0  0
 12 13  1  0  0  0  0
 12 31  1  0  0  0  0
 13 17  1  0  0  0  0
 13 14  1  0  0  0  0
 13 32  1  0  0  0  0
 14 15  1  0  0  0  0
 14 33  1  0  0  0  0
 14 34  1  0  0  0  0
 15 16  1  0  0  0  0
 15 35  1  0  0  0  0
 15 36  1  0  0  0  0
 16 17  1  0  0  0  0
 16 37  1  0  0  0  0
 16 38  1  0  0  0  0
 17 39  1  0  0  0  0
 17 40  1  0  0  0  0
 18 19  2  0  0  0  0
 18 41  1  0  0  0  0
M  END
> <s_m_source_file>
AV-unprocessed.smi

> <i_m_source_file_index>
611

> <i_lp_mmshare_version>
43012

> <i_f3d_flags>
0

> <s_epik_input>
W0NIM11DKFtDSDNdKShbQ0gzXSljMW5bY0hdYyhbY0hdbjEpW05IXUMoPU8pW05IXVtDSF0yW0NIMl1bQ0gyXVtDSDJdW0NIMl0y

> <s_epik_cmdline>
J2VwaWtfcHl0aG9uJywgJy1waCcsICc3LjAnLCAnLXRuJywgJzgnLCAnLW1hJywgJzIwMCcsICctbWV0YWxfYmluZGluZycsICctaW1hZScsICc8aW5maWxlLm1hZT4nLCAnLW9tYWUnLCAnPG91dGZpbGUubWFlPic=

> <r_lp_tautomer_probability>
1

> <r_epik_Ionization_Penalty>
2.83035e-05

> <r_epik_Ionization_Penalty_Charging>
0

> <r_epik_Ionization_Penalty_Neutral>
2.83035e-05

> <r_epik_State_Penalty>
-0

> <r_epik_Charging_Adjusted_Penalty>
0

> <i_epik_Tot_Q>
0

> <i_epik_Tot_abs_Q>
0

> <r_epik_Metal_State_Penalty>
-0

> <b_epik_Metal_Only>
0

> <s_lp_Force_Field>
OPLS_2005

> <r_lp_Energy>
27.5905

> <b_lp_Chiralities_Consistent>
1

> <s_lp_Variant>
AV-unprocessed.smi:611-1

> <Gold.Version>
5.8.1

> <Gold.Id.Protein>
6NUR|6NUR_protein|mol2

> <Gold.PLP.Fitness>
45.3068

> <Gold.PLP.PLP>
-45.8123

> <Gold.PLP.part.hbond>
-1.0000

> <Gold.PLP.part.metal>
0.0000

> <Gold.PLP.part.buried>
-6.2865

> <Gold.PLP.part.nonpolar>
-37.4054

> <Gold.PLP.part.repulsive>
0.2780

> <Gold.PLP.ligand.clash>
0.0000

> <Gold.PLP.ligand.torsion>
0.3200

> <Gold.PLP.Chemscore.Hbond>
0.0000

> <Gold.PLP.Chemscore.CHOScore>
0.0000

> <Gold.PLP.Chemscore.Metal>
0.0000

> <Gold.PLP.Chemscore.Internal.Correction>
0.1346

> <Gold.Rescore>
     Score         DG    S(hbond)    S(metal)    S(lipo)     H(rot)  DE(clash)    DE(int)     intcor
     12.06     -15.94       0.00        0.00     114.88       1.16       0.36       3.53       ----

> <Gold.Chemscore.Fitness>
12.0582

> <Gold.Chemscore.DG>
-15.9421

> <Gold.Chemscore.ZeroCoef>
-5.4800

> <Gold.Chemscore.Hbond>
0.0000

> <Gold.Chemscore.Metal>
0.0000

> <Gold.Chemscore.Lipo>
114.8815

> <Gold.Chemscore.Internal_Hbond>
0.0000

> <Gold.Chemscore.DEClash>
0.3585

> <Gold.Chemscore.DEInternal>
3.5253

> <Gold.Chemscore.Rot>
1.1637

> <Gold.Chemscore.Internal.Correction>
   9.000000E+99

> <Gold.Chemscore.Hbond.Weighted>
-0.0000

> <Gold.Chemscore.Metal.Weighted>
-0.0000

> <Gold.Chemscore.Lipo.Weighted>
-13.4411

> <Gold.Chemscore.Internal_Hbond.Weighted>
0.0000

> <Gold.Chemscore.DEClash.Weighted>
0.3585

> <Gold.Chemscore.DEInternal.Weighted>
3.5253

> <Gold.Chemscore.Rot.Weighted>
2.9790

> <Gold.Chemscore.Internal.Correction.Weighted>
   9.000000E+99

> <Gold.Protein.RotatedTorsions>
[ 6907 6896 6895 6894 ] final -148.84 input  -60.11 | X-H torsion
[ 7974 7965 7964 7962 ] final  -20.34 input  175.53 | X-H torsion
[ 8008 7997 7996 7995 ] final  159.96 input   59.86 | X-H torsion
[ 10167 10162 10161 10158 ] final   71.95 input  -65.29 | X-H torsion
[ 10718 10713 10712 10709 ] final -171.86 input   66.30 | X-H torsion
[ 10763 10752 10751 10750 ] final -162.56 input  -60.55 | X-H torsion
[ 11005 11000 10999 10996 ] final  147.45 input  -57.11 | X-H torsion

> <Gold.Protein.ActiveResidues>
 VAL166  LYS551  ARG553  GLY616  TRP617  ASP618  TYR619  PRO620  LYS621  CYS622 
 ASP623  PHE694  ASN695  SER759  ASP760  ASP761  ALA762  ILE779  LEU786  VAL792 
 PHE793  MET794  SER795  GLU796  ALA797  LYS798  CYS799  TRP800  GLU811  SER814 

> <Gold.Protein.RotatedAtoms>
  151.1756  133.4757  159.2593 H   0  0  0  0  0  0  0  0  0  0  0  0  # atno 6907 bound_to 6896
  151.1311  135.0130  159.8593 H   0  0  0  0  0  0  0  0  0  0  0  0  # atno 6908 bound_to 6896
  152.5460  134.1659  159.8630 H   0  0  0  0  0  0  0  0  0  0  0  0  # atno 6909 bound_to 6896
  146.1793  140.4188  142.8501 H   0  0  0  0  0  0  0  0  0  0  0  0  # atno 7974 bound_to 7965
  156.2204  140.1817  156.7490 H   0  0  0  0  0  0  0  0  0  0  0  0  # atno 8008 bound_to 7997
  154.5857  140.0659  156.9196 H   0  0  0  0  0  0  0  0  0  0  0  0  # atno 8009 bound_to 7997
  155.2424  140.3323  155.4293 H   0  0  0  0  0  0  0  0  0  0  0  0  # atno 8010 bound_to 7997
  140.0406  144.5392  150.7437 H   0  0  0  0  0  0  0  0  0  0  0  0  # atno 10167 bound_to 10162
  156.7471  130.9364  151.3113 H   0  0  0  0  0  0  0  0  0  0  0  0  # atno 10718 bound_to 10713
  154.7203  135.3024  154.9057 H   0  0  0  0  0  0  0  0  0  0  0  0  # atno 10763 bound_to 10752
  153.9931  135.6716  153.4759 H   0  0  0  0  0  0  0  0  0  0  0  0  # atno 10764 bound_to 10752
  153.0828  135.4999  154.8455 H   0  0  0  0  0  0  0  0  0  0  0  0  # atno 10765 bound_to 10752
  140.0876  134.9060  157.1601 H   0  0  0  0  0  0  0  0  0  0  0  0  # atno 11005 bound_to 11000
  144.8289  140.6674  143.6304 LP  0  0  0  0  0  0  0  0  0  0  0  0  # atno 17320 bound_to 7965
  145.4121  139.1578  143.4120 LP  0  0  0  0  0  0  0  0  0  0  0  0  # atno 17321 bound_to 7965
  140.7262  143.2638  151.4113 LP  0  0  0  0  0  0  0  0  0  0  0  0  # atno 17342 bound_to 10162
  139.6016  144.1283  152.2204 LP  0  0  0  0  0  0  0  0  0  0  0  0  # atno 17343 bound_to 10162
  157.6793  130.9124  150.0228 LP  0  0  0  0  0  0  0  0  0  0  0  0  # atno 17370 bound_to 10713
  156.1426  130.3642  149.9560 LP  0  0  0  0  0  0  0  0  0  0  0  0  # atno 17371 bound_to 10713
  140.3397  134.2717  155.7214 LP  0  0  0  0  0  0  0  0  0  0  0  0  # atno 17394 bound_to 11000
  141.2068  133.7824  157.0158 LP  0  0  0  0  0  0  0  0  0  0  0  0  # atno 17395 bound_to 11000

$$$$
