AV-unprocessed.smi:1983|AV-procd|sdf|8030|dock8
  -GOLD-   2272010223D 1   1.00000     0.00000
 Structure written by MMmdl.
 49 50  0  0  0  0  0  0  0  0  1 V2000
  145.5856  138.3680  154.1603 C   0  0  0  0  0  0  0  0  0  0  0  0
  146.7816  138.8717  153.3313 C   0  0  2  0  0  0  0  0  0  0  0  0
  146.4830  138.9745  151.8241 C   0  0  0  0  0  0  0  0  0  0  0  0
  146.8099  137.7774  151.1475 O   0  0  0  0  0  0  0  0  0  0  0  0
  147.9698  138.0498  153.5453 N   0  0  0  0  0  0  0  0  0  0  0  0
  148.6783  137.9877  154.6810 C   0  0  0  0  0  0  0  0  0  0  0  0
  148.4158  138.6338  155.6960 O   0  0  0  0  0  0  0  0  0  0  0  0
  149.7012  137.1273  154.5824 N   0  0  0  0  0  0  0  0  0  0  0  0
  150.6173  136.8016  155.6696 C   0  0  0  0  0  0  0  0  0  0  0  0
  150.9820  138.0039  156.5250 C   0  0  0  0  0  0  0  0  0  0  0  0
  151.0205  137.9181  157.9314 C   0  0  0  0  0  0  0  0  0  0  0  0
  151.3581  139.0640  158.6759 C   0  0  0  0  0  0  0  0  0  0  0  0
  151.6499  140.2683  157.9932 C   0  0  0  0  0  0  0  0  0  0  0  0
  151.9863  141.4277  158.7229 N   0  0  0  0  0  0  0  0  0  0  0  0
  151.6741  142.7262  158.1335 C   0  0  0  0  0  0  0  0  0  0  0  0
  151.7827  143.8337  159.1960 C   0  0  2  0  0  0  0  0  0  0  0  0
  151.5856  145.2275  158.5908 C   0  0  0  0  0  0  0  0  0  0  0  0
  153.0754  143.7912  159.7995 O   0  0  0  0  0  0  0  0  0  0  0  0
  153.4105  142.5430  160.4107 C   0  0  1  0  0  0  0  0  0  0  0  0
  152.6161  142.2979  161.7060 C   0  0  0  0  0  0  0  0  0  0  0  0
  153.2848  141.3954  159.3889 C   0  0  0  0  0  0  0  0  0  0  0  0
  151.6112  140.3463  156.6400 N   0  0  0  0  0  0  0  0  0  0  0  0
  151.2898  139.2439  155.9308 C   0  0  0  0  0  0  0  0  0  0  0  0
  144.7017  138.9804  153.9810 H   0  0  0  0  0  0  0  0  0  0  0  0
  145.8000  138.4098  155.2287 H   0  0  0  0  0  0  0  0  0  0  0  0
  145.3319  137.3362  153.9158 H   0  0  0  0  0  0  0  0  0  0  0  0
  147.0166  139.8824  153.6702 H   0  0  0  0  0  0  0  0  0  0  0  0
  145.4219  139.1722  151.6688 H   0  0  0  0  0  0  0  0  0  0  0  0
  147.0283  139.8054  151.3748 H   0  0  0  0  0  0  0  0  0  0  0  0
  147.2148  137.1857  151.7634 H   0  0  0  0  0  0  0  0  0  0  0  0
  148.2629  137.4736  152.7697 H   0  0  0  0  0  0  0  0  0  0  0  0
  149.8400  136.6466  153.7056 H   0  0  0  0  0  0  0  0  0  0  0  0
  150.1401  136.0580  156.3081 H   0  0  0  0  0  0  0  0  0  0  0  0
  151.5181  136.3327  155.2696 H   0  0  0  0  0  0  0  0  0  0  0  0
  150.7912  136.9907  158.4356 H   0  0  0  0  0  0  0  0  0  0  0  0
  151.3744  139.0128  159.7544 H   0  0  0  0  0  0  0  0  0  0  0  0
  152.3632  142.9222  157.3109 H   0  0  0  0  0  0  0  0  0  0  0  0
  150.6648  142.7193  157.7199 H   0  0  0  0  0  0  0  0  0  0  0  0
  151.0166  143.6864  159.9573 H   0  0  0  0  0  0  0  0  0  0  0  0
  150.6059  145.3159  158.1205 H   0  0  0  0  0  0  0  0  0  0  0  0
  152.3411  145.4398  157.8339 H   0  0  0  0  0  0  0  0  0  0  0  0
  151.6565  145.9987  159.3581 H   0  0  0  0  0  0  0  0  0  0  0  0
  154.4603  142.6177  160.6957 H   0  0  0  0  0  0  0  0  0  0  0  0
  152.9851  141.4113  162.2222 H   0  0  0  0  0  0  0  0  0  0  0  0
  151.5542  142.1418  161.5173 H   0  0  0  0  0  0  0  0  0  0  0  0
  152.7152  143.1419  162.3887 H   0  0  0  0  0  0  0  0  0  0  0  0
  153.4650  140.4433  159.8868 H   0  0  0  0  0  0  0  0  0  0  0  0
  154.0585  141.4994  158.6272 H   0  0  0  0  0  0  0  0  0  0  0  0
  151.2724  139.3601  154.8571 H   0  0  0  0  0  0  0  0  0  0  0  0
  1  2  1  0  0  0  0
  1 24  1  0  0  0  0
  1 25  1  0  0  0  0
  1 26  1  0  0  0  0
  2  3  1  0  0  0  0
  2  5  1  0  0  0  0
  2 27  1  0  0  0  0
  3  4  1  0  0  0  0
  3 28  1  0  0  0  0
  3 29  1  0  0  0  0
  4 30  1  0  0  0  0
  5  6  1  0  0  0  0
  5 31  1  0  0  0  0
  6  7  2  0  0  0  0
  6  8  1  0  0  0  0
  8  9  1  0  0  0  0
  8 32  1  0  0  0  0
  9 10  1  0  0  0  0
  9 33  1  0  0  0  0
  9 34  1  0  0  0  0
 10 23  1  0  0  0  0
 10 11  2  0  0  0  0
 11 12  1  0  0  0  0
 11 35  1  0  0  0  0
 12 13  2  0  0  0  0
 12 36  1  0  0  0  0
 13 14  1  0  0  0  0
 13 22  1  0  0  0  0
 14 21  1  0  0  0  0
 14 15  1  0  0  0  0
 15 16  1  0  0  0  0
 15 37  1  0  0  0  0
 15 38  1  0  0  0  0
 16 17  1  0  0  0  0
 16 18  1  0  0  0  0
 16 39  1  0  0  0  0
 17 40  1  0  0  0  0
 17 41  1  0  0  0  0
 17 42  1  0  0  0  0
 18 19  1  0  0  0  0
 19 20  1  0  0  0  0
 19 21  1  0  0  0  0
 19 43  1  0  0  0  0
 20 44  1  0  0  0  0
 20 45  1  0  0  0  0
 20 46  1  0  0  0  0
 21 47  1  0  0  0  0
 21 48  1  0  0  0  0
 22 23  2  0  0  0  0
 23 49  1  0  0  0  0
M  END
> <s_m_source_file>
AV-unprocessed.smi

> <i_m_source_file_index>
1983

> <i_lp_mmshare_version>
43012

> <i_f3d_flags>
0

> <s_epik_input>
W09IXVtDSDJdW0NAQEhdKFtDSDNdKVtOSF1DKD1PKVtOSF1bQ0gyXWMxW2NIXVtjSF1jKG5bY0hdMSlOMltDSDJdW0NAQEhdKFtDSDNdKU9bQ0BASF0oW0NIM10pW0NIMl0y

> <s_epik_cmdline>
J2VwaWtfcHl0aG9uJywgJy1waCcsICc3LjAnLCAnLXRuJywgJzgnLCAnLW1hJywgJzIwMCcsICctbWV0YWxfYmluZGluZycsICctaW1hZScsICc8aW5maWxlLm1hZT4nLCAnLW9tYWUnLCAnPG91dGZpbGUubWFlPic=

> <r_lp_tautomer_probability>
1

> <r_epik_Ionization_Penalty>
0.00801967

> <r_epik_Ionization_Penalty_Charging>
0

> <r_epik_Ionization_Penalty_Neutral>
0.00801967

> <r_epik_State_Penalty>
0.00598289

> <r_epik_Charging_Adjusted_Penalty>
0.00598289

> <i_epik_Tot_Q>
0

> <i_epik_Tot_abs_Q>
0

> <r_epik_Metal_State_Penalty>
0.00590297

> <b_epik_Metal_Only>
0

> <s_lp_Force_Field>
OPLS_2005

> <r_lp_Energy>
17.398

> <b_lp_Chiralities_Consistent>
1

> <s_lp_Variant>
AV-unprocessed.smi:1983-3

> <Gold.Version>
5.8.1

> <Gold.Id.Protein>
6NUR|6NUR_protein|mol2

> <Gold.PLP.Fitness>
48.3459

> <Gold.PLP.PLP>
-39.8778

> <Gold.PLP.part.hbond>
-4.0000

> <Gold.PLP.part.metal>
0.0000

> <Gold.PLP.part.buried>
-5.7611

> <Gold.PLP.part.nonpolar>
-30.9764

> <Gold.PLP.part.repulsive>
0.0765

> <Gold.PLP.ligand.clash>
0.0000

> <Gold.PLP.ligand.torsion>
1.2997

> <Gold.PLP.Chemscore.Hbond>
3.5620

> <Gold.PLP.Chemscore.CHOScore>
0.0000

> <Gold.PLP.Chemscore.Metal>
0.0000

> <Gold.Chemscore.Hbonds>
donor molecule, donor type, donor heavy atom, donor atom, acceptor molecule, acceptor atom, score
      L1  H     4    30       P1  7948  0.67
      L1  H     5    31       P1  7948  1.00
      L1  H     8    32       P1  7948  0.84
      P1  H  7954  7966       L1     4  0.95

> <Gold.PLP.Chemscore.Internal.Correction>
0.3816

> <Gold.Rescore>
     Score         DG    S(hbond)    S(metal)    S(lipo)     H(rot)  DE(clash)    DE(int)     intcor
     15.97     -18.78       2.26        0.00     106.16       2.61       0.06       2.75       ----

> <Gold.Chemscore.Fitness>
15.9746

> <Gold.Chemscore.DG>
-18.7841

> <Gold.Chemscore.ZeroCoef>
-5.4800

> <Gold.Chemscore.Hbond>
2.2648

> <Gold.Chemscore.Metal>
0.0000

> <Gold.Chemscore.Lipo>
106.1579

> <Gold.Chemscore.Internal_Hbond>
0.0000

> <Gold.Chemscore.DEClash>
0.0609

> <Gold.Chemscore.DEInternal>
2.7487

> <Gold.Chemscore.Rot>
2.6097

> <Gold.Chemscore.Internal.Correction>
   9.000000E+99

> <Gold.Chemscore.Hbonds>
donor molecule, donor type, donor heavy atom, donor atom, acceptor molecule, acceptor atom, score
      L1  H     4    30       P1  7948  0.67
      L1  H     5    31       P1  7948  1.00
      L1  H     8    32       P1  7948  0.31
      P1  H  7954  7966       L1     4  0.20

> <Gold.Chemscore.Hbond.Weighted>
-7.5646

> <Gold.Chemscore.Metal.Weighted>
-0.0000

> <Gold.Chemscore.Lipo.Weighted>
-12.4205

> <Gold.Chemscore.Internal_Hbond.Weighted>
0.0000

> <Gold.Chemscore.DEClash.Weighted>
0.0609

> <Gold.Chemscore.DEInternal.Weighted>
2.7487

> <Gold.Chemscore.Rot.Weighted>
6.6809

> <Gold.Chemscore.Internal.Correction.Weighted>
   9.000000E+99

> <Gold.Protein.RotatedTorsions>
[ 6907 6896 6895 6894 ] final   57.90 input  -60.11 | X-H torsion
[ 7974 7965 7964 7962 ] final  -76.80 input  175.53 | X-H torsion
[ 8008 7997 7996 7995 ] final   65.32 input   59.86 | X-H torsion
[ 10167 10162 10161 10158 ] final -145.13 input  -65.29 | X-H torsion
[ 10718 10713 10712 10709 ] final  -55.30 input   66.30 | X-H torsion
[ 10763 10752 10751 10750 ] final  -24.82 input  -60.55 | X-H torsion
[ 11005 11000 10999 10996 ] final  -97.35 input  -57.11 | X-H torsion

> <Gold.Protein.ActiveResidues>
 VAL166  LYS551  ARG553  GLY616  TRP617  ASP618  TYR619  PRO620  LYS621  CYS622 
 ASP623  PHE694  ASN695  SER759  ASP760  ASP761  ALA762  ILE779  LEU786  VAL792 
 PHE793  MET794  SER795  GLU796  ALA797  LYS798  CYS799  TRP800  GLU811  SER814 

> <Gold.Protein.RotatedAtoms>
  152.3774  134.6642  160.0154 H   0  0  0  0  0  0  0  0  0  0  0  0  # atno 6907 bound_to 6896
  151.6916  133.3305  159.3252 H   0  0  0  0  0  0  0  0  0  0  0  0  # atno 6908 bound_to 6896
  150.7720  134.6629  159.6394 H   0  0  0  0  0  0  0  0  0  0  0  0  # atno 6909 bound_to 6896
  145.6081  140.9393  143.1204 H   0  0  0  0  0  0  0  0  0  0  0  0  # atno 7974 bound_to 7965
  155.6599  140.3497  155.4779 H   0  0  0  0  0  0  0  0  0  0  0  0  # atno 8008 bound_to 7997
  155.9777  140.1168  157.0778 H   0  0  0  0  0  0  0  0  0  0  0  0  # atno 8009 bound_to 7997
  154.4183  140.1144  156.5379 H   0  0  0  0  0  0  0  0  0  0  0  0  # atno 8010 bound_to 7997
  139.7834  143.8069  152.2641 H   0  0  0  0  0  0  0  0  0  0  0  0  # atno 10167 bound_to 10162
  156.1380  130.4156  150.0152 H   0  0  0  0  0  0  0  0  0  0  0  0  # atno 10718 bound_to 10713
  153.6900  135.6962  153.5093 H   0  0  0  0  0  0  0  0  0  0  0  0  # atno 10763 bound_to 10752
  153.2420  135.4303  155.0707 H   0  0  0  0  0  0  0  0  0  0  0  0  # atno 10764 bound_to 10752
  154.8375  135.3510  154.6442 H   0  0  0  0  0  0  0  0  0  0  0  0  # atno 10765 bound_to 10752
  141.1382  133.8164  157.0694 H   0  0  0  0  0  0  0  0  0  0  0  0  # atno 11005 bound_to 11000
  144.7281  139.7810  143.7357 LP  0  0  0  0  0  0  0  0  0  0  0  0  # atno 17320 bound_to 7965
  146.1525  139.4613  143.0039 LP  0  0  0  0  0  0  0  0  0  0  0  0  # atno 17321 bound_to 7965
  139.8138  144.7325  150.9662 LP  0  0  0  0  0  0  0  0  0  0  0  0  # atno 17342 bound_to 10162
  140.7819  143.4225  151.0820 LP  0  0  0  0  0  0  0  0  0  0  0  0  # atno 17343 bound_to 10162
  156.8046  130.9303  151.3645 LP  0  0  0  0  0  0  0  0  0  0  0  0  # atno 17370 bound_to 10713
  157.6550  130.8916  149.9710 LP  0  0  0  0  0  0  0  0  0  0  0  0  # atno 17371 bound_to 10713
  140.0521  134.9800  157.1154 LP  0  0  0  0  0  0  0  0  0  0  0  0  # atno 17394 bound_to 11000
  140.3975  134.2118  155.7164 LP  0  0  0  0  0  0  0  0  0  0  0  0  # atno 17395 bound_to 11000

$$$$
