AV-unprocessed.smi:2795|AV-procd|sdf|10781|dock10
  -GOLD-   2272015213D 1   1.00000     0.00000
 Structure written by MMmdl.
 36 37  0  0  0  0  0  0  0  0  1 V2000
  146.7593  142.3574  154.0192 C   0  0  0  0  0  0  0  0  0  0  0  0
  147.3896  141.0558  153.9247 N   0  0  0  0  0  0  0  0  0  0  0  0
  146.9857  140.0205  153.1762 C   0  0  0  0  0  0  0  0  0  0  0  0
  147.7441  138.9383  153.2803 N   0  0  0  0  0  0  0  0  0  0  0  0
  148.7328  139.3143  154.1850 C   0  0  0  0  0  0  0  0  0  0  0  0
  148.5343  140.6193  154.5865 C   0  0  0  0  0  0  0  0  0  0  0  0
  149.3031  141.4882  155.5402 C   0  0  0  0  0  0  0  0  0  0  0  0
  150.5384  140.8351  156.1835 C   0  0  0  0  0  0  0  0  0  0  0  0
  151.1067  141.6770  157.2287 N   0  0  0  0  0  0  0  0  0  0  0  0
  152.1637  141.3451  157.9838 C   0  0  0  0  0  0  0  0  0  0  0  0
  152.7384  140.2597  157.8899 O   0  0  0  0  0  0  0  0  0  0  0  0
  152.6255  142.4008  158.9981 C   0  0  1  0  0  0  0  0  0  0  0  0
  151.7721  143.6895  158.9623 C   0  0  0  0  0  0  0  0  0  0  0  0
  152.2277  144.6685  160.0501 C   0  0  0  0  0  0  0  0  0  0  0  0
  152.2437  143.9609  161.4087 C   0  0  0  0  0  0  0  0  0  0  0  0
  153.0737  142.6704  161.3269 C   0  0  0  0  0  0  0  0  0  0  0  0
  152.5592  141.8250  160.3032 O   0  0  0  0  0  0  0  0  0  0  0  0
  145.8467  142.3804  153.4225 H   0  0  0  0  0  0  0  0  0  0  0  0
  147.4420  143.1237  153.6512 H   0  0  0  0  0  0  0  0  0  0  0  0
  146.5072  142.5701  155.0584 H   0  0  0  0  0  0  0  0  0  0  0  0
  146.1128  140.0593  152.5408 H   0  0  0  0  0  0  0  0  0  0  0  0
  149.5089  138.6204  154.4735 H   0  0  0  0  0  0  0  0  0  0  0  0
  149.6187  142.3941  155.0214 H   0  0  0  0  0  0  0  0  0  0  0  0
  148.6315  141.8190  156.3329 H   0  0  0  0  0  0  0  0  0  0  0  0
  150.2626  139.8688  156.6083 H   0  0  0  0  0  0  0  0  0  0  0  0
  151.2973  140.6433  155.4233 H   0  0  0  0  0  0  0  0  0  0  0  0
  150.6899  142.5869  157.3661 H   0  0  0  0  0  0  0  0  0  0  0  0
  153.6644  142.6431  158.7679 H   0  0  0  0  0  0  0  0  0  0  0  0
  151.8439  144.1696  157.9855 H   0  0  0  0  0  0  0  0  0  0  0  0
  150.7197  143.4448  159.1153 H   0  0  0  0  0  0  0  0  0  0  0  0
  153.2266  145.0387  159.8165 H   0  0  0  0  0  0  0  0  0  0  0  0
  151.5696  145.5372  160.0807 H   0  0  0  0  0  0  0  0  0  0  0  0
  152.6479  144.6228  162.1748 H   0  0  0  0  0  0  0  0  0  0  0  0
  151.2234  143.7196  161.7090 H   0  0  0  0  0  0  0  0  0  0  0  0
  154.1238  142.8942  161.1340 H   0  0  0  0  0  0  0  0  0  0  0  0
  153.0313  142.1373  162.2769 H   0  0  0  0  0  0  0  0  0  0  0  0
  1  2  1  0  0  0  0
  1 18  1  0  0  0  0
  1 19  1  0  0  0  0
  1 20  1  0  0  0  0
  2  6  1  0  0  0  0
  2  3  1  0  0  0  0
  3  4  2  0  0  0  0
  3 21  1  0  0  0  0
  4  5  1  0  0  0  0
  5  6  2  0  0  0  0
  5 22  1  0  0  0  0
  6  7  1  0  0  0  0
  7  8  1  0  0  0  0
  7 23  1  0  0  0  0
  7 24  1  0  0  0  0
  8  9  1  0  0  0  0
  8 25  1  0  0  0  0
  8 26  1  0  0  0  0
  9 10  1  0  0  0  0
  9 27  1  0  0  0  0
 10 11  2  0  0  0  0
 10 12  1  0  0  0  0
 12 17  1  0  0  0  0
 12 13  1  0  0  0  0
 12 28  1  0  0  0  0
 13 14  1  0  0  0  0
 13 29  1  0  0  0  0
 13 30  1  0  0  0  0
 14 15  1  0  0  0  0
 14 31  1  0  0  0  0
 14 32  1  0  0  0  0
 15 16  1  0  0  0  0
 15 33  1  0  0  0  0
 15 34  1  0  0  0  0
 16 17  1  0  0  0  0
 16 35  1  0  0  0  0
 16 36  1  0  0  0  0
M  END
> <s_m_source_file>
AV-unprocessed.smi

> <i_m_source_file_index>
2795

> <i_lp_mmshare_version>
43012

> <i_f3d_flags>
0

> <s_epik_input>
W0NIM11uMVtjSF1uW2NIXWMxW0NIMl1bQ0gyXVtOSF1DKD1PKVtDQEBIXTJbQ0gyXVtDSDJdW0NIMl1bQ0gyXU8y

> <s_epik_cmdline>
J2VwaWtfcHl0aG9uJywgJy1waCcsICc3LjAnLCAnLXRuJywgJzgnLCAnLW1hJywgJzIwMCcsICctbWV0YWxfYmluZGluZycsICctaW1hZScsICc8aW5maWxlLm1hZT4nLCAnLW9tYWUnLCAnPG91dGZpbGUubWFlPic=

> <r_lp_tautomer_probability>
1

> <r_epik_Ionization_Penalty>
0.870864

> <r_epik_Ionization_Penalty_Charging>
0.870864

> <r_epik_Ionization_Penalty_Neutral>
4.06047e-08

> <r_epik_State_Penalty>
0.90819

> <r_epik_Charging_Adjusted_Penalty>
1.77905

> <i_epik_Tot_Q>
0

> <i_epik_Tot_abs_Q>
0

> <r_epik_Metal_State_Penalty>
0.360563

> <b_epik_Metal_Only>
0

> <s_lp_Force_Field>
OPLS_2005

> <r_lp_Energy>
10.035

> <b_lp_Chiralities_Consistent>
1

> <s_lp_Variant>
AV-unprocessed.smi:2795-4

> <Gold.Version>
5.8.1

> <Gold.Id.Protein>
6NUR|6NUR_protein|mol2

> <Gold.PLP.Fitness>
44.0766

> <Gold.PLP.PLP>
-38.6085

> <Gold.PLP.part.hbond>
-1.0000

> <Gold.PLP.part.metal>
0.0000

> <Gold.PLP.part.buried>
-4.6535

> <Gold.PLP.part.nonpolar>
-33.7183

> <Gold.PLP.part.repulsive>
1.6533

> <Gold.PLP.ligand.clash>
0.4249

> <Gold.PLP.ligand.torsion>
0.0209

> <Gold.PLP.Chemscore.Hbond>
0.9760

> <Gold.PLP.Chemscore.CHOScore>
1.0000

> <Gold.PLP.Chemscore.Metal>
0.0000

> <Gold.Chemscore.Hbonds>
donor molecule, donor type, donor heavy atom, donor atom, acceptor molecule, acceptor atom, score
      P1  H  7997  8010       L1    11  0.96
      L1  C     3    21       P1 10175  1.00

> <Gold.PLP.Chemscore.Internal.Correction>
0.0067

> <Gold.Rescore>
     Score         DG    S(hbond)    S(metal)    S(lipo)     H(rot)  DE(clash)    DE(int)     intcor
     14.69     -14.78       0.92        0.00      91.76       1.76       0.04       0.05       ----

> <Gold.Chemscore.Fitness>
14.6854

> <Gold.Chemscore.DG>
-14.7761

> <Gold.Chemscore.ZeroCoef>
-5.4800

> <Gold.Chemscore.Hbond>
0.9166

> <Gold.Chemscore.Metal>
0.0000

> <Gold.Chemscore.Lipo>
91.7641

> <Gold.Chemscore.Internal_Hbond>
0.0000

> <Gold.Chemscore.DEClash>
0.0373

> <Gold.Chemscore.DEInternal>
0.0534

> <Gold.Chemscore.Rot>
1.7585

> <Gold.Chemscore.Internal.Correction>
   9.000000E+99

> <Gold.Chemscore.Hbonds>
donor molecule, donor type, donor heavy atom, donor atom, acceptor molecule, acceptor atom, score
      P1  H  7997  8010       L1    11  0.86

> <Gold.Chemscore.Hbond.Weighted>
-3.0615

> <Gold.Chemscore.Metal.Weighted>
-0.0000

> <Gold.Chemscore.Lipo.Weighted>
-10.7364

> <Gold.Chemscore.Internal_Hbond.Weighted>
0.0000

> <Gold.Chemscore.DEClash.Weighted>
0.0373

> <Gold.Chemscore.DEInternal.Weighted>
0.0534

> <Gold.Chemscore.Rot.Weighted>
4.5018

> <Gold.Chemscore.Internal.Correction.Weighted>
   9.000000E+99

> <Gold.Protein.RotatedTorsions>
[ 6907 6896 6895 6894 ] final  -55.89 input  -60.11 | X-H torsion
[ 7974 7965 7964 7962 ] final  167.46 input  175.53 | X-H torsion
[ 8008 7997 7996 7995 ] final   48.28 input   59.86 | X-H torsion
[ 10167 10162 10161 10158 ] final   80.98 input  -65.29 | X-H torsion
[ 10718 10713 10712 10709 ] final  -61.48 input   66.30 | X-H torsion
[ 10763 10752 10751 10750 ] final  162.38 input  -60.55 | X-H torsion
[ 11005 11000 10999 10996 ] final   30.08 input  -57.11 | X-H torsion

> <Gold.Protein.ActiveResidues>
 VAL166  LYS551  ARG553  GLY616  TRP617  ASP618  TYR619  PRO620  LYS621  CYS622 
 ASP623  PHE694  ASN695  SER759  ASP760  ASP761  ALA762  ILE779  LEU786  VAL792 
 PHE793  MET794  SER795  GLU796  ALA797  LYS798  CYS799  TRP800  GLU811  SER814 

> <Gold.Protein.RotatedAtoms>
  150.8213  134.7422  159.6774 H   0  0  0  0  0  0  0  0  0  0  0  0  # atno 6907 bound_to 6896
  152.4328  134.5741  159.9939 H   0  0  0  0  0  0  0  0  0  0  0  0  # atno 6908 bound_to 6896
  151.5924  133.3327  159.3066 H   0  0  0  0  0  0  0  0  0  0  0  0  # atno 6909 bound_to 6896
  144.7424  139.8764  143.6393 H   0  0  0  0  0  0  0  0  0  0  0  0  # atno 7974 bound_to 7965
  155.3829  140.3429  155.4247 H   0  0  0  0  0  0  0  0  0  0  0  0  # atno 8008 bound_to 7997
  156.1600  140.1598  156.8661 H   0  0  0  0  0  0  0  0  0  0  0  0  # atno 8009 bound_to 7997
  154.5131  140.0785  156.8010 H   0  0  0  0  0  0  0  0  0  0  0  0  # atno 8010 bound_to 7997
  139.9441  144.6070  150.8224 H   0  0  0  0  0  0  0  0  0  0  0  0  # atno 10167 bound_to 10162
  156.0919  130.4199  150.1000 H   0  0  0  0  0  0  0  0  0  0  0  0  # atno 10718 bound_to 10713
  154.2774  135.2764  155.2712 H   0  0  0  0  0  0  0  0  0  0  0  0  # atno 10763 bound_to 10752
  154.5248  135.5746  153.6713 H   0  0  0  0  0  0  0  0  0  0  0  0  # atno 10764 bound_to 10752
  152.9935  135.6213  154.2932 H   0  0  0  0  0  0  0  0  0  0  0  0  # atno 10765 bound_to 10752
  140.2982  134.2787  155.7760 H   0  0  0  0  0  0  0  0  0  0  0  0  # atno 11005 bound_to 11000
  146.1243  139.4267  143.0208 LP  0  0  0  0  0  0  0  0  0  0  0  0  # atno 17320 bound_to 7965
  145.7258  141.0059  143.1378 LP  0  0  0  0  0  0  0  0  0  0  0  0  # atno 17321 bound_to 7965
  140.7602  143.3147  151.2762 LP  0  0  0  0  0  0  0  0  0  0  0  0  # atno 17342 bound_to 10162
  139.6681  144.0069  152.2736 LP  0  0  0  0  0  0  0  0  0  0  0  0  # atno 17343 bound_to 10162
  156.9008  130.9620  151.3576 LP  0  0  0  0  0  0  0  0  0  0  0  0  # atno 17370 bound_to 10713
  157.6070  130.8554  149.8891 LP  0  0  0  0  0  0  0  0  0  0  0  0  # atno 17371 bound_to 10713
  141.2133  133.7629  156.9727 LP  0  0  0  0  0  0  0  0  0  0  0  0  # atno 17394 bound_to 11000
  140.1133  134.9463  157.2098 LP  0  0  0  0  0  0  0  0  0  0  0  0  # atno 17395 bound_to 11000

$$$$
