AV-unprocessed.smi:1712|AV-procd|sdf|6902|dock7
  -GOLD-   22720 8103D 1   1.00000     0.00000
 Structure written by MMmdl.
 37 38  0  0  0  0  0  0  0  0  1 V2000
  146.7518  139.9580  155.8069 C   0  0  0  0  0  0  0  0  0  0  0  0
  147.6357  138.9794  154.9918 C   0  0  1  0  0  0  0  0  0  0  0  0
  147.3420  139.1687  153.4760 C   0  0  0  0  0  0  0  0  0  0  0  0
  147.2548  137.9064  152.7445 N   0  0  0  0  0  0  0  0  0  0  0  0
  146.1208  137.3018  152.3611 C   0  0  0  0  0  0  0  0  0  0  0  0
  144.9962  137.7450  152.5949 O   0  0  0  0  0  0  0  0  0  0  0  0
  146.3775  136.1605  151.7015 N   0  0  0  0  0  0  0  0  0  0  0  0
  145.4363  135.2415  151.1724 C   0  0  0  0  0  0  0  0  0  0  0  0
  145.7016  133.8687  150.9172 C   0  0  0  0  0  0  0  0  0  0  0  0
  144.6352  133.2530  150.4269 N   0  0  0  0  0  0  0  0  0  0  0  0
  143.6915  134.2196  150.3675 N   0  0  0  0  0  0  0  0  0  0  0  0
  144.1342  135.4462  150.8112 C   0  0  0  0  0  0  0  0  0  0  0  0
  149.0764  139.0953  155.3221 N   0  0  0  0  0  0  0  0  0  0  0  0
  149.9367  138.3882  154.3660 C   0  0  0  0  0  0  0  0  0  0  0  0
  151.4340  138.5277  154.6911 C   0  0  0  0  0  0  0  0  0  0  0  0
  151.7874  139.9026  154.7371 O   0  0  0  0  0  0  0  0  0  0  0  0
  151.0331  140.6135  155.7087 C   0  0  0  0  0  0  0  0  0  0  0  0
  149.5323  140.4890  155.3945 C   0  0  0  0  0  0  0  0  0  0  0  0
  142.7602  134.0289  150.0260 H   0  0  0  0  0  0  0  0  0  0  0  0
  145.6963  139.8729  155.5525 H   0  0  0  0  0  0  0  0  0  0  0  0
  147.0483  140.9935  155.6358 H   0  0  0  0  0  0  0  0  0  0  0  0
  146.7942  139.7661  156.8777 H   0  0  0  0  0  0  0  0  0  0  0  0
  147.3127  137.9706  155.2542 H   0  0  0  0  0  0  0  0  0  0  0  0
  146.4418  139.7712  153.3422 H   0  0  0  0  0  0  0  0  0  0  0  0
  148.1466  139.7107  152.9834 H   0  0  0  0  0  0  0  0  0  0  0  0
  148.1298  137.4619  152.5087 H   0  0  0  0  0  0  0  0  0  0  0  0
  147.3489  135.9183  151.5712 H   0  0  0  0  0  0  0  0  0  0  0  0
  146.6135  133.3099  151.0687 H   0  0  0  0  0  0  0  0  0  0  0  0
  143.4985  136.3191  150.8273 H   0  0  0  0  0  0  0  0  0  0  0  0
  149.7132  137.3231  154.3629 H   0  0  0  0  0  0  0  0  0  0  0  0
  149.7492  138.7561  153.3562 H   0  0  0  0  0  0  0  0  0  0  0  0
  151.6685  138.0507  155.6440 H   0  0  0  0  0  0  0  0  0  0  0  0
  152.0346  138.0318  153.9286 H   0  0  0  0  0  0  0  0  0  0  0  0
  151.2522  140.2281  156.7056 H   0  0  0  0  0  0  0  0  0  0  0  0
  151.3362  141.6606  155.6973 H   0  0  0  0  0  0  0  0  0  0  0  0
  149.3172  140.9978  154.4537 H   0  0  0  0  0  0  0  0  0  0  0  0
  149.0025  141.0290  156.1765 H   0  0  0  0  0  0  0  0  0  0  0  0
  1  2  1  0  0  0  0
  1 20  1  0  0  0  0
  1 21  1  0  0  0  0
  1 22  1  0  0  0  0
  2  3  1  0  0  0  0
  2 13  1  0  0  0  0
  2 23  1  0  0  0  0
  3  4  1  0  0  0  0
  3 24  1  0  0  0  0
  3 25  1  0  0  0  0
  4  5  1  0  0  0  0
  4 26  1  0  0  0  0
  5  6  2  0  0  0  0
  5  7  1  0  0  0  0
  7  8  1  0  0  0  0
  7 27  1  0  0  0  0
  8 12  2  0  0  0  0
  8  9  1  0  0  0  0
  9 10  2  0  0  0  0
  9 28  1  0  0  0  0
 10 11  1  0  0  0  0
 11 19  1  0  0  0  0
 11 12  1  0  0  0  0
 12 29  1  0  0  0  0
 13 18  1  0  0  0  0
 13 14  1  0  0  0  0
 14 15  1  0  0  0  0
 14 30  1  0  0  0  0
 14 31  1  0  0  0  0
 15 16  1  0  0  0  0
 15 32  1  0  0  0  0
 15 33  1  0  0  0  0
 16 17  1  0  0  0  0
 17 18  1  0  0  0  0
 17 34  1  0  0  0  0
 17 35  1  0  0  0  0
 18 36  1  0  0  0  0
 18 37  1  0  0  0  0
M  END
> <s_m_source_file>
AV-unprocessed.smi

> <i_m_source_file_index>
1712

> <i_lp_mmshare_version>
43012

> <i_f3d_flags>
0

> <s_epik_input>
W0NIMl0xW0NIMl1PW0NIMl1bQ0gyXU4xW0NASF0oW0NIM10pW0NIMl1bTkhdQyg9TylbTkhdYzJbY0hdbltuSF1bY0hdMg==

> <s_epik_cmdline>
J2VwaWtfcHl0aG9uJywgJy1waCcsICc3LjAnLCAnLXRuJywgJzgnLCAnLW1hJywgJzIwMCcsICctbWV0YWxfYmluZGluZycsICctaW1hZScsICc8aW5maWxlLm1hZT4nLCAnLW9tYWUnLCAnPG91dGZpbGUubWFlPic=

> <r_lp_tautomer_probability>
0.5

> <r_epik_Ionization_Penalty>
0.242772

> <r_epik_Ionization_Penalty_Charging>
0

> <r_epik_Ionization_Penalty_Neutral>
0.242772

> <r_epik_State_Penalty>
0.233765

> <r_epik_Charging_Adjusted_Penalty>
0.233765

> <i_epik_Tot_Q>
0

> <i_epik_Tot_abs_Q>
0

> <r_epik_Metal_State_Penalty>
0.233764

> <b_epik_Metal_Only>
0

> <s_lp_Force_Field>
OPLS_2005

> <r_lp_Energy>
31.3121

> <b_lp_Chiralities_Consistent>
1

> <s_lp_Variant>
AV-unprocessed.smi:1712-2

> <Gold.Version>
5.8.1

> <Gold.Id.Protein>
6NUR|6NUR_protein|mol2

> <Gold.PLP.Fitness>
39.0449

> <Gold.PLP.PLP>
-26.0880

> <Gold.PLP.part.hbond>
-3.6582

> <Gold.PLP.part.metal>
0.0000

> <Gold.PLP.part.buried>
-4.8728

> <Gold.PLP.part.nonpolar>
-19.7715

> <Gold.PLP.part.repulsive>
0.9689

> <Gold.PLP.ligand.clash>
0.0000

> <Gold.PLP.ligand.torsion>
1.0223

> <Gold.PLP.Chemscore.Hbond>
3.9840

> <Gold.PLP.Chemscore.CHOScore>
1.0000

> <Gold.PLP.Chemscore.Metal>
0.0000

> <Gold.Chemscore.Hbonds>
donor molecule, donor type, donor heavy atom, donor atom, acceptor molecule, acceptor atom, score
      L1  H     4    26       P1  7948  1.00
      L1  H     7    27       P1  7948  1.00
      L1  H    11    19       P1 10186  1.00
      P1  H  7989  7998       L1    16  1.00
      L1  C    12    29       P1 10171  1.00

> <Gold.PLP.Chemscore.Internal.Correction>
0.0495

> <Gold.Rescore>
     Score         DG    S(hbond)    S(metal)    S(lipo)     H(rot)  DE(clash)    DE(int)     intcor
     17.99     -19.31       3.66        0.00      49.42       1.63       0.04       1.29       ----

> <Gold.Chemscore.Fitness>
17.9868

> <Gold.Chemscore.DG>
-19.3133

> <Gold.Chemscore.ZeroCoef>
-5.4800

> <Gold.Chemscore.Hbond>
3.6607

> <Gold.Chemscore.Metal>
0.0000

> <Gold.Chemscore.Lipo>
49.4213

> <Gold.Chemscore.Internal_Hbond>
0.0000

> <Gold.Chemscore.DEClash>
0.0396

> <Gold.Chemscore.DEInternal>
1.2869

> <Gold.Chemscore.Rot>
1.6311

> <Gold.Chemscore.Internal.Correction>
   9.000000E+99

> <Gold.Chemscore.Hbonds>
donor molecule, donor type, donor heavy atom, donor atom, acceptor molecule, acceptor atom, score
      L1  H     4    26       P1  7948  0.94
      L1  H     7    27       P1  7948  0.95
      L1  H    11    19       P1 10186  0.98
      P1  H  7989  7998       L1    16  0.27

> <Gold.Chemscore.Hbond.Weighted>
-12.2267

> <Gold.Chemscore.Metal.Weighted>
-0.0000

> <Gold.Chemscore.Lipo.Weighted>
-5.7823

> <Gold.Chemscore.Internal_Hbond.Weighted>
0.0000

> <Gold.Chemscore.DEClash.Weighted>
0.0396

> <Gold.Chemscore.DEInternal.Weighted>
1.2869

> <Gold.Chemscore.Rot.Weighted>
4.1757

> <Gold.Chemscore.Internal.Correction.Weighted>
   9.000000E+99

> <Gold.Protein.RotatedTorsions>
[ 6907 6896 6895 6894 ] final   -0.35 input  -60.11 | X-H torsion
[ 7974 7965 7964 7962 ] final   -7.20 input  175.53 | X-H torsion
[ 8008 7997 7996 7995 ] final  163.50 input   59.86 | X-H torsion
[ 10167 10162 10161 10158 ] final -129.82 input  -65.29 | X-H torsion
[ 10718 10713 10712 10709 ] final  138.00 input   66.30 | X-H torsion
[ 10763 10752 10751 10750 ] final   11.21 input  -60.55 | X-H torsion
[ 11005 11000 10999 10996 ] final   42.96 input  -57.11 | X-H torsion

> <Gold.Protein.ActiveResidues>
 VAL166  LYS551  ARG553  GLY616  TRP617  ASP618  TYR619  PRO620  LYS621  CYS622 
 ASP623  PHE694  ASN695  SER759  ASP760  ASP761  ALA762  ILE779  LEU786  VAL792 
 PHE793  MET794  SER795  GLU796  ALA797  LYS798  CYS799  TRP800  GLU811  SER814 

> <Gold.Protein.RotatedAtoms>
  151.5637  135.1065  159.9978 H   0  0  0  0  0  0  0  0  0  0  0  0  # atno 6907 bound_to 6896
  152.4434  133.7487  159.6692 H   0  0  0  0  0  0  0  0  0  0  0  0  # atno 6908 bound_to 6896
  150.8345  133.7968  159.3109 H   0  0  0  0  0  0  0  0  0  0  0  0  # atno 6909 bound_to 6896
  146.2312  140.2284  142.8339 H   0  0  0  0  0  0  0  0  0  0  0  0  # atno 7974 bound_to 7965
  156.1952  140.1722  156.8012 H   0  0  0  0  0  0  0  0  0  0  0  0  # atno 8008 bound_to 7997
  154.5521  140.0715  156.8715 H   0  0  0  0  0  0  0  0  0  0  0  0  # atno 8009 bound_to 7997
  155.3009  140.3361  155.4250 H   0  0  0  0  0  0  0  0  0  0  0  0  # atno 8010 bound_to 7997
  139.9358  143.6220  152.2517 H   0  0  0  0  0  0  0  0  0  0  0  0  # atno 10167 bound_to 10162
  157.4301  131.1047  151.0260 H   0  0  0  0  0  0  0  0  0  0  0  0  # atno 10718 bound_to 10713
  153.1950  135.6848  153.8303 H   0  0  0  0  0  0  0  0  0  0  0  0  # atno 10763 bound_to 10752
  153.7589  135.3213  155.3335 H   0  0  0  0  0  0  0  0  0  0  0  0  # atno 10764 bound_to 10752
  154.8139  135.4699  154.0691 H   0  0  0  0  0  0  0  0  0  0  0  0  # atno 10765 bound_to 10752
  140.1689  134.4246  155.8269 H   0  0  0  0  0  0  0  0  0  0  0  0  # atno 11005 bound_to 11000
  144.9577  140.8243  143.5533 LP  0  0  0  0  0  0  0  0  0  0  0  0  # atno 17320 bound_to 7965
  145.2252  139.2140  143.5072 LP  0  0  0  0  0  0  0  0  0  0  0  0  # atno 17321 bound_to 7965
  139.6745  144.7659  151.1722 LP  0  0  0  0  0  0  0  0  0  0  0  0  # atno 17342 bound_to 10162
  140.7625  143.5816  150.8889 LP  0  0  0  0  0  0  0  0  0  0  0  0  # atno 17343 bound_to 10162
  157.1159  130.6041  149.5493 LP  0  0  0  0  0  0  0  0  0  0  0  0  # atno 17370 bound_to 10713
  155.9910  130.4963  150.7281 LP  0  0  0  0  0  0  0  0  0  0  0  0  # atno 17371 bound_to 10713
  141.2216  133.6947  156.7729 LP  0  0  0  0  0  0  0  0  0  0  0  0  # atno 17394 bound_to 11000
  140.2400  134.8620  157.3564 LP  0  0  0  0  0  0  0  0  0  0  0  0  # atno 17395 bound_to 11000

$$$$
