AV-unprocessed.smi:2454|AV-procd|sdf|9698|dock8
  -GOLD-   2272013333D 1   1.00000     0.00000
 Structure written by MMmdl.
 42 43  0  0  0  0  0  0  0  0  1 V2000
  155.0242  138.1937  159.5442 C   0  0  0  0  0  0  0  0  0  0  0  0
  154.5184  138.4069  158.2382 O   0  0  0  0  0  0  0  0  0  0  0  0
  153.6282  137.3835  157.8258 C   0  0  0  0  0  0  0  0  0  0  0  0
  152.7993  137.8219  156.6365 C   0  0  0  0  0  0  0  0  0  0  0  0
  151.8294  136.9709  156.0656 C   0  0  0  0  0  0  0  0  0  0  0  0
  151.1115  137.4598  154.9506 C   0  0  0  0  0  0  0  0  0  0  0  0
  150.1492  136.5590  154.4060 N   0  0  0  0  0  0  0  0  0  0  0  0
  149.5758  135.4496  154.9196 C   0  0  0  0  0  0  0  0  0  0  0  0
  149.8592  135.0524  156.0486 O   0  0  0  0  0  0  0  0  0  0  0  0
  148.6916  134.8206  154.1287 N   0  0  0  0  0  0  0  0  0  0  0  0
  147.9694  133.5918  154.4489 C   0  0  1  0  0  0  0  0  0  0  0  0
  146.8667  133.8824  155.4841 C   0  0  0  0  0  0  0  0  0  0  0  0
  145.7161  134.7091  154.8861 C   0  0  0  0  0  0  0  0  0  0  0  0
  145.1363  134.0343  153.6333 C   0  0  0  0  0  0  0  0  0  0  0  0
  146.2231  133.7749  152.5686 C   0  0  2  0  0  0  0  0  0  0  0  0
  145.6436  133.1129  151.3016 C   0  0  0  0  0  0  0  0  0  0  0  0
  144.6447  133.8401  150.7999 F   0  0  0  0  0  0  0  0  0  0  0  0
  146.5940  132.9895  150.3752 F   0  0  0  0  0  0  0  0  0  0  0  0
  145.1865  131.8949  151.5917 F   0  0  0  0  0  0  0  0  0  0  0  0
  147.3765  132.9452  153.1781 C   0  0  0  0  0  0  0  0  0  0  0  0
  151.3761  138.7040  154.4753 N   0  0  0  0  0  0  0  0  0  0  0  0
  152.3156  139.4268  155.0893 C   0  0  0  0  0  0  0  0  0  0  0  0
  153.0417  139.0551  156.1438 N   0  0  0  0  0  0  0  0  0  0  0  0
  155.7041  139.0028  159.8107 H   0  0  0  0  0  0  0  0  0  0  0  0
  155.5772  137.2555  159.6053 H   0  0  0  0  0  0  0  0  0  0  0  0
  154.2197  138.1746  160.2805 H   0  0  0  0  0  0  0  0  0  0  0  0
  154.1904  136.4875  157.5574 H   0  0  0  0  0  0  0  0  0  0  0  0
  152.9638  137.1100  158.6477 H   0  0  0  0  0  0  0  0  0  0  0  0
  151.6494  135.9835  156.4660 H   0  0  0  0  0  0  0  0  0  0  0  0
  149.8124  136.8150  153.4894 H   0  0  0  0  0  0  0  0  0  0  0  0
  148.5196  135.2203  153.2164 H   0  0  0  0  0  0  0  0  0  0  0  0
  148.6738  132.8910  154.9004 H   0  0  0  0  0  0  0  0  0  0  0  0
  146.4686  132.9378  155.8570 H   0  0  0  0  0  0  0  0  0  0  0  0
  147.2862  134.3971  156.3496 H   0  0  0  0  0  0  0  0  0  0  0  0
  144.9318  134.8420  155.6315 H   0  0  0  0  0  0  0  0  0  0  0  0
  146.0700  135.7093  154.6326 H   0  0  0  0  0  0  0  0  0  0  0  0
  144.6637  133.0926  153.9154 H   0  0  0  0  0  0  0  0  0  0  0  0
  144.3473  134.6622  153.2187 H   0  0  0  0  0  0  0  0  0  0  0  0
  146.6286  134.7424  152.2680 H   0  0  0  0  0  0  0  0  0  0  0  0
  148.1631  132.7929  152.4383 H   0  0  0  0  0  0  0  0  0  0  0  0
  147.0080  131.9501  153.4299 H   0  0  0  0  0  0  0  0  0  0  0  0
  152.5060  140.4125  154.6914 H   0  0  0  0  0  0  0  0  0  0  0  0
  1  2  1  0  0  0  0
  1 24  1  0  0  0  0
  1 25  1  0  0  0  0
  1 26  1  0  0  0  0
  2  3  1  0  0  0  0
  3  4  1  0  0  0  0
  3 27  1  0  0  0  0
  3 28  1  0  0  0  0
  4 23  1  0  0  0  0
  4  5  2  0  0  0  0
  5  6  1  0  0  0  0
  5 29  1  0  0  0  0
  6  7  1  0  0  0  0
  6 21  2  0  0  0  0
  7  8  1  0  0  0  0
  7 30  1  0  0  0  0
  8  9  2  0  0  0  0
  8 10  1  0  0  0  0
 10 11  1  0  0  0  0
 10 31  1  0  0  0  0
 11 20  1  0  0  0  0
 11 12  1  0  0  0  0
 11 32  1  0  0  0  0
 12 13  1  0  0  0  0
 12 33  1  0  0  0  0
 12 34  1  0  0  0  0
 13 14  1  0  0  0  0
 13 35  1  0  0  0  0
 13 36  1  0  0  0  0
 14 15  1  0  0  0  0
 14 37  1  0  0  0  0
 14 38  1  0  0  0  0
 15 16  1  0  0  0  0
 15 20  1  0  0  0  0
 15 39  1  0  0  0  0
 16 17  1  0  0  0  0
 16 18  1  0  0  0  0
 16 19  1  0  0  0  0
 20 40  1  0  0  0  0
 20 41  1  0  0  0  0
 21 22  1  0  0  0  0
 22 23  2  0  0  0  0
 22 42  1  0  0  0  0
M  END
> <s_m_source_file>
AV-unprocessed.smi

> <i_m_source_file_index>
2454

> <i_lp_mmshare_version>
43012

> <i_f3d_flags>
0

> <s_epik_input>
W0NIM11PW0NIMl1jMVtjSF1jKG5bY0hdbjEpW05IXUMoPU8pW05IXVtDQEBIXTJbQ0gyXVtDSDJdW0NIMl1bQ0BASF0oQyhGKShGKUYpW0NIMl0y

> <s_epik_cmdline>
J2VwaWtfcHl0aG9uJywgJy1waCcsICc3LjAnLCAnLXRuJywgJzgnLCAnLW1hJywgJzIwMCcsICctbWV0YWxfYmluZGluZycsICctaW1hZScsICc8aW5maWxlLm1hZT4nLCAnLW9tYWUnLCAnPG91dGZpbGUubWFlPic=

> <r_lp_tautomer_probability>
1

> <r_epik_Ionization_Penalty>
3.01554e-05

> <r_epik_Ionization_Penalty_Charging>
0

> <r_epik_Ionization_Penalty_Neutral>
3.01554e-05

> <r_epik_State_Penalty>
-0

> <r_epik_Charging_Adjusted_Penalty>
0

> <i_epik_Tot_Q>
0

> <i_epik_Tot_abs_Q>
0

> <r_epik_Metal_State_Penalty>
-0

> <b_epik_Metal_Only>
0

> <s_lp_Force_Field>
OPLS_2005

> <r_lp_Energy>
13.7545

> <b_lp_Chiralities_Consistent>
1

> <s_lp_Variant>
AV-unprocessed.smi:2454-4

> <Gold.Version>
5.8.1

> <Gold.Id.Protein>
6NUR|6NUR_protein|mol2

> <Gold.PLP.Fitness>
38.6046

> <Gold.PLP.PLP>
-28.5110

> <Gold.PLP.part.hbond>
-4.6875

> <Gold.PLP.part.metal>
0.0000

> <Gold.PLP.part.buried>
-2.9795

> <Gold.PLP.part.nonpolar>
-21.1308

> <Gold.PLP.part.repulsive>
0.2232

> <Gold.PLP.ligand.clash>
0.0005

> <Gold.PLP.ligand.torsion>
0.3403

> <Gold.PLP.Chemscore.Hbond>
3.5760

> <Gold.PLP.Chemscore.CHOScore>
0.0000

> <Gold.PLP.Chemscore.Metal>
0.0000

> <Gold.Chemscore.Hbonds>
donor molecule, donor type, donor heavy atom, donor atom, acceptor molecule, acceptor atom, score
      L1  H     7    30       P1  7948  0.94
      L1  H    10    31       P1  7948  1.00
      P1  H  7997  8009       L1     2  0.56
      P1  H  7997  8010       L1    23  0.96

> <Gold.PLP.Chemscore.Internal.Correction>
0.0467

> <Gold.Rescore>
     Score         DG    S(hbond)    S(metal)    S(lipo)     H(rot)  DE(clash)    DE(int)     intcor
     12.30     -14.70       2.60        0.00      39.71       1.60       0.53       1.87       ----

> <Gold.Chemscore.Fitness>
12.3031

> <Gold.Chemscore.DG>
-14.7045

> <Gold.Chemscore.ZeroCoef>
-5.4800

> <Gold.Chemscore.Hbond>
2.5997

> <Gold.Chemscore.Metal>
0.0000

> <Gold.Chemscore.Lipo>
39.7143

> <Gold.Chemscore.Internal_Hbond>
0.0000

> <Gold.Chemscore.DEClash>
0.5289

> <Gold.Chemscore.DEInternal>
1.8725

> <Gold.Chemscore.Rot>
1.6035

> <Gold.Chemscore.Internal.Correction>
   9.000000E+99

> <Gold.Chemscore.Hbonds>
donor molecule, donor type, donor heavy atom, donor atom, acceptor molecule, acceptor atom, score
      L1  H     7    30       P1  7948  0.36
      L1  H    10    31       P1  7948  0.85
      P1  H  7997  8009       L1     2  0.42
      P1  H  7997  8010       L1    23  0.28

> <Gold.Chemscore.Hbond.Weighted>
-8.6830

> <Gold.Chemscore.Metal.Weighted>
-0.0000

> <Gold.Chemscore.Lipo.Weighted>
-4.6466

> <Gold.Chemscore.Internal_Hbond.Weighted>
0.0000

> <Gold.Chemscore.DEClash.Weighted>
0.5289

> <Gold.Chemscore.DEInternal.Weighted>
1.8725

> <Gold.Chemscore.Rot.Weighted>
4.1050

> <Gold.Chemscore.Internal.Correction.Weighted>
   9.000000E+99

> <Gold.Protein.RotatedTorsions>
[ 6907 6896 6895 6894 ] final  -22.66 input  -60.11 | X-H torsion
[ 7974 7965 7964 7962 ] final  -13.47 input  175.53 | X-H torsion
[ 8008 7997 7996 7995 ] final   97.09 input   59.86 | X-H torsion
[ 10167 10162 10161 10158 ] final -148.70 input  -65.29 | X-H torsion
[ 10718 10713 10712 10709 ] final  -55.48 input   66.30 | X-H torsion
[ 10763 10752 10751 10750 ] final  -79.18 input  -60.55 | X-H torsion
[ 11005 11000 10999 10996 ] final   50.20 input  -57.11 | X-H torsion

> <Gold.Protein.ActiveResidues>
 VAL166  LYS551  ARG553  GLY616  TRP617  ASP618  TYR619  PRO620  LYS621  CYS622 
 ASP623  PHE694  ASN695  SER759  ASP760  ASP761  ALA762  ILE779  LEU786  VAL792 
 PHE793  MET794  SER795  GLU796  ALA797  LYS798  CYS799  TRP800  GLU811  SER814 

> <Gold.Protein.RotatedAtoms>
  151.2153  135.0497  159.8927 H   0  0  0  0  0  0  0  0  0  0  0  0  # atno 6907 bound_to 6896
  152.5421  134.0700  159.8200 H   0  0  0  0  0  0  0  0  0  0  0  0  # atno 6908 bound_to 6896
  151.0859  133.5306  159.2649 H   0  0  0  0  0  0  0  0  0  0  0  0  # atno 6909 bound_to 6896
  146.2113  140.3207  142.8390 H   0  0  0  0  0  0  0  0  0  0  0  0  # atno 7974 bound_to 7965
  156.0865  140.3263  155.7761 H   0  0  0  0  0  0  0  0  0  0  0  0  # atno 8008 bound_to 7997
  155.5067  140.0573  157.2947 H   0  0  0  0  0  0  0  0  0  0  0  0  # atno 8009 bound_to 7997
  154.4612  140.1967  156.0255 H   0  0  0  0  0  0  0  0  0  0  0  0  # atno 8010 bound_to 7997
  139.7508  143.8522  152.2586 H   0  0  0  0  0  0  0  0  0  0  0  0  # atno 10167 bound_to 10162
  156.1365  130.4156  150.0177 H   0  0  0  0  0  0  0  0  0  0  0  0  # atno 10718 bound_to 10713
  154.5353  135.5704  153.6793 H   0  0  0  0  0  0  0  0  0  0  0  0  # atno 10763 bound_to 10752
  152.9949  135.6214  154.2574 H   0  0  0  0  0  0  0  0  0  0  0  0  # atno 10764 bound_to 10752
  154.2502  135.2859  155.2799 H   0  0  0  0  0  0  0  0  0  0  0  0  # atno 10765 bound_to 10752
  140.1038  134.5046  155.8738 H   0  0  0  0  0  0  0  0  0  0  0  0  # atno 11005 bound_to 11000
  144.8922  140.7538  143.5920 LP  0  0  0  0  0  0  0  0  0  0  0  0  # atno 17320 bound_to 7965
  145.3130  139.1812  143.4628 LP  0  0  0  0  0  0  0  0  0  0  0  0  # atno 17321 bound_to 7965
  139.8499  144.7169  150.9227 LP  0  0  0  0  0  0  0  0  0  0  0  0  # atno 17342 bound_to 10162
  140.7797  143.3908  151.1313 LP  0  0  0  0  0  0  0  0  0  0  0  0  # atno 17343 bound_to 10162
  156.8074  130.9312  151.3645 LP  0  0  0  0  0  0  0  0  0  0  0  0  # atno 17370 bound_to 10713
  157.6537  130.8906  149.9685 LP  0  0  0  0  0  0  0  0  0  0  0  0  # atno 17371 bound_to 10713
  141.2113  133.6704  156.6570 LP  0  0  0  0  0  0  0  0  0  0  0  0  # atno 17394 bound_to 11000
  140.3184  134.8028  157.4232 LP  0  0  0  0  0  0  0  0  0  0  0  0  # atno 17395 bound_to 11000

$$$$
