AV-unprocessed.smi:114|AV-procd|sdf|1121|dock5
  -GOLD-   2262018243D 1   1.00000     0.00000
 Structure written by MMmdl.
 32 34  0  0  0  0  0  0  0  0  1 V2000
  153.1574  140.9692  159.7612 N   0  0  0  0  0  0  0  0  0  0  0  0
  152.7824  140.3578  158.6289 C   0  0  0  0  0  0  0  0  0  0  0  0
  153.2868  139.1314  158.3631 N   0  0  0  0  0  0  0  0  0  0  0  0
  152.9344  138.4863  157.2457 C   0  0  0  0  0  0  0  0  0  0  0  0
  153.4863  137.2649  157.0561 F   0  0  0  0  0  0  0  0  0  0  0  0
  152.0995  138.9144  156.2938 N   0  0  0  0  0  0  0  0  0  0  0  0
  151.5850  140.1527  156.5512 C   0  0  0  0  0  0  0  0  0  0  0  0
  151.8817  140.9353  157.7009 C   0  0  0  0  0  0  0  0  0  0  0  0
  151.1901  142.1355  157.6521 N   0  0  0  0  0  0  0  0  0  0  0  0
  150.5158  142.0601  156.5375 C   0  0  0  0  0  0  0  0  0  0  0  0
  150.6990  140.9100  155.7996 N   0  0  0  0  0  0  0  0  0  0  0  0
  150.0056  140.5806  154.5043 C   0  0  2  0  0  0  0  0  0  0  0  0
  149.1559  141.6343  154.1827 O   0  0  0  0  0  0  0  0  0  0  0  0
  147.8445  141.3512  154.6476 C   0  0  1  0  0  0  0  0  0  0  0  0
  146.8225  142.1737  153.8486 C   0  0  0  0  0  0  0  0  0  0  0  0
  145.5134  141.8766  154.2856 O   0  0  0  0  0  0  0  0  0  0  0  0
  147.7200  139.8364  154.4213 C   0  0  2  0  0  0  0  0  0  0  0  0
  146.8719  139.2633  155.3962 O   0  0  0  0  0  0  0  0  0  0  0  0
  149.1493  139.3030  154.5621 C   0  0  1  0  0  0  0  0  0  0  0  0
  149.4523  138.4361  153.4876 O   0  0  0  0  0  0  0  0  0  0  0  0
  150.8204  140.5223  153.7811 H   0  0  0  0  0  0  0  0  0  0  0  0
  147.7764  141.5891  155.7093 H   0  0  0  0  0  0  0  0  0  0  0  0
  147.3271  139.6365  153.4226 H   0  0  0  0  0  0  0  0  0  0  0  0
  149.3221  138.7609  155.4911 H   0  0  0  0  0  0  0  0  0  0  0  0
  152.7925  141.8847  159.9821 H   0  0  0  0  0  0  0  0  0  0  0  0
  153.7964  140.5107  160.3944 H   0  0  0  0  0  0  0  0  0  0  0  0
  149.8544  142.8530  156.2197 H   0  0  0  0  0  0  0  0  0  0  0  0
  147.0194  143.2430  153.9321 H   0  0  0  0  0  0  0  0  0  0  0  0
  146.8800  141.9147  152.7911 H   0  0  0  0  0  0  0  0  0  0  0  0
  145.1270  141.2608  153.6821 H   0  0  0  0  0  0  0  0  0  0  0  0
  146.7846  138.3405  155.2121 H   0  0  0  0  0  0  0  0  0  0  0  0
  149.5047  138.9484  152.6950 H   0  0  0  0  0  0  0  0  0  0  0  0
  1  2  1  0  0  0  0
  1 25  1  0  0  0  0
  1 26  1  0  0  0  0
  2  8  1  0  0  0  0
  2  3  2  0  0  0  0
  3  4  1  0  0  0  0
  4  5  1  0  0  0  0
  4  6  2  0  0  0  0
  6  7  1  0  0  0  0
  7 11  1  0  0  0  0
  7  8  2  0  0  0  0
  8  9  1  0  0  0  0
  9 10  2  0  0  0  0
 10 11  1  0  0  0  0
 10 27  1  0  0  0  0
 11 12  1  0  0  0  0
 12 21  1  0  0  0  0
 12 19  1  0  0  0  0
 12 13  1  0  0  0  0
 13 14  1  0  0  0  0
 14 22  1  0  0  0  0
 14 15  1  0  0  0  0
 14 17  1  0  0  0  0
 15 16  1  0  0  0  0
 15 28  1  0  0  0  0
 15 29  1  0  0  0  0
 16 30  1  0  0  0  0
 17 23  1  0  0  0  0
 17 18  1  0  0  0  0
 17 19  1  0  0  0  0
 18 31  1  0  0  0  0
 19 24  1  0  0  0  0
 19 20  1  0  0  0  0
 20 32  1  0  0  0  0
M  END
> <s_m_source_file>
AV-unprocessed.smi

> <i_m_source_file_index>
114

> <i_lp_mmshare_version>
43012

> <i_f3d_flags>
0

> <s_epik_input>
RmMobjEpbmMoW05IMl0pYyhjMTIpbltjSF1uMltDQEBIXTNPW0NASF0oW0NIMl1bT0hdKVtDQEBIXShbT0hdKVtDQEBIXTNbT0hd

> <s_epik_cmdline>
J2VwaWtfcHl0aG9uJywgJy1waCcsICc3LjAnLCAnLXRuJywgJzgnLCAnLW1hJywgJzIwMCcsICctbWV0YWxfYmluZGluZycsICctaW1hZScsICc8aW5maWxlLm1hZT4nLCAnLW9tYWUnLCAnPG91dGZpbGUubWFlPic=

> <r_lp_tautomer_probability>
1

> <r_epik_Ionization_Penalty>
1.13199e-05

> <r_epik_Ionization_Penalty_Charging>
0

> <r_epik_Ionization_Penalty_Neutral>
1.13199e-05

> <r_epik_State_Penalty>
-0

> <r_epik_Charging_Adjusted_Penalty>
0

> <i_epik_Tot_Q>
0

> <i_epik_Tot_abs_Q>
0

> <r_epik_Metal_State_Penalty>
-0

> <b_epik_Metal_Only>
0

> <s_epik_Chemistry_Notes>
This compound contains an acetal/aminal-like group ( X-CH(R)-Y where X, Y are N, S, or O) that may be acid/base labile, releasing an aldehyde.

> <s_lp_Force_Field>
OPLS_2005

> <r_lp_Energy>
32.4154

> <b_lp_Chiralities_Consistent>
1

> <s_lp_Variant>
AV-unprocessed.smi:114-15

> <Gold.Version>
5.8.1

> <Gold.Id.Protein>
6NUR|6NUR_protein|mol2

> <Gold.PLP.Fitness>
39.4081

> <Gold.PLP.PLP>
-28.8429

> <Gold.PLP.part.hbond>
-5.3508

> <Gold.PLP.part.metal>
0.0000

> <Gold.PLP.part.buried>
-2.5455

> <Gold.PLP.part.nonpolar>
-21.7533

> <Gold.PLP.part.repulsive>
0.3447

> <Gold.PLP.ligand.clash>
0.0000

> <Gold.PLP.ligand.torsion>
0.0139

> <Gold.PLP.Chemscore.Hbond>
2.5242

> <Gold.PLP.Chemscore.CHOScore>
1.0000

> <Gold.PLP.Chemscore.Metal>
0.0000

> <Gold.Chemscore.Hbonds>
donor molecule, donor type, donor heavy atom, donor atom, acceptor molecule, acceptor atom, score
      L1  H    16    30       P1 10175  1.00
      L1  H    20    32       P1  7957  1.00
      P1  H  8011  8017       L1    13  0.47
      L1  C    10    27       P1  8028  1.00

> <Gold.PLP.Chemscore.Internal.Correction>
0.0205

> <Gold.Rescore>
     Score         DG    S(hbond)    S(metal)    S(lipo)     H(rot)  DE(clash)    DE(int)     intcor
      3.83      -4.00       1.72        0.00      26.38       4.03       0.13       0.03       ----

> <Gold.Chemscore.Fitness>
3.8295

> <Gold.Chemscore.DG>
-3.9972

> <Gold.Chemscore.ZeroCoef>
-5.4800

> <Gold.Chemscore.Hbond>
1.7190

> <Gold.Chemscore.Metal>
0.0000

> <Gold.Chemscore.Lipo>
26.3832

> <Gold.Chemscore.Internal_Hbond>
0.0000

> <Gold.Chemscore.DEClash>
0.1349

> <Gold.Chemscore.DEInternal>
0.0328

> <Gold.Chemscore.Rot>
4.0277

> <Gold.Chemscore.Internal.Correction>
   9.000000E+99

> <Gold.Chemscore.Hbonds>
donor molecule, donor type, donor heavy atom, donor atom, acceptor molecule, acceptor atom, score
      L1  H    16    30       P1 10175  0.37
      L1  H    20    32       P1  7957  0.94
      P1  H  8011  8017       L1    13  0.30

> <Gold.Chemscore.Hbond.Weighted>
-5.7413

> <Gold.Chemscore.Metal.Weighted>
-0.0000

> <Gold.Chemscore.Lipo.Weighted>
-3.0868

> <Gold.Chemscore.Internal_Hbond.Weighted>
0.0000

> <Gold.Chemscore.DEClash.Weighted>
0.1349

> <Gold.Chemscore.DEInternal.Weighted>
0.0328

> <Gold.Chemscore.Rot.Weighted>
10.3110

> <Gold.Chemscore.Internal.Correction.Weighted>
   9.000000E+99

> <Gold.Protein.RotatedTorsions>
[ 6907 6896 6895 6894 ] final  -54.03 input  -60.11 | X-H torsion
[ 7974 7965 7964 7962 ] final -104.69 input  175.53 | X-H torsion
[ 8008 7997 7996 7995 ] final -168.40 input   59.86 | X-H torsion
[ 10167 10162 10161 10158 ] final -169.44 input  -65.29 | X-H torsion
[ 10718 10713 10712 10709 ] final  -83.50 input   66.30 | X-H torsion
[ 10763 10752 10751 10750 ] final  173.11 input  -60.55 | X-H torsion
[ 11005 11000 10999 10996 ] final   39.71 input  -57.11 | X-H torsion

> <Gold.Protein.ActiveResidues>
 VAL166  LYS551  ARG553  GLY616  TRP617  ASP618  TYR619  PRO620  LYS621  CYS622 
 ASP623  PHE694  ASN695  SER759  ASP760  ASP761  ALA762  ILE779  LEU786  VAL792 
 PHE793  MET794  SER795  GLU796  ALA797  LYS798  CYS799  TRP800  GLU811  SER814 

> <Gold.Protein.RotatedAtoms>
  150.8374  134.7652  159.6903 H   0  0  0  0  0  0  0  0  0  0  0  0  # atno 6907 bound_to 6896
  152.4468  134.5475  159.9867 H   0  0  0  0  0  0  0  0  0  0  0  0  # atno 6908 bound_to 6896
  151.5622  133.3364  159.3009 H   0  0  0  0  0  0  0  0  0  0  0  0  # atno 6909 bound_to 6896
  145.2399  140.9201  143.3156 H   0  0  0  0  0  0  0  0  0  0  0  0  # atno 7974 bound_to 7965
  155.8908  140.1024  157.1419 H   0  0  0  0  0  0  0  0  0  0  0  0  # atno 8008 bound_to 7997
  154.4015  140.1311  156.4378 H   0  0  0  0  0  0  0  0  0  0  0  0  # atno 8009 bound_to 7997
  155.7535  140.3464  155.5164 H   0  0  0  0  0  0  0  0  0  0  0  0  # atno 8010 bound_to 7997
  139.5922  144.1188  152.1648 H   0  0  0  0  0  0  0  0  0  0  0  0  # atno 10167 bound_to 10162
  156.0018  130.4667  150.4266 H   0  0  0  0  0  0  0  0  0  0  0  0  # atno 10718 bound_to 10713
  154.4354  135.2761  155.1884 H   0  0  0  0  0  0  0  0  0  0  0  0  # atno 10763 bound_to 10752
  154.3772  135.6095  153.5775 H   0  0  0  0  0  0  0  0  0  0  0  0  # atno 10764 bound_to 10752
  152.9838  135.5871  154.4673 H   0  0  0  0  0  0  0  0  0  0  0  0  # atno 10765 bound_to 10752
  140.2002  134.3880  155.8100 H   0  0  0  0  0  0  0  0  0  0  0  0  # atno 11005 bound_to 11000
  144.9599  139.3991  143.6361 LP  0  0  0  0  0  0  0  0  0  0  0  0  # atno 17320 bound_to 7965
  146.3331  139.8647  142.8850 LP  0  0  0  0  0  0  0  0  0  0  0  0  # atno 17321 bound_to 7965
  140.0765  144.5736  150.7153 LP  0  0  0  0  0  0  0  0  0  0  0  0  # atno 17342 bound_to 10162
  140.7183  143.2564  151.4363 LP  0  0  0  0  0  0  0  0  0  0  0  0  # atno 17343 bound_to 10162
  157.2318  131.0506  151.2488 LP  0  0  0  0  0  0  0  0  0  0  0  0  # atno 17370 bound_to 10713
  157.3704  130.7178  149.6561 LP  0  0  0  0  0  0  0  0  0  0  0  0  # atno 17371 bound_to 10713
  141.2227  133.7090  156.8244 LP  0  0  0  0  0  0  0  0  0  0  0  0  # atno 17394 bound_to 11000
  140.2063  134.8860  157.3225 LP  0  0  0  0  0  0  0  0  0  0  0  0  # atno 17395 bound_to 11000

$$$$
