AV-unprocessed.smi:1268|AV-procd|sdf|5323|dock2
  -GOLD-   22720 4443D 1   1.00000     0.00000
 Structure written by MMmdl.
 40 41  0  0  0  0  0  0  0  0  2 V2000
  144.8522  137.7572  156.2496 O   0  0  0  0  0  0  0  0  0  0  0  0
  144.3497  138.1954  155.2146 C   0  0  0  0  0  0  0  0  0  0  0  0
  143.2980  137.6267  154.6082 N   0  0  0  0  0  0  0  0  0  0  0  0
  142.6256  136.4124  155.0589 C   0  0  0  0  0  0  0  0  0  0  0  0
  142.6709  135.2922  153.9979 C   0  0  2  0  0  0  0  0  0  0  0  0
  141.9082  134.1986  154.4698 O   0  0  0  0  0  0  0  0  0  0  0  0
  144.1093  134.7774  153.7809 C   0  0  0  0  0  0  0  0  0  0  0  0
  144.1663  133.5787  152.9042 N   0  3  0  0  0  0  0  0  0  0  0  0
  145.5583  133.0987  152.7002 C   0  0  0  0  0  0  0  0  0  0  0  0
  145.5850  131.7808  151.9080 C   0  0  0  0  0  0  0  0  0  0  0  0
  144.8600  131.9323  150.5649 C   0  0  0  0  0  0  0  0  0  0  0  0
  143.4362  132.4529  150.7978 C   0  0  0  0  0  0  0  0  0  0  0  0
  143.4529  133.7583  151.6109 C   0  0  0  0  0  0  0  0  0  0  0  0
  144.7673  139.2853  154.5473 N   0  0  0  0  0  0  0  0  0  0  0  0
  145.8498  140.1471  154.8655 C   0  0  0  0  0  0  0  0  0  0  0  0
  146.5947  140.0461  155.9726 N   0  0  0  0  0  0  0  0  0  0  0  0
  147.5919  141.0233  156.0244 C   0  0  0  0  0  0  0  0  0  0  0  0
  147.5898  141.8679  154.9424 C   0  0  0  0  0  0  0  0  0  0  0  0
  146.3282  141.4666  153.8080 S   0  0  0  0  0  0  0  0  0  0  0  0
  142.9500  138.0525  153.7615 H   0  0  0  0  0  0  0  0  0  0  0  0
  143.1656  136.0912  155.9500 H   0  0  0  0  0  0  0  0  0  0  0  0
  141.6048  136.6198  155.3865 H   0  0  0  0  0  0  0  0  0  0  0  0
  142.2473  135.6557  153.0618 H   0  0  0  0  0  0  0  0  0  0  0  0
  142.4536  133.4252  154.4604 H   0  0  0  0  0  0  0  0  0  0  0  0
  144.7386  135.5605  153.3551 H   0  0  0  0  0  0  0  0  0  0  0  0
  144.5401  134.5418  154.7557 H   0  0  0  0  0  0  0  0  0  0  0  0
  146.1352  133.8641  152.1786 H   0  0  0  0  0  0  0  0  0  0  0  0
  146.0393  132.9414  153.6665 H   0  0  0  0  0  0  0  0  0  0  0  0
  146.6155  131.4664  151.7414 H   0  0  0  0  0  0  0  0  0  0  0  0
  145.1116  130.9913  152.4935 H   0  0  0  0  0  0  0  0  0  0  0  0
  145.4072  132.6262  149.9254 H   0  0  0  0  0  0  0  0  0  0  0  0
  144.8329  130.9772  150.0397 H   0  0  0  0  0  0  0  0  0  0  0  0
  142.9386  132.6151  149.8413 H   0  0  0  0  0  0  0  0  0  0  0  0
  142.8517  131.6987  151.3267 H   0  0  0  0  0  0  0  0  0  0  0  0
  142.4256  134.0766  151.7832 H   0  0  0  0  0  0  0  0  0  0  0  0
  143.9351  134.5501  151.0352 H   0  0  0  0  0  0  0  0  0  0  0  0
  144.2597  139.5211  153.7076 H   0  0  0  0  0  0  0  0  0  0  0  0
  148.2624  141.0446  156.8710 H   0  0  0  0  0  0  0  0  0  0  0  0
  148.2515  142.6978  154.7448 H   0  0  0  0  0  0  0  0  0  0  0  0
  143.6881  132.8442  153.4072 H   0  0  0  0  0  0  0  0  0  0  0  0
  1  2  2  0  0  0  0
  2  3  1  0  0  0  0
  2 14  1  0  0  0  0
  3  4  1  0  0  0  0
  3 20  1  0  0  0  0
  4  5  1  0  0  0  0
  4 21  1  0  0  0  0
  4 22  1  0  0  0  0
  5  6  1  0  0  0  0
  5  7  1  0  0  0  0
  5 23  1  0  0  0  0
  6 24  1  0  0  0  0
  7  8  1  0  0  0  0
  7 25  1  0  0  0  0
  7 26  1  0  0  0  0
  8 13  1  0  0  0  0
  8  9  1  0  0  0  0
  8 40  1  0  0  0  0
  9 10  1  0  0  0  0
  9 27  1  0  0  0  0
  9 28  1  0  0  0  0
 10 11  1  0  0  0  0
 10 29  1  0  0  0  0
 10 30  1  0  0  0  0
 11 12  1  0  0  0  0
 11 31  1  0  0  0  0
 11 32  1  0  0  0  0
 12 13  1  0  0  0  0
 12 33  1  0  0  0  0
 12 34  1  0  0  0  0
 13 35  1  0  0  0  0
 13 36  1  0  0  0  0
 14 15  1  0  0  0  0
 14 37  1  0  0  0  0
 15 19  1  0  0  0  0
 15 16  2  0  0  0  0
 16 17  1  0  0  0  0
 17 18  2  0  0  0  0
 17 38  1  0  0  0  0
 18 19  1  0  0  0  0
 18 39  1  0  0  0  0
M  CHG  1   8   1
M  END
> <s_m_source_file>
AV-unprocessed.smi

> <i_m_source_file_index>
1268

> <i_lp_mmshare_version>
43012

> <i_f3d_flags>
0

> <s_epik_input>
czFbY0hdW2NIXW5jMVtOSF1DKD1PKVtOSF1bQ0gyXVtDQEhdKFtPSF0pW0NIMl1OMltDSDJdW0NIMl1bQ0gyXVtDSDJdW0NIMl0y

> <s_epik_cmdline>
J2VwaWtfcHl0aG9uJywgJy1waCcsICc3LjAnLCAnLXRuJywgJzgnLCAnLW1hJywgJzIwMCcsICctbWV0YWxfYmluZGluZycsICctaW1hZScsICc8aW5maWxlLm1hZT4nLCAnLW9tYWUnLCAnPG91dGZpbGUubWFlPic=

> <r_lp_tautomer_probability>
0.999

> <r_epik_Ionization_Penalty>
0.00539631

> <r_epik_Ionization_Penalty_Charging>
0.00525788

> <r_epik_Ionization_Penalty_Neutral>
0.000138432

> <r_epik_State_Penalty>
0.0038355

> <r_epik_Charging_Adjusted_Penalty>
0.00909338

> <i_epik_Tot_Q>
1

> <i_epik_Tot_abs_Q>
1

> <r_epik_Metal_State_Penalty>
0.0500806

> <b_epik_Metal_Only>
0

> <s_lp_Force_Field>
OPLS_2005

> <r_lp_Energy>
16.7111

> <b_lp_Chiralities_Consistent>
1

> <s_lp_Variant>
AV-unprocessed.smi:1268-1

> <Gold.Version>
5.8.1

> <Gold.Id.Protein>
6NUR|6NUR_protein|mol2

> <Gold.PLP.Fitness>
44.7127

> <Gold.PLP.PLP>
-26.8518

> <Gold.PLP.part.hbond>
-4.0000

> <Gold.PLP.part.metal>
0.0000

> <Gold.PLP.part.buried>
-5.2797

> <Gold.PLP.part.nonpolar>
-18.4692

> <Gold.PLP.part.repulsive>
0.0254

> <Gold.PLP.ligand.clash>
0.0000

> <Gold.PLP.ligand.torsion>
0.0647

> <Gold.PLP.Chemscore.Hbond>
5.0000

> <Gold.PLP.Chemscore.CHOScore>
0.9877

> <Gold.PLP.Chemscore.Metal>
0.0000

> <Gold.Chemscore.Hbonds>
donor molecule, donor type, donor heavy atom, donor atom, acceptor molecule, acceptor atom, score
      L1  H     6    24       P1 10957  0.98
      L1  H     8    40       P1 10957  2.00
      L1  H    14    37       P1 10175  1.00
      P1  H 11000 11005       L1     6  0.96
      L1  C    18    39       P1  8028  1.00

> <Gold.PLP.Chemscore.Internal.Correction>
0.0274

> <Gold.Rescore>
     Score         DG    S(hbond)    S(metal)    S(lipo)     H(rot)  DE(clash)    DE(int)     intcor
     16.34     -17.70       3.32        0.00      65.07       2.54       0.02       1.34       ----

> <Gold.Chemscore.Fitness>
16.3418

> <Gold.Chemscore.DG>
-17.6952

> <Gold.Chemscore.ZeroCoef>
-5.4800

> <Gold.Chemscore.Hbond>
3.3235

> <Gold.Chemscore.Metal>
0.0000

> <Gold.Chemscore.Lipo>
65.0682

> <Gold.Chemscore.Internal_Hbond>
0.0000

> <Gold.Chemscore.DEClash>
0.0174

> <Gold.Chemscore.DEInternal>
1.3361

> <Gold.Chemscore.Rot>
2.5383

> <Gold.Chemscore.Internal.Correction>
   9.000000E+99

> <Gold.Chemscore.Hbonds>
donor molecule, donor type, donor heavy atom, donor atom, acceptor molecule, acceptor atom, score
      L1  H     6    24       P1 10957  0.93
      L1  H     8    40       P1 10957  0.62
      L1  H    14    37       P1 10175  0.99
      P1  H 11000 11005       L1     6  0.69

> <Gold.Chemscore.Hbond.Weighted>
-11.1003

> <Gold.Chemscore.Metal.Weighted>
-0.0000

> <Gold.Chemscore.Lipo.Weighted>
-7.6130

> <Gold.Chemscore.Internal_Hbond.Weighted>
0.0000

> <Gold.Chemscore.DEClash.Weighted>
0.0174

> <Gold.Chemscore.DEInternal.Weighted>
1.3361

> <Gold.Chemscore.Rot.Weighted>
6.4981

> <Gold.Chemscore.Internal.Correction.Weighted>
   9.000000E+99

> <Gold.Protein.RotatedTorsions>
[ 6907 6896 6895 6894 ] final   22.51 input  -60.11 | X-H torsion
[ 7974 7965 7964 7962 ] final  -87.25 input  175.53 | X-H torsion
[ 8008 7997 7996 7995 ] final  162.76 input   59.86 | X-H torsion
[ 10167 10162 10161 10158 ] final -162.34 input  -65.29 | X-H torsion
[ 10718 10713 10712 10709 ] final -135.57 input   66.30 | X-H torsion
[ 10763 10752 10751 10750 ] final  109.89 input  -60.55 | X-H torsion
[ 11005 11000 10999 10996 ] final    5.98 input  -57.11 | X-H torsion

> <Gold.Protein.ActiveResidues>
 VAL166  LYS551  ARG553  GLY616  TRP617  ASP618  TYR619  PRO620  LYS621  CYS622 
 ASP623  PHE694  ASN695  SER759  ASP760  ASP761  ALA762  ILE779  LEU786  VAL792 
 PHE793  MET794  SER795  GLU796  ALA797  LYS798  CYS799  TRP800  GLU811  SER814 

> <Gold.Protein.RotatedAtoms>
  151.9282  135.0268  160.0526 H   0  0  0  0  0  0  0  0  0  0  0  0  # atno 6907 bound_to 6896
  152.2141  133.4929  159.5135 H   0  0  0  0  0  0  0  0  0  0  0  0  # atno 6908 bound_to 6896
  150.6983  134.1345  159.4124 H   0  0  0  0  0  0  0  0  0  0  0  0  # atno 6909 bound_to 6896
  145.4690  140.9560  143.1927 H   0  0  0  0  0  0  0  0  0  0  0  0  # atno 7974 bound_to 7965
  156.2007  140.1741  156.7905 H   0  0  0  0  0  0  0  0  0  0  0  0  # atno 8008 bound_to 7997
  154.5588  140.0703  156.8817 H   0  0  0  0  0  0  0  0  0  0  0  0  # atno 8009 bound_to 7997
  155.2887  140.3354  155.4256 H   0  0  0  0  0  0  0  0  0  0  0  0  # atno 8010 bound_to 7997
  139.6399  144.0279  152.2083 H   0  0  0  0  0  0  0  0  0  0  0  0  # atno 10167 bound_to 10162
  156.2676  130.7246  151.1202 H   0  0  0  0  0  0  0  0  0  0  0  0  # atno 10718 bound_to 10713
  153.4411  135.3766  155.2229 H   0  0  0  0  0  0  0  0  0  0  0  0  # atno 10763 bound_to 10752
  154.8754  135.3863  154.4151 H   0  0  0  0  0  0  0  0  0  0  0  0  # atno 10764 bound_to 10752
  153.4697  135.7087  153.6064 H   0  0  0  0  0  0  0  0  0  0  0  0  # atno 10765 bound_to 10752
  140.5646  134.0160  155.7984 H   0  0  0  0  0  0  0  0  0  0  0  0  # atno 11005 bound_to 11000
  144.7956  139.6240  143.7094 LP  0  0  0  0  0  0  0  0  0  0  0  0  # atno 17320 bound_to 7965
  146.2407  139.5996  142.9493 LP  0  0  0  0  0  0  0  0  0  0  0  0  # atno 17321 bound_to 7965
  139.9966  144.6323  150.7767 LP  0  0  0  0  0  0  0  0  0  0  0  0  # atno 17342 bound_to 10162
  140.7485  143.2923  151.3296 LP  0  0  0  0  0  0  0  0  0  0  0  0  # atno 17343 bound_to 10162
  157.7273  131.0640  150.5873 LP  0  0  0  0  0  0  0  0  0  0  0  0  # atno 17370 bound_to 10713
  156.5966  130.4343  149.5914 LP  0  0  0  0  0  0  0  0  0  0  0  0  # atno 17371 bound_to 10713
  141.1094  133.9641  157.2938 LP  0  0  0  0  0  0  0  0  0  0  0  0  # atno 17394 bound_to 11000
  139.9391  135.0193  156.8652 LP  0  0  0  0  0  0  0  0  0  0  0  0  # atno 17395 bound_to 11000

$$$$
