AV-unprocessed.smi:1898|AV-procd|sdf|7702|dock8
  -GOLD-   22720 9443D 1   1.00000     0.00000
 Structure written by MMmdl.
 47 48  0  0  0  0  0  0  0  0  2 V2000
  140.5614  141.2653  154.3791 C   0  0  0  0  0  0  0  0  0  0  0  0
  141.8010  142.0242  154.3099 N   0  0  0  0  0  0  0  0  0  0  0  0
  142.5655  142.3164  155.3715 C   0  0  0  0  0  0  0  0  0  0  0  0
  142.2851  141.9720  156.5201 O   0  0  0  0  0  0  0  0  0  0  0  0
  143.8283  143.1378  155.0915 C   0  0  0  0  0  0  0  0  0  0  0  0
  144.9488  142.3191  154.5609 N   0  3  2  0  0  0  0  0  0  0  0  0
  145.5254  141.4143  155.5875 C   0  0  0  0  0  0  0  0  0  0  0  0
  146.5790  140.4741  154.9737 C   0  0  0  0  0  0  0  0  0  0  0  0
  147.6896  141.2473  154.2418 C   0  0  2  0  0  0  0  0  0  0  0  0
  148.5581  141.9270  155.2027 N   0  0  0  0  0  0  0  0  0  0  0  0
  149.3720  141.3177  156.0769 C   0  0  0  0  0  0  0  0  0  0  0  0
  149.4965  140.0956  156.1484 O   0  0  0  0  0  0  0  0  0  0  0  0
  150.0325  142.2133  156.8298 N   0  0  0  0  0  0  0  0  0  0  0  0
  150.9676  141.9756  157.8749 C   0  0  0  0  0  0  0  0  0  0  0  0
  151.3881  140.6829  158.2724 C   0  0  0  0  0  0  0  0  0  0  0  0
  152.3012  140.5588  159.3357 C   0  0  0  0  0  0  0  0  0  0  0  0
  152.7555  141.7298  159.9693 C   0  0  0  0  0  0  0  0  0  0  0  0
  152.3537  142.9665  159.6110 N   0  0  0  0  0  0  0  0  0  0  0  0
  151.4728  143.0890  158.5864 C   0  0  0  0  0  0  0  0  0  0  0  0
  151.0573  144.3566  158.2248 O   0  0  0  0  0  0  0  0  0  0  0  0
  151.4847  145.4621  159.0132 C   0  0  0  0  0  0  0  0  0  0  0  0
  147.0620  142.2328  153.2360 C   0  0  0  0  0  0  0  0  0  0  0  0
  146.0018  143.1319  153.8952 C   0  0  0  0  0  0  0  0  0  0  0  0
  140.1342  141.1582  153.3818 H   0  0  0  0  0  0  0  0  0  0  0  0
  139.8300  141.7725  155.0098 H   0  0  0  0  0  0  0  0  0  0  0  0
  140.7374  140.2676  154.7834 H   0  0  0  0  0  0  0  0  0  0  0  0
  142.0924  142.3483  153.3988 H   0  0  0  0  0  0  0  0  0  0  0  0
  143.6085  143.9600  154.4084 H   0  0  0  0  0  0  0  0  0  0  0  0
  144.1205  143.5891  156.0406 H   0  0  0  0  0  0  0  0  0  0  0  0
  145.9643  142.0065  156.3920 H   0  0  0  0  0  0  0  0  0  0  0  0
  144.7329  140.8133  156.0349 H   0  0  0  0  0  0  0  0  0  0  0  0
  147.0082  139.8352  155.7466 H   0  0  0  0  0  0  0  0  0  0  0  0
  146.0867  139.8041  154.2672 H   0  0  0  0  0  0  0  0  0  0  0  0
  148.2977  140.5251  153.6936 H   0  0  0  0  0  0  0  0  0  0  0  0
  148.5209  142.9356  155.2185 H   0  0  0  0  0  0  0  0  0  0  0  0
  149.8943  143.1847  156.5924 H   0  0  0  0  0  0  0  0  0  0  0  0
  151.0189  139.7876  157.7970 H   0  0  0  0  0  0  0  0  0  0  0  0
  152.6402  139.5867  159.6622 H   0  0  0  0  0  0  0  0  0  0  0  0
  153.4545  141.6718  160.7902 H   0  0  0  0  0  0  0  0  0  0  0  0
  151.0745  146.3817  158.5963 H   0  0  0  0  0  0  0  0  0  0  0  0
  152.5715  145.5561  159.0134 H   0  0  0  0  0  0  0  0  0  0  0  0
  151.1315  145.3794  160.0422 H   0  0  0  0  0  0  0  0  0  0  0  0
  147.8314  142.8452  152.7646 H   0  0  0  0  0  0  0  0  0  0  0  0
  146.5943  141.6675  152.4287 H   0  0  0  0  0  0  0  0  0  0  0  0
  145.5567  143.7724  153.1334 H   0  0  0  0  0  0  0  0  0  0  0  0
  146.4699  143.7942  154.6251 H   0  0  0  0  0  0  0  0  0  0  0  0
  144.5454  141.7230  153.8516 H   0  0  0  0  0  0  0  0  0  0  0  0
  1  2  1  0  0  0  0
  1 24  1  0  0  0  0
  1 25  1  0  0  0  0
  1 26  1  0  0  0  0
  2  3  1  0  0  0  0
  2 27  1  0  0  0  0
  3  4  2  0  0  0  0
  3  5  1  0  0  0  0
  5  6  1  0  0  0  0
  5 28  1  0  0  0  0
  5 29  1  0  0  0  0
  6 23  1  0  0  0  0
  6  7  1  0  0  0  0
  6 47  1  0  0  0  0
  7  8  1  0  0  0  0
  7 30  1  0  0  0  0
  7 31  1  0  0  0  0
  8  9  1  0  0  0  0
  8 32  1  0  0  0  0
  8 33  1  0  0  0  0
  9 10  1  0  0  0  0
  9 22  1  0  0  0  0
  9 34  1  0  0  0  0
 10 11  1  0  0  0  0
 10 35  1  0  0  0  0
 11 12  2  0  0  0  0
 11 13  1  0  0  0  0
 13 14  1  0  0  0  0
 13 36  1  0  0  0  0
 14 19  1  0  0  0  0
 14 15  2  0  0  0  0
 15 16  1  0  0  0  0
 15 37  1  0  0  0  0
 16 17  2  0  0  0  0
 16 38  1  0  0  0  0
 17 18  1  0  0  0  0
 17 39  1  0  0  0  0
 18 19  2  0  0  0  0
 19 20  1  0  0  0  0
 20 21  1  0  0  0  0
 21 40  1  0  0  0  0
 21 41  1  0  0  0  0
 21 42  1  0  0  0  0
 22 23  1  0  0  0  0
 22 43  1  0  0  0  0
 22 44  1  0  0  0  0
 23 45  1  0  0  0  0
 23 46  1  0  0  0  0
M  CHG  1   6   1
M  END
> <s_m_source_file>
AV-unprocessed.smi

> <i_m_source_file_index>
1898

> <i_lp_mmshare_version>
43012

> <i_f3d_flags>
0

> <s_epik_input>
W0NIM11bTkhdQyg9TylbQ0gyXU4xW0NIMl1bQ0gyXVtDSF0oW0NIMl1bQ0gyXTEpW05IXUMoPU8pW05IXWMyW2NIXVtjSF1bY0hdbmMyT1tDSDNd

> <s_epik_cmdline>
J2VwaWtfcHl0aG9uJywgJy1waCcsICc3LjAnLCAnLXRuJywgJzgnLCAnLW1hJywgJzIwMCcsICctbWV0YWxfYmluZGluZycsICctaW1hZScsICc8aW5maWxlLm1hZT4nLCAnLW9tYWUnLCAnPG91dGZpbGUubWFlPic=

> <r_lp_tautomer_probability>
1

> <r_epik_Ionization_Penalty>
0.838943

> <r_epik_Ionization_Penalty_Charging>
0.838844

> <r_epik_Ionization_Penalty_Neutral>
9.87395e-05

> <r_epik_State_Penalty>
0.8734

> <r_epik_Charging_Adjusted_Penalty>
1.71224

> <i_epik_Tot_Q>
1

> <i_epik_Tot_abs_Q>
1

> <r_epik_Metal_State_Penalty>
0.877926

> <b_epik_Metal_Only>
0

> <s_lp_Force_Field>
OPLS_2005

> <r_lp_Energy>
16.0451

> <b_lp_Chiralities_Consistent>
1

> <s_lp_Variant>
AV-unprocessed.smi:1898-3

> <Gold.Version>
5.8.1

> <Gold.Id.Protein>
6NUR|6NUR_protein|mol2

> <Gold.PLP.Fitness>
49.7862

> <Gold.PLP.PLP>
-35.6868

> <Gold.PLP.part.hbond>
-4.9900

> <Gold.PLP.part.metal>
0.0000

> <Gold.PLP.part.buried>
-8.4056

> <Gold.PLP.part.nonpolar>
-24.2423

> <Gold.PLP.part.repulsive>
0.4165

> <Gold.PLP.ligand.clash>
0.0000

> <Gold.PLP.ligand.torsion>
0.4665

> <Gold.PLP.Chemscore.Hbond>
5.0000

> <Gold.PLP.Chemscore.CHOScore>
0.0000

> <Gold.PLP.Chemscore.Metal>
0.0000

> <Gold.Chemscore.Hbonds>
donor molecule, donor type, donor heavy atom, donor atom, acceptor molecule, acceptor atom, score
      L1  H     2    27       P1 10174  0.60
      L1  H     6    47       P1 10175  1.20
      L1  H    10    35       P1  8028  1.00
      L1  H    13    36       P1  8028  0.93

> <Gold.PLP.Chemscore.Internal.Correction>
0.0324

> <Gold.Rescore>
     Score         DG    S(hbond)    S(metal)    S(lipo)     H(rot)  DE(clash)    DE(int)     intcor
     16.73     -20.00       3.27        0.00      74.52       2.00       1.30       1.97       ----

> <Gold.Chemscore.Fitness>
16.7259

> <Gold.Chemscore.DG>
-19.9989

> <Gold.Chemscore.ZeroCoef>
-5.4800

> <Gold.Chemscore.Hbond>
3.2668

> <Gold.Chemscore.Metal>
0.0000

> <Gold.Chemscore.Lipo>
74.5171

> <Gold.Chemscore.Internal_Hbond>
0.0000

> <Gold.Chemscore.DEClash>
1.2982

> <Gold.Chemscore.DEInternal>
1.9747

> <Gold.Chemscore.Rot>
1.9963

> <Gold.Chemscore.Internal.Correction>
   9.000000E+99

> <Gold.Chemscore.Hbonds>
donor molecule, donor type, donor heavy atom, donor atom, acceptor molecule, acceptor atom, score
      L1  H     2    27       P1 10174  0.53
      L1  H     6    47       P1 10175  0.04
      L1  H    10    35       P1  8028  1.00
      L1  H    13    36       P1  8028  0.86

> <Gold.Chemscore.Hbond.Weighted>
-10.9110

> <Gold.Chemscore.Metal.Weighted>
-0.0000

> <Gold.Chemscore.Lipo.Weighted>
-8.7185

> <Gold.Chemscore.Internal_Hbond.Weighted>
0.0000

> <Gold.Chemscore.DEClash.Weighted>
1.2982

> <Gold.Chemscore.DEInternal.Weighted>
1.9747

> <Gold.Chemscore.Rot.Weighted>
5.1105

> <Gold.Chemscore.Internal.Correction.Weighted>
   9.000000E+99

> <Gold.Protein.RotatedTorsions>
[ 6907 6896 6895 6894 ] final  127.14 input  -60.11 | X-H torsion
[ 7974 7965 7964 7962 ] final  147.16 input  175.53 | X-H torsion
[ 8008 7997 7996 7995 ] final  -43.26 input   59.86 | X-H torsion
[ 10167 10162 10161 10158 ] final  111.77 input  -65.29 | X-H torsion
[ 10718 10713 10712 10709 ] final -155.27 input   66.30 | X-H torsion
[ 10763 10752 10751 10750 ] final   30.40 input  -60.55 | X-H torsion
[ 11005 11000 10999 10996 ] final -112.98 input  -57.11 | X-H torsion

> <Gold.Protein.ActiveResidues>
 VAL166  LYS551  ARG553  GLY616  TRP617  ASP618  TYR619  PRO620  LYS621  CYS622 
 ASP623  PHE694  ASN695  SER759  ASP760  ASP761  ALA762  ILE779  LEU786  VAL792 
 PHE793  MET794  SER795  GLU796  ALA797  LYS798  CYS799  TRP800  GLU811  SER814 

> <Gold.Protein.RotatedAtoms>
  152.3840  133.6585  159.6183 H   0  0  0  0  0  0  0  0  0  0  0  0  # atno 6907 bound_to 6896
  150.7763  133.9066  159.3366 H   0  0  0  0  0  0  0  0  0  0  0  0  # atno 6908 bound_to 6896
  151.6867  135.0954  160.0277 H   0  0  0  0  0  0  0  0  0  0  0  0  # atno 6909 bound_to 6896
  144.8614  139.5994  143.5929 H   0  0  0  0  0  0  0  0  0  0  0  0  # atno 7974 bound_to 7965
  154.3997  140.1452  156.3490 H   0  0  0  0  0  0  0  0  0  0  0  0  # atno 8008 bound_to 7997
  155.8287  140.3466  155.5537 H   0  0  0  0  0  0  0  0  0  0  0  0  # atno 8009 bound_to 7997
  155.8211  140.0898  157.1838 H   0  0  0  0  0  0  0  0  0  0  0  0  # atno 8010 bound_to 7997
  139.6586  144.7129  151.1909 H   0  0  0  0  0  0  0  0  0  0  0  0  # atno 10167 bound_to 10162
  156.5105  130.8433  151.2645 H   0  0  0  0  0  0  0  0  0  0  0  0  # atno 10718 bound_to 10713
  153.0374  135.6465  154.1038 H   0  0  0  0  0  0  0  0  0  0  0  0  # atno 10763 bound_to 10752
  154.0751  135.2877  155.3302 H   0  0  0  0  0  0  0  0  0  0  0  0  # atno 10764 bound_to 10752
  154.6568  135.5406  153.8033 H   0  0  0  0  0  0  0  0  0  0  0  0  # atno 10765 bound_to 10752
  141.0642  133.9485  157.2609 H   0  0  0  0  0  0  0  0  0  0  0  0  # atno 11005 bound_to 11000
  146.2863  139.7013  142.9193 LP  0  0  0  0  0  0  0  0  0  0  0  0  # atno 17320 bound_to 7965
  145.4306  141.0415  143.2913 LP  0  0  0  0  0  0  0  0  0  0  0  0  # atno 17321 bound_to 7965
  140.7570  143.6031  150.8679 LP  0  0  0  0  0  0  0  0  0  0  0  0  # atno 17342 bound_to 10162
  139.9687  143.6082  152.2980 LP  0  0  0  0  0  0  0  0  0  0  0  0  # atno 17343 bound_to 10162
  157.7451  130.9951  150.2731 LP  0  0  0  0  0  0  0  0  0  0  0  0  # atno 17370 bound_to 10713
  156.3244  130.3791  149.7546 LP  0  0  0  0  0  0  0  0  0  0  0  0  # atno 17371 bound_to 10713
  139.9461  135.0184  156.8856 LP  0  0  0  0  0  0  0  0  0  0  0  0  # atno 17394 bound_to 11000
  140.5806  134.0355  155.7463 LP  0  0  0  0  0  0  0  0  0  0  0  0  # atno 17395 bound_to 11000

$$$$
