AV-unprocessed.smi:1644|AV-procd|sdf|6593|dock7
  -GOLD-   22720 7293D 1   1.00000     0.00000
 Structure written by MMmdl.
 48 50  0  0  0  0  0  0  0  0  2 V2000
  149.5246  137.7209  157.7086 C   0  0  0  0  0  0  0  0  0  0  0  0
  151.0538  137.6576  157.6278 C   0  0  0  0  0  0  0  0  0  0  0  0
  151.5494  137.0185  156.3202 C   0  0  0  0  0  0  0  0  0  0  0  0
  151.3879  137.9395  155.0919 C   0  0  1  0  0  0  0  0  0  0  0  0
  150.0458  137.8724  154.5502 N   0  5  0  0  0  0  0  0  0  0  0  0
  149.5026  139.1113  154.5804 C   0  0  0  0  0  0  0  0  0  0  0  0
  148.3755  139.4285  154.2022 O   0  0  0  0  0  0  0  0  0  0  0  0
  150.3632  140.0039  155.1046 N   0  0  0  0  0  0  0  0  0  0  0  0
  150.0750  141.4256  155.3235 C   0  0  0  0  0  0  0  0  0  0  0  0
  150.2738  141.8221  156.8010 C   0  0  2  0  0  0  0  0  0  0  0  0
  149.1111  142.4914  157.2496 O   0  0  0  0  0  0  0  0  0  0  0  0
  151.4790  142.7636  156.9868 C   0  0  0  0  0  0  0  0  0  0  0  0
  151.4705  143.4206  158.2817 N   0  0  0  0  0  0  0  0  0  0  0  0
  150.8180  144.5525  158.6076 C   0  0  0  0  0  0  0  0  0  0  0  0
  150.9475  144.9929  159.8557 N   0  0  0  0  0  0  0  0  0  0  0  0
  151.7850  144.0358  160.4023 C   0  0  0  0  0  0  0  0  0  0  0  0
  152.3162  143.9206  161.7055 C   0  0  0  0  0  0  0  0  0  0  0  0
  153.1651  142.8446  162.0500 C   0  0  0  0  0  0  0  0  0  0  0  0
  153.7154  142.7620  163.4628 C   0  0  0  0  0  0  0  0  0  0  0  0
  153.4923  141.8603  161.0830 C   0  0  0  0  0  0  0  0  0  0  0  0
  154.3997  140.6935  161.4304 C   0  0  0  0  0  0  0  0  0  0  0  0
  152.9717  141.9613  159.7758 C   0  0  0  0  0  0  0  0  0  0  0  0
  152.1289  143.0370  159.4449 C   0  0  0  0  0  0  0  0  0  0  0  0
  151.5057  139.4054  155.4567 C   0  0  0  0  0  0  0  0  0  0  0  0
  152.4902  139.9175  155.9910 O   0  0  0  0  0  0  0  0  0  0  0  0
  149.2036  138.1721  158.6476 H   0  0  0  0  0  0  0  0  0  0  0  0
  149.0866  136.7240  157.6516 H   0  0  0  0  0  0  0  0  0  0  0  0
  149.1117  138.3168  156.8944 H   0  0  0  0  0  0  0  0  0  0  0  0
  151.4609  138.6649  157.7192 H   0  0  0  0  0  0  0  0  0  0  0  0
  151.4325  137.0940  158.4812 H   0  0  0  0  0  0  0  0  0  0  0  0
  152.5930  136.7175  156.4303 H   0  0  0  0  0  0  0  0  0  0  0  0
  150.9878  136.0978  156.1550 H   0  0  0  0  0  0  0  0  0  0  0  0
  152.1511  137.7091  154.3475 H   0  0  0  0  0  0  0  0  0  0  0  0
  150.7525  142.0062  154.6951 H   0  0  0  0  0  0  0  0  0  0  0  0
  149.0740  141.6879  154.9763 H   0  0  0  0  0  0  0  0  0  0  0  0
  150.4260  140.9316  157.4132 H   0  0  0  0  0  0  0  0  0  0  0  0
  148.9074  143.1798  156.6338 H   0  0  0  0  0  0  0  0  0  0  0  0
  152.4101  142.2017  156.9017 H   0  0  0  0  0  0  0  0  0  0  0  0
  151.5013  143.5230  156.2041 H   0  0  0  0  0  0  0  0  0  0  0  0
  150.2153  145.0842  157.8858 H   0  0  0  0  0  0  0  0  0  0  0  0
  152.0652  144.6701  162.4415 H   0  0  0  0  0  0  0  0  0  0  0  0
  153.3302  141.8773  163.9699 H   0  0  0  0  0  0  0  0  0  0  0  0
  153.4340  143.6359  164.0505 H   0  0  0  0  0  0  0  0  0  0  0  0
  154.8040  142.7081  163.4489 H   0  0  0  0  0  0  0  0  0  0  0  0
  154.4959  140.0017  160.5932 H   0  0  0  0  0  0  0  0  0  0  0  0
  154.0009  140.1369  162.2789 H   0  0  0  0  0  0  0  0  0  0  0  0
  155.3972  141.0504  161.6873 H   0  0  0  0  0  0  0  0  0  0  0  0
  153.2179  141.2234  159.0265 H   0  0  0  0  0  0  0  0  0  0  0  0
  1  2  1  0  0  0  0
  1 26  1  0  0  0  0
  1 27  1  0  0  0  0
  1 28  1  0  0  0  0
  2  3  1  0  0  0  0
  2 29  1  0  0  0  0
  2 30  1  0  0  0  0
  3  4  1  0  0  0  0
  3 31  1  0  0  0  0
  3 32  1  0  0  0  0
  4 24  1  0  0  0  0
  4  5  1  0  0  0  0
  4 33  1  0  0  0  0
  5  6  1  0  0  0  0
  6  7  2  0  0  0  0
  6  8  1  0  0  0  0
  8  9  1  0  0  0  0
  8 24  1  0  0  0  0
  9 10  1  0  0  0  0
  9 34  1  0  0  0  0
  9 35  1  0  0  0  0
 10 11  1  0  0  0  0
 10 12  1  0  0  0  0
 10 36  1  0  0  0  0
 11 37  1  0  0  0  0
 12 13  1  0  0  0  0
 12 38  1  0  0  0  0
 12 39  1  0  0  0  0
 13 23  1  0  0  0  0
 13 14  1  0  0  0  0
 14 15  2  0  0  0  0
 14 40  1  0  0  0  0
 15 16  1  0  0  0  0
 16 23  2  0  0  0  0
 16 17  1  0  0  0  0
 17 18  2  0  0  0  0
 17 41  1  0  0  0  0
 18 19  1  0  0  0  0
 18 20  1  0  0  0  0
 19 42  1  0  0  0  0
 19 43  1  0  0  0  0
 19 44  1  0  0  0  0
 20 21  1  0  0  0  0
 20 22  2  0  0  0  0
 21 45  1  0  0  0  0
 21 46  1  0  0  0  0
 21 47  1  0  0  0  0
 22 23  1  0  0  0  0
 22 48  1  0  0  0  0
 24 25  2  0  0  0  0
M  CHG  1   5  -1
M  END
> <s_m_source_file>
AV-unprocessed.smi

> <i_m_source_file_index>
1644

> <i_lp_mmshare_version>
43012

> <i_f3d_flags>
0

> <s_epik_input>
W0NIM11bQ0gyXVtDSDJdW0NAQEhdMVtOSF1DKD1PKU4oQzE9TylbQ0gyXVtDQEhdKFtPSF0pW0NIMl1uKFtjSF1uMiljKGMyMylbY0hdYyhbQ0gzXSljKFtjSF0zKVtDSDNd

> <s_epik_cmdline>
J2VwaWtfcHl0aG9uJywgJy1waCcsICc3LjAnLCAnLXRuJywgJzgnLCAnLW1hJywgJzIwMCcsICctbWV0YWxfYmluZGluZycsICctaW1hZScsICc8aW5maWxlLm1hZT4nLCAnLW9tYWUnLCAnPG91dGZpbGUubWFlPic=

> <r_lp_tautomer_probability>
1

> <r_epik_Ionization_Penalty>
5.95212

> <r_epik_Ionization_Penalty_Charging>
5.84419

> <r_epik_Ionization_Penalty_Neutral>
0.107924

> <r_epik_State_Penalty>
5.94088

> <r_epik_Charging_Adjusted_Penalty>
11.7851

> <i_epik_Tot_Q>
-1

> <i_epik_Tot_abs_Q>
1

> <r_epik_Metal_State_Penalty>
1.99095

> <b_epik_Metal_Only>
1

> <s_lp_Force_Field>
OPLS_2005

> <r_lp_Energy>
18.6255

> <b_lp_Chiralities_Consistent>
1

> <s_lp_Variant>
AV-unprocessed.smi:1644-10

> <Gold.Version>
5.8.1

> <Gold.Id.Protein>
6NUR|6NUR_protein|mol2

> <Gold.PLP.Fitness>
61.6575

> <Gold.PLP.PLP>
-55.6891

> <Gold.PLP.part.hbond>
-2.0000

> <Gold.PLP.part.metal>
0.0000

> <Gold.PLP.part.buried>
-6.7297

> <Gold.PLP.part.nonpolar>
-46.1497

> <Gold.PLP.part.repulsive>
0.4917

> <Gold.PLP.ligand.clash>
0.0000

> <Gold.PLP.ligand.torsion>
1.5425

> <Gold.PLP.Chemscore.Hbond>
2.0000

> <Gold.PLP.Chemscore.CHOScore>
0.9654

> <Gold.PLP.Chemscore.Metal>
0.0000

> <Gold.Chemscore.Hbonds>
donor molecule, donor type, donor heavy atom, donor atom, acceptor molecule, acceptor atom, score
      L1  H    11    37       P1  8028  1.00
      P1  H  7997  8010       L1    25  1.00
      L1  C    14    40       P1  8028  0.42
      L1  C    14    40       P1  8029  0.56

> <Gold.PLP.Chemscore.Internal.Correction>
0.1570

> <Gold.Rescore>
     Score         DG    S(hbond)    S(metal)    S(lipo)     H(rot)  DE(clash)    DE(int)     intcor
     16.55     -19.23       1.61        0.00     129.45       2.65       0.26       2.42       ----

> <Gold.Chemscore.Fitness>
16.5536

> <Gold.Chemscore.DG>
-19.2326

> <Gold.Chemscore.ZeroCoef>
-5.4800

> <Gold.Chemscore.Hbond>
1.6130

> <Gold.Chemscore.Metal>
0.0000

> <Gold.Chemscore.Lipo>
129.4513

> <Gold.Chemscore.Internal_Hbond>
0.0000

> <Gold.Chemscore.DEClash>
0.2600

> <Gold.Chemscore.DEInternal>
2.4190

> <Gold.Chemscore.Rot>
2.6486

> <Gold.Chemscore.Internal.Correction>
   9.000000E+99

> <Gold.Chemscore.Hbonds>
donor molecule, donor type, donor heavy atom, donor atom, acceptor molecule, acceptor atom, score
      L1  H    11    37       P1  8028  0.94
      P1  H  7997  8010       L1    25  0.99

> <Gold.Chemscore.Hbond.Weighted>
-5.3873

> <Gold.Chemscore.Metal.Weighted>
-0.0000

> <Gold.Chemscore.Lipo.Weighted>
-15.1458

> <Gold.Chemscore.Internal_Hbond.Weighted>
0.0000

> <Gold.Chemscore.DEClash.Weighted>
0.2600

> <Gold.Chemscore.DEInternal.Weighted>
2.4190

> <Gold.Chemscore.Rot.Weighted>
6.7804

> <Gold.Chemscore.Internal.Correction.Weighted>
   9.000000E+99

> <Gold.Protein.RotatedTorsions>
[ 6907 6896 6895 6894 ] final   62.52 input  -60.11 | X-H torsion
[ 7974 7965 7964 7962 ] final -133.75 input  175.53 | X-H torsion
[ 8008 7997 7996 7995 ] final   70.64 input   59.86 | X-H torsion
[ 10167 10162 10161 10158 ] final  -83.27 input  -65.29 | X-H torsion
[ 10718 10713 10712 10709 ] final  -54.42 input   66.30 | X-H torsion
[ 10763 10752 10751 10750 ] final   -2.93 input  -60.55 | X-H torsion
[ 11005 11000 10999 10996 ] final   42.37 input  -57.11 | X-H torsion

> <Gold.Protein.ActiveResidues>
 VAL166  LYS551  ARG553  GLY616  TRP617  ASP618  TYR619  PRO620  LYS621  CYS622 
 ASP623  PHE694  ASN695  SER759  ASP760  ASP761  ALA762  ILE779  LEU786  VAL792 
 PHE793  MET794  SER795  GLU796  ALA797  LYS798  CYS799  TRP800  GLU811  SER814 

> <Gold.Protein.RotatedAtoms>
  152.4178  134.6009  159.9999 H   0  0  0  0  0  0  0  0  0  0  0  0  # atno 6907 bound_to 6896
  151.6168  133.3337  159.3087 H   0  0  0  0  0  0  0  0  0  0  0  0  # atno 6908 bound_to 6896
  150.8067  134.7235  159.6716 H   0  0  0  0  0  0  0  0  0  0  0  0  # atno 6909 bound_to 6896
  144.9165  140.6960  143.4992 H   0  0  0  0  0  0  0  0  0  0  0  0  # atno 7974 bound_to 7965
  155.7419  140.3490  155.5108 H   0  0  0  0  0  0  0  0  0  0  0  0  # atno 8008 bound_to 7997
  155.9086  140.1046  157.1318 H   0  0  0  0  0  0  0  0  0  0  0  0  # atno 8009 bound_to 7997
  154.4053  140.1272  156.4515 H   0  0  0  0  0  0  0  0  0  0  0  0  # atno 8010 bound_to 7997
  140.4242  143.2573  151.8848 H   0  0  0  0  0  0  0  0  0  0  0  0  # atno 10167 bound_to 10162
  156.1452  130.4153  150.0036 H   0  0  0  0  0  0  0  0  0  0  0  0  # atno 10718 bound_to 10713
  153.3646  135.6992  153.6685 H   0  0  0  0  0  0  0  0  0  0  0  0  # atno 10763 bound_to 10752
  153.5360  135.3582  155.2697 H   0  0  0  0  0  0  0  0  0  0  0  0  # atno 10764 bound_to 10752
  154.8673  135.4192  154.2911 H   0  0  0  0  0  0  0  0  0  0  0  0  # atno 10765 bound_to 10752
  140.1746  134.4180  155.8236 H   0  0  0  0  0  0  0  0  0  0  0  0  # atno 11005 bound_to 11000
  145.3367  139.1744  143.4507 LP  0  0  0  0  0  0  0  0  0  0  0  0  # atno 17320 bound_to 7965
  146.3184  140.3403  142.8647 LP  0  0  0  0  0  0  0  0  0  0  0  0  # atno 17321 bound_to 7965
  139.4783  144.5405  151.8536 LP  0  0  0  0  0  0  0  0  0  0  0  0  # atno 17342 bound_to 10162
  140.4500  144.1869  150.5897 LP  0  0  0  0  0  0  0  0  0  0  0  0  # atno 17343 bound_to 10162
  156.7909  130.9256  151.3646 LP  0  0  0  0  0  0  0  0  0  0  0  0  # atno 17370 bound_to 10713
  157.6610  130.8966  149.9831 LP  0  0  0  0  0  0  0  0  0  0  0  0  # atno 17371 bound_to 10713
  141.2219  133.6972  156.7823 LP  0  0  0  0  0  0  0  0  0  0  0  0  # atno 17394 bound_to 11000
  140.2338  134.8666  157.3503 LP  0  0  0  0  0  0  0  0  0  0  0  0  # atno 17395 bound_to 11000

$$$$
