AV-unprocessed.smi:1278|AV-procd|sdf|5351|dock3
  -GOLD-   22720 4483D 1   1.00000     0.00000
 Structure written by MMmdl.
 38 39  0  0  0  0  0  0  0  0  3 V2000
  144.8828  134.5506  153.7900 C   0  0  0  0  0  0  0  0  0  0  0  0
  146.3519  134.4237  153.3630 C   0  0  2  0  0  0  0  0  0  0  0  0
  146.6306  133.0600  152.7087 C   0  0  0  0  0  0  0  0  0  0  0  0
  148.1095  132.9510  152.3172 C   0  0  0  0  0  0  0  0  0  0  0  0
  149.0195  133.2143  153.5275 C   0  0  0  0  0  0  0  0  0  0  0  0
  148.7318  134.5389  154.1357 N   0  3  2  0  0  0  0  0  0  0  0  0
  149.6840  134.8733  155.2233 C   0  0  0  0  0  0  0  0  0  0  0  0
  149.3441  136.2100  155.9094 C   0  0  0  0  0  0  0  0  0  0  0  0
  149.6161  136.1524  157.3404 N   0  0  0  0  0  0  0  0  0  0  0  0
  148.6907  136.1308  158.3101 C   0  0  0  0  0  0  0  0  0  0  0  0
  147.4935  136.1770  158.0170 O   0  0  0  0  0  0  0  0  0  0  0  0
  149.2101  136.0518  159.5554 N   0  5  0  0  0  0  0  0  0  0  0  0
  148.3948  135.9457  160.6173 C   0  0  0  0  0  0  0  0  0  0  0  0
  148.1344  136.9674  161.4413 N   0  0  0  0  0  0  0  0  0  0  0  0
  147.2568  136.6365  162.4756 C   0  0  0  0  0  0  0  0  0  0  0  0
  146.8342  135.3343  162.4341 C   0  0  0  0  0  0  0  0  0  0  0  0
  147.5264  134.4808  161.0842 S   0  0  0  0  0  0  0  0  0  0  0  0
  147.3074  134.6505  154.5521 C   0  0  0  0  0  0  0  0  0  0  0  0
  144.6209  133.8020  154.5385 H   0  0  0  0  0  0  0  0  0  0  0  0
  144.2134  134.4190  152.9393 H   0  0  0  0  0  0  0  0  0  0  0  0
  144.6816  135.5332  154.2178 H   0  0  0  0  0  0  0  0  0  0  0  0
  146.5465  135.2006  152.6220 H   0  0  0  0  0  0  0  0  0  0  0  0
  146.3744  132.2555  153.3996 H   0  0  0  0  0  0  0  0  0  0  0  0
  146.0024  132.9263  151.8272 H   0  0  0  0  0  0  0  0  0  0  0  0
  148.3137  131.9624  151.9055 H   0  0  0  0  0  0  0  0  0  0  0  0
  148.3341  133.6679  151.5262 H   0  0  0  0  0  0  0  0  0  0  0  0
  148.8879  132.4321  154.2769 H   0  0  0  0  0  0  0  0  0  0  0  0
  150.0607  133.1733  153.2054 H   0  0  0  0  0  0  0  0  0  0  0  0
  149.7169  134.0543  155.9436 H   0  0  0  0  0  0  0  0  0  0  0  0
  150.6904  134.9569  154.8105 H   0  0  0  0  0  0  0  0  0  0  0  0
  149.9484  137.0111  155.4825 H   0  0  0  0  0  0  0  0  0  0  0  0
  148.3024  136.4919  155.7548 H   0  0  0  0  0  0  0  0  0  0  0  0
  150.5845  136.1173  157.6242 H   0  0  0  0  0  0  0  0  0  0  0  0
  146.9871  137.3917  163.1988 H   0  0  0  0  0  0  0  0  0  0  0  0
  146.1607  134.8280  163.1086 H   0  0  0  0  0  0  0  0  0  0  0  0
  147.1173  135.6365  154.9747 H   0  0  0  0  0  0  0  0  0  0  0  0
  147.1037  133.9271  155.3438 H   0  0  0  0  0  0  0  0  0  0  0  0
  148.8819  135.2220  153.4071 H   0  0  0  0  0  0  0  0  0  0  0  0
  1  2  1  0  0  0  0
  1 19  1  0  0  0  0
  1 20  1  0  0  0  0
  1 21  1  0  0  0  0
  2 18  1  0  0  0  0
  2  3  1  0  0  0  0
  2 22  1  0  0  0  0
  3  4  1  0  0  0  0
  3 23  1  0  0  0  0
  3 24  1  0  0  0  0
  4  5  1  0  0  0  0
  4 25  1  0  0  0  0
  4 26  1  0  0  0  0
  5  6  1  0  0  0  0
  5 27  1  0  0  0  0
  5 28  1  0  0  0  0
  6  7  1  0  0  0  0
  6 18  1  0  0  0  0
  6 38  1  0  0  0  0
  7  8  1  0  0  0  0
  7 29  1  0  0  0  0
  7 30  1  0  0  0  0
  8  9  1  0  0  0  0
  8 31  1  0  0  0  0
  8 32  1  0  0  0  0
  9 10  1  0  0  0  0
  9 33  1  0  0  0  0
 10 11  2  0  0  0  0
 10 12  1  0  0  0  0
 12 13  1  0  0  0  0
 13 17  1  0  0  0  0
 13 14  2  0  0  0  0
 14 15  1  0  0  0  0
 15 16  2  0  0  0  0
 15 34  1  0  0  0  0
 16 17  1  0  0  0  0
 16 35  1  0  0  0  0
 18 36  1  0  0  0  0
 18 37  1  0  0  0  0
M  CHG  1   6   1
M  CHG  1  12  -1
M  END
> <s_m_source_file>
AV-unprocessed.smi

> <i_m_source_file_index>
1278

> <i_lp_mmshare_version>
43012

> <i_f3d_flags>
0

> <s_epik_input>
W0NIM11bQ0BASF0xW0NIMl1bQ0gyXVtDSDJdTihbQ0gyXTEpW0NIMl1bQ0gyXVtOSF1DKD1PKVtOSF1jMm5bY0hdW2NIXXMy

> <s_epik_cmdline>
J2VwaWtfcHl0aG9uJywgJy1waCcsICc3LjAnLCAnLXRuJywgJzgnLCAnLW1hJywgJzIwMCcsICctbWV0YWxfYmluZGluZycsICctaW1hZScsICc8aW5maWxlLm1hZT4nLCAnLW9tYWUnLCAnPG91dGZpbGUubWFlPic=

> <r_lp_tautomer_probability>
0.999

> <r_epik_Ionization_Penalty>
6.22019

> <r_epik_Ionization_Penalty_Charging>
5.38911

> <r_epik_Ionization_Penalty_Neutral>
0.831074

> <r_epik_State_Penalty>
5.38904

> <r_epik_Charging_Adjusted_Penalty>
10.7782

> <i_epik_Tot_Q>
0

> <i_epik_Tot_abs_Q>
2

> <r_epik_Metal_State_Penalty>
1.41502

> <b_epik_Metal_Only>
1

> <s_lp_Force_Field>
OPLS_2005

> <r_lp_Energy>
5.98005

> <b_lp_Chiralities_Consistent>
1

> <s_lp_Variant>
AV-unprocessed.smi:1278-5

> <Gold.Version>
5.8.1

> <Gold.Id.Protein>
6NUR|6NUR_protein|mol2

> <Gold.PLP.Fitness>
42.0395

> <Gold.PLP.PLP>
-28.5028

> <Gold.PLP.part.hbond>
-3.7901

> <Gold.PLP.part.metal>
0.0000

> <Gold.PLP.part.buried>
-2.9629

> <Gold.PLP.part.nonpolar>
-21.9861

> <Gold.PLP.part.repulsive>
0.0619

> <Gold.PLP.ligand.clash>
0.0000

> <Gold.PLP.ligand.torsion>
1.0395

> <Gold.PLP.Chemscore.Hbond>
5.1722

> <Gold.PLP.Chemscore.CHOScore>
0.0000

> <Gold.PLP.Chemscore.Metal>
0.0000

> <Gold.Chemscore.Hbonds>
donor molecule, donor type, donor heavy atom, donor atom, acceptor molecule, acceptor atom, score
      L1  H     6    38       P1  7948  2.00
      P1  H  6896  6908       L1    12  2.00
      P1  H  6931  6943       L1    14  1.00
      P1  H  6934  6947       L1    14  0.16

> <Gold.PLP.Chemscore.Internal.Correction>
0.0992

> <Gold.Rescore>
     Score         DG    S(hbond)    S(metal)    S(lipo)     H(rot)  DE(clash)    DE(int)     intcor
     16.09     -17.27       2.70        0.00      58.11       1.57       0.16       1.02       ----

> <Gold.Chemscore.Fitness>
16.0945

> <Gold.Chemscore.DG>
-17.2698

> <Gold.Chemscore.ZeroCoef>
-5.4800

> <Gold.Chemscore.Hbond>
2.6960

> <Gold.Chemscore.Metal>
0.0000

> <Gold.Chemscore.Lipo>
58.1055

> <Gold.Chemscore.Internal_Hbond>
0.0000

> <Gold.Chemscore.DEClash>
0.1596

> <Gold.Chemscore.DEInternal>
1.0157

> <Gold.Chemscore.Rot>
1.5676

> <Gold.Chemscore.Internal.Correction>
   9.000000E+99

> <Gold.Chemscore.Hbonds>
donor molecule, donor type, donor heavy atom, donor atom, acceptor molecule, acceptor atom, score
      L1  H     6    38       P1  7948  0.60
      P1  H  6896  6908       L1    12  0.69
      P1  H  6931  6943       L1    14  0.70
      P1  H  6934  6947       L1    14  0.03

> <Gold.Chemscore.Hbond.Weighted>
-9.0045

> <Gold.Chemscore.Metal.Weighted>
-0.0000

> <Gold.Chemscore.Lipo.Weighted>
-6.7983

> <Gold.Chemscore.Internal_Hbond.Weighted>
0.0000

> <Gold.Chemscore.DEClash.Weighted>
0.1596

> <Gold.Chemscore.DEInternal.Weighted>
1.0157

> <Gold.Chemscore.Rot.Weighted>
4.0130

> <Gold.Chemscore.Internal.Correction.Weighted>
   9.000000E+99

> <Gold.Protein.RotatedTorsions>
[ 6907 6896 6895 6894 ] final -173.52 input  -60.11 | X-H torsion
[ 7974 7965 7964 7962 ] final -116.72 input  175.53 | X-H torsion
[ 8008 7997 7996 7995 ] final  -54.49 input   59.86 | X-H torsion
[ 10167 10162 10161 10158 ] final  -31.39 input  -65.29 | X-H torsion
[ 10718 10713 10712 10709 ] final  108.21 input   66.30 | X-H torsion
[ 10763 10752 10751 10750 ] final -109.83 input  -60.55 | X-H torsion
[ 11005 11000 10999 10996 ] final  172.26 input  -57.11 | X-H torsion

> <Gold.Protein.ActiveResidues>
 VAL166  LYS551  ARG553  GLY616  TRP617  ASP618  TYR619  PRO620  LYS621  CYS622 
 ASP623  PHE694  ASN695  SER759  ASP760  ASP761  ALA762  ILE779  LEU786  VAL792 
 PHE793  MET794  SER795  GLU796  ALA797  LYS798  CYS799  TRP800  GLU811  SER814 

> <Gold.Protein.RotatedAtoms>
  151.5575  133.3408  159.2964 H   0  0  0  0  0  0  0  0  0  0  0  0  # atno 6907 bound_to 6896
  150.8442  134.7748  159.6968 H   0  0  0  0  0  0  0  0  0  0  0  0  # atno 6908 bound_to 6896
  152.4503  134.5415  159.9892 H   0  0  0  0  0  0  0  0  0  0  0  0  # atno 6909 bound_to 6896
  145.0935  140.8505  143.3968 H   0  0  0  0  0  0  0  0  0  0  0  0  # atno 7974 bound_to 7965
  154.4164  140.1175  156.5324 H   0  0  0  0  0  0  0  0  0  0  0  0  # atno 8008 bound_to 7997
  155.6591  140.3496  155.4757 H   0  0  0  0  0  0  0  0  0  0  0  0  # atno 8009 bound_to 7997
  155.9728  140.1145  157.0787 H   0  0  0  0  0  0  0  0  0  0  0  0  # atno 8010 bound_to 7997
  140.7237  143.3775  151.1663 H   0  0  0  0  0  0  0  0  0  0  0  0  # atno 10167 bound_to 10162
  157.6596  131.0889  150.6271 H   0  0  0  0  0  0  0  0  0  0  0  0  # atno 10718 bound_to 10713
  154.8215  135.4586  154.0793 H   0  0  0  0  0  0  0  0  0  0  0  0  # atno 10763 bound_to 10752
  153.2143  135.6886  153.8083 H   0  0  0  0  0  0  0  0  0  0  0  0  # atno 10764 bound_to 10752
  153.7523  135.3296  155.3300 H   0  0  0  0  0  0  0  0  0  0  0  0  # atno 10765 bound_to 10752
  140.3278  134.7383  157.4112 H   0  0  0  0  0  0  0  0  0  0  0  0  # atno 11005 bound_to 11000
  145.1039  139.2804  143.5672 LP  0  0  0  0  0  0  0  0  0  0  0  0  # atno 17320 bound_to 7965
  146.3531  140.0614  142.8629 LP  0  0  0  0  0  0  0  0  0  0  0  0  # atno 17321 bound_to 7965
  139.7357  143.9002  152.3034 LP  0  0  0  0  0  0  0  0  0  0  0  0  # atno 17342 bound_to 10162
  139.8806  144.7019  150.8882 LP  0  0  0  0  0  0  0  0  0  0  0  0  # atno 17343 bound_to 10162
  156.6575  130.4502  149.5698 LP  0  0  0  0  0  0  0  0  0  0  0  0  # atno 17370 bound_to 10713
  156.2092  130.6668  151.1251 LP  0  0  0  0  0  0  0  0  0  0  0  0  # atno 17371 bound_to 10713
  140.0887  134.5631  155.8466 LP  0  0  0  0  0  0  0  0  0  0  0  0  # atno 17394 bound_to 11000
  141.2071  133.6661  156.6283 LP  0  0  0  0  0  0  0  0  0  0  0  0  # atno 17395 bound_to 11000

$$$$
