AV-unprocessed.smi:1019|AV-procd|sdf|4446|dock9
  -GOLD-   22720 2413D 1   1.00000     0.00000
 Structure written by MMmdl.
 44 46  0  0  0  0  0  0  0  0  2 V2000
  146.8370  134.3338  154.1409 C   0  0  0  0  0  0  0  0  0  0  0  0
  148.1853  134.0549  153.5965 N   0  3  2  0  0  0  0  0  0  0  0  0
  148.2414  132.7585  152.8774 C   0  0  0  0  0  0  0  0  0  0  0  0
  146.9742  132.5077  152.0776 C   0  0  0  0  0  0  0  0  0  0  0  0
  146.5478  133.4523  151.1198 C   0  0  0  0  0  0  0  0  0  0  0  0
  145.3832  133.2176  150.3634 C   0  0  0  0  0  0  0  0  0  0  0  0
  144.6375  132.0402  150.5651 C   0  0  0  0  0  0  0  0  0  0  0  0
  145.0556  131.0980  151.5246 C   0  0  0  0  0  0  0  0  0  0  0  0
  146.2212  131.3313  152.2801 C   0  0  0  0  0  0  0  0  0  0  0  0
  149.2576  134.2246  154.6122 C   0  0  0  0  0  0  0  0  0  0  0  0
  149.3472  135.6813  155.1028 C   0  0  1  0  0  0  0  0  0  0  0  0
  149.1833  135.6878  156.5069 O   0  0  0  0  0  0  0  0  0  0  0  0
  150.6914  136.3448  154.7368 C   0  0  0  0  0  0  0  0  0  0  0  0
  150.6639  137.7864  154.9029 N   0  0  0  0  0  0  0  0  0  0  0  0
  150.2011  138.6924  154.0203 C   0  0  0  0  0  0  0  0  0  0  0  0
  150.2684  139.9736  154.3691 N   0  0  0  0  0  0  0  0  0  0  0  0
  150.8433  139.8910  155.6257 C   0  0  0  0  0  0  0  0  0  0  0  0
  151.1876  140.9080  156.5446 C   0  0  0  0  0  0  0  0  0  0  0  0
  151.7734  140.5812  157.7852 C   0  0  0  0  0  0  0  0  0  0  0  0
  152.0233  139.2358  158.1257 C   0  0  0  0  0  0  0  0  0  0  0  0
  151.6887  138.2048  157.2267 C   0  0  0  0  0  0  0  0  0  0  0  0
  151.1046  138.5351  155.9894 C   0  0  0  0  0  0  0  0  0  0  0  0
  146.5513  133.5841  154.8797 H   0  0  0  0  0  0  0  0  0  0  0  0
  146.0920  134.3292  153.3446 H   0  0  0  0  0  0  0  0  0  0  0  0
  146.8017  135.3138  154.6174 H   0  0  0  0  0  0  0  0  0  0  0  0
  149.1219  132.7240  152.2334 H   0  0  0  0  0  0  0  0  0  0  0  0
  148.3450  131.9415  153.5928 H   0  0  0  0  0  0  0  0  0  0  0  0
  147.1156  134.3570  150.9579 H   0  0  0  0  0  0  0  0  0  0  0  0
  145.0611  133.9407  149.6282 H   0  0  0  0  0  0  0  0  0  0  0  0
  143.7441  131.8599  149.9850 H   0  0  0  0  0  0  0  0  0  0  0  0
  144.4820  130.1960  151.6803 H   0  0  0  0  0  0  0  0  0  0  0  0
  146.5359  130.6019  153.0122 H   0  0  0  0  0  0  0  0  0  0  0  0
  149.0735  133.5460  155.4472 H   0  0  0  0  0  0  0  0  0  0  0  0
  150.2286  133.9356  154.2102 H   0  0  0  0  0  0  0  0  0  0  0  0
  148.5257  136.2627  154.6826 H   0  0  0  0  0  0  0  0  0  0  0  0
  148.3391  135.3182  156.7179 H   0  0  0  0  0  0  0  0  0  0  0  0
  151.5006  135.9359  155.3435 H   0  0  0  0  0  0  0  0  0  0  0  0
  150.9492  136.1334  153.6985 H   0  0  0  0  0  0  0  0  0  0  0  0
  149.7893  138.3942  153.0673 H   0  0  0  0  0  0  0  0  0  0  0  0
  151.0004  141.9418  156.2943 H   0  0  0  0  0  0  0  0  0  0  0  0
  152.0321  141.3674  158.4793 H   0  0  0  0  0  0  0  0  0  0  0  0
  152.4723  138.9961  159.0785 H   0  0  0  0  0  0  0  0  0  0  0  0
  151.8786  137.1742  157.4867 H   0  0  0  0  0  0  0  0  0  0  0  0
  148.3542  134.7564  152.8899 H   0  0  0  0  0  0  0  0  0  0  0  0
  1  2  1  0  0  0  0
  1 23  1  0  0  0  0
  1 24  1  0  0  0  0
  1 25  1  0  0  0  0
  2  3  1  0  0  0  0
  2 10  1  0  0  0  0
  2 44  1  0  0  0  0
  3  4  1  0  0  0  0
  3 26  1  0  0  0  0
  3 27  1  0  0  0  0
  4  9  1  0  0  0  0
  4  5  2  0  0  0  0
  5  6  1  0  0  0  0
  5 28  1  0  0  0  0
  6  7  2  0  0  0  0
  6 29  1  0  0  0  0
  7  8  1  0  0  0  0
  7 30  1  0  0  0  0
  8  9  2  0  0  0  0
  8 31  1  0  0  0  0
  9 32  1  0  0  0  0
 10 11  1  0  0  0  0
 10 33  1  0  0  0  0
 10 34  1  0  0  0  0
 11 12  1  0  0  0  0
 11 13  1  0  0  0  0
 11 35  1  0  0  0  0
 12 36  1  0  0  0  0
 13 14  1  0  0  0  0
 13 37  1  0  0  0  0
 13 38  1  0  0  0  0
 14 22  1  0  0  0  0
 14 15  1  0  0  0  0
 15 16  2  0  0  0  0
 15 39  1  0  0  0  0
 16 17  1  0  0  0  0
 17 22  2  0  0  0  0
 17 18  1  0  0  0  0
 18 19  2  0  0  0  0
 18 40  1  0  0  0  0
 19 20  1  0  0  0  0
 19 41  1  0  0  0  0
 20 21  2  0  0  0  0
 20 42  1  0  0  0  0
 21 22  1  0  0  0  0
 21 43  1  0  0  0  0
M  CHG  1   2   1
M  END
> <s_m_source_file>
AV-unprocessed.smi

> <i_m_source_file_index>
1019

> <i_lp_mmshare_version>
43012

> <i_f3d_flags>
0

> <s_epik_input>
W2NIXTFbY0hdW2NIXVtjSF1bY0hdYzFbQ0gyXU4oW0NIM10pW0NIMl1bQ0BIXShbT0hdKVtDSDJdbihbY0hdbjIpYyhjMjMpW2NIXVtjSF1bY0hdW2NIXTM=

> <s_epik_cmdline>
J2VwaWtfcHl0aG9uJywgJy1waCcsICc3LjAnLCAnLXRuJywgJzgnLCAnLW1hJywgJzIwMCcsICctbWV0YWxfYmluZGluZycsICctaW1hZScsICc8aW5maWxlLm1hZT4nLCAnLW9tYWUnLCAnPG91dGZpbGUubWFlPic=

> <r_epik_Ionization_Penalty>
0.0996557

> <r_epik_Ionization_Penalty_Charging>
0.0475377

> <r_epik_Ionization_Penalty_Neutral>
0.0521179

> <r_epik_State_Penalty>
0.0851777

> <r_epik_Charging_Adjusted_Penalty>
0.132715

> <i_epik_Tot_Q>
1

> <i_epik_Tot_abs_Q>
1

> <r_epik_Metal_State_Penalty>
0.0423478

> <b_epik_Metal_Only>
0

> <s_lp_Force_Field>
OPLS_2005

> <r_lp_Energy>
16.6774

> <b_lp_Chiralities_Consistent>
1

> <s_lp_Variant>
AV-unprocessed.smi:1019-4

> <Gold.Version>
5.8.1

> <Gold.Id.Protein>
6NUR|6NUR_protein|mol2

> <Gold.PLP.Fitness>
51.5546

> <Gold.PLP.PLP>
-39.5448

> <Gold.PLP.part.hbond>
-2.0000

> <Gold.PLP.part.metal>
0.0000

> <Gold.PLP.part.buried>
-3.6747

> <Gold.PLP.part.nonpolar>
-34.5662

> <Gold.PLP.part.repulsive>
0.1287

> <Gold.PLP.ligand.clash>
0.0000

> <Gold.PLP.ligand.torsion>
1.3699

> <Gold.PLP.Chemscore.Hbond>
3.0000

> <Gold.PLP.Chemscore.CHOScore>
1.8053

> <Gold.PLP.Chemscore.Metal>
0.0000

> <Gold.Chemscore.Hbonds>
donor molecule, donor type, donor heavy atom, donor atom, acceptor molecule, acceptor atom, score
      L1  H     2    44       P1  7948  2.00
      P1  H  7989  7998       L1    16  0.95
      L1  C    15    39       P1  7948  0.91
      L1  C    15    39       P1  7957  0.83

> <Gold.PLP.Chemscore.Internal.Correction>
0.3337

> <Gold.Rescore>
     Score         DG    S(hbond)    S(metal)    S(lipo)     H(rot)  DE(clash)    DE(int)     intcor
     15.78     -17.31       1.88        0.00      99.19       2.36       0.05       1.48       ----

> <Gold.Chemscore.Fitness>
15.7835

> <Gold.Chemscore.DG>
-17.3147

> <Gold.Chemscore.ZeroCoef>
-5.4800

> <Gold.Chemscore.Hbond>
1.8786

> <Gold.Chemscore.Metal>
0.0000

> <Gold.Chemscore.Lipo>
99.1947

> <Gold.Chemscore.Internal_Hbond>
0.0000

> <Gold.Chemscore.DEClash>
0.0527

> <Gold.Chemscore.DEInternal>
1.4785

> <Gold.Chemscore.Rot>
2.3616

> <Gold.Chemscore.Internal.Correction>
   9.000000E+99

> <Gold.Chemscore.Hbonds>
donor molecule, donor type, donor heavy atom, donor atom, acceptor molecule, acceptor atom, score
      L1  H     2    44       P1  7948  0.55
      P1  H  7989  7998       L1    16  0.17

> <Gold.Chemscore.Hbond.Weighted>
-6.2747

> <Gold.Chemscore.Metal.Weighted>
-0.0000

> <Gold.Chemscore.Lipo.Weighted>
-11.6058

> <Gold.Chemscore.Internal_Hbond.Weighted>
0.0000

> <Gold.Chemscore.DEClash.Weighted>
0.0527

> <Gold.Chemscore.DEInternal.Weighted>
1.4785

> <Gold.Chemscore.Rot.Weighted>
6.0457

> <Gold.Chemscore.Internal.Correction.Weighted>
   9.000000E+99

> <Gold.Protein.RotatedTorsions>
[ 6907 6896 6895 6894 ] final   16.19 input  -60.11 | X-H torsion
[ 7974 7965 7964 7962 ] final  125.42 input  175.53 | X-H torsion
[ 8008 7997 7996 7995 ] final   65.19 input   59.86 | X-H torsion
[ 10167 10162 10161 10158 ] final  -23.47 input  -65.29 | X-H torsion
[ 10718 10713 10712 10709 ] final  -33.43 input   66.30 | X-H torsion
[ 10763 10752 10751 10750 ] final   75.00 input  -60.55 | X-H torsion
[ 11005 11000 10999 10996 ] final   29.48 input  -57.11 | X-H torsion

> <Gold.Protein.ActiveResidues>
 VAL166  LYS551  ARG553  GLY616  TRP617  ASP618  TYR619  PRO620  LYS621  CYS622 
 ASP623  PHE694  ASN695  SER759  ASP760  ASP761  ALA762  ILE779  LEU786  VAL792 
 PHE793  MET794  SER795  GLU796  ALA797  LYS798  CYS799  TRP800  GLU811  SER814 

> <Gold.Protein.RotatedAtoms>
  151.8300  135.0624  160.0435 H   0  0  0  0  0  0  0  0  0  0  0  0  # atno 6907 bound_to 6896
  152.2887  133.5536  159.5552 H   0  0  0  0  0  0  0  0  0  0  0  0  # atno 6908 bound_to 6896
  150.7220  134.0376  159.3797 H   0  0  0  0  0  0  0  0  0  0  0  0  # atno 6909 bound_to 6896
  145.0732  139.3714  143.4947 H   0  0  0  0  0  0  0  0  0  0  0  0  # atno 7974 bound_to 7965
  155.6578  140.3497  155.4771 H   0  0  0  0  0  0  0  0  0  0  0  0  # atno 8008 bound_to 7997
  155.9794  140.1171  157.0764 H   0  0  0  0  0  0  0  0  0  0  0  0  # atno 8009 bound_to 7997
  154.4187  140.1141  156.5400 H   0  0  0  0  0  0  0  0  0  0  0  0  # atno 8010 bound_to 7997
  140.7288  143.4440  151.0614 H   0  0  0  0  0  0  0  0  0  0  0  0  # atno 10167 bound_to 10162
  156.3628  130.4326  149.7610 H   0  0  0  0  0  0  0  0  0  0  0  0  # atno 10718 bound_to 10713
  153.0624  135.5005  154.8125 H   0  0  0  0  0  0  0  0  0  0  0  0  # atno 10763 bound_to 10752
  154.6903  135.2983  154.9491 H   0  0  0  0  0  0  0  0  0  0  0  0  # atno 10764 bound_to 10752
  154.0248  135.6737  153.4828 H   0  0  0  0  0  0  0  0  0  0  0  0  # atno 10765 bound_to 10752
  140.3045  134.2719  155.7747 H   0  0  0  0  0  0  0  0  0  0  0  0  # atno 11005 bound_to 11000
  146.3529  140.0487  142.8637 LP  0  0  0  0  0  0  0  0  0  0  0  0  # atno 17320 bound_to 7965
  145.1267  140.9494  143.4568 LP  0  0  0  0  0  0  0  0  0  0  0  0  # atno 17321 bound_to 7965
  139.8110  143.7951  152.3171 LP  0  0  0  0  0  0  0  0  0  0  0  0  # atno 17342 bound_to 10162
  139.8001  144.7377  150.9837 LP  0  0  0  0  0  0  0  0  0  0  0  0  # atno 17343 bound_to 10162
  156.4767  130.8022  151.3038 LP  0  0  0  0  0  0  0  0  0  0  0  0  # atno 17370 bound_to 10713
  157.7475  131.0018  150.2979 LP  0  0  0  0  0  0  0  0  0  0  0  0  # atno 17371 bound_to 10713
  141.2121  133.7668  156.9816 LP  0  0  0  0  0  0  0  0  0  0  0  0  # atno 17394 bound_to 11000
  140.1079  134.9495  157.2022 LP  0  0  0  0  0  0  0  0  0  0  0  0  # atno 17395 bound_to 11000

$$$$
