AV-unprocessed.smi:1944|AV-procd|sdf|7855|dock10
  -GOLD-   2272010 03D 1   1.00000     0.00000
 Structure written by MMmdl.
 46 47  0  0  0  0  0  0  0  0  2 V2000
  151.6769  138.2658  154.2276 C   0  0  0  0  0  0  0  0  0  0  0  0
  150.3200  138.2495  153.7968 O   0  0  0  0  0  0  0  0  0  0  0  0
  149.5644  139.3958  153.9540 C   0  0  0  0  0  0  0  0  0  0  0  0
  150.1526  140.4846  154.5107 N   0  0  0  0  0  0  0  0  0  0  0  0
  149.4182  141.6058  154.6613 C   0  0  0  0  0  0  0  0  0  0  0  0
  148.0726  141.7042  154.2628 C   0  0  0  0  0  0  0  0  0  0  0  0
  147.4602  140.5767  153.6855 C   0  0  0  0  0  0  0  0  0  0  0  0
  148.2133  139.3869  153.5345 C   0  0  0  0  0  0  0  0  0  0  0  0
  147.6988  138.1983  152.9461 N   0  0  0  0  0  0  0  0  0  0  0  0
  146.4261  137.7699  152.9010 C   0  0  0  0  0  0  0  0  0  0  0  0
  145.4599  138.3487  153.3975 O   0  0  0  0  0  0  0  0  0  0  0  0
  146.3295  136.5977  152.2575 N   0  0  0  0  0  0  0  0  0  0  0  0
  145.0870  135.8643  152.0453 C   0  0  0  0  0  0  0  0  0  0  0  0
  145.2681  134.7340  151.0125 C   0  0  0  0  0  0  0  0  0  0  0  0
  145.4552  133.3923  151.6283 N   0  3  2  0  0  0  0  0  0  0  0  0
  146.8301  133.2178  152.1713 C   0  0  0  0  0  0  0  0  0  0  0  0
  146.9505  131.9258  152.9946 C   0  0  0  0  0  0  0  0  0  0  0  0
  146.5320  130.7053  152.1681 C   0  0  0  0  0  0  0  0  0  0  0  0
  145.1189  130.9165  151.6080 C   0  0  0  0  0  0  0  0  0  0  0  0
  144.9994  132.2286  150.8032 C   0  0  2  0  0  0  0  0  0  0  0  0
  145.6947  132.1343  149.4280 C   0  0  0  0  0  0  0  0  0  0  0  0
  152.1250  137.2893  154.0447 H   0  0  0  0  0  0  0  0  0  0  0  0
  151.7543  138.4699  155.2966 H   0  0  0  0  0  0  0  0  0  0  0  0
  152.2607  139.0058  153.6782 H   0  0  0  0  0  0  0  0  0  0  0  0
  149.9203  142.4520  155.1064 H   0  0  0  0  0  0  0  0  0  0  0  0
  147.5240  142.6255  154.3918 H   0  0  0  0  0  0  0  0  0  0  0  0
  146.4349  140.6527  153.3582 H   0  0  0  0  0  0  0  0  0  0  0  0
  148.3947  137.5701  152.5709 H   0  0  0  0  0  0  0  0  0  0  0  0
  147.1732  136.1888  151.8822 H   0  0  0  0  0  0  0  0  0  0  0  0
  144.7209  135.4658  152.9933 H   0  0  0  0  0  0  0  0  0  0  0  0
  144.3490  136.5886  151.7022 H   0  0  0  0  0  0  0  0  0  0  0  0
  144.4345  134.7169  150.3101 H   0  0  0  0  0  0  0  0  0  0  0  0
  146.1545  134.9541  150.4159 H   0  0  0  0  0  0  0  0  0  0  0  0
  147.5571  133.2204  151.3585 H   0  0  0  0  0  0  0  0  0  0  0  0
  147.0802  134.0642  152.8121 H   0  0  0  0  0  0  0  0  0  0  0  0
  147.9748  131.8032  153.3480 H   0  0  0  0  0  0  0  0  0  0  0  0
  146.3230  131.9984  153.8841 H   0  0  0  0  0  0  0  0  0  0  0  0
  147.2401  130.5453  151.3545 H   0  0  0  0  0  0  0  0  0  0  0  0
  146.5606  129.8066  152.7849 H   0  0  0  0  0  0  0  0  0  0  0  0
  144.8300  130.0647  150.9911 H   0  0  0  0  0  0  0  0  0  0  0  0
  144.4105  130.9405  152.4375 H   0  0  0  0  0  0  0  0  0  0  0  0
  143.9347  132.3556  150.6109 H   0  0  0  0  0  0  0  0  0  0  0  0
  145.3444  131.2590  148.8799 H   0  0  0  0  0  0  0  0  0  0  0  0
  146.7773  132.0491  149.5148 H   0  0  0  0  0  0  0  0  0  0  0  0
  145.4770  133.0005  148.8038 H   0  0  0  0  0  0  0  0  0  0  0  0
  144.8546  133.3914  152.4407 H   0  0  0  0  0  0  0  0  0  0  0  0
  1  2  1  0  0  0  0
  1 22  1  0  0  0  0
  1 23  1  0  0  0  0
  1 24  1  0  0  0  0
  2  3  1  0  0  0  0
  3  8  1  0  0  0  0
  3  4  2  0  0  0  0
  4  5  1  0  0  0  0
  5  6  2  0  0  0  0
  5 25  1  0  0  0  0
  6  7  1  0  0  0  0
  6 26  1  0  0  0  0
  7  8  2  0  0  0  0
  7 27  1  0  0  0  0
  8  9  1  0  0  0  0
  9 10  1  0  0  0  0
  9 28  1  0  0  0  0
 10 11  2  0  0  0  0
 10 12  1  0  0  0  0
 12 13  1  0  0  0  0
 12 29  1  0  0  0  0
 13 14  1  0  0  0  0
 13 30  1  0  0  0  0
 13 31  1  0  0  0  0
 14 15  1  0  0  0  0
 14 32  1  0  0  0  0
 14 33  1  0  0  0  0
 15 20  1  0  0  0  0
 15 16  1  0  0  0  0
 15 46  1  0  0  0  0
 16 17  1  0  0  0  0
 16 34  1  0  0  0  0
 16 35  1  0  0  0  0
 17 18  1  0  0  0  0
 17 36  1  0  0  0  0
 17 37  1  0  0  0  0
 18 19  1  0  0  0  0
 18 38  1  0  0  0  0
 18 39  1  0  0  0  0
 19 20  1  0  0  0  0
 19 40  1  0  0  0  0
 19 41  1  0  0  0  0
 20 21  1  0  0  0  0
 20 42  1  0  0  0  0
 21 43  1  0  0  0  0
 21 44  1  0  0  0  0
 21 45  1  0  0  0  0
M  CHG  1  15   1
M  END
> <s_m_source_file>
AV-unprocessed.smi

> <i_m_source_file_index>
1944

> <i_lp_mmshare_version>
43012

> <i_f3d_flags>
0

> <s_epik_input>
W0NIM11PYzFuW2NIXVtjSF1bY0hdYzFbTkhdQyg9TylbTkhdW0NIMl1bQ0gyXU4yW0NIMl1bQ0gyXVtDSDJdW0NIMl1bQ0BIXTJbQ0gzXQ==

> <s_epik_cmdline>
J2VwaWtfcHl0aG9uJywgJy1waCcsICc3LjAnLCAnLXRuJywgJzgnLCAnLW1hJywgJzIwMCcsICctbWV0YWxfYmluZGluZycsICctaW1hZScsICc8aW5maWxlLm1hZT4nLCAnLW9tYWUnLCAnPG91dGZpbGUubWFlPic=

> <r_lp_tautomer_probability>
1

> <r_epik_Ionization_Penalty>
0.00219525

> <r_epik_Ionization_Penalty_Charging>
0.00211816

> <r_epik_Ionization_Penalty_Neutral>
7.7088e-05

> <r_epik_State_Penalty>
0.00145254

> <r_epik_Charging_Adjusted_Penalty>
0.0035707

> <i_epik_Tot_Q>
1

> <i_epik_Tot_abs_Q>
1

> <r_epik_Metal_State_Penalty>
-0

> <b_epik_Metal_Only>
0

> <s_lp_Force_Field>
OPLS_2005

> <r_lp_Energy>
23.2027

> <b_lp_Chiralities_Consistent>
1

> <s_lp_Variant>
AV-unprocessed.smi:1944-3

> <Gold.Version>
5.8.1

> <Gold.Id.Protein>
6NUR|6NUR_protein|mol2

> <Gold.PLP.Fitness>
47.9973

> <Gold.PLP.PLP>
-37.7360

> <Gold.PLP.part.hbond>
-3.4595

> <Gold.PLP.part.metal>
0.0000

> <Gold.PLP.part.buried>
-1.8192

> <Gold.PLP.part.nonpolar>
-34.7433

> <Gold.PLP.part.repulsive>
2.3988

> <Gold.PLP.ligand.clash>
0.0000

> <Gold.PLP.ligand.torsion>
0.7325

> <Gold.PLP.Chemscore.Hbond>
2.9520

> <Gold.PLP.Chemscore.CHOScore>
0.9368

> <Gold.PLP.Chemscore.Metal>
0.0000

> <Gold.Chemscore.Hbonds>
donor molecule, donor type, donor heavy atom, donor atom, acceptor molecule, acceptor atom, score
      L1  H     9    28       P1  7948  1.00
      L1  H    12    29       P1  7948  0.94
      P1  H  7989  7998       L1     4  0.91
      L1  C     5    25       P1  8028  0.89

> <Gold.PLP.Chemscore.Internal.Correction>
0.0598

> <Gold.Rescore>
     Score         DG    S(hbond)    S(metal)    S(lipo)     H(rot)  DE(clash)    DE(int)     intcor
     16.04     -19.51       2.18        0.00      95.09       1.71       1.39       2.09       ----

> <Gold.Chemscore.Fitness>
16.0357

> <Gold.Chemscore.DG>
-19.5128

> <Gold.Chemscore.ZeroCoef>
-5.4800

> <Gold.Chemscore.Hbond>
2.1817

> <Gold.Chemscore.Metal>
0.0000

> <Gold.Chemscore.Lipo>
95.0873

> <Gold.Chemscore.Internal_Hbond>
0.0000

> <Gold.Chemscore.DEClash>
1.3888

> <Gold.Chemscore.DEInternal>
2.0883

> <Gold.Chemscore.Rot>
1.7107

> <Gold.Chemscore.Internal.Correction>
   9.000000E+99

> <Gold.Chemscore.Hbonds>
donor molecule, donor type, donor heavy atom, donor atom, acceptor molecule, acceptor atom, score
      L1  H     9    28       P1  7948  0.97
      L1  H    12    29       P1  7948  0.92
      P1  H  7989  7998       L1     4  0.35

> <Gold.Chemscore.Hbond.Weighted>
-7.2870

> <Gold.Chemscore.Metal.Weighted>
-0.0000

> <Gold.Chemscore.Lipo.Weighted>
-11.1252

> <Gold.Chemscore.Internal_Hbond.Weighted>
0.0000

> <Gold.Chemscore.DEClash.Weighted>
1.3888

> <Gold.Chemscore.DEInternal.Weighted>
2.0883

> <Gold.Chemscore.Rot.Weighted>
4.3794

> <Gold.Chemscore.Internal.Correction.Weighted>
   9.000000E+99

> <Gold.Protein.RotatedTorsions>
[ 6907 6896 6895 6894 ] final  132.95 input  -60.11 | X-H torsion
[ 7974 7965 7964 7962 ] final   96.85 input  175.53 | X-H torsion
[ 8008 7997 7996 7995 ] final   55.29 input   59.86 | X-H torsion
[ 10167 10162 10161 10158 ] final -151.61 input  -65.29 | X-H torsion
[ 10718 10713 10712 10709 ] final -103.13 input   66.30 | X-H torsion
[ 10763 10752 10751 10750 ] final -169.85 input  -60.55 | X-H torsion
[ 11005 11000 10999 10996 ] final  -76.36 input  -57.11 | X-H torsion

> <Gold.Protein.ActiveResidues>
 VAL166  LYS551  ARG553  GLY616  TRP617  ASP618  TYR619  PRO620  LYS621  CYS622 
 ASP623  PHE694  ASN695  SER759  ASP760  ASP761  ALA762  ILE779  LEU786  VAL792 
 PHE793  MET794  SER795  GLU796  ALA797  LYS798  CYS799  TRP800  GLU811  SER814 

> <Gold.Protein.RotatedAtoms>
  152.3271  133.5917  159.5783 H   0  0  0  0  0  0  0  0  0  0  0  0  # atno 6907 bound_to 6896
  150.7403  133.9924  159.3620 H   0  0  0  0  0  0  0  0  0  0  0  0  # atno 6908 bound_to 6896
  151.7802  135.0764  160.0423 H   0  0  0  0  0  0  0  0  0  0  0  0  # atno 6909 bound_to 6896
  145.4333  139.2308  143.3132 H   0  0  0  0  0  0  0  0  0  0  0  0  # atno 7974 bound_to 7965
  155.4986  140.3473  155.4367 H   0  0  0  0  0  0  0  0  0  0  0  0  # atno 8008 bound_to 7997
  156.0929  140.1415  156.9597 H   0  0  0  0  0  0  0  0  0  0  0  0  # atno 8009 bound_to 7997
  154.4645  140.0922  156.6962 H   0  0  0  0  0  0  0  0  0  0  0  0  # atno 8010 bound_to 7997
  139.7253  143.8893  152.2517 H   0  0  0  0  0  0  0  0  0  0  0  0  # atno 10167 bound_to 10162
  156.0254  130.5453  150.7209 H   0  0  0  0  0  0  0  0  0  0  0  0  # atno 10718 bound_to 10713
  154.6479  135.2907  155.0023 H   0  0  0  0  0  0  0  0  0  0  0  0  # atno 10763 bound_to 10752
  154.1127  135.6560  153.4892 H   0  0  0  0  0  0  0  0  0  0  0  0  # atno 10764 bound_to 10752
  153.0361  135.5269  154.7374 H   0  0  0  0  0  0  0  0  0  0  0  0  # atno 10765 bound_to 10752
  141.1653  133.6981  156.7658 H   0  0  0  0  0  0  0  0  0  0  0  0  # atno 11005 bound_to 11000
  146.2595  140.5073  142.8859 LP  0  0  0  0  0  0  0  0  0  0  0  0  # atno 17320 bound_to 7965
  144.8168  140.6482  143.6379 LP  0  0  0  0  0  0  0  0  0  0  0  0  # atno 17321 bound_to 7965
  139.8801  144.7022  150.8888 LP  0  0  0  0  0  0  0  0  0  0  0  0  # atno 17342 bound_to 10162
  140.7761  143.3668  151.1723 LP  0  0  0  0  0  0  0  0  0  0  0  0  # atno 17343 bound_to 10162
  157.4825  131.0903  151.0520 LP  0  0  0  0  0  0  0  0  0  0  0  0  # atno 17370 bound_to 10713
  157.0950  130.5958  149.5448 LP  0  0  0  0  0  0  0  0  0  0  0  0  # atno 17371 bound_to 10713
  140.2501  134.8547  157.3658 LP  0  0  0  0  0  0  0  0  0  0  0  0  # atno 17394 bound_to 11000
  140.1711  134.4607  155.7831 LP  0  0  0  0  0  0  0  0  0  0  0  0  # atno 17395 bound_to 11000

$$$$
