AV-unprocessed.smi:21|AV-procd|sdf|130|dock2
  -GOLD-   2262015313D 1   1.00000     0.00000
 Structure written by MMmdl.
 62 65  0  0  0  0  0  0  0  0  2 V2000
  146.1071  132.2028  150.1067 C   0  0  0  0  0  0  0  0  0  0  0  0
  146.7855  131.7496  151.2668 O   0  0  0  0  0  0  0  0  0  0  0  0
  147.5994  132.7434  151.8710 C   0  0  2  0  0  0  0  0  0  0  0  0
  148.3247  132.1720  153.0832 C   0  0  0  0  0  0  0  0  0  0  0  0
  148.6375  133.3956  153.9640 C   0  0  1  0  0  0  0  0  0  0  0  0
  150.0861  133.9090  153.8122 C   0  0  0  0  0  0  0  0  0  0  0  0
  150.8553  133.8637  155.0557 N   0  0  0  0  0  0  0  0  0  0  0  0
  150.7931  132.6532  155.8742 C   0  0  0  0  0  0  0  0  0  0  0  0
  151.4549  134.9798  155.5664 C   0  0  0  0  0  0  0  0  0  0  0  0
  152.5209  134.8105  156.3954 N   0  0  0  0  0  0  0  0  0  0  0  0
  153.1519  135.8575  156.9313 C   0  0  0  0  0  0  0  0  0  0  0  0
  152.8915  137.1544  156.7739 N   0  0  0  0  0  0  0  0  0  0  0  0
  151.8299  137.3448  155.9416 C   0  0  0  0  0  0  0  0  0  0  0  0
  151.0597  136.3292  155.3008 C   0  0  0  0  0  0  0  0  0  0  0  0
  150.0690  136.9295  154.5284 N   0  0  0  0  0  0  0  0  0  0  0  0
  150.2448  138.2106  154.6986 C   0  0  0  0  0  0  0  0  0  0  0  0
  151.2863  138.5486  155.5286 N   0  0  0  0  0  0  0  0  0  0  0  0
  151.7066  139.8930  155.8874 C   0  0  0  0  0  0  0  0  0  0  0  0
  150.5802  140.7393  156.5339 C   0  0  2  0  0  0  0  0  0  0  0  0
  149.5882  141.2644  155.4637 C   0  0  0  0  0  0  0  0  0  0  0  0
  148.3912  141.7380  156.0434 O   0  0  0  0  0  0  0  0  0  0  0  0
  151.1936  141.8885  157.3815 C   0  0  1  0  0  0  0  0  0  0  0  0
  150.2203  142.6591  158.2577 C   0  0  0  0  0  0  0  0  0  0  0  0
  151.1495  143.3468  159.2505 C   0  0  0  0  0  0  0  0  0  0  0  0
  152.2337  142.4470  159.4417 O   0  0  0  0  0  0  0  0  0  0  0  0
  152.2062  141.4343  158.4409 C   0  0  0  0  0  0  0  0  0  0  0  0
  147.6875  134.4533  153.5343 N   0  3  2  0  0  0  0  0  0  0  0  0
  146.9636  135.1183  154.6389 C   0  0  0  0  0  0  0  0  0  0  0  0
  146.8027  133.8886  152.4938 C   0  0  0  0  0  0  0  0  0  0  0  0
  148.3359  133.1309  151.1642 H   0  0  0  0  0  0  0  0  0  0  0  0
  148.4497  133.1314  155.0059 H   0  0  0  0  0  0  0  0  0  0  0  0
  145.5271  131.3839  149.6818 H   0  0  0  0  0  0  0  0  0  0  0  0
  146.8100  132.5451  149.3463 H   0  0  0  0  0  0  0  0  0  0  0  0
  145.4174  133.0150  150.3374 H   0  0  0  0  0  0  0  0  0  0  0  0
  147.6525  131.5063  153.6266 H   0  0  0  0  0  0  0  0  0  0  0  0
  149.1988  131.5854  152.8047 H   0  0  0  0  0  0  0  0  0  0  0  0
  150.5961  133.3105  153.0568 H   0  0  0  0  0  0  0  0  0  0  0  0
  150.1010  134.9208  153.4110 H   0  0  0  0  0  0  0  0  0  0  0  0
  151.7927  132.3512  156.1889 H   0  0  0  0  0  0  0  0  0  0  0  0
  150.3565  131.8197  155.3239 H   0  0  0  0  0  0  0  0  0  0  0  0
  150.1858  132.8180  156.7649 H   0  0  0  0  0  0  0  0  0  0  0  0
  153.9864  135.6228  157.5755 H   0  0  0  0  0  0  0  0  0  0  0  0
  149.6203  138.9489  154.2166 H   0  0  0  0  0  0  0  0  0  0  0  0
  152.5534  139.7910  156.5656 H   0  0  0  0  0  0  0  0  0  0  0  0
  152.0878  140.3926  154.9959 H   0  0  0  0  0  0  0  0  0  0  0  0
  150.0290  140.0777  157.2044 H   0  0  0  0  0  0  0  0  0  0  0  0
  150.0448  142.0536  154.8657 H   0  0  0  0  0  0  0  0  0  0  0  0
  149.2912  140.4794  154.7701 H   0  0  0  0  0  0  0  0  0  0  0  0
  148.4017  142.6830  156.0241 H   0  0  0  0  0  0  0  0  0  0  0  0
  151.6884  142.5990  156.7170 H   0  0  0  0  0  0  0  0  0  0  0  0
  149.6122  143.3746  157.7037 H   0  0  0  0  0  0  0  0  0  0  0  0
  149.5527  141.9738  158.7823 H   0  0  0  0  0  0  0  0  0  0  0  0
  151.5381  144.2740  158.8275 H   0  0  0  0  0  0  0  0  0  0  0  0
  150.6548  143.5838  160.1925 H   0  0  0  0  0  0  0  0  0  0  0  0
  151.8849  140.5028  158.9091 H   0  0  0  0  0  0  0  0  0  0  0  0
  153.2017  141.2769  158.0254 H   0  0  0  0  0  0  0  0  0  0  0  0
  146.3530  134.4058  155.1951 H   0  0  0  0  0  0  0  0  0  0  0  0
  146.3106  135.9001  154.2500 H   0  0  0  0  0  0  0  0  0  0  0  0
  147.6663  135.5823  155.3311 H   0  0  0  0  0  0  0  0  0  0  0  0
  146.5082  134.6455  151.7663 H   0  0  0  0  0  0  0  0  0  0  0  0
  145.8960  133.4937  152.9562 H   0  0  0  0  0  0  0  0  0  0  0  0
  148.2466  135.1591  153.0767 H   0  0  0  0  0  0  0  0  0  0  0  0
  1  2  1  0  0  0  0
  1 32  1  0  0  0  0
  1 33  1  0  0  0  0
  1 34  1  0  0  0  0
  2  3  1  0  0  0  0
  3 30  1  0  0  0  0
  3 29  1  0  0  0  0
  3  4  1  0  0  0  0
  4  5  1  0  0  0  0
  4 35  1  0  0  0  0
  4 36  1  0  0  0  0
  5 31  1  0  0  0  0
  5  6  1  0  0  0  0
  5 27  1  0  0  0  0
  6  7  1  0  0  0  0
  6 37  1  0  0  0  0
  6 38  1  0  0  0  0
  7  8  1  0  0  0  0
  7  9  1  0  0  0  0
  8 39  1  0  0  0  0
  8 40  1  0  0  0  0
  8 41  1  0  0  0  0
  9 14  1  0  0  0  0
  9 10  2  0  0  0  0
 10 11  1  0  0  0  0
 11 12  2  0  0  0  0
 11 42  1  0  0  0  0
 12 13  1  0  0  0  0
 13 17  1  0  0  0  0
 13 14  2  0  0  0  0
 14 15  1  0  0  0  0
 15 16  2  0  0  0  0
 16 17  1  0  0  0  0
 16 43  1  0  0  0  0
 17 18  1  0  0  0  0
 18 19  1  0  0  0  0
 18 44  1  0  0  0  0
 18 45  1  0  0  0  0
 19 20  1  0  0  0  0
 19 22  1  0  0  0  0
 19 46  1  0  0  0  0
 20 21  1  0  0  0  0
 20 47  1  0  0  0  0
 20 48  1  0  0  0  0
 21 49  1  0  0  0  0
 22 26  1  0  0  0  0
 22 23  1  0  0  0  0
 22 50  1  0  0  0  0
 23 24  1  0  0  0  0
 23 51  1  0  0  0  0
 23 52  1  0  0  0  0
 24 25  1  0  0  0  0
 24 53  1  0  0  0  0
 24 54  1  0  0  0  0
 25 26  1  0  0  0  0
 26 55  1  0  0  0  0
 26 56  1  0  0  0  0
 27 28  1  0  0  0  0
 27 29  1  0  0  0  0
 27 62  1  0  0  0  0
 28 57  1  0  0  0  0
 28 58  1  0  0  0  0
 28 59  1  0  0  0  0
 29 60  1  0  0  0  0
 29 61  1  0  0  0  0
M  CHG  1  27   1
M  END
> <s_m_source_file>
AV-unprocessed.smi

> <i_m_source_file_index>
21

> <i_lp_mmshare_version>
43012

> <i_f3d_flags>
0

> <s_epik_input>
W0NIM11PW0NASF0xW0NIMl1bQ0BIXShOKFtDSDNdKVtDSDJdMSlbQ0gyXU4oW0NIM10pYyhuW2NIXW4yKWMoYzIzKW5bY0hdbjNbQ0gyXVtDQEhdKFtDSDJdW09IXSlbQ0BASF00W0NIMl1bQ0gyXU9bQ0gyXTQ=

> <s_epik_cmdline>
J2VwaWtfcHl0aG9uJywgJy1waCcsICc3LjAnLCAnLXRuJywgJzgnLCAnLW1hJywgJzIwMCcsICctbWV0YWxfYmluZGluZycsICctaW1hZScsICc8aW5maWxlLm1hZT4nLCAnLW9tYWUnLCAnPG91dGZpbGUubWFlPic=

> <r_lp_tautomer_probability>
1

> <r_epik_Ionization_Penalty>
0.0157465

> <r_epik_Ionization_Penalty_Charging>
0.015354

> <r_epik_Ionization_Penalty_Neutral>
0.000392529

> <r_epik_State_Penalty>
0.0120612

> <r_epik_Charging_Adjusted_Penalty>
0.0274152

> <i_epik_Tot_Q>
1

> <i_epik_Tot_abs_Q>
1

> <r_epik_Metal_State_Penalty>
0.0121253

> <b_epik_Metal_Only>
0

> <s_lp_Force_Field>
OPLS_2005

> <r_lp_Energy>
59.1571

> <b_lp_Chiralities_Consistent>
1

> <s_lp_Variant>
AV-unprocessed.smi:21-10

> <Gold.Version>
5.8.1

> <Gold.Id.Protein>
6NUR|6NUR_protein|mol2

> <Gold.PLP.Fitness>
50.1892

> <Gold.PLP.PLP>
-43.5758

> <Gold.PLP.part.hbond>
-3.3805

> <Gold.PLP.part.metal>
0.0000

> <Gold.PLP.part.buried>
-5.2742

> <Gold.PLP.part.nonpolar>
-36.0333

> <Gold.PLP.part.repulsive>
0.4953

> <Gold.PLP.ligand.clash>
0.0000

> <Gold.PLP.ligand.torsion>
1.5407

> <Gold.PLP.Chemscore.Hbond>
3.0000

> <Gold.PLP.Chemscore.CHOScore>
0.0000

> <Gold.PLP.Chemscore.Metal>
0.0000

> <Gold.Chemscore.Hbonds>
donor molecule, donor type, donor heavy atom, donor atom, acceptor molecule, acceptor atom, score
      L1  H    21    49       P1  8028  0.80
      L1  H    27    62       P1  7948  2.00

> <Gold.PLP.Chemscore.Internal.Correction>
0.6947

> <Gold.Rescore>
     Score         DG    S(hbond)    S(metal)    S(lipo)     H(rot)  DE(clash)    DE(int)     intcor
     14.76     -16.32       2.00        0.00     103.01       3.08       0.06       1.50       ----

> <Gold.Chemscore.Fitness>
14.7562

> <Gold.Chemscore.DG>
-16.3229

> <Gold.Chemscore.ZeroCoef>
-5.4800

> <Gold.Chemscore.Hbond>
1.9954

> <Gold.Chemscore.Metal>
0.0000

> <Gold.Chemscore.Lipo>
103.0136

> <Gold.Chemscore.Internal_Hbond>
0.0000

> <Gold.Chemscore.DEClash>
0.0627

> <Gold.Chemscore.DEInternal>
1.5040

> <Gold.Chemscore.Rot>
3.0758

> <Gold.Chemscore.Internal.Correction>
   9.000000E+99

> <Gold.Chemscore.Hbonds>
donor molecule, donor type, donor heavy atom, donor atom, acceptor molecule, acceptor atom, score
      L1  H    21    49       P1  8028  0.76
      L1  H    27    62       P1  7948  0.96

> <Gold.Chemscore.Hbond.Weighted>
-6.6645

> <Gold.Chemscore.Metal.Weighted>
-0.0000

> <Gold.Chemscore.Lipo.Weighted>
-12.0526

> <Gold.Chemscore.Internal_Hbond.Weighted>
0.0000

> <Gold.Chemscore.DEClash.Weighted>
0.0627

> <Gold.Chemscore.DEInternal.Weighted>
1.5040

> <Gold.Chemscore.Rot.Weighted>
7.8741

> <Gold.Chemscore.Internal.Correction.Weighted>
   9.000000E+99

> <Gold.Protein.RotatedTorsions>
[ 6907 6896 6895 6894 ] final -158.00 input  -60.11 | X-H torsion
[ 7974 7965 7964 7962 ] final    1.92 input  175.53 | X-H torsion
[ 8008 7997 7996 7995 ] final  -25.65 input   59.86 | X-H torsion
[ 10167 10162 10161 10158 ] final  -61.43 input  -65.29 | X-H torsion
[ 10718 10713 10712 10709 ] final   15.03 input   66.30 | X-H torsion
[ 10763 10752 10751 10750 ] final -165.75 input  -60.55 | X-H torsion
[ 11005 11000 10999 10996 ] final   20.56 input  -57.11 | X-H torsion

> <Gold.Protein.ActiveResidues>
 VAL166  LYS551  ARG553  GLY616  TRP617  ASP618  TYR619  PRO620  LYS621  CYS622 
 ASP623  PHE694  ASN695  SER759  ASP760  ASP761  ALA762  ILE779  LEU786  VAL792 
 PHE793  MET794  SER795  GLU796  ALA797  LYS798  CYS799  TRP800  GLU811  SER814 

> <Gold.Protein.RotatedAtoms>
  151.3115  133.4078  159.2647 H   0  0  0  0  0  0  0  0  0  0  0  0  # atno 6907 bound_to 6896
  151.0110  134.9397  159.8017 H   0  0  0  0  0  0  0  0  0  0  0  0  # atno 6908 bound_to 6896
  152.5300  134.3080  159.9155 H   0  0  0  0  0  0  0  0  0  0  0  0  # atno 6909 bound_to 6896
  146.2442  140.0914  142.8352 H   0  0  0  0  0  0  0  0  0  0  0  0  # atno 7974 bound_to 7965
  154.4465  140.1921  156.0652 H   0  0  0  0  0  0  0  0  0  0  0  0  # atno 8008 bound_to 7997
  156.0553  140.3303  155.7371 H   0  0  0  0  0  0  0  0  0  0  0  0  # atno 8009 bound_to 7997
  155.5495  140.0593  157.2843 H   0  0  0  0  0  0  0  0  0  0  0  0  # atno 8010 bound_to 7997
  140.6006  143.2360  151.5937 H   0  0  0  0  0  0  0  0  0  0  0  0  # atno 10167 bound_to 10162
  157.0476  130.6257  149.5762 H   0  0  0  0  0  0  0  0  0  0  0  0  # atno 10718 bound_to 10713
  154.6901  135.2969  154.9491 H   0  0  0  0  0  0  0  0  0  0  0  0  # atno 10763 bound_to 10752
  154.0457  135.6651  153.4799 H   0  0  0  0  0  0  0  0  0  0  0  0  # atno 10764 bound_to 10752
  153.0606  135.5118  154.7989 H   0  0  0  0  0  0  0  0  0  0  0  0  # atno 10765 bound_to 10752
  140.4013  134.1716  155.7664 H   0  0  0  0  0  0  0  0  0  0  0  0  # atno 11005 bound_to 11000
  145.0647  140.9113  143.4917 LP  0  0  0  0  0  0  0  0  0  0  0  0  # atno 17320 bound_to 7965
  145.1036  139.2805  143.5673 LP  0  0  0  0  0  0  0  0  0  0  0  0  # atno 17321 bound_to 7965
  139.5288  144.2977  152.1099 LP  0  0  0  0  0  0  0  0  0  0  0  0  # atno 17342 bound_to 10162
  140.2157  144.4517  150.6365 LP  0  0  0  0  0  0  0  0  0  0  0  0  # atno 17343 bound_to 10162
  156.0018  130.5098  150.7689 LP  0  0  0  0  0  0  0  0  0  0  0  0  # atno 17370 bound_to 10713
  157.5055  131.0922  151.0262 LP  0  0  0  0  0  0  0  0  0  0  0  0  # atno 17371 bound_to 10713
  141.1856  133.8320  157.1100 LP  0  0  0  0  0  0  0  0  0  0  0  0  # atno 17394 bound_to 11000
  140.0334  134.9890  157.0825 LP  0  0  0  0  0  0  0  0  0  0  0  0  # atno 17395 bound_to 11000

$$$$
