AV-unprocessed.smi:2800|AV-procd|sdf|10795|dock3
  -GOLD-   2272015233D 1   1.00000     0.00000
 Structure written by MMmdl.
 52 53  0  0  0  0  0  0  0  0  2 V2000
  155.2499  140.5329  162.2699 C   0  0  0  0  0  0  0  0  0  0  0  0
  154.2236  140.4781  161.1530 C   0  0  0  0  0  0  0  0  0  0  0  0
  153.6584  141.6450  160.7708 N   0  3  0  0  0  0  0  0  0  0  0  0
  152.7271  141.7511  159.7939 C   0  0  0  0  0  0  0  0  0  0  0  0
  152.2107  143.0249  159.4889 N   0  0  0  0  0  0  0  0  0  0  0  0
  152.6579  144.2137  160.1960 C   0  0  0  0  0  0  0  0  0  0  0  0
  152.0217  145.3792  159.4390 C   0  0  0  0  0  0  0  0  0  0  0  0
  151.9590  144.8670  158.0004 C   0  0  0  0  0  0  0  0  0  0  0  0
  151.7347  143.3586  158.1522 C   0  0  0  0  0  0  0  0  0  0  0  0
  152.3276  140.5771  159.1149 C   0  0  0  0  0  0  0  0  0  0  0  0
  152.8891  139.3353  159.4742 C   0  0  0  0  0  0  0  0  0  0  0  0
  153.8430  139.2708  160.5204 C   0  0  0  0  0  0  0  0  0  0  0  0
  154.4638  138.0611  160.9417 N   0  0  0  0  0  0  0  0  0  0  0  0
  154.0630  136.7947  160.7372 C   0  0  0  0  0  0  0  0  0  0  0  0
  153.0624  136.4574  160.1054 O   0  0  0  0  0  0  0  0  0  0  0  0
  154.8915  135.9247  161.3324 N   0  0  0  0  0  0  0  0  0  0  0  0
  154.7698  134.4648  161.3004 C   0  0  2  0  0  0  0  0  0  0  0  0
  155.4030  133.8654  162.5839 C   0  0  0  0  0  0  0  0  0  0  0  0
  154.8346  134.4291  163.7475 O   0  0  0  0  0  0  0  0  0  0  0  0
  155.3120  133.8996  159.9449 C   0  0  0  0  0  0  0  0  0  0  0  0
  154.5338  134.5415  158.7741 C   0  0  0  0  0  0  0  0  0  0  0  0
  155.1008  132.3738  159.8597 C   0  0  0  0  0  0  0  0  0  0  0  0
  156.8145  134.2047  159.7463 C   0  0  0  0  0  0  0  0  0  0  0  0
  153.7006  134.2426  161.3339 H   0  0  0  0  0  0  0  0  0  0  0  0
  156.2141  140.1654  161.9176 H   0  0  0  0  0  0  0  0  0  0  0  0
  154.9308  139.9149  163.1096 H   0  0  0  0  0  0  0  0  0  0  0  0
  155.3887  141.5516  162.6340 H   0  0  0  0  0  0  0  0  0  0  0  0
  152.3515  144.2007  161.2424 H   0  0  0  0  0  0  0  0  0  0  0  0
  153.7461  144.2757  160.1530 H   0  0  0  0  0  0  0  0  0  0  0  0
  151.0114  145.5555  159.8111 H   0  0  0  0  0  0  0  0  0  0  0  0
  152.5848  146.3076  159.5375 H   0  0  0  0  0  0  0  0  0  0  0  0
  151.1832  145.3531  157.4082 H   0  0  0  0  0  0  0  0  0  0  0  0
  152.9166  145.0470  157.5094 H   0  0  0  0  0  0  0  0  0  0  0  0
  152.2574  142.8071  157.3701 H   0  0  0  0  0  0  0  0  0  0  0  0
  150.6729  143.1178  158.0891 H   0  0  0  0  0  0  0  0  0  0  0  0
  151.6000  140.6105  158.3177 H   0  0  0  0  0  0  0  0  0  0  0  0
  152.5820  138.4580  158.9269 H   0  0  0  0  0  0  0  0  0  0  0  0
  155.2687  138.1760  161.5401 H   0  0  0  0  0  0  0  0  0  0  0  0
  155.6842  136.2950  161.8356 H   0  0  0  0  0  0  0  0  0  0  0  0
  155.3221  132.7803  162.6191 H   0  0  0  0  0  0  0  0  0  0  0  0
  156.4686  134.0921  162.6306 H   0  0  0  0  0  0  0  0  0  0  0  0
  154.3180  133.7668  164.1805 H   0  0  0  0  0  0  0  0  0  0  0  0
  154.8430  134.1251  157.8148 H   0  0  0  0  0  0  0  0  0  0  0  0
  154.6910  135.6189  158.7181 H   0  0  0  0  0  0  0  0  0  0  0  0
  153.4607  134.3714  158.8702 H   0  0  0  0  0  0  0  0  0  0  0  0
  154.0568  132.1065  160.0263 H   0  0  0  0  0  0  0  0  0  0  0  0
  155.7025  131.8390  160.5948 H   0  0  0  0  0  0  0  0  0  0  0  0
  155.3845  131.9880  158.8800 H   0  0  0  0  0  0  0  0  0  0  0  0
  157.1653  133.8310  158.7836 H   0  0  0  0  0  0  0  0  0  0  0  0
  157.4333  133.7351  160.5099 H   0  0  0  0  0  0  0  0  0  0  0  0
  157.0215  135.2749  159.7664 H   0  0  0  0  0  0  0  0  0  0  0  0
  153.9504  142.4970  161.2498 H   0  0  0  0  0  0  0  0  0  0  0  0
  1  2  1  0  0  0  0
  1 25  1  0  0  0  0
  1 26  1  0  0  0  0
  1 27  1  0  0  0  0
  2 12  1  0  0  0  0
  2  3  2  0  0  0  0
  3  4  1  0  0  0  0
  3 52  1  0  0  0  0
  4  5  1  0  0  0  0
  4 10  2  0  0  0  0
  5  9  1  0  0  0  0
  5  6  1  0  0  0  0
  6  7  1  0  0  0  0
  6 28  1  0  0  0  0
  6 29  1  0  0  0  0
  7  8  1  0  0  0  0
  7 30  1  0  0  0  0
  7 31  1  0  0  0  0
  8  9  1  0  0  0  0
  8 32  1  0  0  0  0
  8 33  1  0  0  0  0
  9 34  1  0  0  0  0
  9 35  1  0  0  0  0
 10 11  1  0  0  0  0
 10 36  1  0  0  0  0
 11 12  2  0  0  0  0
 11 37  1  0  0  0  0
 12 13  1  0  0  0  0
 13 14  1  0  0  0  0
 13 38  1  0  0  0  0
 14 15  2  0  0  0  0
 14 16  1  0  0  0  0
 16 17  1  0  0  0  0
 16 39  1  0  0  0  0
 17 24  1  0  0  0  0
 17 18  1  0  0  0  0
 17 20  1  0  0  0  0
 18 19  1  0  0  0  0
 18 40  1  0  0  0  0
 18 41  1  0  0  0  0
 19 42  1  0  0  0  0
 20 21  1  0  0  0  0
 20 22  1  0  0  0  0
 20 23  1  0  0  0  0
 21 43  1  0  0  0  0
 21 44  1  0  0  0  0
 21 45  1  0  0  0  0
 22 46  1  0  0  0  0
 22 47  1  0  0  0  0
 22 48  1  0  0  0  0
 23 49  1  0  0  0  0
 23 50  1  0  0  0  0
 23 51  1  0  0  0  0
M  CHG  1   3   1
M  END
> <s_m_source_file>
AV-unprocessed.smi

> <i_m_source_file_index>
2800

> <i_lp_mmshare_version>
43012

> <i_f3d_flags>
0

> <s_epik_input>
W0NIMl0xW0NIMl1bQ0gyXVtDSDJdTjFjKG5jMltDSDNdKVtjSF1bY0hdYzJbTkhdQyg9TylbTkhdW0NASF0oW0NIMl1bT0hdKUMoW0NIM10pKFtDSDNdKVtDSDNd

> <s_epik_cmdline>
J2VwaWtfcHl0aG9uJywgJy1waCcsICc3LjAnLCAnLXRuJywgJzgnLCAnLW1hJywgJzIwMCcsICctbWV0YWxfYmluZGluZycsICctaW1hZScsICc8aW5maWxlLm1hZT4nLCAnLW9tYWUnLCAnPG91dGZpbGUubWFlPic=

> <r_lp_tautomer_probability>
0.999994

> <r_epik_Ionization_Penalty>
0.536494

> <r_epik_Ionization_Penalty_Charging>
0.536474

> <r_epik_Ionization_Penalty_Neutral>
1.97788e-05

> <r_epik_State_Penalty>
0.545692

> <r_epik_Charging_Adjusted_Penalty>
1.08217

> <i_epik_Tot_Q>
1

> <i_epik_Tot_abs_Q>
1

> <r_epik_Metal_State_Penalty>
0.748506

> <b_epik_Metal_Only>
0

> <s_lp_Force_Field>
OPLS_2005

> <r_lp_Energy>
43.0487

> <b_lp_Chiralities_Consistent>
1

> <s_lp_Variant>
AV-unprocessed.smi:2800-3

> <Gold.Version>
5.8.1

> <Gold.Id.Protein>
6NUR|6NUR_protein|mol2

> <Gold.PLP.Fitness>
42.3325

> <Gold.PLP.PLP>
-40.1817

> <Gold.PLP.part.hbond>
-1.0000

> <Gold.PLP.part.metal>
0.0000

> <Gold.PLP.part.buried>
-5.4808

> <Gold.PLP.part.nonpolar>
-33.4831

> <Gold.PLP.part.repulsive>
0.0820

> <Gold.PLP.ligand.clash>
0.0000

> <Gold.PLP.ligand.torsion>
0.5848

> <Gold.PLP.Chemscore.Hbond>
1.0000

> <Gold.PLP.Chemscore.CHOScore>
0.0000

> <Gold.PLP.Chemscore.Metal>
0.0000

> <Gold.Chemscore.Hbonds>
donor molecule, donor type, donor heavy atom, donor atom, acceptor molecule, acceptor atom, score
      P1  H  6896  6908       L1    15  1.00

> <Gold.PLP.Chemscore.Internal.Correction>
0.3204

> <Gold.Rescore>
     Score         DG    S(hbond)    S(metal)    S(lipo)     H(rot)  DE(clash)    DE(int)     intcor
     14.30     -16.02       1.00        0.00     104.20       1.95       0.04       1.68       ----

> <Gold.Chemscore.Fitness>
14.3009

> <Gold.Chemscore.DG>
-16.0188

> <Gold.Chemscore.ZeroCoef>
-5.4800

> <Gold.Chemscore.Hbond>
0.9999

> <Gold.Chemscore.Metal>
0.0000

> <Gold.Chemscore.Lipo>
104.1960

> <Gold.Chemscore.Internal_Hbond>
0.0000

> <Gold.Chemscore.DEClash>
0.0423

> <Gold.Chemscore.DEInternal>
1.6756

> <Gold.Chemscore.Rot>
1.9499

> <Gold.Chemscore.Internal.Correction>
   9.000000E+99

> <Gold.Chemscore.Hbonds>
donor molecule, donor type, donor heavy atom, donor atom, acceptor molecule, acceptor atom, score
      P1  H  6896  6908       L1    15  1.00

> <Gold.Chemscore.Hbond.Weighted>
-3.3395

> <Gold.Chemscore.Metal.Weighted>
-0.0000

> <Gold.Chemscore.Lipo.Weighted>
-12.1909

> <Gold.Chemscore.Internal_Hbond.Weighted>
0.0000

> <Gold.Chemscore.DEClash.Weighted>
0.0423

> <Gold.Chemscore.DEInternal.Weighted>
1.6756

> <Gold.Chemscore.Rot.Weighted>
4.9916

> <Gold.Chemscore.Internal.Correction.Weighted>
   9.000000E+99

> <Gold.Protein.RotatedTorsions>
[ 6907 6896 6895 6894 ] final  -89.33 input  -60.11 | X-H torsion
[ 7974 7965 7964 7962 ] final -121.81 input  175.53 | X-H torsion
[ 8008 7997 7996 7995 ] final  -47.70 input   59.86 | X-H torsion
[ 10167 10162 10161 10158 ] final -148.76 input  -65.29 | X-H torsion
[ 10718 10713 10712 10709 ] final  145.01 input   66.30 | X-H torsion
[ 10763 10752 10751 10750 ] final -140.57 input  -60.55 | X-H torsion
[ 11005 11000 10999 10996 ] final   46.44 input  -57.11 | X-H torsion

> <Gold.Protein.ActiveResidues>
 VAL166  LYS551  ARG553  GLY616  TRP617  ASP618  TYR619  PRO620  LYS621  CYS622 
 ASP623  PHE694  ASN695  SER759  ASP760  ASP761  ALA762  ILE779  LEU786  VAL792 
 PHE793  MET794  SER795  GLU796  ALA797  LYS798  CYS799  TRP800  GLU811  SER814 

> <Gold.Protein.RotatedAtoms>
  150.6873  134.2603  159.4546 H   0  0  0  0  0  0  0  0  0  0  0  0  # atno 6907 bound_to 6896
  152.0534  134.9637  160.0584 H   0  0  0  0  0  0  0  0  0  0  0  0  # atno 6908 bound_to 6896
  152.1092  133.4257  159.4660 H   0  0  0  0  0  0  0  0  0  0  0  0  # atno 6909 bound_to 6896
  145.0363  140.8108  143.4293 H   0  0  0  0  0  0  0  0  0  0  0  0  # atno 7974 bound_to 7965
  154.4020  140.1340  156.4217 H   0  0  0  0  0  0  0  0  0  0  0  0  # atno 8008 bound_to 7997
  155.7636  140.3485  155.5190 H   0  0  0  0  0  0  0  0  0  0  0  0  # atno 8009 bound_to 7997
  155.8835  140.0991  157.1459 H   0  0  0  0  0  0  0  0  0  0  0  0  # atno 8010 bound_to 7997
  139.7502  143.8529  152.2584 H   0  0  0  0  0  0  0  0  0  0  0  0  # atno 10167 bound_to 10162
  157.3503  131.0949  151.1005 H   0  0  0  0  0  0  0  0  0  0  0  0  # atno 10718 bound_to 10713
  154.8574  135.3549  154.5728 H   0  0  0  0  0  0  0  0  0  0  0  0  # atno 10763 bound_to 10752
  153.6340  135.7001  153.5270 H   0  0  0  0  0  0  0  0  0  0  0  0  # atno 10764 bound_to 10752
  153.3026  135.4202  155.1225 H   0  0  0  0  0  0  0  0  0  0  0  0  # atno 10765 bound_to 10752
  140.1368  134.4634  155.8479 H   0  0  0  0  0  0  0  0  0  0  0  0  # atno 11005 bound_to 11000
  145.1705  139.2407  143.5344 LP  0  0  0  0  0  0  0  0  0  0  0  0  # atno 17320 bound_to 7965
  146.3504  140.1455  142.8593 LP  0  0  0  0  0  0  0  0  0  0  0  0  # atno 17321 bound_to 7965
  139.8505  144.7166  150.9220 LP  0  0  0  0  0  0  0  0  0  0  0  0  # atno 17342 bound_to 10162
  140.7797  143.3903  151.1321 LP  0  0  0  0  0  0  0  0  0  0  0  0  # atno 17343 bound_to 10162
  157.2184  130.6470  149.5801 LP  0  0  0  0  0  0  0  0  0  0  0  0  # atno 17370 bound_to 10713
  155.9720  130.4637  150.6192 LP  0  0  0  0  0  0  0  0  0  0  0  0  # atno 17371 bound_to 10713
  141.2179  133.6817  156.7173 LP  0  0  0  0  0  0  0  0  0  0  0  0  # atno 17394 bound_to 11000
  140.2772  134.8346  157.3900 LP  0  0  0  0  0  0  0  0  0  0  0  0  # atno 17395 bound_to 11000

$$$$
