AV-unprocessed.smi:2889|AV-procd|sdf|11110|dock5
  -GOLD-   2272015573D 1   1.00000     0.00000
 Structure written by MMmdl.
 36 37  0  0  0  0  0  0  0  0  1 V2000
  154.2767  141.0065  160.6660 C   0  0  0  0  0  0  0  0  0  0  0  0
  153.2194  142.1051  161.6474 S   0  0  0  0  0  0  0  0  0  0  0  0
  152.9155  143.4515  160.4585 C   0  0  2  0  0  0  0  0  0  0  0  0
  151.9025  144.4628  161.0273 C   0  0  0  0  0  0  0  0  0  0  0  0
  151.6348  145.6137  160.0464 C   0  0  0  0  0  0  0  0  0  0  0  0
  151.1427  145.0804  158.6943 C   0  0  0  0  0  0  0  0  0  0  0  0
  152.1413  144.0806  158.0879 C   0  0  0  0  0  0  0  0  0  0  0  0
  152.4927  142.9364  159.0602 C   0  0  2  0  0  0  0  0  0  0  0  0
  151.3775  141.9873  159.1566 N   0  0  0  0  0  0  0  0  0  0  0  0
  151.2204  140.7702  157.9455 S   0  0  0  0  0  0  0  0  0  0  0  0
  152.5210  140.0940  157.8194 O   0  0  0  0  0  0  0  0  0  0  0  0
  150.0141  139.9889  158.2578 O   0  0  0  0  0  0  0  0  0  0  0  0
  150.9222  141.7604  156.4217 C   0  0  0  0  0  0  0  0  0  0  0  0
  149.8014  141.1448  155.6335 C   0  0  0  0  0  0  0  0  0  0  0  0
  148.4344  141.5355  155.5852 C   0  0  0  0  0  0  0  0  0  0  0  0
  147.8770  140.6389  154.7199 C   0  0  0  0  0  0  0  0  0  0  0  0
  148.8135  139.7644  154.2734 O   0  0  0  0  0  0  0  0  0  0  0  0
  150.0389  140.0948  154.8634 N   0  0  0  0  0  0  0  0  0  0  0  0
  154.5981  140.1605  161.2729 H   0  0  0  0  0  0  0  0  0  0  0  0
  155.1625  141.5383  160.3189 H   0  0  0  0  0  0  0  0  0  0  0  0
  153.7399  140.6188  159.8010 H   0  0  0  0  0  0  0  0  0  0  0  0
  153.8628  143.9805  160.3450 H   0  0  0  0  0  0  0  0  0  0  0  0
  150.9643  143.9567  161.2578 H   0  0  0  0  0  0  0  0  0  0  0  0
  152.2725  144.8670  161.9703 H   0  0  0  0  0  0  0  0  0  0  0  0
  150.8948  146.2948  160.4674 H   0  0  0  0  0  0  0  0  0  0  0  0
  152.5458  146.1962  159.9037 H   0  0  0  0  0  0  0  0  0  0  0  0
  150.1736  144.5970  158.8238 H   0  0  0  0  0  0  0  0  0  0  0  0
  150.9824  145.9091  158.0041 H   0  0  0  0  0  0  0  0  0  0  0  0
  151.7528  143.6818  157.1501 H   0  0  0  0  0  0  0  0  0  0  0  0
  153.0565  144.6151  157.8305 H   0  0  0  0  0  0  0  0  0  0  0  0
  153.3416  142.4013  158.6342 H   0  0  0  0  0  0  0  0  0  0  0  0
  151.3313  141.5801  160.0907 H   0  0  0  0  0  0  0  0  0  0  0  0
  150.6867  142.7831  156.7176 H   0  0  0  0  0  0  0  0  0  0  0  0
  151.8439  141.7855  155.8408 H   0  0  0  0  0  0  0  0  0  0  0  0
  147.9427  142.3474  156.0998 H   0  0  0  0  0  0  0  0  0  0  0  0
  146.8759  140.4976  154.3402 H   0  0  0  0  0  0  0  0  0  0  0  0
  1  2  1  0  0  0  0
  1 19  1  0  0  0  0
  1 20  1  0  0  0  0
  1 21  1  0  0  0  0
  2  3  1  0  0  0  0
  3  8  1  0  0  0  0
  3  4  1  0  0  0  0
  3 22  1  0  0  0  0
  4  5  1  0  0  0  0
  4 23  1  0  0  0  0
  4 24  1  0  0  0  0
  5  6  1  0  0  0  0
  5 25  1  0  0  0  0
  5 26  1  0  0  0  0
  6  7  1  0  0  0  0
  6 27  1  0  0  0  0
  6 28  1  0  0  0  0
  7  8  1  0  0  0  0
  7 29  1  0  0  0  0
  7 30  1  0  0  0  0
  8  9  1  0  0  0  0
  8 31  1  0  0  0  0
  9 10  1  0  0  0  0
  9 32  1  0  0  0  0
 10 11  2  0  0  0  0
 10 12  2  0  0  0  0
 10 13  1  0  0  0  0
 13 14  1  0  0  0  0
 13 33  1  0  0  0  0
 13 34  1  0  0  0  0
 14 18  2  0  0  0  0
 14 15  1  0  0  0  0
 15 16  2  0  0  0  0
 15 35  1  0  0  0  0
 16 17  1  0  0  0  0
 16 36  1  0  0  0  0
 17 18  1  0  0  0  0
M  END
> <s_m_source_file>
AV-unprocessed.smi

> <i_m_source_file_index>
2889

> <i_lp_mmshare_version>
43012

> <i_f3d_flags>
0

> <s_epik_input>
W0NIM11TW0NAQEhdMVtDSDJdW0NIMl1bQ0gyXVtDSDJdW0NASF0xW05IXVMoPU8pKD1PKVtDSDJdYzJbY0hdW2NIXW9uMg==

> <s_epik_cmdline>
J2VwaWtfcHl0aG9uJywgJy1waCcsICc3LjAnLCAnLXRuJywgJzgnLCAnLW1hJywgJzIwMCcsICctbWV0YWxfYmluZGluZycsICctaW1hZScsICc8aW5maWxlLm1hZT4nLCAnLW9tYWUnLCAnPG91dGZpbGUubWFlPic=

> <r_lp_tautomer_probability>
1

> <r_epik_Ionization_Penalty>
0.000229547

> <r_epik_Ionization_Penalty_Charging>
0

> <r_epik_Ionization_Penalty_Neutral>
0.000229547

> <r_epik_State_Penalty>
-0

> <r_epik_Charging_Adjusted_Penalty>
0

> <i_epik_Tot_Q>
0

> <i_epik_Tot_abs_Q>
0

> <r_epik_Metal_State_Penalty>
0.145979

> <b_epik_Metal_Only>
0

> <s_lp_Force_Field>
OPLS_2005

> <r_lp_Energy>
4.93405

> <b_lp_Chiralities_Consistent>
1

> <s_lp_Variant>
AV-unprocessed.smi:2889-3

> <Gold.Version>
5.8.1

> <Gold.Id.Protein>
6NUR|6NUR_protein|mol2

> <Gold.PLP.Fitness>
48.5972

> <Gold.PLP.PLP>
-44.3242

> <Gold.PLP.part.hbond>
-2.0000

> <Gold.PLP.part.metal>
0.0000

> <Gold.PLP.part.buried>
-6.9620

> <Gold.PLP.part.nonpolar>
-36.8156

> <Gold.PLP.part.repulsive>
1.1032

> <Gold.PLP.ligand.clash>
0.0000

> <Gold.PLP.ligand.torsion>
0.9505

> <Gold.PLP.Chemscore.Hbond>
2.0000

> <Gold.PLP.Chemscore.CHOScore>
0.0000

> <Gold.PLP.Chemscore.Metal>
0.0000

> <Gold.Chemscore.Hbonds>
donor molecule, donor type, donor heavy atom, donor atom, acceptor molecule, acceptor atom, score
      P1  H  7989  7998       L1    18  0.49
      P1  H  7997  8008       L1    11  0.63

> <Gold.PLP.Chemscore.Internal.Correction>
0.1740

> <Gold.Rescore>
     Score         DG    S(hbond)    S(metal)    S(lipo)     H(rot)  DE(clash)    DE(int)     intcor
     19.18     -20.53       1.73        0.00     118.63       1.81       0.24       1.11       ----

> <Gold.Chemscore.Fitness>
19.1814

> <Gold.Chemscore.DG>
-20.5297

> <Gold.Chemscore.ZeroCoef>
-5.4800

> <Gold.Chemscore.Hbond>
1.7342

> <Gold.Chemscore.Metal>
0.0000

> <Gold.Chemscore.Lipo>
118.6347

> <Gold.Chemscore.Internal_Hbond>
0.0000

> <Gold.Chemscore.DEClash>
0.2429

> <Gold.Chemscore.DEInternal>
1.1054

> <Gold.Chemscore.Rot>
1.8058

> <Gold.Chemscore.Internal.Correction>
   9.000000E+99

> <Gold.Chemscore.Hbonds>
donor molecule, donor type, donor heavy atom, donor atom, acceptor molecule, acceptor atom, score
      P1  H  7989  7998       L1    18  0.16
      P1  H  7997  8008       L1    11  0.62

> <Gold.Chemscore.Hbond.Weighted>
-5.7923

> <Gold.Chemscore.Metal.Weighted>
-0.0000

> <Gold.Chemscore.Lipo.Weighted>
-13.8803

> <Gold.Chemscore.Internal_Hbond.Weighted>
0.0000

> <Gold.Chemscore.DEClash.Weighted>
0.2429

> <Gold.Chemscore.DEInternal.Weighted>
1.1054

> <Gold.Chemscore.Rot.Weighted>
4.6228

> <Gold.Chemscore.Internal.Correction.Weighted>
   9.000000E+99

> <Gold.Protein.RotatedTorsions>
[ 6907 6896 6895 6894 ] final  169.64 input  -60.11 | X-H torsion
[ 7974 7965 7964 7962 ] final   -9.62 input  175.53 | X-H torsion
[ 8008 7997 7996 7995 ] final  -65.08 input   59.86 | X-H torsion
[ 10167 10162 10161 10158 ] final -103.69 input  -65.29 | X-H torsion
[ 10718 10713 10712 10709 ] final  123.82 input   66.30 | X-H torsion
[ 10763 10752 10751 10750 ] final  -93.12 input  -60.55 | X-H torsion
[ 11005 11000 10999 10996 ] final   20.23 input  -57.11 | X-H torsion

> <Gold.Protein.ActiveResidues>
 VAL166  LYS551  ARG553  GLY616  TRP617  ASP618  TYR619  PRO620  LYS621  CYS622 
 ASP623  PHE694  ASN695  SER759  ASP760  ASP761  ALA762  ILE779  LEU786  VAL792 
 PHE793  MET794  SER795  GLU796  ALA797  LYS798  CYS799  TRP800  GLU811  SER814 

> <Gold.Protein.RotatedAtoms>
  151.8287  133.3405  159.3606 H   0  0  0  0  0  0  0  0  0  0  0  0  # atno 6907 bound_to 6896
  150.7271  134.5504  159.5801 H   0  0  0  0  0  0  0  0  0  0  0  0  # atno 6908 bound_to 6896
  152.2952  134.7676  160.0420 H   0  0  0  0  0  0  0  0  0  0  0  0  # atno 6909 bound_to 6896
  146.2246  140.2644  142.8353 H   0  0  0  0  0  0  0  0  0  0  0  0  # atno 7974 bound_to 7965
  154.4650  140.0940  156.6996 H   0  0  0  0  0  0  0  0  0  0  0  0  # atno 8008 bound_to 7997
  155.4884  140.3470  155.4332 H   0  0  0  0  0  0  0  0  0  0  0  0  # atno 8009 bound_to 7997
  156.0940  140.1404  156.9544 H   0  0  0  0  0  0  0  0  0  0  0  0  # atno 8010 bound_to 7997
  140.2173  143.3702  152.1000 H   0  0  0  0  0  0  0  0  0  0  0  0  # atno 10167 bound_to 10162
  157.5634  131.1088  150.8497 H   0  0  0  0  0  0  0  0  0  0  0  0  # atno 10718 bound_to 10713
  154.6928  135.5206  153.8416 H   0  0  0  0  0  0  0  0  0  0  0  0  # atno 10763 bound_to 10752
  153.0644  135.6580  154.0397 H   0  0  0  0  0  0  0  0  0  0  0  0  # atno 10764 bound_to 10752
  154.0268  135.2989  155.3353 H   0  0  0  0  0  0  0  0  0  0  0  0  # atno 10765 bound_to 10752
  140.4049  134.1679  155.7665 H   0  0  0  0  0  0  0  0  0  0  0  0  # atno 11005 bound_to 11000
  144.9315  140.7980  143.5686 LP  0  0  0  0  0  0  0  0  0  0  0  0  # atno 17320 bound_to 7965
  145.2588  139.2001  143.4903 LP  0  0  0  0  0  0  0  0  0  0  0  0  # atno 17321 bound_to 7965
  139.5157  144.6967  151.5610 LP  0  0  0  0  0  0  0  0  0  0  0  0  # atno 17342 bound_to 10162
  140.6281  143.9130  150.6581 LP  0  0  0  0  0  0  0  0  0  0  0  0  # atno 17343 bound_to 10162
  156.8989  130.5239  149.5283 LP  0  0  0  0  0  0  0  0  0  0  0  0  # atno 17370 bound_to 10713
  156.0685  130.5723  150.9336 LP  0  0  0  0  0  0  0  0  0  0  0  0  # atno 17371 bound_to 10713
  141.1843  133.8347  157.1145 LP  0  0  0  0  0  0  0  0  0  0  0  0  # atno 17394 bound_to 11000
  140.0309  134.9901  157.0778 LP  0  0  0  0  0  0  0  0  0  0  0  0  # atno 17395 bound_to 11000

$$$$
