AV-unprocessed.smi:763|AV-procd|sdf|3638|dock10
  -GOLD-   22720 1 33D 1   1.00000     0.00000
 Structure written by MMmdl.
 43 44  0  0  0  0  0  0  0  0  2 V2000
  147.6144  136.3429  162.9163 C   0  0  0  0  0  0  0  0  0  0  0  0
  147.8045  137.1200  161.7474 O   0  0  0  0  0  0  0  0  0  0  0  0
  148.2703  136.3497  160.6517 C   0  0  0  0  0  0  0  0  0  0  0  0
  147.6582  136.9014  159.3545 C   0  0  0  0  0  0  0  0  0  0  0  0
  148.6080  137.6680  158.6137 O   0  0  0  0  0  0  0  0  0  0  0  0
  148.1986  138.4244  157.5282 C   0  0  0  0  0  0  0  0  0  0  0  0
  146.8664  138.5348  157.2914 N   0  0  0  0  0  0  0  0  0  0  0  0
  146.4558  139.2742  156.2435 C   0  0  0  0  0  0  0  0  0  0  0  0
  147.3435  139.9405  155.3834 C   0  0  0  0  0  0  0  0  0  0  0  0
  148.7228  139.8258  155.6330 C   0  0  0  0  0  0  0  0  0  0  0  0
  149.1859  139.0529  156.7265 C   0  0  0  0  0  0  0  0  0  0  0  0
  150.4899  138.9036  157.0164 N   0  5  0  0  0  0  0  0  0  0  0  0
  151.6922  139.8942  156.5768 S   0  0  0  0  0  0  0  0  0  0  0  0
  153.0071  139.2625  156.7651 O   0  0  0  0  0  0  0  0  0  0  0  0
  151.4352  140.5140  155.2673 O   0  0  0  0  0  0  0  0  0  0  0  0
  151.5271  141.2431  157.8495 C   0  0  2  0  0  0  0  0  0  0  0  0
  151.2314  142.5833  157.1387 C   0  0  0  0  0  0  0  0  0  0  0  0
  151.1211  143.7508  158.1285 C   0  0  0  0  0  0  0  0  0  0  0  0
  152.4048  143.8802  158.9575 C   0  0  0  0  0  0  0  0  0  0  0  0
  152.7048  142.5703  159.6976 C   0  0  0  0  0  0  0  0  0  0  0  0
  152.7954  141.3702  158.7336 C   0  0  1  0  0  0  0  0  0  0  0  0
  152.9873  140.2218  159.5347 O   0  0  0  0  0  0  0  0  0  0  0  0
  147.2517  136.9791  163.7237 H   0  0  0  0  0  0  0  0  0  0  0  0
  148.5497  135.8860  163.2421 H   0  0  0  0  0  0  0  0  0  0  0  0
  146.8780  135.5551  162.7518 H   0  0  0  0  0  0  0  0  0  0  0  0
  149.3601  136.3527  160.6101 H   0  0  0  0  0  0  0  0  0  0  0  0
  147.9545  135.3142  160.7862 H   0  0  0  0  0  0  0  0  0  0  0  0
  147.2376  136.0984  158.7478 H   0  0  0  0  0  0  0  0  0  0  0  0
  146.8156  137.5483  159.5993 H   0  0  0  0  0  0  0  0  0  0  0  0
  145.3892  139.3366  156.0872 H   0  0  0  0  0  0  0  0  0  0  0  0
  146.9781  140.5254  154.5528 H   0  0  0  0  0  0  0  0  0  0  0  0
  149.4106  140.3360  154.9751 H   0  0  0  0  0  0  0  0  0  0  0  0
  150.6797  140.9807  158.4839 H   0  0  0  0  0  0  0  0  0  0  0  0
  152.0203  142.8047  156.4190 H   0  0  0  0  0  0  0  0  0  0  0  0
  150.3072  142.5082  156.5654 H   0  0  0  0  0  0  0  0  0  0  0  0
  150.9306  144.6788  157.5889 H   0  0  0  0  0  0  0  0  0  0  0  0
  150.2674  143.5939  158.7894 H   0  0  0  0  0  0  0  0  0  0  0  0
  153.2412  144.1344  158.3052 H   0  0  0  0  0  0  0  0  0  0  0  0
  152.3069  144.6981  159.6718 H   0  0  0  0  0  0  0  0  0  0  0  0
  153.6356  142.6715  160.2574 H   0  0  0  0  0  0  0  0  0  0  0  0
  151.9204  142.3924  160.4352 H   0  0  0  0  0  0  0  0  0  0  0  0
  153.6703  141.4887  158.0931 H   0  0  0  0  0  0  0  0  0  0  0  0
  152.5595  140.3593  160.3656 H   0  0  0  0  0  0  0  0  0  0  0  0
  1  2  1  0  0  0  0
  1 23  1  0  0  0  0
  1 24  1  0  0  0  0
  1 25  1  0  0  0  0
  2  3  1  0  0  0  0
  3  4  1  0  0  0  0
  3 26  1  0  0  0  0
  3 27  1  0  0  0  0
  4  5  1  0  0  0  0
  4 28  1  0  0  0  0
  4 29  1  0  0  0  0
  5  6  1  0  0  0  0
  6 11  1  0  0  0  0
  6  7  2  0  0  0  0
  7  8  1  0  0  0  0
  8  9  2  0  0  0  0
  8 30  1  0  0  0  0
  9 10  1  0  0  0  0
  9 31  1  0  0  0  0
 10 11  2  0  0  0  0
 10 32  1  0  0  0  0
 11 12  1  0  0  0  0
 12 13  1  0  0  0  0
 13 14  2  0  0  0  0
 13 15  2  0  0  0  0
 13 16  1  0  0  0  0
 16 21  1  0  0  0  0
 16 17  1  0  0  0  0
 16 33  1  0  0  0  0
 17 18  1  0  0  0  0
 17 34  1  0  0  0  0
 17 35  1  0  0  0  0
 18 19  1  0  0  0  0
 18 36  1  0  0  0  0
 18 37  1  0  0  0  0
 19 20  1  0  0  0  0
 19 38  1  0  0  0  0
 19 39  1  0  0  0  0
 20 21  1  0  0  0  0
 20 40  1  0  0  0  0
 20 41  1  0  0  0  0
 21 22  1  0  0  0  0
 21 42  1  0  0  0  0
 22 43  1  0  0  0  0
M  CHG  1  12  -1
M  END
> <s_m_source_file>
AV-unprocessed.smi

> <i_m_source_file_index>
763

> <i_lp_mmshare_version>
43012

> <i_f3d_flags>
0

> <s_epik_input>
W0NIM11PW0NIMl1bQ0gyXU9jMW5bY0hdW2NIXVtjSF1jMVtOSF1TKD1PKSg9TylbQ0BASF0yW0NIMl1bQ0gyXVtDSDJdW0NIMl1bQ0BIXTJbT0hd

> <s_epik_cmdline>
J2VwaWtfcHl0aG9uJywgJy1waCcsICc3LjAnLCAnLXRuJywgJzgnLCAnLW1hJywgJzIwMCcsICctbWV0YWxfYmluZGluZycsICctaW1hZScsICc8aW5maWxlLm1hZT4nLCAnLW9tYWUnLCAnPG91dGZpbGUubWFlPic=

> <r_epik_Ionization_Penalty>
0.985866

> <r_epik_Ionization_Penalty_Charging>
0.984689

> <r_epik_Ionization_Penalty_Neutral>
0.00117669

> <r_epik_State_Penalty>
1.03185

> <r_epik_Charging_Adjusted_Penalty>
2.01654

> <i_epik_Tot_Q>
-1

> <i_epik_Tot_abs_Q>
1

> <r_epik_Metal_State_Penalty>
0.379327

> <b_epik_Metal_Only>
0

> <s_lp_Force_Field>
OPLS_2005

> <r_lp_Energy>
11.4471

> <b_lp_Chiralities_Consistent>
1

> <s_lp_Variant>
AV-unprocessed.smi:763-5

> <Gold.Version>
5.8.1

> <Gold.Id.Protein>
6NUR|6NUR_protein|mol2

> <Gold.PLP.Fitness>
43.1869

> <Gold.PLP.PLP>
-33.8297

> <Gold.PLP.part.hbond>
-4.0000

> <Gold.PLP.part.metal>
0.0000

> <Gold.PLP.part.buried>
-4.5375

> <Gold.PLP.part.nonpolar>
-24.3520

> <Gold.PLP.part.repulsive>
0.0220

> <Gold.PLP.ligand.clash>
0.0000

> <Gold.PLP.ligand.torsion>
1.2575

> <Gold.PLP.Chemscore.Hbond>
3.5776

> <Gold.PLP.Chemscore.CHOScore>
0.0000

> <Gold.PLP.Chemscore.Metal>
0.0000

> <Gold.Chemscore.Hbonds>
donor molecule, donor type, donor heavy atom, donor atom, acceptor molecule, acceptor atom, score
      P1  H  6931  6943       L1     2  1.00
      P1  H  6934  6947       L1     2  0.47
      P1  H  7989  7998       L1    15  0.86
      P1  H  7997  8008       L1    14  1.00

> <Gold.PLP.Chemscore.Internal.Correction>
1.1396

> <Gold.Rescore>
     Score         DG    S(hbond)    S(metal)    S(lipo)     H(rot)  DE(clash)    DE(int)     intcor
     16.29     -19.11       2.88        0.00      85.62       2.35       0.12       2.69       ----

> <Gold.Chemscore.Fitness>
16.2888

> <Gold.Chemscore.DG>
-19.1060

> <Gold.Chemscore.ZeroCoef>
-5.4800

> <Gold.Chemscore.Hbond>
2.8822

> <Gold.Chemscore.Metal>
0.0000

> <Gold.Chemscore.Lipo>
85.6204

> <Gold.Chemscore.Internal_Hbond>
0.0000

> <Gold.Chemscore.DEClash>
0.1249

> <Gold.Chemscore.DEInternal>
2.6923

> <Gold.Chemscore.Rot>
2.3509

> <Gold.Chemscore.Internal.Correction>
   9.000000E+99

> <Gold.Chemscore.Hbonds>
donor molecule, donor type, donor heavy atom, donor atom, acceptor molecule, acceptor atom, score
      P1  H  6931  6943       L1     2  0.29
      P1  H  6934  6947       L1     2  0.28
      P1  H  7989  7998       L1    15  0.85
      P1  H  7997  8008       L1    14  0.91

> <Gold.Chemscore.Hbond.Weighted>
-9.6266

> <Gold.Chemscore.Metal.Weighted>
-0.0000

> <Gold.Chemscore.Lipo.Weighted>
-10.0176

> <Gold.Chemscore.Internal_Hbond.Weighted>
0.0000

> <Gold.Chemscore.DEClash.Weighted>
0.1249

> <Gold.Chemscore.DEInternal.Weighted>
2.6923

> <Gold.Chemscore.Rot.Weighted>
6.0182

> <Gold.Chemscore.Internal.Correction.Weighted>
   9.000000E+99

> <Gold.Protein.RotatedTorsions>
[ 6907 6896 6895 6894 ] final   44.00 input  -60.11 | X-H torsion
[ 7974 7965 7964 7962 ] final -154.93 input  175.53 | X-H torsion
[ 8008 7997 7996 7995 ] final  -37.63 input   59.86 | X-H torsion
[ 10167 10162 10161 10158 ] final -129.07 input  -65.29 | X-H torsion
[ 10718 10713 10712 10709 ] final    4.53 input   66.30 | X-H torsion
[ 10763 10752 10751 10750 ] final  142.09 input  -60.55 | X-H torsion
[ 11005 11000 10999 10996 ] final  124.23 input  -57.11 | X-H torsion

> <Gold.Protein.ActiveResidues>
 VAL166  LYS551  ARG553  GLY616  TRP617  ASP618  TYR619  PRO620  LYS621  CYS622 
 ASP623  PHE694  ASN695  SER759  ASP760  ASP761  ALA762  ILE779  LEU786  VAL792 
 PHE793  MET794  SER795  GLU796  ALA797  LYS798  CYS799  TRP800  GLU811  SER814 

> <Gold.Protein.RotatedAtoms>
  152.2271  134.8357  160.0478 H   0  0  0  0  0  0  0  0  0  0  0  0  # atno 6907 bound_to 6896
  151.9120  133.3558  159.3875 H   0  0  0  0  0  0  0  0  0  0  0  0  # atno 6908 bound_to 6896
  150.7015  134.4648  159.5441 H   0  0  0  0  0  0  0  0  0  0  0  0  # atno 6909 bound_to 6896
  144.7665  140.4320  143.5938 H   0  0  0  0  0  0  0  0  0  0  0  0  # atno 7974 bound_to 7965
  154.4050  140.1599  156.2568 H   0  0  0  0  0  0  0  0  0  0  0  0  # atno 8008 bound_to 7997
  155.9071  140.3429  155.6048 H   0  0  0  0  0  0  0  0  0  0  0  0  # atno 8009 bound_to 7997
  155.7380  140.0789  157.2249 H   0  0  0  0  0  0  0  0  0  0  0  0  # atno 8010 bound_to 7997
  139.9436  143.6135  152.2496 H   0  0  0  0  0  0  0  0  0  0  0  0  # atno 10167 bound_to 10162
  156.8940  130.5697  149.5649 H   0  0  0  0  0  0  0  0  0  0  0  0  # atno 10718 bound_to 10713
  153.9501  135.2971  155.3439 H   0  0  0  0  0  0  0  0  0  0  0  0  # atno 10763 bound_to 10752
  154.7431  135.5015  153.9160 H   0  0  0  0  0  0  0  0  0  0  0  0  # atno 10764 bound_to 10752
  153.0998  135.6731  153.9802 H   0  0  0  0  0  0  0  0  0  0  0  0  # atno 10765 bound_to 10752
  139.9349  134.9640  156.8378 H   0  0  0  0  0  0  0  0  0  0  0  0  # atno 11005 bound_to 11000
  145.6455  139.1556  143.2891 LP  0  0  0  0  0  0  0  0  0  0  0  0  # atno 17320 bound_to 7965
  146.1776  140.6548  142.9204 LP  0  0  0  0  0  0  0  0  0  0  0  0  # atno 17321 bound_to 7965
  139.6684  144.7661  151.1829 LP  0  0  0  0  0  0  0  0  0  0  0  0  # atno 17342 bound_to 10162
  140.7603  143.5902  150.8804 LP  0  0  0  0  0  0  0  0  0  0  0  0  # atno 17343 bound_to 10162
  156.0615  130.5666  150.9202 LP  0  0  0  0  0  0  0  0  0  0  0  0  # atno 17370 bound_to 10713
  157.6067  131.0938  150.8867 LP  0  0  0  0  0  0  0  0  0  0  0  0  # atno 17371 bound_to 10713
  140.6103  134.0089  155.7574 LP  0  0  0  0  0  0  0  0  0  0  0  0  # atno 17394 bound_to 11000
  141.0957  133.9847  157.3163 LP  0  0  0  0  0  0  0  0  0  0  0  0  # atno 17395 bound_to 11000

$$$$
