AV-unprocessed.smi:2732|AV-procd|sdf|10532|dock6
  -GOLD-   2272014573D 1   1.00000     0.00000
 Structure written by MMmdl.
 34 35  0  0  0  0  0  0  0  0  1 V2000
  151.9369  145.0529  158.6337 C   0  0  0  0  0  0  0  0  0  0  0  0
  150.7535  144.0839  158.4935 C   0  0  2  0  0  0  0  0  0  0  0  0
  150.2256  143.8632  159.7987 O   0  0  0  0  0  0  0  0  0  0  0  0
  149.6275  144.9969  160.4154 C   0  0  0  0  0  0  0  0  0  0  0  0
  148.1231  144.8468  160.3482 C   0  0  0  0  0  0  0  0  0  0  0  0
  147.2199  145.9407  160.8706 C   0  0  0  0  0  0  0  0  0  0  0  0
  147.3169  144.6295  161.6086 C   0  0  0  0  0  0  0  0  0  0  0  0
  151.1918  142.7510  157.8651 C   0  0  0  0  0  0  0  0  0  0  0  0
  152.0685  142.0799  158.4096 O   0  0  0  0  0  0  0  0  0  0  0  0
  150.5646  142.4075  156.7250 N   0  0  0  0  0  0  0  0  0  0  0  0
  150.7197  141.2253  155.9521 C   0  0  0  0  0  0  0  0  0  0  0  0
  151.8373  140.3609  156.0389 C   0  0  0  0  0  0  0  0  0  0  0  0
  151.8643  139.2013  155.2401 C   0  0  0  0  0  0  0  0  0  0  0  0
  150.7705  138.9421  154.3907 C   0  0  0  0  0  0  0  0  0  0  0  0
  150.7626  137.8037  153.5889 N   0  0  0  0  0  0  0  0  0  0  0  0
  149.6937  139.7513  154.3084 N   0  0  0  0  0  0  0  0  0  0  0  0
  149.6742  140.8613  155.0774 C   0  0  0  0  0  0  0  0  0  0  0  0
  152.4032  145.2530  157.6683 H   0  0  0  0  0  0  0  0  0  0  0  0
  152.7033  144.6576  159.3018 H   0  0  0  0  0  0  0  0  0  0  0  0
  151.6059  146.0078  159.0428 H   0  0  0  0  0  0  0  0  0  0  0  0
  149.9923  144.5587  157.8709 H   0  0  0  0  0  0  0  0  0  0  0  0
  149.9308  145.0621  161.4610 H   0  0  0  0  0  0  0  0  0  0  0  0
  149.9196  145.9257  159.9234 H   0  0  0  0  0  0  0  0  0  0  0  0
  147.7726  144.3186  159.4633 H   0  0  0  0  0  0  0  0  0  0  0  0
  147.6890  146.8105  161.3264 H   0  0  0  0  0  0  0  0  0  0  0  0
  146.3051  146.1418  160.3170 H   0  0  0  0  0  0  0  0  0  0  0  0
  146.4640  143.9563  161.5504 H   0  0  0  0  0  0  0  0  0  0  0  0
  147.8493  144.6270  162.5577 H   0  0  0  0  0  0  0  0  0  0  0  0
  149.9367  143.0987  156.3405 H   0  0  0  0  0  0  0  0  0  0  0  0
  152.6606  140.5532  156.7093 H   0  0  0  0  0  0  0  0  0  0  0  0
  152.7059  138.5259  155.2865 H   0  0  0  0  0  0  0  0  0  0  0  0
  151.5287  137.1457  153.5962 H   0  0  0  0  0  0  0  0  0  0  0  0
  149.9848  137.5962  152.9791 H   0  0  0  0  0  0  0  0  0  0  0  0
  148.7939  141.4809  154.9879 H   0  0  0  0  0  0  0  0  0  0  0  0
  1  2  1  0  0  0  0
  1 18  1  0  0  0  0
  1 19  1  0  0  0  0
  1 20  1  0  0  0  0
  2  3  1  0  0  0  0
  2  8  1  0  0  0  0
  2 21  1  0  0  0  0
  3  4  1  0  0  0  0
  4  5  1  0  0  0  0
  4 22  1  0  0  0  0
  4 23  1  0  0  0  0
  5  7  1  0  0  0  0
  5  6  1  0  0  0  0
  5 24  1  0  0  0  0
  6  7  1  0  0  0  0
  6 25  1  0  0  0  0
  6 26  1  0  0  0  0
  7 27  1  0  0  0  0
  7 28  1  0  0  0  0
  8  9  2  0  0  0  0
  8 10  1  0  0  0  0
 10 11  1  0  0  0  0
 10 29  1  0  0  0  0
 11 17  1  0  0  0  0
 11 12  2  0  0  0  0
 12 13  1  0  0  0  0
 12 30  1  0  0  0  0
 13 14  2  0  0  0  0
 13 31  1  0  0  0  0
 14 15  1  0  0  0  0
 14 16  1  0  0  0  0
 15 32  1  0  0  0  0
 15 33  1  0  0  0  0
 16 17  2  0  0  0  0
 17 34  1  0  0  0  0
M  END
> <s_m_source_file>
AV-unprocessed.smi

> <i_m_source_file_index>
2732

> <i_lp_mmshare_version>
43012

> <i_f3d_flags>
0

> <s_epik_input>
W0NIMl0xW0NIMl1bQ0hdMVtDSDJdT1tDQEBIXShbQ0gzXSlDKD1PKVtOSF1jMltjSF1bY0hdYyhbTkgyXSluW2NIXTI=

> <s_epik_cmdline>
J2VwaWtfcHl0aG9uJywgJy1waCcsICc3LjAnLCAnLXRuJywgJzgnLCAnLW1hJywgJzIwMCcsICctbWV0YWxfYmluZGluZycsICctaW1hZScsICc8aW5maWxlLm1hZT4nLCAnLW9tYWUnLCAnPG91dGZpbGUubWFlPic=

> <r_lp_tautomer_probability>
1

> <r_epik_Ionization_Penalty>
0.0764773

> <r_epik_Ionization_Penalty_Charging>
0

> <r_epik_Ionization_Penalty_Neutral>
0.0764773

> <r_epik_State_Penalty>
0.0673619

> <r_epik_Charging_Adjusted_Penalty>
0.0673619

> <i_epik_Tot_Q>
0

> <i_epik_Tot_abs_Q>
0

> <r_epik_Metal_State_Penalty>
0.0594329

> <b_epik_Metal_Only>
0

> <s_lp_Force_Field>
OPLS_2005

> <r_lp_Energy>
19.1894

> <b_lp_Chiralities_Consistent>
1

> <s_lp_Variant>
AV-unprocessed.smi:2732-1

> <Gold.Version>
5.8.1

> <Gold.Id.Protein>
6NUR|6NUR_protein|mol2

> <Gold.PLP.Fitness>
44.5663

> <Gold.PLP.PLP>
-39.7865

> <Gold.PLP.part.hbond>
-3.5140

> <Gold.PLP.part.metal>
0.0000

> <Gold.PLP.part.buried>
-5.9318

> <Gold.PLP.part.nonpolar>
-30.9683

> <Gold.PLP.part.repulsive>
0.4120

> <Gold.PLP.ligand.clash>
0.0000

> <Gold.PLP.ligand.torsion>
0.7915

> <Gold.PLP.Chemscore.Hbond>
1.9350

> <Gold.PLP.Chemscore.CHOScore>
0.0000

> <Gold.PLP.Chemscore.Metal>
0.0000

> <Gold.Chemscore.Hbonds>
donor molecule, donor type, donor heavy atom, donor atom, acceptor molecule, acceptor atom, score
      L1  H    10    29       P1  8028  0.96
      L1  H    15    33       P1  7948  0.96

> <Gold.PLP.Chemscore.Internal.Correction>
0.5577

> <Gold.Rescore>
     Score         DG    S(hbond)    S(metal)    S(lipo)     H(rot)  DE(clash)    DE(int)     intcor
     13.51     -16.12       1.67        0.00      80.81       1.72       0.63       1.97       ----

> <Gold.Chemscore.Fitness>
13.5137

> <Gold.Chemscore.DG>
-16.1154

> <Gold.Chemscore.ZeroCoef>
-5.4800

> <Gold.Chemscore.Hbond>
1.6746

> <Gold.Chemscore.Metal>
0.0000

> <Gold.Chemscore.Lipo>
80.8114

> <Gold.Chemscore.Internal_Hbond>
0.0000

> <Gold.Chemscore.DEClash>
0.6293

> <Gold.Chemscore.DEInternal>
1.9723

> <Gold.Chemscore.Rot>
1.7237

> <Gold.Chemscore.Internal.Correction>
   9.000000E+99

> <Gold.Chemscore.Hbonds>
donor molecule, donor type, donor heavy atom, donor atom, acceptor molecule, acceptor atom, score
      L1  H    10    29       P1  8028  0.91
      L1  H    15    33       P1  7948  0.23

> <Gold.Chemscore.Hbond.Weighted>
-5.5931

> <Gold.Chemscore.Metal.Weighted>
-0.0000

> <Gold.Chemscore.Lipo.Weighted>
-9.4549

> <Gold.Chemscore.Internal_Hbond.Weighted>
0.0000

> <Gold.Chemscore.DEClash.Weighted>
0.6293

> <Gold.Chemscore.DEInternal.Weighted>
1.9723

> <Gold.Chemscore.Rot.Weighted>
4.4127

> <Gold.Chemscore.Internal.Correction.Weighted>
   9.000000E+99

> <Gold.Protein.RotatedTorsions>
[ 6907 6896 6895 6894 ] final  114.12 input  -60.11 | X-H torsion
[ 7974 7965 7964 7962 ] final  -49.46 input  175.53 | X-H torsion
[ 8008 7997 7996 7995 ] final  174.06 input   59.86 | X-H torsion
[ 10167 10162 10161 10158 ] final -152.48 input  -65.29 | X-H torsion
[ 10718 10713 10712 10709 ] final   18.51 input   66.30 | X-H torsion
[ 10763 10752 10751 10750 ] final -164.60 input  -60.55 | X-H torsion
[ 11005 11000 10999 10996 ] final   58.98 input  -57.11 | X-H torsion

> <Gold.Protein.ActiveResidues>
 VAL166  LYS551  ARG553  GLY616  TRP617  ASP618  TYR619  PRO620  LYS621  CYS622 
 ASP623  PHE694  ASN695  SER759  ASP760  ASP761  ALA762  ILE779  LEU786  VAL792 
 PHE793  MET794  SER795  GLU796  ALA797  LYS798  CYS799  TRP800  GLU811  SER814 

> <Gold.Protein.RotatedAtoms>
  152.4821  133.8280  159.7087 H   0  0  0  0  0  0  0  0  0  0  0  0  # atno 6907 bound_to 6896
  150.8878  133.7274  159.2920 H   0  0  0  0  0  0  0  0  0  0  0  0  # atno 6908 bound_to 6896
  151.4757  135.1052  159.9816 H   0  0  0  0  0  0  0  0  0  0  0  0  # atno 6909 bound_to 6896
  145.9404  140.7668  142.9555 H   0  0  0  0  0  0  0  0  0  0  0  0  # atno 7974 bound_to 7965
  156.1013  140.1444  156.9464 H   0  0  0  0  0  0  0  0  0  0  0  0  # atno 8008 bound_to 7997
  154.4704  140.0912  156.7175 H   0  0  0  0  0  0  0  0  0  0  0  0  # atno 8009 bound_to 7997
  155.4755  140.3443  155.4334 H   0  0  0  0  0  0  0  0  0  0  0  0  # atno 8010 bound_to 7997
  139.7178  143.9006  152.2492 H   0  0  0  0  0  0  0  0  0  0  0  0  # atno 10167 bound_to 10162
  157.0974  130.6453  149.5864 H   0  0  0  0  0  0  0  0  0  0  0  0  # atno 10718 bound_to 10713
  154.7013  135.2988  154.9337 H   0  0  0  0  0  0  0  0  0  0  0  0  # atno 10763 bound_to 10752
  154.0268  135.6675  153.4781 H   0  0  0  0  0  0  0  0  0  0  0  0  # atno 10764 bound_to 10752
  153.0683  135.5075  154.8158 H   0  0  0  0  0  0  0  0  0  0  0  0  # atno 10765 bound_to 10752
  140.0338  134.5973  155.9472 H   0  0  0  0  0  0  0  0  0  0  0  0  # atno 11005 bound_to 11000
  144.6778  140.2270  143.7360 LP  0  0  0  0  0  0  0  0  0  0  0  0  # atno 17320 bound_to 7965
  145.8308  139.2085  143.1884 LP  0  0  0  0  0  0  0  0  0  0  0  0  # atno 17321 bound_to 7965
  139.8893  144.6974  150.8789 LP  0  0  0  0  0  0  0  0  0  0  0  0  # atno 17342 bound_to 10162
  140.7747  143.3599  151.1849 LP  0  0  0  0  0  0  0  0  0  0  0  0  # atno 17343 bound_to 10162
  155.9882  130.4925  150.7161 LP  0  0  0  0  0  0  0  0  0  0  0  0  # atno 17370 bound_to 10713
  157.4670  131.0889  151.0684 LP  0  0  0  0  0  0  0  0  0  0  0  0  # atno 17371 bound_to 10713
  141.1846  133.6553  156.5162 LP  0  0  0  0  0  0  0  0  0  0  0  0  # atno 17394 bound_to 11000
  140.4182  134.7211  157.4875 LP  0  0  0  0  0  0  0  0  0  0  0  0  # atno 17395 bound_to 11000

$$$$
