AV-unprocessed.smi:2033|AV-procd|sdf|8260|dock7
  -GOLD-   2272010533D 1   1.00000     0.00000
 Structure written by MMmdl.
 33 34  0  0  0  0  0  0  0  0  1 V2000
  153.0375  143.2997  162.4557 C   0  0  0  0  0  0  0  0  0  0  0  0
  152.2693  143.1096  161.1925 C   0  0  0  0  0  0  0  0  0  0  0  0
  151.0231  143.5686  161.0236 N   0  0  0  0  0  0  0  0  0  0  0  0
  150.5183  143.2695  159.7657 N   0  0  0  0  0  0  0  0  0  0  0  0
  151.4021  142.5907  159.0214 C   0  0  0  0  0  0  0  0  0  0  0  0
  151.1478  142.1570  157.6936 N   0  0  0  0  0  0  0  0  0  0  0  0
  150.0125  141.6455  157.1864 C   0  0  0  0  0  0  0  0  0  0  0  0
  148.9696  141.4627  157.8152 O   0  0  0  0  0  0  0  0  0  0  0  0
  150.1543  141.3492  155.8863 N   0  0  0  0  0  0  0  0  0  0  0  0
  149.1348  140.7385  155.0313 C   0  0  1  0  0  0  0  0  0  0  0  0
  148.5157  141.8016  154.0964 C   0  0  0  0  0  0  0  0  0  0  0  0
  147.1189  141.4329  153.5710 C   0  0  0  0  0  0  0  0  0  0  0  0
  147.0723  140.1769  152.6884 C   0  0  0  0  0  0  0  0  0  0  0  0
  147.4325  138.8822  153.4371 C   0  0  0  0  0  0  0  0  0  0  0  0
  148.8703  138.7153  153.6086 N   0  0  0  0  0  0  0  0  0  0  0  0
  149.7035  139.5077  154.3002 C   0  0  0  0  0  0  0  0  0  0  0  0
  150.9084  139.2588  154.3440 O   0  0  0  0  0  0  0  0  0  0  0  0
  152.9387  142.2627  159.8037 S   0  0  0  0  0  0  0  0  0  0  0  0
  152.4046  143.7331  163.2309 H   0  0  0  0  0  0  0  0  0  0  0  0
  153.8817  143.9663  162.2802 H   0  0  0  0  0  0  0  0  0  0  0  0
  153.4155  142.3405  162.8099 H   0  0  0  0  0  0  0  0  0  0  0  0
  151.9253  142.2391  157.0555 H   0  0  0  0  0  0  0  0  0  0  0  0
  151.0480  141.5301  155.4526 H   0  0  0  0  0  0  0  0  0  0  0  0
  148.3518  140.3635  155.6932 H   0  0  0  0  0  0  0  0  0  0  0  0
  148.4190  142.7470  154.6319 H   0  0  0  0  0  0  0  0  0  0  0  0
  149.1882  142.0049  153.2617 H   0  0  0  0  0  0  0  0  0  0  0  0
  146.4353  141.3124  154.4123 H   0  0  0  0  0  0  0  0  0  0  0  0
  146.7336  142.2747  152.9949 H   0  0  0  0  0  0  0  0  0  0  0  0
  146.0578  140.0766  152.3011 H   0  0  0  0  0  0  0  0  0  0  0  0
  147.7134  140.3016  151.8147 H   0  0  0  0  0  0  0  0  0  0  0  0
  146.9244  138.8286  154.4012 H   0  0  0  0  0  0  0  0  0  0  0  0
  147.0807  138.0274  152.8590 H   0  0  0  0  0  0  0  0  0  0  0  0
  149.2809  137.9183  153.1440 H   0  0  0  0  0  0  0  0  0  0  0  0
  1  2  1  0  0  0  0
  1 19  1  0  0  0  0
  1 20  1  0  0  0  0
  1 21  1  0  0  0  0
  2 18  1  0  0  0  0
  2  3  2  0  0  0  0
  3  4  1  0  0  0  0
  4  5  2  0  0  0  0
  5  6  1  0  0  0  0
  5 18  1  0  0  0  0
  6  7  1  0  0  0  0
  6 22  1  0  0  0  0
  7  8  2  0  0  0  0
  7  9  1  0  0  0  0
  9 10  1  0  0  0  0
  9 23  1  0  0  0  0
 10 16  1  0  0  0  0
 10 11  1  0  0  0  0
 10 24  1  0  0  0  0
 11 12  1  0  0  0  0
 11 25  1  0  0  0  0
 11 26  1  0  0  0  0
 12 13  1  0  0  0  0
 12 27  1  0  0  0  0
 12 28  1  0  0  0  0
 13 14  1  0  0  0  0
 13 29  1  0  0  0  0
 13 30  1  0  0  0  0
 14 15  1  0  0  0  0
 14 31  1  0  0  0  0
 14 32  1  0  0  0  0
 15 16  1  0  0  0  0
 15 33  1  0  0  0  0
 16 17  2  0  0  0  0
M  END
> <s_m_source_file>
AV-unprocessed.smi

> <i_m_source_file_index>
2033

> <i_lp_mmshare_version>
43012

> <i_f3d_flags>
0

> <s_epik_input>
W0NIM11jMW5uYyhzMSlbTkhdQyg9TylbTkhdW0NAQEhdMltDSDJdW0NIMl1bQ0gyXVtDSDJdW05IXUMyPU8=

> <s_epik_cmdline>
J2VwaWtfcHl0aG9uJywgJy1waCcsICc3LjAnLCAnLXRuJywgJzgnLCAnLW1hJywgJzIwMCcsICctbWV0YWxfYmluZGluZycsICctaW1hZScsICc8aW5maWxlLm1hZT4nLCAnLW9tYWUnLCAnPG91dGZpbGUubWFlPic=

> <r_lp_tautomer_probability>
1

> <r_epik_Ionization_Penalty>
0.00079266

> <r_epik_Ionization_Penalty_Charging>
0

> <r_epik_Ionization_Penalty_Neutral>
0.00079266

> <r_epik_State_Penalty>
-0

> <r_epik_Charging_Adjusted_Penalty>
0

> <i_epik_Tot_Q>
0

> <i_epik_Tot_abs_Q>
0

> <r_epik_Metal_State_Penalty>
0.265831

> <b_epik_Metal_Only>
0

> <s_lp_Force_Field>
OPLS_2005

> <r_lp_Energy>
9.00356

> <b_lp_Chiralities_Consistent>
1

> <s_lp_Variant>
AV-unprocessed.smi:2033-2

> <Gold.Version>
5.8.1

> <Gold.Id.Protein>
6NUR|6NUR_protein|mol2

> <Gold.PLP.Fitness>
40.3726

> <Gold.PLP.PLP>
-34.7384

> <Gold.PLP.part.hbond>
-5.0000

> <Gold.PLP.part.metal>
0.0000

> <Gold.PLP.part.buried>
-1.5654

> <Gold.PLP.part.nonpolar>
-28.5058

> <Gold.PLP.part.repulsive>
0.5980

> <Gold.PLP.ligand.clash>
0.0000

> <Gold.PLP.ligand.torsion>
0.4384

> <Gold.PLP.Chemscore.Hbond>
2.1612

> <Gold.PLP.Chemscore.CHOScore>
0.0000

> <Gold.PLP.Chemscore.Metal>
0.0000

> <Gold.Chemscore.Hbonds>
donor molecule, donor type, donor heavy atom, donor atom, acceptor molecule, acceptor atom, score
      L1  H    15    33       P1  7948  0.75
      P1  H  6933  6945       L1     3  0.01
      P1  H  7989  7998       L1    17  1.00

> <Gold.PLP.Chemscore.Internal.Correction>
0.0276

> <Gold.Rescore>
     Score         DG    S(hbond)    S(metal)    S(lipo)     H(rot)  DE(clash)    DE(int)     intcor
     16.17     -16.82       1.77        0.00      68.22       1.00       0.15       0.50       ----

> <Gold.Chemscore.Fitness>
16.1703

> <Gold.Chemscore.DG>
-16.8190

> <Gold.Chemscore.ZeroCoef>
-5.4800

> <Gold.Chemscore.Hbond>
1.7715

> <Gold.Chemscore.Metal>
0.0000

> <Gold.Chemscore.Lipo>
68.2229

> <Gold.Chemscore.Internal_Hbond>
0.0000

> <Gold.Chemscore.DEClash>
0.1513

> <Gold.Chemscore.DEInternal>
0.4974

> <Gold.Chemscore.Rot>
1.0000

> <Gold.Chemscore.Internal.Correction>
   9.000000E+99

> <Gold.Chemscore.Hbonds>
donor molecule, donor type, donor heavy atom, donor atom, acceptor molecule, acceptor atom, score
      L1  H    15    33       P1  7948  0.71
      P1  H  7989  7998       L1    17  0.30

> <Gold.Chemscore.Hbond.Weighted>
-5.9169

> <Gold.Chemscore.Metal.Weighted>
-0.0000

> <Gold.Chemscore.Lipo.Weighted>
-7.9821

> <Gold.Chemscore.Internal_Hbond.Weighted>
0.0000

> <Gold.Chemscore.DEClash.Weighted>
0.1513

> <Gold.Chemscore.DEInternal.Weighted>
0.4974

> <Gold.Chemscore.Rot.Weighted>
2.5600

> <Gold.Chemscore.Internal.Correction.Weighted>
   9.000000E+99

> <Gold.Protein.RotatedTorsions>
[ 6907 6896 6895 6894 ] final  -86.58 input  -60.11 | X-H torsion
[ 7974 7965 7964 7962 ] final  160.71 input  175.53 | X-H torsion
[ 8008 7997 7996 7995 ] final  104.53 input   59.86 | X-H torsion
[ 10167 10162 10161 10158 ] final  128.32 input  -65.29 | X-H torsion
[ 10718 10713 10712 10709 ] final -138.15 input   66.30 | X-H torsion
[ 10763 10752 10751 10750 ] final   27.29 input  -60.55 | X-H torsion
[ 11005 11000 10999 10996 ] final   65.10 input  -57.11 | X-H torsion

> <Gold.Protein.ActiveResidues>
 VAL166  LYS551  ARG553  GLY616  TRP617  ASP618  TYR619  PRO620  LYS621  CYS622 
 ASP623  PHE694  ASN695  SER759  ASP760  ASP761  ALA762  ILE779  LEU786  VAL792 
 PHE793  MET794  SER795  GLU796  ALA797  LYS798  CYS799  TRP800  GLU811  SER814 

> <Gold.Protein.RotatedAtoms>
  150.6867  134.3029  159.4713 H   0  0  0  0  0  0  0  0  0  0  0  0  # atno 6907 bound_to 6896
  152.0923  134.9396  160.0581 H   0  0  0  0  0  0  0  0  0  0  0  0  # atno 6908 bound_to 6896
  152.0707  133.4071  159.4495 H   0  0  0  0  0  0  0  0  0  0  0  0  # atno 6909 bound_to 6896
  144.7723  139.7795  143.6292 H   0  0  0  0  0  0  0  0  0  0  0  0  # atno 7974 bound_to 7965
  156.1581  140.3146  155.8760 H   0  0  0  0  0  0  0  0  0  0  0  0  # atno 8008 bound_to 7997
  155.3838  140.0489  157.3060 H   0  0  0  0  0  0  0  0  0  0  0  0  # atno 8009 bound_to 7997
  154.5120  140.2168  155.9149 H   0  0  0  0  0  0  0  0  0  0  0  0  # atno 8010 bound_to 7997
  139.5533  144.6830  151.4258 H   0  0  0  0  0  0  0  0  0  0  0  0  # atno 10167 bound_to 10162
  156.2961  130.7403  151.1442 H   0  0  0  0  0  0  0  0  0  0  0  0  # atno 10718 bound_to 10713
  153.0565  135.6540  154.0564 H   0  0  0  0  0  0  0  0  0  0  0  0  # atno 10763 bound_to 10752
  154.0241  135.2917  155.3378 H   0  0  0  0  0  0  0  0  0  0  0  0  # atno 10764 bound_to 10752
  154.6883  135.5293  153.8424 H   0  0  0  0  0  0  0  0  0  0  0  0  # atno 10765 bound_to 10752
  139.9916  134.6582  156.0081 H   0  0  0  0  0  0  0  0  0  0  0  0  # atno 11005 bound_to 11000
  146.1878  139.5102  142.9825 LP  0  0  0  0  0  0  0  0  0  0  0  0  # atno 17320 bound_to 7965
  145.6288  141.0308  143.1874 LP  0  0  0  0  0  0  0  0  0  0  0  0  # atno 17321 bound_to 7965
  140.6800  143.8103  150.7109 LP  0  0  0  0  0  0  0  0  0  0  0  0  # atno 17342 bound_to 10162
  140.1553  143.4322  152.2104 LP  0  0  0  0  0  0  0  0  0  0  0  0  # atno 17343 bound_to 10162
  157.7356  131.0571  150.5462 LP  0  0  0  0  0  0  0  0  0  0  0  0  # atno 17370 bound_to 10713
  156.5584  130.4249  149.6074 LP  0  0  0  0  0  0  0  0  0  0  0  0  # atno 17371 bound_to 10713
  141.1570  133.6542  156.4195 LP  0  0  0  0  0  0  0  0  0  0  0  0  # atno 17394 bound_to 11000
  140.4897  134.6587  157.5206 LP  0  0  0  0  0  0  0  0  0  0  0  0  # atno 17395 bound_to 11000

$$$$
