AV-unprocessed.smi:2924|AV-procd|sdf|11219|dock8
  -GOLD-   2272016113D 1   1.00000     0.00000
 Structure written by MMmdl.
 29 31  0  0  0  0  0  0  0  0  1 V2000
  154.1586  140.6969  160.2498 N   0  0  0  0  0  0  0  0  0  0  0  0
  153.4190  141.4573  159.7878 C   0  0  0  0  0  0  0  0  0  0  0  0
  152.4878  142.4156  159.2046 C   0  0  0  0  0  0  0  0  0  0  0  0
  152.3317  143.6768  159.8171 C   0  0  0  0  0  0  0  0  0  0  0  0
  151.4306  144.6030  159.2609 C   0  0  0  0  0  0  0  0  0  0  0  0
  150.7184  144.2282  158.1072 C   0  0  0  0  0  0  0  0  0  0  0  0
  150.8593  143.0262  157.5108 N   0  0  0  0  0  0  0  0  0  0  0  0
  151.7237  142.1273  158.0420 C   0  0  0  0  0  0  0  0  0  0  0  0
  151.8512  140.8835  157.3971 N   0  0  0  0  0  0  0  0  0  0  0  0
  151.6302  140.7474  155.9605 C   0  0  1  0  0  0  0  0  0  0  0  0
  152.2592  139.4798  155.3775 C   0  0  0  0  0  0  0  0  0  0  0  0
  151.0637  138.8334  154.6635 C   0  0  1  0  0  0  0  0  0  0  0  0
  150.0884  138.1962  155.6616 C   0  0  0  0  0  0  0  0  0  0  0  0
  149.4356  139.4276  156.2861 C   0  0  0  0  0  0  0  0  0  0  0  0
  150.1525  140.5748  155.5534 C   0  0  2  0  0  0  0  0  0  0  0  0
  150.3256  139.9809  154.2776 O   0  0  0  0  0  0  0  0  0  0  0  0
  152.8925  143.9366  160.7036 H   0  0  0  0  0  0  0  0  0  0  0  0
  151.2886  145.5761  159.7073 H   0  0  0  0  0  0  0  0  0  0  0  0
  150.0174  144.9111  157.6505 H   0  0  0  0  0  0  0  0  0  0  0  0
  151.8222  140.0443  157.9583 H   0  0  0  0  0  0  0  0  0  0  0  0
  152.0526  141.6111  155.4448 H   0  0  0  0  0  0  0  0  0  0  0  0
  153.0430  139.7414  154.6661 H   0  0  0  0  0  0  0  0  0  0  0  0
  152.6928  138.8168  156.1276 H   0  0  0  0  0  0  0  0  0  0  0  0
  151.3425  138.1778  153.8382 H   0  0  0  0  0  0  0  0  0  0  0  0
  149.3437  137.5894  155.1451 H   0  0  0  0  0  0  0  0  0  0  0  0
  150.5947  137.5670  156.3944 H   0  0  0  0  0  0  0  0  0  0  0  0
  148.3677  139.4416  156.0649 H   0  0  0  0  0  0  0  0  0  0  0  0
  149.5534  139.4701  157.3691 H   0  0  0  0  0  0  0  0  0  0  0  0
  149.5857  141.5061  155.5348 H   0  0  0  0  0  0  0  0  0  0  0  0
  1  2  3  0  0  0  0
  2  3  1  0  0  0  0
  3  8  1  0  0  0  0
  3  4  2  0  0  0  0
  4  5  1  0  0  0  0
  4 17  1  0  0  0  0
  5  6  2  0  0  0  0
  5 18  1  0  0  0  0
  6  7  1  0  0  0  0
  6 19  1  0  0  0  0
  7  8  2  0  0  0  0
  8  9  1  0  0  0  0
  9 10  1  0  0  0  0
  9 20  1  0  0  0  0
 10 15  1  0  0  0  0
 10 11  1  0  0  0  0
 10 21  1  0  0  0  0
 11 12  1  0  0  0  0
 11 22  1  0  0  0  0
 11 23  1  0  0  0  0
 12 16  1  0  0  0  0
 12 13  1  0  0  0  0
 12 24  1  0  0  0  0
 13 14  1  0  0  0  0
 13 25  1  0  0  0  0
 13 26  1  0  0  0  0
 14 15  1  0  0  0  0
 14 27  1  0  0  0  0
 14 28  1  0  0  0  0
 15 16  1  0  0  0  0
 15 29  1  0  0  0  0
M  END
> <s_m_source_file>
AV-unprocessed.smi

> <i_m_source_file_index>
2924

> <i_lp_mmshare_version>
43012

> <i_f3d_flags>
0

> <s_epik_input>
TiNDYzFbY0hdW2NIXVtjSF1uYzFbTkhdW0NASF0oW0NIMl1bQ0BASF0yMylbQ0BASF0oTzMpW0NIMl1bQ0gyXTI=

> <s_epik_cmdline>
J2VwaWtfcHl0aG9uJywgJy1waCcsICc3LjAnLCAnLXRuJywgJzgnLCAnLW1hJywgJzIwMCcsICctbWV0YWxfYmluZGluZycsICctaW1hZScsICc8aW5maWxlLm1hZT4nLCAnLW9tYWUnLCAnPG91dGZpbGUubWFlPic=

> <r_lp_tautomer_probability>
1

> <r_epik_Ionization_Penalty>
2.11559e-05

> <r_epik_Ionization_Penalty_Charging>
0

> <r_epik_Ionization_Penalty_Neutral>
2.11559e-05

> <r_epik_State_Penalty>
-0

> <r_epik_Charging_Adjusted_Penalty>
0

> <i_epik_Tot_Q>
0

> <i_epik_Tot_abs_Q>
0

> <r_epik_Metal_State_Penalty>
-0

> <b_epik_Metal_Only>
0

> <s_lp_Force_Field>
OPLS_2005

> <r_lp_Energy>
42.6424

> <b_lp_Chiralities_Consistent>
1

> <s_lp_Variant>
AV-unprocessed.smi:2924-2

> <Gold.Version>
5.8.1

> <Gold.Id.Protein>
6NUR|6NUR_protein|mol2

> <Gold.PLP.Fitness>
39.3573

> <Gold.PLP.PLP>
-34.3537

> <Gold.PLP.part.hbond>
-1.0000

> <Gold.PLP.part.metal>
0.0000

> <Gold.PLP.part.buried>
-5.4433

> <Gold.PLP.part.nonpolar>
-28.5439

> <Gold.PLP.part.repulsive>
0.3384

> <Gold.PLP.ligand.clash>
0.0000

> <Gold.PLP.ligand.torsion>
0.4820

> <Gold.PLP.Chemscore.Hbond>
1.0000

> <Gold.PLP.Chemscore.CHOScore>
0.9860

> <Gold.PLP.Chemscore.Metal>
0.0000

> <Gold.Chemscore.Hbonds>
donor molecule, donor type, donor heavy atom, donor atom, acceptor molecule, acceptor atom, score
      P1  H  7989  7998       L1    16  0.95
      L1  C     6    19       P1  8028  0.54
      L1  C     6    19       P1  8029  0.28

> <Gold.PLP.Chemscore.Internal.Correction>
0.0098

> <Gold.Rescore>
     Score         DG    S(hbond)    S(metal)    S(lipo)     H(rot)  DE(clash)    DE(int)     intcor
     15.17     -15.58       0.93        0.00      81.75       1.00       0.07       0.34       ----

> <Gold.Chemscore.Fitness>
15.1713

> <Gold.Chemscore.DG>
-15.5777

> <Gold.Chemscore.ZeroCoef>
-5.4800

> <Gold.Chemscore.Hbond>
0.9259

> <Gold.Chemscore.Metal>
0.0000

> <Gold.Chemscore.Lipo>
81.7546

> <Gold.Chemscore.Internal_Hbond>
0.0000

> <Gold.Chemscore.DEClash>
0.0665

> <Gold.Chemscore.DEInternal>
0.3399

> <Gold.Chemscore.Rot>
1.0000

> <Gold.Chemscore.Internal.Correction>
   9.000000E+99

> <Gold.Chemscore.Hbonds>
donor molecule, donor type, donor heavy atom, donor atom, acceptor molecule, acceptor atom, score
      P1  H  7989  7998       L1    16  0.13

> <Gold.Chemscore.Hbond.Weighted>
-3.0924

> <Gold.Chemscore.Metal.Weighted>
-0.0000

> <Gold.Chemscore.Lipo.Weighted>
-9.5653

> <Gold.Chemscore.Internal_Hbond.Weighted>
0.0000

> <Gold.Chemscore.DEClash.Weighted>
0.0665

> <Gold.Chemscore.DEInternal.Weighted>
0.3399

> <Gold.Chemscore.Rot.Weighted>
2.5600

> <Gold.Chemscore.Internal.Correction.Weighted>
   9.000000E+99

> <Gold.Protein.RotatedTorsions>
[ 6907 6896 6895 6894 ] final   -4.68 input  -60.11 | X-H torsion
[ 7974 7965 7964 7962 ] final  158.46 input  175.53 | X-H torsion
[ 8008 7997 7996 7995 ] final -120.84 input   59.86 | X-H torsion
[ 10167 10162 10161 10158 ] final  -40.32 input  -65.29 | X-H torsion
[ 10718 10713 10712 10709 ] final  121.08 input   66.30 | X-H torsion
[ 10763 10752 10751 10750 ] final    8.54 input  -60.55 | X-H torsion
[ 11005 11000 10999 10996 ] final  108.62 input  -57.11 | X-H torsion

> <Gold.Protein.ActiveResidues>
 VAL166  LYS551  ARG553  GLY616  TRP617  ASP618  TYR619  PRO620  LYS621  CYS622 
 ASP623  PHE694  ASN695  SER759  ASP760  ASP761  ALA762  ILE779  LEU786  VAL792 
 PHE793  MET794  SER795  GLU796  ALA797  LYS798  CYS799  TRP800  GLU811  SER814 

> <Gold.Protein.RotatedAtoms>
  151.4938  135.1059  159.9810 H   0  0  0  0  0  0  0  0  0  0  0  0  # atno 6907 bound_to 6896
  152.4730  133.8069  159.6993 H   0  0  0  0  0  0  0  0  0  0  0  0  # atno 6908 bound_to 6896
  150.8751  133.7388  159.2975 H   0  0  0  0  0  0  0  0  0  0  0  0  # atno 6909 bound_to 6896
  144.7844  139.7482  143.6247 H   0  0  0  0  0  0  0  0  0  0  0  0  # atno 7974 bound_to 7965
  155.1383  140.0401  157.2792 H   0  0  0  0  0  0  0  0  0  0  0  0  # atno 8008 bound_to 7997
  154.6491  140.2565  155.7207 H   0  0  0  0  0  0  0  0  0  0  0  0  # atno 8009 bound_to 7997
  156.2569  140.2840  156.0918 H   0  0  0  0  0  0  0  0  0  0  0  0  # atno 8010 bound_to 7997
  140.7038  143.3161  151.2907 H   0  0  0  0  0  0  0  0  0  0  0  0  # atno 10167 bound_to 10162
  157.5844  131.1071  150.8124 H   0  0  0  0  0  0  0  0  0  0  0  0  # atno 10718 bound_to 10713
  153.2239  135.6884  153.7967 H   0  0  0  0  0  0  0  0  0  0  0  0  # atno 10763 bound_to 10752
  153.7156  135.3275  155.3256 H   0  0  0  0  0  0  0  0  0  0  0  0  # atno 10764 bound_to 10752
  154.8283  135.4601  154.1098 H   0  0  0  0  0  0  0  0  0  0  0  0  # atno 10765 bound_to 10752
  139.8847  134.9436  156.6001 H   0  0  0  0  0  0  0  0  0  0  0  0  # atno 11005 bound_to 11000
  146.2069  139.5399  142.9706 LP  0  0  0  0  0  0  0  0  0  0  0  0  # atno 17320 bound_to 7965
  145.5961  141.0362  143.2044 LP  0  0  0  0  0  0  0  0  0  0  0  0  # atno 17321 bound_to 7965
  139.6600  144.0207  152.2685 LP  0  0  0  0  0  0  0  0  0  0  0  0  # atno 17342 bound_to 10162
  139.9771  144.6454  150.7935 LP  0  0  0  0  0  0  0  0  0  0  0  0  # atno 17343 bound_to 10162
  156.8562  130.5097  149.5307 LP  0  0  0  0  0  0  0  0  0  0  0  0  # atno 17370 bound_to 10713
  156.0892  130.5882  150.9703 LP  0  0  0  0  0  0  0  0  0  0  0  0  # atno 17371 bound_to 10713
  140.7890  133.8598  155.8630 LP  0  0  0  0  0  0  0  0  0  0  0  0  # atno 17394 bound_to 11000
  140.9694  134.1551  157.4589 LP  0  0  0  0  0  0  0  0  0  0  0  0  # atno 17395 bound_to 11000

$$$$
