AV-unprocessed.smi:3271|AV-procd|sdf|12516|dock7
  -GOLD-   2272018423D 1   1.00000     0.00000
 Structure written by MMmdl.
 41 41  0  0  0  0  0  0  0  0  1 V2000
  151.5773  140.1715  154.6357 C   0  0  0  0  0  0  0  0  0  0  0  0
  151.3322  141.0359  155.8827 C   0  0  0  0  0  0  0  0  0  0  0  0
  149.8452  141.3601  156.1530 C   0  0  0  0  0  0  0  0  0  0  0  0
  149.2523  142.1952  154.9949 C   0  0  0  0  0  0  0  0  0  0  0  0
  147.7274  142.0832  154.8418 C   0  0  0  0  0  0  0  0  0  0  0  0
  149.6654  142.0652  157.5084 C   0  0  0  0  0  0  0  0  0  0  0  0
  148.9843  141.5483  158.3939 O   0  0  0  0  0  0  0  0  0  0  0  0
  150.2887  143.2440  157.6531 N   0  0  0  0  0  0  0  0  0  0  0  0
  150.2646  144.0734  158.8556 C   0  0  0  0  0  0  0  0  0  0  0  0
  151.6593  144.6000  159.2908 C   0  0  1  0  0  0  0  0  0  0  0  0
  152.3972  145.2032  158.0832 C   0  0  0  0  0  0  0  0  0  0  0  0
  151.4304  145.6968  160.1547 O   0  0  0  0  0  0  0  0  0  0  0  0
  152.5255  143.5394  159.9412 C   0  0  0  0  0  0  0  0  0  0  0  0
  152.9446  143.4530  161.3017 C   0  0  0  0  0  0  0  0  0  0  0  0
  153.6906  142.3889  161.5485 N   0  0  0  0  0  0  0  0  0  0  0  0
  153.7892  141.7662  160.3574 N   0  0  0  0  0  0  0  0  0  0  0  0
  154.5478  140.5383  160.2539 C   0  0  0  0  0  0  0  0  0  0  0  0
  153.1056  142.4400  159.3697 C   0  0  0  0  0  0  0  0  0  0  0  0
  152.6457  140.0396  154.4632 H   0  0  0  0  0  0  0  0  0  0  0  0
  151.1534  140.6366  153.7454 H   0  0  0  0  0  0  0  0  0  0  0  0
  151.1388  139.1787  154.7384 H   0  0  0  0  0  0  0  0  0  0  0  0
  151.7726  140.5472  156.7531 H   0  0  0  0  0  0  0  0  0  0  0  0
  151.8817  141.9697  155.7588 H   0  0  0  0  0  0  0  0  0  0  0  0
  149.3012  140.4141  156.1836 H   0  0  0  0  0  0  0  0  0  0  0  0
  149.5261  143.2448  155.1104 H   0  0  0  0  0  0  0  0  0  0  0  0
  149.7091  141.8715  154.0589 H   0  0  0  0  0  0  0  0  0  0  0  0
  147.3900  142.6060  153.9467 H   0  0  0  0  0  0  0  0  0  0  0  0
  147.2086  142.5276  155.6903 H   0  0  0  0  0  0  0  0  0  0  0  0
  147.4106  141.0432  154.7588 H   0  0  0  0  0  0  0  0  0  0  0  0
  150.8285  143.5904  156.8735 H   0  0  0  0  0  0  0  0  0  0  0  0
  149.6386  144.9257  158.5892 H   0  0  0  0  0  0  0  0  0  0  0  0
  149.7440  143.5745  159.6756 H   0  0  0  0  0  0  0  0  0  0  0  0
  152.6173  144.4423  157.3334 H   0  0  0  0  0  0  0  0  0  0  0  0
  153.3458  145.6525  158.3805 H   0  0  0  0  0  0  0  0  0  0  0  0
  151.8027  145.9782  157.5975 H   0  0  0  0  0  0  0  0  0  0  0  0
  151.7943  146.4726  159.7549 H   0  0  0  0  0  0  0  0  0  0  0  0
  152.7198  144.1246  162.1170 H   0  0  0  0  0  0  0  0  0  0  0  0
  154.7543  140.3145  159.2069 H   0  0  0  0  0  0  0  0  0  0  0  0
  153.9764  139.7172  160.6876 H   0  0  0  0  0  0  0  0  0  0  0  0
  155.4942  140.6378  160.7867 H   0  0  0  0  0  0  0  0  0  0  0  0
  153.0784  142.0816  158.3513 H   0  0  0  0  0  0  0  0  0  0  0  0
  1  2  1  0  0  0  0
  1 19  1  0  0  0  0
  1 20  1  0  0  0  0
  1 21  1  0  0  0  0
  2  3  1  0  0  0  0
  2 22  1  0  0  0  0
  2 23  1  0  0  0  0
  3  4  1  0  0  0  0
  3  6  1  0  0  0  0
  3 24  1  0  0  0  0
  4  5  1  0  0  0  0
  4 25  1  0  0  0  0
  4 26  1  0  0  0  0
  5 27  1  0  0  0  0
  5 28  1  0  0  0  0
  5 29  1  0  0  0  0
  6  7  2  0  0  0  0
  6  8  1  0  0  0  0
  8  9  1  0  0  0  0
  8 30  1  0  0  0  0
  9 10  1  0  0  0  0
  9 31  1  0  0  0  0
  9 32  1  0  0  0  0
 10 11  1  0  0  0  0
 10 12  1  0  0  0  0
 10 13  1  0  0  0  0
 11 33  1  0  0  0  0
 11 34  1  0  0  0  0
 11 35  1  0  0  0  0
 12 36  1  0  0  0  0
 13 18  2  0  0  0  0
 13 14  1  0  0  0  0
 14 15  2  0  0  0  0
 14 37  1  0  0  0  0
 15 16  1  0  0  0  0
 16 17  1  0  0  0  0
 16 18  1  0  0  0  0
 17 38  1  0  0  0  0
 17 39  1  0  0  0  0
 17 40  1  0  0  0  0
 18 41  1  0  0  0  0
M  END
> <s_m_source_file>
AV-unprocessed.smi

> <i_m_source_file_index>
3271

> <i_lp_mmshare_version>
43012

> <i_f3d_flags>
0

> <s_epik_input>
W0NIM11bQ0gyXVtDSF0oW0NIMl1bQ0gzXSlDKD1PKVtOSF1bQ0gyXVtDQEBdKFtDSDNdKShbT0hdKWMxW2NIXW5uKFtDSDNdKVtjSF0x

> <s_epik_cmdline>
J2VwaWtfcHl0aG9uJywgJy1waCcsICc3LjAnLCAnLXRuJywgJzgnLCAnLW1hJywgJzIwMCcsICctbWV0YWxfYmluZGluZycsICctaW1hZScsICc8aW5maWxlLm1hZT4nLCAnLW9tYWUnLCAnPG91dGZpbGUubWFlPic=

> <r_lp_tautomer_probability>
1

> <r_epik_Ionization_Penalty>
6.03488e-05

> <r_epik_Ionization_Penalty_Charging>
0

> <r_epik_Ionization_Penalty_Neutral>
6.03488e-05

> <r_epik_State_Penalty>
-0

> <r_epik_Charging_Adjusted_Penalty>
0

> <i_epik_Tot_Q>
0

> <i_epik_Tot_abs_Q>
0

> <r_epik_Metal_State_Penalty>
-0

> <b_epik_Metal_Only>
0

> <s_lp_Force_Field>
OPLS_2005

> <r_lp_Energy>
0.472609

> <b_lp_Chiralities_Consistent>
1

> <s_lp_Variant>
AV-unprocessed.smi:3271-1

> <Gold.Version>
5.8.1

> <Gold.Id.Protein>
6NUR|6NUR_protein|mol2

> <Gold.PLP.Fitness>
45.9592

> <Gold.PLP.PLP>
-47.1728

> <Gold.PLP.part.hbond>
-3.3374

> <Gold.PLP.part.metal>
0.0000

> <Gold.PLP.part.buried>
-4.9718

> <Gold.PLP.part.nonpolar>
-37.9710

> <Gold.PLP.part.repulsive>
0.1680

> <Gold.PLP.ligand.clash>
0.0000

> <Gold.PLP.ligand.torsion>
0.6888

> <Gold.PLP.Chemscore.Hbond>
0.0000

> <Gold.PLP.Chemscore.CHOScore>
0.0000

> <Gold.PLP.Chemscore.Metal>
0.0000

> <Gold.PLP.Chemscore.Internal.Correction>
0.1639

> <Gold.Rescore>
     Score         DG    S(hbond)    S(metal)    S(lipo)     H(rot)  DE(clash)    DE(int)     intcor
     11.13     -11.81       0.00        0.00     105.16       2.33       0.08       0.60       ----

> <Gold.Chemscore.Fitness>
11.1262

> <Gold.Chemscore.DG>
-11.8088

> <Gold.Chemscore.ZeroCoef>
-5.4800

> <Gold.Chemscore.Hbond>
0.0000

> <Gold.Chemscore.Metal>
0.0000

> <Gold.Chemscore.Lipo>
105.1630

> <Gold.Chemscore.Internal_Hbond>
0.0000

> <Gold.Chemscore.DEClash>
0.0844

> <Gold.Chemscore.DEInternal>
0.5982

> <Gold.Chemscore.Rot>
2.3341

> <Gold.Chemscore.Internal.Correction>
   9.000000E+99

> <Gold.Chemscore.Hbond.Weighted>
-0.0000

> <Gold.Chemscore.Metal.Weighted>
-0.0000

> <Gold.Chemscore.Lipo.Weighted>
-12.3041

> <Gold.Chemscore.Internal_Hbond.Weighted>
0.0000

> <Gold.Chemscore.DEClash.Weighted>
0.0844

> <Gold.Chemscore.DEInternal.Weighted>
0.5982

> <Gold.Chemscore.Rot.Weighted>
5.9753

> <Gold.Chemscore.Internal.Correction.Weighted>
   9.000000E+99

> <Gold.Protein.RotatedTorsions>
[ 6907 6896 6895 6894 ] final -141.71 input  -60.11 | X-H torsion
[ 7974 7965 7964 7962 ] final -174.60 input  175.53 | X-H torsion
[ 8008 7997 7996 7995 ] final  -43.86 input   59.86 | X-H torsion
[ 10167 10162 10161 10158 ] final -145.95 input  -65.29 | X-H torsion
[ 10718 10713 10712 10709 ] final   83.59 input   66.30 | X-H torsion
[ 10763 10752 10751 10750 ] final   59.31 input  -60.55 | X-H torsion
[ 11005 11000 10999 10996 ] final  115.09 input  -57.11 | X-H torsion

> <Gold.Protein.ActiveResidues>
 VAL166  LYS551  ARG553  GLY616  TRP617  ASP618  TYR619  PRO620  LYS621  CYS622 
 ASP623  PHE694  ASN695  SER759  ASP760  ASP761  ALA762  ILE779  LEU786  VAL792 
 PHE793  MET794  SER795  GLU796  ALA797  LYS798  CYS799  TRP800  GLU811  SER814 

> <Gold.Protein.RotatedAtoms>
  151.0775  133.5417  159.2622 H   0  0  0  0  0  0  0  0  0  0  0  0  # atno 6907 bound_to 6896
  151.2333  135.0561  159.9006 H   0  0  0  0  0  0  0  0  0  0  0  0  # atno 6908 bound_to 6896
  152.5419  134.0560  159.8185 H   0  0  0  0  0  0  0  0  0  0  0  0  # atno 6909 bound_to 6896
  144.7131  140.1447  143.6389 H   0  0  0  0  0  0  0  0  0  0  0  0  # atno 7974 bound_to 7965
  154.3997  140.1437  156.3588 H   0  0  0  0  0  0  0  0  0  0  0  0  # atno 8008 bound_to 7997
  155.8200  140.3470  155.5487 H   0  0  0  0  0  0  0  0  0  0  0  0  # atno 8009 bound_to 7997
  155.8298  140.0910  157.1790 H   0  0  0  0  0  0  0  0  0  0  0  0  # atno 8010 bound_to 7997
  139.7759  143.8171  152.2632 H   0  0  0  0  0  0  0  0  0  0  0  0  # atno 10167 bound_to 10162
  157.6882  131.0097  150.2546 H   0  0  0  0  0  0  0  0  0  0  0  0  # atno 10718 bound_to 10713
  152.9891  135.5576  154.5692 H   0  0  0  0  0  0  0  0  0  0  0  0  # atno 10763 bound_to 10752
  154.5096  135.2801  155.1356 H   0  0  0  0  0  0  0  0  0  0  0  0  # atno 10764 bound_to 10752
  154.2753  135.6355  153.5379 H   0  0  0  0  0  0  0  0  0  0  0  0  # atno 10765 bound_to 10752
  139.8999  134.9578  156.6991 H   0  0  0  0  0  0  0  0  0  0  0  0  # atno 11005 bound_to 11000
  145.9170  139.2522  143.1404 LP  0  0  0  0  0  0  0  0  0  0  0  0  # atno 17320 bound_to 7965
  145.9659  140.8799  143.0187 LP  0  0  0  0  0  0  0  0  0  0  0  0  # atno 17321 bound_to 7965
  139.8219  144.7292  150.9561 LP  0  0  0  0  0  0  0  0  0  0  0  0  # atno 17342 bound_to 10162
  140.7816  143.4151  151.0930 LP  0  0  0  0  0  0  0  0  0  0  0  0  # atno 17343 bound_to 10162
  156.3136  130.3775  149.7639 LP  0  0  0  0  0  0  0  0  0  0  0  0  # atno 17370 bound_to 10713
  156.5231  130.8224  151.3211 LP  0  0  0  0  0  0  0  0  0  0  0  0  # atno 17371 bound_to 10713
  140.7164  133.9178  155.8118 LP  0  0  0  0  0  0  0  0  0  0  0  0  # atno 17394 bound_to 11000
  141.0261  134.0822  157.4067 LP  0  0  0  0  0  0  0  0  0  0  0  0  # atno 17395 bound_to 11000

$$$$
