AV-unprocessed.smi:75|AV-procd|sdf|766|dock5
  -GOLD-   2262017113D 1   1.00000     0.00000
 Structure written by MMmdl.
 51 54  0  0  0  0  0  0  0  0  1 V2000
  143.4333  140.6647  155.5189 N   0  0  0  0  0  0  0  0  0  0  0  0
  144.1785  140.3415  156.5787 C   0  0  0  0  0  0  0  0  0  0  0  0
  143.8860  140.6965  157.7183 O   0  0  0  0  0  0  0  0  0  0  0  0
  145.4494  139.5266  156.3153 C   0  0  0  0  0  0  0  0  0  0  0  0
  146.2828  139.9888  155.0865 C   0  0  1  0  0  0  0  0  0  0  0  0
  146.6935  141.4659  155.2809 C   0  0  0  0  0  0  0  0  0  0  0  0
  147.4595  141.9253  154.1738 O   0  0  0  0  0  0  0  0  0  0  0  0
  148.6685  141.1922  154.0316 C   0  0  0  0  0  0  0  0  0  0  0  0
  148.3266  139.7213  153.7628 C   0  0  0  0  0  0  0  0  0  0  0  0
  147.4907  139.1869  154.8337 N   0  0  0  0  0  0  0  0  0  0  0  0
  147.3295  137.8544  154.6820 C   0  0  0  0  0  0  0  0  0  0  0  0
  147.8564  137.0568  155.6428 N   0  0  0  0  0  0  0  0  0  0  0  0
  147.7237  135.7301  155.5533 C   0  0  0  0  0  0  0  0  0  0  0  0
  147.1192  135.0127  154.6034 N   0  0  0  0  0  0  0  0  0  0  0  0
  146.5959  135.8141  153.6309 C   0  0  0  0  0  0  0  0  0  0  0  0
  146.6597  137.2350  153.5888 C   0  0  0  0  0  0  0  0  0  0  0  0
  146.0187  137.7066  152.4497 N   0  0  0  0  0  0  0  0  0  0  0  0
  145.5961  136.6253  151.8536 C   0  0  0  0  0  0  0  0  0  0  0  0
  145.8988  135.4436  152.4932 N   0  0  0  0  0  0  0  0  0  0  0  0
  145.5584  134.1199  152.0557 C   0  0  0  0  0  0  0  0  0  0  0  0
  145.9843  133.6152  150.6750 C   0  0  0  0  0  0  0  0  0  0  0  0
  144.6830  132.7823  150.5934 C   0  0  0  0  0  0  0  0  0  0  0  0
  143.9521  132.7431  149.2369 C   0  0  0  0  0  0  0  0  0  0  0  0
  142.6611  132.1744  149.3335 O   0  0  0  0  0  0  0  0  0  0  0  0
  144.7985  131.3293  151.0912 C   0  0  0  0  0  0  0  0  0  0  0  0
  146.0811  130.7932  150.8363 O   0  0  0  0  0  0  0  0  0  0  0  0
  144.1254  133.7674  151.6475 C   0  0  0  0  0  0  0  0  0  0  0  0
  142.5863  141.1995  155.6467 H   0  0  0  0  0  0  0  0  0  0  0  0
  143.7159  140.3732  154.5944 H   0  0  0  0  0  0  0  0  0  0  0  0
  146.0556  139.6025  157.2193 H   0  0  0  0  0  0  0  0  0  0  0  0
  145.1961  138.4693  156.2225 H   0  0  0  0  0  0  0  0  0  0  0  0
  145.6553  139.9429  154.1954 H   0  0  0  0  0  0  0  0  0  0  0  0
  145.8078  142.0961  155.3657 H   0  0  0  0  0  0  0  0  0  0  0  0
  147.2622  141.5945  156.2038 H   0  0  0  0  0  0  0  0  0  0  0  0
  149.2396  141.6039  153.1995 H   0  0  0  0  0  0  0  0  0  0  0  0
  149.2843  141.2953  154.9267 H   0  0  0  0  0  0  0  0  0  0  0  0
  147.8049  139.6373  152.8086 H   0  0  0  0  0  0  0  0  0  0  0  0
  149.2458  139.1391  153.6792 H   0  0  0  0  0  0  0  0  0  0  0  0
  148.1634  135.1612  156.3589 H   0  0  0  0  0  0  0  0  0  0  0  0
  145.0481  136.6610  150.9231 H   0  0  0  0  0  0  0  0  0  0  0  0
  145.9062  133.4313  152.8275 H   0  0  0  0  0  0  0  0  0  0  0  0
  146.0378  134.4142  149.9345 H   0  0  0  0  0  0  0  0  0  0  0  0
  146.9066  133.0337  150.6795 H   0  0  0  0  0  0  0  0  0  0  0  0
  143.8381  133.7449  148.8219 H   0  0  0  0  0  0  0  0  0  0  0  0
  144.5193  132.1635  148.5078 H   0  0  0  0  0  0  0  0  0  0  0  0
  142.0479  132.8586  149.5549 H   0  0  0  0  0  0  0  0  0  0  0  0
  144.6176  131.2617  152.1641 H   0  0  0  0  0  0  0  0  0  0  0  0
  144.0520  130.6913  150.6166 H   0  0  0  0  0  0  0  0  0  0  0  0
  146.4236  130.4406  151.6436 H   0  0  0  0  0  0  0  0  0  0  0  0
  143.5364  133.3039  152.4396 H   0  0  0  0  0  0  0  0  0  0  0  0
  143.5914  134.6166  151.2192 H   0  0  0  0  0  0  0  0  0  0  0  0
  1  2  1  0  0  0  0
  1 28  1  0  0  0  0
  1 29  1  0  0  0  0
  2  3  2  0  0  0  0
  2  4  1  0  0  0  0
  4  5  1  0  0  0  0
  4 30  1  0  0  0  0
  4 31  1  0  0  0  0
  5 10  1  0  0  0  0
  5  6  1  0  0  0  0
  5 32  1  0  0  0  0
  6  7  1  0  0  0  0
  6 33  1  0  0  0  0
  6 34  1  0  0  0  0
  7  8  1  0  0  0  0
  8  9  1  0  0  0  0
  8 35  1  0  0  0  0
  8 36  1  0  0  0  0
  9 10  1  0  0  0  0
  9 37  1  0  0  0  0
  9 38  1  0  0  0  0
 10 11  1  0  0  0  0
 11 16  1  0  0  0  0
 11 12  2  0  0  0  0
 12 13  1  0  0  0  0
 13 14  2  0  0  0  0
 13 39  1  0  0  0  0
 14 15  1  0  0  0  0
 15 19  1  0  0  0  0
 15 16  2  0  0  0  0
 16 17  1  0  0  0  0
 17 18  2  0  0  0  0
 18 19  1  0  0  0  0
 18 40  1  0  0  0  0
 19 20  1  0  0  0  0
 20 27  1  0  0  0  0
 20 21  1  0  0  0  0
 20 41  1  0  0  0  0
 21 22  1  0  0  0  0
 21 42  1  0  0  0  0
 21 43  1  0  0  0  0
 22 23  1  0  0  0  0
 22 25  1  0  0  0  0
 22 27  1  0  0  0  0
 23 24  1  0  0  0  0
 23 44  1  0  0  0  0
 23 45  1  0  0  0  0
 24 46  1  0  0  0  0
 25 26  1  0  0  0  0
 25 47  1  0  0  0  0
 25 48  1  0  0  0  0
 26 49  1  0  0  0  0
 27 50  1  0  0  0  0
 27 51  1  0  0  0  0
M  END
> <s_m_source_file>
AV-unprocessed.smi

> <i_m_source_file_index>
75

> <i_lp_mmshare_version>
43012

> <i_f3d_flags>
0

> <s_epik_input>
W05IMl1DKD1PKVtDSDJdW0NAQEhdMVtDSDJdT1tDSDJdW0NIMl1OMWMobltjSF1uMiljKGMyMyluW2NIXW4zW0NIXShbQ0gyXTQpW0NIMl1DNChbQ0gyXVtPSF0pW0NIMl1bT0hd

> <s_epik_cmdline>
J2VwaWtfcHl0aG9uJywgJy1waCcsICc3LjAnLCAnLXRuJywgJzgnLCAnLW1hJywgJzIwMCcsICctbWV0YWxfYmluZGluZycsICctaW1hZScsICc8aW5maWxlLm1hZT4nLCAnLW9tYWUnLCAnPG91dGZpbGUubWFlPic=

> <r_lp_tautomer_probability>
1

> <r_epik_Ionization_Penalty>
5.29078e-05

> <r_epik_Ionization_Penalty_Charging>
0

> <r_epik_Ionization_Penalty_Neutral>
5.29078e-05

> <r_epik_State_Penalty>
-0

> <r_epik_Charging_Adjusted_Penalty>
0

> <i_epik_Tot_Q>
0

> <i_epik_Tot_abs_Q>
0

> <r_epik_Metal_State_Penalty>
-0

> <b_epik_Metal_Only>
0

> <s_lp_Force_Field>
OPLS_2005

> <r_lp_Energy>
41.8109

> <b_lp_Chiralities_Consistent>
1

> <s_lp_Variant>
AV-unprocessed.smi:75-2

> <Gold.Version>
5.8.1

> <Gold.Id.Protein>
6NUR|6NUR_protein|mol2

> <Gold.PLP.Fitness>
44.1851

> <Gold.PLP.PLP>
-34.2555

> <Gold.PLP.part.hbond>
-5.0000

> <Gold.PLP.part.metal>
0.0000

> <Gold.PLP.part.buried>
-4.4796

> <Gold.PLP.part.nonpolar>
-25.0201

> <Gold.PLP.part.repulsive>
0.6167

> <Gold.PLP.ligand.clash>
0.0000

> <Gold.PLP.ligand.torsion>
1.2378

> <Gold.PLP.Chemscore.Hbond>
2.9750

> <Gold.PLP.Chemscore.CHOScore>
0.9244

> <Gold.PLP.Chemscore.Metal>
0.0000

> <Gold.Chemscore.Hbonds>
donor molecule, donor type, donor heavy atom, donor atom, acceptor molecule, acceptor atom, score
      L1  H     1    29       P1 10175  0.86
      L1  H    24    46       P1 10186  1.00
      P1  H 10785 10796       L1    24  0.56
      L1  C    18    40       P1 10171  1.00

> <Gold.PLP.Chemscore.Internal.Correction>
0.7070

> <Gold.Rescore>
     Score         DG    S(hbond)    S(metal)    S(lipo)     H(rot)  DE(clash)    DE(int)     intcor
      8.22      -9.51       2.37        0.00      67.92       4.63       0.02       1.27       ----

> <Gold.Chemscore.Fitness>
8.2236

> <Gold.Chemscore.DG>
-9.5087

> <Gold.Chemscore.ZeroCoef>
-5.4800

> <Gold.Chemscore.Hbond>
2.3729

> <Gold.Chemscore.Metal>
0.0000

> <Gold.Chemscore.Lipo>
67.9156

> <Gold.Chemscore.Internal_Hbond>
0.0000

> <Gold.Chemscore.DEClash>
0.0172

> <Gold.Chemscore.DEInternal>
1.2680

> <Gold.Chemscore.Rot>
4.6261

> <Gold.Chemscore.Internal.Correction>
   9.000000E+99

> <Gold.Chemscore.Hbonds>
donor molecule, donor type, donor heavy atom, donor atom, acceptor molecule, acceptor atom, score
      L1  H     1    29       P1 10175  0.81
      L1  H    24    46       P1 10186  1.00
      P1  H 10785 10796       L1    24  0.11

> <Gold.Chemscore.Hbond.Weighted>
-7.9255

> <Gold.Chemscore.Metal.Weighted>
-0.0000

> <Gold.Chemscore.Lipo.Weighted>
-7.9461

> <Gold.Chemscore.Internal_Hbond.Weighted>
0.0000

> <Gold.Chemscore.DEClash.Weighted>
0.0172

> <Gold.Chemscore.DEInternal.Weighted>
1.2680

> <Gold.Chemscore.Rot.Weighted>
11.8429

> <Gold.Chemscore.Internal.Correction.Weighted>
   9.000000E+99

> <Gold.Protein.RotatedTorsions>
[ 6907 6896 6895 6894 ] final  -51.70 input  -60.11 | X-H torsion
[ 7974 7965 7964 7962 ] final -128.42 input  175.53 | X-H torsion
[ 8008 7997 7996 7995 ] final  100.86 input   59.86 | X-H torsion
[ 10167 10162 10161 10158 ] final -113.24 input  -65.29 | X-H torsion
[ 10718 10713 10712 10709 ] final   73.94 input   66.30 | X-H torsion
[ 10763 10752 10751 10750 ] final  -22.37 input  -60.55 | X-H torsion
[ 11005 11000 10999 10996 ] final  -45.78 input  -57.11 | X-H torsion

> <Gold.Protein.ActiveResidues>
 VAL166  LYS551  ARG553  GLY616  TRP617  ASP618  TYR619  PRO620  LYS621  CYS622 
 ASP623  PHE694  ASN695  SER759  ASP760  ASP761  ALA762  ILE779  LEU786  VAL792 
 PHE793  MET794  SER795  GLU796  ALA797  LYS798  CYS799  TRP800  GLU811  SER814 

> <Gold.Protein.RotatedAtoms>
  150.8587  134.7932  159.7065 H   0  0  0  0  0  0  0  0  0  0  0  0  # atno 6907 bound_to 6896
  152.4630  134.5136  159.9771 H   0  0  0  0  0  0  0  0  0  0  0  0  # atno 6908 bound_to 6896
  151.5244  133.3422  159.2942 H   0  0  0  0  0  0  0  0  0  0  0  0  # atno 6909 bound_to 6896
  144.9672  140.7508  143.4692 H   0  0  0  0  0  0  0  0  0  0  0  0  # atno 7974 bound_to 7965
  156.1244  140.3206  155.8255 H   0  0  0  0  0  0  0  0  0  0  0  0  # atno 8008 bound_to 7997
  155.4447  140.0528  157.3024 H   0  0  0  0  0  0  0  0  0  0  0  0  # atno 8009 bound_to 7997
  154.4851  140.2069  155.9687 H   0  0  0  0  0  0  0  0  0  0  0  0  # atno 8010 bound_to 7997
  140.1140  143.4502  152.1734 H   0  0  0  0  0  0  0  0  0  0  0  0  # atno 10167 bound_to 10162
  157.6570  130.9653  150.1140 H   0  0  0  0  0  0  0  0  0  0  0  0  # atno 10718 bound_to 10713
  153.6509  135.6981  153.5209 H   0  0  0  0  0  0  0  0  0  0  0  0  # atno 10763 bound_to 10752
  153.2707  135.4216  155.0984 H   0  0  0  0  0  0  0  0  0  0  0  0  # atno 10764 bound_to 10752
  154.8476  135.3577  154.6054 H   0  0  0  0  0  0  0  0  0  0  0  0  # atno 10765 bound_to 10752
  141.0537  133.6733  156.3062 H   0  0  0  0  0  0  0  0  0  0  0  0  # atno 11005 bound_to 11000
  145.2612  139.1992  143.4891 LP  0  0  0  0  0  0  0  0  0  0  0  0  # atno 17320 bound_to 7965
  146.3371  140.2542  142.8599 LP  0  0  0  0  0  0  0  0  0  0  0  0  # atno 17321 bound_to 7965
  139.5604  144.7402  151.4172 LP  0  0  0  0  0  0  0  0  0  0  0  0  # atno 17342 bound_to 10162
  140.6910  143.7862  150.7255 LP  0  0  0  0  0  0  0  0  0  0  0  0  # atno 17343 bound_to 10162
  156.2029  130.3661  149.8765 LP  0  0  0  0  0  0  0  0  0  0  0  0  # atno 17370 bound_to 10713
  156.6664  130.8803  151.3555 LP  0  0  0  0  0  0  0  0  0  0  0  0  # atno 17371 bound_to 10713
  140.6005  134.5560  157.5516 LP  0  0  0  0  0  0  0  0  0  0  0  0  # atno 17394 bound_to 11000
  139.9372  134.7853  156.0771 LP  0  0  0  0  0  0  0  0  0  0  0  0  # atno 17395 bound_to 11000

$$$$
