AV-unprocessed.smi:3254|AV-procd|sdf|12453|dock9
  -GOLD-   2272018353D 1   1.00000     0.00000
 Structure written by MMmdl.
 37 38  0  0  0  0  0  0  0  0  2 V2000
  147.7297  123.9427  149.3053 C   0  0  0  0  0  0  0  0  0  0  0  0
  148.9506  124.8638  149.4341 C   0  0  0  0  0  0  0  0  0  0  0  0
  148.9224  125.6180  150.6840 N   0  0  0  0  0  0  0  0  0  0  0  0
  148.8712  127.0703  150.6726 C   0  0  0  0  0  0  0  0  0  0  0  0
  148.6618  127.4907  152.1437 C   0  0  1  0  0  0  0  0  0  0  0  0
  147.2554  128.0567  152.3959 C   0  0  0  0  0  0  0  0  0  0  0  0
  146.5011  127.5063  153.1984 O   0  0  0  0  0  0  0  0  0  0  0  0
  146.9203  129.1534  151.6998 N   0  0  0  0  0  0  0  0  0  0  0  0
  145.6400  129.8505  151.7805 C   0  0  0  0  0  0  0  0  0  0  0  0
  145.8310  131.3753  151.7388 C   0  0  0  0  0  0  0  0  0  0  0  0
  144.8726  132.0404  150.8503 N   0  0  0  0  0  0  0  0  0  0  0  0
  144.9179  132.1075  149.4813 C   0  0  0  0  0  0  0  0  0  0  0  0
  143.8168  132.8240  149.0884 C   0  0  0  0  0  0  0  0  0  0  0  0
  143.1443  133.1600  150.2327 N   0  3  0  0  0  0  0  0  0  0  0  0
  143.7863  132.6804  151.3029 C   0  0  0  0  0  0  0  0  0  0  0  0
  148.9112  126.2099  152.9654 C   0  0  0  0  0  0  0  0  0  0  0  0
  148.9869  125.1100  151.9195 C   0  0  0  0  0  0  0  0  0  0  0  0
  149.0841  123.9189  152.2107 O   0  0  0  0  0  0  0  0  0  0  0  0
  147.7496  123.4024  148.3588 H   0  0  0  0  0  0  0  0  0  0  0  0
  146.8016  124.5138  149.3428 H   0  0  0  0  0  0  0  0  0  0  0  0
  147.7012  123.2043  150.1071 H   0  0  0  0  0  0  0  0  0  0  0  0
  149.8689  124.2770  149.3813 H   0  0  0  0  0  0  0  0  0  0  0  0
  148.9797  125.5562  148.5919 H   0  0  0  0  0  0  0  0  0  0  0  0
  149.8143  127.4618  150.2891 H   0  0  0  0  0  0  0  0  0  0  0  0
  148.0771  127.4185  150.0094 H   0  0  0  0  0  0  0  0  0  0  0  0
  149.4018  128.2470  152.4116 H   0  0  0  0  0  0  0  0  0  0  0  0
  147.6035  129.5279  151.0581 H   0  0  0  0  0  0  0  0  0  0  0  0
  145.0075  129.5219  150.9551 H   0  0  0  0  0  0  0  0  0  0  0  0
  145.1116  129.5898  152.6989 H   0  0  0  0  0  0  0  0  0  0  0  0
  145.6948  131.7962  152.7355 H   0  0  0  0  0  0  0  0  0  0  0  0
  146.8436  131.6313  151.4226 H   0  0  0  0  0  0  0  0  0  0  0  0
  145.7100  131.6531  148.9038 H   0  0  0  0  0  0  0  0  0  0  0  0
  143.4701  133.1110  148.1063 H   0  0  0  0  0  0  0  0  0  0  0  0
  143.4860  132.7904  152.3297 H   0  0  0  0  0  0  0  0  0  0  0  0
  149.8584  126.2651  153.5029 H   0  0  0  0  0  0  0  0  0  0  0  0
  148.1248  125.9926  153.6902 H   0  0  0  0  0  0  0  0  0  0  0  0
  142.2831  133.6913  150.2662 H   0  0  0  0  0  0  0  0  0  0  0  0
  1  2  1  0  0  0  0
  1 19  1  0  0  0  0
  1 20  1  0  0  0  0
  1 21  1  0  0  0  0
  2  3  1  0  0  0  0
  2 22  1  0  0  0  0
  2 23  1  0  0  0  0
  3 17  1  0  0  0  0
  3  4  1  0  0  0  0
  4  5  1  0  0  0  0
  4 24  1  0  0  0  0
  4 25  1  0  0  0  0
  5  6  1  0  0  0  0
  5 16  1  0  0  0  0
  5 26  1  0  0  0  0
  6  7  2  0  0  0  0
  6  8  1  0  0  0  0
  8  9  1  0  0  0  0
  8 27  1  0  0  0  0
  9 10  1  0  0  0  0
  9 28  1  0  0  0  0
  9 29  1  0  0  0  0
 10 11  1  0  0  0  0
 10 30  1  0  0  0  0
 10 31  1  0  0  0  0
 11 15  1  0  0  0  0
 11 12  1  0  0  0  0
 12 13  2  0  0  0  0
 12 32  1  0  0  0  0
 13 14  1  0  0  0  0
 13 33  1  0  0  0  0
 14 15  2  0  0  0  0
 14 37  1  0  0  0  0
 15 34  1  0  0  0  0
 16 17  1  0  0  0  0
 16 35  1  0  0  0  0
 16 36  1  0  0  0  0
 17 18  2  0  0  0  0
M  CHG  1  14   1
M  END
> <s_m_source_file>
AV-unprocessed.smi

> <i_m_source_file_index>
3254

> <i_lp_mmshare_version>
43012

> <i_f3d_flags>
0

> <s_epik_input>
W0NIM11bQ0gyXU4xW0NIMl1bQ0BIXShbQ0gyXUMxPU8pQyg9TylbTkhdW0NIMl1bQ0gyXW4yW2NIXVtjSF1uW2NIXTI=

> <s_epik_cmdline>
J2VwaWtfcHl0aG9uJywgJy1waCcsICc3LjAnLCAnLXRuJywgJzgnLCAnLW1hJywgJzIwMCcsICctbWV0YWxfYmluZGluZycsICctaW1hZScsICc8aW5maWxlLm1hZT4nLCAnLW9tYWUnLCAnPG91dGZpbGUubWFlPic=

> <r_lp_tautomer_probability>
1

> <r_epik_Ionization_Penalty>
0.274742

> <r_epik_Ionization_Penalty_Charging>
0

> <r_epik_Ionization_Penalty_Neutral>
0.274742

> <r_epik_State_Penalty>
0.267046

> <r_epik_Charging_Adjusted_Penalty>
0.267046

> <i_epik_Tot_Q>
1

> <i_epik_Tot_abs_Q>
1

> <r_epik_Metal_State_Penalty>
0.550456

> <b_epik_Metal_Only>
0

> <s_lp_Force_Field>
OPLS_2005

> <r_lp_Energy>
18.3055

> <b_lp_Chiralities_Consistent>
1

> <s_lp_Variant>
AV-unprocessed.smi:3254-1

> <Gold.Version>
5.8.1

> <Gold.Id.Protein>
6NUR|6NUR_protein|mol2

> <Gold.PLP.Fitness>
49.5466

> <Gold.PLP.PLP>
-40.9682

> <Gold.PLP.part.hbond>
-2.3273

> <Gold.PLP.part.metal>
0.0000

> <Gold.PLP.part.buried>
-7.9715

> <Gold.PLP.part.nonpolar>
-32.6254

> <Gold.PLP.part.repulsive>
0.1472

> <Gold.PLP.ligand.clash>
0.0000

> <Gold.PLP.ligand.torsion>
0.7198

> <Gold.PLP.Chemscore.Hbond>
3.0000

> <Gold.PLP.Chemscore.CHOScore>
0.3327

> <Gold.PLP.Chemscore.Metal>
0.0000

> <Gold.Chemscore.Hbonds>
donor molecule, donor type, donor heavy atom, donor atom, acceptor molecule, acceptor atom, score
      L1  H     8    27       P1 10747  1.00
      L1  H    14    37       P1 10186  2.00
      L1  C    15    34       P1 10957  0.30

> <Gold.PLP.Chemscore.Internal.Correction>
0.0199

> <Gold.Rescore>
     Score         DG    S(hbond)    S(metal)    S(lipo)     H(rot)  DE(clash)    DE(int)     intcor
     15.08     -15.82       1.89        0.00      84.25       2.28       0.11       0.63       ----

> <Gold.Chemscore.Fitness>
15.0777

> <Gold.Chemscore.DG>
-15.8211

> <Gold.Chemscore.ZeroCoef>
-5.4800

> <Gold.Chemscore.Hbond>
1.8904

> <Gold.Chemscore.Metal>
0.0000

> <Gold.Chemscore.Lipo>
84.2543

> <Gold.Chemscore.Internal_Hbond>
0.0000

> <Gold.Chemscore.DEClash>
0.1086

> <Gold.Chemscore.DEInternal>
0.6348

> <Gold.Chemscore.Rot>
2.2776

> <Gold.Chemscore.Internal.Correction>
   9.000000E+99

> <Gold.Chemscore.Hbonds>
donor molecule, donor type, donor heavy atom, donor atom, acceptor molecule, acceptor atom, score
      L1  H     8    27       P1 10747  0.89
      L1  H    14    37       P1 10186  0.96

> <Gold.Chemscore.Hbond.Weighted>
-6.3141

> <Gold.Chemscore.Metal.Weighted>
-0.0000

> <Gold.Chemscore.Lipo.Weighted>
-9.8577

> <Gold.Chemscore.Internal_Hbond.Weighted>
0.0000

> <Gold.Chemscore.DEClash.Weighted>
0.1086

> <Gold.Chemscore.DEInternal.Weighted>
0.6348

> <Gold.Chemscore.Rot.Weighted>
5.8307

> <Gold.Chemscore.Internal.Correction.Weighted>
   9.000000E+99

> <Gold.Protein.RotatedTorsions>
[ 6907 6896 6895 6894 ] final  108.50 input  -60.11 | X-H torsion
[ 7974 7965 7964 7962 ] final  -31.96 input  175.53 | X-H torsion
[ 8008 7997 7996 7995 ] final   82.89 input   59.86 | X-H torsion
[ 10167 10162 10161 10158 ] final   50.21 input  -65.29 | X-H torsion
[ 10718 10713 10712 10709 ] final -163.58 input   66.30 | X-H torsion
[ 10763 10752 10751 10750 ] final    8.48 input  -60.55 | X-H torsion
[ 11005 11000 10999 10996 ] final   59.31 input  -57.11 | X-H torsion

> <Gold.Protein.ActiveResidues>
 VAL166  LYS551  ARG553  GLY616  TRP617  ASP618  TYR619  PRO620  LYS621  CYS622 
 ASP623  PHE694  ASN695  SER759  ASP760  ASP761  ALA762  ILE779  LEU786  VAL792 
 PHE793  MET794  SER795  GLU796  ALA797  LYS798  CYS799  TRP800  GLU811  SER814 

> <Gold.Protein.RotatedAtoms>
  152.5109  133.9080  159.7473 H   0  0  0  0  0  0  0  0  0  0  0  0  # atno 6907 bound_to 6896
  150.9480  133.6573  159.2784 H   0  0  0  0  0  0  0  0  0  0  0  0  # atno 6908 bound_to 6896
  151.3861  135.0953  159.9564 H   0  0  0  0  0  0  0  0  0  0  0  0  # atno 6909 bound_to 6896
  146.1027  140.5733  142.8813 H   0  0  0  0  0  0  0  0  0  0  0  0  # atno 7974 bound_to 7965
  155.9167  140.3424  155.6141 H   0  0  0  0  0  0  0  0  0  0  0  0  # atno 8008 bound_to 7997
  155.7323  140.0797  157.2302 H   0  0  0  0  0  0  0  0  0  0  0  0  # atno 8009 bound_to 7997
  154.4063  140.1586  156.2509 H   0  0  0  0  0  0  0  0  0  0  0  0  # atno 8010 bound_to 7997
  140.2749  144.3223  150.6280 H   0  0  0  0  0  0  0  0  0  0  0  0  # atno 10167 bound_to 10162
  156.6267  130.8913  151.2969 H   0  0  0  0  0  0  0  0  0  0  0  0  # atno 10718 bound_to 10713
  153.2246  135.6885  153.7960 H   0  0  0  0  0  0  0  0  0  0  0  0  # atno 10763 bound_to 10752
  153.7147  135.3277  155.3255 H   0  0  0  0  0  0  0  0  0  0  0  0  # atno 10764 bound_to 10752
  154.8285  135.4599  154.1107 H   0  0  0  0  0  0  0  0  0  0  0  0  # atno 10765 bound_to 10752
  140.0313  134.6008  155.9503 H   0  0  0  0  0  0  0  0  0  0  0  0  # atno 11005 bound_to 11000
  144.7445  140.5032  143.6845 LP  0  0  0  0  0  0  0  0  0  0  0  0  # atno 17320 bound_to 7965
  145.5822  139.1489  143.3229 LP  0  0  0  0  0  0  0  0  0  0  0  0  # atno 17321 bound_to 7965
  140.5860  143.2170  151.7342 LP  0  0  0  0  0  0  0  0  0  0  0  0  # atno 17342 bound_to 10162
  139.4978  144.4011  152.0181 LP  0  0  0  0  0  0  0  0  0  0  0  0  # atno 17343 bound_to 10162
  157.7212  130.9561  150.1446 LP  0  0  0  0  0  0  0  0  0  0  0  0  # atno 17370 bound_to 10713
  156.2268  130.3678  149.8492 LP  0  0  0  0  0  0  0  0  0  0  0  0  # atno 17371 bound_to 10713
  141.1832  133.6550  156.5109 LP  0  0  0  0  0  0  0  0  0  0  0  0  # atno 17394 bound_to 11000
  140.4221  134.7178  157.4895 LP  0  0  0  0  0  0  0  0  0  0  0  0  # atno 17395 bound_to 11000

$$$$
