AV-unprocessed.smi:1643|AV-procd|sdf|6578|dock3
  -GOLD-   22720 7263D 1   1.00000     0.00000
 Structure written by MMmdl.
 55 57  0  0  0  0  0  0  0  0  3 V2000
  148.6224  132.8837  157.9288 C   0  0  0  0  0  0  0  0  0  0  0  0
  148.5718  134.4137  157.8961 C   0  0  0  0  0  0  0  0  0  0  0  0
  148.8744  135.0239  158.9214 O   0  0  0  0  0  0  0  0  0  0  0  0
  148.2105  135.0423  156.7502 N   0  0  0  0  0  0  0  0  0  0  0  0
  147.7584  134.2856  155.5732 C   0  0  0  0  0  0  0  0  0  0  0  0
  148.8697  134.1316  154.5097 C   0  0  0  0  0  0  0  0  0  0  0  0
  150.1070  135.0404  154.6914 C   0  0  0  0  0  0  0  0  0  0  0  0
  149.8444  136.5055  154.5790 N   0  3  2  0  0  0  0  0  0  0  0  0
  150.9915  137.3323  155.0442 C   0  0  0  0  0  0  0  0  0  0  0  0
  150.6438  138.8261  155.2138 C   0  0  2  0  0  0  0  0  0  0  0  0
  150.3929  139.3509  153.9262 O   0  0  0  0  0  0  0  0  0  0  0  0
  151.7754  139.6275  155.8926 C   0  0  0  0  0  0  0  0  0  0  0  0
  151.3156  140.8958  156.4777 N   0  0  0  0  0  0  0  0  0  0  0  0
  150.4669  141.8307  155.9686 C   0  0  0  0  0  0  0  0  0  0  0  0
  150.3440  142.8224  156.8937 N   0  3  0  0  0  0  0  0  0  0  0  0
  151.1247  142.5178  158.0104 C   0  0  0  0  0  0  0  0  0  0  0  0
  151.3256  143.2137  159.1966 C   0  0  0  0  0  0  0  0  0  0  0  0
  152.1952  142.6318  160.1462 C   0  0  0  0  0  0  0  0  0  0  0  0
  152.4417  143.3695  161.4513 C   0  0  0  0  0  0  0  0  0  0  0  0
  152.8283  141.3879  159.8905 C   0  0  0  0  0  0  0  0  0  0  0  0
  153.7639  140.7728  160.9176 C   0  0  0  0  0  0  0  0  0  0  0  0
  152.6084  140.6942  158.6790 C   0  0  0  0  0  0  0  0  0  0  0  0
  151.7505  141.2824  157.7520 C   0  0  0  0  0  0  0  0  0  0  0  0
  148.5451  136.9826  155.1360 C   0  0  0  0  0  0  0  0  0  0  0  0
  148.2333  136.5071  156.5791 C   0  0  0  0  0  0  0  0  0  0  0  0
  149.1814  132.4906  157.0790 H   0  0  0  0  0  0  0  0  0  0  0  0
  147.6159  132.4649  157.9166 H   0  0  0  0  0  0  0  0  0  0  0  0
  149.1166  132.5367  158.8372 H   0  0  0  0  0  0  0  0  0  0  0  0
  147.3733  133.3006  155.8429 H   0  0  0  0  0  0  0  0  0  0  0  0
  146.8916  134.7876  155.1427 H   0  0  0  0  0  0  0  0  0  0  0  0
  149.2162  133.0977  154.5331 H   0  0  0  0  0  0  0  0  0  0  0  0
  148.4452  134.2731  153.5152 H   0  0  0  0  0  0  0  0  0  0  0  0
  150.5874  134.8201  155.6459 H   0  0  0  0  0  0  0  0  0  0  0  0
  150.8357  134.7674  153.9287 H   0  0  0  0  0  0  0  0  0  0  0  0
  151.3505  136.9597  156.0046 H   0  0  0  0  0  0  0  0  0  0  0  0
  151.8212  137.2119  154.3455 H   0  0  0  0  0  0  0  0  0  0  0  0
  149.7204  138.9410  155.7810 H   0  0  0  0  0  0  0  0  0  0  0  0
  149.4789  139.5848  153.8676 H   0  0  0  0  0  0  0  0  0  0  0  0
  152.2075  139.0442  156.7066 H   0  0  0  0  0  0  0  0  0  0  0  0
  152.5916  139.8285  155.1981 H   0  0  0  0  0  0  0  0  0  0  0  0
  149.9756  141.7929  155.0069 H   0  0  0  0  0  0  0  0  0  0  0  0
  150.8399  144.1602  159.3845 H   0  0  0  0  0  0  0  0  0  0  0  0
  152.1078  142.7707  162.2990 H   0  0  0  0  0  0  0  0  0  0  0  0
  151.9043  144.3179  161.4809 H   0  0  0  0  0  0  0  0  0  0  0  0
  153.5031  143.5849  161.5756 H   0  0  0  0  0  0  0  0  0  0  0  0
  154.1384  139.8037  160.5867 H   0  0  0  0  0  0  0  0  0  0  0  0
  153.2482  140.6229  161.8663 H   0  0  0  0  0  0  0  0  0  0  0  0
  154.6234  141.4216  161.0882 H   0  0  0  0  0  0  0  0  0  0  0  0
  153.0961  139.7503  158.4852 H   0  0  0  0  0  0  0  0  0  0  0  0
  148.5149  138.0724  155.1084 H   0  0  0  0  0  0  0  0  0  0  0  0
  147.7513  136.6890  154.4501 H   0  0  0  0  0  0  0  0  0  0  0  0
  147.2638  136.9000  156.8880 H   0  0  0  0  0  0  0  0  0  0  0  0
  148.9713  136.9698  157.2341 H   0  0  0  0  0  0  0  0  0  0  0  0
  149.7669  136.6927  153.5895 H   0  0  0  0  0  0  0  0  0  0  0  0
  149.7671  143.6452  156.7709 H   0  0  0  0  0  0  0  0  0  0  0  0
  1  2  1  0  0  0  0
  1 26  1  0  0  0  0
  1 27  1  0  0  0  0
  1 28  1  0  0  0  0
  2  3  2  0  0  0  0
  2  4  1  0  0  0  0
  4 25  1  0  0  0  0
  4  5  1  0  0  0  0
  5  6  1  0  0  0  0
  5 29  1  0  0  0  0
  5 30  1  0  0  0  0
  6  7  1  0  0  0  0
  6 31  1  0  0  0  0
  6 32  1  0  0  0  0
  7  8  1  0  0  0  0
  7 33  1  0  0  0  0
  7 34  1  0  0  0  0
  8  9  1  0  0  0  0
  8 24  1  0  0  0  0
  8 54  1  0  0  0  0
  9 10  1  0  0  0  0
  9 35  1  0  0  0  0
  9 36  1  0  0  0  0
 10 11  1  0  0  0  0
 10 12  1  0  0  0  0
 10 37  1  0  0  0  0
 11 38  1  0  0  0  0
 12 13  1  0  0  0  0
 12 39  1  0  0  0  0
 12 40  1  0  0  0  0
 13 23  1  0  0  0  0
 13 14  1  0  0  0  0
 14 15  2  0  0  0  0
 14 41  1  0  0  0  0
 15 16  1  0  0  0  0
 15 55  1  0  0  0  0
 16 23  2  0  0  0  0
 16 17  1  0  0  0  0
 17 18  2  0  0  0  0
 17 42  1  0  0  0  0
 18 19  1  0  0  0  0
 18 20  1  0  0  0  0
 19 43  1  0  0  0  0
 19 44  1  0  0  0  0
 19 45  1  0  0  0  0
 20 21  1  0  0  0  0
 20 22  2  0  0  0  0
 21 46  1  0  0  0  0
 21 47  1  0  0  0  0
 21 48  1  0  0  0  0
 22 23  1  0  0  0  0
 22 49  1  0  0  0  0
 24 25  1  0  0  0  0
 24 50  1  0  0  0  0
 24 51  1  0  0  0  0
 25 52  1  0  0  0  0
 25 53  1  0  0  0  0
M  CHG  1   8   1
M  CHG  1  15   1
M  END
> <s_m_source_file>
AV-unprocessed.smi

> <i_m_source_file_index>
1643

> <i_lp_mmshare_version>
43012

> <i_f3d_flags>
0

> <s_epik_input>
W0NIM11DKD1PKU4xW0NIMl1bQ0gyXVtDSDJdTihbQ0gyXVtDSDJdMSlbQ0gyXVtDQEhdKFtPSF0pW0NIMl1uKFtjSF1uMiljKGMyMylbY0hdYyhbQ0gzXSljKFtjSF0zKVtDSDNd

> <s_epik_cmdline>
J2VwaWtfcHl0aG9uJywgJy1waCcsICc3LjAnLCAnLXRuJywgJzgnLCAnLW1hJywgJzIwMCcsICctbWV0YWxfYmluZGluZycsICctaW1hZScsICc8aW5maWxlLm1hZT4nLCAnLW9tYWUnLCAnPG91dGZpbGUubWFlPic=

> <r_epik_Ionization_Penalty>
1.2865

> <r_epik_Ionization_Penalty_Charging>
1.2865

> <r_epik_Ionization_Penalty_Neutral>
2.89706e-06

> <r_epik_State_Penalty>
1.3566

> <r_epik_Charging_Adjusted_Penalty>
2.6431

> <i_epik_Tot_Q>
2

> <i_epik_Tot_abs_Q>
2

> <r_epik_Metal_State_Penalty>
5.37339

> <b_epik_Metal_Only>
0

> <s_lp_Force_Field>
OPLS_2005

> <r_lp_Energy>
60.0404

> <b_lp_Chiralities_Consistent>
1

> <s_lp_Variant>
AV-unprocessed.smi:1643-7

> <Gold.Version>
5.8.1

> <Gold.Id.Protein>
6NUR|6NUR_protein|mol2

> <Gold.PLP.Fitness>
62.2243

> <Gold.PLP.PLP>
-45.3473

> <Gold.PLP.part.hbond>
-5.0000

> <Gold.PLP.part.metal>
0.0000

> <Gold.PLP.part.buried>
-5.2099

> <Gold.PLP.part.nonpolar>
-35.5077

> <Gold.PLP.part.repulsive>
0.0776

> <Gold.PLP.ligand.clash>
0.0000

> <Gold.PLP.ligand.torsion>
0.6236

> <Gold.PLP.Chemscore.Hbond>
6.0000

> <Gold.PLP.Chemscore.CHOScore>
0.0000

> <Gold.PLP.Chemscore.Metal>
0.0000

> <Gold.Chemscore.Hbonds>
donor molecule, donor type, donor heavy atom, donor atom, acceptor molecule, acceptor atom, score
      L1  H     8    54       P1  7948  1.95
      L1  H    15    55       P1  8028  1.95
      P1  H  6896  6907       L1     3  1.00
      P1  H  7989  7998       L1    11  1.00

> <Gold.PLP.Chemscore.Internal.Correction>
0.1242

> <Gold.Rescore>
     Score         DG    S(hbond)    S(metal)    S(lipo)     H(rot)  DE(clash)    DE(int)     intcor
     23.87     -24.46       3.43        0.00     111.94       2.17       0.11       0.48       ----

> <Gold.Chemscore.Fitness>
23.8670

> <Gold.Chemscore.DG>
-24.4605

> <Gold.Chemscore.ZeroCoef>
-5.4800

> <Gold.Chemscore.Hbond>
3.4283

> <Gold.Chemscore.Metal>
0.0000

> <Gold.Chemscore.Lipo>
111.9356

> <Gold.Chemscore.Internal_Hbond>
0.0000

> <Gold.Chemscore.DEClash>
0.1088

> <Gold.Chemscore.DEInternal>
0.4846

> <Gold.Chemscore.Rot>
2.1744

> <Gold.Chemscore.Internal.Correction>
   9.000000E+99

> <Gold.Chemscore.Hbonds>
donor molecule, donor type, donor heavy atom, donor atom, acceptor molecule, acceptor atom, score
      L1  H     8    54       P1  7948  0.42
      L1  H    15    55       P1  8028  0.93
      P1  H  6896  6907       L1     3  0.33
      P1  H  7989  7998       L1    11  0.66

> <Gold.Chemscore.Hbond.Weighted>
-11.4506

> <Gold.Chemscore.Metal.Weighted>
-0.0000

> <Gold.Chemscore.Lipo.Weighted>
-13.0965

> <Gold.Chemscore.Internal_Hbond.Weighted>
0.0000

> <Gold.Chemscore.DEClash.Weighted>
0.1088

> <Gold.Chemscore.DEInternal.Weighted>
0.4846

> <Gold.Chemscore.Rot.Weighted>
5.5666

> <Gold.Chemscore.Internal.Correction.Weighted>
   9.000000E+99

> <Gold.Protein.RotatedTorsions>
[ 6907 6896 6895 6894 ] final  -94.75 input  -60.11 | X-H torsion
[ 7974 7965 7964 7962 ] final  165.04 input  175.53 | X-H torsion
[ 8008 7997 7996 7995 ] final  149.85 input   59.86 | X-H torsion
[ 10167 10162 10161 10158 ] final  153.34 input  -65.29 | X-H torsion
[ 10718 10713 10712 10709 ] final   43.20 input   66.30 | X-H torsion
[ 10763 10752 10751 10750 ] final  148.15 input  -60.55 | X-H torsion
[ 11005 11000 10999 10996 ] final   78.85 input  -57.11 | X-H torsion

> <Gold.Protein.ActiveResidues>
 VAL166  LYS551  ARG553  GLY616  TRP617  ASP618  TYR619  PRO620  LYS621  CYS622 
 ASP623  PHE694  ASN695  SER759  ASP760  ASP761  ALA762  ILE779  LEU786  VAL792 
 PHE793  MET794  SER795  GLU796  ALA797  LYS798  CYS799  TRP800  GLU811  SER814 

> <Gold.Protein.RotatedAtoms>
  150.6948  134.1764  159.4231 H   0  0  0  0  0  0  0  0  0  0  0  0  # atno 6907 bound_to 6896
  151.9740  135.0060  160.0563 H   0  0  0  0  0  0  0  0  0  0  0  0  # atno 6908 bound_to 6896
  152.1816  133.4676  159.4998 H   0  0  0  0  0  0  0  0  0  0  0  0  # atno 6909 bound_to 6896
  144.7519  139.8412  143.6363 H   0  0  0  0  0  0  0  0  0  0  0  0  # atno 7974 bound_to 7965
  156.2739  140.2090  156.5924 H   0  0  0  0  0  0  0  0  0  0  0  0  # atno 8008 bound_to 7997
  154.6972  140.0524  157.0445 H   0  0  0  0  0  0  0  0  0  0  0  0  # atno 8009 bound_to 7997
  155.0785  140.3184  155.4611 H   0  0  0  0  0  0  0  0  0  0  0  0  # atno 8010 bound_to 7997
  139.4827  144.5281  151.7767 H   0  0  0  0  0  0  0  0  0  0  0  0  # atno 10167 bound_to 10162
  157.4132  130.7926  149.7449 H   0  0  0  0  0  0  0  0  0  0  0  0  # atno 10718 bound_to 10713
  154.0500  135.2882  155.3342 H   0  0  0  0  0  0  0  0  0  0  0  0  # atno 10763 bound_to 10752
  154.6875  135.5239  153.8350 H   0  0  0  0  0  0  0  0  0  0  0  0  # atno 10764 bound_to 10752
  153.0565  135.6597  154.0697 H   0  0  0  0  0  0  0  0  0  0  0  0  # atno 10765 bound_to 10752
  139.9196  134.7796  156.1703 H   0  0  0  0  0  0  0  0  0  0  0  0  # atno 11005 bound_to 11000
  146.1481  139.4556  143.0066 LP  0  0  0  0  0  0  0  0  0  0  0  0  # atno 17320 bound_to 7965
  145.6913  141.0163  143.1554 LP  0  0  0  0  0  0  0  0  0  0  0  0  # atno 17321 bound_to 7965
  140.4804  144.1458  150.5931 LP  0  0  0  0  0  0  0  0  0  0  0  0  # atno 17342 bound_to 10162
  140.4284  143.2579  151.9626 LP  0  0  0  0  0  0  0  0  0  0  0  0  # atno 17343 bound_to 10162
  155.9857  130.3981  150.3248 LP  0  0  0  0  0  0  0  0  0  0  0  0  # atno 17370 bound_to 10713
  157.1389  131.0291  151.2937 LP  0  0  0  0  0  0  0  0  0  0  0  0  # atno 17371 bound_to 10713
  141.0704  133.6799  156.2129 LP  0  0  0  0  0  0  0  0  0  0  0  0  # atno 17394 bound_to 11000
  140.6515  134.5062  157.5578 LP  0  0  0  0  0  0  0  0  0  0  0  0  # atno 17395 bound_to 11000

$$$$
