AV-unprocessed.smi:1748|AV-procd|sdf|7037|dock8
  -GOLD-   22720 8253D 1   1.00000     0.00000
 Structure written by MMmdl.
 40 41  0  0  0  0  0  0  0  0  2 V2000
  149.3320  141.1955  155.1321 C   0  0  0  0  0  0  0  0  0  0  0  0
  149.7652  140.7610  156.4772 N   0  3  2  0  0  0  0  0  0  0  0  0
  150.3720  141.8657  157.2617 C   0  0  0  0  0  0  0  0  0  0  0  0
  150.6920  141.4152  158.6975 C   0  0  0  0  0  0  0  0  0  0  0  0
  151.5768  140.1567  158.7049 C   0  0  0  0  0  0  0  0  0  0  0  0
  150.9548  139.0384  157.8487 C   0  0  1  0  0  0  0  0  0  0  0  0
  149.7550  138.5185  158.5052 N   0  0  0  0  0  0  0  0  0  0  0  0
  149.6484  137.3162  159.0889 C   0  0  0  0  0  0  0  0  0  0  0  0
  150.5653  136.4961  159.1104 O   0  0  0  0  0  0  0  0  0  0  0  0
  148.4199  137.1437  159.6101 N   0  0  0  0  0  0  0  0  0  0  0  0
  147.8951  136.0475  160.3156 C   0  0  0  0  0  0  0  0  0  0  0  0
  147.8466  134.7712  159.8513 C   0  0  0  0  0  0  0  0  0  0  0  0
  147.3007  133.6820  160.6438 C   0  0  0  0  0  0  0  0  0  0  0  0
  147.1779  132.2744  160.0814 C   0  0  0  0  0  0  0  0  0  0  0  0
  147.8427  131.4180  160.8556 F   0  0  0  0  0  0  0  0  0  0  0  0
  145.9041  131.8827  160.0260 F   0  0  0  0  0  0  0  0  0  0  0  0
  147.6903  132.2060  158.8528 F   0  0  0  0  0  0  0  0  0  0  0  0
  146.8357  134.0028  161.8653 C   0  0  0  0  0  0  0  0  0  0  0  0
  146.9010  135.3079  162.3583 N   0  0  0  0  0  0  0  0  0  0  0  0
  147.4001  136.3570  161.6673 C   0  0  0  0  0  0  0  0  0  0  0  0
  147.4195  137.4801  162.1703 O   0  0  0  0  0  0  0  0  0  0  0  0
  150.6497  139.5696  156.4299 C   0  0  0  0  0  0  0  0  0  0  0  0
  146.5456  135.4644  163.2906 H   0  0  0  0  0  0  0  0  0  0  0  0
  150.1841  141.5149  154.5307 H   0  0  0  0  0  0  0  0  0  0  0  0
  148.6312  142.0278  155.2033 H   0  0  0  0  0  0  0  0  0  0  0  0
  148.8285  140.3820  154.6086 H   0  0  0  0  0  0  0  0  0  0  0  0
  151.2808  142.2098  156.7653 H   0  0  0  0  0  0  0  0  0  0  0  0
  149.6863  142.7137  157.2910 H   0  0  0  0  0  0  0  0  0  0  0  0
  151.1895  142.2213  159.2375 H   0  0  0  0  0  0  0  0  0  0  0  0
  149.7628  141.2178  159.2334 H   0  0  0  0  0  0  0  0  0  0  0  0
  152.5617  140.4082  158.3089 H   0  0  0  0  0  0  0  0  0  0  0  0
  151.7379  139.8128  159.7275 H   0  0  0  0  0  0  0  0  0  0  0  0
  151.6783  138.2243  157.7739 H   0  0  0  0  0  0  0  0  0  0  0  0
  148.9533  139.1316  158.5381 H   0  0  0  0  0  0  0  0  0  0  0  0
  147.7593  137.8920  159.4569 H   0  0  0  0  0  0  0  0  0  0  0  0
  148.2342  134.5166  158.8788 H   0  0  0  0  0  0  0  0  0  0  0  0
  146.3797  133.2999  162.5471 H   0  0  0  0  0  0  0  0  0  0  0  0
  150.1826  138.7897  155.8271 H   0  0  0  0  0  0  0  0  0  0  0  0
  151.5801  139.8321  155.9236 H   0  0  0  0  0  0  0  0  0  0  0  0
  148.9296  140.4795  156.9700 H   0  0  0  0  0  0  0  0  0  0  0  0
  1  2  1  0  0  0  0
  1 24  1  0  0  0  0
  1 25  1  0  0  0  0
  1 26  1  0  0  0  0
  2 22  1  0  0  0  0
  2  3  1  0  0  0  0
  2 40  1  0  0  0  0
  3  4  1  0  0  0  0
  3 27  1  0  0  0  0
  3 28  1  0  0  0  0
  4  5  1  0  0  0  0
  4 29  1  0  0  0  0
  4 30  1  0  0  0  0
  5  6  1  0  0  0  0
  5 31  1  0  0  0  0
  5 32  1  0  0  0  0
  6  7  1  0  0  0  0
  6 22  1  0  0  0  0
  6 33  1  0  0  0  0
  7  8  1  0  0  0  0
  7 34  1  0  0  0  0
  8  9  2  0  0  0  0
  8 10  1  0  0  0  0
 10 11  1  0  0  0  0
 10 35  1  0  0  0  0
 11 20  1  0  0  0  0
 11 12  2  0  0  0  0
 12 13  1  0  0  0  0
 12 36  1  0  0  0  0
 13 14  1  0  0  0  0
 13 18  2  0  0  0  0
 14 15  1  0  0  0  0
 14 16  1  0  0  0  0
 14 17  1  0  0  0  0
 18 19  1  0  0  0  0
 18 37  1  0  0  0  0
 19 23  1  0  0  0  0
 19 20  1  0  0  0  0
 20 21  2  0  0  0  0
 22 38  1  0  0  0  0
 22 39  1  0  0  0  0
M  CHG  1   2   1
M  END
> <s_m_source_file>
AV-unprocessed.smi

> <i_m_source_file_index>
1748

> <i_lp_mmshare_version>
43012

> <i_f3d_flags>
0

> <s_epik_input>
W0NIM11OMVtDSDJdW0NIMl1bQ0gyXVtDQEhdKFtDSDJdMSlbTkhdQyg9TylbTkhdYzJbY0hdYyhDKEYpKEYpRilbY0hdW25IXWMyPU8=

> <s_epik_cmdline>
J2VwaWtfcHl0aG9uJywgJy1waCcsICc3LjAnLCAnLXRuJywgJzgnLCAnLW1hJywgJzIwMCcsICctbWV0YWxfYmluZGluZycsICctaW1hZScsICc8aW5maWxlLm1hZT4nLCAnLW9tYWUnLCAnPG91dGZpbGUubWFlPic=

> <r_lp_tautomer_probability>
1

> <r_epik_Ionization_Penalty>
0.00746315

> <r_epik_Ionization_Penalty_Charging>
0.00744398

> <r_epik_Ionization_Penalty_Neutral>
1.91704e-05

> <r_epik_State_Penalty>
-0

> <r_epik_Charging_Adjusted_Penalty>
0.00744398

> <i_epik_Tot_Q>
1

> <i_epik_Tot_abs_Q>
1

> <r_epik_Metal_State_Penalty>
0.379332

> <b_epik_Metal_Only>
0

> <s_lp_Force_Field>
OPLS_2005

> <r_lp_Energy>
33.6429

> <b_lp_Chiralities_Consistent>
1

> <s_lp_Variant>
AV-unprocessed.smi:1748-2

> <Gold.Version>
5.8.1

> <Gold.Id.Protein>
6NUR|6NUR_protein|mol2

> <Gold.PLP.Fitness>
38.2414

> <Gold.PLP.PLP>
-32.1396

> <Gold.PLP.part.hbond>
-3.0000

> <Gold.PLP.part.metal>
0.0000

> <Gold.PLP.part.buried>
-4.1404

> <Gold.PLP.part.nonpolar>
-25.4772

> <Gold.PLP.part.repulsive>
0.4940

> <Gold.PLP.ligand.clash>
0.0000

> <Gold.PLP.ligand.torsion>
0.6491

> <Gold.PLP.Chemscore.Hbond>
2.4560

> <Gold.PLP.Chemscore.CHOScore>
0.0000

> <Gold.PLP.Chemscore.Metal>
0.0000

> <Gold.Chemscore.Hbonds>
donor molecule, donor type, donor heavy atom, donor atom, acceptor molecule, acceptor atom, score
      P1  H  6896  6909       L1     9  1.00
      P1  H  6931  6943       L1    21  0.74
      P1  H  6934  6947       L1    21  0.56

> <Gold.PLP.Chemscore.Internal.Correction>
0.0319

> <Gold.Rescore>
     Score         DG    S(hbond)    S(metal)    S(lipo)     H(rot)  DE(clash)    DE(int)     intcor
     17.36     -18.27       2.58        0.00      57.55       1.00       0.07       0.84       ----

> <Gold.Chemscore.Fitness>
17.3646

> <Gold.Chemscore.DG>
-18.2687

> <Gold.Chemscore.ZeroCoef>
-5.4800

> <Gold.Chemscore.Hbond>
2.5795

> <Gold.Chemscore.Metal>
0.0000

> <Gold.Chemscore.Lipo>
57.5485

> <Gold.Chemscore.Internal_Hbond>
0.0000

> <Gold.Chemscore.DEClash>
0.0650

> <Gold.Chemscore.DEInternal>
0.8391

> <Gold.Chemscore.Rot>
1.0000

> <Gold.Chemscore.Internal.Correction>
   9.000000E+99

> <Gold.Chemscore.Hbonds>
donor molecule, donor type, donor heavy atom, donor atom, acceptor molecule, acceptor atom, score
      P1  H  6896  6909       L1     9  0.99
      P1  H  6931  6943       L1    21  0.58
      P1  H  6934  6947       L1    21  0.52

> <Gold.Chemscore.Hbond.Weighted>
-8.6155

> <Gold.Chemscore.Metal.Weighted>
-0.0000

> <Gold.Chemscore.Lipo.Weighted>
-6.7332

> <Gold.Chemscore.Internal_Hbond.Weighted>
0.0000

> <Gold.Chemscore.DEClash.Weighted>
0.0650

> <Gold.Chemscore.DEInternal.Weighted>
0.8391

> <Gold.Chemscore.Rot.Weighted>
2.5600

> <Gold.Chemscore.Internal.Correction.Weighted>
   9.000000E+99

> <Gold.Protein.RotatedTorsions>
[ 6907 6896 6895 6894 ] final   95.14 input  -60.11 | X-H torsion
[ 7974 7965 7964 7962 ] final   84.38 input  175.53 | X-H torsion
[ 8008 7997 7996 7995 ] final    2.68 input   59.86 | X-H torsion
[ 10167 10162 10161 10158 ] final  -38.89 input  -65.29 | X-H torsion
[ 10718 10713 10712 10709 ] final  115.67 input   66.30 | X-H torsion
[ 10763 10752 10751 10750 ] final   -5.78 input  -60.55 | X-H torsion
[ 11005 11000 10999 10996 ] final   25.31 input  -57.11 | X-H torsion

> <Gold.Protein.ActiveResidues>
 VAL166  LYS551  ARG553  GLY616  TRP617  ASP618  TYR619  PRO620  LYS621  CYS622 
 ASP623  PHE694  ASN695  SER759  ASP760  ASP761  ALA762  ILE779  LEU786  VAL792 
 PHE793  MET794  SER795  GLU796  ALA797  LYS798  CYS799  TRP800  GLU811  SER814 

> <Gold.Protein.RotatedAtoms>
  152.5445  134.1085  159.8348 H   0  0  0  0  0  0  0  0  0  0  0  0  # atno 6907 bound_to 6896
  151.1155  133.5135  159.2611 H   0  0  0  0  0  0  0  0  0  0  0  0  # atno 6908 bound_to 6896
  151.1837  135.0382  159.8858 H   0  0  0  0  0  0  0  0  0  0  0  0  # atno 6909 bound_to 6896
  145.5995  139.2350  143.2254 H   0  0  0  0  0  0  0  0  0  0  0  0  # atno 7974 bound_to 7965
  154.6945  140.2660  155.6780 H   0  0  0  0  0  0  0  0  0  0  0  0  # atno 8008 bound_to 7997
  156.2743  140.2784  156.1457 H   0  0  0  0  0  0  0  0  0  0  0  0  # atno 8009 bound_to 7997
  155.0851  140.0373  157.2641 H   0  0  0  0  0  0  0  0  0  0  0  0  # atno 8010 bound_to 7997
  140.7080  143.3249  151.2705 H   0  0  0  0  0  0  0  0  0  0  0  0  # atno 10167 bound_to 10162
  157.6208  131.1015  150.7363 H   0  0  0  0  0  0  0  0  0  0  0  0  # atno 10718 bound_to 10713
  153.4033  135.7005  153.6410 H   0  0  0  0  0  0  0  0  0  0  0  0  # atno 10763 bound_to 10752
  153.4935  135.3667  155.2504 H   0  0  0  0  0  0  0  0  0  0  0  0  # atno 10764 bound_to 10752
  154.8712  135.4094  154.3372 H   0  0  0  0  0  0  0  0  0  0  0  0  # atno 10765 bound_to 10752
  140.3493  134.2247  155.7681 H   0  0  0  0  0  0  0  0  0  0  0  0  # atno 11005 bound_to 11000
  146.1587  140.6820  142.9288 LP  0  0  0  0  0  0  0  0  0  0  0  0  # atno 17320 bound_to 7965
  144.7316  140.4688  143.6934 LP  0  0  0  0  0  0  0  0  0  0  0  0  # atno 17321 bound_to 7965
  139.6714  144.0014  152.2755 LP  0  0  0  0  0  0  0  0  0  0  0  0  # atno 17342 bound_to 10162
  139.9614  144.6555  150.8076 LP  0  0  0  0  0  0  0  0  0  0  0  0  # atno 17343 bound_to 10162
  156.7721  130.4832  149.5416 LP  0  0  0  0  0  0  0  0  0  0  0  0  # atno 17370 bound_to 10713
  156.1352  130.6206  151.0390 LP  0  0  0  0  0  0  0  0  0  0  0  0  # atno 17371 bound_to 10713
  141.2017  133.7957  157.0429 LP  0  0  0  0  0  0  0  0  0  0  0  0  # atno 17394 bound_to 11000
  140.0716  134.9699  157.1477 LP  0  0  0  0  0  0  0  0  0  0  0  0  # atno 17395 bound_to 11000

$$$$
