AV-unprocessed.smi:678|AV-procd|sdf|3314|dock4
  -GOLD-   22720 0283D 1   1.00000     0.00000
 Structure written by MMmdl.
 51 52  0  0  0  0  0  0  0  0  2 V2000
  151.2945  141.9557  156.9069 C   0  0  0  0  0  0  0  0  0  0  0  0
  150.6648  140.9765  155.9316 C   0  0  0  0  0  0  0  0  0  0  0  0
  149.4504  141.2074  155.3872 C   0  0  0  0  0  0  0  0  0  0  0  0
  148.8509  140.2648  154.4741 C   0  0  0  0  0  0  0  0  0  0  0  0
  149.5293  139.1461  154.1818 C   0  0  0  0  0  0  0  0  0  0  0  0
  150.7958  138.8809  154.7347 N   0  0  0  0  0  0  0  0  0  0  0  0
  151.4459  137.6172  154.3476 C   0  0  0  0  0  0  0  0  0  0  0  0
  150.9053  136.4187  155.1377 C   0  0  0  0  0  0  0  0  0  0  0  0
  150.8052  136.4741  156.3637 O   0  0  0  0  0  0  0  0  0  0  0  0
  150.5728  135.3365  154.4185 N   0  0  0  0  0  0  0  0  0  0  0  0
  150.1413  134.0546  154.9661 C   0  0  0  0  0  0  0  0  0  0  0  0
  148.8623  133.5421  154.2763 C   0  0  1  0  0  0  0  0  0  0  0  0
  149.1059  132.9941  152.8480 C   0  0  0  0  0  0  0  0  0  0  0  0
  147.8746  132.4059  152.2621 N   0  3  2  0  0  0  0  0  0  0  0  0
  146.9048  133.4038  151.7346 C   0  0  0  0  0  0  0  0  0  0  0  0
  145.6105  132.7506  151.2036 C   0  0  0  0  0  0  0  0  0  0  0  0
  145.8219  132.2021  149.7849 C   0  0  0  0  0  0  0  0  0  0  0  0
  144.4222  133.7253  151.2343 C   0  0  0  0  0  0  0  0  0  0  0  0
  147.2760  131.4185  153.1921 C   0  0  0  0  0  0  0  0  0  0  0  0
  147.0750  132.0236  154.5920 C   0  0  0  0  0  0  0  0  0  0  0  0
  148.3224  132.5003  155.0822 O   0  0  0  0  0  0  0  0  0  0  0  0
  151.4106  139.7482  155.5993 C   0  0  0  0  0  0  0  0  0  0  0  0
  152.5240  139.5048  156.0700 O   0  0  0  0  0  0  0  0  0  0  0  0
  150.6955  142.8619  157.0025 H   0  0  0  0  0  0  0  0  0  0  0  0
  152.2915  142.2464  156.5736 H   0  0  0  0  0  0  0  0  0  0  0  0
  151.3790  141.5036  157.8952 H   0  0  0  0  0  0  0  0  0  0  0  0
  148.9089  142.1073  155.6402 H   0  0  0  0  0  0  0  0  0  0  0  0
  147.8788  140.4528  154.0422 H   0  0  0  0  0  0  0  0  0  0  0  0
  149.1469  138.3874  153.5146 H   0  0  0  0  0  0  0  0  0  0  0  0
  151.3083  137.4123  153.2852 H   0  0  0  0  0  0  0  0  0  0  0  0
  152.5259  137.7026  154.4859 H   0  0  0  0  0  0  0  0  0  0  0  0
  150.6722  135.3899  153.4149 H   0  0  0  0  0  0  0  0  0  0  0  0
  150.9374  133.3100  154.9117 H   0  0  0  0  0  0  0  0  0  0  0  0
  149.9422  134.2095  156.0268 H   0  0  0  0  0  0  0  0  0  0  0  0
  148.1446  134.3632  154.2483 H   0  0  0  0  0  0  0  0  0  0  0  0
  149.4986  133.7693  152.1930 H   0  0  0  0  0  0  0  0  0  0  0  0
  149.8682  132.2149  152.8858 H   0  0  0  0  0  0  0  0  0  0  0  0
  146.6324  134.1058  152.5240 H   0  0  0  0  0  0  0  0  0  0  0  0
  147.3757  134.0029  150.9554 H   0  0  0  0  0  0  0  0  0  0  0  0
  145.3532  131.9005  151.8330 H   0  0  0  0  0  0  0  0  0  0  0  0
  146.0927  132.9958  149.0877 H   0  0  0  0  0  0  0  0  0  0  0  0
  144.9177  131.7232  149.4082 H   0  0  0  0  0  0  0  0  0  0  0  0
  146.6170  131.4558  149.7672 H   0  0  0  0  0  0  0  0  0  0  0  0
  144.6096  134.6012  150.6123 H   0  0  0  0  0  0  0  0  0  0  0  0
  144.2176  134.0731  152.2470 H   0  0  0  0  0  0  0  0  0  0  0  0
  143.5141  133.2463  150.8670 H   0  0  0  0  0  0  0  0  0  0  0  0
  146.3368  131.0316  152.7951 H   0  0  0  0  0  0  0  0  0  0  0  0
  147.9507  130.5647  153.2648 H   0  0  0  0  0  0  0  0  0  0  0  0
  146.3393  132.8292  154.5749 H   0  0  0  0  0  0  0  0  0  0  0  0
  146.6966  131.2641  155.2761 H   0  0  0  0  0  0  0  0  0  0  0  0
  148.1650  131.8755  151.4528 H   0  0  0  0  0  0  0  0  0  0  0  0
  1  2  1  0  0  0  0
  1 24  1  0  0  0  0
  1 25  1  0  0  0  0
  1 26  1  0  0  0  0
  2 22  1  0  0  0  0
  2  3  2  0  0  0  0
  3  4  1  0  0  0  0
  3 27  1  0  0  0  0
  4  5  2  0  0  0  0
  4 28  1  0  0  0  0
  5  6  1  0  0  0  0
  5 29  1  0  0  0  0
  6  7  1  0  0  0  0
  6 22  1  0  0  0  0
  7  8  1  0  0  0  0
  7 30  1  0  0  0  0
  7 31  1  0  0  0  0
  8  9  2  0  0  0  0
  8 10  1  0  0  0  0
 10 11  1  0  0  0  0
 10 32  1  0  0  0  0
 11 12  1  0  0  0  0
 11 33  1  0  0  0  0
 11 34  1  0  0  0  0
 12 21  1  0  0  0  0
 12 13  1  0  0  0  0
 12 35  1  0  0  0  0
 13 14  1  0  0  0  0
 13 36  1  0  0  0  0
 13 37  1  0  0  0  0
 14 15  1  0  0  0  0
 14 19  1  0  0  0  0
 14 51  1  0  0  0  0
 15 16  1  0  0  0  0
 15 38  1  0  0  0  0
 15 39  1  0  0  0  0
 16 17  1  0  0  0  0
 16 18  1  0  0  0  0
 16 40  1  0  0  0  0
 17 41  1  0  0  0  0
 17 42  1  0  0  0  0
 17 43  1  0  0  0  0
 18 44  1  0  0  0  0
 18 45  1  0  0  0  0
 18 46  1  0  0  0  0
 19 20  1  0  0  0  0
 19 47  1  0  0  0  0
 19 48  1  0  0  0  0
 20 21  1  0  0  0  0
 20 49  1  0  0  0  0
 20 50  1  0  0  0  0
 22 23  2  0  0  0  0
M  CHG  1  14   1
M  END
> <s_m_source_file>
AV-unprocessed.smi

> <i_m_source_file_index>
678

> <i_lp_mmshare_version>
43012

> <i_f3d_flags>
0

> <s_epik_input>
W0NIM11jMVtjSF1bY0hdW2NIXW4oYzE9TylbQ0gyXUMoPU8pW05IXVtDSDJdW0NAQEhdMltDSDJdTihbQ0gyXVtDSDJdTzIpW0NIMl1bQ0hdKFtDSDNdKVtDSDNd

> <s_epik_cmdline>
J2VwaWtfcHl0aG9uJywgJy1waCcsICc3LjAnLCAnLXRuJywgJzgnLCAnLW1hJywgJzIwMCcsICctbWV0YWxfYmluZGluZycsICctaW1hZScsICc8aW5maWxlLm1hZT4nLCAnLW9tYWUnLCAnPG91dGZpbGUubWFlPic=

> <r_lp_tautomer_probability>
1

> <r_epik_Ionization_Penalty>
0.0975937

> <r_epik_Ionization_Penalty_Charging>
0.0975937

> <r_epik_Ionization_Penalty_Neutral>
6.27044e-08

> <r_epik_State_Penalty>
0.0877056

> <r_epik_Charging_Adjusted_Penalty>
0.185299

> <i_epik_Tot_Q>
1

> <i_epik_Tot_abs_Q>
1

> <r_epik_Metal_State_Penalty>
0.0877109

> <b_epik_Metal_Only>
0

> <s_lp_Force_Field>
OPLS_2005

> <r_lp_Energy>
27.4135

> <b_lp_Chiralities_Consistent>
1

> <s_lp_Variant>
AV-unprocessed.smi:678-2

> <Gold.Version>
5.8.1

> <Gold.Id.Protein>
6NUR|6NUR_protein|mol2

> <Gold.PLP.Fitness>
53.5639

> <Gold.PLP.PLP>
-45.7722

> <Gold.PLP.part.hbond>
-3.8195

> <Gold.PLP.part.metal>
0.0000

> <Gold.PLP.part.buried>
-1.7052

> <Gold.PLP.part.nonpolar>
-39.9300

> <Gold.PLP.part.repulsive>
0.1056

> <Gold.PLP.ligand.clash>
0.0000

> <Gold.PLP.ligand.torsion>
0.8480

> <Gold.PLP.Chemscore.Hbond>
2.1538

> <Gold.PLP.Chemscore.CHOScore>
0.9641

> <Gold.PLP.Chemscore.Metal>
0.0000

> <Gold.Chemscore.Hbonds>
donor molecule, donor type, donor heavy atom, donor atom, acceptor molecule, acceptor atom, score
      L1  H    10    32       P1  7949  0.28
      L1  H    14    51       P1 10747  1.00
      P1  H  7997  8010       L1    23  1.00
      L1  C     5    29       P1  7948  0.59
      L1  C     5    29       P1  7957  0.02

> <Gold.PLP.Chemscore.Internal.Correction>
0.1342

> <Gold.Rescore>
     Score         DG    S(hbond)    S(metal)    S(lipo)     H(rot)  DE(clash)    DE(int)     intcor
     17.83     -18.86       2.00        0.00      98.58       1.89       0.06       0.97       ----

> <Gold.Chemscore.Fitness>
17.8349

> <Gold.Chemscore.DG>
-18.8587

> <Gold.Chemscore.ZeroCoef>
-5.4800

> <Gold.Chemscore.Hbond>
1.9988

> <Gold.Chemscore.Metal>
0.0000

> <Gold.Chemscore.Lipo>
98.5781

> <Gold.Chemscore.Internal_Hbond>
0.0000

> <Gold.Chemscore.DEClash>
0.0578

> <Gold.Chemscore.DEInternal>
0.9660

> <Gold.Chemscore.Rot>
1.8871

> <Gold.Chemscore.Internal.Correction>
   9.000000E+99

> <Gold.Chemscore.Hbonds>
donor molecule, donor type, donor heavy atom, donor atom, acceptor molecule, acceptor atom, score
      L1  H    14    51       P1 10747  1.00
      P1  H  7997  8010       L1    23  0.99

> <Gold.Chemscore.Hbond.Weighted>
-6.6760

> <Gold.Chemscore.Metal.Weighted>
-0.0000

> <Gold.Chemscore.Lipo.Weighted>
-11.5336

> <Gold.Chemscore.Internal_Hbond.Weighted>
0.0000

> <Gold.Chemscore.DEClash.Weighted>
0.0578

> <Gold.Chemscore.DEInternal.Weighted>
0.9660

> <Gold.Chemscore.Rot.Weighted>
4.8309

> <Gold.Chemscore.Internal.Correction.Weighted>
   9.000000E+99

> <Gold.Protein.RotatedTorsions>
[ 6907 6896 6895 6894 ] final   21.80 input  -60.11 | X-H torsion
[ 7974 7965 7964 7962 ] final   19.08 input  175.53 | X-H torsion
[ 8008 7997 7996 7995 ] final   83.00 input   59.86 | X-H torsion
[ 10167 10162 10161 10158 ] final  -11.30 input  -65.29 | X-H torsion
[ 10718 10713 10712 10709 ] final   88.65 input   66.30 | X-H torsion
[ 10763 10752 10751 10750 ] final  -53.22 input  -60.55 | X-H torsion
[ 11005 11000 10999 10996 ] final -169.85 input  -57.11 | X-H torsion

> <Gold.Protein.ActiveResidues>
 VAL166  LYS551  ARG553  GLY616  TRP617  ASP618  TYR619  PRO620  LYS621  CYS622 
 ASP623  PHE694  ASN695  SER759  ASP760  ASP761  ALA762  ILE779  LEU786  VAL792 
 PHE793  MET794  SER795  GLU796  ALA797  LYS798  CYS799  TRP800  GLU811  SER814 

> <Gold.Protein.RotatedAtoms>
  151.9174  135.0313  160.0519 H   0  0  0  0  0  0  0  0  0  0  0  0  # atno 6907 bound_to 6896
  152.2228  133.4992  159.5180 H   0  0  0  0  0  0  0  0  0  0  0  0  # atno 6908 bound_to 6896
  150.7004  134.1236  159.4086 H   0  0  0  0  0  0  0  0  0  0  0  0  # atno 6909 bound_to 6896
  146.2162  139.8364  142.8649 H   0  0  0  0  0  0  0  0  0  0  0  0  # atno 7974 bound_to 7965
  155.9181  140.3423  155.6151 H   0  0  0  0  0  0  0  0  0  0  0  0  # atno 8008 bound_to 7997
  155.7306  140.0795  157.2309 H   0  0  0  0  0  0  0  0  0  0  0  0  # atno 8009 bound_to 7997
  154.4065  140.1589  156.2492 H   0  0  0  0  0  0  0  0  0  0  0  0  # atno 8010 bound_to 7997
  140.7135  143.5654  150.9149 H   0  0  0  0  0  0  0  0  0  0  0  0  # atno 10167 bound_to 10162
  157.6950  131.0303  150.3306 H   0  0  0  0  0  0  0  0  0  0  0  0  # atno 10718 bound_to 10713
  154.1553  135.6483  153.4973 H   0  0  0  0  0  0  0  0  0  0  0  0  # atno 10763 bound_to 10752
  153.0126  135.5348  154.6766 H   0  0  0  0  0  0  0  0  0  0  0  0  # atno 10764 bound_to 10752
  154.6065  135.2949  155.0450 H   0  0  0  0  0  0  0  0  0  0  0  0  # atno 10765 bound_to 10752
  140.5261  134.5662  157.5061 H   0  0  0  0  0  0  0  0  0  0  0  0  # atno 11005 bound_to 11000
  145.2944  141.0176  143.3645 LP  0  0  0  0  0  0  0  0  0  0  0  0  # atno 17320 bound_to 7965
  144.9053  139.4597  143.6613 LP  0  0  0  0  0  0  0  0  0  0  0  0  # atno 17321 bound_to 7965
  139.9380  143.6415  152.3060 LP  0  0  0  0  0  0  0  0  0  0  0  0  # atno 17342 bound_to 10162
  139.6889  144.7649  151.1473 LP  0  0  0  0  0  0  0  0  0  0  0  0  # atno 17343 bound_to 10162
  156.3781  130.3875  149.7123 LP  0  0  0  0  0  0  0  0  0  0  0  0  # atno 17370 bound_to 10713
  156.4515  130.7909  151.2930 LP  0  0  0  0  0  0  0  0  0  0  0  0  # atno 17371 bound_to 10713
  139.9579  134.7502  156.0300 LP  0  0  0  0  0  0  0  0  0  0  0  0  # atno 17394 bound_to 11000
  141.1307  133.6587  156.3458 LP  0  0  0  0  0  0  0  0  0  0  0  0  # atno 17395 bound_to 11000

$$$$
