AV-unprocessed.smi:1366|AV-procd|sdf|5570|dock10
  -GOLD-   22720 5163D 1   1.00000     0.00000
 Structure written by MMmdl.
 31 32  0  0  0  0  0  0  0  0  1 V2000
  150.7581  135.3682  155.2873 N   0  0  0  0  0  0  0  0  0  0  0  0
  150.8092  136.5143  155.4379 C   0  0  0  0  0  0  0  0  0  0  0  0
  150.8734  137.9569  155.6273 C   0  0  0  0  0  0  0  0  0  0  0  0
  151.4104  138.4989  156.8158 C   0  0  0  0  0  0  0  0  0  0  0  0
  151.4834  139.8314  157.0251 N   0  0  0  0  0  0  0  0  0  0  0  0
  151.0217  140.6075  156.0433 C   0  0  0  0  0  0  0  0  0  0  0  0
  151.1079  142.3566  156.3190 S   0  0  0  0  0  0  0  0  0  0  0  0
  150.6000  142.3995  158.0594 C   0  0  0  0  0  0  0  0  0  0  0  0
  151.8025  142.5438  159.0016 C   0  0  2  0  0  0  0  0  0  0  0  0
  152.5165  141.1982  159.2346 C   0  0  0  0  0  0  0  0  0  0  0  0
  153.6594  141.3621  160.2431 C   0  0  0  0  0  0  0  0  0  0  0  0
  153.1305  142.0237  161.5201 C   0  0  0  0  0  0  0  0  0  0  0  0
  152.3831  143.3221  161.1781 C   0  0  0  0  0  0  0  0  0  0  0  0
  151.3365  143.0482  160.2520 O   0  0  0  0  0  0  0  0  0  0  0  0
  150.4939  140.2217  154.8802 N   0  0  0  0  0  0  0  0  0  0  0  0
  150.4150  138.8908  154.6627 C   0  0  0  0  0  0  0  0  0  0  0  0
  149.8582  138.4992  153.4438 N   0  0  0  0  0  0  0  0  0  0  0  0
  151.7836  137.8643  157.6067 H   0  0  0  0  0  0  0  0  0  0  0  0
  149.9028  143.2255  158.2047 H   0  0  0  0  0  0  0  0  0  0  0  0
  150.0577  141.4797  158.2804 H   0  0  0  0  0  0  0  0  0  0  0  0
  152.5059  143.2561  158.5663 H   0  0  0  0  0  0  0  0  0  0  0  0
  151.8032  140.4629  159.6097 H   0  0  0  0  0  0  0  0  0  0  0  0
  152.9041  140.8061  158.2940 H   0  0  0  0  0  0  0  0  0  0  0  0
  154.1068  140.3945  160.4723 H   0  0  0  0  0  0  0  0  0  0  0  0
  154.4477  141.9785  159.8093 H   0  0  0  0  0  0  0  0  0  0  0  0
  152.4543  141.3398  162.0348 H   0  0  0  0  0  0  0  0  0  0  0  0
  153.9514  142.2293  162.2074 H   0  0  0  0  0  0  0  0  0  0  0  0
  151.9504  143.7543  162.0804 H   0  0  0  0  0  0  0  0  0  0  0  0
  153.0642  144.0671  160.7638 H   0  0  0  0  0  0  0  0  0  0  0  0
  149.7575  137.5254  153.1955 H   0  0  0  0  0  0  0  0  0  0  0  0
  149.5330  139.1803  152.7727 H   0  0  0  0  0  0  0  0  0  0  0  0
  1  2  3  0  0  0  0
  2  3  1  0  0  0  0
  3 16  1  0  0  0  0
  3  4  2  0  0  0  0
  4  5  1  0  0  0  0
  4 18  1  0  0  0  0
  5  6  2  0  0  0  0
  6  7  1  0  0  0  0
  6 15  1  0  0  0  0
  7  8  1  0  0  0  0
  8  9  1  0  0  0  0
  8 19  1  0  0  0  0
  8 20  1  0  0  0  0
  9 14  1  0  0  0  0
  9 10  1  0  0  0  0
  9 21  1  0  0  0  0
 10 11  1  0  0  0  0
 10 22  1  0  0  0  0
 10 23  1  0  0  0  0
 11 12  1  0  0  0  0
 11 24  1  0  0  0  0
 11 25  1  0  0  0  0
 12 13  1  0  0  0  0
 12 26  1  0  0  0  0
 12 27  1  0  0  0  0
 13 14  1  0  0  0  0
 13 28  1  0  0  0  0
 13 29  1  0  0  0  0
 15 16  2  0  0  0  0
 16 17  1  0  0  0  0
 17 30  1  0  0  0  0
 17 31  1  0  0  0  0
M  END
> <s_m_source_file>
AV-unprocessed.smi

> <i_m_source_file_index>
1366

> <i_lp_mmshare_version>
43012

> <i_f3d_flags>
0

> <s_epik_input>
TiNDYzFbY0hdbmMobmMxW05IMl0pU1tDSDJdW0NAQEhdMltDSDJdW0NIMl1bQ0gyXVtDSDJdTzI=

> <s_epik_cmdline>
J2VwaWtfcHl0aG9uJywgJy1waCcsICc3LjAnLCAnLXRuJywgJzgnLCAnLW1hJywgJzIwMCcsICctbWV0YWxfYmluZGluZycsICctaW1hZScsICc8aW5maWxlLm1hZT4nLCAnLW9tYWUnLCAnPG91dGZpbGUubWFlPic=

> <r_lp_tautomer_probability>
1

> <r_epik_Ionization_Penalty>
5.69531e-05

> <r_epik_Ionization_Penalty_Charging>
0

> <r_epik_Ionization_Penalty_Neutral>
5.69531e-05

> <r_epik_State_Penalty>
-0

> <r_epik_Charging_Adjusted_Penalty>
0

> <i_epik_Tot_Q>
0

> <i_epik_Tot_abs_Q>
0

> <r_epik_Metal_State_Penalty>
-0

> <b_epik_Metal_Only>
0

> <s_lp_Force_Field>
OPLS_2005

> <r_lp_Energy>
5.78872

> <b_lp_Chiralities_Consistent>
1

> <s_lp_Variant>
AV-unprocessed.smi:1366-1

> <Gold.Version>
5.8.1

> <Gold.Id.Protein>
6NUR|6NUR_protein|mol2

> <Gold.PLP.Fitness>
43.2898

> <Gold.PLP.PLP>
-34.7543

> <Gold.PLP.part.hbond>
-5.0000

> <Gold.PLP.part.metal>
0.0000

> <Gold.PLP.part.buried>
-4.4281

> <Gold.PLP.part.nonpolar>
-24.9286

> <Gold.PLP.part.repulsive>
0.3592

> <Gold.PLP.ligand.clash>
0.0000

> <Gold.PLP.ligand.torsion>
0.7399

> <Gold.PLP.Chemscore.Hbond>
3.3380

> <Gold.PLP.Chemscore.CHOScore>
0.0000

> <Gold.PLP.Chemscore.Metal>
0.0000

> <Gold.Chemscore.Hbonds>
donor molecule, donor type, donor heavy atom, donor atom, acceptor molecule, acceptor atom, score
      L1  H    17    30       P1  7948  0.90
      L1  H    17    31       P1  7957  1.00
      P1  H  7989  7998       L1    15  1.00
      P1  H 10752 10763       L1     1  0.09

> <Gold.PLP.Chemscore.Internal.Correction>
0.0012

> <Gold.Rescore>
     Score         DG    S(hbond)    S(metal)    S(lipo)     H(rot)  DE(clash)    DE(int)     intcor
     14.10     -16.40       1.84        0.00      78.44       1.73       0.14       2.15       ----

> <Gold.Chemscore.Fitness>
14.1010

> <Gold.Chemscore.DG>
-16.3970

> <Gold.Chemscore.ZeroCoef>
-5.4800

> <Gold.Chemscore.Hbond>
1.8440

> <Gold.Chemscore.Metal>
0.0000

> <Gold.Chemscore.Lipo>
78.4449

> <Gold.Chemscore.Internal_Hbond>
0.0000

> <Gold.Chemscore.DEClash>
0.1417

> <Gold.Chemscore.DEInternal>
2.1542

> <Gold.Chemscore.Rot>
1.7266

> <Gold.Chemscore.Internal.Correction>
   9.000000E+99

> <Gold.Chemscore.Hbonds>
donor molecule, donor type, donor heavy atom, donor atom, acceptor molecule, acceptor atom, score
      L1  H    17    30       P1  7948  0.52
      L1  H    17    31       P1  7957  0.95
      P1  H  7989  7998       L1    15  0.30

> <Gold.Chemscore.Hbond.Weighted>
-6.1589

> <Gold.Chemscore.Metal.Weighted>
-0.0000

> <Gold.Chemscore.Lipo.Weighted>
-9.1781

> <Gold.Chemscore.Internal_Hbond.Weighted>
0.0000

> <Gold.Chemscore.DEClash.Weighted>
0.1417

> <Gold.Chemscore.DEInternal.Weighted>
2.1542

> <Gold.Chemscore.Rot.Weighted>
4.4200

> <Gold.Chemscore.Internal.Correction.Weighted>
   9.000000E+99

> <Gold.Protein.RotatedTorsions>
[ 6907 6896 6895 6894 ] final -160.28 input  -60.11 | X-H torsion
[ 7974 7965 7964 7962 ] final  -32.05 input  175.53 | X-H torsion
[ 8008 7997 7996 7995 ] final  171.23 input   59.86 | X-H torsion
[ 10167 10162 10161 10158 ] final   18.16 input  -65.29 | X-H torsion
[ 10718 10713 10712 10709 ] final -115.02 input   66.30 | X-H torsion
[ 10763 10752 10751 10750 ] final   58.06 input  -60.55 | X-H torsion
[ 11005 11000 10999 10996 ] final  -27.97 input  -57.11 | X-H torsion

> <Gold.Protein.ActiveResidues>
 VAL166  LYS551  ARG553  GLY616  TRP617  ASP618  TYR619  PRO620  LYS621  CYS622 
 ASP623  PHE694  ASN695  SER759  ASP760  ASP761  ALA762  ILE779  LEU786  VAL792 
 PHE793  MET794  SER795  GLU796  ALA797  LYS798  CYS799  TRP800  GLU811  SER814 

> <Gold.Protein.RotatedAtoms>
  151.3466  133.3941  159.2675 H   0  0  0  0  0  0  0  0  0  0  0  0  # atno 6907 bound_to 6896
  150.9835  134.9186  159.7868 H   0  0  0  0  0  0  0  0  0  0  0  0  # atno 6908 bound_to 6896
  152.5225  134.3430  159.9276 H   0  0  0  0  0  0  0  0  0  0  0  0  # atno 6909 bound_to 6896
  146.1020  140.5744  142.8817 H   0  0  0  0  0  0  0  0  0  0  0  0  # atno 7974 bound_to 7965
  156.1291  140.1517  156.9093 H   0  0  0  0  0  0  0  0  0  0  0  0  # atno 8008 bound_to 7997
  154.4894  140.0855  156.7601 H   0  0  0  0  0  0  0  0  0  0  0  0  # atno 8009 bound_to 7997
  155.4290  140.3426  155.4280 H   0  0  0  0  0  0  0  0  0  0  0  0  # atno 8010 bound_to 7997
  140.5674  143.9226  150.6686 H   0  0  0  0  0  0  0  0  0  0  0  0  # atno 10167 bound_to 10162
  156.0868  130.6058  150.8851 H   0  0  0  0  0  0  0  0  0  0  0  0  # atno 10718 bound_to 10713
  152.9863  135.5620  154.5491 H   0  0  0  0  0  0  0  0  0  0  0  0  # atno 10763 bound_to 10752
  154.4932  135.2793  155.1482 H   0  0  0  0  0  0  0  0  0  0  0  0  # atno 10764 bound_to 10752
  154.2943  135.6320  153.5451 H   0  0  0  0  0  0  0  0  0  0  0  0  # atno 10765 bound_to 10752
  140.9167  133.7425  156.0744 H   0  0  0  0  0  0  0  0  0  0  0  0  # atno 11005 bound_to 11000
  144.7440  140.5019  143.6849 LP  0  0  0  0  0  0  0  0  0  0  0  0  # atno 17320 bound_to 7965
  145.5836  139.1490  143.3221 LP  0  0  0  0  0  0  0  0  0  0  0  0  # atno 17321 bound_to 7965
  140.2692  143.3468  152.1253 LP  0  0  0  0  0  0  0  0  0  0  0  0  # atno 17342 bound_to 10162
  139.5100  144.6876  151.5846 LP  0  0  0  0  0  0  0  0  0  0  0  0  # atno 17343 bound_to 10162
  157.6005  131.0941  150.8969 LP  0  0  0  0  0  0  0  0  0  0  0  0  # atno 17370 bound_to 10713
  156.9127  130.5286  149.5280 LP  0  0  0  0  0  0  0  0  0  0  0  0  # atno 17371 bound_to 10713
  140.8041  134.3475  157.5431 LP  0  0  0  0  0  0  0  0  0  0  0  0  # atno 17394 bound_to 11000
  139.8767  134.9215  156.3277 LP  0  0  0  0  0  0  0  0  0  0  0  0  # atno 17395 bound_to 11000

$$$$
