AV-unprocessed.smi:1306|AV-procd|sdf|5435|dock4
  -GOLD-   22720 5 03D 1   1.00000     0.00000
 Structure written by MMmdl.
 38 39  0  0  0  0  0  0  0  0  2 V2000
  151.5792  136.2575  155.1283 O   0  0  0  0  0  0  0  0  0  0  0  0
  150.5347  136.7649  155.5397 C   0  0  0  0  0  0  0  0  0  0  0  0
  149.4051  135.8906  156.1010 C   0  0  0  0  0  0  0  0  0  0  0  0
  149.5394  134.4729  155.7297 N   0  0  0  0  0  0  0  0  0  0  0  0
  149.2709  134.1172  154.3962 C   0  0  0  0  0  0  0  0  0  0  0  0
  149.3736  132.8453  153.9657 C   0  0  0  0  0  0  0  0  0  0  0  0
  149.7752  131.8227  154.9236 C   0  0  0  0  0  0  0  0  0  0  0  0
  149.8710  130.6556  154.5490 O   0  0  0  0  0  0  0  0  0  0  0  0
  150.0277  132.2181  156.2056 N   0  5  0  0  0  0  0  0  0  0  0  0
  149.9214  133.5160  156.6288 C   0  0  0  0  0  0  0  0  0  0  0  0
  150.1559  133.8514  157.7905 O   0  0  0  0  0  0  0  0  0  0  0  0
  150.2974  138.0832  155.5042 N   0  0  0  0  0  0  0  0  0  0  0  0
  151.2442  139.0793  155.0206 C   0  0  0  0  0  0  0  0  0  0  0  0
  152.0069  139.7238  156.1856 C   0  0  0  0  0  0  0  0  0  0  0  0
  150.9938  140.9438  157.0713 S   0  0  0  0  0  0  0  0  0  0  0  0
  152.2905  141.9176  157.8878 C   0  0  0  0  0  0  0  0  0  0  0  0
  152.6195  141.3946  159.2852 C   0  0  0  0  0  0  0  0  0  0  0  0
  153.3085  142.5722  159.9779 C   0  0  0  0  0  0  0  0  0  0  0  0
  152.7300  143.8396  159.3309 C   0  0  0  0  0  0  0  0  0  0  0  0
  151.8866  143.3742  158.1353 C   0  0  0  0  0  0  0  0  0  0  0  0
  149.3636  135.9894  157.1876 H   0  0  0  0  0  0  0  0  0  0  0  0
  148.4566  136.2909  155.7409 H   0  0  0  0  0  0  0  0  0  0  0  0
  148.9855  134.9345  153.7504 H   0  0  0  0  0  0  0  0  0  0  0  0
  149.1667  132.5890  152.9372 H   0  0  0  0  0  0  0  0  0  0  0  0
  149.4160  138.4209  155.8627 H   0  0  0  0  0  0  0  0  0  0  0  0
  151.9437  138.6180  154.3217 H   0  0  0  0  0  0  0  0  0  0  0  0
  150.7003  139.8474  154.4689 H   0  0  0  0  0  0  0  0  0  0  0  0
  152.3138  138.9538  156.8936 H   0  0  0  0  0  0  0  0  0  0  0  0
  152.9163  140.2013  155.8205 H   0  0  0  0  0  0  0  0  0  0  0  0
  153.1948  141.8878  157.2779 H   0  0  0  0  0  0  0  0  0  0  0  0
  151.6998  141.1476  159.8174 H   0  0  0  0  0  0  0  0  0  0  0  0
  153.2417  140.4994  159.2629 H   0  0  0  0  0  0  0  0  0  0  0  0
  153.1603  142.5538  161.0580 H   0  0  0  0  0  0  0  0  0  0  0  0
  154.3827  142.5276  159.7946 H   0  0  0  0  0  0  0  0  0  0  0  0
  152.1173  144.4016  160.0365 H   0  0  0  0  0  0  0  0  0  0  0  0
  153.5366  144.4971  159.0050 H   0  0  0  0  0  0  0  0  0  0  0  0
  152.0361  144.0018  157.2564 H   0  0  0  0  0  0  0  0  0  0  0  0
  150.8296  143.4272  158.4000 H   0  0  0  0  0  0  0  0  0  0  0  0
  1  2  2  0  0  0  0
  2  3  1  0  0  0  0
  2 12  1  0  0  0  0
  3  4  1  0  0  0  0
  3 21  1  0  0  0  0
  3 22  1  0  0  0  0
  4 10  1  0  0  0  0
  4  5  1  0  0  0  0
  5  6  2  0  0  0  0
  5 23  1  0  0  0  0
  6  7  1  0  0  0  0
  6 24  1  0  0  0  0
  7  8  2  0  0  0  0
  7  9  1  0  0  0  0
  9 10  1  0  0  0  0
 10 11  2  0  0  0  0
 12 13  1  0  0  0  0
 12 25  1  0  0  0  0
 13 14  1  0  0  0  0
 13 26  1  0  0  0  0
 13 27  1  0  0  0  0
 14 15  1  0  0  0  0
 14 28  1  0  0  0  0
 14 29  1  0  0  0  0
 15 16  1  0  0  0  0
 16 20  1  0  0  0  0
 16 17  1  0  0  0  0
 16 30  1  0  0  0  0
 17 18  1  0  0  0  0
 17 31  1  0  0  0  0
 17 32  1  0  0  0  0
 18 19  1  0  0  0  0
 18 33  1  0  0  0  0
 18 34  1  0  0  0  0
 19 20  1  0  0  0  0
 19 35  1  0  0  0  0
 19 36  1  0  0  0  0
 20 37  1  0  0  0  0
 20 38  1  0  0  0  0
M  CHG  1   9  -1
M  END
> <s_m_source_file>
AV-unprocessed.smi

> <i_m_source_file_index>
1306

> <i_lp_mmshare_version>
43012

> <i_f3d_flags>
0

> <s_epik_input>
Tz1jMVtuSF1jKD1PKVtjSF1bY0hdbjFbQ0gyXUMoPU8pW05IXVtDSDJdW0NIMl1TW0NIXTJbQ0gyXVtDSDJdW0NIMl1bQ0gyXTI=

> <s_epik_cmdline>
J2VwaWtfcHl0aG9uJywgJy1waCcsICc3LjAnLCAnLXRuJywgJzgnLCAnLW1hJywgJzIwMCcsICctbWV0YWxfYmluZGluZycsICctaW1hZScsICc8aW5maWxlLm1hZT4nLCAnLW9tYWUnLCAnPG91dGZpbGUubWFlPic=

> <r_lp_tautomer_probability>
0.999537

> <r_epik_Ionization_Penalty>
3.06336

> <r_epik_Ionization_Penalty_Charging>
2.63481e-08

> <r_epik_Ionization_Penalty_Neutral>
3.06336

> <r_epik_State_Penalty>
3.06238

> <r_epik_Charging_Adjusted_Penalty>
3.06238

> <i_epik_Tot_Q>
-1

> <i_epik_Tot_abs_Q>
1

> <r_epik_Metal_State_Penalty>
0.458539

> <b_epik_Metal_Only>
1

> <s_lp_Force_Field>
OPLS_2005

> <r_lp_Energy>
29.7989

> <b_lp_Chiralities_Consistent>
1

> <s_lp_Variant>
AV-unprocessed.smi:1306-2

> <Gold.Version>
5.8.1

> <Gold.Id.Protein>
6NUR|6NUR_protein|mol2

> <Gold.PLP.Fitness>
43.3066

> <Gold.PLP.PLP>
-36.5106

> <Gold.PLP.part.hbond>
-2.0000

> <Gold.PLP.part.metal>
0.0000

> <Gold.PLP.part.buried>
-5.1510

> <Gold.PLP.part.nonpolar>
-29.4070

> <Gold.PLP.part.repulsive>
0.2067

> <Gold.PLP.ligand.clash>
0.0000

> <Gold.PLP.ligand.torsion>
1.0849

> <Gold.PLP.Chemscore.Hbond>
1.9600

> <Gold.PLP.Chemscore.CHOScore>
1.0000

> <Gold.PLP.Chemscore.Metal>
0.0000

> <Gold.Chemscore.Hbonds>
donor molecule, donor type, donor heavy atom, donor atom, acceptor molecule, acceptor atom, score
      P1  H  6896  6907       L1    11  0.90
      P1  H 10752 10763       L1     1  1.00
      L1  C     5    23       P1  7948  1.00

> <Gold.PLP.Chemscore.Internal.Correction>
0.0858

> <Gold.Rescore>
     Score         DG    S(hbond)    S(metal)    S(lipo)     H(rot)  DE(clash)    DE(int)     intcor
     14.92     -16.04       1.97        0.00      86.11       2.38       0.06       1.06       ----

> <Gold.Chemscore.Fitness>
14.9244

> <Gold.Chemscore.DG>
-16.0400

> <Gold.Chemscore.ZeroCoef>
-5.4800

> <Gold.Chemscore.Hbond>
1.9668

> <Gold.Chemscore.Metal>
0.0000

> <Gold.Chemscore.Lipo>
86.1130

> <Gold.Chemscore.Internal_Hbond>
0.0000

> <Gold.Chemscore.DEClash>
0.0563

> <Gold.Chemscore.DEInternal>
1.0592

> <Gold.Chemscore.Rot>
2.3767

> <Gold.Chemscore.Internal.Correction>
   9.000000E+99

> <Gold.Chemscore.Hbonds>
donor molecule, donor type, donor heavy atom, donor atom, acceptor molecule, acceptor atom, score
      P1  H  6896  6907       L1    11  0.88
      P1  H 10752 10763       L1     1  0.99

> <Gold.Chemscore.Hbond.Weighted>
-6.5691

> <Gold.Chemscore.Metal.Weighted>
-0.0000

> <Gold.Chemscore.Lipo.Weighted>
-10.0752

> <Gold.Chemscore.Internal_Hbond.Weighted>
0.0000

> <Gold.Chemscore.DEClash.Weighted>
0.0563

> <Gold.Chemscore.DEInternal.Weighted>
1.0592

> <Gold.Chemscore.Rot.Weighted>
6.0844

> <Gold.Chemscore.Internal.Correction.Weighted>
   9.000000E+99

> <Gold.Protein.RotatedTorsions>
[ 6907 6896 6895 6894 ] final -131.57 input  -60.11 | X-H torsion
[ 7974 7965 7964 7962 ] final -133.01 input  175.53 | X-H torsion
[ 8008 7997 7996 7995 ] final  151.27 input   59.86 | X-H torsion
[ 10167 10162 10161 10158 ] final    4.60 input  -65.29 | X-H torsion
[ 10718 10713 10712 10709 ] final   -0.70 input   66.30 | X-H torsion
[ 10763 10752 10751 10750 ] final   58.23 input  -60.55 | X-H torsion
[ 11005 11000 10999 10996 ] final   -0.63 input  -57.11 | X-H torsion

> <Gold.Protein.ActiveResidues>
 VAL166  LYS551  ARG553  GLY616  TRP617  ASP618  TYR619  PRO620  LYS621  CYS622 
 ASP623  PHE694  ASN695  SER759  ASP760  ASP761  ALA762  ILE779  LEU786  VAL792 
 PHE793  MET794  SER795  GLU796  ALA797  LYS798  CYS799  TRP800  GLU811  SER814 

> <Gold.Protein.RotatedAtoms>
  150.9525  133.6534  159.2769 H   0  0  0  0  0  0  0  0  0  0  0  0  # atno 6907 bound_to 6896
  151.3885  135.0951  159.9528 H   0  0  0  0  0  0  0  0  0  0  0  0  # atno 6908 bound_to 6896
  152.5115  133.9044  159.7512 H   0  0  0  0  0  0  0  0  0  0  0  0  # atno 6909 bound_to 6896
  144.9232  140.7039  143.4952 H   0  0  0  0  0  0  0  0  0  0  0  0  # atno 7974 bound_to 7965
  156.2681  140.2052  156.6149 H   0  0  0  0  0  0  0  0  0  0  0  0  # atno 8008 bound_to 7997
  154.6802  140.0541  157.0282 H   0  0  0  0  0  0  0  0  0  0  0  0  # atno 8009 bound_to 7997
  155.1011  140.3206  155.4549 H   0  0  0  0  0  0  0  0  0  0  0  0  # atno 8010 bound_to 7997
  140.6526  143.7507  150.7600 H   0  0  0  0  0  0  0  0  0  0  0  0  # atno 10167 bound_to 10162
  156.8165  130.5442  149.5702 H   0  0  0  0  0  0  0  0  0  0  0  0  # atno 10718 bound_to 10713
  152.9866  135.5614  154.5519 H   0  0  0  0  0  0  0  0  0  0  0  0  # atno 10763 bound_to 10752
  154.4954  135.2795  155.1465 H   0  0  0  0  0  0  0  0  0  0  0  0  # atno 10764 bound_to 10752
  154.2917  135.6325  153.5441 H   0  0  0  0  0  0  0  0  0  0  0  0  # atno 10765 bound_to 10752
  140.6384  133.9511  155.8312 H   0  0  0  0  0  0  0  0  0  0  0  0  # atno 11005 bound_to 11000
  145.3262  139.1773  143.4561 LP  0  0  0  0  0  0  0  0  0  0  0  0  # atno 17320 bound_to 7965
  146.3214  140.3286  142.8638 LP  0  0  0  0  0  0  0  0  0  0  0  0  # atno 17321 bound_to 7965
  140.1160  143.4655  152.2341 LP  0  0  0  0  0  0  0  0  0  0  0  0  # atno 17342 bound_to 10162
  139.5743  144.7479  151.3806 LP  0  0  0  0  0  0  0  0  0  0  0  0  # atno 17343 bound_to 10162
  156.1014  130.5971  150.9899 LP  0  0  0  0  0  0  0  0  0  0  0  0  # atno 17370 bound_to 10713
  157.6479  131.0901  150.8114 LP  0  0  0  0  0  0  0  0  0  0  0  0  # atno 17371 bound_to 10713
  141.0624  134.0326  157.3640 LP  0  0  0  0  0  0  0  0  0  0  0  0  # atno 17394 bound_to 11000
  139.9089  135.0186  156.7608 LP  0  0  0  0  0  0  0  0  0  0  0  0  # atno 17395 bound_to 11000

$$$$
