AV-unprocessed.smi:3061|AV-procd|sdf|11680|dock3
  -GOLD-   2272017 83D 1   1.00000     0.00000
 Structure written by MMmdl.
 35 36  0  0  0  0  0  0  0  0  1 V2000
  150.6297  133.6742  155.7784 C   0  0  0  0  0  0  0  0  0  0  0  0
  150.4748  135.1779  156.0508 C   0  0  1  0  0  0  0  0  0  0  0  0
  150.4012  135.9874  154.7419 C   0  0  0  0  0  0  0  0  0  0  0  0
  150.9526  137.3225  154.8904 N   0  0  0  0  0  0  0  0  0  0  0  0
  150.9002  138.3770  154.0756 C   0  0  0  0  0  0  0  0  0  0  0  0
  151.5383  139.4431  154.5381 N   0  0  0  0  0  0  0  0  0  0  0  0
  151.9919  138.9404  155.7249 C   0  0  0  0  0  0  0  0  0  0  0  0
  151.6674  137.6739  155.9854 N   0  0  0  0  0  0  0  0  0  0  0  0
  149.2771  135.4150  156.8537 N   0  0  0  0  0  0  0  0  0  0  0  0
  148.8980  134.6961  157.9209 C   0  0  0  0  0  0  0  0  0  0  0  0
  149.5163  133.7123  158.3291 O   0  0  0  0  0  0  0  0  0  0  0  0
  147.6232  135.1637  158.6401 C   0  0  2  0  0  0  0  0  0  0  0  0
  147.7975  136.5757  159.2363 C   0  0  0  0  0  0  0  0  0  0  0  0
  147.7538  136.3491  160.7382 C   0  0  0  0  0  0  0  0  0  0  0  0
  147.9529  137.2466  161.5555 O   0  0  0  0  0  0  0  0  0  0  0  0
  147.4839  135.0721  161.0218 N   0  0  0  0  0  0  0  0  0  0  0  0
  147.3762  134.5002  162.3570 C   0  0  0  0  0  0  0  0  0  0  0  0
  147.2580  134.2604  159.8385 C   0  0  0  0  0  0  0  0  0  0  0  0
  151.5286  133.4728  155.1955 H   0  0  0  0  0  0  0  0  0  0  0  0
  149.7774  133.2813  155.2232 H   0  0  0  0  0  0  0  0  0  0  0  0
  150.7102  133.1109  156.7087 H   0  0  0  0  0  0  0  0  0  0  0  0
  151.3555  135.5134  156.6021 H   0  0  0  0  0  0  0  0  0  0  0  0
  150.9631  135.4805  153.9563 H   0  0  0  0  0  0  0  0  0  0  0  0
  149.3711  136.0621  154.3891 H   0  0  0  0  0  0  0  0  0  0  0  0
  150.3896  138.3629  153.1236 H   0  0  0  0  0  0  0  0  0  0  0  0
  152.5783  139.5255  156.4178 H   0  0  0  0  0  0  0  0  0  0  0  0
  148.7081  136.2076  156.5935 H   0  0  0  0  0  0  0  0  0  0  0  0
  146.7959  135.1687  157.9280 H   0  0  0  0  0  0  0  0  0  0  0  0
  148.7325  137.0612  158.9514 H   0  0  0  0  0  0  0  0  0  0  0  0
  146.9762  137.2305  158.9436 H   0  0  0  0  0  0  0  0  0  0  0  0
  148.3324  134.5657  162.8777 H   0  0  0  0  0  0  0  0  0  0  0  0
  147.0860  133.4500  162.3123 H   0  0  0  0  0  0  0  0  0  0  0  0
  146.6267  135.0331  162.9438 H   0  0  0  0  0  0  0  0  0  0  0  0
  146.2084  133.9669  159.7966 H   0  0  0  0  0  0  0  0  0  0  0  0
  147.8535  133.3468  159.8835 H   0  0  0  0  0  0  0  0  0  0  0  0
  1  2  1  0  0  0  0
  1 19  1  0  0  0  0
  1 20  1  0  0  0  0
  1 21  1  0  0  0  0
  2  3  1  0  0  0  0
  2  9  1  0  0  0  0
  2 22  1  0  0  0  0
  3  4  1  0  0  0  0
  3 23  1  0  0  0  0
  3 24  1  0  0  0  0
  4  8  1  0  0  0  0
  4  5  1  0  0  0  0
  5  6  2  0  0  0  0
  5 25  1  0  0  0  0
  6  7  1  0  0  0  0
  7  8  2  0  0  0  0
  7 26  1  0  0  0  0
  9 10  1  0  0  0  0
  9 27  1  0  0  0  0
 10 11  2  0  0  0  0
 10 12  1  0  0  0  0
 12 18  1  0  0  0  0
 12 13  1  0  0  0  0
 12 28  1  0  0  0  0
 13 14  1  0  0  0  0
 13 29  1  0  0  0  0
 13 30  1  0  0  0  0
 14 15  2  0  0  0  0
 14 16  1  0  0  0  0
 16 17  1  0  0  0  0
 16 18  1  0  0  0  0
 17 31  1  0  0  0  0
 17 32  1  0  0  0  0
 17 33  1  0  0  0  0
 18 34  1  0  0  0  0
 18 35  1  0  0  0  0
M  END
> <s_m_source_file>
AV-unprocessed.smi

> <i_m_source_file_index>
3061

> <i_lp_mmshare_version>
43012

> <i_f3d_flags>
0

> <s_epik_input>
bjFbY0hdbltjSF1uMVtDSDJdW0NAQEhdKFtDSDNdKVtOSF1DKD1PKVtDQEBIXTJbQ0gyXUMoPU8pTihbQ0gzXSlbQ0gyXTI=

> <s_epik_cmdline>
J2VwaWtfcHl0aG9uJywgJy1waCcsICc3LjAnLCAnLXRuJywgJzgnLCAnLW1hJywgJzIwMCcsICctbWV0YWxfYmluZGluZycsICctaW1hZScsICc8aW5maWxlLm1hZT4nLCAnLW9tYWUnLCAnPG91dGZpbGUubWFlPic=

> <r_lp_tautomer_probability>
1

> <r_epik_Ionization_Penalty>
4.97611e-05

> <r_epik_Ionization_Penalty_Charging>
0

> <r_epik_Ionization_Penalty_Neutral>
4.97611e-05

> <r_epik_State_Penalty>
-0

> <r_epik_Charging_Adjusted_Penalty>
0

> <i_epik_Tot_Q>
0

> <i_epik_Tot_abs_Q>
0

> <r_epik_Metal_State_Penalty>
-0

> <b_epik_Metal_Only>
0

> <s_lp_Force_Field>
OPLS_2005

> <r_lp_Energy>
12.6192

> <b_lp_Chiralities_Consistent>
1

> <s_lp_Variant>
AV-unprocessed.smi:3061-2

> <Gold.Version>
5.8.1

> <Gold.Id.Protein>
6NUR|6NUR_protein|mol2

> <Gold.PLP.Fitness>
42.7478

> <Gold.PLP.PLP>
-26.8358

> <Gold.PLP.part.hbond>
-4.0000

> <Gold.PLP.part.metal>
0.0000

> <Gold.PLP.part.buried>
-1.7027

> <Gold.PLP.part.nonpolar>
-21.2359

> <Gold.PLP.part.repulsive>
0.1877

> <Gold.PLP.ligand.clash>
0.0000

> <Gold.PLP.ligand.torsion>
0.6732

> <Gold.PLP.Chemscore.Hbond>
3.7680

> <Gold.PLP.Chemscore.CHOScore>
1.9754

> <Gold.PLP.Chemscore.Metal>
0.0000

> <Gold.Chemscore.Hbonds>
donor molecule, donor type, donor heavy atom, donor atom, acceptor molecule, acceptor atom, score
      P1  H  6896  6907       L1    11  1.00
      P1  H  6931  6943       L1    15  0.96
      P1  H  6934  6947       L1    15  0.64
      P1  H  7989  7998       L1     6  1.00
      L1  C     5    25       P1  7948  0.27
      L1  C     5    25       P1  7957  0.64

> <Gold.PLP.Chemscore.Internal.Correction>
0.0283

> <Gold.Rescore>
     Score         DG    S(hbond)    S(metal)    S(lipo)     H(rot)  DE(clash)    DE(int)     intcor
     13.02     -15.25       3.65        0.00      32.17       2.42       0.09       2.14       ----

> <Gold.Chemscore.Fitness>
13.0154

> <Gold.Chemscore.DG>
-15.2456

> <Gold.Chemscore.ZeroCoef>
-5.4800

> <Gold.Chemscore.Hbond>
3.6517

> <Gold.Chemscore.Metal>
0.0000

> <Gold.Chemscore.Lipo>
32.1668

> <Gold.Chemscore.Internal_Hbond>
0.0000

> <Gold.Chemscore.DEClash>
0.0920

> <Gold.Chemscore.DEInternal>
2.1382

> <Gold.Chemscore.Rot>
2.4197

> <Gold.Chemscore.Internal.Correction>
   9.000000E+99

> <Gold.Chemscore.Hbonds>
donor molecule, donor type, donor heavy atom, donor atom, acceptor molecule, acceptor atom, score
      P1  H  6896  6907       L1    11  0.96
      P1  H  6931  6943       L1    15  0.89
      P1  H  6934  6947       L1    15  0.51
      P1  H  7989  7998       L1     6  0.95

> <Gold.Chemscore.Hbond.Weighted>
-12.1966

> <Gold.Chemscore.Metal.Weighted>
-0.0000

> <Gold.Chemscore.Lipo.Weighted>
-3.7635

> <Gold.Chemscore.Internal_Hbond.Weighted>
0.0000

> <Gold.Chemscore.DEClash.Weighted>
0.0920

> <Gold.Chemscore.DEInternal.Weighted>
2.1382

> <Gold.Chemscore.Rot.Weighted>
6.1945

> <Gold.Chemscore.Internal.Correction.Weighted>
   9.000000E+99

> <Gold.Protein.RotatedTorsions>
[ 6907 6896 6895 6894 ] final -127.93 input  -60.11 | X-H torsion
[ 7974 7965 7964 7962 ] final  108.06 input  175.53 | X-H torsion
[ 8008 7997 7996 7995 ] final  -27.66 input   59.86 | X-H torsion
[ 10167 10162 10161 10158 ] final  108.19 input  -65.29 | X-H torsion
[ 10718 10713 10712 10709 ] final -135.85 input   66.30 | X-H torsion
[ 10763 10752 10751 10750 ] final  176.91 input  -60.55 | X-H torsion
[ 11005 11000 10999 10996 ] final -157.51 input  -57.11 | X-H torsion

> <Gold.Protein.ActiveResidues>
 VAL166  LYS551  ARG553  GLY616  TRP617  ASP618  TYR619  PRO620  LYS621  CYS622 
 ASP623  PHE694  ASN695  SER759  ASP760  ASP761  ALA762  ILE779  LEU786  VAL792 
 PHE793  MET794  SER795  GLU796  ALA797  LYS798  CYS799  TRP800  GLU811  SER814 

> <Gold.Protein.RotatedAtoms>
  150.9125  133.6980  159.2851 H   0  0  0  0  0  0  0  0  0  0  0  0  # atno 6907 bound_to 6896
  151.4462  135.1024  159.9694 H   0  0  0  0  0  0  0  0  0  0  0  0  # atno 6908 bound_to 6896
  152.4937  133.8521  159.7262 H   0  0  0  0  0  0  0  0  0  0  0  0  # atno 6909 bound_to 6896
  145.2856  139.2617  143.3892 H   0  0  0  0  0  0  0  0  0  0  0  0  # atno 7974 bound_to 7965
  154.4367  140.1866  156.0966 H   0  0  0  0  0  0  0  0  0  0  0  0  # atno 8008 bound_to 7997
  156.0324  140.3329  155.7128 H   0  0  0  0  0  0  0  0  0  0  0  0  # atno 8009 bound_to 7997
  155.5819  140.0622  157.2771 H   0  0  0  0  0  0  0  0  0  0  0  0  # atno 8010 bound_to 7997
  139.6866  144.7113  151.1421 H   0  0  0  0  0  0  0  0  0  0  0  0  # atno 10167 bound_to 10162
  156.2706  130.7263  151.1229 H   0  0  0  0  0  0  0  0  0  0  0  0  # atno 10718 bound_to 10713
  154.4874  135.2777  155.1523 H   0  0  0  0  0  0  0  0  0  0  0  0  # atno 10763 bound_to 10752
  154.3209  135.6210  153.5511 H   0  0  0  0  0  0  0  0  0  0  0  0  # atno 10764 bound_to 10752
  152.9883  135.5742  154.5288 H   0  0  0  0  0  0  0  0  0  0  0  0  # atno 10765 bound_to 10752
  140.6638  134.4320  157.5234 H   0  0  0  0  0  0  0  0  0  0  0  0  # atno 11005 bound_to 11000
  146.3202  140.3334  142.8642 LP  0  0  0  0  0  0  0  0  0  0  0  0  # atno 17320 bound_to 7965
  144.9216  140.7874  143.5745 LP  0  0  0  0  0  0  0  0  0  0  0  0  # atno 17321 bound_to 7965
  140.7669  143.5620  150.9088 LP  0  0  0  0  0  0  0  0  0  0  0  0  # atno 17342 bound_to 10162
  139.9295  143.6510  152.3079 LP  0  0  0  0  0  0  0  0  0  0  0  0  # atno 17343 bound_to 10162
  157.7282  131.0633  150.5828 LP  0  0  0  0  0  0  0  0  0  0  0  0  # atno 17370 bound_to 10713
  156.5925  130.4333  149.5931 LP  0  0  0  0  0  0  0  0  0  0  0  0  # atno 17371 bound_to 10713
  139.9004  134.8570  156.1921 LP  0  0  0  0  0  0  0  0  0  0  0  0  # atno 17394 bound_to 11000
  141.0445  133.6920  156.1657 LP  0  0  0  0  0  0  0  0  0  0  0  0  # atno 17395 bound_to 11000

$$$$
