AV-unprocessed.smi:2656|AV-procd|sdf|10306|dock4
  -GOLD-   2272014323D 1   1.00000     0.00000
 Structure written by MMmdl.
 44 45  0  0  0  0  0  0  0  0  2 V2000
  148.8911  141.3252  157.0370 C   0  0  0  0  0  0  0  0  0  0  0  0
  150.2176  141.2912  156.4147 N   0  0  0  0  0  0  0  0  0  0  0  0
  151.0549  142.4475  156.7559 C   0  0  0  0  0  0  0  0  0  0  0  0
  150.7059  140.3357  155.5775 C   0  0  0  0  0  0  0  0  0  0  0  0
  151.8634  140.4252  155.1603 O   0  0  0  0  0  0  0  0  0  0  0  0
  149.8415  139.1178  155.0961 C   0  0  0  0  0  0  0  0  0  0  0  0
  148.5349  139.5396  154.3518 C   0  0  0  0  0  0  0  0  0  0  0  0
  148.0273  138.5183  153.4342 N   0  0  0  0  0  0  0  0  0  0  0  0
  146.7561  138.0999  153.3556 C   0  0  0  0  0  0  0  0  0  0  0  0
  145.8436  138.5622  154.0398 O   0  0  0  0  0  0  0  0  0  0  0  0
  146.6262  137.1061  152.4599 N   0  0  0  0  0  0  0  0  0  0  0  0
  145.4559  136.3757  152.1174 C   0  0  0  0  0  0  0  0  0  0  0  0
  145.4909  135.5997  150.9375 C   0  0  0  0  0  0  0  0  0  0  0  0
  144.3496  134.8670  150.5529 C   0  0  0  0  0  0  0  0  0  0  0  0
  143.2305  134.9208  151.3066 N   0  3  0  0  0  0  0  0  0  0  0  0
  143.1434  135.6613  152.4325 C   0  0  0  0  0  0  0  0  0  0  0  0
  144.2528  136.4146  152.8676 C   0  0  0  0  0  0  0  0  0  0  0  0
  150.6657  138.1900  154.1582 C   0  0  0  0  0  0  0  0  0  0  0  0
  151.5252  137.2803  155.0444 C   0  0  0  0  0  0  0  0  0  0  0  0
  150.8388  137.2707  156.4120 C   0  0  0  0  0  0  0  0  0  0  0  0
  149.5789  138.1323  156.2594 C   0  0  0  0  0  0  0  0  0  0  0  0
  148.4866  140.3430  157.2629 H   0  0  0  0  0  0  0  0  0  0  0  0
  148.1880  141.8474  156.3877 H   0  0  0  0  0  0  0  0  0  0  0  0
  148.9118  141.8559  157.9895 H   0  0  0  0  0  0  0  0  0  0  0  0
  151.9054  142.1348  157.3632 H   0  0  0  0  0  0  0  0  0  0  0  0
  150.5141  143.2119  157.3151 H   0  0  0  0  0  0  0  0  0  0  0  0
  151.4383  142.9319  155.8561 H   0  0  0  0  0  0  0  0  0  0  0  0
  147.7580  139.8012  155.0723 H   0  0  0  0  0  0  0  0  0  0  0  0
  148.6710  140.4586  153.7879 H   0  0  0  0  0  0  0  0  0  0  0  0
  148.7074  138.0802  152.8304 H   0  0  0  0  0  0  0  0  0  0  0  0
  147.4814  136.7813  152.0331 H   0  0  0  0  0  0  0  0  0  0  0  0
  146.3864  135.5573  150.3341 H   0  0  0  0  0  0  0  0  0  0  0  0
  144.2984  134.2448  149.6712 H   0  0  0  0  0  0  0  0  0  0  0  0
  142.1935  135.6336  152.9464 H   0  0  0  0  0  0  0  0  0  0  0  0
  144.1552  137.0146  153.7596 H   0  0  0  0  0  0  0  0  0  0  0  0
  149.9948  137.5511  153.5823 H   0  0  0  0  0  0  0  0  0  0  0  0
  151.2646  138.7280  153.4221 H   0  0  0  0  0  0  0  0  0  0  0  0
  151.6044  136.2782  154.6216 H   0  0  0  0  0  0  0  0  0  0  0  0
  152.5373  137.6758  155.1359 H   0  0  0  0  0  0  0  0  0  0  0  0
  150.5957  136.2603  156.7420 H   0  0  0  0  0  0  0  0  0  0  0  0
  151.5032  137.7070  157.1590 H   0  0  0  0  0  0  0  0  0  0  0  0
  149.3356  138.6081  157.2074 H   0  0  0  0  0  0  0  0  0  0  0  0
  148.7348  137.4880  156.0085 H   0  0  0  0  0  0  0  0  0  0  0  0
  142.4150  134.3833  151.0106 H   0  0  0  0  0  0  0  0  0  0  0  0
  1  2  1  0  0  0  0
  1 22  1  0  0  0  0
  1 23  1  0  0  0  0
  1 24  1  0  0  0  0
  2  3  1  0  0  0  0
  2  4  1  0  0  0  0
  3 25  1  0  0  0  0
  3 26  1  0  0  0  0
  3 27  1  0  0  0  0
  4  5  2  0  0  0  0
  4  6  1  0  0  0  0
  6 21  1  0  0  0  0
  6  7  1  0  0  0  0
  6 18  1  0  0  0  0
  7  8  1  0  0  0  0
  7 28  1  0  0  0  0
  7 29  1  0  0  0  0
  8  9  1  0  0  0  0
  8 30  1  0  0  0  0
  9 10  2  0  0  0  0
  9 11  1  0  0  0  0
 11 12  1  0  0  0  0
 11 31  1  0  0  0  0
 12 17  1  0  0  0  0
 12 13  2  0  0  0  0
 13 14  1  0  0  0  0
 13 32  1  0  0  0  0
 14 15  2  0  0  0  0
 14 33  1  0  0  0  0
 15 16  1  0  0  0  0
 15 44  1  0  0  0  0
 16 17  2  0  0  0  0
 16 34  1  0  0  0  0
 17 35  1  0  0  0  0
 18 19  1  0  0  0  0
 18 36  1  0  0  0  0
 18 37  1  0  0  0  0
 19 20  1  0  0  0  0
 19 38  1  0  0  0  0
 19 39  1  0  0  0  0
 20 21  1  0  0  0  0
 20 40  1  0  0  0  0
 20 41  1  0  0  0  0
 21 42  1  0  0  0  0
 21 43  1  0  0  0  0
M  CHG  1  15   1
M  END
> <s_m_source_file>
AV-unprocessed.smi

> <i_m_source_file_index>
2656

> <i_lp_mmshare_version>
43012

> <i_f3d_flags>
0

> <s_epik_input>
W0NIMl0xW0NIMl1bQ0gyXVtDSDJdQzEoQyg9TylOKFtDSDNdKVtDSDNdKVtDSDJdW05IXUMoPU8pW05IXWMyW2NIXVtjSF1uW2NIXVtjSF0y

> <s_epik_cmdline>
J2VwaWtfcHl0aG9uJywgJy1waCcsICc3LjAnLCAnLXRuJywgJzgnLCAnLW1hJywgJzIwMCcsICctbWV0YWxfYmluZGluZycsICctaW1hZScsICc8aW5maWxlLm1hZT4nLCAnLW9tYWUnLCAnPG91dGZpbGUubWFlPic=

> <r_epik_Ionization_Penalty>
1.05774

> <r_epik_Ionization_Penalty_Charging>
1.05772

> <r_epik_Ionization_Penalty_Neutral>
1.88023e-05

> <r_epik_State_Penalty>
1.11116

> <r_epik_Charging_Adjusted_Penalty>
2.16887

> <i_epik_Tot_Q>
1

> <i_epik_Tot_abs_Q>
1

> <r_epik_Metal_State_Penalty>
1.20442

> <b_epik_Metal_Only>
0

> <s_lp_Force_Field>
OPLS_2005

> <r_lp_Energy>
45.9804

> <b_lp_Chiralities_Consistent>
1

> <s_lp_Variant>
AV-unprocessed.smi:2656-2

> <Gold.Version>
5.8.1

> <Gold.Id.Protein>
6NUR|6NUR_protein|mol2

> <Gold.PLP.Fitness>
42.3875

> <Gold.PLP.PLP>
-31.5928

> <Gold.PLP.part.hbond>
-4.5968

> <Gold.PLP.part.metal>
0.0000

> <Gold.PLP.part.buried>
-1.5407

> <Gold.PLP.part.nonpolar>
-26.3238

> <Gold.PLP.part.repulsive>
0.2639

> <Gold.PLP.ligand.clash>
0.0000

> <Gold.PLP.ligand.torsion>
0.5780

> <Gold.PLP.Chemscore.Hbond>
3.9264

> <Gold.PLP.Chemscore.CHOScore>
0.0000

> <Gold.PLP.Chemscore.Metal>
0.0000

> <Gold.Chemscore.Hbonds>
donor molecule, donor type, donor heavy atom, donor atom, acceptor molecule, acceptor atom, score
      L1  H     8    30       P1  7948  0.70
      L1  H    11    31       P1  7948  1.00
      L1  H    15    44       P1 10186  1.15
      P1  H  7989  7998       L1     5  0.75

> <Gold.PLP.Chemscore.Internal.Correction>
0.1714

> <Gold.Rescore>
     Score         DG    S(hbond)    S(metal)    S(lipo)     H(rot)  DE(clash)    DE(int)     intcor
     18.07     -19.92       3.31        0.00      62.66       1.54       0.09       1.76       ----

> <Gold.Chemscore.Fitness>
18.0741

> <Gold.Chemscore.DG>
-19.9244

> <Gold.Chemscore.ZeroCoef>
-5.4800

> <Gold.Chemscore.Hbond>
3.3105

> <Gold.Chemscore.Metal>
0.0000

> <Gold.Chemscore.Lipo>
62.6609

> <Gold.Chemscore.Internal_Hbond>
0.0000

> <Gold.Chemscore.DEClash>
0.0946

> <Gold.Chemscore.DEInternal>
1.7557

> <Gold.Chemscore.Rot>
1.5406

> <Gold.Chemscore.Internal.Correction>
   9.000000E+99

> <Gold.Chemscore.Hbonds>
donor molecule, donor type, donor heavy atom, donor atom, acceptor molecule, acceptor atom, score
      L1  H     8    30       P1  7948  0.66
      L1  H    11    31       P1  7948  0.96
      L1  H    15    44       P1 10186  0.07
      P1  H  7989  7998       L1     5  0.33

> <Gold.Chemscore.Hbond.Weighted>
-11.0570

> <Gold.Chemscore.Metal.Weighted>
-0.0000

> <Gold.Chemscore.Lipo.Weighted>
-7.3313

> <Gold.Chemscore.Internal_Hbond.Weighted>
0.0000

> <Gold.Chemscore.DEClash.Weighted>
0.0946

> <Gold.Chemscore.DEInternal.Weighted>
1.7557

> <Gold.Chemscore.Rot.Weighted>
3.9440

> <Gold.Chemscore.Internal.Correction.Weighted>
   9.000000E+99

> <Gold.Protein.RotatedTorsions>
[ 6907 6896 6895 6894 ] final   54.11 input  -60.11 | X-H torsion
[ 7974 7965 7964 7962 ] final -101.51 input  175.53 | X-H torsion
[ 8008 7997 7996 7995 ] final  101.33 input   59.86 | X-H torsion
[ 10167 10162 10161 10158 ] final -109.99 input  -65.29 | X-H torsion
[ 10718 10713 10712 10709 ] final  162.04 input   66.30 | X-H torsion
[ 10763 10752 10751 10750 ] final  -73.00 input  -60.55 | X-H torsion
[ 11005 11000 10999 10996 ] final  -45.70 input  -57.11 | X-H torsion

> <Gold.Protein.ActiveResidues>
 VAL166  LYS551  ARG553  GLY616  TRP617  ASP618  TYR619  PRO620  LYS621  CYS622 
 ASP623  PHE694  ASN695  SER759  ASP760  ASP761  ALA762  ILE779  LEU786  VAL792 
 PHE793  MET794  SER795  GLU796  ALA797  LYS798  CYS799  TRP800  GLU811  SER814 

> <Gold.Protein.RotatedAtoms>
  152.3405  134.7140  160.0264 H   0  0  0  0  0  0  0  0  0  0  0  0  # atno 6907 bound_to 6896
  151.7527  133.3323  159.3404 H   0  0  0  0  0  0  0  0  0  0  0  0  # atno 6908 bound_to 6896
  150.7477  134.6110  159.6130 H   0  0  0  0  0  0  0  0  0  0  0  0  # atno 6909 bound_to 6896
  145.2807  140.9325  143.2934 H   0  0  0  0  0  0  0  0  0  0  0  0  # atno 7974 bound_to 7965
  156.1288  140.3199  155.8318 H   0  0  0  0  0  0  0  0  0  0  0  0  # atno 8008 bound_to 7997
  155.4369  140.0523  157.3031 H   0  0  0  0  0  0  0  0  0  0  0  0  # atno 8009 bound_to 7997
  154.4883  140.2082  155.9618 H   0  0  0  0  0  0  0  0  0  0  0  0  # atno 8010 bound_to 7997
  140.1493  143.4212  152.1506 H   0  0  0  0  0  0  0  0  0  0  0  0  # atno 10167 bound_to 10162
  157.1281  131.0509  151.2384 H   0  0  0  0  0  0  0  0  0  0  0  0  # atno 10718 bound_to 10713
  154.4535  135.5911  153.6207 H   0  0  0  0  0  0  0  0  0  0  0  0  # atno 10763 bound_to 10752
  152.9816  135.6027  154.3575 H   0  0  0  0  0  0  0  0  0  0  0  0  # atno 10764 bound_to 10752
  154.3439  135.2841  155.2387 H   0  0  0  0  0  0  0  0  0  0  0  0  # atno 10765 bound_to 10752
  141.0532  133.6735  156.3050 H   0  0  0  0  0  0  0  0  0  0  0  0  # atno 11005 bound_to 11000
  144.9256  139.4359  143.6520 LP  0  0  0  0  0  0  0  0  0  0  0  0  # atno 17320 bound_to 7965
  146.3217  139.8139  142.8940 LP  0  0  0  0  0  0  0  0  0  0  0  0  # atno 17321 bound_to 7965
  139.5433  144.7276  151.4662 LP  0  0  0  0  0  0  0  0  0  0  0  0  # atno 17342 bound_to 10162
  140.6712  143.8289  150.7002 LP  0  0  0  0  0  0  0  0  0  0  0  0  # atno 17343 bound_to 10162
  157.4417  130.7548  149.7075 LP  0  0  0  0  0  0  0  0  0  0  0  0  # atno 17370 bound_to 10713
  155.9814  130.4020  150.3475 LP  0  0  0  0  0  0  0  0  0  0  0  0  # atno 17371 bound_to 10713
  140.6015  134.5550  157.5518 LP  0  0  0  0  0  0  0  0  0  0  0  0  # atno 17394 bound_to 11000
  139.9368  134.7861  156.0782 LP  0  0  0  0  0  0  0  0  0  0  0  0  # atno 17395 bound_to 11000

$$$$
