AV-unprocessed.smi:1762|AV-procd|sdf|7107|dock2
  -GOLD-   22720 8333D 1   1.00000     0.00000
 Structure written by MMmdl.
 53 54  0  0  0  0  0  0  0  0  2 V2000
  150.9744  140.7858  157.2912 C   0  0  0  0  0  0  0  0  0  0  0  0
  151.1952  141.2216  155.8320 C   0  0  2  0  0  0  0  0  0  0  0  0
  149.8861  141.5522  155.0883 C   0  0  0  0  0  0  0  0  0  0  0  0
  149.0995  140.3658  154.7255 N   0  0  0  0  0  0  0  0  0  0  0  0
  147.8185  140.7134  154.0471 C   0  0  1  0  0  0  0  0  0  0  0  0
  146.7931  139.5529  154.0209 C   0  0  0  0  0  0  0  0  0  0  0  0
  146.2722  139.1521  155.0615 O   0  0  0  0  0  0  0  0  0  0  0  0
  146.5415  138.9992  152.8234 N   0  0  0  0  0  0  0  0  0  0  0  0
  145.6683  137.8511  152.5978 C   0  0  0  0  0  0  0  0  0  0  0  0
  145.8358  137.2208  151.2014 C   0  0  0  0  0  0  0  0  0  0  0  0
  145.5388  135.7319  151.1648 C   0  0  0  0  0  0  0  0  0  0  0  0
  144.2191  135.2339  151.1038 C   0  0  0  0  0  0  0  0  0  0  0  0
  144.0086  133.8391  151.0847 C   0  0  0  0  0  0  0  0  0  0  0  0
  145.1205  132.9725  151.1272 C   0  0  0  0  0  0  0  0  0  0  0  0
  146.4166  133.5237  151.1874 C   0  0  0  0  0  0  0  0  0  0  0  0
  146.5762  134.8651  151.2049 N   0  3  0  0  0  0  0  0  0  0  0  0
  147.1655  142.0478  154.5453 C   0  0  0  0  0  0  0  0  0  0  0  0
  146.7621  142.0322  156.0338 C   0  0  0  0  0  0  0  0  0  0  0  0
  145.9883  142.5267  153.6741 C   0  0  0  0  0  0  0  0  0  0  0  0
  149.9688  139.4395  153.9819 C   0  0  0  0  0  0  0  0  0  0  0  0
  151.2511  139.0779  154.7540 C   0  0  1  0  0  0  0  0  0  0  0  0
  152.1913  138.1924  153.9284 C   0  0  0  0  0  0  0  0  0  0  0  0
  151.9559  140.2658  155.0971 O   0  0  0  0  0  0  0  0  0  0  0  0
  150.5035  141.5835  157.8662 H   0  0  0  0  0  0  0  0  0  0  0  0
  151.9226  140.5476  157.7731 H   0  0  0  0  0  0  0  0  0  0  0  0
  150.3303  139.9099  157.3660 H   0  0  0  0  0  0  0  0  0  0  0  0
  151.7990  142.1291  155.8631 H   0  0  0  0  0  0  0  0  0  0  0  0
  149.3160  142.2252  155.7251 H   0  0  0  0  0  0  0  0  0  0  0  0
  150.1287  142.1160  154.1858 H   0  0  0  0  0  0  0  0  0  0  0  0
  148.0627  140.8905  152.9975 H   0  0  0  0  0  0  0  0  0  0  0  0
  147.0222  139.3744  152.0180 H   0  0  0  0  0  0  0  0  0  0  0  0
  145.8949  137.1071  153.3620 H   0  0  0  0  0  0  0  0  0  0  0  0
  144.6281  138.1411  152.7551 H   0  0  0  0  0  0  0  0  0  0  0  0
  145.1772  137.7263  150.4944 H   0  0  0  0  0  0  0  0  0  0  0  0
  146.8504  137.3894  150.8369 H   0  0  0  0  0  0  0  0  0  0  0  0
  143.3774  135.9106  151.0745 H   0  0  0  0  0  0  0  0  0  0  0  0
  143.0061  133.4389  151.0392 H   0  0  0  0  0  0  0  0  0  0  0  0
  144.9808  131.9013  151.1138 H   0  0  0  0  0  0  0  0  0  0  0  0
  147.3233  132.9375  151.2230 H   0  0  0  0  0  0  0  0  0  0  0  0
  147.9073  142.8367  154.4324 H   0  0  0  0  0  0  0  0  0  0  0  0
  145.9540  141.3295  156.2336 H   0  0  0  0  0  0  0  0  0  0  0  0
  146.4189  143.0168  156.3520 H   0  0  0  0  0  0  0  0  0  0  0  0
  147.6017  141.7639  156.6752 H   0  0  0  0  0  0  0  0  0  0  0  0
  145.1118  141.8879  153.7835 H   0  0  0  0  0  0  0  0  0  0  0  0
  146.2650  142.5495  152.6200 H   0  0  0  0  0  0  0  0  0  0  0  0
  145.6862  143.5369  153.9522 H   0  0  0  0  0  0  0  0  0  0  0  0
  149.4604  138.4984  153.7747 H   0  0  0  0  0  0  0  0  0  0  0  0
  150.2306  139.8755  153.0162 H   0  0  0  0  0  0  0  0  0  0  0  0
  150.9873  138.5375  155.6635 H   0  0  0  0  0  0  0  0  0  0  0  0
  151.7076  137.2544  153.6544 H   0  0  0  0  0  0  0  0  0  0  0  0
  153.0921  137.9490  154.4920 H   0  0  0  0  0  0  0  0  0  0  0  0
  152.4984  138.6919  153.0089 H   0  0  0  0  0  0  0  0  0  0  0  0
  147.5232  135.2426  151.2518 H   0  0  0  0  0  0  0  0  0  0  0  0
  1  2  1  0  0  0  0
  1 24  1  0  0  0  0
  1 25  1  0  0  0  0
  1 26  1  0  0  0  0
  2 23  1  0  0  0  0
  2  3  1  0  0  0  0
  2 27  1  0  0  0  0
  3  4  1  0  0  0  0
  3 28  1  0  0  0  0
  3 29  1  0  0  0  0
  4  5  1  0  0  0  0
  4 20  1  0  0  0  0
  5  6  1  0  0  0  0
  5 17  1  0  0  0  0
  5 30  1  0  0  0  0
  6  7  2  0  0  0  0
  6  8  1  0  0  0  0
  8  9  1  0  0  0  0
  8 31  1  0  0  0  0
  9 10  1  0  0  0  0
  9 32  1  0  0  0  0
  9 33  1  0  0  0  0
 10 11  1  0  0  0  0
 10 34  1  0  0  0  0
 10 35  1  0  0  0  0
 11 16  1  0  0  0  0
 11 12  2  0  0  0  0
 12 13  1  0  0  0  0
 12 36  1  0  0  0  0
 13 14  2  0  0  0  0
 13 37  1  0  0  0  0
 14 15  1  0  0  0  0
 14 38  1  0  0  0  0
 15 16  2  0  0  0  0
 15 39  1  0  0  0  0
 16 53  1  0  0  0  0
 17 18  1  0  0  0  0
 17 19  1  0  0  0  0
 17 40  1  0  0  0  0
 18 41  1  0  0  0  0
 18 42  1  0  0  0  0
 18 43  1  0  0  0  0
 19 44  1  0  0  0  0
 19 45  1  0  0  0  0
 19 46  1  0  0  0  0
 20 21  1  0  0  0  0
 20 47  1  0  0  0  0
 20 48  1  0  0  0  0
 21 22  1  0  0  0  0
 21 23  1  0  0  0  0
 21 49  1  0  0  0  0
 22 50  1  0  0  0  0
 22 51  1  0  0  0  0
 22 52  1  0  0  0  0
M  CHG  1  16   1
M  END
> <s_m_source_file>
AV-unprocessed.smi

> <i_m_source_file_index>
1762

> <i_lp_mmshare_version>
43012

> <i_f3d_flags>
0

> <s_epik_input>
W0NIM11bQ0BASF0xW0NIMl1OKFtDSDJdW0NASF0oTzEpW0NIM10pW0NAQEhdKFtDSF0oW0NIM10pW0NIM10pQyg9TylbTkhdW0NIMl1bQ0gyXWMyW2NIXVtjSF1bY0hdW2NIXW4y

> <s_epik_cmdline>
J2VwaWtfcHl0aG9uJywgJy1waCcsICc3LjAnLCAnLXRuJywgJzgnLCAnLW1hJywgJzIwMCcsICctbWV0YWxfYmluZGluZycsICctaW1hZScsICc8aW5maWxlLm1hZT4nLCAnLW9tYWUnLCAnPG91dGZpbGUubWFlPic=

> <r_epik_Ionization_Penalty>
1.86475

> <r_epik_Ionization_Penalty_Charging>
1.85347

> <r_epik_Ionization_Penalty_Neutral>
0.0112771

> <r_epik_State_Penalty>
1.99714

> <r_epik_Charging_Adjusted_Penalty>
3.85061

> <i_epik_Tot_Q>
1

> <i_epik_Tot_abs_Q>
1

> <r_epik_Metal_State_Penalty>
2.02271

> <b_epik_Metal_Only>
0

> <s_lp_Force_Field>
OPLS_2005

> <r_lp_Energy>
36.6316

> <b_lp_Chiralities_Consistent>
1

> <s_lp_Variant>
AV-unprocessed.smi:1762-9

> <Gold.Version>
5.8.1

> <Gold.Id.Protein>
6NUR|6NUR_protein|mol2

> <Gold.PLP.Fitness>
48.1564

> <Gold.PLP.PLP>
-42.4833

> <Gold.PLP.part.hbond>
-2.1798

> <Gold.PLP.part.metal>
0.0000

> <Gold.PLP.part.buried>
-2.8830

> <Gold.PLP.part.nonpolar>
-38.2816

> <Gold.PLP.part.repulsive>
0.2671

> <Gold.PLP.ligand.clash>
0.0000

> <Gold.PLP.ligand.torsion>
1.0439

> <Gold.PLP.Chemscore.Hbond>
2.4098

> <Gold.PLP.Chemscore.CHOScore>
0.0000

> <Gold.PLP.Chemscore.Metal>
0.0000

> <Gold.Chemscore.Hbonds>
donor molecule, donor type, donor heavy atom, donor atom, acceptor molecule, acceptor atom, score
      L1  H    16    53       P1  7948  2.00
      P1  H  7989  7998       L1    23  0.36

> <Gold.PLP.Chemscore.Internal.Correction>
0.5316

> <Gold.Rescore>
     Score         DG    S(hbond)    S(metal)    S(lipo)     H(rot)  DE(clash)    DE(int)     intcor
     16.42     -18.24       1.68        0.00      98.72       1.72       0.63       1.19       ----

> <Gold.Chemscore.Fitness>
16.4217

> <Gold.Chemscore.DG>
-18.2359

> <Gold.Chemscore.ZeroCoef>
-5.4800

> <Gold.Chemscore.Hbond>
1.6774

> <Gold.Chemscore.Metal>
0.0000

> <Gold.Chemscore.Lipo>
98.7175

> <Gold.Chemscore.Internal_Hbond>
0.0000

> <Gold.Chemscore.DEClash>
0.6254

> <Gold.Chemscore.DEInternal>
1.1888

> <Gold.Chemscore.Rot>
1.7174

> <Gold.Chemscore.Internal.Correction>
   9.000000E+99

> <Gold.Chemscore.Hbonds>
donor molecule, donor type, donor heavy atom, donor atom, acceptor molecule, acceptor atom, score
      L1  H    16    53       P1  7948  0.55

> <Gold.Chemscore.Hbond.Weighted>
-5.6025

> <Gold.Chemscore.Metal.Weighted>
-0.0000

> <Gold.Chemscore.Lipo.Weighted>
-11.5499

> <Gold.Chemscore.Internal_Hbond.Weighted>
0.0000

> <Gold.Chemscore.DEClash.Weighted>
0.6254

> <Gold.Chemscore.DEInternal.Weighted>
1.1888

> <Gold.Chemscore.Rot.Weighted>
4.3966

> <Gold.Chemscore.Internal.Correction.Weighted>
   9.000000E+99

> <Gold.Protein.RotatedTorsions>
[ 6907 6896 6895 6894 ] final  -69.48 input  -60.11 | X-H torsion
[ 7974 7965 7964 7962 ] final -102.78 input  175.53 | X-H torsion
[ 8008 7997 7996 7995 ] final   94.79 input   59.86 | X-H torsion
[ 10167 10162 10161 10158 ] final -130.19 input  -65.29 | X-H torsion
[ 10718 10713 10712 10709 ] final  170.20 input   66.30 | X-H torsion
[ 10763 10752 10751 10750 ] final   14.40 input  -60.55 | X-H torsion
[ 11005 11000 10999 10996 ] final  151.68 input  -57.11 | X-H torsion

> <Gold.Protein.ActiveResidues>
 VAL166  LYS551  ARG553  GLY616  TRP617  ASP618  TYR619  PRO620  LYS621  CYS622 
 ASP623  PHE694  ASN695  SER759  ASP760  ASP761  ALA762  ILE779  LEU786  VAL792 
 PHE793  MET794  SER795  GLU796  ALA797  LYS798  CYS799  TRP800  GLU811  SER814 

> <Gold.Protein.RotatedAtoms>
  150.7304  134.5591  159.5832 H   0  0  0  0  0  0  0  0  0  0  0  0  # atno 6907 bound_to 6896
  152.3059  134.7553  160.0356 H   0  0  0  0  0  0  0  0  0  0  0  0  # atno 6908 bound_to 6896
  151.8117  133.3347  159.3594 H   0  0  0  0  0  0  0  0  0  0  0  0  # atno 6909 bound_to 6896
  145.2643  140.9279  143.3023 H   0  0  0  0  0  0  0  0  0  0  0  0  # atno 7974 bound_to 7965
  156.0618  140.3295  155.7470 H   0  0  0  0  0  0  0  0  0  0  0  0  # atno 8008 bound_to 7997
  155.5443  140.0604  157.2881 H   0  0  0  0  0  0  0  0  0  0  0  0  # atno 8009 bound_to 7997
  154.4485  140.1905  156.0611 H   0  0  0  0  0  0  0  0  0  0  0  0  # atno 8010 bound_to 7997
  139.9319  143.6262  152.2527 H   0  0  0  0  0  0  0  0  0  0  0  0  # atno 10167 bound_to 10162
  157.0116  131.0206  151.2801 H   0  0  0  0  0  0  0  0  0  0  0  0  # atno 10718 bound_to 10713
  153.1626  135.6798  153.8721 H   0  0  0  0  0  0  0  0  0  0  0  0  # atno 10763 bound_to 10752
  153.8111  135.3143  155.3402 H   0  0  0  0  0  0  0  0  0  0  0  0  # atno 10764 bound_to 10752
  154.7943  135.4816  154.0214 H   0  0  0  0  0  0  0  0  0  0  0  0  # atno 10765 bound_to 10752
  140.1240  134.8845  157.2112 H   0  0  0  0  0  0  0  0  0  0  0  0  # atno 11005 bound_to 11000
  144.9391  139.4210  143.6458 LP  0  0  0  0  0  0  0  0  0  0  0  0  # atno 17320 bound_to 7965
  146.3266  139.8341  142.8903 LP  0  0  0  0  0  0  0  0  0  0  0  0  # atno 17321 bound_to 7965
  139.6775  144.7658  151.1669 LP  0  0  0  0  0  0  0  0  0  0  0  0  # atno 17342 bound_to 10162
  140.7635  143.5773  150.8931 LP  0  0  0  0  0  0  0  0  0  0  0  0  # atno 17343 bound_to 10162
  157.5316  130.8062  149.7923 LP  0  0  0  0  0  0  0  0  0  0  0  0  # atno 17370 bound_to 10713
  156.0134  130.3823  150.2190 LP  0  0  0  0  0  0  0  0  0  0  0  0  # atno 17371 bound_to 10713
  140.2928  134.3221  155.7310 LP  0  0  0  0  0  0  0  0  0  0  0  0  # atno 17394 bound_to 11000
  141.2157  133.7545  156.9528 LP  0  0  0  0  0  0  0  0  0  0  0  0  # atno 17395 bound_to 11000

$$$$
