AV-unprocessed.smi:1916|AV-procd|sdf|7766|dock7
  -GOLD-   22720 9513D 1   1.00000     0.00000
 Structure written by MMmdl.
 46 48  0  0  0  0  0  0  0  0  2 V2000
  149.7267  141.1464  154.0098 O   0  0  0  0  0  0  0  0  0  0  0  0
  148.9679  140.8784  154.9415 C   0  0  0  0  0  0  0  0  0  0  0  0
  149.3564  140.8505  156.2249 N   0  0  0  0  0  0  0  0  0  0  0  0
  150.7082  141.1228  156.7057 C   0  0  0  0  0  0  0  0  0  0  0  0
  151.1203  142.5879  156.4756 C   0  0  0  0  0  0  0  0  0  0  0  0
  151.2489  143.3954  157.7556 C   0  0  0  0  0  0  0  0  0  0  0  0
  152.1415  143.0256  158.7850 C   0  0  0  0  0  0  0  0  0  0  0  0
  152.2273  143.8252  159.9439 C   0  0  0  0  0  0  0  0  0  0  0  0
  151.4204  144.9770  160.0487 C   0  0  0  0  0  0  0  0  0  0  0  0
  150.5468  145.3007  158.9907 C   0  0  0  0  0  0  0  0  0  0  0  0
  150.4941  144.5098  157.8962 N   0  3  0  0  0  0  0  0  0  0  0  0
  147.4906  140.5533  154.6673 C   0  0  2  0  0  0  0  0  0  0  0  0
  146.9937  141.2414  153.3841 C   0  0  0  0  0  0  0  0  0  0  0  0
  146.0251  142.2983  153.8865 C   0  0  0  0  0  0  0  0  0  0  0  0
  145.5495  143.1577  153.1462 O   0  0  0  0  0  0  0  0  0  0  0  0
  145.7980  142.1732  155.2020 N   0  0  0  0  0  0  0  0  0  0  0  0
  144.9984  143.1098  156.0112 C   0  0  0  0  0  0  0  0  0  0  0  0
  144.9140  142.7735  157.5128 C   0  0  0  0  0  0  0  0  0  0  0  0
  143.5991  143.3972  157.9706 C   0  0  0  0  0  0  0  0  0  0  0  0
  142.6516  143.1510  156.7992 C   0  0  0  0  0  0  0  0  0  0  0  0
  143.5287  143.2188  155.5424 C   0  0  0  0  0  0  0  0  0  0  0  0
  146.5538  141.0673  155.7813 C   0  0  0  0  0  0  0  0  0  0  0  0
  148.6594  140.6327  156.9219 H   0  0  0  0  0  0  0  0  0  0  0  0
  150.8078  140.8878  157.7666 H   0  0  0  0  0  0  0  0  0  0  0  0
  151.3931  140.4604  156.1752 H   0  0  0  0  0  0  0  0  0  0  0  0
  152.0710  142.6203  155.9411 H   0  0  0  0  0  0  0  0  0  0  0  0
  150.3932  143.0738  155.8239 H   0  0  0  0  0  0  0  0  0  0  0  0
  152.7560  142.1421  158.6878 H   0  0  0  0  0  0  0  0  0  0  0  0
  152.9051  143.5588  160.7420 H   0  0  0  0  0  0  0  0  0  0  0  0
  151.4711  145.6029  160.9277 H   0  0  0  0  0  0  0  0  0  0  0  0
  149.8942  146.1615  158.9866 H   0  0  0  0  0  0  0  0  0  0  0  0
  147.3769  139.4721  154.5706 H   0  0  0  0  0  0  0  0  0  0  0  0
  147.7893  141.7006  152.7947 H   0  0  0  0  0  0  0  0  0  0  0  0
  146.4615  140.5390  152.7420 H   0  0  0  0  0  0  0  0  0  0  0  0
  145.4549  144.0971  155.9212 H   0  0  0  0  0  0  0  0  0  0  0  0
  144.8463  141.6979  157.6774 H   0  0  0  0  0  0  0  0  0  0  0  0
  145.7717  143.1441  158.0751 H   0  0  0  0  0  0  0  0  0  0  0  0
  143.2328  142.9702  158.9045 H   0  0  0  0  0  0  0  0  0  0  0  0
  143.7318  144.4693  158.1216 H   0  0  0  0  0  0  0  0  0  0  0  0
  142.2170  142.1544  156.8869 H   0  0  0  0  0  0  0  0  0  0  0  0
  141.8295  143.8669  156.7731 H   0  0  0  0  0  0  0  0  0  0  0  0
  143.3754  144.1605  155.0141 H   0  0  0  0  0  0  0  0  0  0  0  0
  143.2498  142.4178  154.8564 H   0  0  0  0  0  0  0  0  0  0  0  0
  145.8634  140.2799  156.0862 H   0  0  0  0  0  0  0  0  0  0  0  0
  147.1007  141.3901  156.6689 H   0  0  0  0  0  0  0  0  0  0  0  0
  149.8541  144.7632  157.1429 H   0  0  0  0  0  0  0  0  0  0  0  0
  1  2  2  0  0  0  0
  2  3  1  0  0  0  0
  2 12  1  0  0  0  0
  3  4  1  0  0  0  0
  3 23  1  0  0  0  0
  4  5  1  0  0  0  0
  4 24  1  0  0  0  0
  4 25  1  0  0  0  0
  5  6  1  0  0  0  0
  5 26  1  0  0  0  0
  5 27  1  0  0  0  0
  6 11  1  0  0  0  0
  6  7  2  0  0  0  0
  7  8  1  0  0  0  0
  7 28  1  0  0  0  0
  8  9  2  0  0  0  0
  8 29  1  0  0  0  0
  9 10  1  0  0  0  0
  9 30  1  0  0  0  0
 10 11  2  0  0  0  0
 10 31  1  0  0  0  0
 11 46  1  0  0  0  0
 12 22  1  0  0  0  0
 12 13  1  0  0  0  0
 12 32  1  0  0  0  0
 13 14  1  0  0  0  0
 13 33  1  0  0  0  0
 13 34  1  0  0  0  0
 14 15  2  0  0  0  0
 14 16  1  0  0  0  0
 16 17  1  0  0  0  0
 16 22  1  0  0  0  0
 17 21  1  0  0  0  0
 17 18  1  0  0  0  0
 17 35  1  0  0  0  0
 18 19  1  0  0  0  0
 18 36  1  0  0  0  0
 18 37  1  0  0  0  0
 19 20  1  0  0  0  0
 19 38  1  0  0  0  0
 19 39  1  0  0  0  0
 20 21  1  0  0  0  0
 20 40  1  0  0  0  0
 20 41  1  0  0  0  0
 21 42  1  0  0  0  0
 21 43  1  0  0  0  0
 22 44  1  0  0  0  0
 22 45  1  0  0  0  0
M  CHG  1  11   1
M  END
> <s_m_source_file>
AV-unprocessed.smi

> <i_m_source_file_index>
1916

> <i_lp_mmshare_version>
43012

> <i_f3d_flags>
0

> <s_epik_input>
W0NIMl0xW0NIMl1bQ0gyXVtDSDJdW0NIXTFOKFtDSDJdMilDKD1PKVtDSDJdW0NASF0yQyg9TylbTkhdW0NIMl1bQ0gyXWMzW2NIXVtjSF1bY0hdW2NIXW4z

> <s_epik_cmdline>
J2VwaWtfcHl0aG9uJywgJy1waCcsICc3LjAnLCAnLXRuJywgJzgnLCAnLW1hJywgJzIwMCcsICctbWV0YWxfYmluZGluZycsICctaW1hZScsICc8aW5maWxlLm1hZT4nLCAnLW9tYWUnLCAnPG91dGZpbGUubWFlPic=

> <r_epik_Ionization_Penalty>
1.88249

> <r_epik_Ionization_Penalty_Charging>
1.88249

> <r_epik_Ionization_Penalty_Neutral>
3.64574e-08

> <r_epik_State_Penalty>
2.00238

> <r_epik_Charging_Adjusted_Penalty>
3.88487

> <i_epik_Tot_Q>
1

> <i_epik_Tot_abs_Q>
1

> <r_epik_Metal_State_Penalty>
2.02676

> <b_epik_Metal_Only>
0

> <s_lp_Force_Field>
OPLS_2005

> <r_lp_Energy>
42.8241

> <b_lp_Chiralities_Consistent>
1

> <s_lp_Variant>
AV-unprocessed.smi:1916-3

> <Gold.Version>
5.8.1

> <Gold.Id.Protein>
6NUR|6NUR_protein|mol2

> <Gold.PLP.Fitness>
48.6705

> <Gold.PLP.PLP>
-42.0327

> <Gold.PLP.part.hbond>
-3.6179

> <Gold.PLP.part.metal>
0.0000

> <Gold.PLP.part.buried>
-6.4292

> <Gold.PLP.part.nonpolar>
-32.3404

> <Gold.PLP.part.repulsive>
0.5568

> <Gold.PLP.ligand.clash>
0.0000

> <Gold.PLP.ligand.torsion>
1.1271

> <Gold.PLP.Chemscore.Hbond>
2.9397

> <Gold.PLP.Chemscore.CHOScore>
0.0000

> <Gold.PLP.Chemscore.Metal>
0.0000

> <Gold.Chemscore.Hbonds>
donor molecule, donor type, donor heavy atom, donor atom, acceptor molecule, acceptor atom, score
      L1  H    11    46       P1  8028  1.60
      P1  H  7989  7998       L1     1  0.38
      P1  H  8011  8017       L1     1  0.66

> <Gold.PLP.Chemscore.Internal.Correction>
0.0728

> <Gold.Rescore>
     Score         DG    S(hbond)    S(metal)    S(lipo)     H(rot)  DE(clash)    DE(int)     intcor
     15.67     -19.55       1.98        0.00     101.15       1.72       2.70       1.17       ----

> <Gold.Chemscore.Fitness>
15.6734

> <Gold.Chemscore.DG>
-19.5502

> <Gold.Chemscore.ZeroCoef>
-5.4800

> <Gold.Chemscore.Hbond>
1.9846

> <Gold.Chemscore.Metal>
0.0000

> <Gold.Chemscore.Lipo>
101.1468

> <Gold.Chemscore.Internal_Hbond>
0.0000

> <Gold.Chemscore.DEClash>
2.7049

> <Gold.Chemscore.DEInternal>
1.1720

> <Gold.Chemscore.Rot>
1.7158

> <Gold.Chemscore.Internal.Correction>
   9.000000E+99

> <Gold.Chemscore.Hbonds>
donor molecule, donor type, donor heavy atom, donor atom, acceptor molecule, acceptor atom, score
      L1  H    11    46       P1  8028  0.12
      P1  H  7989  7998       L1     1  0.37
      P1  H  8011  8017       L1     1  0.64

> <Gold.Chemscore.Hbond.Weighted>
-6.6284

> <Gold.Chemscore.Metal.Weighted>
-0.0000

> <Gold.Chemscore.Lipo.Weighted>
-11.8342

> <Gold.Chemscore.Internal_Hbond.Weighted>
0.0000

> <Gold.Chemscore.DEClash.Weighted>
2.7049

> <Gold.Chemscore.DEInternal.Weighted>
1.1720

> <Gold.Chemscore.Rot.Weighted>
4.3924

> <Gold.Chemscore.Internal.Correction.Weighted>
   9.000000E+99

> <Gold.Protein.RotatedTorsions>
[ 6907 6896 6895 6894 ] final   82.46 input  -60.11 | X-H torsion
[ 7974 7965 7964 7962 ] final   21.46 input  175.53 | X-H torsion
[ 8008 7997 7996 7995 ] final  -41.56 input   59.86 | X-H torsion
[ 10167 10162 10161 10158 ] final  115.94 input  -65.29 | X-H torsion
[ 10718 10713 10712 10709 ] final  -65.54 input   66.30 | X-H torsion
[ 10763 10752 10751 10750 ] final -109.86 input  -60.55 | X-H torsion
[ 11005 11000 10999 10996 ] final    5.00 input  -57.11 | X-H torsion

> <Gold.Protein.ActiveResidues>
 VAL166  LYS551  ARG553  GLY616  TRP617  ASP618  TYR619  PRO620  LYS621  CYS622 
 ASP623  PHE694  ASN695  SER759  ASP760  ASP761  ALA762  ILE779  LEU786  VAL792 
 PHE793  MET794  SER795  GLU796  ALA797  LYS798  CYS799  TRP800  GLU811  SER814 

> <Gold.Protein.RotatedAtoms>
  152.5299  134.3047  159.9091 H   0  0  0  0  0  0  0  0  0  0  0  0  # atno 6907 bound_to 6896
  151.2997  133.4121  159.2646 H   0  0  0  0  0  0  0  0  0  0  0  0  # atno 6908 bound_to 6896
  151.0130  134.9427  159.8074 H   0  0  0  0  0  0  0  0  0  0  0  0  # atno 6909 bound_to 6896
  146.2070  139.8024  142.8718 H   0  0  0  0  0  0  0  0  0  0  0  0  # atno 7974 bound_to 7965
  154.4003  140.1496  156.3211 H   0  0  0  0  0  0  0  0  0  0  0  0  # atno 8008 bound_to 7997
  155.8529  140.3457  155.5684 H   0  0  0  0  0  0  0  0  0  0  0  0  # atno 8009 bound_to 7997
  155.7965  140.0864  157.1971 H   0  0  0  0  0  0  0  0  0  0  0  0  # atno 8010 bound_to 7997
  139.6282  144.7111  151.2489 H   0  0  0  0  0  0  0  0  0  0  0  0  # atno 10167 bound_to 10162
  156.0663  130.4249  150.1579 H   0  0  0  0  0  0  0  0  0  0  0  0  # atno 10718 bound_to 10713
  154.8216  135.4585  154.0797 H   0  0  0  0  0  0  0  0  0  0  0  0  # atno 10763 bound_to 10752
  153.2145  135.6886  153.8080 H   0  0  0  0  0  0  0  0  0  0  0  0  # atno 10764 bound_to 10752
  153.7519  135.3297  155.3299 H   0  0  0  0  0  0  0  0  0  0  0  0  # atno 10765 bound_to 10752
  140.5756  134.0061  155.8026 H   0  0  0  0  0  0  0  0  0  0  0  0  # atno 11005 bound_to 11000
  145.3282  141.0260  143.3461 LP  0  0  0  0  0  0  0  0  0  0  0  0  # atno 17320 bound_to 7965
  144.8818  139.4894  143.6719 LP  0  0  0  0  0  0  0  0  0  0  0  0  # atno 17321 bound_to 7965
  140.7423  143.6529  150.8232 LP  0  0  0  0  0  0  0  0  0  0  0  0  # atno 17342 bound_to 10162
  140.0150  143.5602  152.2823 LP  0  0  0  0  0  0  0  0  0  0  0  0  # atno 17343 bound_to 10162
  156.9638  130.9813  151.3473 LP  0  0  0  0  0  0  0  0  0  0  0  0  # atno 17370 bound_to 10713
  157.5707  130.8309  149.8388 LP  0  0  0  0  0  0  0  0  0  0  0  0  # atno 17371 bound_to 10713
  141.1028  133.9740  157.3049 LP  0  0  0  0  0  0  0  0  0  0  0  0  # atno 17394 bound_to 11000
  139.9341  135.0198  156.8498 LP  0  0  0  0  0  0  0  0  0  0  0  0  # atno 17395 bound_to 11000

$$$$
