AV-unprocessed.smi:1047|AV-procd|sdf|4603|dock9
  -GOLD-   22720 3 93D 1   1.00000     0.00000
 Structure written by MMmdl.
 57 59  0  0  0  0  0  0  0  0  3 V2000
  151.0595  129.7735  155.2818 C   0  0  0  0  0  0  0  0  0  0  0  0
  149.8642  130.2567  156.1152 C   0  0  0  0  0  0  0  0  0  0  0  0
  149.2822  131.5216  155.6006 N   0  3  2  0  0  0  0  0  0  0  0  0
  148.8285  131.4355  154.1903 C   0  0  0  0  0  0  0  0  0  0  0  0
  148.2226  132.7742  153.7383 C   0  0  0  0  0  0  0  0  0  0  0  0
  149.1767  133.8121  153.9208 O   0  0  0  0  0  0  0  0  0  0  0  0
  149.5383  133.9786  155.2880 C   0  0  2  0  0  0  0  0  0  0  0  0
  150.5028  135.1699  155.3809 C   0  0  0  0  0  0  0  0  0  0  0  0
  149.9249  136.3638  154.7728 N   0  0  0  0  0  0  0  0  0  0  0  0
  150.8713  137.4686  154.6504 C   0  0  0  0  0  0  0  0  0  0  0  0
  150.4080  138.6969  155.4527 C   0  0  1  0  0  0  0  0  0  0  0  0
  149.8866  138.2563  156.6910 O   0  0  0  0  0  0  0  0  0  0  0  0
  151.5679  139.6790  155.7106 C   0  0  0  0  0  0  0  0  0  0  0  0
  151.1049  141.0029  156.1515 N   0  0  0  0  0  0  0  0  0  0  0  0
  150.2297  141.8559  155.5533 C   0  0  0  0  0  0  0  0  0  0  0  0
  150.1218  142.9576  156.3456 N   0  3  0  0  0  0  0  0  0  0  0  0
  150.9405  142.8072  157.4666 C   0  0  0  0  0  0  0  0  0  0  0  0
  151.1666  143.6523  158.5465 C   0  0  0  0  0  0  0  0  0  0  0  0
  152.0669  143.2039  159.5388 C   0  0  0  0  0  0  0  0  0  0  0  0
  152.3354  144.1026  160.7340 C   0  0  0  0  0  0  0  0  0  0  0  0
  152.7074  141.9428  159.4267 C   0  0  0  0  0  0  0  0  0  0  0  0
  153.6732  141.4708  160.5002 C   0  0  0  0  0  0  0  0  0  0  0  0
  152.4638  141.0976  158.3203 C   0  0  0  0  0  0  0  0  0  0  0  0
  151.5746  141.5546  157.3500 C   0  0  0  0  0  0  0  0  0  0  0  0
  150.1975  132.6744  155.7788 C   0  0  0  0  0  0  0  0  0  0  0  0
  151.4028  128.8008  155.6345 H   0  0  0  0  0  0  0  0  0  0  0  0
  151.9067  130.4557  155.3471 H   0  0  0  0  0  0  0  0  0  0  0  0
  150.7903  129.6670  154.2306 H   0  0  0  0  0  0  0  0  0  0  0  0
  149.1013  129.4773  156.0861 H   0  0  0  0  0  0  0  0  0  0  0  0
  150.1477  130.3735  157.1623 H   0  0  0  0  0  0  0  0  0  0  0  0
  149.6717  131.1747  153.5488 H   0  0  0  0  0  0  0  0  0  0  0  0
  148.0830  130.6494  154.0746 H   0  0  0  0  0  0  0  0  0  0  0  0
  147.9508  132.7265  152.6837 H   0  0  0  0  0  0  0  0  0  0  0  0
  147.3097  132.9986  154.2924 H   0  0  0  0  0  0  0  0  0  0  0  0
  148.6485  134.1837  155.8872 H   0  0  0  0  0  0  0  0  0  0  0  0
  150.7295  135.3736  156.4282 H   0  0  0  0  0  0  0  0  0  0  0  0
  151.4485  134.9156  154.9005 H   0  0  0  0  0  0  0  0  0  0  0  0
  149.5482  136.1336  153.8586 H   0  0  0  0  0  0  0  0  0  0  0  0
  151.8719  137.1611  154.9579 H   0  0  0  0  0  0  0  0  0  0  0  0
  150.9463  137.7469  153.5983 H   0  0  0  0  0  0  0  0  0  0  0  0
  149.6208  139.2223  154.9094 H   0  0  0  0  0  0  0  0  0  0  0  0
  149.1122  137.7410  156.5254 H   0  0  0  0  0  0  0  0  0  0  0  0
  152.2766  139.2788  156.4358 H   0  0  0  0  0  0  0  0  0  0  0  0
  152.1314  139.8341  154.7895 H   0  0  0  0  0  0  0  0  0  0  0  0
  149.7131  141.6890  154.6190 H   0  0  0  0  0  0  0  0  0  0  0  0
  150.6742  144.6106  158.6255 H   0  0  0  0  0  0  0  0  0  0  0  0
  153.3897  144.3768  160.7777 H   0  0  0  0  0  0  0  0  0  0  0  0
  152.0695  143.5952  161.6617 H   0  0  0  0  0  0  0  0  0  0  0  0
  151.7534  145.0231  160.6799 H   0  0  0  0  0  0  0  0  0  0  0  0
  154.0900  140.4921  160.2605 H   0  0  0  0  0  0  0  0  0  0  0  0
  153.1662  141.3910  161.4620 H   0  0  0  0  0  0  0  0  0  0  0  0
  154.5038  142.1698  160.6023 H   0  0  0  0  0  0  0  0  0  0  0  0
  152.9487  140.1363  158.2406 H   0  0  0  0  0  0  0  0  0  0  0  0
  150.4616  132.7722  156.8328 H   0  0  0  0  0  0  0  0  0  0  0  0
  151.1243  132.4907  155.2321 H   0  0  0  0  0  0  0  0  0  0  0  0
  148.4669  131.7172  156.1639 H   0  0  0  0  0  0  0  0  0  0  0  0
  149.5310  143.7517  156.1350 H   0  0  0  0  0  0  0  0  0  0  0  0
  1  2  1  0  0  0  0
  1 26  1  0  0  0  0
  1 27  1  0  0  0  0
  1 28  1  0  0  0  0
  2  3  1  0  0  0  0
  2 29  1  0  0  0  0
  2 30  1  0  0  0  0
  3 25  1  0  0  0  0
  3  4  1  0  0  0  0
  3 56  1  0  0  0  0
  4  5  1  0  0  0  0
  4 31  1  0  0  0  0
  4 32  1  0  0  0  0
  5  6  1  0  0  0  0
  5 33  1  0  0  0  0
  5 34  1  0  0  0  0
  6  7  1  0  0  0  0
  7  8  1  0  0  0  0
  7 25  1  0  0  0  0
  7 35  1  0  0  0  0
  8  9  1  0  0  0  0
  8 36  1  0  0  0  0
  8 37  1  0  0  0  0
  9 10  1  0  0  0  0
  9 38  1  0  0  0  0
 10 11  1  0  0  0  0
 10 39  1  0  0  0  0
 10 40  1  0  0  0  0
 11 12  1  0  0  0  0
 11 13  1  0  0  0  0
 11 41  1  0  0  0  0
 12 42  1  0  0  0  0
 13 14  1  0  0  0  0
 13 43  1  0  0  0  0
 13 44  1  0  0  0  0
 14 24  1  0  0  0  0
 14 15  1  0  0  0  0
 15 16  2  0  0  0  0
 15 45  1  0  0  0  0
 16 17  1  0  0  0  0
 16 57  1  0  0  0  0
 17 24  2  0  0  0  0
 17 18  1  0  0  0  0
 18 19  2  0  0  0  0
 18 46  1  0  0  0  0
 19 20  1  0  0  0  0
 19 21  1  0  0  0  0
 20 47  1  0  0  0  0
 20 48  1  0  0  0  0
 20 49  1  0  0  0  0
 21 22  1  0  0  0  0
 21 23  2  0  0  0  0
 22 50  1  0  0  0  0
 22 51  1  0  0  0  0
 22 52  1  0  0  0  0
 23 24  1  0  0  0  0
 23 53  1  0  0  0  0
 25 54  1  0  0  0  0
 25 55  1  0  0  0  0
M  CHG  1   3   1
M  CHG  1  16   1
M  END
> <s_m_source_file>
AV-unprocessed.smi

> <i_m_source_file_index>
1047

> <i_lp_mmshare_version>
43012

> <i_f3d_flags>
0

> <s_epik_input>
W0NIM11bQ0gyXU4xW0NIMl1bQ0gyXU9bQ0BIXShbQ0gyXTEpW0NIMl1bTkhdW0NIMl1bQ0BIXShbT0hdKVtDSDJdbihbY0hdbjIpYyhjMjMpW2NIXWMoW0NIM10pYyhbY0hdMylbQ0gzXQ==

> <s_epik_cmdline>
J2VwaWtfcHl0aG9uJywgJy1waCcsICc3LjAnLCAnLXRuJywgJzgnLCAnLW1hJywgJzIwMCcsICctbWV0YWxfYmluZGluZycsICctaW1hZScsICc8aW5maWxlLm1hZT4nLCAnLW9tYWUnLCAnPG91dGZpbGUubWFlPic=

> <r_epik_Ionization_Penalty>
2.03028

> <r_epik_Ionization_Penalty_Charging>
1.21256

> <r_epik_Ionization_Penalty_Neutral>
0.817715

> <r_epik_State_Penalty>
2.54959

> <r_epik_Charging_Adjusted_Penalty>
3.76215

> <i_epik_Tot_Q>
2

> <i_epik_Tot_abs_Q>
2

> <r_epik_Metal_State_Penalty>
6.52811

> <b_epik_Metal_Only>
0

> <s_lp_Force_Field>
OPLS_2005

> <r_lp_Energy>
34.649

> <b_lp_Chiralities_Consistent>
1

> <s_lp_Variant>
AV-unprocessed.smi:1047-44

> <Gold.Version>
5.8.1

> <Gold.Id.Protein>
6NUR|6NUR_protein|mol2

> <Gold.PLP.Fitness>
58.8445

> <Gold.PLP.PLP>
-51.0922

> <Gold.PLP.part.hbond>
-2.0000

> <Gold.PLP.part.metal>
0.0000

> <Gold.PLP.part.buried>
-6.5245

> <Gold.PLP.part.nonpolar>
-44.0088

> <Gold.PLP.part.repulsive>
0.7787

> <Gold.PLP.ligand.clash>
0.0000

> <Gold.PLP.ligand.torsion>
0.7273

> <Gold.PLP.Chemscore.Hbond>
3.0000

> <Gold.PLP.Chemscore.CHOScore>
0.0000

> <Gold.PLP.Chemscore.Metal>
0.0000

> <Gold.Chemscore.Hbonds>
donor molecule, donor type, donor heavy atom, donor atom, acceptor molecule, acceptor atom, score
      L1  H     9    38       P1  7948  0.94
      L1  H    16    57       P1  8028  0.62

> <Gold.PLP.Chemscore.Internal.Correction>
0.2069

> <Gold.Rescore>
     Score         DG    S(hbond)    S(metal)    S(lipo)     H(rot)  DE(clash)    DE(int)     intcor
     18.80     -19.74       1.84        0.00     128.64       2.71       0.03       0.92       ----

> <Gold.Chemscore.Fitness>
18.7970

> <Gold.Chemscore.DG>
-19.7411

> <Gold.Chemscore.ZeroCoef>
-5.4800

> <Gold.Chemscore.Hbond>
1.8398

> <Gold.Chemscore.Metal>
0.0000

> <Gold.Chemscore.Lipo>
128.6393

> <Gold.Chemscore.Internal_Hbond>
0.0000

> <Gold.Chemscore.DEClash>
0.0276

> <Gold.Chemscore.DEInternal>
0.9165

> <Gold.Chemscore.Rot>
2.7088

> <Gold.Chemscore.Internal.Correction>
   9.000000E+99

> <Gold.Chemscore.Hbonds>
donor molecule, donor type, donor heavy atom, donor atom, acceptor molecule, acceptor atom, score
      L1  H     9    38       P1  7948  0.54
      L1  H    16    57       P1  8028  0.31

> <Gold.Chemscore.Hbond.Weighted>
-6.1450

> <Gold.Chemscore.Metal.Weighted>
-0.0000

> <Gold.Chemscore.Lipo.Weighted>
-15.0508

> <Gold.Chemscore.Internal_Hbond.Weighted>
0.0000

> <Gold.Chemscore.DEClash.Weighted>
0.0276

> <Gold.Chemscore.DEInternal.Weighted>
0.9165

> <Gold.Chemscore.Rot.Weighted>
6.9346

> <Gold.Chemscore.Internal.Correction.Weighted>
   9.000000E+99

> <Gold.Protein.RotatedTorsions>
[ 6907 6896 6895 6894 ] final   69.66 input  -60.11 | X-H torsion
[ 7974 7965 7964 7962 ] final   51.74 input  175.53 | X-H torsion
[ 8008 7997 7996 7995 ] final   18.72 input   59.86 | X-H torsion
[ 10167 10162 10161 10158 ] final -130.88 input  -65.29 | X-H torsion
[ 10718 10713 10712 10709 ] final  173.04 input   66.30 | X-H torsion
[ 10763 10752 10751 10750 ] final   92.20 input  -60.55 | X-H torsion
[ 11005 11000 10999 10996 ] final  -23.92 input  -57.11 | X-H torsion

> <Gold.Protein.ActiveResidues>
 VAL166  LYS551  ARG553  GLY616  TRP617  ASP618  TYR619  PRO620  LYS621  CYS622 
 ASP623  PHE694  ASN695  SER759  ASP760  ASP761  ALA762  ILE779  LEU786  VAL792 
 PHE793  MET794  SER795  GLU796  ALA797  LYS798  CYS799  TRP800  GLU811  SER814 

> <Gold.Protein.RotatedAtoms>
  152.4700  134.4983  159.9716 H   0  0  0  0  0  0  0  0  0  0  0  0  # atno 6907 bound_to 6896
  151.5012  133.3498  159.2877 H   0  0  0  0  0  0  0  0  0  0  0  0  # atno 6908 bound_to 6896
  150.8705  134.8105  159.7212 H   0  0  0  0  0  0  0  0  0  0  0  0  # atno 6909 bound_to 6896
  145.9883  139.4312  143.0089 H   0  0  0  0  0  0  0  0  0  0  0  0  # atno 7974 bound_to 7965
  154.9102  140.3013  155.5270 H   0  0  0  0  0  0  0  0  0  0  0  0  # atno 8008 bound_to 7997
  156.3015  140.2390  156.4075 H   0  0  0  0  0  0  0  0  0  0  0  0  # atno 8009 bound_to 7997
  154.8433  140.0413  157.1545 H   0  0  0  0  0  0  0  0  0  0  0  0  # atno 8010 bound_to 7997
  139.9247  143.6341  152.2545 H   0  0  0  0  0  0  0  0  0  0  0  0  # atno 10167 bound_to 10162
  156.9701  131.0087  151.2907 H   0  0  0  0  0  0  0  0  0  0  0  0  # atno 10718 bound_to 10713
  153.2166  135.4370  155.0441 H   0  0  0  0  0  0  0  0  0  0  0  0  # atno 10763 bound_to 10752
  154.8228  135.3346  154.6989 H   0  0  0  0  0  0  0  0  0  0  0  0  # atno 10764 bound_to 10752
  153.7423  135.7004  153.5020 H   0  0  0  0  0  0  0  0  0  0  0  0  # atno 10765 bound_to 10752
  140.8797  133.7662  156.0287 H   0  0  0  0  0  0  0  0  0  0  0  0  # atno 11005 bound_to 11000
  145.7668  140.9913  143.1170 LP  0  0  0  0  0  0  0  0  0  0  0  0  # atno 17320 bound_to 7965
  144.6881  139.9398  143.7474 LP  0  0  0  0  0  0  0  0  0  0  0  0  # atno 17321 bound_to 7965
  139.6832  144.7654  151.1571 LP  0  0  0  0  0  0  0  0  0  0  0  0  # atno 17342 bound_to 10162
  140.7653  143.5695  150.9011 LP  0  0  0  0  0  0  0  0  0  0  0  0  # atno 17343 bound_to 10162
  157.5598  130.8238  149.8251 LP  0  0  0  0  0  0  0  0  0  0  0  0  # atno 17370 bound_to 10713
  156.0286  130.3771  150.1751 LP  0  0  0  0  0  0  0  0  0  0  0  0  # atno 17371 bound_to 10713
  140.8476  134.2993  157.5289 LP  0  0  0  0  0  0  0  0  0  0  0  0  # atno 17394 bound_to 11000
  139.8718  134.9450  156.3897 LP  0  0  0  0  0  0  0  0  0  0  0  0  # atno 17395 bound_to 11000

$$$$
