AV-unprocessed.smi:1970|AV-procd|sdf|7960|dock7
  -GOLD-   2272010133D 1   1.00000     0.00000
 Structure written by MMmdl.
 33 34  0  0  0  0  0  0  0  0  1 V2000
  149.9293  136.8889  159.7467 O   0  0  0  0  0  0  0  0  0  0  0  0
  148.9951  137.1850  159.0018 C   0  0  0  0  0  0  0  0  0  0  0  0
  147.7585  136.2852  158.9332 C   0  0  0  0  0  0  0  0  0  0  0  0
  147.5798  135.5393  160.1803 N   0  0  0  0  0  0  0  0  0  0  0  0
  147.5838  134.0808  160.1403 C   0  0  0  0  0  0  0  0  0  0  0  0
  146.9147  133.5191  161.7266 S   0  0  0  0  0  0  0  0  0  0  0  0
  147.1942  135.1167  162.5085 C   0  0  0  0  0  0  0  0  0  0  0  0
  147.4022  136.1145  161.3825 C   0  0  0  0  0  0  0  0  0  0  0  0
  147.3951  137.3273  161.5911 O   0  0  0  0  0  0  0  0  0  0  0  0
  148.9854  138.2792  158.2242 N   0  0  0  0  0  0  0  0  0  0  0  0
  150.0787  139.2402  158.0974 C   0  0  0  0  0  0  0  0  0  0  0  0
  149.6185  140.6952  158.3245 C   0  0  0  0  0  0  0  0  0  0  0  0
  150.7541  141.6595  158.6256 C   0  0  0  0  0  0  0  0  0  0  0  0
  150.9663  142.8009  157.8226 C   0  0  0  0  0  0  0  0  0  0  0  0
  152.0594  143.6372  158.1198 C   0  0  0  0  0  0  0  0  0  0  0  0
  152.8895  143.3070  159.2079 C   0  0  0  0  0  0  0  0  0  0  0  0
  152.5862  142.1516  159.9554 C   0  0  0  0  0  0  0  0  0  0  0  0
  151.5416  141.3419  159.6778 N   0  0  0  0  0  0  0  0  0  0  0  0
  146.8832  136.9102  158.7513 H   0  0  0  0  0  0  0  0  0  0  0  0
  147.8253  135.6010  158.0851 H   0  0  0  0  0  0  0  0  0  0  0  0
  146.9794  133.6957  159.3185 H   0  0  0  0  0  0  0  0  0  0  0  0
  148.6051  133.7186  160.0204 H   0  0  0  0  0  0  0  0  0  0  0  0
  146.3432  135.3935  163.1309 H   0  0  0  0  0  0  0  0  0  0  0  0
  148.0867  135.0758  163.1331 H   0  0  0  0  0  0  0  0  0  0  0  0
  148.1694  138.4427  157.6521 H   0  0  0  0  0  0  0  0  0  0  0  0
  150.8339  138.9823  158.8400 H   0  0  0  0  0  0  0  0  0  0  0  0
  150.5652  139.1436  157.1253 H   0  0  0  0  0  0  0  0  0  0  0  0
  149.0729  141.0477  157.4482 H   0  0  0  0  0  0  0  0  0  0  0  0
  148.9090  140.7263  159.1521 H   0  0  0  0  0  0  0  0  0  0  0  0
  150.3179  143.0225  156.9881 H   0  0  0  0  0  0  0  0  0  0  0  0
  152.2598  144.5136  157.5213 H   0  0  0  0  0  0  0  0  0  0  0  0
  153.7379  143.9240  159.4642 H   0  0  0  0  0  0  0  0  0  0  0  0
  153.1997  141.8690  160.7979 H   0  0  0  0  0  0  0  0  0  0  0  0
  1  2  2  0  0  0  0
  2  3  1  0  0  0  0
  2 10  1  0  0  0  0
  3  4  1  0  0  0  0
  3 19  1  0  0  0  0
  3 20  1  0  0  0  0
  4  8  1  0  0  0  0
  4  5  1  0  0  0  0
  5  6  1  0  0  0  0
  5 21  1  0  0  0  0
  5 22  1  0  0  0  0
  6  7  1  0  0  0  0
  7  8  1  0  0  0  0
  7 23  1  0  0  0  0
  7 24  1  0  0  0  0
  8  9  2  0  0  0  0
 10 11  1  0  0  0  0
 10 25  1  0  0  0  0
 11 12  1  0  0  0  0
 11 26  1  0  0  0  0
 11 27  1  0  0  0  0
 12 13  1  0  0  0  0
 12 28  1  0  0  0  0
 12 29  1  0  0  0  0
 13 18  1  0  0  0  0
 13 14  2  0  0  0  0
 14 15  1  0  0  0  0
 14 30  1  0  0  0  0
 15 16  2  0  0  0  0
 15 31  1  0  0  0  0
 16 17  1  0  0  0  0
 16 32  1  0  0  0  0
 17 18  2  0  0  0  0
 17 33  1  0  0  0  0
M  END
> <s_m_source_file>
AV-unprocessed.smi

> <i_m_source_file_index>
1970

> <i_lp_mmshare_version>
43012

> <i_f3d_flags>
0

> <s_epik_input>
Tz1DMVtDSDJdU1tDSDJdTjFbQ0gyXUMoPU8pW05IXVtDSDJdW0NIMl1jMltjSF1bY0hdW2NIXVtjSF1uMg==

> <s_epik_cmdline>
J2VwaWtfcHl0aG9uJywgJy1waCcsICc3LjAnLCAnLXRuJywgJzgnLCAnLW1hJywgJzIwMCcsICctbWV0YWxfYmluZGluZycsICctaW1hZScsICc8aW5maWxlLm1hZT4nLCAnLW9tYWUnLCAnPG91dGZpbGUubWFlPic=

> <r_epik_Ionization_Penalty>
0.0255556

> <r_epik_Ionization_Penalty_Charging>
0

> <r_epik_Ionization_Penalty_Neutral>
0.0255556

> <r_epik_State_Penalty>
0.0208108

> <r_epik_Charging_Adjusted_Penalty>
0.0208108

> <i_epik_Tot_Q>
0

> <i_epik_Tot_abs_Q>
0

> <r_epik_Metal_State_Penalty>
0.0199448

> <b_epik_Metal_Only>
0

> <s_epik_Chemistry_Notes>
This compound contains an acetal/aminal-like group ( X-CH(R)-Y where X, Y are N, S, or O) that may be acid/base labile, releasing an aldehyde.

> <s_lp_Force_Field>
OPLS_2005

> <r_lp_Energy>
5.35786

> <b_lp_Chiralities_Consistent>
1

> <s_lp_Variant>
AV-unprocessed.smi:1970-1

> <Gold.Version>
5.8.1

> <Gold.Id.Protein>
6NUR|6NUR_protein|mol2

> <Gold.PLP.Fitness>
44.7845

> <Gold.PLP.PLP>
-37.3781

> <Gold.PLP.part.hbond>
-3.6157

> <Gold.PLP.part.metal>
0.0000

> <Gold.PLP.part.buried>
-4.8971

> <Gold.PLP.part.nonpolar>
-29.0074

> <Gold.PLP.part.repulsive>
0.1129

> <Gold.PLP.ligand.clash>
0.0000

> <Gold.PLP.ligand.torsion>
0.4807

> <Gold.PLP.Chemscore.Hbond>
2.7833

> <Gold.PLP.Chemscore.CHOScore>
0.0000

> <Gold.PLP.Chemscore.Metal>
0.0000

> <Gold.Chemscore.Hbonds>
donor molecule, donor type, donor heavy atom, donor atom, acceptor molecule, acceptor atom, score
      P1  H  6896  6909       L1     1  0.67
      P1  H  6931  6943       L1     9  0.85
      P1  H  6934  6947       L1     9  0.85

> <Gold.PLP.Chemscore.Internal.Correction>
0.0182

> <Gold.Rescore>
     Score         DG    S(hbond)    S(metal)    S(lipo)     H(rot)  DE(clash)    DE(int)     intcor
     18.84     -19.60       2.76        0.00      83.97       1.92       0.02       0.74       ----

> <Gold.Chemscore.Fitness>
18.8370

> <Gold.Chemscore.DG>
-19.6043

> <Gold.Chemscore.ZeroCoef>
-5.4800

> <Gold.Chemscore.Hbond>
2.7602

> <Gold.Chemscore.Metal>
0.0000

> <Gold.Chemscore.Lipo>
83.9662

> <Gold.Chemscore.Internal_Hbond>
0.0000

> <Gold.Chemscore.DEClash>
0.0226

> <Gold.Chemscore.DEInternal>
0.7447

> <Gold.Chemscore.Rot>
1.9215

> <Gold.Chemscore.Internal.Correction>
   9.000000E+99

> <Gold.Chemscore.Hbonds>
donor molecule, donor type, donor heavy atom, donor atom, acceptor molecule, acceptor atom, score
      P1  H  6896  6909       L1     1  0.67
      P1  H  6931  6943       L1     9  0.82
      P1  H  6934  6947       L1     9  0.83

> <Gold.Chemscore.Hbond.Weighted>
-9.2192

> <Gold.Chemscore.Metal.Weighted>
-0.0000

> <Gold.Chemscore.Lipo.Weighted>
-9.8240

> <Gold.Chemscore.Internal_Hbond.Weighted>
0.0000

> <Gold.Chemscore.DEClash.Weighted>
0.0226

> <Gold.Chemscore.DEInternal.Weighted>
0.7447

> <Gold.Chemscore.Rot.Weighted>
4.9190

> <Gold.Chemscore.Internal.Correction.Weighted>
   9.000000E+99

> <Gold.Protein.RotatedTorsions>
[ 6907 6896 6895 6894 ] final   80.22 input  -60.11 | X-H torsion
[ 7974 7965 7964 7962 ] final -112.97 input  175.53 | X-H torsion
[ 8008 7997 7996 7995 ] final   25.01 input   59.86 | X-H torsion
[ 10167 10162 10161 10158 ] final  -27.61 input  -65.29 | X-H torsion
[ 10718 10713 10712 10709 ] final -141.42 input   66.30 | X-H torsion
[ 10763 10752 10751 10750 ] final -111.81 input  -60.55 | X-H torsion
[ 11005 11000 10999 10996 ] final  164.68 input  -57.11 | X-H torsion

> <Gold.Protein.ActiveResidues>
 VAL166  LYS551  ARG553  GLY616  TRP617  ASP618  TYR619  PRO620  LYS621  CYS622 
 ASP623  PHE694  ASN695  SER759  ASP760  ASP761  ALA762  ILE779  LEU786  VAL792 
 PHE793  MET794  SER795  GLU796  ALA797  LYS798  CYS799  TRP800  GLU811  SER814 

> <Gold.Protein.RotatedAtoms>
  152.5227  134.3391  159.9210 H   0  0  0  0  0  0  0  0  0  0  0  0  # atno 6907 bound_to 6896
  151.3340  133.3982  159.2673 H   0  0  0  0  0  0  0  0  0  0  0  0  # atno 6908 bound_to 6896
  150.9857  134.9221  159.7928 H   0  0  0  0  0  0  0  0  0  0  0  0  # atno 6909 bound_to 6896
  145.1376  140.8760  143.3721 H   0  0  0  0  0  0  0  0  0  0  0  0  # atno 7974 bound_to 7965
  155.0051  140.3130  155.4852 H   0  0  0  0  0  0  0  0  0  0  0  0  # atno 8008 bound_to 7997
  156.2918  140.2225  156.5103 H   0  0  0  0  0  0  0  0  0  0  0  0  # atno 8009 bound_to 7997
  154.7584  140.0461  157.0941 H   0  0  0  0  0  0  0  0  0  0  0  0  # atno 8010 bound_to 7997
  140.7276  143.4079  151.1154 H   0  0  0  0  0  0  0  0  0  0  0  0  # atno 10167 bound_to 10162
  156.3339  130.7601  151.1724 H   0  0  0  0  0  0  0  0  0  0  0  0  # atno 10718 bound_to 10713
  154.8319  135.4513  154.1097 H   0  0  0  0  0  0  0  0  0  0  0  0  # atno 10763 bound_to 10752
  153.2363  135.6911  153.7840 H   0  0  0  0  0  0  0  0  0  0  0  0  # atno 10764 bound_to 10752
  153.7204  135.3342  155.3241 H   0  0  0  0  0  0  0  0  0  0  0  0  # atno 10765 bound_to 10752
  140.2484  134.7996  157.3478 H   0  0  0  0  0  0  0  0  0  0  0  0  # atno 11005 bound_to 11000
  145.0567  139.3138  143.5901 LP  0  0  0  0  0  0  0  0  0  0  0  0  # atno 17320 bound_to 7965
  146.3508  139.9994  142.8677 LP  0  0  0  0  0  0  0  0  0  0  0  0  # atno 17321 bound_to 7965
  139.7708  143.8497  152.3120 LP  0  0  0  0  0  0  0  0  0  0  0  0  # atno 17342 bound_to 10162
  139.8415  144.7208  150.9326 LP  0  0  0  0  0  0  0  0  0  0  0  0  # atno 17343 bound_to 10162
  157.7435  131.0473  150.4940 LP  0  0  0  0  0  0  0  0  0  0  0  0  # atno 17370 bound_to 10713
  156.5110  130.4139  149.6301 LP  0  0  0  0  0  0  0  0  0  0  0  0  # atno 17371 bound_to 10713
  140.1583  134.4762  155.7912 LP  0  0  0  0  0  0  0  0  0  0  0  0  # atno 17394 bound_to 11000
  141.2204  133.6890  156.7499 LP  0  0  0  0  0  0  0  0  0  0  0  0  # atno 17395 bound_to 11000

$$$$
