AV-unprocessed.smi:653|AV-procd|sdf|3211|dock9
  -GOLD-   22720 0153D 1   1.00000     0.00000
 Structure written by MMmdl.
 45 46  0  0  0  0  0  0  0  0  2 V2000
  143.7704  131.9035  150.8315 C   0  0  0  0  0  0  0  0  0  0  0  0
  144.3520  133.2646  151.1503 C   0  0  0  0  0  0  0  0  0  0  0  0
  145.6226  133.4205  151.7448 C   0  0  0  0  0  0  0  0  0  0  0  0
  146.1051  134.7193  152.0080 C   0  0  0  0  0  0  0  0  0  0  0  0
  145.3092  135.8366  151.6706 C   0  0  0  0  0  0  0  0  0  0  0  0
  145.8027  137.2479  151.9353 C   0  0  0  0  0  0  0  0  0  0  0  0
  146.1783  137.4134  153.4081 C   0  0  0  0  0  0  0  0  0  0  0  0
  145.3622  137.8824  154.2006 O   0  0  0  0  0  0  0  0  0  0  0  0
  147.4153  137.0290  153.7588 N   0  0  0  0  0  0  0  0  0  0  0  0
  147.9638  137.1024  155.1085 C   0  0  0  0  0  0  0  0  0  0  0  0
  149.2232  137.9886  155.1699 C   0  0  1  0  0  0  0  0  0  0  0  0
  150.4903  137.3069  154.6899 C   0  0  0  0  0  0  0  0  0  0  0  0
  151.3947  138.5009  154.4109 C   0  0  0  0  0  0  0  0  0  0  0  0
  150.5309  139.5228  153.9256 O   0  0  0  0  0  0  0  0  0  0  0  0
  149.1740  139.2119  154.2409 C   0  0  2  0  0  0  0  0  0  0  0  0
  148.4289  140.4514  154.7879 C   0  0  0  0  0  0  0  0  0  0  0  0
  148.3377  141.5497  153.7170 C   0  0  0  0  0  0  0  0  0  0  0  0
  149.0417  141.0112  156.0851 C   0  0  0  0  0  0  0  0  0  0  0  0
  144.0453  135.6188  151.0801 C   0  0  0  0  0  0  0  0  0  0  0  0
  143.6194  134.3588  150.8434 N   0  3  0  0  0  0  0  0  0  0  0  0
  144.3223  131.1133  151.3412 H   0  0  0  0  0  0  0  0  0  0  0  0
  143.8167  131.7153  149.7585 H   0  0  0  0  0  0  0  0  0  0  0  0
  142.7282  131.8464  151.1473 H   0  0  0  0  0  0  0  0  0  0  0  0
  146.2226  132.5577  151.9955 H   0  0  0  0  0  0  0  0  0  0  0  0
  147.0770  134.8538  152.4603 H   0  0  0  0  0  0  0  0  0  0  0  0
  146.6709  137.4551  151.3079 H   0  0  0  0  0  0  0  0  0  0  0  0
  145.0367  137.9754  151.6628 H   0  0  0  0  0  0  0  0  0  0  0  0
  148.0189  136.6519  153.0426 H   0  0  0  0  0  0  0  0  0  0  0  0
  147.1903  137.5015  155.7652 H   0  0  0  0  0  0  0  0  0  0  0  0
  148.1877  136.0989  155.4738 H   0  0  0  0  0  0  0  0  0  0  0  0
  149.3883  138.3098  156.1980 H   0  0  0  0  0  0  0  0  0  0  0  0
  150.9135  136.6185  155.4220 H   0  0  0  0  0  0  0  0  0  0  0  0
  150.3041  136.7552  153.7672 H   0  0  0  0  0  0  0  0  0  0  0  0
  151.8597  138.8481  155.3344 H   0  0  0  0  0  0  0  0  0  0  0  0
  152.1855  138.2712  153.6967 H   0  0  0  0  0  0  0  0  0  0  0  0
  148.7075  138.9028  153.3040 H   0  0  0  0  0  0  0  0  0  0  0  0
  147.4062  140.1482  155.0145 H   0  0  0  0  0  0  0  0  0  0  0  0
  149.3271  141.9124  153.4361 H   0  0  0  0  0  0  0  0  0  0  0  0
  147.7607  142.4024  154.0758 H   0  0  0  0  0  0  0  0  0  0  0  0
  147.8500  141.1815  152.8141 H   0  0  0  0  0  0  0  0  0  0  0  0
  150.0807  141.3084  155.9389 H   0  0  0  0  0  0  0  0  0  0  0  0
  149.0134  140.2869  156.8980 H   0  0  0  0  0  0  0  0  0  0  0  0
  148.4942  141.8905  156.4253 H   0  0  0  0  0  0  0  0  0  0  0  0
  143.3695  136.4092  150.7863 H   0  0  0  0  0  0  0  0  0  0  0  0
  142.7039  134.2274  150.4124 H   0  0  0  0  0  0  0  0  0  0  0  0
  1  2  1  0  0  0  0
  1 21  1  0  0  0  0
  1 22  1  0  0  0  0
  1 23  1  0  0  0  0
  2 20  1  0  0  0  0
  2  3  2  0  0  0  0
  3  4  1  0  0  0  0
  3 24  1  0  0  0  0
  4  5  2  0  0  0  0
  4 25  1  0  0  0  0
  5  6  1  0  0  0  0
  5 19  1  0  0  0  0
  6  7  1  0  0  0  0
  6 26  1  0  0  0  0
  6 27  1  0  0  0  0
  7  8  2  0  0  0  0
  7  9  1  0  0  0  0
  9 10  1  0  0  0  0
  9 28  1  0  0  0  0
 10 11  1  0  0  0  0
 10 29  1  0  0  0  0
 10 30  1  0  0  0  0
 11 15  1  0  0  0  0
 11 12  1  0  0  0  0
 11 31  1  0  0  0  0
 12 13  1  0  0  0  0
 12 32  1  0  0  0  0
 12 33  1  0  0  0  0
 13 14  1  0  0  0  0
 13 34  1  0  0  0  0
 13 35  1  0  0  0  0
 14 15  1  0  0  0  0
 15 16  1  0  0  0  0
 15 36  1  0  0  0  0
 16 17  1  0  0  0  0
 16 18  1  0  0  0  0
 16 37  1  0  0  0  0
 17 38  1  0  0  0  0
 17 39  1  0  0  0  0
 17 40  1  0  0  0  0
 18 41  1  0  0  0  0
 18 42  1  0  0  0  0
 18 43  1  0  0  0  0
 19 20  2  0  0  0  0
 19 44  1  0  0  0  0
 20 45  1  0  0  0  0
M  CHG  1  20   1
M  END
> <s_m_source_file>
AV-unprocessed.smi

> <i_m_source_file_index>
653

> <i_lp_mmshare_version>
43012

> <i_f3d_flags>
0

> <s_epik_input>
W0NIM11jMVtjSF1bY0hdYyhbY0hdbjEpW0NIMl1DKD1PKVtOSF1bQ0gyXVtDQEBIXTJbQ0gyXVtDSDJdT1tDQEhdMltDSF0oW0NIM10pW0NIM10=

> <s_epik_cmdline>
J2VwaWtfcHl0aG9uJywgJy1waCcsICc3LjAnLCAnLXRuJywgJzgnLCAnLW1hJywgJzIwMCcsICctbWV0YWxfYmluZGluZycsICctaW1hZScsICc8aW5maWxlLm1hZT4nLCAnLW9tYWUnLCAnPG91dGZpbGUubWFlPic=

> <r_epik_Ionization_Penalty>
2.12486

> <r_epik_Ionization_Penalty_Charging>
2.12486

> <r_epik_Ionization_Penalty_Neutral>
9.0873e-08

> <r_epik_State_Penalty>
2.26279

> <r_epik_Charging_Adjusted_Penalty>
4.38765

> <i_epik_Tot_Q>
1

> <i_epik_Tot_abs_Q>
1

> <r_epik_Metal_State_Penalty>
2.27914

> <b_epik_Metal_Only>
0

> <s_lp_Force_Field>
OPLS_2005

> <r_lp_Energy>
26.1393

> <b_lp_Chiralities_Consistent>
1

> <s_lp_Variant>
AV-unprocessed.smi:653-8

> <Gold.Version>
5.8.1

> <Gold.Id.Protein>
6NUR|6NUR_protein|mol2

> <Gold.PLP.Fitness>
44.1507

> <Gold.PLP.PLP>
-33.3169

> <Gold.PLP.part.hbond>
-3.0000

> <Gold.PLP.part.metal>
0.0000

> <Gold.PLP.part.buried>
-3.3240

> <Gold.PLP.part.nonpolar>
-27.1394

> <Gold.PLP.part.repulsive>
0.4984

> <Gold.PLP.ligand.clash>
0.0000

> <Gold.PLP.ligand.torsion>
0.6001

> <Gold.PLP.Chemscore.Hbond>
4.0000

> <Gold.PLP.Chemscore.CHOScore>
0.0000

> <Gold.PLP.Chemscore.Metal>
0.0000

> <Gold.Chemscore.Hbonds>
donor molecule, donor type, donor heavy atom, donor atom, acceptor molecule, acceptor atom, score
      L1  H     9    28       P1  7948  1.00
      L1  H    20    45       P1 10186  2.00
      P1  H  7989  7998       L1    14  1.00

> <Gold.PLP.Chemscore.Internal.Correction>
0.0339

> <Gold.Rescore>
     Score         DG    S(hbond)    S(metal)    S(lipo)     H(rot)  DE(clash)    DE(int)     intcor
     19.26     -20.30       2.69        0.00      84.30       1.57       0.15       0.89       ----

> <Gold.Chemscore.Fitness>
19.2619

> <Gold.Chemscore.DG>
-20.2960

> <Gold.Chemscore.ZeroCoef>
-5.4800

> <Gold.Chemscore.Hbond>
2.6862

> <Gold.Chemscore.Metal>
0.0000

> <Gold.Chemscore.Lipo>
84.3036

> <Gold.Chemscore.Internal_Hbond>
0.0000

> <Gold.Chemscore.DEClash>
0.1485

> <Gold.Chemscore.DEInternal>
0.8856

> <Gold.Chemscore.Rot>
1.5701

> <Gold.Chemscore.Internal.Correction>
   9.000000E+99

> <Gold.Chemscore.Hbonds>
donor molecule, donor type, donor heavy atom, donor atom, acceptor molecule, acceptor atom, score
      L1  H     9    28       P1  7948  0.96
      L1  H    20    45       P1 10186  0.78
      P1  H  7989  7998       L1    14  0.49

> <Gold.Chemscore.Hbond.Weighted>
-8.9720

> <Gold.Chemscore.Metal.Weighted>
-0.0000

> <Gold.Chemscore.Lipo.Weighted>
-9.8635

> <Gold.Chemscore.Internal_Hbond.Weighted>
0.0000

> <Gold.Chemscore.DEClash.Weighted>
0.1485

> <Gold.Chemscore.DEInternal.Weighted>
0.8856

> <Gold.Chemscore.Rot.Weighted>
4.0196

> <Gold.Chemscore.Internal.Correction.Weighted>
   9.000000E+99

> <Gold.Protein.RotatedTorsions>
[ 6907 6896 6895 6894 ] final  -39.12 input  -60.11 | X-H torsion
[ 7974 7965 7964 7962 ] final  149.94 input  175.53 | X-H torsion
[ 8008 7997 7996 7995 ] final  137.09 input   59.86 | X-H torsion
[ 10167 10162 10161 10158 ] final   52.71 input  -65.29 | X-H torsion
[ 10718 10713 10712 10709 ] final  178.35 input   66.30 | X-H torsion
[ 10763 10752 10751 10750 ] final  169.01 input  -60.55 | X-H torsion
[ 11005 11000 10999 10996 ] final  -46.43 input  -57.11 | X-H torsion

> <Gold.Protein.ActiveResidues>
 VAL166  LYS551  ARG553  GLY616  TRP617  ASP618  TYR619  PRO620  LYS621  CYS622 
 ASP623  PHE694  ASN695  SER759  ASP760  ASP761  ALA762  ILE779  LEU786  VAL792 
 PHE793  MET794  SER795  GLU796  ALA797  LYS798  CYS799  TRP800  GLU811  SER814 

> <Gold.Protein.RotatedAtoms>
  150.9941  134.9269  159.7916 H   0  0  0  0  0  0  0  0  0  0  0  0  # atno 6907 bound_to 6896
  152.5259  134.3242  159.9169 H   0  0  0  0  0  0  0  0  0  0  0  0  # atno 6908 bound_to 6896
  151.3248  133.3984  159.2692 H   0  0  0  0  0  0  0  0  0  0  0  0  # atno 6909 bound_to 6896
  144.8400  139.6345  143.6020 H   0  0  0  0  0  0  0  0  0  0  0  0  # atno 7974 bound_to 7965
  156.3003  140.2428  156.3853 H   0  0  0  0  0  0  0  0  0  0  0  0  # atno 8008 bound_to 7997
  154.8663  140.0418  157.1716 H   0  0  0  0  0  0  0  0  0  0  0  0  # atno 8009 bound_to 7997
  154.8842  140.2954  155.5411 H   0  0  0  0  0  0  0  0  0  0  0  0  # atno 8010 bound_to 7997
  140.2485  144.3505  150.6356 H   0  0  0  0  0  0  0  0  0  0  0  0  # atno 10167 bound_to 10162
  156.8918  130.9850  151.3048 H   0  0  0  0  0  0  0  0  0  0  0  0  # atno 10718 bound_to 10713
  154.3769  135.2753  155.2234 H   0  0  0  0  0  0  0  0  0  0  0  0  # atno 10763 bound_to 10752
  154.4357  135.5966  153.6100 H   0  0  0  0  0  0  0  0  0  0  0  0  # atno 10764 bound_to 10752
  152.9836  135.6006  154.4007 H   0  0  0  0  0  0  0  0  0  0  0  0  # atno 10765 bound_to 10752
  141.0578  133.6719  156.3154 H   0  0  0  0  0  0  0  0  0  0  0  0  # atno 11005 bound_to 11000
  146.2694  139.6599  142.9306 LP  0  0  0  0  0  0  0  0  0  0  0  0  # atno 17320 bound_to 7965
  145.4713  141.0436  143.2697 LP  0  0  0  0  0  0  0  0  0  0  0  0  # atno 17321 bound_to 7965
  140.6059  143.2167  151.6982 LP  0  0  0  0  0  0  0  0  0  0  0  0  # atno 17342 bound_to 10162
  139.5054  144.3719  152.0461 LP  0  0  0  0  0  0  0  0  0  0  0  0  # atno 17343 bound_to 10162
  157.6079  130.8561  149.8904 LP  0  0  0  0  0  0  0  0  0  0  0  0  # atno 17370 bound_to 10713
  156.0625  130.3697  150.0951 LP  0  0  0  0  0  0  0  0  0  0  0  0  # atno 17371 bound_to 10713
  140.5928  134.5633  157.5503 LP  0  0  0  0  0  0  0  0  0  0  0  0  # atno 17394 bound_to 11000
  139.9406  134.7794  156.0689 LP  0  0  0  0  0  0  0  0  0  0  0  0  # atno 17395 bound_to 11000

$$$$
