AV-unprocessed.smi:1239|AV-procd|sdf|5192|dock10
  -GOLD-   22720 4273D 1   1.00000     0.00000
 Structure written by MMmdl.
 48 49  0  0  0  0  0  0  0  0  2 V2000
  150.2547  135.8426  156.7055 C   0  0  0  0  0  0  0  0  0  0  0  0
  149.7731  136.4684  155.3727 C   0  0  1  0  0  0  0  0  0  0  0  0
  150.9450  137.2089  154.6745 C   0  0  0  0  0  0  0  0  0  0  0  0
  151.0140  138.6186  155.0434 N   0  0  0  0  0  0  0  0  0  0  0  0
  151.2604  139.0641  156.2822 C   0  0  0  0  0  0  0  0  0  0  0  0
  151.4513  138.3146  157.2390 O   0  0  0  0  0  0  0  0  0  0  0  0
  151.2705  140.4081  156.3189 N   0  0  0  0  0  0  0  0  0  0  0  0
  151.5043  141.2842  157.4153 C   0  0  0  0  0  0  0  0  0  0  0  0
  152.2023  140.9429  158.5975 C   0  0  0  0  0  0  0  0  0  0  0  0
  152.3577  141.9141  159.6052 C   0  0  0  0  0  0  0  0  0  0  0  0
  151.8134  143.2083  159.4156 C   0  0  0  0  0  0  0  0  0  0  0  0
  151.9452  144.2161  160.3982 N   0  0  0  0  0  0  0  0  0  0  0  0
  152.5015  143.8866  161.7066 C   0  0  0  0  0  0  0  0  0  0  0  0
  151.5565  145.5887  160.0979 C   0  0  0  0  0  0  0  0  0  0  0  0
  151.1441  143.5283  158.2815 N   0  0  0  0  0  0  0  0  0  0  0  0
  150.9970  142.5949  157.3190 C   0  0  0  0  0  0  0  0  0  0  0  0
  149.1350  135.4454  154.4764 N   0  3  0  0  0  0  0  0  0  0  0  0
  149.8788  134.1546  154.4215 C   0  0  0  0  0  0  0  0  0  0  0  0
  149.1906  133.1393  153.4940 C   0  0  0  0  0  0  0  0  0  0  0  0
  147.8551  132.9286  153.9215 O   0  0  0  0  0  0  0  0  0  0  0  0
  147.0995  134.1261  153.8440 C   0  0  0  0  0  0  0  0  0  0  0  0
  147.7004  135.1830  154.7858 C   0  0  0  0  0  0  0  0  0  0  0  0
  150.7863  136.5586  157.3314 H   0  0  0  0  0  0  0  0  0  0  0  0
  150.9277  135.0031  156.5277 H   0  0  0  0  0  0  0  0  0  0  0  0
  149.4272  135.4910  157.3201 H   0  0  0  0  0  0  0  0  0  0  0  0
  149.0106  137.2110  155.6137 H   0  0  0  0  0  0  0  0  0  0  0  0
  151.8922  136.7230  154.9153 H   0  0  0  0  0  0  0  0  0  0  0  0
  150.8357  137.1909  153.5910 H   0  0  0  0  0  0  0  0  0  0  0  0
  150.8668  139.2966  154.3098 H   0  0  0  0  0  0  0  0  0  0  0  0
  151.1019  140.8701  155.4373 H   0  0  0  0  0  0  0  0  0  0  0  0
  152.6225  139.9646  158.7641 H   0  0  0  0  0  0  0  0  0  0  0  0
  152.8930  141.6448  160.5029 H   0  0  0  0  0  0  0  0  0  0  0  0
  151.9042  143.1156  162.1946 H   0  0  0  0  0  0  0  0  0  0  0  0
  152.5197  144.7574  162.3625 H   0  0  0  0  0  0  0  0  0  0  0  0
  153.5243  143.5216  161.6070 H   0  0  0  0  0  0  0  0  0  0  0  0
  152.1284  145.9730  159.2527 H   0  0  0  0  0  0  0  0  0  0  0  0
  151.7366  146.2481  160.9473 H   0  0  0  0  0  0  0  0  0  0  0  0
  150.4948  145.6423  159.8552 H   0  0  0  0  0  0  0  0  0  0  0  0
  150.4542  142.9095  156.4393 H   0  0  0  0  0  0  0  0  0  0  0  0
  150.8879  134.2999  154.0402 H   0  0  0  0  0  0  0  0  0  0  0  0
  149.9670  133.7406  155.4270 H   0  0  0  0  0  0  0  0  0  0  0  0
  149.2076  133.4824  152.4581 H   0  0  0  0  0  0  0  0  0  0  0  0
  149.7219  132.1878  153.5214 H   0  0  0  0  0  0  0  0  0  0  0  0
  147.0709  134.4903  152.8157 H   0  0  0  0  0  0  0  0  0  0  0  0
  146.0701  133.9110  154.1316 H   0  0  0  0  0  0  0  0  0  0  0  0
  147.6031  134.8571  155.8226 H   0  0  0  0  0  0  0  0  0  0  0  0
  147.1011  136.0839  154.6699 H   0  0  0  0  0  0  0  0  0  0  0  0
  149.1587  135.8276  153.5415 H   0  0  0  0  0  0  0  0  0  0  0  0
  1  2  1  0  0  0  0
  1 23  1  0  0  0  0
  1 24  1  0  0  0  0
  1 25  1  0  0  0  0
  2  3  1  0  0  0  0
  2 17  1  0  0  0  0
  2 26  1  0  0  0  0
  3  4  1  0  0  0  0
  3 27  1  0  0  0  0
  3 28  1  0  0  0  0
  4  5  1  0  0  0  0
  4 29  1  0  0  0  0
  5  6  2  0  0  0  0
  5  7  1  0  0  0  0
  7  8  1  0  0  0  0
  7 30  1  0  0  0  0
  8 16  1  0  0  0  0
  8  9  2  0  0  0  0
  9 10  1  0  0  0  0
  9 31  1  0  0  0  0
 10 11  2  0  0  0  0
 10 32  1  0  0  0  0
 11 12  1  0  0  0  0
 11 15  1  0  0  0  0
 12 13  1  0  0  0  0
 12 14  1  0  0  0  0
 13 33  1  0  0  0  0
 13 34  1  0  0  0  0
 13 35  1  0  0  0  0
 14 36  1  0  0  0  0
 14 37  1  0  0  0  0
 14 38  1  0  0  0  0
 15 16  2  0  0  0  0
 16 39  1  0  0  0  0
 17 22  1  0  0  0  0
 17 18  1  0  0  0  0
 17 48  1  0  0  0  0
 18 19  1  0  0  0  0
 18 40  1  0  0  0  0
 18 41  1  0  0  0  0
 19 20  1  0  0  0  0
 19 42  1  0  0  0  0
 19 43  1  0  0  0  0
 20 21  1  0  0  0  0
 21 22  1  0  0  0  0
 21 44  1  0  0  0  0
 21 45  1  0  0  0  0
 22 46  1  0  0  0  0
 22 47  1  0  0  0  0
M  CHG  1  17   1
M  END
> <s_m_source_file>
AV-unprocessed.smi

> <i_m_source_file_index>
1239

> <i_lp_mmshare_version>
43012

> <i_f3d_flags>
0

> <s_epik_input>
W0NIMl0xW0NIMl1PW0NIMl1bQ0gyXU4xW0NASF0oW0NIM10pW0NIMl1bTkhdQyg9TylbTkhdYzJbY0hdW2NIXWMoTihbQ0gzXSlbQ0gzXSluW2NIXTI=

> <s_epik_cmdline>
J2VwaWtfcHl0aG9uJywgJy1waCcsICc3LjAnLCAnLXRuJywgJzgnLCAnLW1hJywgJzIwMCcsICctbWV0YWxfYmluZGluZycsICctaW1hZScsICc8aW5maWxlLm1hZT4nLCAnLW9tYWUnLCAnPG91dGZpbGUubWFlPic=

> <r_epik_Ionization_Penalty>
1.1428

> <r_epik_Ionization_Penalty_Charging>
0.602531

> <r_epik_Ionization_Penalty_Neutral>
0.540271

> <r_epik_State_Penalty>
1.1888

> <r_epik_Charging_Adjusted_Penalty>
1.79133

> <i_epik_Tot_Q>
1

> <i_epik_Tot_abs_Q>
1

> <r_epik_Metal_State_Penalty>
0.936295

> <b_epik_Metal_Only>
0

> <s_lp_Force_Field>
OPLS_2005

> <r_lp_Energy>
25.9365

> <b_lp_Chiralities_Consistent>
1

> <s_lp_Variant>
AV-unprocessed.smi:1239-8

> <Gold.Version>
5.8.1

> <Gold.Id.Protein>
6NUR|6NUR_protein|mol2

> <Gold.PLP.Fitness>
47.0164

> <Gold.PLP.PLP>
-40.0702

> <Gold.PLP.part.hbond>
-1.0000

> <Gold.PLP.part.metal>
0.0000

> <Gold.PLP.part.buried>
-6.9800

> <Gold.PLP.part.nonpolar>
-32.5052

> <Gold.PLP.part.repulsive>
0.4357

> <Gold.PLP.ligand.clash>
0.0000

> <Gold.PLP.ligand.torsion>
1.0609

> <Gold.PLP.Chemscore.Hbond>
2.0000

> <Gold.PLP.Chemscore.CHOScore>
0.9980

> <Gold.PLP.Chemscore.Metal>
0.0000

> <Gold.Chemscore.Hbonds>
donor molecule, donor type, donor heavy atom, donor atom, acceptor molecule, acceptor atom, score
      L1  H    17    48       P1  7948  2.00
      L1  C    16    39       P1  8028  1.00

> <Gold.PLP.Chemscore.Internal.Correction>
0.0741

> <Gold.Rescore>
     Score         DG    S(hbond)    S(metal)    S(lipo)     H(rot)  DE(clash)    DE(int)     intcor
     12.14     -15.00       0.96        0.00      86.58       1.48       0.06       2.81       ----

> <Gold.Chemscore.Fitness>
12.1394

> <Gold.Chemscore.DG>
-15.0038

> <Gold.Chemscore.ZeroCoef>
-5.4800

> <Gold.Chemscore.Hbond>
0.9551

> <Gold.Chemscore.Metal>
0.0000

> <Gold.Chemscore.Lipo>
86.5819

> <Gold.Chemscore.Internal_Hbond>
0.0000

> <Gold.Chemscore.DEClash>
0.0551

> <Gold.Chemscore.DEInternal>
2.8094

> <Gold.Chemscore.Rot>
1.4830

> <Gold.Chemscore.Internal.Correction>
   9.000000E+99

> <Gold.Chemscore.Hbonds>
donor molecule, donor type, donor heavy atom, donor atom, acceptor molecule, acceptor atom, score
      L1  H    17    48       P1  7948  0.78

> <Gold.Chemscore.Hbond.Weighted>
-3.1902

> <Gold.Chemscore.Metal.Weighted>
-0.0000

> <Gold.Chemscore.Lipo.Weighted>
-10.1301

> <Gold.Chemscore.Internal_Hbond.Weighted>
0.0000

> <Gold.Chemscore.DEClash.Weighted>
0.0551

> <Gold.Chemscore.DEInternal.Weighted>
2.8094

> <Gold.Chemscore.Rot.Weighted>
3.7964

> <Gold.Chemscore.Internal.Correction.Weighted>
   9.000000E+99

> <Gold.Protein.RotatedTorsions>
[ 6907 6896 6895 6894 ] final   84.30 input  -60.11 | X-H torsion
[ 7974 7965 7964 7962 ] final   78.66 input  175.53 | X-H torsion
[ 8008 7997 7996 7995 ] final  164.09 input   59.86 | X-H torsion
[ 10167 10162 10161 10158 ] final   35.66 input  -65.29 | X-H torsion
[ 10718 10713 10712 10709 ] final -147.83 input   66.30 | X-H torsion
[ 10763 10752 10751 10750 ] final  -21.43 input  -60.55 | X-H torsion
[ 11005 11000 10999 10996 ] final   90.84 input  -57.11 | X-H torsion

> <Gold.Protein.ActiveResidues>
 VAL166  LYS551  ARG553  GLY616  TRP617  ASP618  TYR619  PRO620  LYS621  CYS622 
 ASP623  PHE694  ASN695  SER759  ASP760  ASP761  ALA762  ILE779  LEU786  VAL792 
 PHE793  MET794  SER795  GLU796  ALA797  LYS798  CYS799  TRP800  GLU811  SER814 

> <Gold.Protein.RotatedAtoms>
  152.5349  134.2761  159.8989 H   0  0  0  0  0  0  0  0  0  0  0  0  # atno 6907 bound_to 6896
  151.2717  133.4245  159.2629 H   0  0  0  0  0  0  0  0  0  0  0  0  # atno 6908 bound_to 6896
  151.0362  134.9589  159.8194 H   0  0  0  0  0  0  0  0  0  0  0  0  # atno 6909 bound_to 6896
  145.6742  139.2505  143.1851 H   0  0  0  0  0  0  0  0  0  0  0  0  # atno 7974 bound_to 7965
  156.1907  140.1706  156.8097 H   0  0  0  0  0  0  0  0  0  0  0  0  # atno 8008 bound_to 7997
  154.5468  140.0725  156.8634 H   0  0  0  0  0  0  0  0  0  0  0  0  # atno 8009 bound_to 7997
  155.3106  140.3367  155.4246 H   0  0  0  0  0  0  0  0  0  0  0  0  # atno 8010 bound_to 7997
  140.4201  144.1472  150.6147 H   0  0  0  0  0  0  0  0  0  0  0  0  # atno 10167 bound_to 10162
  156.4125  130.7989  151.2207 H   0  0  0  0  0  0  0  0  0  0  0  0  # atno 10718 bound_to 10713
  153.6361  135.6987  153.5258 H   0  0  0  0  0  0  0  0  0  0  0  0  # atno 10763 bound_to 10752
  153.2820  135.4183  155.1087 H   0  0  0  0  0  0  0  0  0  0  0  0  # atno 10764 bound_to 10752
  154.8511  135.3604  154.5904 H   0  0  0  0  0  0  0  0  0  0  0  0  # atno 10765 bound_to 10752
  139.8849  134.8638  156.3342 H   0  0  0  0  0  0  0  0  0  0  0  0  # atno 11005 bound_to 11000
  146.1019  140.7533  142.9545 LP  0  0  0  0  0  0  0  0  0  0  0  0  # atno 17320 bound_to 7965
  144.7047  140.3801  143.7128 LP  0  0  0  0  0  0  0  0  0  0  0  0  # atno 17321 bound_to 7965
  140.4543  143.2474  151.9306 LP  0  0  0  0  0  0  0  0  0  0  0  0  # atno 17342 bound_to 10162
  139.4782  144.5531  151.8355 LP  0  0  0  0  0  0  0  0  0  0  0  0  # atno 17343 bound_to 10162
  157.7507  131.0253  150.3913 LP  0  0  0  0  0  0  0  0  0  0  0  0  # atno 17370 bound_to 10713
  156.4214  130.3954  149.6822 LP  0  0  0  0  0  0  0  0  0  0  0  0  # atno 17371 bound_to 10713
  140.9703  133.7332  156.0524 LP  0  0  0  0  0  0  0  0  0  0  0  0  # atno 17394 bound_to 11000
  140.7880  134.3650  157.5471 LP  0  0  0  0  0  0  0  0  0  0  0  0  # atno 17395 bound_to 11000

$$$$
