AV-unprocessed.smi:2888|AV-procd|sdf|11105|dock4
  -GOLD-   2272015573D 1   1.00000     0.00000
 Structure written by MMmdl.
 34 36  0  0  0  0  0  0  0  0  2 V2000
  153.2037  140.5072  159.2237 C   0  0  0  0  0  0  0  0  0  0  0  0
  152.4020  141.6577  158.6529 C   0  0  0  0  0  0  0  0  0  0  0  0
  152.6630  142.9909  159.0130 C   0  0  0  0  0  0  0  0  0  0  0  0
  151.8517  143.9767  158.4184 C   0  0  0  0  0  0  0  0  0  0  0  0
  152.0279  145.4505  158.7158 C   0  0  0  0  0  0  0  0  0  0  0  0
  150.8772  143.6196  157.5446 N   0  3  0  0  0  0  0  0  0  0  0  0
  150.6857  142.3257  157.2448 C   0  0  0  0  0  0  0  0  0  0  0  0
  149.6814  142.0216  156.3438 N   0  0  0  0  0  0  0  0  0  0  0  0
  149.3494  140.6677  155.9162 C   0  0  1  0  0  0  0  0  0  0  0  0
  148.0267  140.1581  156.4939 C   0  0  0  0  0  0  0  0  0  0  0  0
  147.2771  139.7231  155.2264 C   0  0  1  0  0  0  0  0  0  0  0  0
  146.7585  140.9319  154.4366 C   0  0  0  0  0  0  0  0  0  0  0  0
  148.0499  141.4928  153.8442 C   0  0  0  0  0  0  0  0  0  0  0  0
  149.1048  140.5212  154.4014 C   0  0  2  0  0  0  0  0  0  0  0  0
  148.3555  139.3179  154.3993 O   0  0  0  0  0  0  0  0  0  0  0  0
  151.4248  141.3426  157.7794 N   0  0  0  0  0  0  0  0  0  0  0  0
  153.9038  140.8541  159.9839 H   0  0  0  0  0  0  0  0  0  0  0  0
  153.7730  140.0138  158.4356 H   0  0  0  0  0  0  0  0  0  0  0  0
  152.5419  139.7717  159.6817 H   0  0  0  0  0  0  0  0  0  0  0  0
  153.4467  143.2472  159.7114 H   0  0  0  0  0  0  0  0  0  0  0  0
  152.7393  145.6049  159.5276 H   0  0  0  0  0  0  0  0  0  0  0  0
  151.0772  145.8976  159.0078 H   0  0  0  0  0  0  0  0  0  0  0  0
  152.3983  145.9726  157.8332 H   0  0  0  0  0  0  0  0  0  0  0  0
  149.2680  142.7897  155.8357 H   0  0  0  0  0  0  0  0  0  0  0  0
  150.1489  139.9914  156.2221 H   0  0  0  0  0  0  0  0  0  0  0  0
  148.2058  139.3072  157.1521 H   0  0  0  0  0  0  0  0  0  0  0  0
  147.4724  140.9097  157.0578 H   0  0  0  0  0  0  0  0  0  0  0  0
  146.5255  138.9520  155.3979 H   0  0  0  0  0  0  0  0  0  0  0  0
  146.0796  140.6163  153.6434 H   0  0  0  0  0  0  0  0  0  0  0  0
  146.2349  141.6491  155.0698 H   0  0  0  0  0  0  0  0  0  0  0  0
  148.0197  141.4390  152.7552 H   0  0  0  0  0  0  0  0  0  0  0  0
  148.2319  142.5311  154.1222 H   0  0  0  0  0  0  0  0  0  0  0  0
  150.0181  140.4757  153.8074 H   0  0  0  0  0  0  0  0  0  0  0  0
  150.2983  144.3440  157.1195 H   0  0  0  0  0  0  0  0  0  0  0  0
  1  2  1  0  0  0  0
  1 17  1  0  0  0  0
  1 18  1  0  0  0  0
  1 19  1  0  0  0  0
  2 16  1  0  0  0  0
  2  3  2  0  0  0  0
  3  4  1  0  0  0  0
  3 20  1  0  0  0  0
  4  5  1  0  0  0  0
  4  6  2  0  0  0  0
  5 21  1  0  0  0  0
  5 22  1  0  0  0  0
  5 23  1  0  0  0  0
  6  7  1  0  0  0  0
  6 34  1  0  0  0  0
  7  8  1  0  0  0  0
  7 16  2  0  0  0  0
  8  9  1  0  0  0  0
  8 24  1  0  0  0  0
  9 14  1  0  0  0  0
  9 10  1  0  0  0  0
  9 25  1  0  0  0  0
 10 11  1  0  0  0  0
 10 26  1  0  0  0  0
 10 27  1  0  0  0  0
 11 15  1  0  0  0  0
 11 12  1  0  0  0  0
 11 28  1  0  0  0  0
 12 13  1  0  0  0  0
 12 29  1  0  0  0  0
 12 30  1  0  0  0  0
 13 14  1  0  0  0  0
 13 31  1  0  0  0  0
 13 32  1  0  0  0  0
 14 15  1  0  0  0  0
 14 33  1  0  0  0  0
M  CHG  1   6   1
M  END
> <s_m_source_file>
AV-unprocessed.smi

> <i_m_source_file_index>
2888

> <i_lp_mmshare_version>
43012

> <i_f3d_flags>
0

> <s_epik_input>
W0NIM11jMVtjSF1jKFtDSDNdKW5jKG4xKVtOSF1bQ0BIXShbQ0gyXVtDQEBIXTIzKVtDQEBIXShPMylbQ0gyXVtDSDJdMg==

> <s_epik_cmdline>
J2VwaWtfcHl0aG9uJywgJy1waCcsICc3LjAnLCAnLXRuJywgJzgnLCAnLW1hJywgJzIwMCcsICctbWV0YWxfYmluZGluZycsICctaW1hZScsICc8aW5maWxlLm1hZT4nLCAnLW9tYWUnLCAnPG91dGZpbGUubWFlPic=

> <r_lp_tautomer_probability>
0.505494

> <r_epik_Ionization_Penalty>
2.49163

> <r_epik_Ionization_Penalty_Charging>
2.49163

> <r_epik_Ionization_Penalty_Neutral>
3.7631e-06

> <r_epik_State_Penalty>
2.656

> <r_epik_Charging_Adjusted_Penalty>
5.14762

> <i_epik_Tot_Q>
1

> <i_epik_Tot_abs_Q>
1

> <r_epik_Metal_State_Penalty>
2.66479

> <b_epik_Metal_Only>
0

> <s_lp_Force_Field>
OPLS_2005

> <r_lp_Energy>
36.4531

> <b_lp_Chiralities_Consistent>
1

> <s_lp_Variant>
AV-unprocessed.smi:2888-6

> <Gold.Version>
5.8.1

> <Gold.Id.Protein>
6NUR|6NUR_protein|mol2

> <Gold.PLP.Fitness>
40.8054

> <Gold.PLP.PLP>
-29.6225

> <Gold.PLP.part.hbond>
-2.0000

> <Gold.PLP.part.metal>
0.0000

> <Gold.PLP.part.buried>
-3.6006

> <Gold.PLP.part.nonpolar>
-24.0077

> <Gold.PLP.part.repulsive>
0.2132

> <Gold.PLP.ligand.clash>
0.0000

> <Gold.PLP.ligand.torsion>
0.1725

> <Gold.PLP.Chemscore.Hbond>
3.8398

> <Gold.PLP.Chemscore.CHOScore>
0.0000

> <Gold.PLP.Chemscore.Metal>
0.0000

> <Gold.Chemscore.Hbonds>
donor molecule, donor type, donor heavy atom, donor atom, acceptor molecule, acceptor atom, score
      L1  H     6    34       P1  8028  1.81
      L1  H     8    24       P1  8028  2.00

> <Gold.PLP.Chemscore.Internal.Correction>
0.0088

> <Gold.Rescore>
     Score         DG    S(hbond)    S(metal)    S(lipo)     H(rot)  DE(clash)    DE(int)     intcor
     18.23     -18.39       1.63        0.00      85.71       1.00       0.04       0.13       ----

> <Gold.Chemscore.Fitness>
18.2335

> <Gold.Chemscore.DG>
-18.3944

> <Gold.Chemscore.ZeroCoef>
-5.4800

> <Gold.Chemscore.Hbond>
1.6308

> <Gold.Chemscore.Metal>
0.0000

> <Gold.Chemscore.Lipo>
85.7068

> <Gold.Chemscore.Internal_Hbond>
0.0000

> <Gold.Chemscore.DEClash>
0.0351

> <Gold.Chemscore.DEInternal>
0.1258

> <Gold.Chemscore.Rot>
1.0000

> <Gold.Chemscore.Internal.Correction>
   9.000000E+99

> <Gold.Chemscore.Hbonds>
donor molecule, donor type, donor heavy atom, donor atom, acceptor molecule, acceptor atom, score
      L1  H     6    34       P1  8028  0.68
      L1  H     8    24       P1  8028  0.93

> <Gold.Chemscore.Hbond.Weighted>
-5.4467

> <Gold.Chemscore.Metal.Weighted>
-0.0000

> <Gold.Chemscore.Lipo.Weighted>
-10.0277

> <Gold.Chemscore.Internal_Hbond.Weighted>
0.0000

> <Gold.Chemscore.DEClash.Weighted>
0.0351

> <Gold.Chemscore.DEInternal.Weighted>
0.1258

> <Gold.Chemscore.Rot.Weighted>
2.5600

> <Gold.Chemscore.Internal.Correction.Weighted>
   9.000000E+99

> <Gold.Protein.RotatedTorsions>
[ 6907 6896 6895 6894 ] final -101.34 input  -60.11 | X-H torsion
[ 7974 7965 7964 7962 ] final   77.98 input  175.53 | X-H torsion
[ 8008 7997 7996 7995 ] final   22.95 input   59.86 | X-H torsion
[ 10167 10162 10161 10158 ] final   42.91 input  -65.29 | X-H torsion
[ 10718 10713 10712 10709 ] final -129.51 input   66.30 | X-H torsion
[ 10763 10752 10751 10750 ] final   44.45 input  -60.55 | X-H torsion
[ 11005 11000 10999 10996 ] final -163.41 input  -57.11 | X-H torsion

> <Gold.Protein.ActiveResidues>
 VAL166  LYS551  ARG553  GLY616  TRP617  ASP618  TYR619  PRO620  LYS621  CYS622 
 ASP623  PHE694  ASN695  SER759  ASP760  ASP761  ALA762  ILE779  LEU786  VAL792 
 PHE793  MET794  SER795  GLU796  ALA797  LYS798  CYS799  TRP800  GLU811  SER814 

> <Gold.Protein.RotatedAtoms>
  150.7151  134.0749  159.3877 H   0  0  0  0  0  0  0  0  0  0  0  0  # atno 6907 bound_to 6896
  151.8732  135.0479  160.0490 H   0  0  0  0  0  0  0  0  0  0  0  0  # atno 6908 bound_to 6896
  152.2627  133.5276  159.5428 H   0  0  0  0  0  0  0  0  0  0  0  0  # atno 6909 bound_to 6896
  145.6831  139.2529  143.1803 H   0  0  0  0  0  0  0  0  0  0  0  0  # atno 7974 bound_to 7965
  154.9735  140.3093  155.4977 H   0  0  0  0  0  0  0  0  0  0  0  0  # atno 8008 bound_to 7997
  156.2963  140.2279  156.4769 H   0  0  0  0  0  0  0  0  0  0  0  0  # atno 8009 bound_to 7997
  154.7854  140.0443  157.1148 H   0  0  0  0  0  0  0  0  0  0  0  0  # atno 8010 bound_to 7997
  140.3496  144.2366  150.6147 H   0  0  0  0  0  0  0  0  0  0  0  0  # atno 10167 bound_to 10162
  156.2054  130.6884  151.0588 H   0  0  0  0  0  0  0  0  0  0  0  0  # atno 10718 bound_to 10713
  152.9841  135.6070  154.3275 H   0  0  0  0  0  0  0  0  0  0  0  0  # atno 10763 bound_to 10752
  154.2981  135.2773  155.2626 H   0  0  0  0  0  0  0  0  0  0  0  0  # atno 10764 bound_to 10752
  154.4890  135.5897  153.6502 H   0  0  0  0  0  0  0  0  0  0  0  0  # atno 10765 bound_to 10752
  140.5984  134.4972  157.5202 H   0  0  0  0  0  0  0  0  0  0  0  0  # atno 11005 bound_to 11000
  146.0947  140.7615  142.9578 LP  0  0  0  0  0  0  0  0  0  0  0  0  # atno 17320 bound_to 7965
  144.7020  140.3692  143.7148 LP  0  0  0  0  0  0  0  0  0  0  0  0  # atno 17321 bound_to 7965
  140.5231  143.2261  151.8357 LP  0  0  0  0  0  0  0  0  0  0  0  0  # atno 17342 bound_to 10162
  139.4828  144.4812  151.9304 LP  0  0  0  0  0  0  0  0  0  0  0  0  # atno 17343 bound_to 10162
  157.7009  131.0776  150.6822 LP  0  0  0  0  0  0  0  0  0  0  0  0  # atno 17370 bound_to 10713
  156.6881  130.4587  149.5608 LP  0  0  0  0  0  0  0  0  0  0  0  0  # atno 17371 bound_to 10713
  139.9243  134.8087  156.1116 LP  0  0  0  0  0  0  0  0  0  0  0  0  # atno 17394 bound_to 11000
  141.0888  133.6723  156.2496 LP  0  0  0  0  0  0  0  0  0  0  0  0  # atno 17395 bound_to 11000

$$$$
