AV-unprocessed.smi:254|AV-procd|sdf|1946|dock9
  -GOLD-   2262021 83D 1   1.00000     0.00000
 Structure written by MMmdl.
 50 53  0  0  0  0  0  0  0  0  1 V2000
  148.2877  137.2328  160.5659 O   0  0  0  0  0  0  0  0  0  0  0  0
  147.9967  136.3847  159.7239 C   0  0  0  0  0  0  0  0  0  0  0  0
  148.7447  136.2281  158.4125 C   0  0  0  0  0  0  0  0  0  0  0  0
  148.0316  135.1104  157.8062 N   0  0  0  0  0  0  0  0  0  0  0  0
  148.3842  134.5632  156.6143 C   0  0  0  0  0  0  0  0  0  0  0  0
  149.6865  134.6423  156.2338 N   0  0  0  0  0  0  0  0  0  0  0  0
  150.0880  134.1232  155.0707 C   0  0  0  0  0  0  0  0  0  0  0  0
  149.3646  133.4882  154.1484 N   0  0  0  0  0  0  0  0  0  0  0  0
  148.0559  133.3994  154.5200 C   0  0  0  0  0  0  0  0  0  0  0  0
  147.4832  133.9081  155.7220 C   0  0  0  0  0  0  0  0  0  0  0  0
  146.1200  133.6341  155.7360 N   0  0  0  0  0  0  0  0  0  0  0  0
  145.9021  133.0048  154.6146 C   0  0  0  0  0  0  0  0  0  0  0  0
  147.0136  132.8048  153.8283 N   0  0  0  0  0  0  0  0  0  0  0  0
  147.0637  132.1361  152.5354 C   0  0  0  0  0  0  0  0  0  0  0  0
  146.4619  132.9588  151.3630 C   0  0  1  0  0  0  0  0  0  0  0  0
  145.6655  132.0754  150.3739 C   0  0  0  0  0  0  0  0  0  0  0  0
  146.4583  131.7182  149.2615 O   0  0  0  0  0  0  0  0  0  0  0  0
  145.6110  134.1583  151.8580 C   0  0  2  0  0  0  0  0  0  0  0  0
  144.1846  133.8154  152.2545 C   0  0  0  0  0  0  0  0  0  0  0  0
  143.4963  135.1760  152.2179 C   0  0  0  0  0  0  0  0  0  0  0  0
  144.1784  135.9291  151.2219 O   0  0  0  0  0  0  0  0  0  0  0  0
  145.3389  135.2261  150.7924 C   0  0  0  0  0  0  0  0  0  0  0  0
  146.9632  134.6028  158.6555 C   0  0  0  0  0  0  0  0  0  0  0  0
  147.0142  135.4811  159.8126 N   0  0  0  0  0  0  0  0  0  0  0  0
  146.0879  135.3031  160.9286 C   0  0  0  0  0  0  0  0  0  0  0  0
  146.7321  134.5627  162.1140 C   0  0  0  0  0  0  0  0  0  0  0  0
  147.6031  133.6701  161.6453 F   0  0  0  0  0  0  0  0  0  0  0  0
  147.3822  135.4067  162.9149 F   0  0  0  0  0  0  0  0  0  0  0  0
  145.8017  133.9185  162.8185 F   0  0  0  0  0  0  0  0  0  0  0  0
  148.6651  137.1322  157.8080 H   0  0  0  0  0  0  0  0  0  0  0  0
  149.7943  135.9906  158.5905 H   0  0  0  0  0  0  0  0  0  0  0  0
  151.1393  134.2318  154.8482 H   0  0  0  0  0  0  0  0  0  0  0  0
  144.9165  132.6651  154.3340 H   0  0  0  0  0  0  0  0  0  0  0  0
  148.1012  131.8743  152.3279 H   0  0  0  0  0  0  0  0  0  0  0  0
  146.5421  131.1829  152.6262 H   0  0  0  0  0  0  0  0  0  0  0  0
  147.3044  133.3762  150.8091 H   0  0  0  0  0  0  0  0  0  0  0  0
  145.2861  131.1752  150.8576 H   0  0  0  0  0  0  0  0  0  0  0  0
  144.8006  132.6101  149.9835 H   0  0  0  0  0  0  0  0  0  0  0  0
  147.1359  131.1270  149.5541 H   0  0  0  0  0  0  0  0  0  0  0  0
  146.0937  134.6281  152.7158 H   0  0  0  0  0  0  0  0  0  0  0  0
  143.7333  133.1491  151.5176 H   0  0  0  0  0  0  0  0  0  0  0  0
  144.1085  133.3431  153.2342 H   0  0  0  0  0  0  0  0  0  0  0  0
  142.4310  135.0972  151.9999 H   0  0  0  0  0  0  0  0  0  0  0  0
  143.6098  135.6861  153.1751 H   0  0  0  0  0  0  0  0  0  0  0  0
  146.1755  135.9095  150.6514 H   0  0  0  0  0  0  0  0  0  0  0  0
  145.1198  134.7626  149.8293 H   0  0  0  0  0  0  0  0  0  0  0  0
  145.9941  134.6765  158.1600 H   0  0  0  0  0  0  0  0  0  0  0  0
  147.1483  133.5685  158.9494 H   0  0  0  0  0  0  0  0  0  0  0  0
  145.7367  136.2826  161.2559 H   0  0  0  0  0  0  0  0  0  0  0  0
  145.2039  134.7630  160.5859 H   0  0  0  0  0  0  0  0  0  0  0  0
  1  2  2  0  0  0  0
  2 24  1  0  0  0  0
  2  3  1  0  0  0  0
  3  4  1  0  0  0  0
  3 30  1  0  0  0  0
  3 31  1  0  0  0  0
  4  5  1  0  0  0  0
  4 23  1  0  0  0  0
  5 10  1  0  0  0  0
  5  6  2  0  0  0  0
  6  7  1  0  0  0  0
  7  8  2  0  0  0  0
  7 32  1  0  0  0  0
  8  9  1  0  0  0  0
  9 13  1  0  0  0  0
  9 10  2  0  0  0  0
 10 11  1  0  0  0  0
 11 12  2  0  0  0  0
 12 13  1  0  0  0  0
 12 33  1  0  0  0  0
 13 14  1  0  0  0  0
 14 15  1  0  0  0  0
 14 34  1  0  0  0  0
 14 35  1  0  0  0  0
 15 16  1  0  0  0  0
 15 18  1  0  0  0  0
 15 36  1  0  0  0  0
 16 17  1  0  0  0  0
 16 37  1  0  0  0  0
 16 38  1  0  0  0  0
 17 39  1  0  0  0  0
 18 22  1  0  0  0  0
 18 19  1  0  0  0  0
 18 40  1  0  0  0  0
 19 20  1  0  0  0  0
 19 41  1  0  0  0  0
 19 42  1  0  0  0  0
 20 21  1  0  0  0  0
 20 43  1  0  0  0  0
 20 44  1  0  0  0  0
 21 22  1  0  0  0  0
 22 45  1  0  0  0  0
 22 46  1  0  0  0  0
 23 24  1  0  0  0  0
 23 47  1  0  0  0  0
 23 48  1  0  0  0  0
 24 25  1  0  0  0  0
 25 26  1  0  0  0  0
 25 49  1  0  0  0  0
 25 50  1  0  0  0  0
 26 27  1  0  0  0  0
 26 28  1  0  0  0  0
 26 29  1  0  0  0  0
M  END
> <s_m_source_file>
AV-unprocessed.smi

> <i_m_source_file_index>
254

> <i_lp_mmshare_version>
43012

> <i_f3d_flags>
0

> <s_epik_input>
RkMoRikoRilbQ0gyXU4xW0NIMl1OKFtDSDJdQzE9TyljKG5bY0hdbjIpYyhjMjMpbltjSF1uM1tDSDJdW0NASF0oW0NIMl1bT0hdKVtDQEBIXTRbQ0gyXVtDSDJdT1tDSDJdNA==

> <s_epik_cmdline>
J2VwaWtfcHl0aG9uJywgJy1waCcsICc3LjAnLCAnLXRuJywgJzgnLCAnLW1hJywgJzIwMCcsICctbWV0YWxfYmluZGluZycsICctaW1hZScsICc8aW5maWxlLm1hZT4nLCAnLW9tYWUnLCAnPG91dGZpbGUubWFlPic=

> <r_lp_tautomer_probability>
1

> <r_epik_Ionization_Penalty>
0.000292924

> <r_epik_Ionization_Penalty_Charging>
0

> <r_epik_Ionization_Penalty_Neutral>
0.000292924

> <r_epik_State_Penalty>
-0

> <r_epik_Charging_Adjusted_Penalty>
0

> <i_epik_Tot_Q>
0

> <i_epik_Tot_abs_Q>
0

> <r_epik_Metal_State_Penalty>
-0

> <b_epik_Metal_Only>
0

> <s_epik_Chemistry_Notes>
This compound contains an acetal/aminal-like group ( X-CH(R)-Y where X, Y are N, S, or O) that may be acid/base labile, releasing an aldehyde.

> <s_lp_Force_Field>
OPLS_2005

> <r_lp_Energy>
38.5559

> <b_lp_Chiralities_Consistent>
1

> <s_lp_Variant>
AV-unprocessed.smi:254-2

> <Gold.Version>
5.8.1

> <Gold.Id.Protein>
6NUR|6NUR_protein|mol2

> <Gold.PLP.Fitness>
47.7620

> <Gold.PLP.PLP>
-42.8956

> <Gold.PLP.part.hbond>
-3.0000

> <Gold.PLP.part.metal>
0.0000

> <Gold.PLP.part.buried>
-5.5090

> <Gold.PLP.part.nonpolar>
-35.6006

> <Gold.PLP.part.repulsive>
1.3146

> <Gold.PLP.ligand.clash>
0.0000

> <Gold.PLP.ligand.torsion>
2.6751

> <Gold.PLP.Chemscore.Hbond>
2.2681

> <Gold.PLP.Chemscore.CHOScore>
1.0000

> <Gold.PLP.Chemscore.Metal>
0.0000

> <Gold.Chemscore.Hbonds>
donor molecule, donor type, donor heavy atom, donor atom, acceptor molecule, acceptor atom, score
      L1  H    17    39       P1 10747  0.99
      P1  H  6931  6943       L1     1  0.75
      P1  H  6934  6947       L1     1  0.46
      L1  C    12    33       P1 10957  1.00

> <Gold.PLP.Chemscore.Internal.Correction>
0.4122

> <Gold.Rescore>
     Score         DG    S(hbond)    S(metal)    S(lipo)     H(rot)  DE(clash)    DE(int)     intcor
      8.98     -12.94       2.67        0.00      59.70       3.30       0.06       3.90       ----

> <Gold.Chemscore.Fitness>
8.9840

> <Gold.Chemscore.DG>
-12.9435

> <Gold.Chemscore.ZeroCoef>
-5.4800

> <Gold.Chemscore.Hbond>
2.6707

> <Gold.Chemscore.Metal>
0.0000

> <Gold.Chemscore.Lipo>
59.6980

> <Gold.Chemscore.Internal_Hbond>
0.0000

> <Gold.Chemscore.DEClash>
0.0566

> <Gold.Chemscore.DEInternal>
3.9030

> <Gold.Chemscore.Rot>
3.2974

> <Gold.Chemscore.Internal.Correction>
   9.000000E+99

> <Gold.Chemscore.Hbonds>
donor molecule, donor type, donor heavy atom, donor atom, acceptor molecule, acceptor atom, score
      L1  H    17    39       P1 10747  0.92
      P1  H  6931  6943       L1     1  0.76
      P1  H  6934  6947       L1     1  0.47

> <Gold.Chemscore.Hbond.Weighted>
-8.9203

> <Gold.Chemscore.Metal.Weighted>
-0.0000

> <Gold.Chemscore.Lipo.Weighted>
-6.9847

> <Gold.Chemscore.Internal_Hbond.Weighted>
0.0000

> <Gold.Chemscore.DEClash.Weighted>
0.0566

> <Gold.Chemscore.DEInternal.Weighted>
3.9030

> <Gold.Chemscore.Rot.Weighted>
8.4414

> <Gold.Chemscore.Internal.Correction.Weighted>
   9.000000E+99

> <Gold.Protein.RotatedTorsions>
[ 6907 6896 6895 6894 ] final  -98.91 input  -60.11 | X-H torsion
[ 7974 7965 7964 7962 ] final  124.25 input  175.53 | X-H torsion
[ 8008 7997 7996 7995 ] final  171.74 input   59.86 | X-H torsion
[ 10167 10162 10161 10158 ] final   -0.31 input  -65.29 | X-H torsion
[ 10718 10713 10712 10709 ] final   69.49 input   66.30 | X-H torsion
[ 10763 10752 10751 10750 ] final -158.29 input  -60.55 | X-H torsion
[ 11005 11000 10999 10996 ] final -101.60 input  -57.11 | X-H torsion

> <Gold.Protein.ActiveResidues>
 VAL166  LYS551  ARG553  GLY616  TRP617  ASP618  TYR619  PRO620  LYS621  CYS622 
 ASP623  PHE694  ASN695  SER759  ASP760  ASP761  ALA762  ILE779  LEU786  VAL792 
 PHE793  MET794  SER795  GLU796  ALA797  LYS798  CYS799  TRP800  GLU811  SER814 

> <Gold.Protein.RotatedAtoms>
  150.7062  134.1122  159.4004 H   0  0  0  0  0  0  0  0  0  0  0  0  # atno 6907 bound_to 6896
  151.9109  135.0337  160.0523 H   0  0  0  0  0  0  0  0  0  0  0  0  # atno 6908 bound_to 6896
  152.2336  133.5043  159.5267 H   0  0  0  0  0  0  0  0  0  0  0  0  # atno 6909 bound_to 6896
  145.0865  139.3618  143.4882 H   0  0  0  0  0  0  0  0  0  0  0  0  # atno 7974 bound_to 7965
  156.1242  140.1504  156.9161 H   0  0  0  0  0  0  0  0  0  0  0  0  # atno 8008 bound_to 7997
  154.4858  140.0865  156.7525 H   0  0  0  0  0  0  0  0  0  0  0  0  # atno 8009 bound_to 7997
  155.4374  140.3429  155.4288 H   0  0  0  0  0  0  0  0  0  0  0  0  # atno 8010 bound_to 7997
  140.6761  143.6910  150.8028 H   0  0  0  0  0  0  0  0  0  0  0  0  # atno 10167 bound_to 10162
  157.6348  130.9428  150.0520 H   0  0  0  0  0  0  0  0  0  0  0  0  # atno 10718 bound_to 10713
  154.7568  135.3107  154.8454 H   0  0  0  0  0  0  0  0  0  0  0  0  # atno 10763 bound_to 10752
  153.9226  135.6794  153.4751 H   0  0  0  0  0  0  0  0  0  0  0  0  # atno 10764 bound_to 10752
  153.1166  135.4841  154.9056 H   0  0  0  0  0  0  0  0  0  0  0  0  # atno 10765 bound_to 10752
  141.1224  133.8491  157.1253 H   0  0  0  0  0  0  0  0  0  0  0  0  # atno 11005 bound_to 11000
  146.3531  140.0680  142.8625 LP  0  0  0  0  0  0  0  0  0  0  0  0  # atno 17320 bound_to 7965
  145.1116  140.9408  143.4653 LP  0  0  0  0  0  0  0  0  0  0  0  0  # atno 17321 bound_to 7965
  140.0603  143.5161  152.2631 LP  0  0  0  0  0  0  0  0  0  0  0  0  # atno 17342 bound_to 10162
  139.6055  144.7595  151.3072 LP  0  0  0  0  0  0  0  0  0  0  0  0  # atno 17343 bound_to 10162
  156.1579  130.3643  149.9342 LP  0  0  0  0  0  0  0  0  0  0  0  0  # atno 17370 bound_to 10713
  156.7347  130.9056  151.3628 LP  0  0  0  0  0  0  0  0  0  0  0  0  # atno 17371 bound_to 10713
  140.0192  134.9953  157.0557 LP  0  0  0  0  0  0  0  0  0  0  0  0  # atno 17394 bound_to 11000
  140.4468  134.1624  155.7178 LP  0  0  0  0  0  0  0  0  0  0  0  0  # atno 17395 bound_to 11000

$$$$
