AV-unprocessed.smi:3287|AV-procd|sdf|12603|dock8
  -GOLD-   2272018533D 1   1.00000     0.00000
 Structure written by MMmdl.
 43 44  0  0  0  0  0  0  0  0  2 V2000
  145.5474  143.3168  154.8027 C   0  0  0  0  0  0  0  0  0  0  0  0
  146.4749  142.1076  155.0176 C   0  0  1  0  0  0  0  0  0  0  0  0
  147.7012  142.2190  154.0890 C   0  0  0  0  0  0  0  0  0  0  0  0
  148.6656  141.0337  154.2533 C   0  0  0  0  0  0  0  0  0  0  0  0
  149.1222  140.8599  155.7114 C   0  0  1  0  0  0  0  0  0  0  0  0
  150.0349  141.9598  156.1018 N   0  3  0  0  0  0  0  0  0  0  0  0
  150.6177  141.8581  157.4573 C   0  0  0  0  0  0  0  0  0  0  0  0
  151.5745  143.0282  157.7437 C   0  0  1  0  0  0  0  0  0  0  0  0
  150.8575  144.2419  157.6245 O   0  0  0  0  0  0  0  0  0  0  0  0
  152.2204  142.8851  159.1130 C   0  0  0  0  0  0  0  0  0  0  0  0
  151.9461  143.8016  160.1517 C   0  0  0  0  0  0  0  0  0  0  0  0
  152.5700  143.6108  161.4008 C   0  0  0  0  0  0  0  0  0  0  0  0
  153.4171  142.5914  161.6582 N   0  0  0  0  0  0  0  0  0  0  0  0
  153.6738  141.7165  160.6626 C   0  0  0  0  0  0  0  0  0  0  0  0
  153.1032  141.8170  159.3777 C   0  0  0  0  0  0  0  0  0  0  0  0
  147.8950  140.7524  156.6407 C   0  0  0  0  0  0  0  0  0  0  0  0
  146.9185  141.9401  156.4954 C   0  0  2  0  0  0  0  0  0  0  0  0
  145.7322  141.7579  157.4591 C   0  0  0  0  0  0  0  0  0  0  0  0
  146.0143  144.2415  155.1433 H   0  0  0  0  0  0  0  0  0  0  0  0
  144.6022  143.2023  155.3329 H   0  0  0  0  0  0  0  0  0  0  0  0
  145.3027  143.4390  153.7471 H   0  0  0  0  0  0  0  0  0  0  0  0
  145.9202  141.2142  154.7263 H   0  0  0  0  0  0  0  0  0  0  0  0
  147.3747  142.2725  153.0496 H   0  0  0  0  0  0  0  0  0  0  0  0
  148.2299  143.1522  154.2880 H   0  0  0  0  0  0  0  0  0  0  0  0
  148.1656  140.1221  153.9229 H   0  0  0  0  0  0  0  0  0  0  0  0
  149.5284  141.1591  153.5979 H   0  0  0  0  0  0  0  0  0  0  0  0
  149.6902  139.9305  155.7708 H   0  0  0  0  0  0  0  0  0  0  0  0
  150.8024  141.9686  155.4455 H   0  0  0  0  0  0  0  0  0  0  0  0
  149.8285  141.8315  158.2086 H   0  0  0  0  0  0  0  0  0  0  0  0
  151.1622  140.9156  157.5314 H   0  0  0  0  0  0  0  0  0  0  0  0
  152.3640  143.0417  156.9908 H   0  0  0  0  0  0  0  0  0  0  0  0
  150.4219  144.2517  156.7851 H   0  0  0  0  0  0  0  0  0  0  0  0
  151.2731  144.6330  160.0008 H   0  0  0  0  0  0  0  0  0  0  0  0
  152.3816  144.2947  162.2152 H   0  0  0  0  0  0  0  0  0  0  0  0
  154.3537  140.9106  160.8968 H   0  0  0  0  0  0  0  0  0  0  0  0
  153.3414  141.0875  158.6176 H   0  0  0  0  0  0  0  0  0  0  0  0
  147.3626  139.8299  156.4040 H   0  0  0  0  0  0  0  0  0  0  0  0
  148.2069  140.6460  157.6793 H   0  0  0  0  0  0  0  0  0  0  0  0
  147.4451  142.8465  156.7979 H   0  0  0  0  0  0  0  0  0  0  0  0
  145.1126  140.9083  157.1705 H   0  0  0  0  0  0  0  0  0  0  0  0
  145.0960  142.6419  157.4916 H   0  0  0  0  0  0  0  0  0  0  0  0
  146.0794  141.5825  158.4778 H   0  0  0  0  0  0  0  0  0  0  0  0
  149.5406  142.8375  156.0241 H   0  0  0  0  0  0  0  0  0  0  0  0
  1  2  1  0  0  0  0
  1 19  1  0  0  0  0
  1 20  1  0  0  0  0
  1 21  1  0  0  0  0
  2 17  1  0  0  0  0
  2  3  1  0  0  0  0
  2 22  1  0  0  0  0
  3  4  1  0  0  0  0
  3 23  1  0  0  0  0
  3 24  1  0  0  0  0
  4  5  1  0  0  0  0
  4 25  1  0  0  0  0
  4 26  1  0  0  0  0
  5  6  1  0  0  0  0
  5 16  1  0  0  0  0
  5 27  1  0  0  0  0
  6  7  1  0  0  0  0
  6 28  1  0  0  0  0
  6 43  1  0  0  0  0
  7  8  1  0  0  0  0
  7 29  1  0  0  0  0
  7 30  1  0  0  0  0
  8  9  1  0  0  0  0
  8 10  1  0  0  0  0
  8 31  1  0  0  0  0
  9 32  1  0  0  0  0
 10 15  1  0  0  0  0
 10 11  2  0  0  0  0
 11 12  1  0  0  0  0
 11 33  1  0  0  0  0
 12 13  2  0  0  0  0
 12 34  1  0  0  0  0
 13 14  1  0  0  0  0
 14 15  2  0  0  0  0
 14 35  1  0  0  0  0
 15 36  1  0  0  0  0
 16 17  1  0  0  0  0
 16 37  1  0  0  0  0
 16 38  1  0  0  0  0
 17 18  1  0  0  0  0
 17 39  1  0  0  0  0
 18 40  1  0  0  0  0
 18 41  1  0  0  0  0
 18 42  1  0  0  0  0
M  CHG  1   6   1
M  END
> <s_m_source_file>
AV-unprocessed.smi

> <i_m_source_file_index>
3287

> <i_lp_mmshare_version>
43012

> <i_f3d_flags>
0

> <s_epik_input>
W0NIM11bQ0BASF0xW0NIMl1bQ0gyXVtDQEhdKFtDSDJdW0NASF0xW0NIM10pW05IXVtDSDJdW0NASF0oW09IXSljMltjSF1bY0hdbltjSF1bY0hdMg==

> <s_epik_cmdline>
J2VwaWtfcHl0aG9uJywgJy1waCcsICc3LjAnLCAnLXRuJywgJzgnLCAnLW1hJywgJzIwMCcsICctbWV0YWxfYmluZGluZycsICctaW1hZScsICc8aW5maWxlLm1hZT4nLCAnLW9tYWUnLCAnPG91dGZpbGUubWFlPic=

> <r_lp_tautomer_probability>
1

> <r_epik_Ionization_Penalty>
0.00537262

> <r_epik_Ionization_Penalty_Charging>
0.00321624

> <r_epik_Ionization_Penalty_Neutral>
0.00215638

> <r_epik_State_Penalty>
-0

> <r_epik_Charging_Adjusted_Penalty>
0.00321624

> <i_epik_Tot_Q>
1

> <i_epik_Tot_abs_Q>
1

> <r_epik_Metal_State_Penalty>
-0

> <b_epik_Metal_Only>
0

> <s_lp_Force_Field>
OPLS_2005

> <r_lp_Energy>
19.4184

> <b_lp_Chiralities_Consistent>
1

> <s_lp_Variant>
AV-unprocessed.smi:3287-14

> <Gold.Version>
5.8.1

> <Gold.Id.Protein>
6NUR|6NUR_protein|mol2

> <Gold.PLP.Fitness>
49.8975

> <Gold.PLP.PLP>
-41.0686

> <Gold.PLP.part.hbond>
-2.4059

> <Gold.PLP.part.metal>
0.0000

> <Gold.PLP.part.buried>
-4.7112

> <Gold.PLP.part.nonpolar>
-34.1729

> <Gold.PLP.part.repulsive>
0.1694

> <Gold.PLP.ligand.clash>
0.0000

> <Gold.PLP.ligand.torsion>
0.0932

> <Gold.PLP.Chemscore.Hbond>
3.0000

> <Gold.PLP.Chemscore.CHOScore>
0.0000

> <Gold.PLP.Chemscore.Metal>
0.0000

> <Gold.Chemscore.Hbonds>
donor molecule, donor type, donor heavy atom, donor atom, acceptor molecule, acceptor atom, score
      L1  H     6    43       P1  8028  2.00
      L1  H     9    32       P1  8028  1.00

> <Gold.PLP.Chemscore.Internal.Correction>
0.0152

> <Gold.Rescore>
     Score         DG    S(hbond)    S(metal)    S(lipo)     H(rot)  DE(clash)    DE(int)     intcor
     19.26     -19.60       1.97        0.00     105.92       1.90       0.26       0.08       ----

> <Gold.Chemscore.Fitness>
19.2611

> <Gold.Chemscore.DG>
-19.5954

> <Gold.Chemscore.ZeroCoef>
-5.4800

> <Gold.Chemscore.Hbond>
1.9749

> <Gold.Chemscore.Metal>
0.0000

> <Gold.Chemscore.Lipo>
105.9151

> <Gold.Chemscore.Internal_Hbond>
0.0000

> <Gold.Chemscore.DEClash>
0.2566

> <Gold.Chemscore.DEInternal>
0.0777

> <Gold.Chemscore.Rot>
1.9035

> <Gold.Chemscore.Internal.Correction>
   9.000000E+99

> <Gold.Chemscore.Hbonds>
donor molecule, donor type, donor heavy atom, donor atom, acceptor molecule, acceptor atom, score
      L1  H     6    43       P1  8028  0.93
      L1  H     9    32       P1  8028  0.92

> <Gold.Chemscore.Hbond.Weighted>
-6.5962

> <Gold.Chemscore.Metal.Weighted>
-0.0000

> <Gold.Chemscore.Lipo.Weighted>
-12.3921

> <Gold.Chemscore.Internal_Hbond.Weighted>
0.0000

> <Gold.Chemscore.DEClash.Weighted>
0.2566

> <Gold.Chemscore.DEInternal.Weighted>
0.0777

> <Gold.Chemscore.Rot.Weighted>
4.8729

> <Gold.Chemscore.Internal.Correction.Weighted>
   9.000000E+99

> <Gold.Protein.RotatedTorsions>
[ 6907 6896 6895 6894 ] final  -37.35 input  -60.11 | X-H torsion
[ 7974 7965 7964 7962 ] final  -90.48 input  175.53 | X-H torsion
[ 8008 7997 7996 7995 ] final  156.91 input   59.86 | X-H torsion
[ 10167 10162 10161 10158 ] final -124.06 input  -65.29 | X-H torsion
[ 10718 10713 10712 10709 ] final  170.08 input   66.30 | X-H torsion
[ 10763 10752 10751 10750 ] final  -85.97 input  -60.55 | X-H torsion
[ 11005 11000 10999 10996 ] final  162.01 input  -57.11 | X-H torsion

> <Gold.Protein.ActiveResidues>
 VAL166  LYS551  ARG553  GLY616  TRP617  ASP618  TYR619  PRO620  LYS621  CYS622 
 ASP623  PHE694  ASN695  SER759  ASP760  ASP761  ALA762  ILE779  LEU786  VAL792 
 PHE793  MET794  SER795  GLU796  ALA797  LYS798  CYS799  TRP800  GLU811  SER814 

> <Gold.Protein.RotatedAtoms>
  151.0158  134.9431  159.8031 H   0  0  0  0  0  0  0  0  0  0  0  0  # atno 6907 bound_to 6896
  152.5313  134.2968  159.9074 H   0  0  0  0  0  0  0  0  0  0  0  0  # atno 6908 bound_to 6896
  151.2975  133.4095  159.2671 H   0  0  0  0  0  0  0  0  0  0  0  0  # atno 6909 bound_to 6896
  145.4259  140.9553  143.2155 H   0  0  0  0  0  0  0  0  0  0  0  0  # atno 7974 bound_to 7965
  156.2395  140.1899  156.7027 H   0  0  0  0  0  0  0  0  0  0  0  0  # atno 8008 bound_to 7997
  154.6170  140.0614  156.9593 H   0  0  0  0  0  0  0  0  0  0  0  0  # atno 8009 bound_to 7997
  155.1924  140.3285  155.4359 H   0  0  0  0  0  0  0  0  0  0  0  0  # atno 8010 bound_to 7997
  139.9969  143.5582  152.2319 H   0  0  0  0  0  0  0  0  0  0  0  0  # atno 10167 bound_to 10162
  157.0133  131.0210  151.2797 H   0  0  0  0  0  0  0  0  0  0  0  0  # atno 10718 bound_to 10713
  154.6171  135.5466  153.7535 H   0  0  0  0  0  0  0  0  0  0  0  0  # atno 10763 bound_to 10752
  153.0221  135.6403  154.1494 H   0  0  0  0  0  0  0  0  0  0  0  0  # atno 10764 bound_to 10752
  154.1430  135.2907  155.3136 H   0  0  0  0  0  0  0  0  0  0  0  0  # atno 10765 bound_to 10752
  140.2215  134.8192  157.3225 H   0  0  0  0  0  0  0  0  0  0  0  0  # atno 11005 bound_to 11000
  144.8214  139.5785  143.6985 LP  0  0  0  0  0  0  0  0  0  0  0  0  # atno 17320 bound_to 7965
  146.2632  139.6459  142.9347 LP  0  0  0  0  0  0  0  0  0  0  0  0  # atno 17321 bound_to 7965
  139.6300  144.7643  151.2557 LP  0  0  0  0  0  0  0  0  0  0  0  0  # atno 17342 bound_to 10162
  140.7434  143.6496  150.8260 LP  0  0  0  0  0  0  0  0  0  0  0  0  # atno 17343 bound_to 10162
  157.5304  130.8055  149.7911 LP  0  0  0  0  0  0  0  0  0  0  0  0  # atno 17370 bound_to 10713
  156.0128  130.3826  150.2207 LP  0  0  0  0  0  0  0  0  0  0  0  0  # atno 17371 bound_to 10713
  140.1845  134.4448  155.7752 LP  0  0  0  0  0  0  0  0  0  0  0  0  # atno 17394 bound_to 11000
  141.2223  133.6998  156.7924 LP  0  0  0  0  0  0  0  0  0  0  0  0  # atno 17395 bound_to 11000

$$$$
