AV-unprocessed.smi:1826|AV-procd|sdf|7415|dock4
  -GOLD-   22720 9 93D 1   1.00000     0.00000
 Structure written by MMmdl.
 39 41  0  0  0  0  0  0  0  0  1 V2000
  151.8693  139.2973  154.7039 O   0  0  0  0  0  0  0  0  0  0  0  0
  151.2910  139.1207  155.9792 C   0  0  0  0  0  0  0  0  0  0  0  0
  151.5413  140.2831  156.8914 C   0  0  0  0  0  0  0  0  0  0  0  0
  152.1450  140.1257  158.0700 N   0  0  0  0  0  0  0  0  0  0  0  0
  152.1216  141.4009  158.5977 C   0  0  0  0  0  0  0  0  0  0  0  0
  152.6048  141.8917  159.8317 C   0  0  0  0  0  0  0  0  0  0  0  0
  152.4568  143.2537  160.1661 C   0  0  0  0  0  0  0  0  0  0  0  0
  151.8201  144.1413  159.2752 C   0  0  0  0  0  0  0  0  0  0  0  0
  151.3306  143.6719  158.0417 C   0  0  0  0  0  0  0  0  0  0  0  0
  151.4910  142.3137  157.7059 C   0  0  0  0  0  0  0  0  0  0  0  0
  151.1514  141.5495  156.5913 N   0  0  0  0  0  0  0  0  0  0  0  0
  150.4889  142.0343  155.3831 C   0  0  0  0  0  0  0  0  0  0  0  0
  149.3285  141.1356  154.8902 C   0  0  2  0  0  0  0  0  0  0  0  0
  149.5196  140.7718  153.5372 O   0  0  0  0  0  0  0  0  0  0  0  0
  147.9551  141.7430  155.1506 C   0  0  0  0  0  0  0  0  0  0  0  0
  147.1603  142.2381  154.0923 C   0  0  0  0  0  0  0  0  0  0  0  0
  145.9067  142.8225  154.3562 C   0  0  0  0  0  0  0  0  0  0  0  0
  145.4304  142.9213  155.6813 C   0  0  0  0  0  0  0  0  0  0  0  0
  144.0773  143.5512  155.9770 C   0  0  0  0  0  0  0  0  0  0  0  0
  143.2349  142.6069  156.3941 F   0  0  0  0  0  0  0  0  0  0  0  0
  144.1931  144.4757  156.9310 F   0  0  0  0  0  0  0  0  0  0  0  0
  143.5650  144.1338  154.8922 F   0  0  0  0  0  0  0  0  0  0  0  0
  146.2189  142.4152  156.7365 C   0  0  0  0  0  0  0  0  0  0  0  0
  147.4728  141.8312  156.4732 C   0  0  0  0  0  0  0  0  0  0  0  0
  151.6820  138.5327  154.1813 H   0  0  0  0  0  0  0  0  0  0  0  0
  150.2159  138.9853  155.8568 H   0  0  0  0  0  0  0  0  0  0  0  0
  151.6701  138.2015  156.4212 H   0  0  0  0  0  0  0  0  0  0  0  0
  153.0889  141.2183  160.5233 H   0  0  0  0  0  0  0  0  0  0  0  0
  152.8309  143.6183  161.1117 H   0  0  0  0  0  0  0  0  0  0  0  0
  151.7082  145.1831  159.5385 H   0  0  0  0  0  0  0  0  0  0  0  0
  150.8439  144.3514  157.3586 H   0  0  0  0  0  0  0  0  0  0  0  0
  150.1224  143.0446  155.5642 H   0  0  0  0  0  0  0  0  0  0  0  0
  151.2395  142.1330  154.5982 H   0  0  0  0  0  0  0  0  0  0  0  0
  149.3742  140.2028  155.4536 H   0  0  0  0  0  0  0  0  0  0  0  0
  150.2961  140.2363  153.4789 H   0  0  0  0  0  0  0  0  0  0  0  0
  147.5135  142.1891  153.0727 H   0  0  0  0  0  0  0  0  0  0  0  0
  145.3164  143.1981  153.5336 H   0  0  0  0  0  0  0  0  0  0  0  0
  145.8644  142.4763  157.7551 H   0  0  0  0  0  0  0  0  0  0  0  0
  148.0688  141.4587  157.2935 H   0  0  0  0  0  0  0  0  0  0  0  0
  1  2  1  0  0  0  0
  1 25  1  0  0  0  0
  2  3  1  0  0  0  0
  2 26  1  0  0  0  0
  2 27  1  0  0  0  0
  3 11  1  0  0  0  0
  3  4  2  0  0  0  0
  4  5  1  0  0  0  0
  5 10  2  0  0  0  0
  5  6  1  0  0  0  0
  6  7  2  0  0  0  0
  6 28  1  0  0  0  0
  7  8  1  0  0  0  0
  7 29  1  0  0  0  0
  8  9  2  0  0  0  0
  8 30  1  0  0  0  0
  9 10  1  0  0  0  0
  9 31  1  0  0  0  0
 10 11  1  0  0  0  0
 11 12  1  0  0  0  0
 12 13  1  0  0  0  0
 12 32  1  0  0  0  0
 12 33  1  0  0  0  0
 13 14  1  0  0  0  0
 13 15  1  0  0  0  0
 13 34  1  0  0  0  0
 14 35  1  0  0  0  0
 15 24  1  0  0  0  0
 15 16  2  0  0  0  0
 16 17  1  0  0  0  0
 16 36  1  0  0  0  0
 17 18  2  0  0  0  0
 17 37  1  0  0  0  0
 18 19  1  0  0  0  0
 18 23  1  0  0  0  0
 19 20  1  0  0  0  0
 19 21  1  0  0  0  0
 19 22  1  0  0  0  0
 23 24  2  0  0  0  0
 23 38  1  0  0  0  0
 24 39  1  0  0  0  0
M  END
> <s_m_source_file>
AV-unprocessed.smi

> <i_m_source_file_index>
1826

> <i_lp_mmshare_version>
43012

> <i_f3d_flags>
0

> <s_epik_input>
W2NIXTFbY0hdW2NIXVtjSF1jKGMxMiluKGMobjIpW0NIMl1bT0hdKVtDSDJdW0NASF0oW09IXSljM1tjSF1bY0hdYyhDKEYpKEYpRilbY0hdW2NIXTM=

> <s_epik_cmdline>
J2VwaWtfcHl0aG9uJywgJy1waCcsICc3LjAnLCAnLXRuJywgJzgnLCAnLW1hJywgJzIwMCcsICctbWV0YWxfYmluZGluZycsICctaW1hZScsICc8aW5maWxlLm1hZT4nLCAnLW9tYWUnLCAnPG91dGZpbGUubWFlPic=

> <r_epik_Ionization_Penalty>
0.0634718

> <r_epik_Ionization_Penalty_Charging>
0

> <r_epik_Ionization_Penalty_Neutral>
0.0634718

> <r_epik_State_Penalty>
0.0551572

> <r_epik_Charging_Adjusted_Penalty>
0.0551572

> <i_epik_Tot_Q>
0

> <i_epik_Tot_abs_Q>
0

> <r_epik_Metal_State_Penalty>
5.78034e-05

> <b_epik_Metal_Only>
0

> <s_lp_Force_Field>
OPLS_2005

> <r_lp_Energy>
13.2523

> <b_lp_Chiralities_Consistent>
1

> <s_lp_Variant>
AV-unprocessed.smi:1826-1

> <Gold.Version>
5.8.1

> <Gold.Id.Protein>
6NUR|6NUR_protein|mol2

> <Gold.PLP.Fitness>
50.9420

> <Gold.PLP.PLP>
-47.4860

> <Gold.PLP.part.hbond>
-3.8915

> <Gold.PLP.part.metal>
0.0000

> <Gold.PLP.part.buried>
-3.8694

> <Gold.PLP.part.nonpolar>
-39.2478

> <Gold.PLP.part.repulsive>
0.0000

> <Gold.PLP.ligand.clash>
0.4775

> <Gold.PLP.ligand.torsion>
1.4586

> <Gold.PLP.Chemscore.Hbond>
2.0000

> <Gold.PLP.Chemscore.CHOScore>
0.0000

> <Gold.PLP.Chemscore.Metal>
0.0000

> <Gold.Chemscore.Hbonds>
donor molecule, donor type, donor heavy atom, donor atom, acceptor molecule, acceptor atom, score
      P1  H  7989  7998       L1     1  0.99
      P1  H  8011  8017       L1    14  0.94

> <Gold.PLP.Chemscore.Internal.Correction>
0.8506

> <Gold.Rescore>
     Score         DG    S(hbond)    S(metal)    S(lipo)     H(rot)  DE(clash)    DE(int)     intcor
     12.43     -16.37       1.67        0.00     109.34       2.91       1.79       2.15       ----

> <Gold.Chemscore.Fitness>
12.4349

> <Gold.Chemscore.DG>
-16.3737

> <Gold.Chemscore.ZeroCoef>
-5.4800

> <Gold.Chemscore.Hbond>
1.6651

> <Gold.Chemscore.Metal>
0.0000

> <Gold.Chemscore.Lipo>
109.3359

> <Gold.Chemscore.Internal_Hbond>
0.0000

> <Gold.Chemscore.DEClash>
1.7933

> <Gold.Chemscore.DEInternal>
2.1455

> <Gold.Chemscore.Rot>
2.9141

> <Gold.Chemscore.Internal.Correction>
   9.000000E+99

> <Gold.Chemscore.Hbonds>
donor molecule, donor type, donor heavy atom, donor atom, acceptor molecule, acceptor atom, score
      P1  H  7989  7998       L1     1  0.51
      P1  H  8011  8017       L1    14  0.44

> <Gold.Chemscore.Hbond.Weighted>
-5.5614

> <Gold.Chemscore.Metal.Weighted>
-0.0000

> <Gold.Chemscore.Lipo.Weighted>
-12.7923

> <Gold.Chemscore.Internal_Hbond.Weighted>
0.0000

> <Gold.Chemscore.DEClash.Weighted>
1.7933

> <Gold.Chemscore.DEInternal.Weighted>
2.1455

> <Gold.Chemscore.Rot.Weighted>
7.4600

> <Gold.Chemscore.Internal.Correction.Weighted>
   9.000000E+99

> <Gold.Protein.RotatedTorsions>
[ 6907 6896 6895 6894 ] final -143.01 input  -60.11 | X-H torsion
[ 7974 7965 7964 7962 ] final  135.77 input  175.53 | X-H torsion
[ 8008 7997 7996 7995 ] final  -52.40 input   59.86 | X-H torsion
[ 10167 10162 10161 10158 ] final -133.47 input  -65.29 | X-H torsion
[ 10718 10713 10712 10709 ] final   23.37 input   66.30 | X-H torsion
[ 10763 10752 10751 10750 ] final -158.83 input  -60.55 | X-H torsion
[ 11005 11000 10999 10996 ] final -162.58 input  -57.11 | X-H torsion

> <Gold.Protein.ActiveResidues>
 VAL166  LYS551  ARG553  GLY616  TRP617  ASP618  TYR619  PRO620  LYS621  CYS622 
 ASP623  PHE694  ASN695  SER759  ASP760  ASP761  ALA762  ILE779  LEU786  VAL792 
 PHE793  MET794  SER795  GLU796  ALA797  LYS798  CYS799  TRP800  GLU811  SER814 

> <Gold.Protein.RotatedAtoms>
  151.0947  133.5288  159.2612 H   0  0  0  0  0  0  0  0  0  0  0  0  # atno 6907 bound_to 6896
  151.2142  135.0492  159.8933 H   0  0  0  0  0  0  0  0  0  0  0  0  # atno 6908 bound_to 6896
  152.5437  134.0759  159.8268 H   0  0  0  0  0  0  0  0  0  0  0  0  # atno 6909 bound_to 6896
  144.9630  139.4689  143.5470 H   0  0  0  0  0  0  0  0  0  0  0  0  # atno 7974 bound_to 7965
  154.4106  140.1225  156.4986 H   0  0  0  0  0  0  0  0  0  0  0  0  # atno 8008 bound_to 7997
  155.6918  140.3495  155.4877 H   0  0  0  0  0  0  0  0  0  0  0  0  # atno 8009 bound_to 7997
  155.9462  140.1096  157.1005 H   0  0  0  0  0  0  0  0  0  0  0  0  # atno 8010 bound_to 7997
  139.8980  143.6642  152.2600 H   0  0  0  0  0  0  0  0  0  0  0  0  # atno 10167 bound_to 10162
  157.1651  130.6734  149.6058 H   0  0  0  0  0  0  0  0  0  0  0  0  # atno 10718 bound_to 10713
  154.7525  135.3096  154.8531 H   0  0  0  0  0  0  0  0  0  0  0  0  # atno 10763 bound_to 10752
  153.9314  135.6785  153.4749 H   0  0  0  0  0  0  0  0  0  0  0  0  # atno 10764 bound_to 10752
  153.1121  135.4861  154.8982 H   0  0  0  0  0  0  0  0  0  0  0  0  # atno 10765 bound_to 10752
  140.6077  134.4882  157.5212 H   0  0  0  0  0  0  0  0  0  0  0  0  # atno 11005 bound_to 11000
  146.3359  139.8793  142.8827 LP  0  0  0  0  0  0  0  0  0  0  0  0  # atno 17320 bound_to 7965
  145.2671  141.0096  143.3793 LP  0  0  0  0  0  0  0  0  0  0  0  0  # atno 17321 bound_to 7965
  139.7051  144.7629  151.1208 LP  0  0  0  0  0  0  0  0  0  0  0  0  # atno 17342 bound_to 10162
  140.7713  143.5406  150.9317 LP  0  0  0  0  0  0  0  0  0  0  0  0  # atno 17343 bound_to 10162
  155.9747  130.4698  150.6408 LP  0  0  0  0  0  0  0  0  0  0  0  0  # atno 17370 bound_to 10713
  157.4095  131.0821  151.1234 LP  0  0  0  0  0  0  0  0  0  0  0  0  # atno 17371 bound_to 10713
  139.9205  134.8158  156.1226 LP  0  0  0  0  0  0  0  0  0  0  0  0  # atno 17394 bound_to 11000
  141.0829  133.6746  156.2375 LP  0  0  0  0  0  0  0  0  0  0  0  0  # atno 17395 bound_to 11000

$$$$
