AV-unprocessed.smi:1645|AV-procd|sdf|6616|dock2
  -GOLD-   22720 7313D 1   1.00000     0.00000
 Structure written by MMmdl.
 55 58  0  0  0  0  0  0  0  0  4 V2000
  150.1044  134.8415  156.3218 O   0  0  0  0  0  0  0  0  0  0  0  0
  150.0271  135.0546  155.1067 C   0  0  0  0  0  0  0  0  0  0  0  0
  150.1877  136.2979  154.6203 N   0  0  0  0  0  0  0  0  0  0  0  0
  150.5397  137.4933  155.3023 C   0  0  0  0  0  0  0  0  0  0  0  0
  150.7061  138.6627  154.5336 C   0  0  0  0  0  0  0  0  0  0  0  0
  151.0837  139.8673  155.1611 C   0  0  0  0  0  0  0  0  0  0  0  0
  151.3087  139.8946  156.5608 C   0  0  0  0  0  0  0  0  0  0  0  0
  151.6894  141.0530  157.2757 N   0  0  0  0  0  0  0  0  0  0  0  0
  150.8022  142.2134  157.1428 C   0  0  0  0  0  0  0  0  0  0  0  0
  151.4917  143.5076  157.6075 C   0  0  0  0  0  0  0  0  0  0  0  0
  152.0635  143.3533  159.0233 C   0  0  0  0  0  0  0  0  0  0  0  0
  153.0104  142.1469  159.0717 C   0  0  0  0  0  0  0  0  0  0  0  0
  152.3043  140.8673  158.5917 C   0  0  0  0  0  0  0  0  0  0  0  0
  151.1483  138.7408  157.2532 N   0  3  0  0  0  0  0  0  0  0  0  0
  150.7845  137.5668  156.6933 C   0  0  0  0  0  0  0  0  0  0  0  0
  149.7670  134.1534  154.1221 N   0  5  0  0  0  0  0  0  0  0  0  0
  148.9980  132.9200  154.2985 C   0  0  2  0  0  0  0  0  0  0  0  0
  149.8826  131.6652  154.1579 C   0  0  0  0  0  0  0  0  0  0  0  0
  149.0069  130.6175  153.4450 C   0  0  0  0  0  0  0  0  0  0  0  0
  147.7133  131.2834  153.1992 N   0  3  2  0  0  0  0  0  0  0  0  0
  146.9225  130.8185  152.0382 C   0  0  0  0  0  0  0  0  0  0  0  0
  145.5664  131.5528  152.0194 C   0  0  0  0  0  0  0  0  0  0  0  0
  145.7406  133.0849  152.0769 C   0  0  0  0  0  0  0  0  0  0  0  0
  146.6435  133.5012  153.2554 C   0  0  0  0  0  0  0  0  0  0  0  0
  147.9775  132.7309  153.1696 C   0  0  1  0  0  0  0  0  0  0  0  0
  150.0023  136.3993  153.6333 H   0  0  0  0  0  0  0  0  0  0  0  0
  150.5447  138.6404  153.4656 H   0  0  0  0  0  0  0  0  0  0  0  0
  151.2070  140.7467  154.5478 H   0  0  0  0  0  0  0  0  0  0  0  0
  150.4708  142.3505  156.1138 H   0  0  0  0  0  0  0  0  0  0  0  0
  149.9065  142.0354  157.7392 H   0  0  0  0  0  0  0  0  0  0  0  0
  152.2954  143.7623  156.9154 H   0  0  0  0  0  0  0  0  0  0  0  0
  150.7844  144.3368  157.5784 H   0  0  0  0  0  0  0  0  0  0  0  0
  152.5921  144.2603  159.3181 H   0  0  0  0  0  0  0  0  0  0  0  0
  151.2514  143.2158  159.7383 H   0  0  0  0  0  0  0  0  0  0  0  0
  153.8800  142.3415  158.4423 H   0  0  0  0  0  0  0  0  0  0  0  0
  153.3875  142.0067  160.0850 H   0  0  0  0  0  0  0  0  0  0  0  0
  151.5347  140.5731  159.3069 H   0  0  0  0  0  0  0  0  0  0  0  0
  153.0399  140.0632  158.5537 H   0  0  0  0  0  0  0  0  0  0  0  0
  150.7214  136.7359  157.3796 H   0  0  0  0  0  0  0  0  0  0  0  0
  148.4718  132.8805  155.2540 H   0  0  0  0  0  0  0  0  0  0  0  0
  150.7680  131.8658  153.5521 H   0  0  0  0  0  0  0  0  0  0  0  0
  150.2277  131.3149  155.1313 H   0  0  0  0  0  0  0  0  0  0  0  0
  149.4689  130.3214  152.5016 H   0  0  0  0  0  0  0  0  0  0  0  0
  148.8627  129.7184  154.0452 H   0  0  0  0  0  0  0  0  0  0  0  0
  147.4731  131.0073  151.1155 H   0  0  0  0  0  0  0  0  0  0  0  0
  146.7673  129.7415  152.1082 H   0  0  0  0  0  0  0  0  0  0  0  0
  145.0032  131.2738  151.1282 H   0  0  0  0  0  0  0  0  0  0  0  0
  144.9702  131.2282  152.8733 H   0  0  0  0  0  0  0  0  0  0  0  0
  146.1818  133.4345  151.1428 H   0  0  0  0  0  0  0  0  0  0  0  0
  144.7678  133.5705  152.1597 H   0  0  0  0  0  0  0  0  0  0  0  0
  146.8136  134.5787  153.2244 H   0  0  0  0  0  0  0  0  0  0  0  0
  146.1299  133.2916  154.1961 H   0  0  0  0  0  0  0  0  0  0  0  0
  148.4601  132.9644  152.2172 H   0  0  0  0  0  0  0  0  0  0  0  0
  147.1562  131.1238  154.0260 H   0  0  0  0  0  0  0  0  0  0  0  0
  151.3137  138.7571  158.2595 H   0  0  0  0  0  0  0  0  0  0  0  0
  1  2  2  0  0  0  0
  2  3  1  0  0  0  0
  2 16  1  0  0  0  0
  3  4  1  0  0  0  0
  3 26  1  0  0  0  0
  4 15  1  0  0  0  0
  4  5  2  0  0  0  0
  5  6  1  0  0  0  0
  5 27  1  0  0  0  0
  6  7  2  0  0  0  0
  6 28  1  0  0  0  0
  7  8  1  0  0  0  0
  7 14  1  0  0  0  0
  8 13  1  0  0  0  0
  8  9  1  0  0  0  0
  9 10  1  0  0  0  0
  9 29  1  0  0  0  0
  9 30  1  0  0  0  0
 10 11  1  0  0  0  0
 10 31  1  0  0  0  0
 10 32  1  0  0  0  0
 11 12  1  0  0  0  0
 11 33  1  0  0  0  0
 11 34  1  0  0  0  0
 12 13  1  0  0  0  0
 12 35  1  0  0  0  0
 12 36  1  0  0  0  0
 13 37  1  0  0  0  0
 13 38  1  0  0  0  0
 14 15  2  0  0  0  0
 14 55  1  0  0  0  0
 15 39  1  0  0  0  0
 16 17  1  0  0  0  0
 17 25  1  0  0  0  0
 17 18  1  0  0  0  0
 17 40  1  0  0  0  0
 18 19  1  0  0  0  0
 18 41  1  0  0  0  0
 18 42  1  0  0  0  0
 19 20  1  0  0  0  0
 19 43  1  0  0  0  0
 19 44  1  0  0  0  0
 20 25  1  0  0  0  0
 20 21  1  0  0  0  0
 20 54  1  0  0  0  0
 21 22  1  0  0  0  0
 21 45  1  0  0  0  0
 21 46  1  0  0  0  0
 22 23  1  0  0  0  0
 22 47  1  0  0  0  0
 22 48  1  0  0  0  0
 23 24  1  0  0  0  0
 23 49  1  0  0  0  0
 23 50  1  0  0  0  0
 24 25  1  0  0  0  0
 24 51  1  0  0  0  0
 24 52  1  0  0  0  0
 25 53  1  0  0  0  0
M  CHG  1  14   1
M  CHG  1  16  -1
M  CHG  1  20   1
M  END
> <s_m_source_file>
AV-unprocessed.smi

> <i_m_source_file_index>
1645

> <i_lp_mmshare_version>
43012

> <i_f3d_flags>
0

> <s_epik_input>
W0NIMl0xW0NIMl1bQ0gyXVtDSDJdW0NASF0oTjEyKVtDQEBIXShbQ0gyXVtDSDJdMilbTkhdQyg9TylbTkhdYzNbY0hdW2NIXWMobltjSF0zKU40W0NIMl1bQ0gyXVtDSDJdW0NIMl1bQ0gyXTQ=

> <s_epik_cmdline>
J2VwaWtfcHl0aG9uJywgJy1waCcsICc3LjAnLCAnLXRuJywgJzgnLCAnLW1hJywgJzIwMCcsICctbWV0YWxfYmluZGluZycsICctaW1hZScsICc8aW5maWxlLm1hZT4nLCAnLW9tYWUnLCAnPG91dGZpbGUubWFlPic=

> <r_lp_tautomer_probability>
0.999994

> <r_epik_Ionization_Penalty>
8.55589

> <r_epik_Ionization_Penalty_Charging>
8.55589

> <r_epik_Ionization_Penalty_Neutral>
3.8092e-06

> <r_epik_State_Penalty>
8.15703

> <r_epik_Charging_Adjusted_Penalty>
16.7129

> <i_epik_Tot_Q>
1

> <i_epik_Tot_abs_Q>
3

> <r_epik_Metal_State_Penalty>
4.13781

> <b_epik_Metal_Only>
1

> <s_lp_Force_Field>
OPLS_2005

> <r_lp_Energy>
51.6627

> <b_lp_Chiralities_Consistent>
1

> <s_lp_Variant>
AV-unprocessed.smi:1645-17

> <Gold.Version>
5.8.1

> <Gold.Id.Protein>
6NUR|6NUR_protein|mol2

> <Gold.PLP.Fitness>
43.4095

> <Gold.PLP.PLP>
-41.0137

> <Gold.PLP.part.hbond>
-1.0000

> <Gold.PLP.part.metal>
0.0000

> <Gold.PLP.part.buried>
-2.6043

> <Gold.PLP.part.nonpolar>
-38.0900

> <Gold.PLP.part.repulsive>
0.7413

> <Gold.PLP.ligand.clash>
0.0000

> <Gold.PLP.ligand.torsion>
0.5693

> <Gold.PLP.Chemscore.Hbond>
0.9913

> <Gold.PLP.Chemscore.CHOScore>
0.0000

> <Gold.PLP.Chemscore.Metal>
0.0000

> <Gold.Chemscore.Hbonds>
donor molecule, donor type, donor heavy atom, donor atom, acceptor molecule, acceptor atom, score
      L1  H     3    26       P1  7948  0.80

> <Gold.PLP.Chemscore.Internal.Correction>
0.5606

> <Gold.Rescore>
     Score         DG    S(hbond)    S(metal)    S(lipo)     H(rot)  DE(clash)    DE(int)     intcor
     15.51     -17.74       0.60        0.00     113.34       1.17       0.34       1.90       ----

> <Gold.Chemscore.Fitness>
15.5060

> <Gold.Chemscore.DG>
-17.7432

> <Gold.Chemscore.ZeroCoef>
-5.4800

> <Gold.Chemscore.Hbond>
0.6006

> <Gold.Chemscore.Metal>
0.0000

> <Gold.Chemscore.Lipo>
113.3378

> <Gold.Chemscore.Internal_Hbond>
0.0000

> <Gold.Chemscore.DEClash>
0.3377

> <Gold.Chemscore.DEInternal>
1.8994

> <Gold.Chemscore.Rot>
1.1731

> <Gold.Chemscore.Internal.Correction>
   9.000000E+99

> <Gold.Chemscore.Hbonds>
donor molecule, donor type, donor heavy atom, donor atom, acceptor molecule, acceptor atom, score
      L1  H     3    26       P1  7948  0.11

> <Gold.Chemscore.Hbond.Weighted>
-2.0059

> <Gold.Chemscore.Metal.Weighted>
-0.0000

> <Gold.Chemscore.Lipo.Weighted>
-13.2605

> <Gold.Chemscore.Internal_Hbond.Weighted>
0.0000

> <Gold.Chemscore.DEClash.Weighted>
0.3377

> <Gold.Chemscore.DEInternal.Weighted>
1.8994

> <Gold.Chemscore.Rot.Weighted>
3.0032

> <Gold.Chemscore.Internal.Correction.Weighted>
   9.000000E+99

> <Gold.Protein.RotatedTorsions>
[ 6907 6896 6895 6894 ] final    9.90 input  -60.11 | X-H torsion
[ 7974 7965 7964 7962 ] final  131.70 input  175.53 | X-H torsion
[ 8008 7997 7996 7995 ] final    5.22 input   59.86 | X-H torsion
[ 10167 10162 10161 10158 ] final  110.77 input  -65.29 | X-H torsion
[ 10718 10713 10712 10709 ] final    6.50 input   66.30 | X-H torsion
[ 10763 10752 10751 10750 ] final  -98.25 input  -60.55 | X-H torsion
[ 11005 11000 10999 10996 ] final  119.40 input  -57.11 | X-H torsion

> <Gold.Protein.ActiveResidues>
 VAL166  LYS551  ARG553  GLY616  TRP617  ASP618  TYR619  PRO620  LYS621  CYS622 
 ASP623  PHE694  ASN695  SER759  ASP760  ASP761  ALA762  ILE779  LEU786  VAL792 
 PHE793  MET794  SER795  GLU796  ALA797  LYS798  CYS799  TRP800  GLU811  SER814 

> <Gold.Protein.RotatedAtoms>
  151.7297  135.0877  160.0297 H   0  0  0  0  0  0  0  0  0  0  0  0  # atno 6907 bound_to 6896
  152.3549  133.6221  159.5980 H   0  0  0  0  0  0  0  0  0  0  0  0  # atno 6908 bound_to 6896
  150.7565  133.9431  159.3504 H   0  0  0  0  0  0  0  0  0  0  0  0  # atno 6909 bound_to 6896
  145.0046  139.4279  143.5275 H   0  0  0  0  0  0  0  0  0  0  0  0  # atno 7974 bound_to 7965
  154.7256  140.2720  155.6502 H   0  0  0  0  0  0  0  0  0  0  0  0  # atno 8008 bound_to 7997
  156.2836  140.2726  156.1866 H   0  0  0  0  0  0  0  0  0  0  0  0  # atno 8009 bound_to 7997
  155.0449  140.0371  157.2513 H   0  0  0  0  0  0  0  0  0  0  0  0  # atno 8010 bound_to 7997
  139.6663  144.7127  151.1771 H   0  0  0  0  0  0  0  0  0  0  0  0  # atno 10167 bound_to 10162
  156.9230  130.5798  149.5648 H   0  0  0  0  0  0  0  0  0  0  0  0  # atno 10718 bound_to 10713
  154.7398  135.5016  153.9104 H   0  0  0  0  0  0  0  0  0  0  0  0  # atno 10763 bound_to 10752
  153.1032  135.6690  153.9643 H   0  0  0  0  0  0  0  0  0  0  0  0  # atno 10764 bound_to 10752
  153.9423  135.3066  155.3421 H   0  0  0  0  0  0  0  0  0  0  0  0  # atno 10765 bound_to 10752
  139.9145  134.9628  156.7650 H   0  0  0  0  0  0  0  0  0  0  0  0  # atno 11005 bound_to 11000
  146.3458  139.9454  142.8735 LP  0  0  0  0  0  0  0  0  0  0  0  0  # atno 17320 bound_to 7965
  145.2106  140.9894  143.4103 LP  0  0  0  0  0  0  0  0  0  0  0  0  # atno 17321 bound_to 7965
  140.7600  143.5915  150.8791 LP  0  0  0  0  0  0  0  0  0  0  0  0  # atno 17342 bound_to 10162
  139.9576  143.6200  152.3011 LP  0  0  0  0  0  0  0  0  0  0  0  0  # atno 17343 bound_to 10162
  156.0482  130.5555  150.8929 LP  0  0  0  0  0  0  0  0  0  0  0  0  # atno 17370 bound_to 10713
  157.5895  131.0945  150.9141 LP  0  0  0  0  0  0  0  0  0  0  0  0  # atno 17371 bound_to 10713
  140.6667  133.9596  155.7834 LP  0  0  0  0  0  0  0  0  0  0  0  0  # atno 17394 bound_to 11000
  141.0606  134.0352  157.3663 LP  0  0  0  0  0  0  0  0  0  0  0  0  # atno 17395 bound_to 11000

$$$$
