AV-unprocessed.smi:696|AV-procd|sdf|3388|dock4
  -GOLD-   22720 0363D 1   1.00000     0.00000
 Structure written by MMmdl.
 37 38  0  0  0  0  0  0  0  0  2 V2000
  152.7115  139.6152  157.5157 O   0  0  0  0  0  0  0  0  0  0  0  0
  151.9015  140.3369  158.0989 C   0  0  0  0  0  0  0  0  0  0  0  0
  150.6273  139.9804  158.3240 N   0  0  0  0  0  0  0  0  0  0  0  0
  150.0268  138.7127  157.9247 C   0  0  0  0  0  0  0  0  0  0  0  0
  150.3136  137.6031  158.9527 C   0  0  0  0  0  0  0  0  0  0  0  0
  149.0417  136.9745  159.4524 C   0  0  0  0  0  0  0  0  0  0  0  0
  148.1077  137.5684  160.0969 N   0  0  0  0  0  0  0  0  0  0  0  0
  147.2172  136.5861  160.3117 N   0  0  0  0  0  0  0  0  0  0  0  0
  147.6260  135.4240  159.7968 C   0  0  0  0  0  0  0  0  0  0  0  0
  146.9774  134.3826  159.8703 O   0  0  0  0  0  0  0  0  0  0  0  0
  148.8219  135.6518  159.2251 N   0  5  0  0  0  0  0  0  0  0  0  0
  152.3284  141.7221  158.6075 C   0  0  0  0  0  0  0  0  0  0  0  0
  152.0721  141.8324  160.1288 C   0  0  0  0  0  0  0  0  0  0  0  0
  152.8507  142.9841  160.7875 C   0  0  0  0  0  0  0  0  0  0  0  0
  152.1484  144.3537  160.7710 C   0  0  0  0  0  0  0  0  0  0  0  0
  151.3582  144.7097  159.4990 C   0  0  0  0  0  0  0  0  0  0  0  0
  151.9999  144.2637  158.1753 C   0  0  0  0  0  0  0  0  0  0  0  0
  151.6264  142.8227  157.7841 C   0  0  0  0  0  0  0  0  0  0  0  0
  146.3616  136.7756  160.8125 H   0  0  0  0  0  0  0  0  0  0  0  0
  150.0297  140.6326  158.8105 H   0  0  0  0  0  0  0  0  0  0  0  0
  148.9513  138.8695  157.8325 H   0  0  0  0  0  0  0  0  0  0  0  0
  150.3839  138.4248  156.9341 H   0  0  0  0  0  0  0  0  0  0  0  0
  150.9447  136.8345  158.5047 H   0  0  0  0  0  0  0  0  0  0  0  0
  150.8810  138.0108  159.7907 H   0  0  0  0  0  0  0  0  0  0  0  0
  153.4027  141.8119  158.4375 H   0  0  0  0  0  0  0  0  0  0  0  0
  151.0060  141.9156  160.3449 H   0  0  0  0  0  0  0  0  0  0  0  0
  152.3974  140.9059  160.6052 H   0  0  0  0  0  0  0  0  0  0  0  0
  153.0502  142.7252  161.8280 H   0  0  0  0  0  0  0  0  0  0  0  0
  153.8340  143.0717  160.3241 H   0  0  0  0  0  0  0  0  0  0  0  0
  151.4659  144.4143  161.6196 H   0  0  0  0  0  0  0  0  0  0  0  0
  152.9019  145.1217  160.9497 H   0  0  0  0  0  0  0  0  0  0  0  0
  150.3499  144.2995  159.5687 H   0  0  0  0  0  0  0  0  0  0  0  0
  151.2244  145.7919  159.4810 H   0  0  0  0  0  0  0  0  0  0  0  0
  151.6327  144.9228  157.3878 H   0  0  0  0  0  0  0  0  0  0  0  0
  153.0817  144.4000  158.1964 H   0  0  0  0  0  0  0  0  0  0  0  0
  151.8836  142.6829  156.7328 H   0  0  0  0  0  0  0  0  0  0  0  0
  150.5430  142.7037  157.8373 H   0  0  0  0  0  0  0  0  0  0  0  0
  1  2  2  0  0  0  0
  2  3  1  0  0  0  0
  2 12  1  0  0  0  0
  3  4  1  0  0  0  0
  3 20  1  0  0  0  0
  4  5  1  0  0  0  0
  4 21  1  0  0  0  0
  4 22  1  0  0  0  0
  5  6  1  0  0  0  0
  5 23  1  0  0  0  0
  5 24  1  0  0  0  0
  6 11  1  0  0  0  0
  6  7  2  0  0  0  0
  7  8  1  0  0  0  0
  8 19  1  0  0  0  0
  8  9  1  0  0  0  0
  9 10  2  0  0  0  0
  9 11  1  0  0  0  0
 12 18  1  0  0  0  0
 12 13  1  0  0  0  0
 12 25  1  0  0  0  0
 13 14  1  0  0  0  0
 13 26  1  0  0  0  0
 13 27  1  0  0  0  0
 14 15  1  0  0  0  0
 14 28  1  0  0  0  0
 14 29  1  0  0  0  0
 15 16  1  0  0  0  0
 15 30  1  0  0  0  0
 15 31  1  0  0  0  0
 16 17  1  0  0  0  0
 16 32  1  0  0  0  0
 16 33  1  0  0  0  0
 17 18  1  0  0  0  0
 17 34  1  0  0  0  0
 17 35  1  0  0  0  0
 18 36  1  0  0  0  0
 18 37  1  0  0  0  0
M  CHG  1  11  -1
M  END
> <s_m_source_file>
AV-unprocessed.smi

> <i_m_source_file_index>
696

> <i_lp_mmshare_version>
43012

> <i_f3d_flags>
0

> <s_epik_input>
W0NIMl0xW0NIMl1bQ0gyXVtDSDJdW0NIMl1bQ0gyXVtDSF0xQyg9TylbTkhdW0NIMl1bQ0gyXWMybltuSF1jKD1PKVtuSF0y

> <s_epik_cmdline>
J2VwaWtfcHl0aG9uJywgJy1waCcsICc3LjAnLCAnLXRuJywgJzgnLCAnLW1hJywgJzIwMCcsICctbWV0YWxfYmluZGluZycsICctaW1hZScsICc8aW5maWxlLm1hZT4nLCAnLW9tYWUnLCAnPG91dGZpbGUubWFlPic=

> <r_lp_tautomer_probability>
1

> <r_epik_Ionization_Penalty>
13.715

> <r_epik_Ionization_Penalty_Charging>
13.715

> <r_epik_Ionization_Penalty_Neutral>
5.16152e-06

> <r_epik_State_Penalty>
4.03036

> <r_epik_Charging_Adjusted_Penalty>
17.7454

> <i_epik_Tot_Q>
-1

> <i_epik_Tot_abs_Q>
1

> <r_epik_Metal_State_Penalty>
0.449398

> <b_epik_Metal_Only>
1

> <s_lp_Force_Field>
OPLS_2005

> <r_lp_Energy>
29.0226

> <b_lp_Chiralities_Consistent>
1

> <s_lp_Variant>
AV-unprocessed.smi:696-3

> <Gold.Version>
5.8.1

> <Gold.Id.Protein>
6NUR|6NUR_protein|mol2

> <Gold.PLP.Fitness>
45.3637

> <Gold.PLP.PLP>
-34.5205

> <Gold.PLP.part.hbond>
-4.0000

> <Gold.PLP.part.metal>
0.0000

> <Gold.PLP.part.buried>
-4.9222

> <Gold.PLP.part.nonpolar>
-26.0708

> <Gold.PLP.part.repulsive>
0.3110

> <Gold.PLP.ligand.clash>
0.0000

> <Gold.PLP.ligand.torsion>
0.6270

> <Gold.PLP.Chemscore.Hbond>
4.0197

> <Gold.PLP.Chemscore.CHOScore>
0.0000

> <Gold.PLP.Chemscore.Metal>
0.0000

> <Gold.Chemscore.Hbonds>
donor molecule, donor type, donor heavy atom, donor atom, acceptor molecule, acceptor atom, score
      P1  H  6896  6909       L1    11  1.01
      P1  H  6931  6943       L1     7  0.35
      P1  H  6934  6947       L1     7  0.58
      P1  H  7997  8008       L1     1  1.00

> <Gold.PLP.Chemscore.Internal.Correction>
0.0382

> <Gold.Rescore>
     Score         DG    S(hbond)    S(metal)    S(lipo)     H(rot)  DE(clash)    DE(int)     intcor
     17.26     -17.90       2.54        0.00      82.82       2.25       0.00       0.64       ----

> <Gold.Chemscore.Fitness>
17.2601

> <Gold.Chemscore.DG>
-17.9006

> <Gold.Chemscore.ZeroCoef>
-5.4800

> <Gold.Chemscore.Hbond>
2.5424

> <Gold.Chemscore.Metal>
0.0000

> <Gold.Chemscore.Lipo>
82.8158

> <Gold.Chemscore.Internal_Hbond>
0.0000

> <Gold.Chemscore.DEClash>
0.0000

> <Gold.Chemscore.DEInternal>
0.6405

> <Gold.Chemscore.Rot>
2.2501

> <Gold.Chemscore.Internal.Correction>
   9.000000E+99

> <Gold.Chemscore.Hbonds>
donor molecule, donor type, donor heavy atom, donor atom, acceptor molecule, acceptor atom, score
      P1  H  6896  6909       L1    11  0.42
      P1  H  6931  6943       L1     7  0.15
      P1  H  6934  6947       L1     7  0.17
      P1  H  7997  8008       L1     1  0.92

> <Gold.Chemscore.Hbond.Weighted>
-8.4915

> <Gold.Chemscore.Metal.Weighted>
-0.0000

> <Gold.Chemscore.Lipo.Weighted>
-9.6895

> <Gold.Chemscore.Internal_Hbond.Weighted>
0.0000

> <Gold.Chemscore.DEClash.Weighted>
0.0000

> <Gold.Chemscore.DEInternal.Weighted>
0.6405

> <Gold.Chemscore.Rot.Weighted>
5.7603

> <Gold.Chemscore.Internal.Correction.Weighted>
   9.000000E+99

> <Gold.Protein.RotatedTorsions>
[ 6907 6896 6895 6894 ] final   35.40 input  -60.11 | X-H torsion
[ 7974 7965 7964 7962 ] final   89.76 input  175.53 | X-H torsion
[ 8008 7997 7996 7995 ] final  -49.76 input   59.86 | X-H torsion
[ 10167 10162 10161 10158 ] final  -26.66 input  -65.29 | X-H torsion
[ 10718 10713 10712 10709 ] final  -60.89 input   66.30 | X-H torsion
[ 10763 10752 10751 10750 ] final   89.90 input  -60.55 | X-H torsion
[ 11005 11000 10999 10996 ] final  106.22 input  -57.11 | X-H torsion

> <Gold.Protein.ActiveResidues>
 VAL166  LYS551  ARG553  GLY616  TRP617  ASP618  TYR619  PRO620  LYS621  CYS622 
 ASP623  PHE694  ASN695  SER759  ASP760  ASP761  ALA762  ILE779  LEU786  VAL792 
 PHE793  MET794  SER795  GLU796  ALA797  LYS798  CYS799  TRP800  GLU811  SER814 

> <Gold.Protein.RotatedAtoms>
  152.1157  134.9242  160.0564 H   0  0  0  0  0  0  0  0  0  0  0  0  # atno 6907 bound_to 6896
  152.0403  133.3969  159.4342 H   0  0  0  0  0  0  0  0  0  0  0  0  # atno 6908 bound_to 6896
  150.6846  134.3343  159.4884 H   0  0  0  0  0  0  0  0  0  0  0  0  # atno 6909 bound_to 6896
  145.5281  139.2282  143.2634 H   0  0  0  0  0  0  0  0  0  0  0  0  # atno 7974 bound_to 7965
  154.4049  140.1289  156.4555 H   0  0  0  0  0  0  0  0  0  0  0  0  # atno 8008 bound_to 7997
  155.7325  140.3491  155.5046 H   0  0  0  0  0  0  0  0  0  0  0  0  # atno 8009 bound_to 7997
  155.9114  140.1036  157.1266 H   0  0  0  0  0  0  0  0  0  0  0  0  # atno 8010 bound_to 7997
  140.7281  143.4159  151.1029 H   0  0  0  0  0  0  0  0  0  0  0  0  # atno 10167 bound_to 10162
  156.0959  130.4193  150.0918 H   0  0  0  0  0  0  0  0  0  0  0  0  # atno 10718 bound_to 10713
  153.1919  135.4453  155.0160 H   0  0  0  0  0  0  0  0  0  0  0  0  # atno 10763 bound_to 10752
  154.8095  135.3288  154.7344 H   0  0  0  0  0  0  0  0  0  0  0  0  # atno 10764 bound_to 10752
  153.7797  135.6978  153.4946 H   0  0  0  0  0  0  0  0  0  0  0  0  # atno 10765 bound_to 10752
  139.8811  134.9362  156.5632 H   0  0  0  0  0  0  0  0  0  0  0  0  # atno 11005 bound_to 11000
  146.2062  140.6096  142.9080 LP  0  0  0  0  0  0  0  0  0  0  0  0  # atno 17320 bound_to 7965
  144.7640  140.5488  143.6716 LP  0  0  0  0  0  0  0  0  0  0  0  0  # atno 17321 bound_to 7965
  139.7799  143.8371  152.3135 LP  0  0  0  0  0  0  0  0  0  0  0  0  # atno 17342 bound_to 10162
  139.8318  144.7250  150.9440 LP  0  0  0  0  0  0  0  0  0  0  0  0  # atno 17343 bound_to 10162
  156.8917  130.9590  151.3587 LP  0  0  0  0  0  0  0  0  0  0  0  0  # atno 17370 bound_to 10713
  157.6120  130.8590  149.8966 LP  0  0  0  0  0  0  0  0  0  0  0  0  # atno 17371 bound_to 10713
  140.8153  133.8396  155.8847 LP  0  0  0  0  0  0  0  0  0  0  0  0  # atno 17394 bound_to 11000
  140.9468  134.1830  157.4757 LP  0  0  0  0  0  0  0  0  0  0  0  0  # atno 17395 bound_to 11000

$$$$
