AV-unprocessed.smi:837|AV-procd|sdf|3894|dock2
  -GOLD-   22720 1353D 1   1.00000     0.00000
 Structure written by MMmdl.
 49 51  0  0  0  0  0  0  0  0  1 V2000
  146.7176  133.5390  152.6703 C   0  0  0  0  0  0  0  0  0  0  0  0
  145.7322  132.8891  151.6757 C   0  0  2  0  0  0  0  0  0  0  0  0
  146.3793  132.7484  150.2808 C   0  0  0  0  0  0  0  0  0  0  0  0
  145.4527  132.0198  149.2948 C   0  0  0  0  0  0  0  0  0  0  0  0
  144.0901  132.7177  149.1831 C   0  0  0  0  0  0  0  0  0  0  0  0
  143.4257  132.8664  150.5634 C   0  0  0  0  0  0  0  0  0  0  0  0
  144.3317  133.5768  151.6006 C   0  0  1  0  0  0  0  0  0  0  0  0
  143.6788  133.5793  152.8985 N   0  0  0  0  0  0  0  0  0  0  0  0
  143.4075  134.8092  153.3520 C   0  0  0  0  0  0  0  0  0  0  0  0
  142.8717  135.0654  154.4292 O   0  0  0  0  0  0  0  0  0  0  0  0
  143.8296  135.6988  152.4367 N   0  0  0  0  0  0  0  0  0  0  0  0
  143.7532  137.1564  152.6015 C   0  0  0  0  0  0  0  0  0  0  0  0
  145.0558  137.7795  153.1255 C   0  0  0  0  0  0  0  0  0  0  0  0
  145.4892  137.5025  154.2455 O   0  0  0  0  0  0  0  0  0  0  0  0
  145.6684  138.6361  152.2949 N   0  0  0  0  0  0  0  0  0  0  0  0
  146.9077  139.3454  152.5899 C   0  0  0  0  0  0  0  0  0  0  0  0
  146.7739  140.2127  153.8520 C   0  0  0  0  0  0  0  0  0  0  0  0
  148.1095  140.4395  154.5321 C   0  0  0  0  0  0  0  0  0  0  0  0
  148.1995  141.2113  155.7087 C   0  0  0  0  0  0  0  0  0  0  0  0
  149.4615  141.3905  156.3071 C   0  0  0  0  0  0  0  0  0  0  0  0
  150.5824  140.7875  155.7021 C   0  0  0  0  0  0  0  0  0  0  0  0
  150.5079  140.0461  154.5758 N   0  0  0  0  0  0  0  0  0  0  0  0
  149.2940  139.8797  154.0078 C   0  0  0  0  0  0  0  0  0  0  0  0
  144.3847  135.0900  151.3799 C   0  0  0  0  0  0  0  0  0  0  0  0
  144.8755  135.6373  150.3922 O   0  0  0  0  0  0  0  0  0  0  0  0
  146.9934  134.5493  152.3667 H   0  0  0  0  0  0  0  0  0  0  0  0
  147.6380  132.9587  152.7387 H   0  0  0  0  0  0  0  0  0  0  0  0
  146.2989  133.5959  153.6751 H   0  0  0  0  0  0  0  0  0  0  0  0
  145.5619  131.8757  152.0433 H   0  0  0  0  0  0  0  0  0  0  0  0
  146.6422  133.7285  149.8824 H   0  0  0  0  0  0  0  0  0  0  0  0
  147.3165  132.1968  150.3629 H   0  0  0  0  0  0  0  0  0  0  0  0
  145.9238  131.9665  148.3130 H   0  0  0  0  0  0  0  0  0  0  0  0
  145.3086  130.9899  149.6239 H   0  0  0  0  0  0  0  0  0  0  0  0
  144.2142  133.6945  148.7156 H   0  0  0  0  0  0  0  0  0  0  0  0
  143.4380  132.1471  148.5211 H   0  0  0  0  0  0  0  0  0  0  0  0
  142.4806  133.4005  150.4517 H   0  0  0  0  0  0  0  0  0  0  0  0
  143.1638  131.8748  150.9354 H   0  0  0  0  0  0  0  0  0  0  0  0
  143.4677  132.7307  153.4031 H   0  0  0  0  0  0  0  0  0  0  0  0
  143.4948  137.6233  151.6493 H   0  0  0  0  0  0  0  0  0  0  0  0
  142.9441  137.4143  153.2869 H   0  0  0  0  0  0  0  0  0  0  0  0
  145.2460  138.8094  151.3941 H   0  0  0  0  0  0  0  0  0  0  0  0
  147.7291  138.6348  152.6985 H   0  0  0  0  0  0  0  0  0  0  0  0
  147.1511  139.9721  151.7314 H   0  0  0  0  0  0  0  0  0  0  0  0
  146.3365  141.1792  153.5981 H   0  0  0  0  0  0  0  0  0  0  0  0
  146.0922  139.7445  154.5636 H   0  0  0  0  0  0  0  0  0  0  0  0
  147.3184  141.6570  156.1469 H   0  0  0  0  0  0  0  0  0  0  0  0
  149.5679  141.9754  157.2086 H   0  0  0  0  0  0  0  0  0  0  0  0
  151.5650  140.9035  156.1349 H   0  0  0  0  0  0  0  0  0  0  0  0
  149.2675  139.2799  153.1100 H   0  0  0  0  0  0  0  0  0  0  0  0
  1  2  1  0  0  0  0
  1 26  1  0  0  0  0
  1 27  1  0  0  0  0
  1 28  1  0  0  0  0
  2  7  1  0  0  0  0
  2  3  1  0  0  0  0
  2 29  1  0  0  0  0
  3  4  1  0  0  0  0
  3 30  1  0  0  0  0
  3 31  1  0  0  0  0
  4  5  1  0  0  0  0
  4 32  1  0  0  0  0
  4 33  1  0  0  0  0
  5  6  1  0  0  0  0
  5 34  1  0  0  0  0
  5 35  1  0  0  0  0
  6  7  1  0  0  0  0
  6 36  1  0  0  0  0
  6 37  1  0  0  0  0
  7 24  1  0  0  0  0
  7  8  1  0  0  0  0
  8  9  1  0  0  0  0
  8 38  1  0  0  0  0
  9 10  2  0  0  0  0
  9 11  1  0  0  0  0
 11 12  1  0  0  0  0
 11 24  1  0  0  0  0
 12 13  1  0  0  0  0
 12 39  1  0  0  0  0
 12 40  1  0  0  0  0
 13 14  2  0  0  0  0
 13 15  1  0  0  0  0
 15 16  1  0  0  0  0
 15 41  1  0  0  0  0
 16 17  1  0  0  0  0
 16 42  1  0  0  0  0
 16 43  1  0  0  0  0
 17 18  1  0  0  0  0
 17 44  1  0  0  0  0
 17 45  1  0  0  0  0
 18 23  1  0  0  0  0
 18 19  2  0  0  0  0
 19 20  1  0  0  0  0
 19 46  1  0  0  0  0
 20 21  2  0  0  0  0
 20 47  1  0  0  0  0
 21 22  1  0  0  0  0
 21 48  1  0  0  0  0
 22 23  2  0  0  0  0
 23 49  1  0  0  0  0
 24 25  2  0  0  0  0
M  END
> <s_m_source_file>
AV-unprocessed.smi

> <i_m_source_file_index>
837

> <i_lp_mmshare_version>
43012

> <i_f3d_flags>
0

> <s_epik_input>
W0NIMl0xW0NIMl1bQ0gyXVtDSDJdW0NAQEhdKFtDSDNdKVtDQEBdMTJbTkhdQyg9TylOKEMyPU8pW0NIMl1DKD1PKVtOSF1bQ0gyXVtDSDJdYzNbY0hdW2NIXVtjSF1uW2NIXTM=

> <s_epik_cmdline>
J2VwaWtfcHl0aG9uJywgJy1waCcsICc3LjAnLCAnLXRuJywgJzgnLCAnLW1hJywgJzIwMCcsICctbWV0YWxfYmluZGluZycsICctaW1hZScsICc8aW5maWxlLm1hZT4nLCAnLW9tYWUnLCAnPG91dGZpbGUubWFlPic=

> <r_lp_tautomer_probability>
1

> <r_epik_Ionization_Penalty>
0.0127837

> <r_epik_Ionization_Penalty_Charging>
0

> <r_epik_Ionization_Penalty_Neutral>
0.0127837

> <r_epik_State_Penalty>
0.00987657

> <r_epik_Charging_Adjusted_Penalty>
0.00987657

> <i_epik_Tot_Q>
0

> <i_epik_Tot_abs_Q>
0

> <r_epik_Metal_State_Penalty>
0.0309865

> <b_epik_Metal_Only>
0

> <s_lp_Force_Field>
OPLS_2005

> <r_lp_Energy>
17.4759

> <b_lp_Chiralities_Consistent>
1

> <s_lp_Variant>
AV-unprocessed.smi:837-3

> <Gold.Version>
5.8.1

> <Gold.Id.Protein>
6NUR|6NUR_protein|mol2

> <Gold.PLP.Fitness>
53.0871

> <Gold.PLP.PLP>
-42.4874

> <Gold.PLP.part.hbond>
-4.0000

> <Gold.PLP.part.metal>
0.0000

> <Gold.PLP.part.buried>
1.0052

> <Gold.PLP.part.nonpolar>
-40.1228

> <Gold.PLP.part.repulsive>
0.7152

> <Gold.PLP.ligand.clash>
0.0000

> <Gold.PLP.ligand.torsion>
0.4842

> <Gold.PLP.Chemscore.Hbond>
2.9588

> <Gold.PLP.Chemscore.CHOScore>
0.8833

> <Gold.PLP.Chemscore.Metal>
0.0000

> <Gold.Chemscore.Hbonds>
donor molecule, donor type, donor heavy atom, donor atom, acceptor molecule, acceptor atom, score
      L1  H     8    38       P1 10957  1.00
      L1  H    15    41       P1 10171  0.84
      P1  H  7989  7998       L1    22  1.00
      L1  C    23    49       P1  7957  0.90

> <Gold.PLP.Chemscore.Internal.Correction>
0.0420

> <Gold.Rescore>
     Score         DG    S(hbond)    S(metal)    S(lipo)     H(rot)  DE(clash)    DE(int)     intcor
     18.87     -20.16       2.26        0.00     101.55       1.86       0.79       0.51       ----

> <Gold.Chemscore.Fitness>
18.8713

> <Gold.Chemscore.DG>
-20.1635

> <Gold.Chemscore.ZeroCoef>
-5.4800

> <Gold.Chemscore.Hbond>
2.2610

> <Gold.Chemscore.Metal>
0.0000

> <Gold.Chemscore.Lipo>
101.5507

> <Gold.Chemscore.Internal_Hbond>
0.0000

> <Gold.Chemscore.DEClash>
0.7871

> <Gold.Chemscore.DEInternal>
0.5051

> <Gold.Chemscore.Rot>
1.8553

> <Gold.Chemscore.Internal.Correction>
   9.000000E+99

> <Gold.Chemscore.Hbonds>
donor molecule, donor type, donor heavy atom, donor atom, acceptor molecule, acceptor atom, score
      L1  H     8    38       P1 10957  0.54
      L1  H    15    41       P1 10171  0.82
      P1  H  7989  7998       L1    22  0.31

> <Gold.Chemscore.Hbond.Weighted>
-7.5517

> <Gold.Chemscore.Metal.Weighted>
-0.0000

> <Gold.Chemscore.Lipo.Weighted>
-11.8814

> <Gold.Chemscore.Internal_Hbond.Weighted>
0.0000

> <Gold.Chemscore.DEClash.Weighted>
0.7871

> <Gold.Chemscore.DEInternal.Weighted>
0.5051

> <Gold.Chemscore.Rot.Weighted>
4.7497

> <Gold.Chemscore.Internal.Correction.Weighted>
   9.000000E+99

> <Gold.Protein.RotatedTorsions>
[ 6907 6896 6895 6894 ] final   -9.50 input  -60.11 | X-H torsion
[ 7974 7965 7964 7962 ] final  -68.03 input  175.53 | X-H torsion
[ 8008 7997 7996 7995 ] final -124.89 input   59.86 | X-H torsion
[ 10167 10162 10161 10158 ] final  -25.96 input  -65.29 | X-H torsion
[ 10718 10713 10712 10709 ] final  153.28 input   66.30 | X-H torsion
[ 10763 10752 10751 10750 ] final  113.37 input  -60.55 | X-H torsion
[ 11005 11000 10999 10996 ] final   -2.16 input  -57.11 | X-H torsion

> <Gold.Protein.ActiveResidues>
 VAL166  LYS551  ARG553  GLY616  TRP617  ASP618  TYR619  PRO620  LYS621  CYS622 
 ASP623  PHE694  ASN695  SER759  ASP760  ASP761  ALA762  ILE779  LEU786  VAL792 
 PHE793  MET794  SER795  GLU796  ALA797  LYS798  CYS799  TRP800  GLU811  SER814 

> <Gold.Protein.RotatedAtoms>
  151.4168  135.0992  159.9601 H   0  0  0  0  0  0  0  0  0  0  0  0  # atno 6907 bound_to 6896
  152.5001  133.8744  159.7325 H   0  0  0  0  0  0  0  0  0  0  0  0  # atno 6908 bound_to 6896
  150.9252  133.6775  159.2851 H   0  0  0  0  0  0  0  0  0  0  0  0  # atno 6909 bound_to 6896
  145.7217  140.9035  143.0627 H   0  0  0  0  0  0  0  0  0  0  0  0  # atno 7974 bound_to 7965
  155.2044  140.0417  157.2923 H   0  0  0  0  0  0  0  0  0  0  0  0  # atno 8008 bound_to 7997
  154.6053  140.2463  155.7710 H   0  0  0  0  0  0  0  0  0  0  0  0  # atno 8009 bound_to 7997
  156.2346  140.2926  156.0289 H   0  0  0  0  0  0  0  0  0  0  0  0  # atno 8010 bound_to 7997
  140.7284  143.4219  151.0937 H   0  0  0  0  0  0  0  0  0  0  0  0  # atno 10167 bound_to 10162
  157.2468  131.0770  151.1756 H   0  0  0  0  0  0  0  0  0  0  0  0  # atno 10718 bound_to 10713
  153.4916  135.3657  155.2494 H   0  0  0  0  0  0  0  0  0  0  0  0  # atno 10763 bound_to 10752
  154.8752  135.3978  154.3583 H   0  0  0  0  0  0  0  0  0  0  0  0  # atno 10764 bound_to 10752
  153.4203  135.7080  153.6364 H   0  0  0  0  0  0  0  0  0  0  0  0  # atno 10765 bound_to 10752
  140.6552  133.9368  155.8404 H   0  0  0  0  0  0  0  0  0  0  0  0  # atno 11005 bound_to 11000
  144.6915  139.9211  143.7468 LP  0  0  0  0  0  0  0  0  0  0  0  0  # atno 17320 bound_to 7965
  146.0620  139.3613  143.0576 LP  0  0  0  0  0  0  0  0  0  0  0  0  # atno 17321 bound_to 7965
  139.7866  143.8279  152.3146 LP  0  0  0  0  0  0  0  0  0  0  0  0  # atno 17342 bound_to 10162
  139.8248  144.7280  150.9526 LP  0  0  0  0  0  0  0  0  0  0  0  0  # atno 17343 bound_to 10162
  157.3321  130.6990  149.6330 LP  0  0  0  0  0  0  0  0  0  0  0  0  # atno 17370 bound_to 10713
  155.9667  130.4304  150.4877 LP  0  0  0  0  0  0  0  0  0  0  0  0  # atno 17371 bound_to 10713
  141.0506  134.0490  157.3788 LP  0  0  0  0  0  0  0  0  0  0  0  0  # atno 17394 bound_to 11000
  139.9032  135.0171  156.7364 LP  0  0  0  0  0  0  0  0  0  0  0  0  # atno 17395 bound_to 11000

$$$$
