AV-unprocessed.smi:132|AV-procd|sdf|1164|dock3
  -GOLD-   2262018303D 1   1.00000     0.00000
 Structure written by MMmdl.
 41 44  0  0  0  0  0  0  0  0  1 V2000
  157.0611  139.9222  158.4650 O   0  0  0  0  0  0  0  0  0  0  0  0
  158.0412  140.4612  158.9820 C   0  0  0  0  0  0  0  0  0  0  0  0
  158.7922  141.5400  158.3491 C   0  0  0  0  0  0  0  0  0  0  0  0
  158.4369  141.9689  157.1262 F   0  0  0  0  0  0  0  0  0  0  0  0
  159.8434  142.1157  158.9715 C   0  0  0  0  0  0  0  0  0  0  0  0
  160.2756  141.7380  160.2308 N   0  0  0  0  0  0  0  0  0  0  0  0
  161.4563  142.4219  160.8795 C   0  0  1  0  0  0  0  0  0  0  0  0
  162.6261  141.4451  161.0463 C   0  0  0  0  0  0  0  0  0  0  0  0
  163.8081  142.3158  160.6789 C   0  0  0  0  0  0  0  0  0  0  0  0
  163.2084  143.2092  159.6004 C   0  0  0  0  0  0  0  0  0  0  0  0
  161.8863  143.4715  160.0601 O   0  0  0  0  0  0  0  0  0  0  0  0
  159.6208  140.6886  160.9123 C   0  0  0  0  0  0  0  0  0  0  0  0
  159.9936  140.3288  162.0312 O   0  0  0  0  0  0  0  0  0  0  0  0
  158.5238  140.0780  160.2576 N   0  0  0  0  0  0  0  0  0  0  0  0
  157.8092  139.0184  160.9529 C   0  0  0  0  0  0  0  0  0  0  0  0
  156.3966  139.4193  161.2549 C   0  0  0  0  0  0  0  0  0  0  0  0
  155.4913  138.7132  161.9334 N   0  0  0  0  0  0  0  0  0  0  0  0
  154.3527  139.4859  161.9545 N   0  0  0  0  0  0  0  0  0  0  0  0
  154.6485  140.6057  161.2858 C   0  0  0  0  0  0  0  0  0  0  0  0
  153.7869  141.7540  161.0108 C   0  0  0  0  0  0  0  0  0  0  0  0
  153.3864  142.6254  162.0497 C   0  0  0  0  0  0  0  0  0  0  0  0
  152.5561  143.7290  161.7728 C   0  0  0  0  0  0  0  0  0  0  0  0
  152.1162  143.9691  160.4569 C   0  0  0  0  0  0  0  0  0  0  0  0
  151.0992  145.3213  160.1181 Cl  0  0  0  0  0  0  0  0  0  0  0  0
  152.5072  143.1036  159.4178 C   0  0  0  0  0  0  0  0  0  0  0  0
  153.3390  142.0010  159.6937 C   0  0  0  0  0  0  0  0  0  0  0  0
  155.9287  140.6215  160.8268 O   0  0  0  0  0  0  0  0  0  0  0  0
  160.3636  142.9060  158.4531 H   0  0  0  0  0  0  0  0  0  0  0  0
  161.1150  142.8569  161.8194 H   0  0  0  0  0  0  0  0  0  0  0  0
  162.6676  141.0469  162.0605 H   0  0  0  0  0  0  0  0  0  0  0  0
  162.5303  140.6185  160.3405 H   0  0  0  0  0  0  0  0  0  0  0  0
  164.1149  142.9157  161.5366 H   0  0  0  0  0  0  0  0  0  0  0  0
  164.6697  141.7452  160.3313 H   0  0  0  0  0  0  0  0  0  0  0  0
  163.7714  144.1319  159.4584 H   0  0  0  0  0  0  0  0  0  0  0  0
  163.1697  142.6839  158.6456 H   0  0  0  0  0  0  0  0  0  0  0  0
  157.8374  138.1263  160.3247 H   0  0  0  0  0  0  0  0  0  0  0  0
  158.3414  138.7605  161.8690 H   0  0  0  0  0  0  0  0  0  0  0  0
  153.7142  142.4600  163.0657 H   0  0  0  0  0  0  0  0  0  0  0  0
  152.2576  144.3916  162.5719 H   0  0  0  0  0  0  0  0  0  0  0  0
  152.1702  143.2837  158.4074 H   0  0  0  0  0  0  0  0  0  0  0  0
  153.6293  141.3461  158.8852 H   0  0  0  0  0  0  0  0  0  0  0  0
  1  2  2  0  0  0  0
  2 14  1  0  0  0  0
  2  3  1  0  0  0  0
  3  4  1  0  0  0  0
  3  5  2  0  0  0  0
  5  6  1  0  0  0  0
  5 28  1  0  0  0  0
  6  7  1  0  0  0  0
  6 12  1  0  0  0  0
  7 11  1  0  0  0  0
  7  8  1  0  0  0  0
  7 29  1  0  0  0  0
  8  9  1  0  0  0  0
  8 30  1  0  0  0  0
  8 31  1  0  0  0  0
  9 10  1  0  0  0  0
  9 32  1  0  0  0  0
  9 33  1  0  0  0  0
 10 11  1  0  0  0  0
 10 34  1  0  0  0  0
 10 35  1  0  0  0  0
 12 13  2  0  0  0  0
 12 14  1  0  0  0  0
 14 15  1  0  0  0  0
 15 16  1  0  0  0  0
 15 36  1  0  0  0  0
 15 37  1  0  0  0  0
 16 27  1  0  0  0  0
 16 17  2  0  0  0  0
 17 18  1  0  0  0  0
 18 19  2  0  0  0  0
 19 20  1  0  0  0  0
 19 27  1  0  0  0  0
 20 26  1  0  0  0  0
 20 21  2  0  0  0  0
 21 22  1  0  0  0  0
 21 38  1  0  0  0  0
 22 23  2  0  0  0  0
 22 39  1  0  0  0  0
 23 24  1  0  0  0  0
 23 25  1  0  0  0  0
 25 26  2  0  0  0  0
 25 40  1  0  0  0  0
 26 41  1  0  0  0  0
M  END
> <s_m_source_file>
AV-unprocessed.smi

> <i_m_source_file_index>
132

> <i_lp_mmshare_version>
43012

> <i_f3d_flags>
0

> <s_epik_input>
TzFbQ0gyXVtDSDJdW0NIMl1bQ0BIXTFuKFtjSF1jKEYpYzI9TyljKD1PKW4yW0NIMl1jM25uYyhvMyktYzRbY0hdW2NIXWMoQ2wpW2NIXVtjSF00

> <s_epik_cmdline>
J2VwaWtfcHl0aG9uJywgJy1waCcsICc3LjAnLCAnLXRuJywgJzgnLCAnLW1hJywgJzIwMCcsICctbWV0YWxfYmluZGluZycsICctaW1hZScsICc8aW5maWxlLm1hZT4nLCAnLW9tYWUnLCAnPG91dGZpbGUubWFlPic=

> <r_lp_tautomer_probability>
1

> <r_epik_Ionization_Penalty>
2.5553e-09

> <r_epik_Ionization_Penalty_Charging>
2.54231e-09

> <r_epik_Ionization_Penalty_Neutral>
1.29923e-11

> <r_epik_State_Penalty>
-0

> <r_epik_Charging_Adjusted_Penalty>
2.54231e-09

> <i_epik_Tot_Q>
0

> <i_epik_Tot_abs_Q>
0

> <r_epik_Metal_State_Penalty>
-0

> <b_epik_Metal_Only>
0

> <s_epik_Chemistry_Notes>
This compound contains an acetal/aminal-like group ( X-CH(R)-Y where X, Y are N, S, or O) that may be acid/base labile, releasing an aldehyde.

> <s_lp_Force_Field>
OPLS_2005

> <r_lp_Energy>
32.8563

> <b_lp_Chiralities_Consistent>
1

> <s_lp_Variant>
AV-unprocessed.smi:132-2

> <Gold.Version>
5.8.1

> <Gold.Id.Protein>
6NUR|6NUR_protein|mol2

> <Gold.PLP.Fitness>
50.5952

> <Gold.PLP.PLP>
-50.3490

> <Gold.PLP.part.hbond>
-3.0000

> <Gold.PLP.part.metal>
0.0000

> <Gold.PLP.part.buried>
-6.6618

> <Gold.PLP.part.nonpolar>
-40.8538

> <Gold.PLP.part.repulsive>
0.0880

> <Gold.PLP.ligand.clash>
0.0000

> <Gold.PLP.ligand.torsion>
1.3905

> <Gold.PLP.Chemscore.Hbond>
1.0000

> <Gold.PLP.Chemscore.CHOScore>
0.0000

> <Gold.PLP.Chemscore.Metal>
0.0000

> <Gold.Chemscore.Hbonds>
donor molecule, donor type, donor heavy atom, donor atom, acceptor molecule, acceptor atom, score
      P1  H  7997  8009       L1     1  1.00

> <Gold.PLP.Chemscore.Internal.Correction>
0.0271

> <Gold.Rescore>
     Score         DG    S(hbond)    S(metal)    S(lipo)     H(rot)  DE(clash)    DE(int)     intcor
      9.95     -16.49       0.99        0.00     103.12       1.70       0.17       6.37       ----

> <Gold.Chemscore.Fitness>
9.9515

> <Gold.Chemscore.DG>
-16.4883

> <Gold.Chemscore.ZeroCoef>
-5.4800

> <Gold.Chemscore.Hbond>
0.9850

> <Gold.Chemscore.Metal>
0.0000

> <Gold.Chemscore.Lipo>
103.1212

> <Gold.Chemscore.Internal_Hbond>
0.0000

> <Gold.Chemscore.DEClash>
0.1700

> <Gold.Chemscore.DEInternal>
6.3669

> <Gold.Chemscore.Rot>
1.6980

> <Gold.Chemscore.Internal.Correction>
   9.000000E+99

> <Gold.Chemscore.Hbonds>
donor molecule, donor type, donor heavy atom, donor atom, acceptor molecule, acceptor atom, score
      P1  H  7997  8009       L1     1  1.00

> <Gold.Chemscore.Hbond.Weighted>
-3.2900

> <Gold.Chemscore.Metal.Weighted>
-0.0000

> <Gold.Chemscore.Lipo.Weighted>
-12.0652

> <Gold.Chemscore.Internal_Hbond.Weighted>
0.0000

> <Gold.Chemscore.DEClash.Weighted>
0.1700

> <Gold.Chemscore.DEInternal.Weighted>
6.3669

> <Gold.Chemscore.Rot.Weighted>
4.3469

> <Gold.Chemscore.Internal.Correction.Weighted>
   9.000000E+99

> <Gold.Protein.RotatedTorsions>
[ 6907 6896 6895 6894 ] final   57.75 input  -60.11 | X-H torsion
[ 7974 7965 7964 7962 ] final  108.99 input  175.53 | X-H torsion
[ 8008 7997 7996 7995 ] final   67.80 input   59.86 | X-H torsion
[ 10167 10162 10161 10158 ] final -156.79 input  -65.29 | X-H torsion
[ 10718 10713 10712 10709 ] final   35.48 input   66.30 | X-H torsion
[ 10763 10752 10751 10750 ] final  -23.34 input  -60.55 | X-H torsion
[ 11005 11000 10999 10996 ] final  -49.13 input  -57.11 | X-H torsion

> <Gold.Protein.ActiveResidues>
 VAL166  LYS551  ARG553  GLY616  TRP617  ASP618  TYR619  PRO620  LYS621  CYS622 
 ASP623  PHE694  ASN695  SER759  ASP760  ASP761  ALA762  ILE779  LEU786  VAL792 
 PHE793  MET794  SER795  GLU796  ALA797  LYS798  CYS799  TRP800  GLU811  SER814 

> <Gold.Protein.RotatedAtoms>
  152.3760  134.6663  160.0159 H   0  0  0  0  0  0  0  0  0  0  0  0  # atno 6907 bound_to 6896
  151.6941  133.3305  159.3258 H   0  0  0  0  0  0  0  0  0  0  0  0  # atno 6908 bound_to 6896
  150.7710  134.6608  159.6383 H   0  0  0  0  0  0  0  0  0  0  0  0  # atno 6909 bound_to 6896
  145.2735  139.2658  143.3954 H   0  0  0  0  0  0  0  0  0  0  0  0  # atno 7974 bound_to 7965
  155.6985  140.3495  155.4923 H   0  0  0  0  0  0  0  0  0  0  0  0  # atno 8008 bound_to 7997
  155.9461  140.1110  157.1037 H   0  0  0  0  0  0  0  0  0  0  0  0  # atno 8009 bound_to 7997
  154.4112  140.1203  156.4978 H   0  0  0  0  0  0  0  0  0  0  0  0  # atno 8010 bound_to 7997
  139.6822  143.9561  152.2343 H   0  0  0  0  0  0  0  0  0  0  0  0  # atno 10167 bound_to 10162
  157.3232  130.7459  149.6798 H   0  0  0  0  0  0  0  0  0  0  0  0  # atno 10718 bound_to 10713
  153.6662  135.6974  153.5161 H   0  0  0  0  0  0  0  0  0  0  0  0  # atno 10763 bound_to 10752
  153.2593  135.4250  155.0877 H   0  0  0  0  0  0  0  0  0  0  0  0  # atno 10764 bound_to 10752
  154.8439  135.3551  154.6206 H   0  0  0  0  0  0  0  0  0  0  0  0  # atno 10765 bound_to 10752
  141.0741  133.6670  156.3541 H   0  0  0  0  0  0  0  0  0  0  0  0  # atno 11005 bound_to 11000
  146.3239  140.3184  142.8631 LP  0  0  0  0  0  0  0  0  0  0  0  0  # atno 17320 bound_to 7965
  144.9315  140.7979  143.5686 LP  0  0  0  0  0  0  0  0  0  0  0  0  # atno 17321 bound_to 7965
  139.9354  144.6715  150.8320 LP  0  0  0  0  0  0  0  0  0  0  0  0  # atno 17342 bound_to 10162
  140.7656  143.3280  151.2473 LP  0  0  0  0  0  0  0  0  0  0  0  0  # atno 17343 bound_to 10162
  155.9688  130.4217  150.4481 LP  0  0  0  0  0  0  0  0  0  0  0  0  # atno 17370 bound_to 10713
  157.2500  131.0544  151.2385 LP  0  0  0  0  0  0  0  0  0  0  0  0  # atno 17371 bound_to 10713
  140.5610  134.5934  157.5433 LP  0  0  0  0  0  0  0  0  0  0  0  0  # atno 17394 bound_to 11000
  139.9554  134.7544  156.0354 LP  0  0  0  0  0  0  0  0  0  0  0  0  # atno 17395 bound_to 11000

$$$$
