AV-unprocessed.smi:1688|AV-procd|sdf|6771|dock2
  -GOLD-   22720 7533D 1   1.00000     0.00000
 Structure written by MMmdl.
 36 38  0  0  0  0  0  0  0  0  2 V2000
  151.1817  144.0014  156.7927 O   0  0  0  0  0  0  0  0  0  0  0  0
  151.2902  143.2890  158.0116 C   0  0  0  0  0  0  0  0  0  0  0  0
  151.5728  141.8026  157.6693 C   0  0  0  0  0  0  0  0  0  0  0  0
  150.6632  141.2187  156.6688 N   0  0  0  0  0  0  0  0  0  0  0  0
  149.4226  141.6245  156.2822 C   0  0  0  0  0  0  0  0  0  0  0  0
  148.9828  140.7584  155.3284 N   0  3  0  0  0  0  0  0  0  0  0  0
  149.9516  139.7782  155.1068 C   0  0  0  0  0  0  0  0  0  0  0  0
  149.9629  138.6903  154.2392 C   0  0  0  0  0  0  0  0  0  0  0  0
  151.1135  137.8754  154.2608 C   0  0  0  0  0  0  0  0  0  0  0  0
  152.1931  138.1526  155.1242 C   0  0  0  0  0  0  0  0  0  0  0  0
  152.1699  139.2570  156.0013 C   0  0  0  0  0  0  0  0  0  0  0  0
  151.0317  140.0626  155.9697 C   0  0  0  0  0  0  0  0  0  0  0  0
  152.4783  143.8776  158.8088 C   0  0  0  0  0  0  0  0  0  0  0  0
  152.2368  145.3239  159.2766 C   0  0  0  0  0  0  0  0  0  0  0  0
  150.9357  145.4382  160.0821 C   0  0  0  0  0  0  0  0  0  0  0  0
  149.7417  144.9219  159.2680 C   0  0  0  0  0  0  0  0  0  0  0  0
  149.9650  143.4743  158.7938 C   0  0  0  0  0  0  0  0  0  0  0  0
  150.2914  143.9331  156.4840 H   0  0  0  0  0  0  0  0  0  0  0  0
  152.6014  141.6620  157.3347 H   0  0  0  0  0  0  0  0  0  0  0  0
  151.4694  141.1965  158.5703 H   0  0  0  0  0  0  0  0  0  0  0  0
  148.8865  142.4832  156.6600 H   0  0  0  0  0  0  0  0  0  0  0  0
  149.1358  138.4743  153.5788 H   0  0  0  0  0  0  0  0  0  0  0  0
  151.1688  137.0203  153.6027 H   0  0  0  0  0  0  0  0  0  0  0  0
  153.0585  137.5058  155.1125 H   0  0  0  0  0  0  0  0  0  0  0  0
  153.0041  139.4601  156.6559 H   0  0  0  0  0  0  0  0  0  0  0  0
  152.6609  143.2579  159.6879 H   0  0  0  0  0  0  0  0  0  0  0  0
  153.3921  143.8321  158.2148 H   0  0  0  0  0  0  0  0  0  0  0  0
  153.0777  145.6610  159.8835 H   0  0  0  0  0  0  0  0  0  0  0  0
  152.1947  145.9909  158.4147 H   0  0  0  0  0  0  0  0  0  0  0  0
  151.0245  144.8675  161.0074 H   0  0  0  0  0  0  0  0  0  0  0  0
  150.7678  146.4756  160.3724 H   0  0  0  0  0  0  0  0  0  0  0  0
  148.8334  144.9774  159.8685 H   0  0  0  0  0  0  0  0  0  0  0  0
  149.5788  145.5714  158.4070 H   0  0  0  0  0  0  0  0  0  0  0  0
  149.1129  143.1672  158.1868 H   0  0  0  0  0  0  0  0  0  0  0  0
  149.9701  142.8183  159.6651 H   0  0  0  0  0  0  0  0  0  0  0  0
  148.0859  140.8323  154.8653 H   0  0  0  0  0  0  0  0  0  0  0  0
  1  2  1  0  0  0  0
  1 18  1  0  0  0  0
  2 17  1  0  0  0  0
  2  3  1  0  0  0  0
  2 13  1  0  0  0  0
  3  4  1  0  0  0  0
  3 19  1  0  0  0  0
  3 20  1  0  0  0  0
  4 12  1  0  0  0  0
  4  5  1  0  0  0  0
  5  6  2  0  0  0  0
  5 21  1  0  0  0  0
  6  7  1  0  0  0  0
  6 36  1  0  0  0  0
  7 12  2  0  0  0  0
  7  8  1  0  0  0  0
  8  9  2  0  0  0  0
  8 22  1  0  0  0  0
  9 10  1  0  0  0  0
  9 23  1  0  0  0  0
 10 11  2  0  0  0  0
 10 24  1  0  0  0  0
 11 12  1  0  0  0  0
 11 25  1  0  0  0  0
 13 14  1  0  0  0  0
 13 26  1  0  0  0  0
 13 27  1  0  0  0  0
 14 15  1  0  0  0  0
 14 28  1  0  0  0  0
 14 29  1  0  0  0  0
 15 16  1  0  0  0  0
 15 30  1  0  0  0  0
 15 31  1  0  0  0  0
 16 17  1  0  0  0  0
 16 32  1  0  0  0  0
 16 33  1  0  0  0  0
 17 34  1  0  0  0  0
 17 35  1  0  0  0  0
M  CHG  1   6   1
M  END
> <s_m_source_file>
AV-unprocessed.smi

> <i_m_source_file_index>
1688

> <i_lp_mmshare_version>
43012

> <i_f3d_flags>
0

> <s_epik_input>
W0NIMl0xW0NIMl1bQ0gyXVtDSDJdW0NIMl1DMShbT0hdKVtDSDJdbihbY0hdbjIpYyhjMjMpW2NIXVtjSF1bY0hdW2NIXTM=

> <s_epik_cmdline>
J2VwaWtfcHl0aG9uJywgJy1waCcsICc3LjAnLCAnLXRuJywgJzgnLCAnLW1hJywgJzIwMCcsICctbWV0YWxfYmluZGluZycsICctaW1hZScsICc8aW5maWxlLm1hZT4nLCAnLW9tYWUnLCAnPG91dGZpbGUubWFlPic=

> <r_epik_Ionization_Penalty>
1.01013

> <r_epik_Ionization_Penalty_Charging>
1.01013

> <r_epik_Ionization_Penalty_Neutral>
4.42495e-08

> <r_epik_State_Penalty>
1.05948

> <r_epik_Charging_Adjusted_Penalty>
2.06961

> <i_epik_Tot_Q>
1

> <i_epik_Tot_abs_Q>
1

> <r_epik_Metal_State_Penalty>
5.0439

> <b_epik_Metal_Only>
0

> <s_lp_Force_Field>
OPLS_2005

> <r_lp_Energy>
19.8259

> <b_lp_Chiralities_Consistent>
1

> <s_lp_Variant>
AV-unprocessed.smi:1688-2

> <Gold.Version>
5.8.1

> <Gold.Id.Protein>
6NUR|6NUR_protein|mol2

> <Gold.PLP.Fitness>
44.4497

> <Gold.PLP.PLP>
-39.4256

> <Gold.PLP.part.hbond>
-1.0000

> <Gold.PLP.part.metal>
0.0000

> <Gold.PLP.part.buried>
-2.2620

> <Gold.PLP.part.nonpolar>
-36.5683

> <Gold.PLP.part.repulsive>
0.1040

> <Gold.PLP.ligand.clash>
0.0000

> <Gold.PLP.ligand.torsion>
0.3744

> <Gold.PLP.Chemscore.Hbond>
0.9920

> <Gold.PLP.Chemscore.CHOScore>
0.9310

> <Gold.PLP.Chemscore.Metal>
0.0000

> <Gold.Chemscore.Hbonds>
donor molecule, donor type, donor heavy atom, donor atom, acceptor molecule, acceptor atom, score
      L1  H     1    18       P1  8028  0.94
      L1  C     5    21       P1  8028  0.92

> <Gold.PLP.Chemscore.Internal.Correction>
0.0039

> <Gold.Rescore>
     Score         DG    S(hbond)    S(metal)    S(lipo)     H(rot)  DE(clash)    DE(int)     intcor
     17.37     -18.00       0.96        0.00     115.80       1.65       0.21       0.42       ----

> <Gold.Chemscore.Fitness>
17.3710

> <Gold.Chemscore.DG>
-18.0044

> <Gold.Chemscore.ZeroCoef>
-5.4800

> <Gold.Chemscore.Hbond>
0.9616

> <Gold.Chemscore.Metal>
0.0000

> <Gold.Chemscore.Lipo>
115.8037

> <Gold.Chemscore.Internal_Hbond>
0.0000

> <Gold.Chemscore.DEClash>
0.2104

> <Gold.Chemscore.DEInternal>
0.4230

> <Gold.Chemscore.Rot>
1.6548

> <Gold.Chemscore.Internal.Correction>
   9.000000E+99

> <Gold.Chemscore.Hbonds>
donor molecule, donor type, donor heavy atom, donor atom, acceptor molecule, acceptor atom, score
      L1  H     1    18       P1  8028  0.91

> <Gold.Chemscore.Hbond.Weighted>
-3.2118

> <Gold.Chemscore.Metal.Weighted>
-0.0000

> <Gold.Chemscore.Lipo.Weighted>
-13.5490

> <Gold.Chemscore.Internal_Hbond.Weighted>
0.0000

> <Gold.Chemscore.DEClash.Weighted>
0.2104

> <Gold.Chemscore.DEInternal.Weighted>
0.4230

> <Gold.Chemscore.Rot.Weighted>
4.2364

> <Gold.Chemscore.Internal.Correction.Weighted>
   9.000000E+99

> <Gold.Protein.RotatedTorsions>
[ 6907 6896 6895 6894 ] final  -26.88 input  -60.11 | X-H torsion
[ 7974 7965 7964 7962 ] final -151.04 input  175.53 | X-H torsion
[ 8008 7997 7996 7995 ] final  160.58 input   59.86 | X-H torsion
[ 10167 10162 10161 10158 ] final -141.15 input  -65.29 | X-H torsion
[ 10718 10713 10712 10709 ] final   99.33 input   66.30 | X-H torsion
[ 10763 10752 10751 10750 ] final -104.85 input  -60.55 | X-H torsion
[ 11005 11000 10999 10996 ] final   91.15 input  -57.11 | X-H torsion

> <Gold.Protein.ActiveResidues>
 VAL166  LYS551  ARG553  GLY616  TRP617  ASP618  TYR619  PRO620  LYS621  CYS622 
 ASP623  PHE694  ASN695  SER759  ASP760  ASP761  ALA762  ILE779  LEU786  VAL792 
 PHE793  MET794  SER795  GLU796  ALA797  LYS798  CYS799  TRP800  GLU811  SER814 

> <Gold.Protein.RotatedAtoms>
  151.1548  135.0244  159.8683 H   0  0  0  0  0  0  0  0  0  0  0  0  # atno 6907 bound_to 6896
  152.5452  134.1347  159.8464 H   0  0  0  0  0  0  0  0  0  0  0  0  # atno 6908 bound_to 6896
  151.1436  133.4908  159.2629 H   0  0  0  0  0  0  0  0  0  0  0  0  # atno 6909 bound_to 6896
  144.7873  140.4851  143.5797 H   0  0  0  0  0  0  0  0  0  0  0  0  # atno 7974 bound_to 7965
  156.2162  140.1800  156.7583 H   0  0  0  0  0  0  0  0  0  0  0  0  # atno 8008 bound_to 7997
  154.5795  140.0668  156.9113 H   0  0  0  0  0  0  0  0  0  0  0  0  # atno 8009 bound_to 7997
  155.2527  140.3330  155.4283 H   0  0  0  0  0  0  0  0  0  0  0  0  # atno 8010 bound_to 7997
  139.8213  143.7570  152.2666 H   0  0  0  0  0  0  0  0  0  0  0  0  # atno 10167 bound_to 10162
  157.6878  131.0666  150.4931 H   0  0  0  0  0  0  0  0  0  0  0  0  # atno 10718 bound_to 10713
  154.7907  135.4771  154.0045 H   0  0  0  0  0  0  0  0  0  0  0  0  # atno 10763 bound_to 10752
  153.1626  135.6811  153.8728 H   0  0  0  0  0  0  0  0  0  0  0  0  # atno 10764 bound_to 10752
  153.8336  135.3188  155.3398 H   0  0  0  0  0  0  0  0  0  0  0  0  # atno 10765 bound_to 10752
  139.8843  134.8657  156.3386 H   0  0  0  0  0  0  0  0  0  0  0  0  # atno 11005 bound_to 11000
  145.5889  139.1494  143.3193 LP  0  0  0  0  0  0  0  0  0  0  0  0  # atno 17320 bound_to 7965
  146.2110  140.6015  142.9060 LP  0  0  0  0  0  0  0  0  0  0  0  0  # atno 17321 bound_to 7965
  139.7749  144.7464  151.0171 LP  0  0  0  0  0  0  0  0  0  0  0  0  # atno 17342 bound_to 10162
  140.7813  143.4604  151.0286 LP  0  0  0  0  0  0  0  0  0  0  0  0  # atno 17343 bound_to 10162
  156.5257  130.4172  149.6227 LP  0  0  0  0  0  0  0  0  0  0  0  0  # atno 17370 bound_to 10713
  156.3114  130.7231  151.2124 LP  0  0  0  0  0  0  0  0  0  0  0  0  # atno 17371 bound_to 10713
  140.9674  133.7349  156.0486 LP  0  0  0  0  0  0  0  0  0  0  0  0  # atno 17394 bound_to 11000
  140.7914  134.3613  157.5463 LP  0  0  0  0  0  0  0  0  0  0  0  0  # atno 17395 bound_to 11000

$$$$
