AV-unprocessed.smi:2986|AV-procd|sdf|11383|dock8
  -GOLD-   2272016303D 1   1.00000     0.00000
 Structure written by MMmdl.
 41 43  0  0  0  0  0  0  0  0  2 V2000
  148.7820  141.9575  153.4526 C   0  0  0  0  0  0  0  0  0  0  0  0
  150.1500  141.8063  153.7869 O   0  0  0  0  0  0  0  0  0  0  0  0
  150.3874  140.6753  154.6099 C   0  0  0  0  0  0  0  0  0  0  0  0
  149.8858  140.9546  156.0330 C   0  0  0  0  0  0  0  0  0  0  0  0
  150.9661  140.9243  157.0078 N   0  0  0  0  0  0  0  0  0  0  0  0
  151.7662  139.8811  157.3407 C   0  0  0  0  0  0  0  0  0  0  0  0
  151.5864  138.2745  156.6307 S   0  0  0  0  0  0  0  0  0  0  0  0
  150.9989  137.3606  158.0960 C   0  0  0  0  0  0  0  0  0  0  0  0
  149.5474  137.6685  158.4792 C   0  0  0  0  0  0  0  0  0  0  0  0
  149.1610  138.8380  158.4759 O   0  0  0  0  0  0  0  0  0  0  0  0
  148.8511  136.5405  158.7629 N   0  5  0  0  0  0  0  0  0  0  0  0
  147.8101  136.5938  159.6056 C   0  0  0  0  0  0  0  0  0  0  0  0
  147.0208  135.4924  160.0352 C   0  0  0  0  0  0  0  0  0  0  0  0
  146.1003  136.0723  160.8611 C   0  0  0  0  0  0  0  0  0  0  0  0
  144.9698  135.5236  161.6617 C   0  0  0  0  0  0  0  0  0  0  0  0
  146.3013  137.4162  160.9227 O   0  0  0  0  0  0  0  0  0  0  0  0
  147.3946  137.7427  160.1116 N   0  0  0  0  0  0  0  0  0  0  0  0
  152.7134  140.1433  158.2415 N   0  0  0  0  0  0  0  0  0  0  0  0
  152.4814  141.4680  158.5513 C   0  0  0  0  0  0  0  0  0  0  0  0
  153.1399  142.3265  159.4605 C   0  0  0  0  0  0  0  0  0  0  0  0
  152.7243  143.6662  159.6054 C   0  0  0  0  0  0  0  0  0  0  0  0
  151.6494  144.1666  158.8423 C   0  0  0  0  0  0  0  0  0  0  0  0
  150.9807  143.3279  157.9299 C   0  0  0  0  0  0  0  0  0  0  0  0
  151.3958  141.9895  157.7931 C   0  0  0  0  0  0  0  0  0  0  0  0
  148.6541  142.8388  152.8242 H   0  0  0  0  0  0  0  0  0  0  0  0
  148.1700  142.0893  154.3455 H   0  0  0  0  0  0  0  0  0  0  0  0
  148.4131  141.0931  152.8994 H   0  0  0  0  0  0  0  0  0  0  0  0
  149.8733  139.8037  154.2022 H   0  0  0  0  0  0  0  0  0  0  0  0
  151.4538  140.4444  154.6292 H   0  0  0  0  0  0  0  0  0  0  0  0
  149.4049  141.9320  156.0744 H   0  0  0  0  0  0  0  0  0  0  0  0
  149.1222  140.2311  156.3121 H   0  0  0  0  0  0  0  0  0  0  0  0
  151.1482  136.2918  157.9396 H   0  0  0  0  0  0  0  0  0  0  0  0
  151.6386  137.6296  158.9365 H   0  0  0  0  0  0  0  0  0  0  0  0
  147.1187  134.4474  159.7822 H   0  0  0  0  0  0  0  0  0  0  0  0
  144.0433  135.5506  161.0884 H   0  0  0  0  0  0  0  0  0  0  0  0
  144.8217  136.1012  162.5743 H   0  0  0  0  0  0  0  0  0  0  0  0
  145.1626  134.4888  161.9456 H   0  0  0  0  0  0  0  0  0  0  0  0
  153.9634  141.9506  160.0490 H   0  0  0  0  0  0  0  0  0  0  0  0
  153.2333  144.3124  160.3052 H   0  0  0  0  0  0  0  0  0  0  0  0
  151.3379  145.1941  158.9581 H   0  0  0  0  0  0  0  0  0  0  0  0
  150.1579  143.7078  157.3432 H   0  0  0  0  0  0  0  0  0  0  0  0
  1  2  1  0  0  0  0
  1 25  1  0  0  0  0
  1 26  1  0  0  0  0
  1 27  1  0  0  0  0
  2  3  1  0  0  0  0
  3  4  1  0  0  0  0
  3 28  1  0  0  0  0
  3 29  1  0  0  0  0
  4  5  1  0  0  0  0
  4 30  1  0  0  0  0
  4 31  1  0  0  0  0
  5 24  1  0  0  0  0
  5  6  1  0  0  0  0
  6  7  1  0  0  0  0
  6 18  2  0  0  0  0
  7  8  1  0  0  0  0
  8  9  1  0  0  0  0
  8 32  1  0  0  0  0
  8 33  1  0  0  0  0
  9 10  2  0  0  0  0
  9 11  1  0  0  0  0
 11 12  1  0  0  0  0
 12 17  2  0  0  0  0
 12 13  1  0  0  0  0
 13 14  2  0  0  0  0
 13 34  1  0  0  0  0
 14 15  1  0  0  0  0
 14 16  1  0  0  0  0
 15 35  1  0  0  0  0
 15 36  1  0  0  0  0
 15 37  1  0  0  0  0
 16 17  1  0  0  0  0
 18 19  1  0  0  0  0
 19 24  2  0  0  0  0
 19 20  1  0  0  0  0
 20 21  2  0  0  0  0
 20 38  1  0  0  0  0
 21 22  1  0  0  0  0
 21 39  1  0  0  0  0
 22 23  2  0  0  0  0
 22 40  1  0  0  0  0
 23 24  1  0  0  0  0
 23 41  1  0  0  0  0
M  CHG  1  11  -1
M  END
> <s_m_source_file>
AV-unprocessed.smi

> <i_m_source_file_index>
2986

> <i_lp_mmshare_version>
43012

> <i_f3d_flags>
0

> <s_epik_input>
W2NIXTFbY0hdW2NIXVtjSF1jKGMxMiluKFtDSDJdW0NIMl1PW0NIM10pYyhuMilTW0NIMl1DKD1PKVtOSF1jM1tjSF1jKFtDSDNdKW9uMw==

> <s_epik_cmdline>
J2VwaWtfcHl0aG9uJywgJy1waCcsICc3LjAnLCAnLXRuJywgJzgnLCAnLW1hJywgJzIwMCcsICctbWV0YWxfYmluZGluZycsICctaW1hZScsICc8aW5maWxlLm1hZT4nLCAnLW9tYWUnLCAnPG91dGZpbGUubWFlPic=

> <r_epik_Ionization_Penalty>
4.21562

> <r_epik_Ionization_Penalty_Charging>
4.18608

> <r_epik_Ionization_Penalty_Neutral>
0.0295463

> <r_epik_State_Penalty>
4.20602

> <r_epik_Charging_Adjusted_Penalty>
8.3921

> <i_epik_Tot_Q>
-1

> <i_epik_Tot_abs_Q>
1

> <r_epik_Metal_State_Penalty>
0.721027

> <b_epik_Metal_Only>
1

> <s_lp_Force_Field>
OPLS_2005

> <r_lp_Energy>
2.9865

> <b_lp_Chiralities_Consistent>
1

> <s_lp_Variant>
AV-unprocessed.smi:2986-3

> <Gold.Version>
5.8.1

> <Gold.Id.Protein>
6NUR|6NUR_protein|mol2

> <Gold.PLP.Fitness>
58.3770

> <Gold.PLP.PLP>
-47.0949

> <Gold.PLP.part.hbond>
-7.0682

> <Gold.PLP.part.metal>
0.0000

> <Gold.PLP.part.buried>
-4.8362

> <Gold.PLP.part.nonpolar>
-34.6592

> <Gold.PLP.part.repulsive>
0.1953

> <Gold.PLP.ligand.clash>
0.0000

> <Gold.PLP.ligand.torsion>
0.9062

> <Gold.PLP.Chemscore.Hbond>
4.2642

> <Gold.PLP.Chemscore.CHOScore>
0.0000

> <Gold.PLP.Chemscore.Metal>
0.0000

> <Gold.Chemscore.Hbonds>
donor molecule, donor type, donor heavy atom, donor atom, acceptor molecule, acceptor atom, score
      P1  H  7997  8008       L1    18  0.48

> <Gold.PLP.Chemscore.Internal.Correction>
0.3019

> <Gold.Rescore>
     Score         DG    S(hbond)    S(metal)    S(lipo)     H(rot)  DE(clash)    DE(int)     intcor
     14.90     -18.48       1.90        0.00     105.04       2.21       0.00       3.57       ----

> <Gold.Chemscore.Fitness>
14.9002

> <Gold.Chemscore.DG>
-18.4766

> <Gold.Chemscore.ZeroCoef>
-5.4800

> <Gold.Chemscore.Hbond>
1.9035

> <Gold.Chemscore.Metal>
0.0000

> <Gold.Chemscore.Lipo>
105.0401

> <Gold.Chemscore.Internal_Hbond>
0.0000

> <Gold.Chemscore.DEClash>
0.0048

> <Gold.Chemscore.DEInternal>
3.5716

> <Gold.Chemscore.Rot>
2.2073

> <Gold.Chemscore.Internal.Correction>
   9.000000E+99

> <Gold.Chemscore.Hbonds>
donor molecule, donor type, donor heavy atom, donor atom, acceptor molecule, acceptor atom, score
      P1  H  7997  8008       L1    18  0.06

> <Gold.Chemscore.Hbond.Weighted>
-6.3577

> <Gold.Chemscore.Metal.Weighted>
-0.0000

> <Gold.Chemscore.Lipo.Weighted>
-12.2897

> <Gold.Chemscore.Internal_Hbond.Weighted>
0.0000

> <Gold.Chemscore.DEClash.Weighted>
0.0048

> <Gold.Chemscore.DEInternal.Weighted>
3.5716

> <Gold.Chemscore.Rot.Weighted>
5.6508

> <Gold.Chemscore.Internal.Correction.Weighted>
   9.000000E+99

> <Gold.Protein.RotatedTorsions>
[ 6907 6896 6895 6894 ] final  -63.07 input  -60.11 | X-H torsion
[ 7974 7965 7964 7962 ] final  143.62 input  175.53 | X-H torsion
[ 8008 7997 7996 7995 ] final  -76.32 input   59.86 | X-H torsion
[ 10167 10162 10161 10158 ] final    3.66 input  -65.29 | X-H torsion
[ 10718 10713 10712 10709 ] final  159.83 input   66.30 | X-H torsion
[ 10763 10752 10751 10750 ] final  147.21 input  -60.55 | X-H torsion
[ 11005 11000 10999 10996 ] final   80.56 input  -57.11 | X-H torsion

> <Gold.Protein.ActiveResidues>
 VAL166  LYS551  ARG553  GLY616  TRP617  ASP618  TYR619  PRO620  LYS621  CYS622 
 ASP623  PHE694  ASN695  SER759  ASP760  ASP761  ALA762  ILE779  LEU786  VAL792 
 PHE793  MET794  SER795  GLU796  ALA797  LYS798  CYS799  TRP800  GLU811  SER814 

> <Gold.Protein.RotatedAtoms>
  150.7673  134.6485  159.6275 H   0  0  0  0  0  0  0  0  0  0  0  0  # atno 6907 bound_to 6896
  152.3711  134.6729  160.0184 H   0  0  0  0  0  0  0  0  0  0  0  0  # atno 6908 bound_to 6896
  151.7089  133.3275  159.3322 H   0  0  0  0  0  0  0  0  0  0  0  0  # atno 6909 bound_to 6896
  144.8905  139.5565  143.5800 H   0  0  0  0  0  0  0  0  0  0  0  0  # atno 7974 bound_to 7965
  154.5495  140.0729  156.8644 H   0  0  0  0  0  0  0  0  0  0  0  0  # atno 8008 bound_to 7997
  155.3021  140.3385  155.4229 H   0  0  0  0  0  0  0  0  0  0  0  0  # atno 8009 bound_to 7997
  156.1948  140.1699  156.8005 H   0  0  0  0  0  0  0  0  0  0  0  0  # atno 8010 bound_to 7997
  140.6575  143.7391  150.7679 H   0  0  0  0  0  0  0  0  0  0  0  0  # atno 10167 bound_to 10162
  157.1588  131.0582  151.2243 H   0  0  0  0  0  0  0  0  0  0  0  0  # atno 10718 bound_to 10713
  154.0345  135.2895  155.3364 H   0  0  0  0  0  0  0  0  0  0  0  0  # atno 10763 bound_to 10752
  154.6967  135.5205  153.8472 H   0  0  0  0  0  0  0  0  0  0  0  0  # atno 10764 bound_to 10752
  153.0626  135.6619  154.0555 H   0  0  0  0  0  0  0  0  0  0  0  0  # atno 10765 bound_to 10752
  139.9130  134.7930  156.1926 H   0  0  0  0  0  0  0  0  0  0  0  0  # atno 11005 bound_to 11000
  146.3051  139.7552  142.9062 LP  0  0  0  0  0  0  0  0  0  0  0  0  # atno 17320 bound_to 7965
  145.3792  141.0355  143.3187 LP  0  0  0  0  0  0  0  0  0  0  0  0  # atno 17321 bound_to 7965
  140.1053  143.4749  152.2402 LP  0  0  0  0  0  0  0  0  0  0  0  0  # atno 17342 bound_to 10162
  139.5800  144.7506  151.3664 LP  0  0  0  0  0  0  0  0  0  0  0  0  # atno 17343 bound_to 10162
  157.4152  130.7407  149.6870 LP  0  0  0  0  0  0  0  0  0  0  0  0  # atno 17370 bound_to 10713
  155.9757  130.4085  150.3828 LP  0  0  0  0  0  0  0  0  0  0  0  0  # atno 17371 bound_to 10713
  141.0574  133.6858  156.1887 LP  0  0  0  0  0  0  0  0  0  0  0  0  # atno 17394 bound_to 11000
  140.6715  134.4863  157.5587 LP  0  0  0  0  0  0  0  0  0  0  0  0  # atno 17395 bound_to 11000

$$$$
