AV-unprocessed.smi:2040|AV-procd|sdf|8287|dock1
  -GOLD-   2272010553D 1   1.00000     0.00000
 Structure written by MMmdl.
 38 39  0  0  0  0  0  0  0  0  1 V2000
  146.0807  129.5935  152.2892 C   0  0  0  0  0  0  0  0  0  0  0  0
  146.5121  131.0298  152.3296 C   0  0  0  0  0  0  0  0  0  0  0  0
  147.4655  131.6355  153.1989 C   0  0  0  0  0  0  0  0  0  0  0  0
  147.4570  132.9418  152.7919 C   0  0  0  0  0  0  0  0  0  0  0  0
  148.1730  133.9921  153.2743 N   0  0  0  0  0  0  0  0  0  0  0  0
  148.6189  134.1994  154.5256 C   0  0  0  0  0  0  0  0  0  0  0  0
  148.4526  133.4376  155.4784 O   0  0  0  0  0  0  0  0  0  0  0  0
  149.2890  135.3575  154.6139 N   0  0  0  0  0  0  0  0  0  0  0  0
  149.8975  135.8920  155.8296 C   0  0  1  0  0  0  0  0  0  0  0  0
  151.0728  134.9952  156.2566 C   0  0  0  0  0  0  0  0  0  0  0  0
  150.3373  137.3467  155.5766 C   0  0  2  0  0  0  0  0  0  0  0  0
  151.2685  137.5360  154.3755 C   0  0  0  0  0  0  0  0  0  0  0  0
  152.1122  138.7479  154.7453 C   0  0  0  0  0  0  0  0  0  0  0  0
  151.7582  139.0188  156.2085 C   0  0  0  0  0  0  0  0  0  0  0  0
  151.1330  137.8244  156.6513 O   0  0  0  0  0  0  0  0  0  0  0  0
  146.5547  133.0806  151.7607 N   0  0  0  0  0  0  0  0  0  0  0  0
  146.1926  134.2653  151.0073 C   0  0  0  0  0  0  0  0  0  0  0  0
  145.9748  131.8944  151.4762 N   0  0  0  0  0  0  0  0  0  0  0  0
  146.5351  129.0227  153.0993 H   0  0  0  0  0  0  0  0  0  0  0  0
  146.3705  129.1233  151.3492 H   0  0  0  0  0  0  0  0  0  0  0  0
  144.9985  129.5045  152.3884 H   0  0  0  0  0  0  0  0  0  0  0  0
  148.0447  131.1716  153.9829 H   0  0  0  0  0  0  0  0  0  0  0  0
  148.4088  134.7005  152.5952 H   0  0  0  0  0  0  0  0  0  0  0  0
  149.3726  135.9228  153.7819 H   0  0  0  0  0  0  0  0  0  0  0  0
  149.1530  135.8956  156.6281 H   0  0  0  0  0  0  0  0  0  0  0  0
  151.5250  135.3471  157.1838 H   0  0  0  0  0  0  0  0  0  0  0  0
  151.8519  134.9730  155.4939 H   0  0  0  0  0  0  0  0  0  0  0  0
  150.7457  133.9690  156.4275 H   0  0  0  0  0  0  0  0  0  0  0  0
  149.4652  137.9960  155.4727 H   0  0  0  0  0  0  0  0  0  0  0  0
  151.9166  136.6669  154.2540 H   0  0  0  0  0  0  0  0  0  0  0  0
  150.7192  137.6749  153.4438 H   0  0  0  0  0  0  0  0  0  0  0  0
  153.1728  138.5201  154.6326 H   0  0  0  0  0  0  0  0  0  0  0  0
  151.8862  139.6122  154.1199 H   0  0  0  0  0  0  0  0  0  0  0  0
  152.6309  139.2610  156.8153 H   0  0  0  0  0  0  0  0  0  0  0  0
  151.0489  139.8443  156.2861 H   0  0  0  0  0  0  0  0  0  0  0  0
  147.0727  134.6588  150.4984 H   0  0  0  0  0  0  0  0  0  0  0  0
  145.8024  135.0249  151.6849 H   0  0  0  0  0  0  0  0  0  0  0  0
  145.4298  134.0299  150.2640 H   0  0  0  0  0  0  0  0  0  0  0  0
  1  2  1  0  0  0  0
  1 19  1  0  0  0  0
  1 20  1  0  0  0  0
  1 21  1  0  0  0  0
  2 18  2  0  0  0  0
  2  3  1  0  0  0  0
  3  4  2  0  0  0  0
  3 22  1  0  0  0  0
  4  5  1  0  0  0  0
  4 16  1  0  0  0  0
  5  6  1  0  0  0  0
  5 23  1  0  0  0  0
  6  7  2  0  0  0  0
  6  8  1  0  0  0  0
  8  9  1  0  0  0  0
  8 24  1  0  0  0  0
  9 10  1  0  0  0  0
  9 11  1  0  0  0  0
  9 25  1  0  0  0  0
 10 26  1  0  0  0  0
 10 27  1  0  0  0  0
 10 28  1  0  0  0  0
 11 15  1  0  0  0  0
 11 12  1  0  0  0  0
 11 29  1  0  0  0  0
 12 13  1  0  0  0  0
 12 30  1  0  0  0  0
 12 31  1  0  0  0  0
 13 14  1  0  0  0  0
 13 32  1  0  0  0  0
 13 33  1  0  0  0  0
 14 15  1  0  0  0  0
 14 34  1  0  0  0  0
 14 35  1  0  0  0  0
 16 17  1  0  0  0  0
 16 18  1  0  0  0  0
 17 36  1  0  0  0  0
 17 37  1  0  0  0  0
 17 38  1  0  0  0  0
M  END
> <s_m_source_file>
AV-unprocessed.smi

> <i_m_source_file_index>
2040

> <i_lp_mmshare_version>
43012

> <i_f3d_flags>
0

> <s_epik_input>
W0NIM11jMVtjSF1jKG4objEpW0NIM10pW05IXUMoPU8pW05IXVtDQEhdKFtDSDNdKVtDQEBIXTJbQ0gyXVtDSDJdW0NIMl1PMg==

> <s_epik_cmdline>
J2VwaWtfcHl0aG9uJywgJy1waCcsICc3LjAnLCAnLXRuJywgJzgnLCAnLW1hJywgJzIwMCcsICctbWV0YWxfYmluZGluZycsICctaW1hZScsICc8aW5maWxlLm1hZT4nLCAnLW9tYWUnLCAnPG91dGZpbGUubWFlPic=

> <r_lp_tautomer_probability>
1

> <r_epik_Ionization_Penalty>
9.09088e-05

> <r_epik_Ionization_Penalty_Charging>
0

> <r_epik_Ionization_Penalty_Neutral>
9.09088e-05

> <r_epik_State_Penalty>
-0

> <r_epik_Charging_Adjusted_Penalty>
0

> <i_epik_Tot_Q>
0

> <i_epik_Tot_abs_Q>
0

> <r_epik_Metal_State_Penalty>
-0

> <b_epik_Metal_Only>
0

> <s_lp_Force_Field>
OPLS_2005

> <r_lp_Energy>
19.5884

> <b_lp_Chiralities_Consistent>
1

> <s_lp_Variant>
AV-unprocessed.smi:2040-2

> <Gold.Version>
5.8.1

> <Gold.Id.Protein>
6NUR|6NUR_protein|mol2

> <Gold.PLP.Fitness>
35.1131

> <Gold.PLP.PLP>
-29.7813

> <Gold.PLP.part.hbond>
-2.0000

> <Gold.PLP.part.metal>
0.0000

> <Gold.PLP.part.buried>
-3.1416

> <Gold.PLP.part.nonpolar>
-24.8669

> <Gold.PLP.part.repulsive>
0.1580

> <Gold.PLP.ligand.clash>
0.0000

> <Gold.PLP.ligand.torsion>
0.3454

> <Gold.PLP.Chemscore.Hbond>
2.0000

> <Gold.PLP.Chemscore.CHOScore>
0.0000

> <Gold.PLP.Chemscore.Metal>
0.0000

> <Gold.Chemscore.Hbonds>
donor molecule, donor type, donor heavy atom, donor atom, acceptor molecule, acceptor atom, score
      L1  H     5    23       P1  7948  1.00
      L1  H     8    24       P1  7948  1.00

> <Gold.PLP.Chemscore.Internal.Correction>
0.0228

> <Gold.Rescore>
     Score         DG    S(hbond)    S(metal)    S(lipo)     H(rot)  DE(clash)    DE(int)     intcor
     14.99     -15.45       1.80        0.00      60.92       1.23       0.02       0.44       ----

> <Gold.Chemscore.Fitness>
14.9944

> <Gold.Chemscore.DG>
-15.4500

> <Gold.Chemscore.ZeroCoef>
-5.4800

> <Gold.Chemscore.Hbond>
1.7967

> <Gold.Chemscore.Metal>
0.0000

> <Gold.Chemscore.Lipo>
60.9175

> <Gold.Chemscore.Internal_Hbond>
0.0000

> <Gold.Chemscore.DEClash>
0.0174

> <Gold.Chemscore.DEInternal>
0.4382

> <Gold.Chemscore.Rot>
1.2338

> <Gold.Chemscore.Internal.Correction>
   9.000000E+99

> <Gold.Chemscore.Hbonds>
donor molecule, donor type, donor heavy atom, donor atom, acceptor molecule, acceptor atom, score
      L1  H     5    23       P1  7948  0.26
      L1  H     8    24       P1  7948  0.61

> <Gold.Chemscore.Hbond.Weighted>
-6.0011

> <Gold.Chemscore.Metal.Weighted>
-0.0000

> <Gold.Chemscore.Lipo.Weighted>
-7.1273

> <Gold.Chemscore.Internal_Hbond.Weighted>
0.0000

> <Gold.Chemscore.DEClash.Weighted>
0.0174

> <Gold.Chemscore.DEInternal.Weighted>
0.4382

> <Gold.Chemscore.Rot.Weighted>
3.1584

> <Gold.Chemscore.Internal.Correction.Weighted>
   9.000000E+99

> <Gold.Protein.RotatedTorsions>
[ 6907 6896 6895 6894 ] final   89.19 input  -60.11 | X-H torsion
[ 7974 7965 7964 7962 ] final   45.21 input  175.53 | X-H torsion
[ 8008 7997 7996 7995 ] final  105.56 input   59.86 | X-H torsion
[ 10167 10162 10161 10158 ] final   31.17 input  -65.29 | X-H torsion
[ 10718 10713 10712 10709 ] final   99.86 input   66.30 | X-H torsion
[ 10763 10752 10751 10750 ] final    1.58 input  -60.55 | X-H torsion
[ 11005 11000 10999 10996 ] final -142.95 input  -57.11 | X-H torsion

> <Gold.Protein.ActiveResidues>
 VAL166  LYS551  ARG553  GLY616  TRP617  ASP618  TYR619  PRO620  LYS621  CYS622 
 ASP623  PHE694  ASN695  SER759  ASP760  ASP761  ALA762  ILE779  LEU786  VAL792 
 PHE793  MET794  SER795  GLU796  ALA797  LYS798  CYS799  TRP800  GLU811  SER814 

> <Gold.Protein.RotatedAtoms>
  152.5433  134.2004  159.8709 H   0  0  0  0  0  0  0  0  0  0  0  0  # atno 6907 bound_to 6896
  151.1993  133.4613  159.2603 H   0  0  0  0  0  0  0  0  0  0  0  0  # atno 6908 bound_to 6896
  151.1005  134.9981  159.8502 H   0  0  0  0  0  0  0  0  0  0  0  0  # atno 6909 bound_to 6896
  146.0500  139.4989  142.9724 H   0  0  0  0  0  0  0  0  0  0  0  0  # atno 7974 bound_to 7965
  156.1669  140.3128  155.8904 H   0  0  0  0  0  0  0  0  0  0  0  0  # atno 8008 bound_to 7997
  155.3668  140.0479  157.3063 H   0  0  0  0  0  0  0  0  0  0  0  0  # atno 8009 bound_to 7997
  154.5201  140.2195  155.9002 H   0  0  0  0  0  0  0  0  0  0  0  0  # atno 8010 bound_to 7997
  140.4613  144.0903  150.6213 H   0  0  0  0  0  0  0  0  0  0  0  0  # atno 10167 bound_to 10162
  157.6867  131.0682  150.5012 H   0  0  0  0  0  0  0  0  0  0  0  0  # atno 10718 bound_to 10713
  153.3063  135.6959  153.7157 H   0  0  0  0  0  0  0  0  0  0  0  0  # atno 10763 bound_to 10752
  153.6052  135.3455  155.2960 H   0  0  0  0  0  0  0  0  0  0  0  0  # atno 10764 bound_to 10752
  154.8564  135.4350  154.2188 H   0  0  0  0  0  0  0  0  0  0  0  0  # atno 10765 bound_to 10752
  140.8174  134.2672  157.4915 H   0  0  0  0  0  0  0  0  0  0  0  0  # atno 11005 bound_to 11000
  145.6741  141.0209  143.1642 LP  0  0  0  0  0  0  0  0  0  0  0  0  # atno 17320 bound_to 7965
  144.7117  139.8344  143.7412 LP  0  0  0  0  0  0  0  0  0  0  0  0  # atno 17321 bound_to 7965
  140.4090  143.2666  151.9856 LP  0  0  0  0  0  0  0  0  0  0  0  0  # atno 17342 bound_to 10162
  139.4806  144.5932  151.7736 LP  0  0  0  0  0  0  0  0  0  0  0  0  # atno 17343 bound_to 10162
  156.5334  130.4190  149.6190 LP  0  0  0  0  0  0  0  0  0  0  0  0  # atno 17370 bound_to 10713
  156.3049  130.7197  151.2077 LP  0  0  0  0  0  0  0  0  0  0  0  0  # atno 17371 bound_to 10713
  139.8710  134.9516  156.4091 LP  0  0  0  0  0  0  0  0  0  0  0  0  # atno 17394 bound_to 11000
  140.9135  133.7695  155.9820 LP  0  0  0  0  0  0  0  0  0  0  0  0  # atno 17395 bound_to 11000

$$$$
