AV-unprocessed.smi:1047|AV-procd|sdf|4569|dock2
  -GOLD-   22720 3 23D 1   1.00000     0.00000
 Structure written by MMmdl.
 56 58  0  0  0  0  0  0  0  0  2 V2000
  155.3212  128.9602  166.7547 C   0  0  0  0  0  0  0  0  0  0  0  0
  155.8542  130.3627  166.4279 C   0  0  0  0  0  0  0  0  0  0  0  0
  154.8882  131.2566  165.7908 N   0  0  0  0  0  0  0  0  0  0  0  0
  154.4610  130.7279  164.5004 C   0  0  0  0  0  0  0  0  0  0  0  0
  153.4458  131.6530  163.8099 C   0  0  0  0  0  0  0  0  0  0  0  0
  154.0111  132.9517  163.6661 O   0  0  0  0  0  0  0  0  0  0  0  0
  154.3932  133.5345  164.9099 C   0  0  2  0  0  0  0  0  0  0  0  0
  154.9836  134.9221  164.6262 C   0  0  0  0  0  0  0  0  0  0  0  0
  154.1088  135.7029  163.7291 N   0  3  0  0  0  0  0  0  0  0  0  0
  154.4923  137.1232  163.6103 C   0  0  0  0  0  0  0  0  0  0  0  0
  154.9931  137.4582  162.1930 C   0  0  2  0  0  0  0  0  0  0  0  0
  156.0872  136.6160  161.8851 O   0  0  0  0  0  0  0  0  0  0  0  0
  155.4252  138.9318  162.0237 C   0  0  0  0  0  0  0  0  0  0  0  0
  154.6642  139.6488  161.0126 N   0  0  0  0  0  0  0  0  0  0  0  0
  154.4647  139.2777  159.7328 C   0  0  0  0  0  0  0  0  0  0  0  0
  153.7444  140.0917  158.9673 N   0  0  0  0  0  0  0  0  0  0  0  0
  153.4289  141.1048  159.8560 C   0  0  0  0  0  0  0  0  0  0  0  0
  152.6814  142.2882  159.6693 C   0  0  0  0  0  0  0  0  0  0  0  0
  152.4864  143.1978  160.7329 C   0  0  0  0  0  0  0  0  0  0  0  0
  151.6820  144.4618  160.4854 C   0  0  0  0  0  0  0  0  0  0  0  0
  153.0395  142.9266  162.0101 C   0  0  0  0  0  0  0  0  0  0  0  0
  152.8429  143.8896  163.1677 C   0  0  0  0  0  0  0  0  0  0  0  0
  153.7862  141.7477  162.2146 C   0  0  0  0  0  0  0  0  0  0  0  0
  153.9812  140.8540  161.1463 C   0  0  0  0  0  0  0  0  0  0  0  0
  155.4140  132.6062  165.5995 C   0  0  0  0  0  0  0  0  0  0  0  0
  156.1257  128.3219  167.1203 H   0  0  0  0  0  0  0  0  0  0  0  0
  154.8982  128.4841  165.8696 H   0  0  0  0  0  0  0  0  0  0  0  0
  154.5526  128.9845  167.5268 H   0  0  0  0  0  0  0  0  0  0  0  0
  156.2453  130.8240  167.3361 H   0  0  0  0  0  0  0  0  0  0  0  0
  156.7097  130.2388  165.7627 H   0  0  0  0  0  0  0  0  0  0  0  0
  155.3269  130.5944  163.8499 H   0  0  0  0  0  0  0  0  0  0  0  0
  154.0161  129.7408  164.6324 H   0  0  0  0  0  0  0  0  0  0  0  0
  153.1877  131.2649  162.8246 H   0  0  0  0  0  0  0  0  0  0  0  0
  152.5209  131.7118  164.3856 H   0  0  0  0  0  0  0  0  0  0  0  0
  153.5129  133.6389  165.5470 H   0  0  0  0  0  0  0  0  0  0  0  0
  155.1009  135.4720  165.5609 H   0  0  0  0  0  0  0  0  0  0  0  0
  155.9757  134.8254  164.1829 H   0  0  0  0  0  0  0  0  0  0  0  0
  154.1423  135.2881  162.8082 H   0  0  0  0  0  0  0  0  0  0  0  0
  153.6171  137.7313  163.8416 H   0  0  0  0  0  0  0  0  0  0  0  0
  155.2530  137.3576  164.3566 H   0  0  0  0  0  0  0  0  0  0  0  0
  154.1996  137.2509  161.4738 H   0  0  0  0  0  0  0  0  0  0  0  0
  156.3785  136.8070  161.0063 H   0  0  0  0  0  0  0  0  0  0  0  0
  155.3284  139.4642  162.9711 H   0  0  0  0  0  0  0  0  0  0  0  0
  156.4808  138.9802  161.7547 H   0  0  0  0  0  0  0  0  0  0  0  0
  154.8807  138.3618  159.3382 H   0  0  0  0  0  0  0  0  0  0  0  0
  152.2590  142.4940  158.6967 H   0  0  0  0  0  0  0  0  0  0  0  0
  150.8241  144.5084  161.1567 H   0  0  0  0  0  0  0  0  0  0  0  0
  151.3073  144.5016  159.4624 H   0  0  0  0  0  0  0  0  0  0  0  0
  152.3001  145.3449  160.6499 H   0  0  0  0  0  0  0  0  0  0  0  0
  153.3253  143.5257  164.0753 H   0  0  0  0  0  0  0  0  0  0  0  0
  151.7819  144.0179  163.3827 H   0  0  0  0  0  0  0  0  0  0  0  0
  153.2689  144.8646  162.9299 H   0  0  0  0  0  0  0  0  0  0  0  0
  154.2110  141.5310  163.1833 H   0  0  0  0  0  0  0  0  0  0  0  0
  155.6867  133.0414  166.5607 H   0  0  0  0  0  0  0  0  0  0  0  0
  156.3282  132.5645  165.0049 H   0  0  0  0  0  0  0  0  0  0  0  0
  153.1602  135.6494  164.0715 H   0  0  0  0  0  0  0  0  0  0  0  0
  1  2  1  0  0  0  0
  1 26  1  0  0  0  0
  1 27  1  0  0  0  0
  1 28  1  0  0  0  0
  2  3  1  0  0  0  0
  2 29  1  0  0  0  0
  2 30  1  0  0  0  0
  3 25  1  0  0  0  0
  3  4  1  0  0  0  0
  4  5  1  0  0  0  0
  4 31  1  0  0  0  0
  4 32  1  0  0  0  0
  5  6  1  0  0  0  0
  5 33  1  0  0  0  0
  5 34  1  0  0  0  0
  6  7  1  0  0  0  0
  7  8  1  0  0  0  0
  7 25  1  0  0  0  0
  7 35  1  0  0  0  0
  8  9  1  0  0  0  0
  8 36  1  0  0  0  0
  8 37  1  0  0  0  0
  9 10  1  0  0  0  0
  9 38  1  0  0  0  0
  9 56  1  0  0  0  0
 10 11  1  0  0  0  0
 10 39  1  0  0  0  0
 10 40  1  0  0  0  0
 11 12  1  0  0  0  0
 11 13  1  0  0  0  0
 11 41  1  0  0  0  0
 12 42  1  0  0  0  0
 13 14  1  0  0  0  0
 13 43  1  0  0  0  0
 13 44  1  0  0  0  0
 14 24  1  0  0  0  0
 14 15  1  0  0  0  0
 15 16  2  0  0  0  0
 15 45  1  0  0  0  0
 16 17  1  0  0  0  0
 17 24  2  0  0  0  0
 17 18  1  0  0  0  0
 18 19  2  0  0  0  0
 18 46  1  0  0  0  0
 19 20  1  0  0  0  0
 19 21  1  0  0  0  0
 20 47  1  0  0  0  0
 20 48  1  0  0  0  0
 20 49  1  0  0  0  0
 21 22  1  0  0  0  0
 21 23  2  0  0  0  0
 22 50  1  0  0  0  0
 22 51  1  0  0  0  0
 22 52  1  0  0  0  0
 23 24  1  0  0  0  0
 23 53  1  0  0  0  0
 25 54  1  0  0  0  0
 25 55  1  0  0  0  0
M  CHG  1   9   1
M  END
> <s_m_source_file>
AV-unprocessed.smi

> <i_m_source_file_index>
1047

> <i_lp_mmshare_version>
43012

> <i_f3d_flags>
0

> <s_epik_input>
W0NIM11bQ0gyXU4xW0NIMl1bQ0gyXU9bQ0BIXShbQ0gyXTEpW0NIMl1bTkhdW0NIMl1bQ0BIXShbT0hdKVtDSDJdbihbY0hdbjIpYyhjMjMpW2NIXWMoW0NIM10pYyhbY0hdMylbQ0gzXQ==

> <s_epik_cmdline>
J2VwaWtfcHl0aG9uJywgJy1waCcsICc3LjAnLCAnLXRuJywgJzgnLCAnLW1hJywgJzIwMCcsICctbWV0YWxfYmluZGluZycsICctaW1hZScsICc8aW5maWxlLm1hZT4nLCAnLW9tYWUnLCAnPG91dGZpbGUubWFlPic=

> <r_epik_Ionization_Penalty>
0.692425

> <r_epik_Ionization_Penalty_Charging>
0.0243549

> <r_epik_Ionization_Penalty_Neutral>
0.66807

> <r_epik_State_Penalty>
0.592789

> <r_epik_Charging_Adjusted_Penalty>
0.617144

> <i_epik_Tot_Q>
1

> <i_epik_Tot_abs_Q>
1

> <r_epik_Metal_State_Penalty>
0.508021

> <b_epik_Metal_Only>
0

> <s_lp_Force_Field>
OPLS_2005

> <r_lp_Energy>
30.0257

> <b_lp_Chiralities_Consistent>
1

> <s_lp_Variant>
AV-unprocessed.smi:1047-10

> <Gold.Version>
5.8.1

> <Gold.Id.Protein>
6NUR|6NUR_protein|mol2

> <Gold.PLP.Fitness>
51.3621

> <Gold.PLP.PLP>
-50.5778

> <Gold.PLP.part.hbond>
-1.0000

> <Gold.PLP.part.metal>
0.0000

> <Gold.PLP.part.buried>
-2.9994

> <Gold.PLP.part.nonpolar>
-46.1179

> <Gold.PLP.part.repulsive>
0.0280

> <Gold.PLP.ligand.clash>
0.0000

> <Gold.PLP.ligand.torsion>
1.2593

> <Gold.PLP.Chemscore.Hbond>
0.9920

> <Gold.PLP.Chemscore.CHOScore>
0.0000

> <Gold.PLP.Chemscore.Metal>
0.0000

> <Gold.Chemscore.Hbonds>
donor molecule, donor type, donor heavy atom, donor atom, acceptor molecule, acceptor atom, score
      P1  H  7997  8009       L1    16  0.95

> <Gold.PLP.Chemscore.Internal.Correction>
0.3269

> <Gold.Rescore>
     Score         DG    S(hbond)    S(metal)    S(lipo)     H(rot)  DE(clash)    DE(int)     intcor
     18.34     -20.13       0.94        0.00     155.38       2.60       0.45       1.34       ----

> <Gold.Chemscore.Fitness>
18.3413

> <Gold.Chemscore.DG>
-20.1312

> <Gold.Chemscore.ZeroCoef>
-5.4800

> <Gold.Chemscore.Hbond>
0.9403

> <Gold.Chemscore.Metal>
0.0000

> <Gold.Chemscore.Lipo>
155.3772

> <Gold.Chemscore.Internal_Hbond>
0.0000

> <Gold.Chemscore.DEClash>
0.4460

> <Gold.Chemscore.DEInternal>
1.3440

> <Gold.Chemscore.Rot>
2.6049

> <Gold.Chemscore.Internal.Correction>
   9.000000E+99

> <Gold.Chemscore.Hbonds>
donor molecule, donor type, donor heavy atom, donor atom, acceptor molecule, acceptor atom, score
      P1  H  7997  8009       L1    16  0.29

> <Gold.Chemscore.Hbond.Weighted>
-3.1406

> <Gold.Chemscore.Metal.Weighted>
-0.0000

> <Gold.Chemscore.Lipo.Weighted>
-18.1791

> <Gold.Chemscore.Internal_Hbond.Weighted>
0.0000

> <Gold.Chemscore.DEClash.Weighted>
0.4460

> <Gold.Chemscore.DEInternal.Weighted>
1.3440

> <Gold.Chemscore.Rot.Weighted>
6.6685

> <Gold.Chemscore.Internal.Correction.Weighted>
   9.000000E+99

> <Gold.Protein.RotatedTorsions>
[ 6907 6896 6895 6894 ] final  -81.29 input  -60.11 | X-H torsion
[ 7974 7965 7964 7962 ] final -101.64 input  175.53 | X-H torsion
[ 8008 7997 7996 7995 ] final  140.29 input   59.86 | X-H torsion
[ 10167 10162 10161 10158 ] final  149.66 input  -65.29 | X-H torsion
[ 10718 10713 10712 10709 ] final   49.96 input   66.30 | X-H torsion
[ 10763 10752 10751 10750 ] final   32.06 input  -60.55 | X-H torsion
[ 11005 11000 10999 10996 ] final  -97.34 input  -57.11 | X-H torsion

> <Gold.Protein.ActiveResidues>
 VAL166  LYS551  ARG553  GLY616  TRP617  ASP618  TYR619  PRO620  LYS621  CYS622 
 ASP623  PHE694  ASN695  SER759  ASP760  ASP761  ALA762  ILE779  LEU786  VAL792 
 PHE793  MET794  SER795  GLU796  ALA797  LYS798  CYS799  TRP800  GLU811  SER814 

> <Gold.Protein.RotatedAtoms>
  150.6914  134.3839  159.5046 H   0  0  0  0  0  0  0  0  0  0  0  0  # atno 6907 bound_to 6896
  152.1638  134.8888  160.0549 H   0  0  0  0  0  0  0  0  0  0  0  0  # atno 6908 bound_to 6896
  151.9940  133.3766  159.4192 H   0  0  0  0  0  0  0  0  0  0  0  0  # atno 6909 bound_to 6896
  145.2791  140.9321  143.2942 H   0  0  0  0  0  0  0  0  0  0  0  0  # atno 7974 bound_to 7965
  156.2981  140.2345  156.4377 H   0  0  0  0  0  0  0  0  0  0  0  0  # atno 8008 bound_to 7997
  154.8213  140.0437  157.1433 H   0  0  0  0  0  0  0  0  0  0  0  0  # atno 8009 bound_to 7997
  154.9311  140.3017  155.5171 H   0  0  0  0  0  0  0  0  0  0  0  0  # atno 8010 bound_to 7997
  139.4859  144.5584  151.7275 H   0  0  0  0  0  0  0  0  0  0  0  0  # atno 10167 bound_to 10162
  157.4838  130.8332  149.8123 H   0  0  0  0  0  0  0  0  0  0  0  0  # atno 10718 bound_to 10713
  153.0282  135.6423  154.1296 H   0  0  0  0  0  0  0  0  0  0  0  0  # atno 10763 bound_to 10752
  154.1022  135.2859  155.3251 H   0  0  0  0  0  0  0  0  0  0  0  0  # atno 10764 bound_to 10752
  154.6391  135.5466  153.7831 H   0  0  0  0  0  0  0  0  0  0  0  0  # atno 10765 bound_to 10752
  141.1382  133.8164  157.0693 H   0  0  0  0  0  0  0  0  0  0  0  0  # atno 11005 bound_to 11000
  144.9269  139.4345  143.6514 LP  0  0  0  0  0  0  0  0  0  0  0  0  # atno 17320 bound_to 7965
  146.3222  139.8159  142.8936 LP  0  0  0  0  0  0  0  0  0  0  0  0  # atno 17321 bound_to 7965
  140.5150  144.0967  150.6005 LP  0  0  0  0  0  0  0  0  0  0  0  0  # atno 17342 bound_to 10162
  140.3906  143.2754  152.0065 LP  0  0  0  0  0  0  0  0  0  0  0  0  # atno 17343 bound_to 10162
  156.0135  130.3823  150.2185 LP  0  0  0  0  0  0  0  0  0  0  0  0  # atno 17370 bound_to 10713
  157.0371  131.0024  151.3294 LP  0  0  0  0  0  0  0  0  0  0  0  0  # atno 17371 bound_to 10713
  140.0521  134.9800  157.1156 LP  0  0  0  0  0  0  0  0  0  0  0  0  # atno 17394 bound_to 11000
  140.3973  134.2120  155.7164 LP  0  0  0  0  0  0  0  0  0  0  0  0  # atno 17395 bound_to 11000

$$$$
