AV-unprocessed.smi:557|AV-procd|sdf|2914|dock1
  -GOLD-   2262023403D 1   1.00000     0.00000
 Structure written by MMmdl.
 47 49  0  0  0  0  0  0  0  0  2 V2000
  151.8874  138.2199  154.5648 C   0  0  0  0  0  0  0  0  0  0  0  0
  150.6830  139.0186  154.4877 N   0  0  0  0  0  0  0  0  0  0  0  0
  149.4054  138.6193  154.1595 C   0  0  0  0  0  0  0  0  0  0  0  0
  148.6026  139.7235  154.2203 C   0  0  0  0  0  0  0  0  0  0  0  0
  147.1286  139.8300  153.9471 C   0  0  0  0  0  0  0  0  0  0  0  0
  146.7788  139.3057  152.5486 C   0  0  0  0  0  0  0  0  0  0  0  0
  146.9601  137.8584  152.4814 N   0  0  0  0  0  0  0  0  0  0  0  0
  146.0795  136.9120  152.8478 C   0  0  0  0  0  0  0  0  0  0  0  0
  144.9689  137.1929  153.2938 O   0  0  0  0  0  0  0  0  0  0  0  0
  146.5114  135.6506  152.6767 N   0  0  0  0  0  0  0  0  0  0  0  0
  145.7516  134.4453  153.0029 C   0  0  2  0  0  0  0  0  0  0  0  0
  146.6471  133.2730  153.4476 C   0  0  0  0  0  0  0  0  0  0  0  0
  146.0274  132.0388  152.7846 C   0  0  0  0  0  0  0  0  0  0  0  0
  145.5023  132.5735  151.5231 N   0  3  1  0  0  0  0  0  0  0  0  0
  144.6101  131.7214  150.7109 C   0  0  0  0  0  0  0  0  0  0  0  0
  144.3528  132.4301  149.3636 C   0  0  0  0  0  0  0  0  0  0  0  0
  143.8560  133.8818  149.5510 C   0  0  0  0  0  0  0  0  0  0  0  0
  144.7607  134.6800  150.5149 C   0  0  0  0  0  0  0  0  0  0  0  0
  144.9137  133.8894  151.8267 C   0  0  2  0  0  0  0  0  0  0  0  0
  149.4982  140.7625  154.6036 C   0  0  0  0  0  0  0  0  0  0  0  0
  150.7412  140.3379  154.7617 N   0  0  0  0  0  0  0  0  0  0  0  0
  151.6881  137.2074  154.2122 H   0  0  0  0  0  0  0  0  0  0  0  0
  152.2341  138.1746  155.5975 H   0  0  0  0  0  0  0  0  0  0  0  0
  152.6665  138.6631  153.9437 H   0  0  0  0  0  0  0  0  0  0  0  0
  149.1746  137.5938  153.9108 H   0  0  0  0  0  0  0  0  0  0  0  0
  146.5616  139.2735  154.6945 H   0  0  0  0  0  0  0  0  0  0  0  0
  146.7997  140.8661  154.0365 H   0  0  0  0  0  0  0  0  0  0  0  0
  145.7440  139.5561  152.3081 H   0  0  0  0  0  0  0  0  0  0  0  0
  147.4136  139.7858  151.8017 H   0  0  0  0  0  0  0  0  0  0  0  0
  147.8469  137.5390  152.1183 H   0  0  0  0  0  0  0  0  0  0  0  0
  147.4403  135.5185  152.3032 H   0  0  0  0  0  0  0  0  0  0  0  0
  145.0718  134.6735  153.8265 H   0  0  0  0  0  0  0  0  0  0  0  0
  147.6631  133.4094  153.0735 H   0  0  0  0  0  0  0  0  0  0  0  0
  146.7070  133.1772  154.5324 H   0  0  0  0  0  0  0  0  0  0  0  0
  146.7507  131.2399  152.6201 H   0  0  0  0  0  0  0  0  0  0  0  0
  145.2078  131.6475  153.3895 H   0  0  0  0  0  0  0  0  0  0  0  0
  145.0792  130.7516  150.5423 H   0  0  0  0  0  0  0  0  0  0  0  0
  143.6743  131.5417  151.2423 H   0  0  0  0  0  0  0  0  0  0  0  0
  145.2778  132.4435  148.7853 H   0  0  0  0  0  0  0  0  0  0  0  0
  143.6326  131.8620  148.7745 H   0  0  0  0  0  0  0  0  0  0  0  0
  143.8000  134.3867  148.5861 H   0  0  0  0  0  0  0  0  0  0  0  0
  142.8394  133.8625  149.9457 H   0  0  0  0  0  0  0  0  0  0  0  0
  145.7360  134.8526  150.0578 H   0  0  0  0  0  0  0  0  0  0  0  0
  144.3199  135.6586  150.7055 H   0  0  0  0  0  0  0  0  0  0  0  0
  143.9123  133.7140  152.2264 H   0  0  0  0  0  0  0  0  0  0  0  0
  149.2820  141.8079  154.7685 H   0  0  0  0  0  0  0  0  0  0  0  0
  146.3156  132.7588  150.9534 H   0  0  0  0  0  0  0  0  0  0  0  0
  1  2  1  0  0  0  0
  1 22  1  0  0  0  0
  1 23  1  0  0  0  0
  1 24  1  0  0  0  0
  2 21  1  0  0  0  0
  2  3  1  0  0  0  0
  3  4  2  0  0  0  0
  3 25  1  0  0  0  0
  4  5  1  0  0  0  0
  4 20  1  0  0  0  0
  5  6  1  0  0  0  0
  5 26  1  0  0  0  0
  5 27  1  0  0  0  0
  6  7  1  0  0  0  0
  6 28  1  0  0  0  0
  6 29  1  0  0  0  0
  7  8  1  0  0  0  0
  7 30  1  0  0  0  0
  8  9  2  0  0  0  0
  8 10  1  0  0  0  0
 10 11  1  0  0  0  0
 10 31  1  0  0  0  0
 11 19  1  0  0  0  0
 11 12  1  0  0  0  0
 11 32  1  0  0  0  0
 12 13  1  0  0  0  0
 12 33  1  0  0  0  0
 12 34  1  0  0  0  0
 13 14  1  0  0  0  0
 13 35  1  0  0  0  0
 13 36  1  0  0  0  0
 14 19  1  0  0  0  0
 14 15  1  0  0  0  0
 14 47  1  0  0  0  0
 15 16  1  0  0  0  0
 15 37  1  0  0  0  0
 15 38  1  0  0  0  0
 16 17  1  0  0  0  0
 16 39  1  0  0  0  0
 16 40  1  0  0  0  0
 17 18  1  0  0  0  0
 17 41  1  0  0  0  0
 17 42  1  0  0  0  0
 18 19  1  0  0  0  0
 18 43  1  0  0  0  0
 18 44  1  0  0  0  0
 19 45  1  0  0  0  0
 20 21  2  0  0  0  0
 20 46  1  0  0  0  0
M  CHG  1  14   1
M  END
> <s_m_source_file>
AV-unprocessed.smi

> <i_m_source_file_index>
557

> <i_lp_mmshare_version>
43012

> <i_f3d_flags>
0

> <s_epik_input>
W0NIM11uMVtjSF1jKFtjSF1uMSlbQ0gyXVtDSDJdW05IXUMoPU8pW05IXVtDQEhdKFtDSDJdW0NIMl0yKVtDQEhdKE4yMylbQ0gyXVtDSDJdW0NIMl1bQ0gyXTM=

> <s_epik_cmdline>
J2VwaWtfcHl0aG9uJywgJy1waCcsICc3LjAnLCAnLXRuJywgJzgnLCAnLW1hJywgJzIwMCcsICctbWV0YWxfYmluZGluZycsICctaW1hZScsICc8aW5maWxlLm1hZT4nLCAnLW9tYWUnLCAnPG91dGZpbGUubWFlPic=

> <r_lp_tautomer_probability>
1

> <r_epik_Ionization_Penalty>
0.000956547

> <r_epik_Ionization_Penalty_Charging>
0.000435796

> <r_epik_Ionization_Penalty_Neutral>
0.000520752

> <r_epik_State_Penalty>
-0

> <r_epik_Charging_Adjusted_Penalty>
0.000435796

> <i_epik_Tot_Q>
1

> <i_epik_Tot_abs_Q>
1

> <r_epik_Metal_State_Penalty>
-0

> <b_epik_Metal_Only>
0

> <s_lp_Force_Field>
OPLS_2005

> <r_lp_Energy>
46.5188

> <b_lp_Chiralities_Consistent>
1

> <s_lp_Variant>
AV-unprocessed.smi:557-1

> <Gold.Version>
5.8.1

> <Gold.Id.Protein>
6NUR|6NUR_protein|mol2

> <Gold.PLP.Fitness>
47.0866

> <Gold.PLP.PLP>
-36.2535

> <Gold.PLP.part.hbond>
-3.0000

> <Gold.PLP.part.metal>
0.0000

> <Gold.PLP.part.buried>
1.5709

> <Gold.PLP.part.nonpolar>
-33.6180

> <Gold.PLP.part.repulsive>
0.3262

> <Gold.PLP.ligand.clash>
0.0000

> <Gold.PLP.ligand.torsion>
0.5848

> <Gold.PLP.Chemscore.Hbond>
2.9840

> <Gold.PLP.Chemscore.CHOScore>
1.0000

> <Gold.PLP.Chemscore.Metal>
0.0000

> <Gold.Chemscore.Hbonds>
donor molecule, donor type, donor heavy atom, donor atom, acceptor molecule, acceptor atom, score
      L1  H     7    30       P1  7948  0.99
      L1  H    10    31       P1  7948  0.98
      P1  H  7989  7998       L1    21  1.00
      L1  C     3    25       P1  7948  1.00

> <Gold.PLP.Chemscore.Internal.Correction>
0.0506

> <Gold.Rescore>
     Score         DG    S(hbond)    S(metal)    S(lipo)     H(rot)  DE(clash)    DE(int)     intcor
     20.00     -20.92       2.49        0.00      95.77       1.60       0.34       0.57       ----

> <Gold.Chemscore.Fitness>
19.9994

> <Gold.Chemscore.DG>
-20.9171

> <Gold.Chemscore.ZeroCoef>
-5.4800

> <Gold.Chemscore.Hbond>
2.4948

> <Gold.Chemscore.Metal>
0.0000

> <Gold.Chemscore.Lipo>
95.7696

> <Gold.Chemscore.Internal_Hbond>
0.0000

> <Gold.Chemscore.DEClash>
0.3438

> <Gold.Chemscore.DEInternal>
0.5739

> <Gold.Chemscore.Rot>
1.6018

> <Gold.Chemscore.Internal.Correction>
   9.000000E+99

> <Gold.Chemscore.Hbonds>
donor molecule, donor type, donor heavy atom, donor atom, acceptor molecule, acceptor atom, score
      L1  H     7    30       P1  7948  0.94
      L1  H    10    31       P1  7948  0.93
      P1  H  7989  7998       L1    21  0.19

> <Gold.Chemscore.Hbond.Weighted>
-8.3326

> <Gold.Chemscore.Metal.Weighted>
-0.0000

> <Gold.Chemscore.Lipo.Weighted>
-11.2050

> <Gold.Chemscore.Internal_Hbond.Weighted>
0.0000

> <Gold.Chemscore.DEClash.Weighted>
0.3438

> <Gold.Chemscore.DEInternal.Weighted>
0.5739

> <Gold.Chemscore.Rot.Weighted>
4.1006

> <Gold.Chemscore.Internal.Correction.Weighted>
   9.000000E+99

> <Gold.Protein.RotatedTorsions>
[ 6907 6896 6895 6894 ] final  105.62 input  -60.11 | X-H torsion
[ 7974 7965 7964 7962 ] final -101.67 input  175.53 | X-H torsion
[ 8008 7997 7996 7995 ] final  150.88 input   59.86 | X-H torsion
[ 10167 10162 10161 10158 ] final   31.27 input  -65.29 | X-H torsion
[ 10718 10713 10712 10709 ] final  149.78 input   66.30 | X-H torsion
[ 10763 10752 10751 10750 ] final  115.92 input  -60.55 | X-H torsion
[ 11005 11000 10999 10996 ] final   17.81 input  -57.11 | X-H torsion

> <Gold.Protein.ActiveResidues>
 VAL166  LYS551  ARG553  GLY616  TRP617  ASP618  TYR619  PRO620  LYS621  CYS622 
 ASP623  PHE694  ASN695  SER759  ASP760  ASP761  ALA762  ILE779  LEU786  VAL792 
 PHE793  MET794  SER795  GLU796  ALA797  LYS798  CYS799  TRP800  GLU811  SER814 

> <Gold.Protein.RotatedAtoms>
  152.5224  133.9501  159.7667 H   0  0  0  0  0  0  0  0  0  0  0  0  # atno 6907 bound_to 6896
  150.9813  133.6234  159.2729 H   0  0  0  0  0  0  0  0  0  0  0  0  # atno 6908 bound_to 6896
  151.3410  135.0869  159.9424 H   0  0  0  0  0  0  0  0  0  0  0  0  # atno 6909 bound_to 6896
  145.2786  140.9320  143.2945 H   0  0  0  0  0  0  0  0  0  0  0  0  # atno 7974 bound_to 7965
  156.2697  140.2063  156.6087 H   0  0  0  0  0  0  0  0  0  0  0  0  # atno 8008 bound_to 7997
  154.6848  140.0536  157.0327 H   0  0  0  0  0  0  0  0  0  0  0  0  # atno 8009 bound_to 7997
  155.0949  140.3200  155.4566 H   0  0  0  0  0  0  0  0  0  0  0  0  # atno 8010 bound_to 7997
  140.4603  144.0916  150.6211 H   0  0  0  0  0  0  0  0  0  0  0  0  # atno 10167 bound_to 10162
  157.2917  131.0854  151.1457 H   0  0  0  0  0  0  0  0  0  0  0  0  # atno 10718 bound_to 10713
  153.5294  135.3581  155.2668 H   0  0  0  0  0  0  0  0  0  0  0  0  # atno 10763 bound_to 10752
  154.8728  135.4064  154.3169 H   0  0  0  0  0  0  0  0  0  0  0  0  # atno 10764 bound_to 10752
  153.3855  135.7070  153.6601 H   0  0  0  0  0  0  0  0  0  0  0  0  # atno 10765 bound_to 10752
  140.4317  134.1413  155.7681 H   0  0  0  0  0  0  0  0  0  0  0  0  # atno 11005 bound_to 11000
  144.9272  139.4341  143.6512 LP  0  0  0  0  0  0  0  0  0  0  0  0  # atno 17320 bound_to 7965
  146.3223  139.8164  142.8935 LP  0  0  0  0  0  0  0  0  0  0  0  0  # atno 17321 bound_to 7965
  140.4101  143.2661  151.9843 LP  0  0  0  0  0  0  0  0  0  0  0  0  # atno 17342 bound_to 10162
  139.4805  144.5923  151.7751 LP  0  0  0  0  0  0  0  0  0  0  0  0  # atno 17343 bound_to 10162
  157.2850  130.6768  149.6085 LP  0  0  0  0  0  0  0  0  0  0  0  0  # atno 17370 bound_to 10713
  155.9667  130.4438  150.5436 LP  0  0  0  0  0  0  0  0  0  0  0  0  # atno 17371 bound_to 10713
  141.1742  133.8547  157.1473 LP  0  0  0  0  0  0  0  0  0  0  0  0  # atno 17394 bound_to 11000
  140.0129  134.9980  157.0433 LP  0  0  0  0  0  0  0  0  0  0  0  0  # atno 17395 bound_to 11000

$$$$
