AV-unprocessed.smi:1413|AV-procd|sdf|5759|dock4
  -GOLD-   22720 5393D 1   1.00000     0.00000
 Structure written by MMmdl.
 53 55  0  0  0  0  0  0  0  0  1 V2000
  152.0043  144.3973  157.6316 C   0  0  0  0  0  0  0  0  0  0  0  0
  151.1820  143.6029  158.6622 C   0  0  1  0  0  0  0  0  0  0  0  0
  150.2715  142.5336  158.0265 C   0  0  0  0  0  0  0  0  0  0  0  0
  151.0474  141.3757  157.5923 N   0  0  0  0  0  0  0  0  0  0  0  0
  150.3698  140.4761  156.7425 C   0  0  0  0  0  0  0  0  0  0  0  0
  150.8916  140.1847  155.4609 C   0  0  0  0  0  0  0  0  0  0  0  0
  150.2006  139.2855  154.6272 C   0  0  0  0  0  0  0  0  0  0  0  0
  149.0023  138.7044  155.0846 C   0  0  0  0  0  0  0  0  0  0  0  0
  148.3362  137.7844  154.2311 N   0  0  0  0  0  0  0  0  0  0  0  0
  147.0318  137.4627  154.2062 C   0  0  0  0  0  0  0  0  0  0  0  0
  146.1630  137.9634  154.9198 O   0  0  0  0  0  0  0  0  0  0  0  0
  146.7853  136.5254  153.2796 N   0  0  0  0  0  0  0  0  0  0  0  0
  145.4769  135.9571  152.9591 C   0  0  1  0  0  0  0  0  0  0  0  0
  144.4652  137.1032  152.8141 C   0  0  0  0  0  0  0  0  0  0  0  0
  145.5564  135.1012  151.6781 C   0  0  1  0  0  0  0  0  0  0  0  0
  146.4721  133.8800  151.7659 C   0  0  0  0  0  0  0  0  0  0  0  0
  145.9330  132.9611  150.6828 C   0  0  0  0  0  0  0  0  0  0  0  0
  144.5126  133.4768  150.4323 C   0  0  0  0  0  0  0  0  0  0  0  0
  144.3021  134.4997  151.3969 O   0  0  0  0  0  0  0  0  0  0  0  0
  148.5648  139.0424  156.3870 C   0  0  0  0  0  0  0  0  0  0  0  0
  149.2268  139.9014  157.1908 N   0  0  0  0  0  0  0  0  0  0  0  0
  151.8915  140.8221  158.6472 C   0  0  0  0  0  0  0  0  0  0  0  0
  152.8003  141.9164  159.2349 C   0  0  2  0  0  0  0  0  0  0  0  0
  153.6074  141.4057  160.4332 C   0  0  0  0  0  0  0  0  0  0  0  0
  152.0037  143.0160  159.6743 O   0  0  0  0  0  0  0  0  0  0  0  0
  151.3481  144.9385  156.9499 H   0  0  0  0  0  0  0  0  0  0  0  0
  152.6401  143.7541  157.0237 H   0  0  0  0  0  0  0  0  0  0  0  0
  152.6424  145.1304  158.1251 H   0  0  0  0  0  0  0  0  0  0  0  0
  150.5402  144.3217  159.1724 H   0  0  0  0  0  0  0  0  0  0  0  0
  149.5403  142.1947  158.7615 H   0  0  0  0  0  0  0  0  0  0  0  0
  149.7062  142.9777  157.2079 H   0  0  0  0  0  0  0  0  0  0  0  0
  151.8156  140.6262  155.1183 H   0  0  0  0  0  0  0  0  0  0  0  0
  150.5893  139.0485  153.6476 H   0  0  0  0  0  0  0  0  0  0  0  0
  148.9132  137.3546  153.5232 H   0  0  0  0  0  0  0  0  0  0  0  0
  147.5673  136.1781  152.7441 H   0  0  0  0  0  0  0  0  0  0  0  0
  145.1382  135.3223  153.7800 H   0  0  0  0  0  0  0  0  0  0  0  0
  143.4647  136.7225  152.6077 H   0  0  0  0  0  0  0  0  0  0  0  0
  144.7390  137.7750  151.9998 H   0  0  0  0  0  0  0  0  0  0  0  0
  144.4076  137.6935  153.7291 H   0  0  0  0  0  0  0  0  0  0  0  0
  145.8481  135.7194  150.8264 H   0  0  0  0  0  0  0  0  0  0  0  0
  147.5253  134.1264  151.6279 H   0  0  0  0  0  0  0  0  0  0  0  0
  146.3633  133.3989  152.7392 H   0  0  0  0  0  0  0  0  0  0  0  0
  146.5284  133.0372  149.7723 H   0  0  0  0  0  0  0  0  0  0  0  0
  145.9420  131.9194  151.0048 H   0  0  0  0  0  0  0  0  0  0  0  0
  144.4304  133.9020  149.4312 H   0  0  0  0  0  0  0  0  0  0  0  0
  143.7608  132.6935  150.5313 H   0  0  0  0  0  0  0  0  0  0  0  0
  147.6788  138.6086  156.8233 H   0  0  0  0  0  0  0  0  0  0  0  0
  151.2578  140.3971  159.4271 H   0  0  0  0  0  0  0  0  0  0  0  0
  152.5084  140.0146  158.2509 H   0  0  0  0  0  0  0  0  0  0  0  0
  153.5042  142.2541  158.4741 H   0  0  0  0  0  0  0  0  0  0  0  0
  154.2426  140.5663  160.1493 H   0  0  0  0  0  0  0  0  0  0  0  0
  152.9517  141.0719  161.2379 H   0  0  0  0  0  0  0  0  0  0  0  0
  154.2515  142.1899  160.8317 H   0  0  0  0  0  0  0  0  0  0  0  0
  1  2  1  0  0  0  0
  1 26  1  0  0  0  0
  1 27  1  0  0  0  0
  1 28  1  0  0  0  0
  2 25  1  0  0  0  0
  2  3  1  0  0  0  0
  2 29  1  0  0  0  0
  3  4  1  0  0  0  0
  3 30  1  0  0  0  0
  3 31  1  0  0  0  0
  4  5  1  0  0  0  0
  4 22  1  0  0  0  0
  5 21  1  0  0  0  0
  5  6  2  0  0  0  0
  6  7  1  0  0  0  0
  6 32  1  0  0  0  0
  7  8  2  0  0  0  0
  7 33  1  0  0  0  0
  8  9  1  0  0  0  0
  8 20  1  0  0  0  0
  9 10  1  0  0  0  0
  9 34  1  0  0  0  0
 10 11  2  0  0  0  0
 10 12  1  0  0  0  0
 12 13  1  0  0  0  0
 12 35  1  0  0  0  0
 13 14  1  0  0  0  0
 13 15  1  0  0  0  0
 13 36  1  0  0  0  0
 14 37  1  0  0  0  0
 14 38  1  0  0  0  0
 14 39  1  0  0  0  0
 15 19  1  0  0  0  0
 15 16  1  0  0  0  0
 15 40  1  0  0  0  0
 16 17  1  0  0  0  0
 16 41  1  0  0  0  0
 16 42  1  0  0  0  0
 17 18  1  0  0  0  0
 17 43  1  0  0  0  0
 17 44  1  0  0  0  0
 18 19  1  0  0  0  0
 18 45  1  0  0  0  0
 18 46  1  0  0  0  0
 20 21  2  0  0  0  0
 20 47  1  0  0  0  0
 22 23  1  0  0  0  0
 22 48  1  0  0  0  0
 22 49  1  0  0  0  0
 23 24  1  0  0  0  0
 23 25  1  0  0  0  0
 23 50  1  0  0  0  0
 24 51  1  0  0  0  0
 24 52  1  0  0  0  0
 24 53  1  0  0  0  0
M  END
> <s_m_source_file>
AV-unprocessed.smi

> <i_m_source_file_index>
1413

> <i_lp_mmshare_version>
43012

> <i_f3d_flags>
0

> <s_epik_input>
W0NIM11bQ0BASF0xW0NIMl1OKFtDSDJdW0NASF0oTzEpW0NIM10pYzJbY0hdW2NIXWMoW2NIXW4yKVtOSF1DKD1PKVtOSF1bQ0BIXShbQ0gzXSlbQ0BASF0zW0NIMl1bQ0gyXVtDSDJdTzM=

> <s_epik_cmdline>
J2VwaWtfcHl0aG9uJywgJy1waCcsICc3LjAnLCAnLXRuJywgJzgnLCAnLW1hJywgJzIwMCcsICctbWV0YWxfYmluZGluZycsICctaW1hZScsICc8aW5maWxlLm1hZT4nLCAnLW9tYWUnLCAnPG91dGZpbGUubWFlPic=

> <r_lp_tautomer_probability>
1

> <r_epik_Ionization_Penalty>
0.00271172

> <r_epik_Ionization_Penalty_Charging>
0

> <r_epik_Ionization_Penalty_Neutral>
0.00271172

> <r_epik_State_Penalty>
0.00186503

> <r_epik_Charging_Adjusted_Penalty>
0.00186503

> <i_epik_Tot_Q>
0

> <i_epik_Tot_abs_Q>
0

> <r_epik_Metal_State_Penalty>
-0

> <b_epik_Metal_Only>
0

> <s_lp_Force_Field>
OPLS_2005

> <r_lp_Energy>
37.0854

> <b_lp_Chiralities_Consistent>
1

> <s_lp_Variant>
AV-unprocessed.smi:1413-12

> <Gold.Version>
5.8.1

> <Gold.Id.Protein>
6NUR|6NUR_protein|mol2

> <Gold.PLP.Fitness>
45.7651

> <Gold.PLP.PLP>
-40.8072

> <Gold.PLP.part.hbond>
-1.9872

> <Gold.PLP.part.metal>
0.0000

> <Gold.PLP.part.buried>
-5.4700

> <Gold.PLP.part.nonpolar>
-33.8955

> <Gold.PLP.part.repulsive>
0.2713

> <Gold.PLP.ligand.clash>
0.0000

> <Gold.PLP.ligand.torsion>
0.5645

> <Gold.PLP.Chemscore.Hbond>
1.9120

> <Gold.PLP.Chemscore.CHOScore>
0.0000

> <Gold.PLP.Chemscore.Metal>
0.0000

> <Gold.Chemscore.Hbonds>
donor molecule, donor type, donor heavy atom, donor atom, acceptor molecule, acceptor atom, score
      L1  H     9    34       P1  7948  0.94
      L1  H    12    35       P1  7948  1.00

> <Gold.PLP.Chemscore.Internal.Correction>
0.3509

> <Gold.Rescore>
     Score         DG    S(hbond)    S(metal)    S(lipo)     H(rot)  DE(clash)    DE(int)     intcor
     18.22     -21.07       1.95        0.00     106.97       1.35       0.01       2.84       ----

> <Gold.Chemscore.Fitness>
18.2226

> <Gold.Chemscore.DG>
-21.0707

> <Gold.Chemscore.ZeroCoef>
-5.4800

> <Gold.Chemscore.Hbond>
1.9533

> <Gold.Chemscore.Metal>
0.0000

> <Gold.Chemscore.Lipo>
106.9685

> <Gold.Chemscore.Internal_Hbond>
0.0000

> <Gold.Chemscore.DEClash>
0.0121

> <Gold.Chemscore.DEInternal>
2.8360

> <Gold.Chemscore.Rot>
1.3471

> <Gold.Chemscore.Internal.Correction>
   9.000000E+99

> <Gold.Chemscore.Hbonds>
donor molecule, donor type, donor heavy atom, donor atom, acceptor molecule, acceptor atom, score
      L1  H     9    34       P1  7948  0.88
      L1  H    12    35       P1  7948  0.99

> <Gold.Chemscore.Hbond.Weighted>
-6.5239

> <Gold.Chemscore.Metal.Weighted>
-0.0000

> <Gold.Chemscore.Lipo.Weighted>
-12.5153

> <Gold.Chemscore.Internal_Hbond.Weighted>
0.0000

> <Gold.Chemscore.DEClash.Weighted>
0.0121

> <Gold.Chemscore.DEInternal.Weighted>
2.8360

> <Gold.Chemscore.Rot.Weighted>
3.4485

> <Gold.Chemscore.Internal.Correction.Weighted>
   9.000000E+99

> <Gold.Protein.RotatedTorsions>
[ 6907 6896 6895 6894 ] final   33.45 input  -60.11 | X-H torsion
[ 7974 7965 7964 7962 ] final   75.32 input  175.53 | X-H torsion
[ 8008 7997 7996 7995 ] final  117.41 input   59.86 | X-H torsion
[ 10167 10162 10161 10158 ] final   77.89 input  -65.29 | X-H torsion
[ 10718 10713 10712 10709 ] final  -60.98 input   66.30 | X-H torsion
[ 10763 10752 10751 10750 ] final   71.16 input  -60.55 | X-H torsion
[ 11005 11000 10999 10996 ] final   59.08 input  -57.11 | X-H torsion

> <Gold.Protein.ActiveResidues>
 VAL166  LYS551  ARG553  GLY616  TRP617  ASP618  TYR619  PRO620  LYS621  CYS622 
 ASP623  PHE694  ASN695  SER759  ASP760  ASP761  ALA762  ILE779  LEU786  VAL792 
 PHE793  MET794  SER795  GLU796  ALA797  LYS798  CYS799  TRP800  GLU811  SER814 

> <Gold.Protein.RotatedAtoms>
  152.0886  134.9422  160.0572 H   0  0  0  0  0  0  0  0  0  0  0  0  # atno 6907 bound_to 6896
  152.0683  133.4089  159.4456 H   0  0  0  0  0  0  0  0  0  0  0  0  # atno 6908 bound_to 6896
  150.6836  134.3041  159.4762 H   0  0  0  0  0  0  0  0  0  0  0  0  # atno 6909 bound_to 6896
  145.7171  139.2635  143.1617 H   0  0  0  0  0  0  0  0  0  0  0  0  # atno 7974 bound_to 7965
  156.2492  140.2897  156.0673 H   0  0  0  0  0  0  0  0  0  0  0  0  # atno 8008 bound_to 7997
  155.1709  140.0402  157.2880 H   0  0  0  0  0  0  0  0  0  0  0  0  # atno 8009 bound_to 7997
  154.6326  140.2503  155.7422 H   0  0  0  0  0  0  0  0  0  0  0  0  # atno 8010 bound_to 7997
  139.9767  144.5855  150.7936 H   0  0  0  0  0  0  0  0  0  0  0  0  # atno 10167 bound_to 10162
  156.0953  130.4194  150.0930 H   0  0  0  0  0  0  0  0  0  0  0  0  # atno 10718 bound_to 10713
  153.0383  135.5147  154.7552 H   0  0  0  0  0  0  0  0  0  0  0  0  # atno 10763 bound_to 10752
  154.6510  135.2925  154.9989 H   0  0  0  0  0  0  0  0  0  0  0  0  # atno 10764 bound_to 10752
  154.0873  135.6655  153.4899 H   0  0  0  0  0  0  0  0  0  0  0  0  # atno 10765 bound_to 10752
  140.0330  134.5984  155.9481 H   0  0  0  0  0  0  0  0  0  0  0  0  # atno 11005 bound_to 11000
  146.0660  140.7920  142.9711 LP  0  0  0  0  0  0  0  0  0  0  0  0  # atno 17320 bound_to 7965
  144.6926  140.3269  143.7222 LP  0  0  0  0  0  0  0  0  0  0  0  0  # atno 17321 bound_to 7965
  140.7503  143.2953  151.3221 LP  0  0  0  0  0  0  0  0  0  0  0  0  # atno 17342 bound_to 10162
  139.6440  144.0486  152.2576 LP  0  0  0  0  0  0  0  0  0  0  0  0  # atno 17343 bound_to 10162
  156.8930  130.9595  151.3586 LP  0  0  0  0  0  0  0  0  0  0  0  0  # atno 17370 bound_to 10713
  157.6112  130.8584  149.8955 LP  0  0  0  0  0  0  0  0  0  0  0  0  # atno 17371 bound_to 10713
  141.1842  133.6552  156.5146 LP  0  0  0  0  0  0  0  0  0  0  0  0  # atno 17394 bound_to 11000
  140.4194  134.7201  157.4881 LP  0  0  0  0  0  0  0  0  0  0  0  0  # atno 17395 bound_to 11000

$$$$
