AV-unprocessed.smi:1895|AV-procd|sdf|7681|dock6
  -GOLD-   22720 9423D 1   1.00000     0.00000
 Structure written by MMmdl.
 36 37  0  0  0  0  0  0  0  0  1 V2000
  154.0629  140.4472  160.5724 C   0  0  0  0  0  0  0  0  0  0  0  0
  153.3220  141.7200  160.2866 C   0  0  0  0  0  0  0  0  0  0  0  0
  153.1153  142.8321  161.1500 C   0  0  0  0  0  0  0  0  0  0  0  0
  152.3827  143.7091  160.4009 C   0  0  0  0  0  0  0  0  0  0  0  0
  151.8477  145.0598  160.7468 C   0  0  0  0  0  0  0  0  0  0  0  0
  152.1864  143.1160  159.1659 N   0  0  0  0  0  0  0  0  0  0  0  0
  151.4730  143.6271  158.0032 C   0  0  0  0  0  0  0  0  0  0  0  0
  150.4458  142.6348  157.4426 C   0  0  0  0  0  0  0  0  0  0  0  0
  149.5318  142.1958  158.1426 O   0  0  0  0  0  0  0  0  0  0  0  0
  150.6114  142.2938  156.1558 N   0  0  0  0  0  0  0  0  0  0  0  0
  149.7636  141.3677  155.4140 C   0  0  0  0  0  0  0  0  0  0  0  0
  150.2584  139.9180  155.5432 C   0  0  1  0  0  0  0  0  0  0  0  0
  149.4945  138.9278  154.6693 C   0  0  0  0  0  0  0  0  0  0  0  0
  150.4754  137.7798  154.5866 C   0  0  0  0  0  0  0  0  0  0  0  0
  151.8255  138.4967  154.5564 C   0  0  0  0  0  0  0  0  0  0  0  0
  151.6027  139.8004  155.0903 O   0  0  0  0  0  0  0  0  0  0  0  0
  152.7645  141.8967  159.1000 N   0  0  0  0  0  0  0  0  0  0  0  0
  154.4574  140.4409  161.5885 H   0  0  0  0  0  0  0  0  0  0  0  0
  154.9033  140.3200  159.8897 H   0  0  0  0  0  0  0  0  0  0  0  0
  153.4101  139.5807  160.4648 H   0  0  0  0  0  0  0  0  0  0  0  0
  153.4528  142.9644  162.1671 H   0  0  0  0  0  0  0  0  0  0  0  0
  152.0936  145.3238  161.7754 H   0  0  0  0  0  0  0  0  0  0  0  0
  150.7626  145.0859  160.6451 H   0  0  0  0  0  0  0  0  0  0  0  0
  152.2694  145.8245  160.0945 H   0  0  0  0  0  0  0  0  0  0  0  0
  150.9671  144.5528  158.2786 H   0  0  0  0  0  0  0  0  0  0  0  0
  152.1962  143.8808  157.2262 H   0  0  0  0  0  0  0  0  0  0  0  0
  151.3899  142.6966  155.6547 H   0  0  0  0  0  0  0  0  0  0  0  0
  148.7328  141.4484  155.7632 H   0  0  0  0  0  0  0  0  0  0  0  0
  149.7591  141.6699  154.3664 H   0  0  0  0  0  0  0  0  0  0  0  0
  150.2143  139.5855  156.5820 H   0  0  0  0  0  0  0  0  0  0  0  0
  148.5323  138.6391  155.0933 H   0  0  0  0  0  0  0  0  0  0  0  0
  149.3218  139.3442  153.6757 H   0  0  0  0  0  0  0  0  0  0  0  0
  150.4006  137.1641  155.4839 H   0  0  0  0  0  0  0  0  0  0  0  0
  150.3134  137.1387  153.7196 H   0  0  0  0  0  0  0  0  0  0  0  0
  152.5793  137.9608  155.1341 H   0  0  0  0  0  0  0  0  0  0  0  0
  152.1914  138.5973  153.5340 H   0  0  0  0  0  0  0  0  0  0  0  0
  1  2  1  0  0  0  0
  1 18  1  0  0  0  0
  1 19  1  0  0  0  0
  1 20  1  0  0  0  0
  2 17  2  0  0  0  0
  2  3  1  0  0  0  0
  3  4  2  0  0  0  0
  3 21  1  0  0  0  0
  4  5  1  0  0  0  0
  4  6  1  0  0  0  0
  5 22  1  0  0  0  0
  5 23  1  0  0  0  0
  5 24  1  0  0  0  0
  6  7  1  0  0  0  0
  6 17  1  0  0  0  0
  7  8  1  0  0  0  0
  7 25  1  0  0  0  0
  7 26  1  0  0  0  0
  8  9  2  0  0  0  0
  8 10  1  0  0  0  0
 10 11  1  0  0  0  0
 10 27  1  0  0  0  0
 11 12  1  0  0  0  0
 11 28  1  0  0  0  0
 11 29  1  0  0  0  0
 12 16  1  0  0  0  0
 12 13  1  0  0  0  0
 12 30  1  0  0  0  0
 13 14  1  0  0  0  0
 13 31  1  0  0  0  0
 13 32  1  0  0  0  0
 14 15  1  0  0  0  0
 14 33  1  0  0  0  0
 14 34  1  0  0  0  0
 15 16  1  0  0  0  0
 15 35  1  0  0  0  0
 15 36  1  0  0  0  0
M  END
> <s_m_source_file>
AV-unprocessed.smi

> <i_m_source_file_index>
1895

> <i_lp_mmshare_version>
43012

> <i_f3d_flags>
0

> <s_epik_input>
W0NIM11jMVtjSF1jKFtDSDNdKW4objEpW0NIMl1DKD1PKVtOSF1bQ0gyXVtDQEBIXTJbQ0gyXVtDSDJdW0NIMl1PMg==

> <s_epik_cmdline>
J2VwaWtfcHl0aG9uJywgJy1waCcsICc3LjAnLCAnLXRuJywgJzgnLCAnLW1hJywgJzIwMCcsICctbWV0YWxfYmluZGluZycsICctaW1hZScsICc8aW5maWxlLm1hZT4nLCAnLW9tYWUnLCAnPG91dGZpbGUubWFlPic=

> <r_lp_tautomer_probability>
1

> <r_epik_Ionization_Penalty>
0.000408438

> <r_epik_Ionization_Penalty_Charging>
0

> <r_epik_Ionization_Penalty_Neutral>
0.000408438

> <r_epik_State_Penalty>
-0

> <r_epik_Charging_Adjusted_Penalty>
0

> <i_epik_Tot_Q>
0

> <i_epik_Tot_abs_Q>
0

> <r_epik_Metal_State_Penalty>
-0

> <b_epik_Metal_Only>
0

> <s_lp_Force_Field>
OPLS_2005

> <r_lp_Energy>
16.1731

> <b_lp_Chiralities_Consistent>
1

> <s_lp_Variant>
AV-unprocessed.smi:1895-2

> <Gold.Version>
5.8.1

> <Gold.Id.Protein>
6NUR|6NUR_protein|mol2

> <Gold.PLP.Fitness>
44.4947

> <Gold.PLP.PLP>
-42.0663

> <Gold.PLP.part.hbond>
-2.0000

> <Gold.PLP.part.metal>
0.0000

> <Gold.PLP.part.buried>
-3.4799

> <Gold.PLP.part.nonpolar>
-37.0182

> <Gold.PLP.part.repulsive>
0.2787

> <Gold.PLP.ligand.clash>
0.0000

> <Gold.PLP.ligand.torsion>
0.2811

> <Gold.PLP.Chemscore.Hbond>
0.9920

> <Gold.PLP.Chemscore.CHOScore>
0.0000

> <Gold.PLP.Chemscore.Metal>
0.0000

> <Gold.Chemscore.Hbonds>
donor molecule, donor type, donor heavy atom, donor atom, acceptor molecule, acceptor atom, score
      P1  H  7989  7998       L1    16  1.00

> <Gold.PLP.Chemscore.Internal.Correction>
0.0146

> <Gold.Rescore>
     Score         DG    S(hbond)    S(metal)    S(lipo)     H(rot)  DE(clash)    DE(int)     intcor
     15.40     -15.83       0.84        0.00      98.19       1.54       0.09       0.34       ----

> <Gold.Chemscore.Fitness>
15.3978

> <Gold.Chemscore.DG>
-15.8337

> <Gold.Chemscore.ZeroCoef>
-5.4800

> <Gold.Chemscore.Hbond>
0.8396

> <Gold.Chemscore.Metal>
0.0000

> <Gold.Chemscore.Lipo>
98.1930

> <Gold.Chemscore.Internal_Hbond>
0.0000

> <Gold.Chemscore.DEClash>
0.0937

> <Gold.Chemscore.DEInternal>
0.3421

> <Gold.Chemscore.Rot>
1.5387

> <Gold.Chemscore.Internal.Correction>
   9.000000E+99

> <Gold.Chemscore.Hbonds>
donor molecule, donor type, donor heavy atom, donor atom, acceptor molecule, acceptor atom, score
      P1  H  7989  7998       L1    16  0.13

> <Gold.Chemscore.Hbond.Weighted>
-2.8043

> <Gold.Chemscore.Metal.Weighted>
-0.0000

> <Gold.Chemscore.Lipo.Weighted>
-11.4886

> <Gold.Chemscore.Internal_Hbond.Weighted>
0.0000

> <Gold.Chemscore.DEClash.Weighted>
0.0937

> <Gold.Chemscore.DEInternal.Weighted>
0.3421

> <Gold.Chemscore.Rot.Weighted>
3.9392

> <Gold.Chemscore.Internal.Correction.Weighted>
   9.000000E+99

> <Gold.Protein.RotatedTorsions>
[ 6907 6896 6895 6894 ] final -120.66 input  -60.11 | X-H torsion
[ 7974 7965 7964 7962 ] final  -11.17 input  175.53 | X-H torsion
[ 8008 7997 7996 7995 ] final  137.06 input   59.86 | X-H torsion
[ 10167 10162 10161 10158 ] final  -27.20 input  -65.29 | X-H torsion
[ 10718 10713 10712 10709 ] final  166.44 input   66.30 | X-H torsion
[ 10763 10752 10751 10750 ] final  -95.75 input  -60.55 | X-H torsion
[ 11005 11000 10999 10996 ] final  -12.89 input  -57.11 | X-H torsion

> <Gold.Protein.ActiveResidues>
 VAL166  LYS551  ARG553  GLY616  TRP617  ASP618  TYR619  PRO620  LYS621  CYS622 
 ASP623  PHE694  ASN695  SER759  ASP760  ASP761  ALA762  ILE779  LEU786  VAL792 
 PHE793  MET794  SER795  GLU796  ALA797  LYS798  CYS799  TRP800  GLU811  SER814 

> <Gold.Protein.RotatedAtoms>
  150.8413  133.7932  159.3059 H   0  0  0  0  0  0  0  0  0  0  0  0  # atno 6907 bound_to 6896
  151.5632  135.1063  159.9987 H   0  0  0  0  0  0  0  0  0  0  0  0  # atno 6908 bound_to 6896
  152.4476  133.7524  159.6757 H   0  0  0  0  0  0  0  0  0  0  0  0  # atno 6909 bound_to 6896
  146.2196  140.2871  142.8366 H   0  0  0  0  0  0  0  0  0  0  0  0  # atno 7974 bound_to 7965
  156.3003  140.2429  156.3847 H   0  0  0  0  0  0  0  0  0  0  0  0  # atno 8008 bound_to 7997
  154.8669  140.0417  157.1720 H   0  0  0  0  0  0  0  0  0  0  0  0  # atno 8009 bound_to 7997
  154.8837  140.2953  155.5414 H   0  0  0  0  0  0  0  0  0  0  0  0  # atno 8010 bound_to 7997
  140.7279  143.4114  151.1100 H   0  0  0  0  0  0  0  0  0  0  0  0  # atno 10167 bound_to 10162
  157.0658  131.0352  151.2630 H   0  0  0  0  0  0  0  0  0  0  0  0  # atno 10718 bound_to 10713
  154.7177  135.5109  153.8763 H   0  0  0  0  0  0  0  0  0  0  0  0  # atno 10763 bound_to 10752
  153.0835  135.6638  154.0006 H   0  0  0  0  0  0  0  0  0  0  0  0  # atno 10764 bound_to 10752
  153.9835  135.3026  155.3397 H   0  0  0  0  0  0  0  0  0  0  0  0  # atno 10765 bound_to 10752
  140.7705  133.8442  155.9202 H   0  0  0  0  0  0  0  0  0  0  0  0  # atno 11005 bound_to 11000
  144.9154  140.7806  143.5781 LP  0  0  0  0  0  0  0  0  0  0  0  0  # atno 17320 bound_to 7965
  145.2804  139.1920  143.4794 LP  0  0  0  0  0  0  0  0  0  0  0  0  # atno 17321 bound_to 7965
  139.7747  143.8442  152.3127 LP  0  0  0  0  0  0  0  0  0  0  0  0  # atno 17342 bound_to 10162
  139.8373  144.7226  150.9375 LP  0  0  0  0  0  0  0  0  0  0  0  0  # atno 17343 bound_to 10162
  157.4918  130.7826  149.7515 LP  0  0  0  0  0  0  0  0  0  0  0  0  # atno 17370 bound_to 10713
  155.9965  130.3905  150.2777 LP  0  0  0  0  0  0  0  0  0  0  0  0  # atno 17371 bound_to 10713
  140.9578  134.1695  157.4678 LP  0  0  0  0  0  0  0  0  0  0  0  0  # atno 17394 bound_to 11000
  139.8756  134.9933  156.5640 LP  0  0  0  0  0  0  0  0  0  0  0  0  # atno 17395 bound_to 11000

$$$$
