AV-unprocessed.smi:1763|AV-procd|sdf|7130|dock1
  -GOLD-   22720 8363D 1   1.00000     0.00000
 Structure written by MMmdl.
 42 43  0  0  0  0  0  0  0  0  3 V2000
  145.5936  135.6874  151.1696 C   0  0  0  0  0  0  0  0  0  0  0  0
  145.8562  135.8536  152.5944 N   0  5  0  0  0  0  0  0  0  0  0  0
  145.6209  137.0116  153.2713 C   0  0  0  0  0  0  0  0  0  0  0  0
  145.1501  137.2060  154.3964 O   0  0  0  0  0  0  0  0  0  0  0  0
  146.0292  138.2306  152.4350 C   0  0  0  0  0  0  0  0  0  0  0  0
  146.7561  139.2205  153.2703 N   0  3  2  0  0  0  0  0  0  0  0  0
  147.0000  140.4986  152.5567 C   0  0  0  0  0  0  0  0  0  0  0  0
  147.6059  141.5518  153.4997 C   0  0  0  0  0  0  0  0  0  0  0  0
  148.9023  141.0385  154.1466 C   0  0  1  0  0  0  0  0  0  0  0  0
  149.4051  142.0220  155.1014 N   0  0  0  0  0  0  0  0  0  0  0  0
  150.2969  141.7701  156.0710 C   0  0  0  0  0  0  0  0  0  0  0  0
  150.8051  140.6632  156.2529 O   0  0  0  0  0  0  0  0  0  0  0  0
  150.5462  142.8713  156.8017 N   0  0  0  0  0  0  0  0  0  0  0  0
  151.4108  143.0045  157.9209 C   0  0  0  0  0  0  0  0  0  0  0  0
  151.6319  144.3321  158.3519 C   0  0  0  0  0  0  0  0  0  0  0  0
  152.4717  144.5710  159.4570 C   0  0  0  0  0  0  0  0  0  0  0  0
  153.0709  143.4746  160.1025 C   0  0  0  0  0  0  0  0  0  0  0  0
  152.7995  142.1852  159.6089 C   0  0  0  0  0  0  0  0  0  0  0  0
  151.9942  141.9540  158.5508 N   0  0  0  0  0  0  0  0  0  0  0  0
  148.6336  139.6916  154.8428 C   0  0  0  0  0  0  0  0  0  0  0  0
  148.0035  138.6794  153.8724 C   0  0  0  0  0  0  0  0  0  0  0  0
  145.8069  134.6725  150.8346 H   0  0  0  0  0  0  0  0  0  0  0  0
  146.2057  136.3492  150.5562 H   0  0  0  0  0  0  0  0  0  0  0  0
  144.5536  135.8868  150.9100 H   0  0  0  0  0  0  0  0  0  0  0  0
  146.6407  137.9294  151.5827 H   0  0  0  0  0  0  0  0  0  0  0  0
  145.1201  138.6727  152.0234 H   0  0  0  0  0  0  0  0  0  0  0  0
  147.6635  140.3226  151.7084 H   0  0  0  0  0  0  0  0  0  0  0  0
  146.0611  140.8795  152.1533 H   0  0  0  0  0  0  0  0  0  0  0  0
  147.8009  142.4716  152.9469 H   0  0  0  0  0  0  0  0  0  0  0  0
  146.8781  141.8036  154.2729 H   0  0  0  0  0  0  0  0  0  0  0  0
  149.6421  140.8908  153.3571 H   0  0  0  0  0  0  0  0  0  0  0  0
  149.0382  142.9595  155.0248 H   0  0  0  0  0  0  0  0  0  0  0  0
  150.0517  143.7094  156.5343 H   0  0  0  0  0  0  0  0  0  0  0  0
  151.1634  145.1633  157.8448 H   0  0  0  0  0  0  0  0  0  0  0  0
  152.6521  145.5781  159.8026 H   0  0  0  0  0  0  0  0  0  0  0  0
  153.7209  143.6175  160.9530 H   0  0  0  0  0  0  0  0  0  0  0  0
  153.2391  141.3163  160.0760 H   0  0  0  0  0  0  0  0  0  0  0  0
  149.5613  139.2833  155.2455 H   0  0  0  0  0  0  0  0  0  0  0  0
  147.9662  139.8394  155.6932 H   0  0  0  0  0  0  0  0  0  0  0  0
  147.7918  137.7551  154.4106 H   0  0  0  0  0  0  0  0  0  0  0  0
  148.7115  138.4281  153.0810 H   0  0  0  0  0  0  0  0  0  0  0  0
  146.1274  139.4339  154.0324 H   0  0  0  0  0  0  0  0  0  0  0  0
  1  2  1  0  0  0  0
  1 22  1  0  0  0  0
  1 23  1  0  0  0  0
  1 24  1  0  0  0  0
  2  3  1  0  0  0  0
  3  4  2  0  0  0  0
  3  5  1  0  0  0  0
  5  6  1  0  0  0  0
  5 25  1  0  0  0  0
  5 26  1  0  0  0  0
  6 21  1  0  0  0  0
  6  7  1  0  0  0  0
  6 42  1  0  0  0  0
  7  8  1  0  0  0  0
  7 27  1  0  0  0  0
  7 28  1  0  0  0  0
  8  9  1  0  0  0  0
  8 29  1  0  0  0  0
  8 30  1  0  0  0  0
  9 10  1  0  0  0  0
  9 20  1  0  0  0  0
  9 31  1  0  0  0  0
 10 11  1  0  0  0  0
 10 32  1  0  0  0  0
 11 12  2  0  0  0  0
 11 13  1  0  0  0  0
 13 14  1  0  0  0  0
 13 33  1  0  0  0  0
 14 19  1  0  0  0  0
 14 15  2  0  0  0  0
 15 16  1  0  0  0  0
 15 34  1  0  0  0  0
 16 17  2  0  0  0  0
 16 35  1  0  0  0  0
 17 18  1  0  0  0  0
 17 36  1  0  0  0  0
 18 19  2  0  0  0  0
 18 37  1  0  0  0  0
 20 21  1  0  0  0  0
 20 38  1  0  0  0  0
 20 39  1  0  0  0  0
 21 40  1  0  0  0  0
 21 41  1  0  0  0  0
M  CHG  1   2  -1
M  CHG  1   6   1
M  END
> <s_m_source_file>
AV-unprocessed.smi

> <i_m_source_file_index>
1763

> <i_lp_mmshare_version>
43012

> <i_f3d_flags>
0

> <s_epik_input>
W0NIM11bTkhdQyg9TylbQ0gyXU4xW0NIMl1bQ0gyXVtDSF0oW0NIMl1bQ0gyXTEpW05IXUMoPU8pW05IXWMyW2NIXVtjSF1bY0hdW2NIXW4y

> <s_epik_cmdline>
J2VwaWtfcHl0aG9uJywgJy1waCcsICc3LjAnLCAnLXRuJywgJzgnLCAnLW1hJywgJzIwMCcsICctbWV0YWxfYmluZGluZycsICctaW1hZScsICc8aW5maWxlLm1hZT4nLCAnLW9tYWUnLCAnPG91dGZpbGUubWFlPic=

> <r_epik_Ionization_Penalty>
6.1395

> <r_epik_Ionization_Penalty_Charging>
6.13946

> <r_epik_Ionization_Penalty_Neutral>
3.77655e-05

> <r_epik_State_Penalty>
6.9595

> <r_epik_Charging_Adjusted_Penalty>
13.099

> <i_epik_Tot_Q>
0

> <i_epik_Tot_abs_Q>
2

> <r_epik_Metal_State_Penalty>
2.8914

> <b_epik_Metal_Only>
1

> <s_lp_Force_Field>
OPLS_2005

> <r_lp_Energy>
11.9175

> <b_lp_Chiralities_Consistent>
1

> <s_lp_Variant>
AV-unprocessed.smi:1763-4

> <Gold.Version>
5.8.1

> <Gold.Id.Protein>
6NUR|6NUR_protein|mol2

> <Gold.PLP.Fitness>
43.4325

> <Gold.PLP.PLP>
-39.0146

> <Gold.PLP.part.hbond>
-2.0000

> <Gold.PLP.part.metal>
0.0000

> <Gold.PLP.part.buried>
-4.1826

> <Gold.PLP.part.nonpolar>
-33.0568

> <Gold.PLP.part.repulsive>
0.4703

> <Gold.PLP.ligand.clash>
0.0000

> <Gold.PLP.ligand.torsion>
0.8296

> <Gold.PLP.Chemscore.Hbond>
2.0000

> <Gold.PLP.Chemscore.CHOScore>
0.0000

> <Gold.PLP.Chemscore.Metal>
0.0000

> <Gold.Chemscore.Hbonds>
donor molecule, donor type, donor heavy atom, donor atom, acceptor molecule, acceptor atom, score
      L1  H    10    32       P1  8028  1.00
      L1  H    13    33       P1  8028  1.00

> <Gold.PLP.Chemscore.Internal.Correction>
0.0772

> <Gold.Rescore>
     Score         DG    S(hbond)    S(metal)    S(lipo)     H(rot)  DE(clash)    DE(int)     intcor
     15.66     -19.41       1.94        0.00     100.22       1.67       0.49       3.27       ----

> <Gold.Chemscore.Fitness>
15.6589

> <Gold.Chemscore.DG>
-19.4101

> <Gold.Chemscore.ZeroCoef>
-5.4800

> <Gold.Chemscore.Hbond>
1.9423

> <Gold.Chemscore.Metal>
0.0000

> <Gold.Chemscore.Lipo>
100.2212

> <Gold.Chemscore.Internal_Hbond>
0.0000

> <Gold.Chemscore.DEClash>
0.4853

> <Gold.Chemscore.DEInternal>
3.2658

> <Gold.Chemscore.Rot>
1.6730

> <Gold.Chemscore.Internal.Correction>
   9.000000E+99

> <Gold.Chemscore.Hbonds>
donor molecule, donor type, donor heavy atom, donor atom, acceptor molecule, acceptor atom, score
      L1  H    10    32       P1  8028  0.96
      L1  H    13    33       P1  8028  0.99

> <Gold.Chemscore.Hbond.Weighted>
-6.4871

> <Gold.Chemscore.Metal.Weighted>
-0.0000

> <Gold.Chemscore.Lipo.Weighted>
-11.7259

> <Gold.Chemscore.Internal_Hbond.Weighted>
0.0000

> <Gold.Chemscore.DEClash.Weighted>
0.4853

> <Gold.Chemscore.DEInternal.Weighted>
3.2658

> <Gold.Chemscore.Rot.Weighted>
4.2830

> <Gold.Chemscore.Internal.Correction.Weighted>
   9.000000E+99

> <Gold.Protein.RotatedTorsions>
[ 6907 6896 6895 6894 ] final  -43.80 input  -60.11 | X-H torsion
[ 7974 7965 7964 7962 ] final  -32.59 input  175.53 | X-H torsion
[ 8008 7997 7996 7995 ] final   33.51 input   59.86 | X-H torsion
[ 10167 10162 10161 10158 ] final -154.49 input  -65.29 | X-H torsion
[ 10718 10713 10712 10709 ] final  171.42 input   66.30 | X-H torsion
[ 10763 10752 10751 10750 ] final  -60.39 input  -60.55 | X-H torsion
[ 11005 11000 10999 10996 ] final  -28.83 input  -57.11 | X-H torsion

> <Gold.Protein.ActiveResidues>
 VAL166  LYS551  ARG553  GLY616  TRP617  ASP618  TYR619  PRO620  LYS621  CYS622 
 ASP623  PHE694  ASN695  SER759  ASP760  ASP761  ALA762  ILE779  LEU786  VAL792 
 PHE793  MET794  SER795  GLU796  ALA797  LYS798  CYS799  TRP800  GLU811  SER814 

> <Gold.Protein.RotatedAtoms>
  150.9399  134.8809  159.7605 H   0  0  0  0  0  0  0  0  0  0  0  0  # atno 6907 bound_to 6896
  152.5075  134.3956  159.9409 H   0  0  0  0  0  0  0  0  0  0  0  0  # atno 6908 bound_to 6896
  151.3978  133.3727  159.2763 H   0  0  0  0  0  0  0  0  0  0  0  0  # atno 6909 bound_to 6896
  146.0978  140.5811  142.8835 H   0  0  0  0  0  0  0  0  0  0  0  0  # atno 7974 bound_to 7965
  155.1398  140.3265  155.4455 H   0  0  0  0  0  0  0  0  0  0  0  0  # atno 8008 bound_to 7997
  156.2608  140.1995  156.6464 H   0  0  0  0  0  0  0  0  0  0  0  0  # atno 8009 bound_to 7997
  154.6551  140.0554  156.9986 H   0  0  0  0  0  0  0  0  0  0  0  0  # atno 8010 bound_to 7997
  139.7009  143.9265  152.2428 H   0  0  0  0  0  0  0  0  0  0  0  0  # atno 10167 bound_to 10162
  156.9938  131.0156  151.2849 H   0  0  0  0  0  0  0  0  0  0  0  0  # atno 10718 bound_to 10713
  154.2684  135.6295  153.5301 H   0  0  0  0  0  0  0  0  0  0  0  0  # atno 10763 bound_to 10752
  152.9884  135.5604  154.5627 H   0  0  0  0  0  0  0  0  0  0  0  0  # atno 10764 bound_to 10752
  154.5192  135.2881  155.1252 H   0  0  0  0  0  0  0  0  0  0  0  0  # atno 10765 bound_to 10752
  140.9243  133.7379  156.0845 H   0  0  0  0  0  0  0  0  0  0  0  0  # atno 11005 bound_to 11000
  144.7409  140.4939  143.6870 LP  0  0  0  0  0  0  0  0  0  0  0  0  # atno 17320 bound_to 7965
  145.5914  139.1496  143.3180 LP  0  0  0  0  0  0  0  0  0  0  0  0  # atno 17321 bound_to 7965
  139.9107  144.6858  150.8565 LP  0  0  0  0  0  0  0  0  0  0  0  0  # atno 17342 bound_to 10162
  140.7709  143.3445  151.2138 LP  0  0  0  0  0  0  0  0  0  0  0  0  # atno 17343 bound_to 10162
  157.5439  130.8138  149.8062 LP  0  0  0  0  0  0  0  0  0  0  0  0  # atno 17370 bound_to 10713
  156.0197  130.3800  150.2001 LP  0  0  0  0  0  0  0  0  0  0  0  0  # atno 17371 bound_to 10713
  140.7947  134.3577  157.5455 LP  0  0  0  0  0  0  0  0  0  0  0  0  # atno 17394 bound_to 11000
  139.8782  134.9162  156.3148 LP  0  0  0  0  0  0  0  0  0  0  0  0  # atno 17395 bound_to 11000

$$$$
