AV-unprocessed.smi:148|AV-procd|sdf|1208|dock3
  -GOLD-   2262018383D 1   1.00000     0.00000
 Structure written by MMmdl.
 63 67  0  0  0  0  0  0  0  0  1 V2000
  149.0937  141.0305  153.6492 O   0  0  0  0  0  0  0  0  0  0  0  0
  148.9815  141.5950  154.9390 C   0  0  0  0  0  0  0  0  0  0  0  0
  148.9936  140.5024  156.0322 C   0  0  2  0  0  0  0  0  0  0  0  0
  147.6321  139.7636  156.1061 C   0  0  0  0  0  0  0  0  0  0  0  0
  147.5371  138.8715  157.2481 N   0  0  0  0  0  0  0  0  0  0  0  0
  146.6160  138.9296  158.2708 C   0  0  0  0  0  0  0  0  0  0  0  0
  146.7486  138.0146  159.1926 N   0  0  0  0  0  0  0  0  0  0  0  0
  147.8466  137.2748  158.7737 C   0  0  0  0  0  0  0  0  0  0  0  0
  148.5408  136.1550  159.3004 C   0  0  0  0  0  0  0  0  0  0  0  0
  148.1701  135.5656  160.4579 N   0  0  0  0  0  0  0  0  0  0  0  0
  147.7906  136.5882  161.4354 C   0  0  0  0  0  0  0  0  0  0  0  0
  147.6410  135.9936  162.8387 C   0  0  0  0  0  0  0  0  0  0  0  0
  146.6326  134.8446  162.8079 C   0  0  0  0  0  0  0  0  0  0  0  0
  147.0666  133.7987  161.7730 C   0  0  0  0  0  0  0  0  0  0  0  0
  147.2673  134.3997  160.3546 C   0  0  2  0  0  0  0  0  0  0  0  0
  147.7725  133.2945  159.3607 C   0  0  1  0  0  0  0  0  0  0  0  0
  147.0912  131.9198  159.5058 C   0  0  0  0  0  0  0  0  0  0  0  0
  147.3812  131.1504  158.2118 C   0  0  0  0  0  0  0  0  0  0  0  0
  147.8310  132.1956  157.1853 C   0  0  0  0  0  0  0  0  0  0  0  0
  147.6124  133.5607  157.8457 C   0  0  1  0  0  0  0  0  0  0  0  0
  146.3061  134.0107  157.5370 O   0  0  0  0  0  0  0  0  0  0  0  0
  149.6030  135.6741  158.6014 N   0  0  0  0  0  0  0  0  0  0  0  0
  149.9753  136.2698  157.4644 C   0  0  0  0  0  0  0  0  0  0  0  0
  149.4329  137.3300  156.8602 N   0  0  0  0  0  0  0  0  0  0  0  0
  148.3576  137.8010  157.5555 C   0  0  0  0  0  0  0  0  0  0  0  0
  149.4680  141.0558  157.4041 C   0  0  2  0  0  0  0  0  0  0  0  0
  150.2958  142.3413  157.3420 C   0  0  0  0  0  0  0  0  0  0  0  0
  151.5371  142.0277  158.1766 C   0  0  0  0  0  0  0  0  0  0  0  0
  151.1111  140.9890  159.0430 O   0  0  0  0  0  0  0  0  0  0  0  0
  150.3226  140.1092  158.2593 C   0  0  0  0  0  0  0  0  0  0  0  0
  148.7377  140.1552  153.6713 H   0  0  0  0  0  0  0  0  0  0  0  0
  149.7896  142.3102  155.0933 H   0  0  0  0  0  0  0  0  0  0  0  0
  148.0499  142.1602  154.9608 H   0  0  0  0  0  0  0  0  0  0  0  0
  149.7391  139.7649  155.7304 H   0  0  0  0  0  0  0  0  0  0  0  0
  146.8018  140.4652  156.1738 H   0  0  0  0  0  0  0  0  0  0  0  0
  147.4637  139.1759  155.2040 H   0  0  0  0  0  0  0  0  0  0  0  0
  145.8352  139.6752  158.3112 H   0  0  0  0  0  0  0  0  0  0  0  0
  148.5411  137.3803  161.4573 H   0  0  0  0  0  0  0  0  0  0  0  0
  146.8493  137.0504  161.1337 H   0  0  0  0  0  0  0  0  0  0  0  0
  148.6073  135.6324  163.1931 H   0  0  0  0  0  0  0  0  0  0  0  0
  147.3155  136.7624  163.5399 H   0  0  0  0  0  0  0  0  0  0  0  0
  146.5511  134.3878  163.7945 H   0  0  0  0  0  0  0  0  0  0  0  0
  145.6427  135.2263  162.5552 H   0  0  0  0  0  0  0  0  0  0  0  0
  147.9942  133.3301  162.1052 H   0  0  0  0  0  0  0  0  0  0  0  0
  146.3107  133.0141  161.7595 H   0  0  0  0  0  0  0  0  0  0  0  0
  146.2952  134.7625  160.0180 H   0  0  0  0  0  0  0  0  0  0  0  0
  148.8347  133.1346  159.5563 H   0  0  0  0  0  0  0  0  0  0  0  0
  147.4396  131.3715  160.3817 H   0  0  0  0  0  0  0  0  0  0  0  0
  146.0127  132.0495  159.6077 H   0  0  0  0  0  0  0  0  0  0  0  0
  148.1698  130.4132  158.3672 H   0  0  0  0  0  0  0  0  0  0  0  0
  146.4943  130.6135  157.8742 H   0  0  0  0  0  0  0  0  0  0  0  0
  148.8947  132.0606  156.9854 H   0  0  0  0  0  0  0  0  0  0  0  0
  147.3124  132.0975  156.2306 H   0  0  0  0  0  0  0  0  0  0  0  0
  148.3316  134.2774  157.4549 H   0  0  0  0  0  0  0  0  0  0  0  0
  145.7968  134.0191  158.3328 H   0  0  0  0  0  0  0  0  0  0  0  0
  150.8325  135.8369  156.9703 H   0  0  0  0  0  0  0  0  0  0  0  0
  148.5849  141.3035  157.9947 H   0  0  0  0  0  0  0  0  0  0  0  0
  150.5577  142.6553  156.3317 H   0  0  0  0  0  0  0  0  0  0  0  0
  149.7366  143.1608  157.7952 H   0  0  0  0  0  0  0  0  0  0  0  0
  152.3458  141.6604  157.5424 H   0  0  0  0  0  0  0  0  0  0  0  0
  151.9025  142.8925  158.7312 H   0  0  0  0  0  0  0  0  0  0  0  0
  149.7190  139.4513  158.8850 H   0  0  0  0  0  0  0  0  0  0  0  0
  150.9889  139.4887  157.6610 H   0  0  0  0  0  0  0  0  0  0  0  0
  1  2  1  0  0  0  0
  1 31  1  0  0  0  0
  2  3  1  0  0  0  0
  2 32  1  0  0  0  0
  2 33  1  0  0  0  0
  3  4  1  0  0  0  0
  3 26  1  0  0  0  0
  3 34  1  0  0  0  0
  4  5  1  0  0  0  0
  4 35  1  0  0  0  0
  4 36  1  0  0  0  0
  5 25  1  0  0  0  0
  5  6  1  0  0  0  0
  6  7  2  0  0  0  0
  6 37  1  0  0  0  0
  7  8  1  0  0  0  0
  8 25  2  0  0  0  0
  8  9  1  0  0  0  0
  9 10  1  0  0  0  0
  9 22  2  0  0  0  0
 10 15  1  0  0  0  0
 10 11  1  0  0  0  0
 11 12  1  0  0  0  0
 11 38  1  0  0  0  0
 11 39  1  0  0  0  0
 12 13  1  0  0  0  0
 12 40  1  0  0  0  0
 12 41  1  0  0  0  0
 13 14  1  0  0  0  0
 13 42  1  0  0  0  0
 13 43  1  0  0  0  0
 14 15  1  0  0  0  0
 14 44  1  0  0  0  0
 14 45  1  0  0  0  0
 15 16  1  0  0  0  0
 15 46  1  0  0  0  0
 16 20  1  0  0  0  0
 16 17  1  0  0  0  0
 16 47  1  0  0  0  0
 17 18  1  0  0  0  0
 17 48  1  0  0  0  0
 17 49  1  0  0  0  0
 18 19  1  0  0  0  0
 18 50  1  0  0  0  0
 18 51  1  0  0  0  0
 19 20  1  0  0  0  0
 19 52  1  0  0  0  0
 19 53  1  0  0  0  0
 20 21  1  0  0  0  0
 20 54  1  0  0  0  0
 21 55  1  0  0  0  0
 22 23  1  0  0  0  0
 23 24  2  0  0  0  0
 23 56  1  0  0  0  0
 24 25  1  0  0  0  0
 26 30  1  0  0  0  0
 26 27  1  0  0  0  0
 26 57  1  0  0  0  0
 27 28  1  0  0  0  0
 27 58  1  0  0  0  0
 27 59  1  0  0  0  0
 28 29  1  0  0  0  0
 28 60  1  0  0  0  0
 28 61  1  0  0  0  0
 29 30  1  0  0  0  0
 30 62  1  0  0  0  0
 30 63  1  0  0  0  0
M  END
> <s_m_source_file>
AV-unprocessed.smi

> <i_m_source_file_index>
148

> <i_lp_mmshare_version>
43012

> <i_f3d_flags>
0

> <s_epik_input>
W0NIMl0xT1tDSDJdW0NIMl1bQ0BIXTFbQ0BIXShbQ0gyXVtPSF0pW0NIMl1uKFtjSF1uMiljKGMyMyluW2NIXW5jM040W0NIMl1bQ0gyXVtDSDJdW0NIMl1bQ0BIXTRbQ0BASF01W0NIMl1bQ0gyXVtDSDJdW0NASF01W09IXQ==

> <s_epik_cmdline>
J2VwaWtfcHl0aG9uJywgJy1waCcsICc3LjAnLCAnLXRuJywgJzgnLCAnLW1hJywgJzIwMCcsICctbWV0YWxfYmluZGluZycsICctaW1hZScsICc8aW5maWxlLm1hZT4nLCAnLW9tYWUnLCAnPG91dGZpbGUubWFlPic=

> <r_lp_tautomer_probability>
1

> <r_epik_Ionization_Penalty>
0.00556303

> <r_epik_Ionization_Penalty_Charging>
0

> <r_epik_Ionization_Penalty_Neutral>
0.00556303

> <r_epik_State_Penalty>
0.00401767

> <r_epik_Charging_Adjusted_Penalty>
0.00401767

> <i_epik_Tot_Q>
0

> <i_epik_Tot_abs_Q>
0

> <r_epik_Metal_State_Penalty>
-0

> <b_epik_Metal_Only>
0

> <s_lp_Force_Field>
OPLS_2005

> <r_lp_Energy>
70.8238

> <b_lp_Chiralities_Consistent>
1

> <s_lp_Variant>
AV-unprocessed.smi:148-7

> <Gold.Version>
5.8.1

> <Gold.Id.Protein>
6NUR|6NUR_protein|mol2

> <Gold.PLP.Fitness>
42.2117

> <Gold.PLP.PLP>
-37.5364

> <Gold.PLP.part.hbond>
-4.8129

> <Gold.PLP.part.metal>
0.0000

> <Gold.PLP.part.buried>
-4.2364

> <Gold.PLP.part.nonpolar>
-30.0484

> <Gold.PLP.part.repulsive>
0.0000

> <Gold.PLP.ligand.clash>
0.0193

> <Gold.PLP.ligand.torsion>
2.1014

> <Gold.PLP.Chemscore.Hbond>
2.6989

> <Gold.PLP.Chemscore.CHOScore>
0.0000

> <Gold.PLP.Chemscore.Metal>
0.0000

> <Gold.Chemscore.Hbonds>
donor molecule, donor type, donor heavy atom, donor atom, acceptor molecule, acceptor atom, score
      P1  H  6896  6909       L1    22  1.00
      P1  H  6934  6947       L1     7  0.62
      P1  H  8011  8017       L1     1  0.99

> <Gold.PLP.Chemscore.Internal.Correction>
0.8007

> <Gold.Rescore>
     Score         DG    S(hbond)    S(metal)    S(lipo)     H(rot)  DE(clash)    DE(int)     intcor
      9.54     -13.09       1.72        0.00      88.50       3.32       0.03       3.52       ----

> <Gold.Chemscore.Fitness>
9.5363

> <Gold.Chemscore.DG>
-13.0883

> <Gold.Chemscore.ZeroCoef>
-5.4800

> <Gold.Chemscore.Hbond>
1.7229

> <Gold.Chemscore.Metal>
0.0000

> <Gold.Chemscore.Lipo>
88.4951

> <Gold.Chemscore.Internal_Hbond>
0.0000

> <Gold.Chemscore.DEClash>
0.0289

> <Gold.Chemscore.DEInternal>
3.5231

> <Gold.Chemscore.Rot>
3.3203

> <Gold.Chemscore.Internal.Correction>
   9.000000E+99

> <Gold.Chemscore.Hbonds>
donor molecule, donor type, donor heavy atom, donor atom, acceptor molecule, acceptor atom, score
      P1  H  6896  6909       L1    22  0.84
      P1  H  6934  6947       L1     7  0.21
      P1  H  8011  8017       L1     1  0.65

> <Gold.Chemscore.Hbond.Weighted>
-5.7543

> <Gold.Chemscore.Metal.Weighted>
-0.0000

> <Gold.Chemscore.Lipo.Weighted>
-10.3539

> <Gold.Chemscore.Internal_Hbond.Weighted>
0.0000

> <Gold.Chemscore.DEClash.Weighted>
0.0289

> <Gold.Chemscore.DEInternal.Weighted>
3.5231

> <Gold.Chemscore.Rot.Weighted>
8.5000

> <Gold.Chemscore.Internal.Correction.Weighted>
   9.000000E+99

> <Gold.Protein.RotatedTorsions>
[ 6907 6896 6895 6894 ] final   61.58 input  -60.11 | X-H torsion
[ 7974 7965 7964 7962 ] final  -48.04 input  175.53 | X-H torsion
[ 8008 7997 7996 7995 ] final  -39.69 input   59.86 | X-H torsion
[ 10167 10162 10161 10158 ] final -113.52 input  -65.29 | X-H torsion
[ 10718 10713 10712 10709 ] final -131.89 input   66.30 | X-H torsion
[ 10763 10752 10751 10750 ] final -116.92 input  -60.55 | X-H torsion
[ 11005 11000 10999 10996 ] final  -60.94 input  -57.11 | X-H torsion

> <Gold.Protein.ActiveResidues>
 VAL166  LYS551  ARG553  GLY616  TRP617  ASP618  TYR619  PRO620  LYS621  CYS622 
 ASP623  PHE694  ASN695  SER759  ASP760  ASP761  ALA762  ILE779  LEU786  VAL792 
 PHE793  MET794  SER795  GLU796  ALA797  LYS798  CYS799  TRP800  GLU811  SER814 

> <Gold.Protein.RotatedAtoms>
  152.4100  134.6140  160.0033 H   0  0  0  0  0  0  0  0  0  0  0  0  # atno 6907 bound_to 6896
  151.6320  133.3326  159.3119 H   0  0  0  0  0  0  0  0  0  0  0  0  # atno 6908 bound_to 6896
  150.7992  134.7114  159.6651 H   0  0  0  0  0  0  0  0  0  0  0  0  # atno 6909 bound_to 6896
  145.9554  140.7532  142.9484 H   0  0  0  0  0  0  0  0  0  0  0  0  # atno 7974 bound_to 7965
  154.4020  140.1545  156.2905 H   0  0  0  0  0  0  0  0  0  0  0  0  # atno 8008 bound_to 7997
  155.8790  140.3445  155.5852 H   0  0  0  0  0  0  0  0  0  0  0  0  # atno 8009 bound_to 7997
  155.7689  140.0827  157.2108 H   0  0  0  0  0  0  0  0  0  0  0  0  # atno 8010 bound_to 7997
  140.1110  143.4528  152.1752 H   0  0  0  0  0  0  0  0  0  0  0  0  # atno 10167 bound_to 10162
  156.2290  130.7026  151.0838 H   0  0  0  0  0  0  0  0  0  0  0  0  # atno 10718 bound_to 10713
  154.8536  135.4328  154.1897 H   0  0  0  0  0  0  0  0  0  0  0  0  # atno 10763 bound_to 10752
  153.2968  135.6966  153.7246 H   0  0  0  0  0  0  0  0  0  0  0  0  # atno 10764 bound_to 10752
  153.6392  135.3471  155.3040 H   0  0  0  0  0  0  0  0  0  0  0  0  # atno 10765 bound_to 10752
  141.1306  133.6626  156.5299 H   0  0  0  0  0  0  0  0  0  0  0  0  # atno 11005 bound_to 11000
  144.6804  140.2502  143.7332 LP  0  0  0  0  0  0  0  0  0  0  0  0  # atno 17320 bound_to 7965
  145.8114  139.2005  143.1991 LP  0  0  0  0  0  0  0  0  0  0  0  0  # atno 17321 bound_to 7965
  139.5619  144.7411  151.4130 LP  0  0  0  0  0  0  0  0  0  0  0  0  # atno 17342 bound_to 10162
  140.6926  143.7826  150.7277 LP  0  0  0  0  0  0  0  0  0  0  0  0  # atno 17343 bound_to 10162
  157.7124  131.0727  150.6452 LP  0  0  0  0  0  0  0  0  0  0  0  0  # atno 17370 bound_to 10713
  156.6519  130.4487  149.5716 LP  0  0  0  0  0  0  0  0  0  0  0  0  # atno 17371 bound_to 10713
  140.4224  134.7175  157.4897 LP  0  0  0  0  0  0  0  0  0  0  0  0  # atno 17394 bound_to 11000
  140.0351  134.6349  155.9055 LP  0  0  0  0  0  0  0  0  0  0  0  0  # atno 17395 bound_to 11000

$$$$
