AV-unprocessed.smi:167|AV-procd|sdf|1392|dock9
  -GOLD-   2262019133D 1   1.00000     0.00000
 Structure written by MMmdl.
 51 55  0  0  0  0  0  0  0  0  1 V2000
  148.9321  142.9221  157.6933 O   0  0  0  0  0  0  0  0  0  0  0  0
  148.6627  141.5511  157.4890 C   0  0  0  0  0  0  0  0  0  0  0  0
  149.7353  140.9246  156.5791 C   0  0  2  0  0  0  0  0  0  0  0  0
  149.6080  141.3689  155.1085 C   0  0  0  0  0  0  0  0  0  0  0  0
  149.4569  140.0205  154.3844 C   0  0  1  0  0  0  0  0  0  0  0  0
  150.8148  139.2908  154.3791 C   0  0  0  0  0  0  0  0  0  0  0  0
  150.9149  138.8349  155.8436 C   0  0  0  0  0  0  0  0  0  0  0  0
  149.5980  139.3938  156.4249 C   0  0  2  0  0  0  0  0  0  0  0  0
  148.6509  139.2582  155.3243 N   0  0  0  0  0  0  0  0  0  0  0  0
  148.1588  138.0311  154.9945 C   0  0  0  0  0  0  0  0  0  0  0  0
  148.7144  136.9345  155.5762 N   0  0  0  0  0  0  0  0  0  0  0  0
  148.2666  135.7098  155.2889 C   0  0  0  0  0  0  0  0  0  0  0  0
  147.2833  135.3552  154.4615 N   0  0  0  0  0  0  0  0  0  0  0  0
  146.7091  136.4472  153.8816 C   0  0  0  0  0  0  0  0  0  0  0  0
  147.0722  137.8088  154.0964 C   0  0  0  0  0  0  0  0  0  0  0  0
  146.2337  138.6328  153.3534 N   0  0  0  0  0  0  0  0  0  0  0  0
  145.4336  137.8105  152.7326 C   0  0  0  0  0  0  0  0  0  0  0  0
  145.6684  136.4762  152.9699 N   0  0  0  0  0  0  0  0  0  0  0  0
  144.9246  135.3649  152.4532 C   0  0  0  0  0  0  0  0  0  0  0  0
  145.3513  133.9251  152.7541 C   0  0  0  0  0  0  0  0  0  0  0  0
  144.8191  133.4904  151.3686 C   0  0  0  0  0  0  0  0  0  0  0  0
  145.6537  132.4623  150.5789 C   0  0  0  0  0  0  0  0  0  0  0  0
  147.0271  132.7946  150.5375 O   0  0  0  0  0  0  0  0  0  0  0  0
  143.3575  133.0042  151.3448 C   0  0  0  0  0  0  0  0  0  0  0  0
  142.9320  132.7011  150.0315 O   0  0  0  0  0  0  0  0  0  0  0  0
  144.9974  134.9746  150.9729 C   0  0  0  0  0  0  0  0  0  0  0  0
  148.6437  143.4021  156.9320 H   0  0  0  0  0  0  0  0  0  0  0  0
  148.6186  141.0434  158.4532 H   0  0  0  0  0  0  0  0  0  0  0  0
  147.6780  141.4597  157.0298 H   0  0  0  0  0  0  0  0  0  0  0  0
  150.7201  141.1879  156.9684 H   0  0  0  0  0  0  0  0  0  0  0  0
  148.7200  141.9836  154.9543 H   0  0  0  0  0  0  0  0  0  0  0  0
  150.4716  141.9377  154.7623 H   0  0  0  0  0  0  0  0  0  0  0  0
  149.0328  140.1495  153.3908 H   0  0  0  0  0  0  0  0  0  0  0  0
  150.7957  138.4306  153.7084 H   0  0  0  0  0  0  0  0  0  0  0  0
  151.6388  139.9382  154.0772 H   0  0  0  0  0  0  0  0  0  0  0  0
  150.9420  137.7463  155.9054 H   0  0  0  0  0  0  0  0  0  0  0  0
  151.8004  139.2211  156.3495 H   0  0  0  0  0  0  0  0  0  0  0  0
  149.3010  138.9034  157.3528 H   0  0  0  0  0  0  0  0  0  0  0  0
  148.7688  134.8978  155.7937 H   0  0  0  0  0  0  0  0  0  0  0  0
  144.6496  138.1601  152.0767 H   0  0  0  0  0  0  0  0  0  0  0  0
  143.8900  135.5301  152.7579 H   0  0  0  0  0  0  0  0  0  0  0  0
  146.4336  133.8298  152.8574 H   0  0  0  0  0  0  0  0  0  0  0  0
  144.8429  133.4775  153.6085 H   0  0  0  0  0  0  0  0  0  0  0  0
  145.5717  131.4681  151.0185 H   0  0  0  0  0  0  0  0  0  0  0  0
  145.2985  132.3818  149.5511 H   0  0  0  0  0  0  0  0  0  0  0  0
  147.5309  132.0036  150.6538 H   0  0  0  0  0  0  0  0  0  0  0  0
  143.2262  132.1084  151.9520 H   0  0  0  0  0  0  0  0  0  0  0  0
  142.6876  133.7556  151.7642 H   0  0  0  0  0  0  0  0  0  0  0  0
  142.2836  133.3380  149.7721 H   0  0  0  0  0  0  0  0  0  0  0  0
  144.1944  135.3857  150.3605 H   0  0  0  0  0  0  0  0  0  0  0  0
  145.9707  135.1977  150.5333 H   0  0  0  0  0  0  0  0  0  0  0  0
  1  2  1  0  0  0  0
  1 27  1  0  0  0  0
  2  3  1  0  0  0  0
  2 28  1  0  0  0  0
  2 29  1  0  0  0  0
  3  8  1  0  0  0  0
  3  4  1  0  0  0  0
  3 30  1  0  0  0  0
  4  5  1  0  0  0  0
  4 31  1  0  0  0  0
  4 32  1  0  0  0  0
  5  9  1  0  0  0  0
  5  6  1  0  0  0  0
  5 33  1  0  0  0  0
  6  7  1  0  0  0  0
  6 34  1  0  0  0  0
  6 35  1  0  0  0  0
  7  8  1  0  0  0  0
  7 36  1  0  0  0  0
  7 37  1  0  0  0  0
  8  9  1  0  0  0  0
  8 38  1  0  0  0  0
  9 10  1  0  0  0  0
 10 15  1  0  0  0  0
 10 11  2  0  0  0  0
 11 12  1  0  0  0  0
 12 13  2  0  0  0  0
 12 39  1  0  0  0  0
 13 14  1  0  0  0  0
 14 18  1  0  0  0  0
 14 15  2  0  0  0  0
 15 16  1  0  0  0  0
 16 17  2  0  0  0  0
 17 18  1  0  0  0  0
 17 40  1  0  0  0  0
 18 19  1  0  0  0  0
 19 26  1  0  0  0  0
 19 20  1  0  0  0  0
 19 41  1  0  0  0  0
 20 21  1  0  0  0  0
 20 42  1  0  0  0  0
 20 43  1  0  0  0  0
 21 22  1  0  0  0  0
 21 24  1  0  0  0  0
 21 26  1  0  0  0  0
 22 23  1  0  0  0  0
 22 44  1  0  0  0  0
 22 45  1  0  0  0  0
 23 46  1  0  0  0  0
 24 25  1  0  0  0  0
 24 47  1  0  0  0  0
 24 48  1  0  0  0  0
 25 49  1  0  0  0  0
 26 50  1  0  0  0  0
 26 51  1  0  0  0  0
M  END
> <s_m_source_file>
AV-unprocessed.smi

> <i_m_source_file_index>
167

> <i_lp_mmshare_version>
43012

> <i_f3d_flags>
0

> <s_epik_input>
W09IXVtDSDJdW0NASF0oW0NIMl1bQ0BASF0xMilbQ0BIXShbQ0gyXVtDSDJdMSlOMmMobltjSF1uMyljKGMzNCluW2NIXW40W0NIXShbQ0gyXTUpW0NIMl1DNShbQ0gyXVtPSF0pW0NIMl1bT0hd

> <s_epik_cmdline>
J2VwaWtfcHl0aG9uJywgJy1waCcsICc3LjAnLCAnLXRuJywgJzgnLCAnLW1hJywgJzIwMCcsICctbWV0YWxfYmluZGluZycsICctaW1hZScsICc8aW5maWxlLm1hZT4nLCAnLW9tYWUnLCAnPG91dGZpbGUubWFlPic=

> <r_lp_tautomer_probability>
1

> <r_epik_Ionization_Penalty>
0.0047903

> <r_epik_Ionization_Penalty_Charging>
0

> <r_epik_Ionization_Penalty_Neutral>
0.0047903

> <r_epik_State_Penalty>
0.00341021

> <r_epik_Charging_Adjusted_Penalty>
0.00341021

> <i_epik_Tot_Q>
0

> <i_epik_Tot_abs_Q>
0

> <r_epik_Metal_State_Penalty>
-0

> <b_epik_Metal_Only>
0

> <s_lp_Force_Field>
OPLS_2005

> <r_lp_Energy>
90.0047

> <b_lp_Chiralities_Consistent>
1

> <s_lp_Variant>
AV-unprocessed.smi:167-1

> <Gold.Version>
5.8.1

> <Gold.Id.Protein>
6NUR|6NUR_protein|mol2

> <Gold.PLP.Fitness>
45.8790

> <Gold.PLP.PLP>
-32.1153

> <Gold.PLP.part.hbond>
-3.7175

> <Gold.PLP.part.metal>
0.0000

> <Gold.PLP.part.buried>
-2.6878

> <Gold.PLP.part.nonpolar>
-24.9030

> <Gold.PLP.part.repulsive>
0.4383

> <Gold.PLP.ligand.clash>
0.0000

> <Gold.PLP.ligand.torsion>
0.5748

> <Gold.PLP.Chemscore.Hbond>
3.0000

> <Gold.PLP.Chemscore.CHOScore>
1.8095

> <Gold.PLP.Chemscore.Metal>
0.0000

> <Gold.Chemscore.Hbonds>
donor molecule, donor type, donor heavy atom, donor atom, acceptor molecule, acceptor atom, score
      L1  H     1    27       P1  8028  1.00
      L1  H    23    46       P1 10747  1.00
      L1  H    25    49       P1 10186  1.00
      L1  C    17    40       P1 10171  1.00
      L1  C    17    40       P1 10175  0.79

> <Gold.PLP.Chemscore.Internal.Correction>
0.4850

> <Gold.Rescore>
     Score         DG    S(hbond)    S(metal)    S(lipo)     H(rot)  DE(clash)    DE(int)     intcor
      9.71     -13.43       2.93        0.00      76.21       4.20       0.56       3.17       ----

> <Gold.Chemscore.Fitness>
9.7099

> <Gold.Chemscore.DG>
-13.4342

> <Gold.Chemscore.ZeroCoef>
-5.4800

> <Gold.Chemscore.Hbond>
2.9340

> <Gold.Chemscore.Metal>
0.0000

> <Gold.Chemscore.Lipo>
76.2089

> <Gold.Chemscore.Internal_Hbond>
0.0000

> <Gold.Chemscore.DEClash>
0.5568

> <Gold.Chemscore.DEInternal>
3.1674

> <Gold.Chemscore.Rot>
4.2038

> <Gold.Chemscore.Internal.Correction>
   9.000000E+99

> <Gold.Chemscore.Hbonds>
donor molecule, donor type, donor heavy atom, donor atom, acceptor molecule, acceptor atom, score
      L1  H     1    27       P1  8028  0.38
      L1  H    23    46       P1 10747  0.97
      L1  H    25    49       P1 10186  1.00

> <Gold.Chemscore.Hbond.Weighted>
-9.7994

> <Gold.Chemscore.Metal.Weighted>
-0.0000

> <Gold.Chemscore.Lipo.Weighted>
-8.9164

> <Gold.Chemscore.Internal_Hbond.Weighted>
0.0000

> <Gold.Chemscore.DEClash.Weighted>
0.5568

> <Gold.Chemscore.DEInternal.Weighted>
3.1674

> <Gold.Chemscore.Rot.Weighted>
10.7617

> <Gold.Chemscore.Internal.Correction.Weighted>
   9.000000E+99

> <Gold.Protein.RotatedTorsions>
[ 6907 6896 6895 6894 ] final -133.58 input  -60.11 | X-H torsion
[ 7974 7965 7964 7962 ] final  177.39 input  175.53 | X-H torsion
[ 8008 7997 7996 7995 ] final   11.83 input   59.86 | X-H torsion
[ 10167 10162 10161 10158 ] final -142.92 input  -65.29 | X-H torsion
[ 10718 10713 10712 10709 ] final  -39.96 input   66.30 | X-H torsion
[ 10763 10752 10751 10750 ] final -118.78 input  -60.55 | X-H torsion
[ 11005 11000 10999 10996 ] final  112.99 input  -57.11 | X-H torsion

> <Gold.Protein.ActiveResidues>
 VAL166  LYS551  ARG553  GLY616  TRP617  ASP618  TYR619  PRO620  LYS621  CYS622 
 ASP623  PHE694  ASN695  SER759  ASP760  ASP761  ALA762  ILE779  LEU786  VAL792 
 PHE793  MET794  SER795  GLU796  ALA797  LYS798  CYS799  TRP800  GLU811  SER814 

> <Gold.Protein.RotatedAtoms>
  150.9757  133.6297  159.2730 H   0  0  0  0  0  0  0  0  0  0  0  0  # atno 6907 bound_to 6896
  151.3570  135.0895  159.9431 H   0  0  0  0  0  0  0  0  0  0  0  0  # atno 6908 bound_to 6896
  152.5198  133.9338  159.7648 H   0  0  0  0  0  0  0  0  0  0  0  0  # atno 6909 bound_to 6896
  144.7170  140.0239  143.6440 H   0  0  0  0  0  0  0  0  0  0  0  0  # atno 7974 bound_to 7965
  154.8123  140.2870  155.5844 H   0  0  0  0  0  0  0  0  0  0  0  0  # atno 8008 bound_to 7997
  156.2989  140.2566  156.2944 H   0  0  0  0  0  0  0  0  0  0  0  0  # atno 8009 bound_to 7997
  154.9433  140.0381  157.2097 H   0  0  0  0  0  0  0  0  0  0  0  0  # atno 8010 bound_to 7997
  139.8043  143.7791  152.2660 H   0  0  0  0  0  0  0  0  0  0  0  0  # atno 10167 bound_to 10162
  156.2866  130.4223  149.8282 H   0  0  0  0  0  0  0  0  0  0  0  0  # atno 10718 bound_to 10713
  154.8598  135.4261  154.2194 H   0  0  0  0  0  0  0  0  0  0  0  0  # atno 10763 bound_to 10752
  153.3202  135.6981  153.7043 H   0  0  0  0  0  0  0  0  0  0  0  0  # atno 10764 bound_to 10752
  153.6100  135.3521  155.2949 H   0  0  0  0  0  0  0  0  0  0  0  0  # atno 10765 bound_to 10752
  139.8941  134.9541  156.6671 H   0  0  0  0  0  0  0  0  0  0  0  0  # atno 11005 bound_to 11000
  146.0158  139.3208  143.0843 LP  0  0  0  0  0  0  0  0  0  0  0  0  # atno 17320 bound_to 7965
  145.8628  140.9465  143.0691 LP  0  0  0  0  0  0  0  0  0  0  0  0  # atno 17321 bound_to 7965
  139.7920  144.7406  150.9942 LP  0  0  0  0  0  0  0  0  0  0  0  0  # atno 17342 bound_to 10162
  140.7819  143.4432  151.0520 LP  0  0  0  0  0  0  0  0  0  0  0  0  # atno 17343 bound_to 10162
  156.5710  130.8424  151.3356 LP  0  0  0  0  0  0  0  0  0  0  0  0  # atno 17370 bound_to 10713
  157.7330  130.9724  150.1957 LP  0  0  0  0  0  0  0  0  0  0  0  0  # atno 17371 bound_to 10713
  140.7402  133.8984  155.8272 LP  0  0  0  0  0  0  0  0  0  0  0  0  # atno 17394 bound_to 11000
  141.0084  134.1055  157.4247 LP  0  0  0  0  0  0  0  0  0  0  0  0  # atno 17395 bound_to 11000

$$$$
