AV-unprocessed.smi:285|AV-procd|sdf|2169|dock6
  -GOLD-   2262021533D 1   1.00000     0.00000
 Structure written by MMmdl.
 31 33  0  0  0  0  0  0  0  0  1 V2000
  153.7271  141.6194  161.6137 N   0  0  0  0  0  0  0  0  0  0  0  0
  153.0504  142.1320  160.5769 C   0  0  0  0  0  0  0  0  0  0  0  0
  152.6942  143.4370  160.6231 N   0  0  0  0  0  0  0  0  0  0  0  0
  152.0198  143.9732  159.6006 C   0  0  0  0  0  0  0  0  0  0  0  0
  151.6157  143.3904  158.4688 N   0  0  0  0  0  0  0  0  0  0  0  0
  151.9738  142.0728  158.4238 C   0  0  0  0  0  0  0  0  0  0  0  0
  152.6923  141.3711  159.4357 C   0  0  0  0  0  0  0  0  0  0  0  0
  152.8874  140.0486  159.0570 N   0  0  0  0  0  0  0  0  0  0  0  0
  152.3105  139.9965  157.8889 C   0  0  0  0  0  0  0  0  0  0  0  0
  152.2993  138.3746  156.8906 Br  0  0  0  0  0  0  0  0  0  0  0  0
  151.7327  141.1549  157.4209 N   0  0  0  0  0  0  0  0  0  0  0  0
  151.0075  141.3959  156.1374 C   0  0  2  0  0  0  0  0  0  0  0  0
  149.5105  141.5269  156.3649 C   0  0  0  0  0  0  0  0  0  0  0  0
  148.9752  141.1365  154.9989 C   0  0  1  0  0  0  0  0  0  0  0  0
  148.7967  142.2889  154.1980 O   0  0  0  0  0  0  0  0  0  0  0  0
  150.0745  140.2291  154.3995 C   0  0  2  0  0  0  0  0  0  0  0  0
  149.6370  138.7603  154.2742 C   0  0  0  0  0  0  0  0  0  0  0  0
  148.6853  138.6231  153.2408 O   0  0  0  0  0  0  0  0  0  0  0  0
  151.1646  140.2871  155.3201 O   0  0  0  0  0  0  0  0  0  0  0  0
  154.0051  140.6485  161.6028 H   0  0  0  0  0  0  0  0  0  0  0  0
  153.9573  142.2042  162.4040 H   0  0  0  0  0  0  0  0  0  0  0  0
  151.7679  145.0183  159.7033 H   0  0  0  0  0  0  0  0  0  0  0  0
  151.4610  142.2755  155.6806 H   0  0  0  0  0  0  0  0  0  0  0  0
  149.1880  140.8038  157.1150 H   0  0  0  0  0  0  0  0  0  0  0  0
  149.2397  142.5305  156.6958 H   0  0  0  0  0  0  0  0  0  0  0  0
  148.0131  140.6309  155.0872 H   0  0  0  0  0  0  0  0  0  0  0  0
  148.9225  143.0547  154.7374 H   0  0  0  0  0  0  0  0  0  0  0  0
  150.3951  140.6137  153.4292 H   0  0  0  0  0  0  0  0  0  0  0  0
  150.4908  138.1053  154.0961 H   0  0  0  0  0  0  0  0  0  0  0  0
  149.1595  138.4269  155.1961 H   0  0  0  0  0  0  0  0  0  0  0  0
  148.7885  137.7695  152.8489 H   0  0  0  0  0  0  0  0  0  0  0  0
  1  2  1  0  0  0  0
  1 20  1  0  0  0  0
  1 21  1  0  0  0  0
  2  7  1  0  0  0  0
  2  3  2  0  0  0  0
  3  4  1  0  0  0  0
  4  5  2  0  0  0  0
  4 22  1  0  0  0  0
  5  6  1  0  0  0  0
  6 11  1  0  0  0  0
  6  7  2  0  0  0  0
  7  8  1  0  0  0  0
  8  9  2  0  0  0  0
  9 10  1  0  0  0  0
  9 11  1  0  0  0  0
 11 12  1  0  0  0  0
 12 19  1  0  0  0  0
 12 13  1  0  0  0  0
 12 23  1  0  0  0  0
 13 14  1  0  0  0  0
 13 24  1  0  0  0  0
 13 25  1  0  0  0  0
 14 15  1  0  0  0  0
 14 16  1  0  0  0  0
 14 26  1  0  0  0  0
 15 27  1  0  0  0  0
 16 17  1  0  0  0  0
 16 19  1  0  0  0  0
 16 28  1  0  0  0  0
 17 18  1  0  0  0  0
 17 29  1  0  0  0  0
 17 30  1  0  0  0  0
 18 31  1  0  0  0  0
M  END
> <s_m_source_file>
AV-unprocessed.smi

> <i_m_source_file_index>
285

> <i_lp_mmshare_version>
43012

> <i_f3d_flags>
0

> <s_epik_input>
bjFbY0hdbmMoW05IMl0pYyhjMTIpbmMoQnIpbjJbQ0BASF0zW0NIMl1bQ0BASF0oW09IXSlbQ0BIXShPMylbQ0gyXVtPSF0=

> <s_epik_cmdline>
J2VwaWtfcHl0aG9uJywgJy1waCcsICc3LjAnLCAnLXRuJywgJzgnLCAnLW1hJywgJzIwMCcsICctbWV0YWxfYmluZGluZycsICctaW1hZScsICc8aW5maWxlLm1hZT4nLCAnLW9tYWUnLCAnPG91dGZpbGUubWFlPic=

> <r_lp_tautomer_probability>
1

> <r_epik_Ionization_Penalty>
0.000103242

> <r_epik_Ionization_Penalty_Charging>
0

> <r_epik_Ionization_Penalty_Neutral>
0.000103242

> <r_epik_State_Penalty>
-0

> <r_epik_Charging_Adjusted_Penalty>
0

> <i_epik_Tot_Q>
0

> <i_epik_Tot_abs_Q>
0

> <r_epik_Metal_State_Penalty>
-0

> <b_epik_Metal_Only>
0

> <s_epik_Chemistry_Notes>
This compound contains an acetal/aminal-like group ( X-CH(R)-Y where X, Y are N, S, or O) that may be acid/base labile, releasing an aldehyde.

> <s_lp_Force_Field>
OPLS_2005

> <r_lp_Energy>
31.1056

> <b_lp_Chiralities_Consistent>
1

> <s_lp_Variant>
AV-unprocessed.smi:285-5

> <Gold.Version>
5.8.1

> <Gold.Id.Protein>
6NUR|6NUR_protein|mol2

> <Gold.PLP.Fitness>
42.3495

> <Gold.PLP.PLP>
-36.3031

> <Gold.PLP.part.hbond>
-5.0000

> <Gold.PLP.part.metal>
0.0000

> <Gold.PLP.part.buried>
-5.0044

> <Gold.PLP.part.nonpolar>
-25.8065

> <Gold.PLP.part.repulsive>
0.1474

> <Gold.PLP.ligand.clash>
0.0000

> <Gold.PLP.ligand.torsion>
0.2864

> <Gold.PLP.Chemscore.Hbond>
2.1997

> <Gold.PLP.Chemscore.CHOScore>
0.0000

> <Gold.PLP.Chemscore.Metal>
0.0000

> <Gold.Chemscore.Hbonds>
donor molecule, donor type, donor heavy atom, donor atom, acceptor molecule, acceptor atom, score
      L1  H    15    27       P1  8028  1.00
      L1  H    18    31       P1  7948  1.00
      P1  H  8011  8017       L1    15  0.20

> <Gold.PLP.Chemscore.Internal.Correction>
0.0201

> <Gold.Rescore>
     Score         DG    S(hbond)    S(metal)    S(lipo)     H(rot)  DE(clash)    DE(int)     intcor
      7.77      -9.54       2.15        0.00      40.29       3.06       0.19       1.58       ----

> <Gold.Chemscore.Fitness>
7.7724

> <Gold.Chemscore.DG>
-9.5414

> <Gold.Chemscore.ZeroCoef>
-5.4800

> <Gold.Chemscore.Hbond>
2.1507

> <Gold.Chemscore.Metal>
0.0000

> <Gold.Chemscore.Lipo>
40.2861

> <Gold.Chemscore.Internal_Hbond>
0.0000

> <Gold.Chemscore.DEClash>
0.1918

> <Gold.Chemscore.DEInternal>
1.5771

> <Gold.Chemscore.Rot>
3.0607

> <Gold.Chemscore.Internal.Correction>
   9.000000E+99

> <Gold.Chemscore.Hbonds>
donor molecule, donor type, donor heavy atom, donor atom, acceptor molecule, acceptor atom, score
      L1  H    15    27       P1  8028  1.00
      L1  H    18    31       P1  7948  1.00
      P1  H  8011  8017       L1    15  0.16

> <Gold.Chemscore.Hbond.Weighted>
-7.1833

> <Gold.Chemscore.Metal.Weighted>
-0.0000

> <Gold.Chemscore.Lipo.Weighted>
-4.7135

> <Gold.Chemscore.Internal_Hbond.Weighted>
0.0000

> <Gold.Chemscore.DEClash.Weighted>
0.1918

> <Gold.Chemscore.DEInternal.Weighted>
1.5771

> <Gold.Chemscore.Rot.Weighted>
7.8354

> <Gold.Chemscore.Internal.Correction.Weighted>
   9.000000E+99

> <Gold.Protein.RotatedTorsions>
[ 6907 6896 6895 6894 ] final  -18.69 input  -60.11 | X-H torsion
[ 7974 7965 7964 7962 ] final  149.57 input  175.53 | X-H torsion
[ 8008 7997 7996 7995 ] final   57.33 input   59.86 | X-H torsion
[ 10167 10162 10161 10158 ] final   89.02 input  -65.29 | X-H torsion
[ 10718 10713 10712 10709 ] final   88.46 input   66.30 | X-H torsion
[ 10763 10752 10751 10750 ] final  -86.15 input  -60.55 | X-H torsion
[ 11005 11000 10999 10996 ] final  -51.42 input  -57.11 | X-H torsion

> <Gold.Protein.ActiveResidues>
 VAL166  LYS551  ARG553  GLY616  TRP617  ASP618  TYR619  PRO620  LYS621  CYS622 
 ASP623  PHE694  ASN695  SER759  ASP760  ASP761  ALA762  ILE779  LEU786  VAL792 
 PHE793  MET794  SER795  GLU796  ALA797  LYS798  CYS799  TRP800  GLU811  SER814 

> <Gold.Protein.RotatedAtoms>
  151.2744  135.0694  159.9145 H   0  0  0  0  0  0  0  0  0  0  0  0  # atno 6907 bound_to 6896
  152.5345  134.0096  159.7943 H   0  0  0  0  0  0  0  0  0  0  0  0  # atno 6908 bound_to 6896
  151.0340  133.5715  159.2688 H   0  0  0  0  0  0  0  0  0  0  0  0  # atno 6909 bound_to 6896
  144.8428  139.6297  143.6008 H   0  0  0  0  0  0  0  0  0  0  0  0  # atno 7974 bound_to 7965
  155.5319  140.3482  155.4428 H   0  0  0  0  0  0  0  0  0  0  0  0  # atno 8008 bound_to 7997
  156.0712  140.1363  156.9853 H   0  0  0  0  0  0  0  0  0  0  0  0  # atno 8009 bound_to 7997
  154.4529  140.0965  156.6647 H   0  0  0  0  0  0  0  0  0  0  0  0  # atno 8010 bound_to 7997
  139.8614  144.6542  150.9054 H   0  0  0  0  0  0  0  0  0  0  0  0  # atno 10167 bound_to 10162
  157.6949  131.0295  150.3277 H   0  0  0  0  0  0  0  0  0  0  0  0  # atno 10718 bound_to 10713
  154.6192  135.5459  153.7557 H   0  0  0  0  0  0  0  0  0  0  0  0  # atno 10763 bound_to 10752
  153.0230  135.6408  154.1465 H   0  0  0  0  0  0  0  0  0  0  0  0  # atno 10764 bound_to 10752
  154.1400  135.2909  155.3143 H   0  0  0  0  0  0  0  0  0  0  0  0  # atno 10765 bound_to 10752
  141.0870  133.6640  156.3874 H   0  0  0  0  0  0  0  0  0  0  0  0  # atno 11005 bound_to 11000
  146.2718  139.6654  142.9291 LP  0  0  0  0  0  0  0  0  0  0  0  0  # atno 17320 bound_to 7965
  145.4658  141.0434  143.2726 LP  0  0  0  0  0  0  0  0  0  0  0  0  # atno 17321 bound_to 7965
  140.7774  143.3741  151.1596 LP  0  0  0  0  0  0  0  0  0  0  0  0  # atno 17342 bound_to 10162
  139.7370  143.8984  152.3038 LP  0  0  0  0  0  0  0  0  0  0  0  0  # atno 17343 bound_to 10162
  156.3755  130.3871  149.7142 LP  0  0  0  0  0  0  0  0  0  0  0  0  # atno 17370 bound_to 10713
  156.4542  130.7921  151.2942 LP  0  0  0  0  0  0  0  0  0  0  0  0  # atno 17371 bound_to 10713
  140.5341  134.6184  157.5359 LP  0  0  0  0  0  0  0  0  0  0  0  0  # atno 17394 bound_to 11000
  139.9689  134.7326  156.0081 LP  0  0  0  0  0  0  0  0  0  0  0  0  # atno 17395 bound_to 11000

$$$$
