AV-unprocessed.smi:249|AV-procd|sdf|1904|dock10
  -GOLD-   2262020583D 1   1.00000     0.00000
 Structure written by MMmdl.
 64 67  0  0  0  0  0  0  0  0  2 V2000
  148.1044  145.7191  160.8647 C   0  0  0  0  0  0  0  0  0  0  0  0
  148.1611  144.2287  160.4909 C   0  0  0  0  0  0  0  0  0  0  0  0
  148.8907  143.9590  159.2178 N   0  3  2  0  0  0  0  0  0  0  0  0
  148.4060  142.7138  158.5551 C   0  0  0  0  0  0  0  0  0  0  0  0
  149.0951  142.4667  157.2035 C   0  0  0  0  0  0  0  0  0  0  0  0
  150.6274  142.3819  157.3564 C   0  0  2  0  0  0  0  0  0  0  0  0
  151.0828  141.2043  158.1137 N   0  0  0  0  0  0  0  0  0  0  0  0
  152.5226  140.9894  158.2186 C   0  0  0  0  0  0  0  0  0  0  0  0
  150.4553  140.0433  157.8205 C   0  0  0  0  0  0  0  0  0  0  0  0
  149.9774  139.3165  158.8603 N   0  0  0  0  0  0  0  0  0  0  0  0
  149.3387  138.1649  158.6303 C   0  0  0  0  0  0  0  0  0  0  0  0
  149.0770  137.5737  157.4621 N   0  0  0  0  0  0  0  0  0  0  0  0
  149.5653  138.3015  156.4169 C   0  0  0  0  0  0  0  0  0  0  0  0
  150.2648  139.5370  156.5044 C   0  0  0  0  0  0  0  0  0  0  0  0
  150.6101  139.9795  155.2333 N   0  0  0  0  0  0  0  0  0  0  0  0
  150.1370  139.0590  154.4375 C   0  0  0  0  0  0  0  0  0  0  0  0
  149.4881  138.0197  155.0652 N   0  0  0  0  0  0  0  0  0  0  0  0
  148.8639  136.8723  154.4317 C   0  0  0  0  0  0  0  0  0  0  0  0
  148.3463  135.8224  155.4459 C   0  0  1  0  0  0  0  0  0  0  0  0
  147.3888  134.7896  154.8028 C   0  0  0  0  0  0  0  0  0  0  0  0
  147.9675  134.1866  153.6634 O   0  0  0  0  0  0  0  0  0  0  0  0
  149.5134  135.1510  156.2126 C   0  0  2  0  0  0  0  0  0  0  0  0
  150.4466  134.3150  155.3543 C   0  0  0  0  0  0  0  0  0  0  0  0
  151.1443  133.4444  156.3932 C   0  0  0  0  0  0  0  0  0  0  0  0
  150.1782  133.2178  157.4127 O   0  0  0  0  0  0  0  0  0  0  0  0
  149.0782  134.1073  157.2478 C   0  0  0  0  0  0  0  0  0  0  0  0
  151.0730  143.7048  158.0060 C   0  0  0  0  0  0  0  0  0  0  0  0
  150.3835  143.9674  159.3651 C   0  0  1  0  0  0  0  0  0  0  0  0
  150.9272  145.2906  159.9434 C   0  0  0  0  0  0  0  0  0  0  0  0
  147.7140  145.8418  161.8754 H   0  0  0  0  0  0  0  0  0  0  0  0
  147.4498  146.2879  160.2051 H   0  0  0  0  0  0  0  0  0  0  0  0
  149.0957  146.1726  160.8387 H   0  0  0  0  0  0  0  0  0  0  0  0
  148.6580  143.7343  161.3222 H   0  0  0  0  0  0  0  0  0  0  0  0
  147.1542  143.8124  160.4377 H   0  0  0  0  0  0  0  0  0  0  0  0
  148.5599  141.8636  159.2210 H   0  0  0  0  0  0  0  0  0  0  0  0
  147.3354  142.7736  158.3677 H   0  0  0  0  0  0  0  0  0  0  0  0
  148.6882  141.5715  156.7330 H   0  0  0  0  0  0  0  0  0  0  0  0
  148.8476  143.2842  156.5249 H   0  0  0  0  0  0  0  0  0  0  0  0
  151.0733  142.3282  156.3629 H   0  0  0  0  0  0  0  0  0  0  0  0
  152.7641  139.9754  158.5425 H   0  0  0  0  0  0  0  0  0  0  0  0
  152.9527  141.6731  158.9504 H   0  0  0  0  0  0  0  0  0  0  0  0
  153.0101  141.1632  157.2585 H   0  0  0  0  0  0  0  0  0  0  0  0
  148.9852  137.6427  159.5072 H   0  0  0  0  0  0  0  0  0  0  0  0
  150.2412  139.1171  153.3635 H   0  0  0  0  0  0  0  0  0  0  0  0
  148.0452  137.2271  153.8043 H   0  0  0  0  0  0  0  0  0  0  0  0
  149.5977  136.4286  153.7584 H   0  0  0  0  0  0  0  0  0  0  0  0
  147.7532  136.3645  156.1839 H   0  0  0  0  0  0  0  0  0  0  0  0
  147.1237  134.0090  155.5154 H   0  0  0  0  0  0  0  0  0  0  0  0
  146.4478  135.2565  154.5116 H   0  0  0  0  0  0  0  0  0  0  0  0
  148.3955  134.8573  153.1532 H   0  0  0  0  0  0  0  0  0  0  0  0
  150.1046  135.9144  156.7215 H   0  0  0  0  0  0  0  0  0  0  0  0
  149.8762  133.6903  154.6650 H   0  0  0  0  0  0  0  0  0  0  0  0
  151.1502  134.9120  154.7736 H   0  0  0  0  0  0  0  0  0  0  0  0
  151.5118  132.5073  155.9749 H   0  0  0  0  0  0  0  0  0  0  0  0
  151.9903  133.9770  156.8292 H   0  0  0  0  0  0  0  0  0  0  0  0
  148.7954  134.5581  158.1993 H   0  0  0  0  0  0  0  0  0  0  0  0
  148.2272  133.5307  156.8828 H   0  0  0  0  0  0  0  0  0  0  0  0
  152.1571  143.7269  158.1176 H   0  0  0  0  0  0  0  0  0  0  0  0
  150.8407  144.5259  157.3258 H   0  0  0  0  0  0  0  0  0  0  0  0
  150.6579  143.1650  160.0519 H   0  0  0  0  0  0  0  0  0  0  0  0
  152.0158  145.3216  159.8866 H   0  0  0  0  0  0  0  0  0  0  0  0
  150.6799  145.4178  160.9965 H   0  0  0  0  0  0  0  0  0  0  0  0
  150.5467  146.1524  159.3941 H   0  0  0  0  0  0  0  0  0  0  0  0
  148.6676  144.7216  158.5944 H   0  0  0  0  0  0  0  0  0  0  0  0
  1  2  1  0  0  0  0
  1 30  1  0  0  0  0
  1 31  1  0  0  0  0
  1 32  1  0  0  0  0
  2  3  1  0  0  0  0
  2 33  1  0  0  0  0
  2 34  1  0  0  0  0
  3 28  1  0  0  0  0
  3  4  1  0  0  0  0
  3 64  1  0  0  0  0
  4  5  1  0  0  0  0
  4 35  1  0  0  0  0
  4 36  1  0  0  0  0
  5  6  1  0  0  0  0
  5 37  1  0  0  0  0
  5 38  1  0  0  0  0
  6  7  1  0  0  0  0
  6 27  1  0  0  0  0
  6 39  1  0  0  0  0
  7  8  1  0  0  0  0
  7  9  1  0  0  0  0
  8 40  1  0  0  0  0
  8 41  1  0  0  0  0
  8 42  1  0  0  0  0
  9 14  1  0  0  0  0
  9 10  2  0  0  0  0
 10 11  1  0  0  0  0
 11 12  2  0  0  0  0
 11 43  1  0  0  0  0
 12 13  1  0  0  0  0
 13 17  1  0  0  0  0
 13 14  2  0  0  0  0
 14 15  1  0  0  0  0
 15 16  2  0  0  0  0
 16 17  1  0  0  0  0
 16 44  1  0  0  0  0
 17 18  1  0  0  0  0
 18 19  1  0  0  0  0
 18 45  1  0  0  0  0
 18 46  1  0  0  0  0
 19 20  1  0  0  0  0
 19 22  1  0  0  0  0
 19 47  1  0  0  0  0
 20 21  1  0  0  0  0
 20 48  1  0  0  0  0
 20 49  1  0  0  0  0
 21 50  1  0  0  0  0
 22 26  1  0  0  0  0
 22 23  1  0  0  0  0
 22 51  1  0  0  0  0
 23 24  1  0  0  0  0
 23 52  1  0  0  0  0
 23 53  1  0  0  0  0
 24 25  1  0  0  0  0
 24 54  1  0  0  0  0
 24 55  1  0  0  0  0
 25 26  1  0  0  0  0
 26 56  1  0  0  0  0
 26 57  1  0  0  0  0
 27 28  1  0  0  0  0
 27 58  1  0  0  0  0
 27 59  1  0  0  0  0
 28 29  1  0  0  0  0
 28 60  1  0  0  0  0
 29 61  1  0  0  0  0
 29 62  1  0  0  0  0
 29 63  1  0  0  0  0
M  CHG  1   3   1
M  END
> <s_m_source_file>
AV-unprocessed.smi

> <i_m_source_file_index>
249

> <i_lp_mmshare_version>
43012

> <i_f3d_flags>
0

> <s_epik_input>
W0NIM11bQ0gyXU4xW0NIMl1bQ0gyXVtDQEhdKFtDSDJdW0NASF0xW0NIM10pTihbQ0gzXSljKG5bY0hdbjIpYyhjMjMpbltjSF1uM1tDSDJdW0NASF0oW0NIMl1bT0hdKVtDQEBIXTRbQ0gyXVtDSDJdT1tDSDJdNA==

> <s_epik_cmdline>
J2VwaWtfcHl0aG9uJywgJy1waCcsICc3LjAnLCAnLXRuJywgJzgnLCAnLW1hJywgJzIwMCcsICctbWV0YWxfYmluZGluZycsICctaW1hZScsICc8aW5maWxlLm1hZT4nLCAnLW9tYWUnLCAnPG91dGZpbGUubWFlPic=

> <r_lp_tautomer_probability>
1

> <r_epik_Ionization_Penalty>
0.00294688

> <r_epik_Ionization_Penalty_Charging>
0.00169971

> <r_epik_Ionization_Penalty_Neutral>
0.00124717

> <r_epik_State_Penalty>
-0

> <r_epik_Charging_Adjusted_Penalty>
0.00169971

> <i_epik_Tot_Q>
1

> <i_epik_Tot_abs_Q>
1

> <r_epik_Metal_State_Penalty>
-0

> <b_epik_Metal_Only>
0

> <s_lp_Force_Field>
OPLS_2005

> <r_lp_Energy>
56.7452

> <b_lp_Chiralities_Consistent>
1

> <s_lp_Variant>
AV-unprocessed.smi:249-7

> <Gold.Version>
5.8.1

> <Gold.Id.Protein>
6NUR|6NUR_protein|mol2

> <Gold.PLP.Fitness>
43.3708

> <Gold.PLP.PLP>
-28.8658

> <Gold.PLP.part.hbond>
-4.2184

> <Gold.PLP.part.metal>
0.0000

> <Gold.PLP.part.buried>
1.9321

> <Gold.PLP.part.nonpolar>
-26.5784

> <Gold.PLP.part.repulsive>
0.1645

> <Gold.PLP.ligand.clash>
0.0000

> <Gold.PLP.ligand.torsion>
1.0275

> <Gold.PLP.Chemscore.Hbond>
4.2616

> <Gold.PLP.Chemscore.CHOScore>
1.0000

> <Gold.PLP.Chemscore.Metal>
0.0000

> <Gold.Chemscore.Hbonds>
donor molecule, donor type, donor heavy atom, donor atom, acceptor molecule, acceptor atom, score
      L1  H     3    64       P1  8029  2.00
      L1  H    21    50       P1  7948  1.00
      P1  H  6896  6909       L1    25  0.99
      P1  H  7989  7998       L1    15  0.26
      L1  C    16    44       P1  7957  1.00

> <Gold.PLP.Chemscore.Internal.Correction>
0.7750

> <Gold.Rescore>
     Score         DG    S(hbond)    S(metal)    S(lipo)     H(rot)  DE(clash)    DE(int)     intcor
      7.94     -16.60       2.48        0.00      87.69       2.90       2.68       5.98       ----

> <Gold.Chemscore.Fitness>
7.9405

> <Gold.Chemscore.DG>
-16.6016

> <Gold.Chemscore.ZeroCoef>
-5.4800

> <Gold.Chemscore.Hbond>
2.4814

> <Gold.Chemscore.Metal>
0.0000

> <Gold.Chemscore.Lipo>
87.6863

> <Gold.Chemscore.Internal_Hbond>
0.0000

> <Gold.Chemscore.DEClash>
2.6777

> <Gold.Chemscore.DEInternal>
5.9833

> <Gold.Chemscore.Rot>
2.9006

> <Gold.Chemscore.Internal.Correction>
   9.000000E+99

> <Gold.Chemscore.Hbonds>
donor molecule, donor type, donor heavy atom, donor atom, acceptor molecule, acceptor atom, score
      L1  H     3    64       P1  8029  0.89
      L1  H    21    50       P1  7948  0.70
      P1  H  6896  6909       L1    25  0.44
      P1  H  7989  7998       L1    15  0.01

> <Gold.Chemscore.Hbond.Weighted>
-8.2879

> <Gold.Chemscore.Metal.Weighted>
-0.0000

> <Gold.Chemscore.Lipo.Weighted>
-10.2593

> <Gold.Chemscore.Internal_Hbond.Weighted>
0.0000

> <Gold.Chemscore.DEClash.Weighted>
2.6777

> <Gold.Chemscore.DEInternal.Weighted>
5.9833

> <Gold.Chemscore.Rot.Weighted>
7.4256

> <Gold.Chemscore.Internal.Correction.Weighted>
   9.000000E+99

> <Gold.Protein.RotatedTorsions>
[ 6907 6896 6895 6894 ] final  -26.86 input  -60.11 | X-H torsion
[ 7974 7965 7964 7962 ] final -108.30 input  175.53 | X-H torsion
[ 8008 7997 7996 7995 ] final   81.70 input   59.86 | X-H torsion
[ 10167 10162 10161 10158 ] final  -10.56 input  -65.29 | X-H torsion
[ 10718 10713 10712 10709 ] final  119.99 input   66.30 | X-H torsion
[ 10763 10752 10751 10750 ] final -173.03 input  -60.55 | X-H torsion
[ 11005 11000 10999 10996 ] final   92.63 input  -57.11 | X-H torsion

> <Gold.Protein.ActiveResidues>
 VAL166  LYS551  ARG553  GLY616  TRP617  ASP618  TYR619  PRO620  LYS621  CYS622 
 ASP623  PHE694  ASN695  SER759  ASP760  ASP761  ALA762  ILE779  LEU786  VAL792 
 PHE793  MET794  SER795  GLU796  ALA797  LYS798  CYS799  TRP800  GLU811  SER814 

> <Gold.Protein.RotatedAtoms>
  151.1550  135.0245  159.8684 H   0  0  0  0  0  0  0  0  0  0  0  0  # atno 6907 bound_to 6896
  152.5452  134.1345  159.8463 H   0  0  0  0  0  0  0  0  0  0  0  0  # atno 6908 bound_to 6896
  151.1434  133.4910  159.2629 H   0  0  0  0  0  0  0  0  0  0  0  0  # atno 6909 bound_to 6896
  145.1946  140.9030  143.3405 H   0  0  0  0  0  0  0  0  0  0  0  0  # atno 7974 bound_to 7965
  155.9006  140.3433  155.6024 H   0  0  0  0  0  0  0  0  0  0  0  0  # atno 8008 bound_to 7997
  155.7504  140.0819  157.2223 H   0  0  0  0  0  0  0  0  0  0  0  0  # atno 8009 bound_to 7997
  154.4043  140.1554  156.2705 H   0  0  0  0  0  0  0  0  0  0  0  0  # atno 8010 bound_to 7997
  140.7117  143.5735  150.9067 H   0  0  0  0  0  0  0  0  0  0  0  0  # atno 10167 bound_to 10162
  157.5922  131.1062  150.7974 H   0  0  0  0  0  0  0  0  0  0  0  0  # atno 10718 bound_to 10713
  154.6126  135.2866  155.0416 H   0  0  0  0  0  0  0  0  0  0  0  0  # atno 10763 bound_to 10752
  154.1640  135.6483  153.4997 H   0  0  0  0  0  0  0  0  0  0  0  0  # atno 10764 bound_to 10752
  153.0201  135.5385  154.6885 H   0  0  0  0  0  0  0  0  0  0  0  0  # atno 10765 bound_to 10752
  139.8821  134.8744  156.3600 H   0  0  0  0  0  0  0  0  0  0  0  0  # atno 11005 bound_to 11000
  145.0008  139.3601  143.6169 LP  0  0  0  0  0  0  0  0  0  0  0  0  # atno 17320 bound_to 7965
  146.3429  139.9230  142.8764 LP  0  0  0  0  0  0  0  0  0  0  0  0  # atno 17321 bound_to 7965
  139.9461  143.6326  152.3041 LP  0  0  0  0  0  0  0  0  0  0  0  0  # atno 17342 bound_to 10162
  139.6828  144.7654  151.1578 LP  0  0  0  0  0  0  0  0  0  0  0  0  # atno 17343 bound_to 10162
  156.8393  130.5042  149.5323 LP  0  0  0  0  0  0  0  0  0  0  0  0  # atno 17370 bound_to 10713
  156.0979  130.5946  150.9844 LP  0  0  0  0  0  0  0  0  0  0  0  0  # atno 17371 bound_to 10713
  140.9536  133.7435  156.0305 LP  0  0  0  0  0  0  0  0  0  0  0  0  # atno 17394 bound_to 11000
  140.8076  134.3436  157.5421 LP  0  0  0  0  0  0  0  0  0  0  0  0  # atno 17395 bound_to 11000

$$$$
