AV-unprocessed.smi:705|AV-procd|sdf|3451|dock6
  -GOLD-   22720 0433D 1   1.00000     0.00000
 Structure written by MMmdl.
 28 29  0  0  0  0  0  0  0  0  3 V2000
  150.2126  138.0594  153.9027 N   0  0  0  0  0  0  0  0  0  0  0  0
  151.0314  137.5225  154.8106 C   0  0  0  0  0  0  0  0  0  0  0  0
  151.5964  136.4423  154.6482 O   0  0  0  0  0  0  0  0  0  0  0  0
  151.2252  138.3303  156.0588 C   0  0  0  0  0  0  0  0  0  0  0  0
  150.9919  139.7267  156.1387 C   0  0  0  0  0  0  0  0  0  0  0  0
  151.3430  139.9216  157.5250 C   0  0  0  0  0  0  0  0  0  0  0  0
  151.2565  141.3284  158.0848 C   0  0  1  0  0  0  0  0  0  0  0  0
  152.6166  141.8113  158.6213 C   0  0  0  0  0  0  0  0  0  0  0  0
  152.5080  143.2535  159.1396 C   0  0  0  0  0  0  0  0  0  0  0  0
  151.9289  144.1831  158.0598 C   0  0  0  0  0  0  0  0  0  0  0  0
  150.6222  143.6808  157.5822 N   0  3  0  0  0  0  0  0  0  0  0  0
  150.6967  142.3085  157.0361 C   0  0  0  0  0  0  0  0  0  0  0  0
  151.7179  138.7820  158.1357 N   0  0  0  0  0  0  0  0  0  0  0  0
  151.6447  137.8204  157.2320 N   0  5  0  0  0  0  0  0  0  0  0  0
  150.0273  137.5802  153.0348 H   0  0  0  0  0  0  0  0  0  0  0  0
  149.7846  138.9522  154.1048 H   0  0  0  0  0  0  0  0  0  0  0  0
  150.6560  140.4290  155.3858 H   0  0  0  0  0  0  0  0  0  0  0  0
  150.5591  141.3082  158.9242 H   0  0  0  0  0  0  0  0  0  0  0  0
  152.9656  141.1525  159.4173 H   0  0  0  0  0  0  0  0  0  0  0  0
  153.3649  141.7661  157.8286 H   0  0  0  0  0  0  0  0  0  0  0  0
  151.8711  143.2771  160.0249 H   0  0  0  0  0  0  0  0  0  0  0  0
  153.4888  143.6115  159.4542 H   0  0  0  0  0  0  0  0  0  0  0  0
  151.8003  145.1903  158.4568 H   0  0  0  0  0  0  0  0  0  0  0  0
  152.6153  144.2578  157.2151 H   0  0  0  0  0  0  0  0  0  0  0  0
  149.9740  143.6814  158.3566 H   0  0  0  0  0  0  0  0  0  0  0  0
  151.3253  142.3152  156.1442 H   0  0  0  0  0  0  0  0  0  0  0  0
  149.6998  141.9991  156.7205 H   0  0  0  0  0  0  0  0  0  0  0  0
  150.2740  144.2993  156.8636 H   0  0  0  0  0  0  0  0  0  0  0  0
  1  2  1  0  0  0  0
  1 15  1  0  0  0  0
  1 16  1  0  0  0  0
  2  3  2  0  0  0  0
  2  4  1  0  0  0  0
  4 14  1  0  0  0  0
  4  5  2  0  0  0  0
  5  6  1  0  0  0  0
  5 17  1  0  0  0  0
  6  7  1  0  0  0  0
  6 13  2  0  0  0  0
  7 12  1  0  0  0  0
  7  8  1  0  0  0  0
  7 18  1  0  0  0  0
  8  9  1  0  0  0  0
  8 19  1  0  0  0  0
  8 20  1  0  0  0  0
  9 10  1  0  0  0  0
  9 21  1  0  0  0  0
  9 22  1  0  0  0  0
 10 11  1  0  0  0  0
 10 23  1  0  0  0  0
 10 24  1  0  0  0  0
 11 12  1  0  0  0  0
 11 25  1  0  0  0  0
 11 28  1  0  0  0  0
 12 26  1  0  0  0  0
 12 27  1  0  0  0  0
 13 14  1  0  0  0  0
M  CHG  1  11   1
M  CHG  1  14  -1
M  END
> <s_m_source_file>
AV-unprocessed.smi

> <i_m_source_file_index>
705

> <i_lp_mmshare_version>
43012

> <i_f3d_flags>
0

> <s_epik_input>
W05IMl1DKD1PKWMxW2NIXWMoW25IXW4xKVtDQEBIXTJbQ0gyXVtDSDJdW0NIMl1bTkhdW0NIMl0y

> <s_epik_cmdline>
J2VwaWtfcHl0aG9uJywgJy1waCcsICc3LjAnLCAnLXRuJywgJzgnLCAnLW1hJywgJzIwMCcsICctbWV0YWxfYmluZGluZycsICctaW1hZScsICc8aW5maWxlLm1hZT4nLCAnLW9tYWUnLCAnPG91dGZpbGUubWFlPic=

> <r_lp_tautomer_probability>
0.5

> <r_epik_Ionization_Penalty>
8.1602

> <r_epik_Ionization_Penalty_Charging>
5.25561

> <r_epik_Ionization_Penalty_Neutral>
2.90459

> <r_epik_State_Penalty>
5.66605

> <r_epik_Charging_Adjusted_Penalty>
10.9217

> <i_epik_Tot_Q>
0

> <i_epik_Tot_abs_Q>
2

> <r_epik_Metal_State_Penalty>
1.68656

> <b_epik_Metal_Only>
1

> <s_lp_Force_Field>
OPLS_2005

> <r_lp_Energy>
5.1844

> <b_lp_Chiralities_Consistent>
1

> <s_lp_Variant>
AV-unprocessed.smi:705-6

> <Gold.Version>
5.8.1

> <Gold.Id.Protein>
6NUR|6NUR_protein|mol2

> <Gold.PLP.Fitness>
36.7723

> <Gold.PLP.PLP>
-25.2172

> <Gold.PLP.part.hbond>
-3.0000

> <Gold.PLP.part.metal>
0.0000

> <Gold.PLP.part.buried>
-4.8095

> <Gold.PLP.part.nonpolar>
-18.7035

> <Gold.PLP.part.repulsive>
0.2256

> <Gold.PLP.ligand.clash>
0.0285

> <Gold.PLP.ligand.torsion>
0.2187

> <Gold.PLP.Chemscore.Hbond>
4.0000

> <Gold.PLP.Chemscore.CHOScore>
0.0000

> <Gold.PLP.Chemscore.Metal>
0.0000

> <Gold.Chemscore.Hbonds>
donor molecule, donor type, donor heavy atom, donor atom, acceptor molecule, acceptor atom, score
      L1  H     1    15       P1  7948  0.94
      L1  H    11    28       P1  8028  1.95
      P1  H 10752 10763       L1     3  1.00

> <Gold.PLP.Chemscore.Internal.Correction>
0.0211

> <Gold.Rescore>
     Score         DG    S(hbond)    S(metal)    S(lipo)     H(rot)  DE(clash)    DE(int)     intcor
     19.66     -20.08       2.93        0.00      63.05       1.00       0.17       0.25       ----

> <Gold.Chemscore.Fitness>
19.6566

> <Gold.Chemscore.DG>
-20.0772

> <Gold.Chemscore.ZeroCoef>
-5.4800

> <Gold.Chemscore.Hbond>
2.9281

> <Gold.Chemscore.Metal>
0.0000

> <Gold.Chemscore.Lipo>
63.0540

> <Gold.Chemscore.Internal_Hbond>
0.0000

> <Gold.Chemscore.DEClash>
0.1722

> <Gold.Chemscore.DEInternal>
0.2485

> <Gold.Chemscore.Rot>
1.0000

> <Gold.Chemscore.Internal.Correction>
   9.000000E+99

> <Gold.Chemscore.Hbonds>
donor molecule, donor type, donor heavy atom, donor atom, acceptor molecule, acceptor atom, score
      L1  H     1    15       P1  7948  0.19
      L1  H    11    28       P1  8028  0.88
      P1  H 10752 10763       L1     3  0.98

> <Gold.Chemscore.Hbond.Weighted>
-9.7799

> <Gold.Chemscore.Metal.Weighted>
-0.0000

> <Gold.Chemscore.Lipo.Weighted>
-7.3773

> <Gold.Chemscore.Internal_Hbond.Weighted>
0.0000

> <Gold.Chemscore.DEClash.Weighted>
0.1722

> <Gold.Chemscore.DEInternal.Weighted>
0.2485

> <Gold.Chemscore.Rot.Weighted>
2.5600

> <Gold.Chemscore.Internal.Correction.Weighted>
   9.000000E+99

> <Gold.Protein.RotatedTorsions>
[ 6907 6896 6895 6894 ] final   48.32 input  -60.11 | X-H torsion
[ 7974 7965 7964 7962 ] final  158.22 input  175.53 | X-H torsion
[ 8008 7997 7996 7995 ] final  -80.42 input   59.86 | X-H torsion
[ 10167 10162 10161 10158 ] final   82.06 input  -65.29 | X-H torsion
[ 10718 10713 10712 10709 ] final  179.55 input   66.30 | X-H torsion
[ 10763 10752 10751 10750 ] final   66.89 input  -60.55 | X-H torsion
[ 11005 11000 10999 10996 ] final  158.95 input  -57.11 | X-H torsion

> <Gold.Protein.ActiveResidues>
 VAL166  LYS551  ARG553  GLY616  TRP617  ASP618  TYR619  PRO620  LYS621  CYS622 
 ASP623  PHE694  ASN695  SER759  ASP760  ASP761  ALA762  ILE779  LEU786  VAL792 
 PHE793  MET794  SER795  GLU796  ALA797  LYS798  CYS799  TRP800  GLU811  SER814 

> <Gold.Protein.RotatedAtoms>
  152.2782  134.7858  160.0401 H   0  0  0  0  0  0  0  0  0  0  0  0  # atno 6907 bound_to 6896
  151.8447  133.3424  159.3662 H   0  0  0  0  0  0  0  0  0  0  0  0  # atno 6908 bound_to 6896
  150.7179  134.5285  159.5733 H   0  0  0  0  0  0  0  0  0  0  0  0  # atno 6909 bound_to 6896
  144.7858  139.7448  143.6241 H   0  0  0  0  0  0  0  0  0  0  0  0  # atno 7974 bound_to 7965
  154.5881  140.0663  156.9200 H   0  0  0  0  0  0  0  0  0  0  0  0  # atno 8008 bound_to 7997
  155.2343  140.3340  155.4281 H   0  0  0  0  0  0  0  0  0  0  0  0  # atno 8009 bound_to 7997
  156.2237  140.1810  156.7400 H   0  0  0  0  0  0  0  0  0  0  0  0  # atno 8010 bound_to 7997
  139.9327  144.6141  150.8329 H   0  0  0  0  0  0  0  0  0  0  0  0  # atno 10167 bound_to 10162
  156.8741  130.9793  151.3070 H   0  0  0  0  0  0  0  0  0  0  0  0  # atno 10718 bound_to 10713
  153.0160  135.5304  154.6894 H   0  0  0  0  0  0  0  0  0  0  0  0  # atno 10763 bound_to 10752
  154.6033  135.2870  155.0514 H   0  0  0  0  0  0  0  0  0  0  0  0  # atno 10764 bound_to 10752
  154.1563  135.6555  153.5028 H   0  0  0  0  0  0  0  0  0  0  0  0  # atno 10765 bound_to 10752
  140.1914  134.8404  157.2916 H   0  0  0  0  0  0  0  0  0  0  0  0  # atno 11005 bound_to 11000
  146.2089  139.5432  142.9694 LP  0  0  0  0  0  0  0  0  0  0  0  0  # atno 17320 bound_to 7965
  145.5926  141.0367  143.2062 LP  0  0  0  0  0  0  0  0  0  0  0  0  # atno 17321 bound_to 7965
  140.7633  143.3219  151.2602 LP  0  0  0  0  0  0  0  0  0  0  0  0  # atno 17342 bound_to 10162
  139.6769  143.9922  152.2786 LP  0  0  0  0  0  0  0  0  0  0  0  0  # atno 17343 bound_to 10162
  157.6179  130.8632  149.9059 LP  0  0  0  0  0  0  0  0  0  0  0  0  # atno 17370 bound_to 10713
  156.0711  130.3685  150.0774 LP  0  0  0  0  0  0  0  0  0  0  0  0  # atno 17371 bound_to 10713
  140.2155  134.4086  155.7591 LP  0  0  0  0  0  0  0  0  0  0  0  0  # atno 17394 bound_to 11000
  141.2226  133.7140  156.8407 LP  0  0  0  0  0  0  0  0  0  0  0  0  # atno 17395 bound_to 11000

$$$$
