AV-unprocessed.smi:2668|AV-procd|sdf|10339|dock2
  -GOLD-   2272014363D 1   1.00000     0.00000
 Structure written by MMmdl.
 54 55  0  0  0  0  0  0  0  0  3 V2000
  146.5102  135.4238  154.1103 C   0  0  0  0  0  0  0  0  0  0  0  0
  146.5538  135.7511  152.6631 N   0  3  0  0  0  0  0  0  0  0  0  0
  146.6737  134.5075  151.8619 C   0  0  0  0  0  0  0  0  0  0  0  0
  145.4397  136.6503  152.2150 C   0  0  2  0  0  0  0  0  0  0  0  0
  145.9028  137.7786  151.2671 C   0  0  0  0  0  0  0  0  0  0  0  0
  146.7818  138.8203  151.9847 C   0  0  0  0  0  0  0  0  0  0  0  0
  146.0707  139.4314  153.1487 N   0  3  2  0  0  0  0  0  0  0  0  0
  146.7698  140.5987  153.8027 C   0  0  0  0  0  0  0  0  0  0  0  0
  146.9718  141.7691  152.8119 C   0  0  0  0  0  0  0  0  0  0  0  0
  145.9405  141.1348  154.9964 C   0  0  0  0  0  0  0  0  0  0  0  0
  148.1656  140.1769  154.3543 C   0  0  0  0  0  0  0  0  0  0  0  0
  148.9263  141.2769  154.9497 N   0  0  0  0  0  0  0  0  0  0  0  0
  149.6909  141.1914  156.0479 C   0  0  0  0  0  0  0  0  0  0  0  0
  149.8635  140.1466  156.6738 O   0  0  0  0  0  0  0  0  0  0  0  0
  150.2156  142.3864  156.3685 N   0  0  0  0  0  0  0  0  0  0  0  0
  151.0888  142.7069  157.4429 C   0  0  0  0  0  0  0  0  0  0  0  0
  151.3674  144.0682  157.6851 C   0  0  0  0  0  0  0  0  0  0  0  0
  152.2431  144.4144  158.7316 C   0  0  0  0  0  0  0  0  0  0  0  0
  152.8170  143.3790  159.4943 C   0  0  0  0  0  0  0  0  0  0  0  0
  152.5743  142.0711  159.2667 N   0  0  0  0  0  0  0  0  0  0  0  0
  151.7313  141.7459  158.2631 C   0  0  0  0  0  0  0  0  0  0  0  0
  145.5935  138.3755  154.0918 C   0  0  0  0  0  0  0  0  0  0  0  0
  144.7000  137.3443  153.3801 C   0  0  0  0  0  0  0  0  0  0  0  0
  145.5472  134.9921  154.3865 H   0  0  0  0  0  0  0  0  0  0  0  0
  146.6902  136.3016  154.7290 H   0  0  0  0  0  0  0  0  0  0  0  0
  147.2876  134.7054  154.3731 H   0  0  0  0  0  0  0  0  0  0  0  0
  145.7334  133.9546  151.8522 H   0  0  0  0  0  0  0  0  0  0  0  0
  147.4444  133.8522  152.2695 H   0  0  0  0  0  0  0  0  0  0  0  0
  146.9677  134.7148  150.8341 H   0  0  0  0  0  0  0  0  0  0  0  0
  144.7221  136.0269  151.6791 H   0  0  0  0  0  0  0  0  0  0  0  0
  146.4109  137.3910  150.3856 H   0  0  0  0  0  0  0  0  0  0  0  0
  145.0217  138.2871  150.8723 H   0  0  0  0  0  0  0  0  0  0  0  0
  147.7135  138.3590  152.3122 H   0  0  0  0  0  0  0  0  0  0  0  0
  147.0445  139.5724  151.2434 H   0  0  0  0  0  0  0  0  0  0  0  0
  147.4492  142.6163  153.3060 H   0  0  0  0  0  0  0  0  0  0  0  0
  146.0278  142.1319  152.4054 H   0  0  0  0  0  0  0  0  0  0  0  0
  147.6117  141.4974  151.9726 H   0  0  0  0  0  0  0  0  0  0  0  0
  146.5174  141.8420  155.5938 H   0  0  0  0  0  0  0  0  0  0  0  0
  145.6205  140.3327  155.6621 H   0  0  0  0  0  0  0  0  0  0  0  0
  145.0501  141.6746  154.6737 H   0  0  0  0  0  0  0  0  0  0  0  0
  148.0577  139.4119  155.1229 H   0  0  0  0  0  0  0  0  0  0  0  0
  148.7535  139.6893  153.5742 H   0  0  0  0  0  0  0  0  0  0  0  0
  148.8284  142.1836  154.5166 H   0  0  0  0  0  0  0  0  0  0  0  0
  149.9099  143.1719  155.8130 H   0  0  0  0  0  0  0  0  0  0  0  0
  150.9135  144.8405  157.0813 H   0  0  0  0  0  0  0  0  0  0  0  0
  152.4699  145.4486  158.9446 H   0  0  0  0  0  0  0  0  0  0  0  0
  153.4933  143.6074  160.3047 H   0  0  0  0  0  0  0  0  0  0  0  0
  151.5979  140.6857  158.1150 H   0  0  0  0  0  0  0  0  0  0  0  0
  146.4426  137.8674  154.5493 H   0  0  0  0  0  0  0  0  0  0  0  0
  145.0124  138.8071  154.9040 H   0  0  0  0  0  0  0  0  0  0  0  0
  143.8233  137.8602  152.9848 H   0  0  0  0  0  0  0  0  0  0  0  0
  144.2970  136.6280  154.0944 H   0  0  0  0  0  0  0  0  0  0  0  0
  147.4161  136.2570  152.5199 H   0  0  0  0  0  0  0  0  0  0  0  0
  145.2324  139.8358  152.7555 H   0  0  0  0  0  0  0  0  0  0  0  0
  1  2  1  0  0  0  0
  1 24  1  0  0  0  0
  1 25  1  0  0  0  0
  1 26  1  0  0  0  0
  2  3  1  0  0  0  0
  2  4  1  0  0  0  0
  2 53  1  0  0  0  0
  3 27  1  0  0  0  0
  3 28  1  0  0  0  0
  3 29  1  0  0  0  0
  4 23  1  0  0  0  0
  4  5  1  0  0  0  0
  4 30  1  0  0  0  0
  5  6  1  0  0  0  0
  5 31  1  0  0  0  0
  5 32  1  0  0  0  0
  6  7  1  0  0  0  0
  6 33  1  0  0  0  0
  6 34  1  0  0  0  0
  7  8  1  0  0  0  0
  7 22  1  0  0  0  0
  7 54  1  0  0  0  0
  8  9  1  0  0  0  0
  8 10  1  0  0  0  0
  8 11  1  0  0  0  0
  9 35  1  0  0  0  0
  9 36  1  0  0  0  0
  9 37  1  0  0  0  0
 10 38  1  0  0  0  0
 10 39  1  0  0  0  0
 10 40  1  0  0  0  0
 11 12  1  0  0  0  0
 11 41  1  0  0  0  0
 11 42  1  0  0  0  0
 12 13  1  0  0  0  0
 12 43  1  0  0  0  0
 13 14  2  0  0  0  0
 13 15  1  0  0  0  0
 15 16  1  0  0  0  0
 15 44  1  0  0  0  0
 16 21  1  0  0  0  0
 16 17  2  0  0  0  0
 17 18  1  0  0  0  0
 17 45  1  0  0  0  0
 18 19  2  0  0  0  0
 18 46  1  0  0  0  0
 19 20  1  0  0  0  0
 19 47  1  0  0  0  0
 20 21  2  0  0  0  0
 21 48  1  0  0  0  0
 22 23  1  0  0  0  0
 22 49  1  0  0  0  0
 22 50  1  0  0  0  0
 23 51  1  0  0  0  0
 23 52  1  0  0  0  0
M  CHG  1   2   1
M  CHG  1   7   1
M  END
> <s_m_source_file>
AV-unprocessed.smi

> <i_m_source_file_index>
2668

> <i_lp_mmshare_version>
43012

> <i_f3d_flags>
0

> <s_epik_input>
W0NIM11OKFtDSDNdKVtDSF0xW0NIMl1bQ0gyXU4oW0NIMl1bQ0gyXTEpQyhbQ0gzXSkoW0NIM10pW0NIMl1bTkhdQyg9TylbTkhdYzJbY0hdW2NIXVtjSF1uW2NIXTI=

> <s_epik_cmdline>
J2VwaWtfcHl0aG9uJywgJy1waCcsICc3LjAnLCAnLXRuJywgJzgnLCAnLW1hJywgJzIwMCcsICctbWV0YWxfYmluZGluZycsICctaW1hZScsICc8aW5maWxlLm1hZT4nLCAnLW9tYWUnLCAnPG91dGZpbGUubWFlPic=

> <r_epik_Ionization_Penalty>
0.210461

> <r_epik_Ionization_Penalty_Charging>
0.206231

> <r_epik_Ionization_Penalty_Neutral>
0.00422959

> <r_epik_State_Penalty>
0.176025

> <r_epik_Charging_Adjusted_Penalty>
0.382256

> <i_epik_Tot_Q>
2

> <i_epik_Tot_abs_Q>
2

> <r_epik_Metal_State_Penalty>
0.176152

> <b_epik_Metal_Only>
0

> <s_lp_Force_Field>
OPLS_2005

> <r_lp_Energy>
56.664

> <b_lp_Chiralities_Consistent>
1

> <s_lp_Variant>
AV-unprocessed.smi:2668-2

> <Gold.Version>
5.8.1

> <Gold.Id.Protein>
6NUR|6NUR_protein|mol2

> <Gold.PLP.Fitness>
48.2118

> <Gold.PLP.PLP>
-36.8723

> <Gold.PLP.part.hbond>
-3.0000

> <Gold.PLP.part.metal>
0.0000

> <Gold.PLP.part.buried>
-0.9433

> <Gold.PLP.part.nonpolar>
-33.3600

> <Gold.PLP.part.repulsive>
0.2628

> <Gold.PLP.ligand.clash>
0.4232

> <Gold.PLP.ligand.torsion>
1.4207

> <Gold.PLP.Chemscore.Hbond>
4.8160

> <Gold.PLP.Chemscore.CHOScore>
0.0000

> <Gold.PLP.Chemscore.Metal>
0.0000

> <Gold.Chemscore.Hbonds>
donor molecule, donor type, donor heavy atom, donor atom, acceptor molecule, acceptor atom, score
      L1  H     2    53       P1  7948  1.82
      L1  H     7    54       P1 10175  2.00
      L1  H    15    44       P1  8028  0.99

> <Gold.PLP.Chemscore.Internal.Correction>
0.1560

> <Gold.Rescore>
     Score         DG    S(hbond)    S(metal)    S(lipo)     H(rot)  DE(clash)    DE(int)     intcor
     18.53     -24.13       3.10        0.00     107.90       1.69       3.23       2.37       ----

> <Gold.Chemscore.Fitness>
18.5305

> <Gold.Chemscore.DG>
-24.1291

> <Gold.Chemscore.ZeroCoef>
-5.4800

> <Gold.Chemscore.Hbond>
3.0973

> <Gold.Chemscore.Metal>
0.0000

> <Gold.Chemscore.Lipo>
107.9013

> <Gold.Chemscore.Internal_Hbond>
0.0000

> <Gold.Chemscore.DEClash>
3.2272

> <Gold.Chemscore.DEInternal>
2.3714

> <Gold.Chemscore.Rot>
1.6877

> <Gold.Chemscore.Internal.Correction>
   9.000000E+99

> <Gold.Chemscore.Hbonds>
donor molecule, donor type, donor heavy atom, donor atom, acceptor molecule, acceptor atom, score
      L1  H     2    53       P1  7948  0.89
      L1  H     7    54       P1 10175  1.00
      L1  H    15    44       P1  8028  0.94

> <Gold.Chemscore.Hbond.Weighted>
-10.3451

> <Gold.Chemscore.Metal.Weighted>
-0.0000

> <Gold.Chemscore.Lipo.Weighted>
-12.6245

> <Gold.Chemscore.Internal_Hbond.Weighted>
0.0000

> <Gold.Chemscore.DEClash.Weighted>
3.2272

> <Gold.Chemscore.DEInternal.Weighted>
2.3714

> <Gold.Chemscore.Rot.Weighted>
4.3205

> <Gold.Chemscore.Internal.Correction.Weighted>
   9.000000E+99

> <Gold.Protein.RotatedTorsions>
[ 6907 6896 6895 6894 ] final  165.44 input  -60.11 | X-H torsion
[ 7974 7965 7964 7962 ] final   47.89 input  175.53 | X-H torsion
[ 8008 7997 7996 7995 ] final  108.69 input   59.86 | X-H torsion
[ 10167 10162 10161 10158 ] final   50.35 input  -65.29 | X-H torsion
[ 10718 10713 10712 10709 ] final   79.61 input   66.30 | X-H torsion
[ 10763 10752 10751 10750 ] final  101.52 input  -60.55 | X-H torsion
[ 11005 11000 10999 10996 ] final   76.75 input  -57.11 | X-H torsion

> <Gold.Protein.ActiveResidues>
 VAL166  LYS551  ARG553  GLY616  TRP617  ASP618  TYR619  PRO620  LYS621  CYS622 
 ASP623  PHE694  ASN695  SER759  ASP760  ASP761  ALA762  ILE779  LEU786  VAL792 
 PHE793  MET794  SER795  GLU796  ALA797  LYS798  CYS799  TRP800  GLU811  SER814 

> <Gold.Protein.RotatedAtoms>
  151.8944  133.3523  159.3808 H   0  0  0  0  0  0  0  0  0  0  0  0  # atno 6907 bound_to 6896
  150.7095  134.4891  159.5516 H   0  0  0  0  0  0  0  0  0  0  0  0  # atno 6908 bound_to 6896
  152.2468  134.8174  160.0503 H   0  0  0  0  0  0  0  0  0  0  0  0  # atno 6909 bound_to 6896
  146.0256  139.4702  142.9870 H   0  0  0  0  0  0  0  0  0  0  0  0  # atno 7974 bound_to 7965
  156.1922  140.3072  155.9355 H   0  0  0  0  0  0  0  0  0  0  0  0  # atno 8008 bound_to 7997
  155.3147  140.0453  157.3053 H   0  0  0  0  0  0  0  0  0  0  0  0  # atno 8009 bound_to 7997
  154.5466  140.2278  155.8562 H   0  0  0  0  0  0  0  0  0  0  0  0  # atno 8010 bound_to 7997
  140.2734  144.3240  150.6284 H   0  0  0  0  0  0  0  0  0  0  0  0  # atno 10167 bound_to 10162
  157.6782  130.9922  150.1957 H   0  0  0  0  0  0  0  0  0  0  0  0  # atno 10718 bound_to 10713
  153.3278  135.4041  155.1470 H   0  0  0  0  0  0  0  0  0  0  0  0  # atno 10763 bound_to 10752
  154.8616  135.3603  154.5511 H   0  0  0  0  0  0  0  0  0  0  0  0  # atno 10764 bound_to 10752
  153.5948  135.7073  153.5467 H   0  0  0  0  0  0  0  0  0  0  0  0  # atno 10765 bound_to 10752
  139.9285  134.7626  156.1434 H   0  0  0  0  0  0  0  0  0  0  0  0  # atno 11005 bound_to 11000
  145.7124  141.0102  143.1446 LP  0  0  0  0  0  0  0  0  0  0  0  0  # atno 17320 bound_to 7965
  144.7008  139.8773  143.7445 LP  0  0  0  0  0  0  0  0  0  0  0  0  # atno 17321 bound_to 7965
  140.5871  143.2169  151.7321 LP  0  0  0  0  0  0  0  0  0  0  0  0  # atno 17342 bound_to 10162
  139.4982  144.3994  152.0197 LP  0  0  0  0  0  0  0  0  0  0  0  0  # atno 17343 bound_to 10162
  156.2659  130.3716  149.8082 LP  0  0  0  0  0  0  0  0  0  0  0  0  # atno 17370 bound_to 10713
  156.5813  130.8467  151.3383 LP  0  0  0  0  0  0  0  0  0  0  0  0  # atno 17371 bound_to 10713
  141.0858  133.6735  156.2433 LP  0  0  0  0  0  0  0  0  0  0  0  0  # atno 17394 bound_to 11000
  140.6269  134.5304  157.5555 LP  0  0  0  0  0  0  0  0  0  0  0  0  # atno 17395 bound_to 11000

$$$$
