AV-unprocessed.smi:671|AV-procd|sdf|3282|dock7
  -GOLD-   22720 0243D 1   1.00000     0.00000
 Structure written by MMmdl.
 50 51  0  0  0  0  0  0  0  0  2 V2000
  147.9833  141.3579  153.7902 C   0  0  0  0  0  0  0  0  0  0  0  0
  149.1295  141.2946  154.7431 C   0  0  0  0  0  0  0  0  0  0  0  0
  149.5181  142.3235  155.5432 N   0  3  0  0  0  0  0  0  0  0  0  0
  150.5823  141.9647  156.2758 N   0  0  0  0  0  0  0  0  0  0  0  0
  151.1674  142.9307  157.2060 C   0  0  0  0  0  0  0  0  0  0  0  0
  150.9390  140.6808  155.9909 C   0  0  0  0  0  0  0  0  0  0  0  0
  152.0899  139.9641  156.6188 C   0  0  0  0  0  0  0  0  0  0  0  0
  150.0198  140.2513  155.0250 C   0  0  0  0  0  0  0  0  0  0  0  0
  150.0002  138.8913  154.3857 C   0  0  0  0  0  0  0  0  0  0  0  0
  149.7467  137.7445  155.3910 C   0  0  1  0  0  0  0  0  0  0  0  0
  148.7047  138.1111  156.4593 C   0  0  0  0  0  0  0  0  0  0  0  0
  149.2957  136.5430  154.6847 N   0  0  0  0  0  0  0  0  0  0  0  0
  148.8783  135.3755  155.2084 C   0  0  0  0  0  0  0  0  0  0  0  0
  148.8299  135.1896  156.4224 O   0  0  0  0  0  0  0  0  0  0  0  0
  148.5248  134.4506  154.3006 N   0  0  0  0  0  0  0  0  0  0  0  0
  147.9947  133.1240  154.5994 C   0  0  2  0  0  0  0  0  0  0  0  0
  148.9633  132.3638  155.5246 C   0  0  0  0  0  0  0  0  0  0  0  0
  149.5958  131.2684  154.6669 C   0  0  0  0  0  0  0  0  0  0  0  0
  148.5107  130.9227  153.6532 C   0  0  0  0  0  0  0  0  0  0  0  0
  147.8652  132.2710  153.3156 C   0  0  1  0  0  0  0  0  0  0  0  0
  146.4254  132.1402  152.7992 C   0  0  0  0  0  0  0  0  0  0  0  0
  148.3414  141.2542  152.7656 H   0  0  0  0  0  0  0  0  0  0  0  0
  147.4595  142.3099  153.8805 H   0  0  0  0  0  0  0  0  0  0  0  0
  147.2762  140.5543  153.9947 H   0  0  0  0  0  0  0  0  0  0  0  0
  152.2412  142.9927  157.0275 H   0  0  0  0  0  0  0  0  0  0  0  0
  150.9855  142.5953  158.2273 H   0  0  0  0  0  0  0  0  0  0  0  0
  150.7197  143.9149  157.0604 H   0  0  0  0  0  0  0  0  0  0  0  0
  152.0146  138.8895  156.4575 H   0  0  0  0  0  0  0  0  0  0  0  0
  152.1115  140.1475  157.6932 H   0  0  0  0  0  0  0  0  0  0  0  0
  153.0280  140.3122  156.1867 H   0  0  0  0  0  0  0  0  0  0  0  0
  149.2457  138.8553  153.5989 H   0  0  0  0  0  0  0  0  0  0  0  0
  150.9499  138.7305  153.8745 H   0  0  0  0  0  0  0  0  0  0  0  0
  150.6743  137.5155  155.9176 H   0  0  0  0  0  0  0  0  0  0  0  0
  149.0300  138.9608  157.0594 H   0  0  0  0  0  0  0  0  0  0  0  0
  148.5372  137.2788  157.1438 H   0  0  0  0  0  0  0  0  0  0  0  0
  147.7458  138.3676  156.0081 H   0  0  0  0  0  0  0  0  0  0  0  0
  149.3256  136.5925  153.6761 H   0  0  0  0  0  0  0  0  0  0  0  0
  148.6094  134.6930  153.3248 H   0  0  0  0  0  0  0  0  0  0  0  0
  147.0326  133.2144  155.1075 H   0  0  0  0  0  0  0  0  0  0  0  0
  149.7142  133.0043  155.9900 H   0  0  0  0  0  0  0  0  0  0  0  0
  148.3953  131.9011  156.3330 H   0  0  0  0  0  0  0  0  0  0  0  0
  150.4714  131.6616  154.1494 H   0  0  0  0  0  0  0  0  0  0  0  0
  149.9137  130.4064  155.2539 H   0  0  0  0  0  0  0  0  0  0  0  0
  148.9062  130.4158  152.7725 H   0  0  0  0  0  0  0  0  0  0  0  0
  147.7798  130.2593  154.1179 H   0  0  0  0  0  0  0  0  0  0  0  0
  148.4688  132.7241  152.5266 H   0  0  0  0  0  0  0  0  0  0  0  0
  145.7765  131.6779  153.5437 H   0  0  0  0  0  0  0  0  0  0  0  0
  146.3879  131.5282  151.8977 H   0  0  0  0  0  0  0  0  0  0  0  0
  146.0076  133.1163  152.5534 H   0  0  0  0  0  0  0  0  0  0  0  0
  149.1158  143.2488  155.6225 H   0  0  0  0  0  0  0  0  0  0  0  0
  1  2  1  0  0  0  0
  1 22  1  0  0  0  0
  1 23  1  0  0  0  0
  1 24  1  0  0  0  0
  2  8  1  0  0  0  0
  2  3  2  0  0  0  0
  3  4  1  0  0  0  0
  3 50  1  0  0  0  0
  4  5  1  0  0  0  0
  4  6  1  0  0  0  0
  5 25  1  0  0  0  0
  5 26  1  0  0  0  0
  5 27  1  0  0  0  0
  6  7  1  0  0  0  0
  6  8  2  0  0  0  0
  7 28  1  0  0  0  0
  7 29  1  0  0  0  0
  7 30  1  0  0  0  0
  8  9  1  0  0  0  0
  9 10  1  0  0  0  0
  9 31  1  0  0  0  0
  9 32  1  0  0  0  0
 10 11  1  0  0  0  0
 10 12  1  0  0  0  0
 10 33  1  0  0  0  0
 11 34  1  0  0  0  0
 11 35  1  0  0  0  0
 11 36  1  0  0  0  0
 12 13  1  0  0  0  0
 12 37  1  0  0  0  0
 13 14  2  0  0  0  0
 13 15  1  0  0  0  0
 15 16  1  0  0  0  0
 15 38  1  0  0  0  0
 16 20  1  0  0  0  0
 16 17  1  0  0  0  0
 16 39  1  0  0  0  0
 17 18  1  0  0  0  0
 17 40  1  0  0  0  0
 17 41  1  0  0  0  0
 18 19  1  0  0  0  0
 18 42  1  0  0  0  0
 18 43  1  0  0  0  0
 19 20  1  0  0  0  0
 19 44  1  0  0  0  0
 19 45  1  0  0  0  0
 20 21  1  0  0  0  0
 20 46  1  0  0  0  0
 21 47  1  0  0  0  0
 21 48  1  0  0  0  0
 21 49  1  0  0  0  0
M  CHG  1   3   1
M  END
> <s_m_source_file>
AV-unprocessed.smi

> <i_m_source_file_index>
671

> <i_lp_mmshare_version>
43012

> <i_f3d_flags>
0

> <s_epik_input>
W0NIM11jMW5uKFtDSDNdKWMoW0NIM10pYzFbQ0gyXVtDQEhdKFtDSDNdKVtOSF1DKD1PKVtOSF1bQ0BASF0yW0NIMl1bQ0gyXVtDSDJdW0NASF0yW0NIM10=

> <s_epik_cmdline>
J2VwaWtfcHl0aG9uJywgJy1waCcsICc3LjAnLCAnLXRuJywgJzgnLCAnLW1hJywgJzIwMCcsICctbWV0YWxfYmluZGluZycsICctaW1hZScsICc8aW5maWxlLm1hZT4nLCAnLW9tYWUnLCAnPG91dGZpbGUubWFlPic=

> <r_lp_tautomer_probability>
1

> <r_epik_Ionization_Penalty>
2.28705

> <r_epik_Ionization_Penalty_Charging>
2.28698

> <r_epik_Ionization_Penalty_Neutral>
6.23157e-05

> <r_epik_State_Penalty>
2.43671

> <r_epik_Charging_Adjusted_Penalty>
4.72369

> <i_epik_Tot_Q>
1

> <i_epik_Tot_abs_Q>
1

> <r_epik_Metal_State_Penalty>
2.44911

> <b_epik_Metal_Only>
0

> <s_lp_Force_Field>
OPLS_2005

> <r_lp_Energy>
34.579

> <b_lp_Chiralities_Consistent>
1

> <s_lp_Variant>
AV-unprocessed.smi:671-10

> <Gold.Version>
5.8.1

> <Gold.Id.Protein>
6NUR|6NUR_protein|mol2

> <Gold.PLP.Fitness>
49.3676

> <Gold.PLP.PLP>
-38.0237

> <Gold.PLP.part.hbond>
-2.9731

> <Gold.PLP.part.metal>
0.0000

> <Gold.PLP.part.buried>
-2.5413

> <Gold.PLP.part.nonpolar>
-32.9718

> <Gold.PLP.part.repulsive>
0.2147

> <Gold.PLP.ligand.clash>
0.0000

> <Gold.PLP.ligand.torsion>
0.2828

> <Gold.PLP.Chemscore.Hbond>
3.9600

> <Gold.PLP.Chemscore.CHOScore>
0.0000

> <Gold.PLP.Chemscore.Metal>
0.0000

> <Gold.Chemscore.Hbonds>
donor molecule, donor type, donor heavy atom, donor atom, acceptor molecule, acceptor atom, score
      L1  H     3    50       P1  8028  1.79
      L1  H    12    37       P1  7948  1.00
      L1  H    15    38       P1  7948  0.78

> <Gold.PLP.Chemscore.Internal.Correction>
0.0294

> <Gold.Rescore>
     Score         DG    S(hbond)    S(metal)    S(lipo)     H(rot)  DE(clash)    DE(int)     intcor
     19.08     -20.64       2.84        0.00      81.44       1.51       0.03       1.54       ----

> <Gold.Chemscore.Fitness>
19.0754

> <Gold.Chemscore.DG>
-20.6379

> <Gold.Chemscore.ZeroCoef>
-5.4800

> <Gold.Chemscore.Hbond>
2.8397

> <Gold.Chemscore.Metal>
0.0000

> <Gold.Chemscore.Lipo>
81.4353

> <Gold.Chemscore.Internal_Hbond>
0.0000

> <Gold.Chemscore.DEClash>
0.0261

> <Gold.Chemscore.DEInternal>
1.5365

> <Gold.Chemscore.Rot>
1.5057

> <Gold.Chemscore.Internal.Correction>
   9.000000E+99

> <Gold.Chemscore.Hbonds>
donor molecule, donor type, donor heavy atom, donor atom, acceptor molecule, acceptor atom, score
      L1  H     3    50       P1  8028  0.86
      L1  H    12    37       P1  7948  0.92
      L1  H    15    38       P1  7948  0.33

> <Gold.Chemscore.Hbond.Weighted>
-9.4847

> <Gold.Chemscore.Metal.Weighted>
-0.0000

> <Gold.Chemscore.Lipo.Weighted>
-9.5279

> <Gold.Chemscore.Internal_Hbond.Weighted>
0.0000

> <Gold.Chemscore.DEClash.Weighted>
0.0261

> <Gold.Chemscore.DEInternal.Weighted>
1.5365

> <Gold.Chemscore.Rot.Weighted>
3.8547

> <Gold.Chemscore.Internal.Correction.Weighted>
   9.000000E+99

> <Gold.Protein.RotatedTorsions>
[ 6907 6896 6895 6894 ] final   17.07 input  -60.11 | X-H torsion
[ 7974 7965 7964 7962 ] final -163.03 input  175.53 | X-H torsion
[ 8008 7997 7996 7995 ] final   87.62 input   59.86 | X-H torsion
[ 10167 10162 10161 10158 ] final  -36.23 input  -65.29 | X-H torsion
[ 10718 10713 10712 10709 ] final   95.83 input   66.30 | X-H torsion
[ 10763 10752 10751 10750 ] final  -30.38 input  -60.55 | X-H torsion
[ 11005 11000 10999 10996 ] final   72.79 input  -57.11 | X-H torsion

> <Gold.Protein.ActiveResidues>
 VAL166  LYS551  ARG553  GLY616  TRP617  ASP618  TYR619  PRO620  LYS621  CYS622 
 ASP623  PHE694  ASN695  SER759  ASP760  ASP761  ALA762  ILE779  LEU786  VAL792 
 PHE793  MET794  SER795  GLU796  ALA797  LYS798  CYS799  TRP800  GLU811  SER814 

> <Gold.Protein.RotatedAtoms>
  151.8439  135.0581  160.0450 H   0  0  0  0  0  0  0  0  0  0  0  0  # atno 6907 bound_to 6896
  152.2788  133.5446  159.5493 H   0  0  0  0  0  0  0  0  0  0  0  0  # atno 6908 bound_to 6896
  150.7181  134.0510  159.3840 H   0  0  0  0  0  0  0  0  0  0  0  0  # atno 6909 bound_to 6896
  144.7339  140.3167  143.6178 H   0  0  0  0  0  0  0  0  0  0  0  0  # atno 7974 bound_to 7965
  155.9776  140.3380  155.6633 H   0  0  0  0  0  0  0  0  0  0  0  0  # atno 8008 bound_to 7997
  155.6591  140.0714  157.2578 H   0  0  0  0  0  0  0  0  0  0  0  0  # atno 8009 bound_to 7997
  154.4183  140.1712  156.1745 H   0  0  0  0  0  0  0  0  0  0  0  0  # atno 8010 bound_to 7997
  140.7147  143.3422  151.2332 H   0  0  0  0  0  0  0  0  0  0  0  0  # atno 10167 bound_to 10162
  157.6934  131.0558  150.4398 H   0  0  0  0  0  0  0  0  0  0  0  0  # atno 10718 bound_to 10713
  153.7801  135.6906  153.4890 H   0  0  0  0  0  0  0  0  0  0  0  0  # atno 10763 bound_to 10752
  153.1817  135.4504  155.0035 H   0  0  0  0  0  0  0  0  0  0  0  0  # atno 10764 bound_to 10752
  154.8085  135.3367  154.7304 H   0  0  0  0  0  0  0  0  0  0  0  0  # atno 10765 bound_to 10752
  139.9473  134.7290  156.0948 H   0  0  0  0  0  0  0  0  0  0  0  0  # atno 11005 bound_to 11000
  145.7610  139.1825  143.2267 LP  0  0  0  0  0  0  0  0  0  0  0  0  # atno 17320 bound_to 7965
  146.0986  140.7571  142.9560 LP  0  0  0  0  0  0  0  0  0  0  0  0  # atno 17321 bound_to 7965
  139.6933  143.9655  152.2870 LP  0  0  0  0  0  0  0  0  0  0  0  0  # atno 17342 bound_to 10162
  139.9324  144.6733  150.8349 LP  0  0  0  0  0  0  0  0  0  0  0  0  # atno 17343 bound_to 10162
  156.4758  130.4063  149.6491 LP  0  0  0  0  0  0  0  0  0  0  0  0  # atno 17370 bound_to 10713
  156.3555  130.7454  151.2419 LP  0  0  0  0  0  0  0  0  0  0  0  0  # atno 17371 bound_to 10713
  141.1127  133.6638  156.3017 LP  0  0  0  0  0  0  0  0  0  0  0  0  # atno 17394 bound_to 11000
  140.5804  134.5752  157.5478 LP  0  0  0  0  0  0  0  0  0  0  0  0  # atno 17395 bound_to 11000

$$$$
