AV-unprocessed.smi:1084|AV-procd|sdf|4718|dock7
  -GOLD-   22720 3243D 1   1.00000     0.00000
 Structure written by MMmdl.
 53 55  0  0  0  0  0  0  0  0  2 V2000
  148.8946  131.2470  153.9041 C   0  0  0  0  0  0  0  0  0  0  0  0
  148.4152  132.5485  153.2212 C   0  0  2  0  0  0  0  0  0  0  0  0
  148.0103  133.6086  154.2832 C   0  0  0  0  0  0  0  0  0  0  0  0
  148.7294  134.8718  154.1316 N   0  0  0  0  0  0  0  0  0  0  0  0
  149.1238  135.6718  155.1330 C   0  0  0  0  0  0  0  0  0  0  0  0
  148.9351  135.4120  156.3205 O   0  0  0  0  0  0  0  0  0  0  0  0
  149.7380  136.7685  154.6565 N   0  0  0  0  0  0  0  0  0  0  0  0
  150.3232  137.8590  155.3583 C   0  0  0  0  0  0  0  0  0  0  0  0
  151.1911  138.8225  154.7919 C   0  0  0  0  0  0  0  0  0  0  0  0
  151.6879  139.8573  155.6083 C   0  0  0  0  0  0  0  0  0  0  0  0
  151.3081  139.9111  156.9700 C   0  0  0  0  0  0  0  0  0  0  0  0
  151.7917  140.9431  157.8035 N   0  0  0  0  0  0  0  0  0  0  0  0
  150.9063  142.0736  158.0774 C   0  0  0  0  0  0  0  0  0  0  0  0
  151.6872  143.2169  158.7468 C   0  0  0  0  0  0  0  0  0  0  0  0
  152.3347  142.7321  159.9182 O   0  0  0  0  0  0  0  0  0  0  0  0
  153.2750  141.7065  159.6164 C   0  0  0  0  0  0  0  0  0  0  0  0
  152.5551  140.5093  158.9710 C   0  0  0  0  0  0  0  0  0  0  0  0
  150.4704  138.9910  157.5067 N   0  0  0  0  0  0  0  0  0  0  0  0
  149.9986  138.0003  156.7223 C   0  0  0  0  0  0  0  0  0  0  0  0
  147.3263  132.2377  152.2362 N   0  3  0  0  0  0  0  0  0  0  0  0
  146.1540  131.4956  152.7782 C   0  0  0  0  0  0  0  0  0  0  0  0
  145.1250  131.2012  151.6728 C   0  0  0  0  0  0  0  0  0  0  0  0
  144.7141  132.4140  151.0598 O   0  0  0  0  0  0  0  0  0  0  0  0
  145.8059  133.0787  150.4419 C   0  0  0  0  0  0  0  0  0  0  0  0
  146.8517  133.4464  151.5072 C   0  0  0  0  0  0  0  0  0  0  0  0
  149.7370  131.4265  154.5713 H   0  0  0  0  0  0  0  0  0  0  0  0
  149.2372  130.4979  153.1930 H   0  0  0  0  0  0  0  0  0  0  0  0
  148.0966  130.7987  154.4965 H   0  0  0  0  0  0  0  0  0  0  0  0
  149.2532  132.9681  152.6617 H   0  0  0  0  0  0  0  0  0  0  0  0
  146.9570  133.8697  154.1819 H   0  0  0  0  0  0  0  0  0  0  0  0
  148.1355  133.2056  155.2896 H   0  0  0  0  0  0  0  0  0  0  0  0
  148.9293  135.1671  153.1870 H   0  0  0  0  0  0  0  0  0  0  0  0
  149.7855  136.8396  153.6506 H   0  0  0  0  0  0  0  0  0  0  0  0
  151.4827  138.8049  153.7545 H   0  0  0  0  0  0  0  0  0  0  0  0
  152.3370  140.6045  155.1767 H   0  0  0  0  0  0  0  0  0  0  0  0
  150.4590  142.4365  157.1512 H   0  0  0  0  0  0  0  0  0  0  0  0
  150.0932  141.7471  158.7273 H   0  0  0  0  0  0  0  0  0  0  0  0
  152.4221  143.6408  158.0603 H   0  0  0  0  0  0  0  0  0  0  0  0
  151.0081  144.0235  159.0232 H   0  0  0  0  0  0  0  0  0  0  0  0
  154.0525  142.0942  158.9563 H   0  0  0  0  0  0  0  0  0  0  0  0
  153.7671  141.3950  160.5378 H   0  0  0  0  0  0  0  0  0  0  0  0
  151.8708  140.0558  159.6889 H   0  0  0  0  0  0  0  0  0  0  0  0
  153.2921  139.7501  158.7129 H   0  0  0  0  0  0  0  0  0  0  0  0
  149.3358  137.2958  157.2033 H   0  0  0  0  0  0  0  0  0  0  0  0
  146.4588  130.5379  153.1986 H   0  0  0  0  0  0  0  0  0  0  0  0
  145.6899  132.0750  153.5780 H   0  0  0  0  0  0  0  0  0  0  0  0
  145.5406  130.5237  150.9251 H   0  0  0  0  0  0  0  0  0  0  0  0
  144.2507  130.7071  152.0969 H   0  0  0  0  0  0  0  0  0  0  0  0
  146.2424  132.4507  149.6637 H   0  0  0  0  0  0  0  0  0  0  0  0
  145.4364  133.9800  149.9527 H   0  0  0  0  0  0  0  0  0  0  0  0
  146.4186  134.1530  152.2170 H   0  0  0  0  0  0  0  0  0  0  0  0
  147.6754  133.9603  151.0158 H   0  0  0  0  0  0  0  0  0  0  0  0
  147.7398  131.6243  151.5483 H   0  0  0  0  0  0  0  0  0  0  0  0
  1  2  1  0  0  0  0
  1 26  1  0  0  0  0
  1 27  1  0  0  0  0
  1 28  1  0  0  0  0
  2  3  1  0  0  0  0
  2 20  1  0  0  0  0
  2 29  1  0  0  0  0
  3  4  1  0  0  0  0
  3 30  1  0  0  0  0
  3 31  1  0  0  0  0
  4  5  1  0  0  0  0
  4 32  1  0  0  0  0
  5  6  2  0  0  0  0
  5  7  1  0  0  0  0
  7  8  1  0  0  0  0
  7 33  1  0  0  0  0
  8 19  1  0  0  0  0
  8  9  2  0  0  0  0
  9 10  1  0  0  0  0
  9 34  1  0  0  0  0
 10 11  2  0  0  0  0
 10 35  1  0  0  0  0
 11 12  1  0  0  0  0
 11 18  1  0  0  0  0
 12 17  1  0  0  0  0
 12 13  1  0  0  0  0
 13 14  1  0  0  0  0
 13 36  1  0  0  0  0
 13 37  1  0  0  0  0
 14 15  1  0  0  0  0
 14 38  1  0  0  0  0
 14 39  1  0  0  0  0
 15 16  1  0  0  0  0
 16 17  1  0  0  0  0
 16 40  1  0  0  0  0
 16 41  1  0  0  0  0
 17 42  1  0  0  0  0
 17 43  1  0  0  0  0
 18 19  2  0  0  0  0
 19 44  1  0  0  0  0
 20 25  1  0  0  0  0
 20 21  1  0  0  0  0
 20 53  1  0  0  0  0
 21 22  1  0  0  0  0
 21 45  1  0  0  0  0
 21 46  1  0  0  0  0
 22 23  1  0  0  0  0
 22 47  1  0  0  0  0
 22 48  1  0  0  0  0
 23 24  1  0  0  0  0
 24 25  1  0  0  0  0
 24 49  1  0  0  0  0
 24 50  1  0  0  0  0
 25 51  1  0  0  0  0
 25 52  1  0  0  0  0
M  CHG  1  20   1
M  END
> <s_m_source_file>
AV-unprocessed.smi

> <i_m_source_file_index>
1084

> <i_lp_mmshare_version>
43012

> <i_f3d_flags>
0

> <s_epik_input>
W0NIMl0xW0NIMl1PW0NIMl1bQ0gyXU4xW0NASF0oW0NIM10pW0NIMl1bTkhdQyg9TylbTkhdYzJbY0hdW2NIXWMobltjSF0yKU4zW0NIMl1bQ0gyXU9bQ0gyXVtDSDJdMw==

> <s_epik_cmdline>
J2VwaWtfcHl0aG9uJywgJy1waCcsICc3LjAnLCAnLXRuJywgJzgnLCAnLW1hJywgJzIwMCcsICctbWV0YWxfYmluZGluZycsICctaW1hZScsICc8aW5maWxlLm1hZT4nLCAnLW9tYWUnLCAnPG91dGZpbGUubWFlPic=

> <r_lp_tautomer_probability>
1

> <r_epik_Ionization_Penalty>
0.604236

> <r_epik_Ionization_Penalty_Charging>
0.602531

> <r_epik_Ionization_Penalty_Neutral>
0.00170595

> <r_epik_State_Penalty>
0.59929

> <r_epik_Charging_Adjusted_Penalty>
1.20182

> <i_epik_Tot_Q>
1

> <i_epik_Tot_abs_Q>
1

> <r_epik_Metal_State_Penalty>
0.598238

> <b_epik_Metal_Only>
0

> <s_lp_Force_Field>
OPLS_2005

> <r_lp_Energy>
38.6371

> <b_lp_Chiralities_Consistent>
1

> <s_lp_Variant>
AV-unprocessed.smi:1084-3

> <Gold.Version>
5.8.1

> <Gold.Id.Protein>
6NUR|6NUR_protein|mol2

> <Gold.PLP.Fitness>
47.8830

> <Gold.PLP.PLP>
-41.6057

> <Gold.PLP.part.hbond>
-3.0000

> <Gold.PLP.part.metal>
0.0000

> <Gold.PLP.part.buried>
-6.7063

> <Gold.PLP.part.nonpolar>
-32.4354

> <Gold.PLP.part.repulsive>
0.1721

> <Gold.PLP.ligand.clash>
0.0000

> <Gold.PLP.ligand.torsion>
1.2574

> <Gold.PLP.Chemscore.Hbond>
2.7882

> <Gold.PLP.Chemscore.CHOScore>
0.0000

> <Gold.PLP.Chemscore.Metal>
0.0000

> <Gold.Chemscore.Hbonds>
donor molecule, donor type, donor heavy atom, donor atom, acceptor molecule, acceptor atom, score
      L1  H     4    32       P1  7948  1.00
      L1  H     7    33       P1  7948  0.93
      L1  H    20    53       P1 10747  1.00

> <Gold.PLP.Chemscore.Internal.Correction>
0.4275

> <Gold.Rescore>
     Score         DG    S(hbond)    S(metal)    S(lipo)     H(rot)  DE(clash)    DE(int)     intcor
     19.07     -21.59       2.82        0.00      93.84       1.68       0.02       2.49       ----

> <Gold.Chemscore.Fitness>
19.0726

> <Gold.Chemscore.DG>
-21.5878

> <Gold.Chemscore.ZeroCoef>
-5.4800

> <Gold.Chemscore.Hbond>
2.8231

> <Gold.Chemscore.Metal>
0.0000

> <Gold.Chemscore.Lipo>
93.8412

> <Gold.Chemscore.Internal_Hbond>
0.0000

> <Gold.Chemscore.DEClash>
0.0239

> <Gold.Chemscore.DEInternal>
2.4913

> <Gold.Chemscore.Rot>
1.6800

> <Gold.Chemscore.Internal.Correction>
   9.000000E+99

> <Gold.Chemscore.Hbonds>
donor molecule, donor type, donor heavy atom, donor atom, acceptor molecule, acceptor atom, score
      L1  H     4    32       P1  7948  0.39
      L1  H     7    33       P1  7948  0.47
      L1  H    20    53       P1 10747  0.99

> <Gold.Chemscore.Hbond.Weighted>
-9.4290

> <Gold.Chemscore.Metal.Weighted>
-0.0000

> <Gold.Chemscore.Lipo.Weighted>
-10.9794

> <Gold.Chemscore.Internal_Hbond.Weighted>
0.0000

> <Gold.Chemscore.DEClash.Weighted>
0.0239

> <Gold.Chemscore.DEInternal.Weighted>
2.4913

> <Gold.Chemscore.Rot.Weighted>
4.3007

> <Gold.Chemscore.Internal.Correction.Weighted>
   9.000000E+99

> <Gold.Protein.RotatedTorsions>
[ 6907 6896 6895 6894 ] final  -95.01 input  -60.11 | X-H torsion
[ 7974 7965 7964 7962 ] final   28.63 input  175.53 | X-H torsion
[ 8008 7997 7996 7995 ] final   -4.64 input   59.86 | X-H torsion
[ 10167 10162 10161 10158 ] final  -20.07 input  -65.29 | X-H torsion
[ 10718 10713 10712 10709 ] final -144.02 input   66.30 | X-H torsion
[ 10763 10752 10751 10750 ] final  139.21 input  -60.55 | X-H torsion
[ 11005 11000 10999 10996 ] final   19.36 input  -57.11 | X-H torsion

> <Gold.Protein.ActiveResidues>
 VAL166  LYS551  ARG553  GLY616  TRP617  ASP618  TYR619  PRO620  LYS621  CYS622 
 ASP623  PHE694  ASN695  SER759  ASP760  ASP761  ALA762  ILE779  LEU786  VAL792 
 PHE793  MET794  SER795  GLU796  ALA797  LYS798  CYS799  TRP800  GLU811  SER814 

> <Gold.Protein.RotatedAtoms>
  150.6954  134.1723  159.4216 H   0  0  0  0  0  0  0  0  0  0  0  0  # atno 6907 bound_to 6896
  151.9701  135.0079  160.0561 H   0  0  0  0  0  0  0  0  0  0  0  0  # atno 6908 bound_to 6896
  152.1849  133.4698  159.5014 H   0  0  0  0  0  0  0  0  0  0  0  0  # atno 6909 bound_to 6896
  146.1718  139.7030  142.8962 H   0  0  0  0  0  0  0  0  0  0  0  0  # atno 7974 bound_to 7965
  154.6121  140.2478  155.7655 H   0  0  0  0  0  0  0  0  0  0  0  0  # atno 8008 bound_to 7997
  156.2377  140.2944  156.0308 H   0  0  0  0  0  0  0  0  0  0  0  0  # atno 8009 bound_to 7997
  155.2034  140.0395  157.2911 H   0  0  0  0  0  0  0  0  0  0  0  0  # atno 8010 bound_to 7997
  140.7273  143.4758  151.0185 H   0  0  0  0  0  0  0  0  0  0  0  0  # atno 10167 bound_to 10162
  156.3650  130.7758  151.1931 H   0  0  0  0  0  0  0  0  0  0  0  0  # atno 10718 bound_to 10713
  153.9024  135.3020  155.3448 H   0  0  0  0  0  0  0  0  0  0  0  0  # atno 10763 bound_to 10752
  154.7664  135.4908  153.9565 H   0  0  0  0  0  0  0  0  0  0  0  0  # atno 10764 bound_to 10752
  153.1237  135.6788  153.9392 H   0  0  0  0  0  0  0  0  0  0  0  0  # atno 10765 bound_to 10752
  140.4145  134.1583  155.7669 H   0  0  0  0  0  0  0  0  0  0  0  0  # atno 11005 bound_to 11000
  145.4320  141.0416  143.2905 LP  0  0  0  0  0  0  0  0  0  0  0  0  # atno 17320 bound_to 7965
  144.8175  139.5851  143.7002 LP  0  0  0  0  0  0  0  0  0  0  0  0  # atno 17321 bound_to 7965
  139.8453  143.7510  152.3179 LP  0  0  0  0  0  0  0  0  0  0  0  0  # atno 17342 bound_to 10162
  139.7673  144.7488  151.0276 LP  0  0  0  0  0  0  0  0  0  0  0  0  # atno 17343 bound_to 10162
  157.7478  131.0389  150.4525 LP  0  0  0  0  0  0  0  0  0  0  0  0  # atno 17370 bound_to 10713
  156.4742  130.4059  149.6500 LP  0  0  0  0  0  0  0  0  0  0  0  0  # atno 17371 bound_to 10713
  141.1808  133.8418  157.1264 LP  0  0  0  0  0  0  0  0  0  0  0  0  # atno 17394 bound_to 11000
  140.0243  134.9931  157.0655 LP  0  0  0  0  0  0  0  0  0  0  0  0  # atno 17395 bound_to 11000

$$$$
