AV-unprocessed.smi:1952|AV-procd|sdf|7884|dock7
  -GOLD-   2272010 33D 1   1.00000     0.00000
 Structure written by MMmdl.
 39 40  0  0  0  0  0  0  0  0  1 V2000
  152.4452  142.8539  162.2083 C   0  0  0  0  0  0  0  0  0  0  0  0
  151.7266  143.2963  160.9799 C   0  0  0  0  0  0  0  0  0  0  0  0
  151.2569  142.6270  159.8849 C   0  0  0  0  0  0  0  0  0  0  0  0
  150.6794  143.6612  159.1013 C   0  0  0  0  0  0  0  0  0  0  0  0
  150.0706  143.3739  157.8532 N   0  0  0  0  0  0  0  0  0  0  0  0
  149.7267  142.1691  157.3675 C   0  0  0  0  0  0  0  0  0  0  0  0
  149.8950  141.0972  157.9498 O   0  0  0  0  0  0  0  0  0  0  0  0
  149.1745  142.2777  156.1495 N   0  0  0  0  0  0  0  0  0  0  0  0
  148.7167  141.1674  155.3153 C   0  0  1  0  0  0  0  0  0  0  0  0
  147.6183  141.6723  154.3702 C   0  0  0  0  0  0  0  0  0  0  0  0
  149.9004  140.5707  154.5233 C   0  0  0  0  0  0  0  0  0  0  0  0
  150.6091  139.4692  155.1765 N   0  0  0  0  0  0  0  0  0  0  0  0
  150.2894  138.1677  154.5931 C   0  0  0  0  0  0  0  0  0  0  0  0
  151.0547  137.0272  155.2860 C   0  0  0  0  0  0  0  0  0  0  0  0
  152.4543  137.2827  155.2235 O   0  0  0  0  0  0  0  0  0  0  0  0
  152.8128  138.5244  155.8210 C   0  0  0  0  0  0  0  0  0  0  0  0
  152.0531  139.6675  155.1263 C   0  0  0  0  0  0  0  0  0  0  0  0
  150.7864  144.8538  159.6670 N   0  0  0  0  0  0  0  0  0  0  0  0
  151.4585  144.6260  160.8736 O   0  0  0  0  0  0  0  0  0  0  0  0
  152.5318  141.7676  162.2394 H   0  0  0  0  0  0  0  0  0  0  0  0
  151.9144  143.1762  163.1042 H   0  0  0  0  0  0  0  0  0  0  0  0
  153.4505  143.2742  162.2398 H   0  0  0  0  0  0  0  0  0  0  0  0
  151.3184  141.5684  159.6806 H   0  0  0  0  0  0  0  0  0  0  0  0
  149.8799  144.1714  157.2652 H   0  0  0  0  0  0  0  0  0  0  0  0
  149.0810  143.2024  155.7560 H   0  0  0  0  0  0  0  0  0  0  0  0
  148.2619  140.3935  155.9344 H   0  0  0  0  0  0  0  0  0  0  0  0
  147.2340  140.8623  153.7497 H   0  0  0  0  0  0  0  0  0  0  0  0
  147.9912  142.4522  153.7052 H   0  0  0  0  0  0  0  0  0  0  0  0
  146.7774  142.0844  154.9292 H   0  0  0  0  0  0  0  0  0  0  0  0
  149.5506  140.2427  153.5431 H   0  0  0  0  0  0  0  0  0  0  0  0
  150.6082  141.3780  154.3280 H   0  0  0  0  0  0  0  0  0  0  0  0
  149.2221  137.9652  154.6707 H   0  0  0  0  0  0  0  0  0  0  0  0
  150.5300  138.1693  153.5290 H   0  0  0  0  0  0  0  0  0  0  0  0
  150.7410  136.9294  156.3267 H   0  0  0  0  0  0  0  0  0  0  0  0
  150.8430  136.0763  154.7967 H   0  0  0  0  0  0  0  0  0  0  0  0
  152.5853  138.5018  156.8880 H   0  0  0  0  0  0  0  0  0  0  0  0
  153.8888  138.6700  155.7251 H   0  0  0  0  0  0  0  0  0  0  0  0
  152.3811  139.7402  154.0881 H   0  0  0  0  0  0  0  0  0  0  0  0
  152.3142  140.6130  155.6030 H   0  0  0  0  0  0  0  0  0  0  0  0
  1  2  1  0  0  0  0
  1 20  1  0  0  0  0
  1 21  1  0  0  0  0
  1 22  1  0  0  0  0
  2 19  1  0  0  0  0
  2  3  2  0  0  0  0
  3  4  1  0  0  0  0
  3 23  1  0  0  0  0
  4  5  1  0  0  0  0
  4 18  2  0  0  0  0
  5  6  1  0  0  0  0
  5 24  1  0  0  0  0
  6  7  2  0  0  0  0
  6  8  1  0  0  0  0
  8  9  1  0  0  0  0
  8 25  1  0  0  0  0
  9 10  1  0  0  0  0
  9 11  1  0  0  0  0
  9 26  1  0  0  0  0
 10 27  1  0  0  0  0
 10 28  1  0  0  0  0
 10 29  1  0  0  0  0
 11 12  1  0  0  0  0
 11 30  1  0  0  0  0
 11 31  1  0  0  0  0
 12 17  1  0  0  0  0
 12 13  1  0  0  0  0
 13 14  1  0  0  0  0
 13 32  1  0  0  0  0
 13 33  1  0  0  0  0
 14 15  1  0  0  0  0
 14 34  1  0  0  0  0
 14 35  1  0  0  0  0
 15 16  1  0  0  0  0
 16 17  1  0  0  0  0
 16 36  1  0  0  0  0
 16 37  1  0  0  0  0
 17 38  1  0  0  0  0
 17 39  1  0  0  0  0
 18 19  1  0  0  0  0
M  END
> <s_m_source_file>
AV-unprocessed.smi

> <i_m_source_file_index>
1952

> <i_lp_mmshare_version>
43012

> <i_f3d_flags>
0

> <s_epik_input>
W0NIM11jMVtjSF1jKG5vMSlbTkhdQyg9TylbTkhdW0NASF0oW0NIM10pW0NIMl1OMltDSDJdW0NIMl1PW0NIMl1bQ0gyXTI=

> <s_epik_cmdline>
J2VwaWtfcHl0aG9uJywgJy1waCcsICc3LjAnLCAnLXRuJywgJzgnLCAnLW1hJywgJzIwMCcsICctbWV0YWxfYmluZGluZycsICctaW1hZScsICc8aW5maWxlLm1hZT4nLCAnLW9tYWUnLCAnPG91dGZpbGUubWFlPic=

> <r_epik_Ionization_Penalty>
0.214075

> <r_epik_Ionization_Penalty_Charging>
0

> <r_epik_Ionization_Penalty_Neutral>
0.214075

> <r_epik_State_Penalty>
0.204211

> <r_epik_Charging_Adjusted_Penalty>
0.204211

> <i_epik_Tot_Q>
0

> <i_epik_Tot_abs_Q>
0

> <r_epik_Metal_State_Penalty>
0.218782

> <b_epik_Metal_Only>
0

> <s_lp_Force_Field>
OPLS_2005

> <r_lp_Energy>
23.1471

> <b_lp_Chiralities_Consistent>
1

> <s_lp_Variant>
AV-unprocessed.smi:1952-2

> <Gold.Version>
5.8.1

> <Gold.Id.Protein>
6NUR|6NUR_protein|mol2

> <Gold.PLP.Fitness>
39.7324

> <Gold.PLP.PLP>
-34.2458

> <Gold.PLP.part.hbond>
-3.0000

> <Gold.PLP.part.metal>
0.0000

> <Gold.PLP.part.buried>
-3.3866

> <Gold.PLP.part.nonpolar>
-28.5895

> <Gold.PLP.part.repulsive>
0.4844

> <Gold.PLP.ligand.clash>
0.0000

> <Gold.PLP.ligand.torsion>
1.4445

> <Gold.PLP.Chemscore.Hbond>
2.7840

> <Gold.PLP.Chemscore.CHOScore>
0.0000

> <Gold.PLP.Chemscore.Metal>
0.0000

> <Gold.Chemscore.Hbonds>
donor molecule, donor type, donor heavy atom, donor atom, acceptor molecule, acceptor atom, score
      L1  H     5    24       P1  8028  0.88
      L1  H     8    25       P1  8028  1.00
      P1  H 10752 10765       L1    15  0.60

> <Gold.PLP.Chemscore.Internal.Correction>
0.0236

> <Gold.Rescore>
     Score         DG    S(hbond)    S(metal)    S(lipo)     H(rot)  DE(clash)    DE(int)     intcor
     16.77     -19.75       2.80        0.00      76.26       1.56       0.06       2.92       ----

> <Gold.Chemscore.Fitness>
16.7688

> <Gold.Chemscore.DG>
-19.7546

> <Gold.Chemscore.ZeroCoef>
-5.4800

> <Gold.Chemscore.Hbond>
2.7978

> <Gold.Chemscore.Metal>
0.0000

> <Gold.Chemscore.Lipo>
76.2631

> <Gold.Chemscore.Internal_Hbond>
0.0000

> <Gold.Chemscore.DEClash>
0.0643

> <Gold.Chemscore.DEInternal>
2.9215

> <Gold.Chemscore.Rot>
1.5597

> <Gold.Chemscore.Internal.Correction>
   9.000000E+99

> <Gold.Chemscore.Hbonds>
donor molecule, donor type, donor heavy atom, donor atom, acceptor molecule, acceptor atom, score
      L1  H     5    24       P1  8028  0.52
      L1  H     8    25       P1  8028  0.93
      P1  H 10752 10765       L1    15  0.12

> <Gold.Chemscore.Hbond.Weighted>
-9.3446

> <Gold.Chemscore.Metal.Weighted>
-0.0000

> <Gold.Chemscore.Lipo.Weighted>
-8.9228

> <Gold.Chemscore.Internal_Hbond.Weighted>
0.0000

> <Gold.Chemscore.DEClash.Weighted>
0.0643

> <Gold.Chemscore.DEInternal.Weighted>
2.9215

> <Gold.Chemscore.Rot.Weighted>
3.9928

> <Gold.Chemscore.Internal.Correction.Weighted>
   9.000000E+99

> <Gold.Protein.RotatedTorsions>
[ 6907 6896 6895 6894 ] final  -75.00 input  -60.11 | X-H torsion
[ 7974 7965 7964 7962 ] final   61.48 input  175.53 | X-H torsion
[ 8008 7997 7996 7995 ] final  -26.59 input   59.86 | X-H torsion
[ 10167 10162 10161 10158 ] final  159.77 input  -65.29 | X-H torsion
[ 10718 10713 10712 10709 ] final   13.53 input   66.30 | X-H torsion
[ 10763 10752 10751 10750 ] final -177.94 input  -60.55 | X-H torsion
[ 11005 11000 10999 10996 ] final  -84.71 input  -57.11 | X-H torsion

> <Gold.Protein.ActiveResidues>
 VAL166  LYS551  ARG553  GLY616  TRP617  ASP618  TYR619  PRO620  LYS621  CYS622 
 ASP623  PHE694  ASN695  SER759  ASP760  ASP761  ALA762  ILE779  LEU786  VAL792 
 PHE793  MET794  SER795  GLU796  ALA797  LYS798  CYS799  TRP800  GLU811  SER814 

> <Gold.Protein.RotatedAtoms>
  150.7073  134.4785  159.5458 H   0  0  0  0  0  0  0  0  0  0  0  0  # atno 6907 bound_to 6896
  152.2427  134.8209  160.0467 H   0  0  0  0  0  0  0  0  0  0  0  0  # atno 6908 bound_to 6896
  151.8985  133.3497  159.3859 H   0  0  0  0  0  0  0  0  0  0  0  0  # atno 6909 bound_to 6896
  145.8842  139.3465  143.0688 H   0  0  0  0  0  0  0  0  0  0  0  0  # atno 7974 bound_to 7965
  154.4418  140.1895  156.0798 H   0  0  0  0  0  0  0  0  0  0  0  0  # atno 8008 bound_to 7997
  156.0447  140.3315  155.7257 H   0  0  0  0  0  0  0  0  0  0  0  0  # atno 8009 bound_to 7997
  155.5647  140.0607  157.2811 H   0  0  0  0  0  0  0  0  0  0  0  0  # atno 8010 bound_to 7997
  139.4835  144.4698  151.8592 H   0  0  0  0  0  0  0  0  0  0  0  0  # atno 10167 bound_to 10162
  157.0259  130.6173  149.5728 H   0  0  0  0  0  0  0  0  0  0  0  0  # atno 10718 bound_to 10713
  154.5539  135.2815  155.0983 H   0  0  0  0  0  0  0  0  0  0  0  0  # atno 10763 bound_to 10752
  154.2418  135.6355  153.5213 H   0  0  0  0  0  0  0  0  0  0  0  0  # atno 10764 bound_to 10752
  153.0010  135.5562  154.6113 H   0  0  0  0  0  0  0  0  0  0  0  0  # atno 10765 bound_to 10752
  141.1648  133.7360  156.8907 H   0  0  0  0  0  0  0  0  0  0  0  0  # atno 11005 bound_to 11000
  145.8987  140.9257  143.0514 LP  0  0  0  0  0  0  0  0  0  0  0  0  # atno 17320 bound_to 7965
  144.6728  140.1003  143.7461 LP  0  0  0  0  0  0  0  0  0  0  0  0  # atno 17321 bound_to 7965
  140.4166  144.2299  150.5887 LP  0  0  0  0  0  0  0  0  0  0  0  0  # atno 17342 bound_to 10162
  140.4915  143.2346  151.8812 LP  0  0  0  0  0  0  0  0  0  0  0  0  # atno 17343 bound_to 10162
  156.0086  130.5175  150.7913 LP  0  0  0  0  0  0  0  0  0  0  0  0  # atno 17370 bound_to 10713
  157.5214  131.0931  151.0073 LP  0  0  0  0  0  0  0  0  0  0  0  0  # atno 17371 bound_to 10713
  140.1650  134.9139  157.2763 LP  0  0  0  0  0  0  0  0  0  0  0  0  # atno 17394 bound_to 11000
  140.2567  134.3619  155.7421 LP  0  0  0  0  0  0  0  0  0  0  0  0  # atno 17395 bound_to 11000

$$$$
