AV-unprocessed.smi:1966|AV-procd|sdf|7953|dock9
  -GOLD-   2272010123D 1   1.00000     0.00000
 Structure written by MMmdl.
 53 54  0  0  0  0  0  0  0  0  1 V2000
  148.2006  127.8832  151.6758 C   0  0  0  0  0  0  0  0  0  0  0  0
  147.0251  128.7339  152.1436 C   0  0  0  0  0  0  0  0  0  0  0  0
  146.1075  128.2236  152.7857 O   0  0  0  0  0  0  0  0  0  0  0  0
  147.0666  130.0340  151.8125 N   0  0  0  0  0  0  0  0  0  0  0  0
  146.0586  131.0359  152.1674 C   0  0  1  0  0  0  0  0  0  0  0  0
  146.7657  132.2621  152.7786 C   0  0  0  0  0  0  0  0  0  0  0  0
  146.2638  133.3809  152.6633 O   0  0  0  0  0  0  0  0  0  0  0  0
  147.9223  132.0036  153.4171 N   0  0  0  0  0  0  0  0  0  0  0  0
  148.7941  132.9006  154.0922 C   0  0  0  0  0  0  0  0  0  0  0  0
  149.8376  132.5071  154.9621 C   0  0  0  0  0  0  0  0  0  0  0  0
  150.6440  133.4991  155.5525 C   0  0  0  0  0  0  0  0  0  0  0  0
  150.3976  134.8598  155.2560 C   0  0  0  0  0  0  0  0  0  0  0  0
  151.1993  135.8660  155.8356 N   0  0  0  0  0  0  0  0  0  0  0  0
  151.1061  137.2184  155.2938 C   0  0  0  0  0  0  0  0  0  0  0  0
  152.2805  138.0771  155.7958 C   0  0  1  0  0  0  0  0  0  0  0  0
  152.1507  139.5381  155.3528 C   0  0  0  0  0  0  0  0  0  0  0  0
  152.3176  138.0479  157.2221 O   0  0  0  0  0  0  0  0  0  0  0  0
  152.4366  136.7418  157.7914 C   0  0  2  0  0  0  0  0  0  0  0  0
  153.8359  136.1383  157.5750 C   0  0  0  0  0  0  0  0  0  0  0  0
  151.2947  135.8343  157.2923 C   0  0  0  0  0  0  0  0  0  0  0  0
  149.4070  135.2327  154.4095 N   0  0  0  0  0  0  0  0  0  0  0  0
  148.6348  134.2792  153.8485 C   0  0  0  0  0  0  0  0  0  0  0  0
  145.2866  131.4479  150.8789 C   0  0  0  0  0  0  0  0  0  0  0  0
  146.1862  132.1125  149.8158 C   0  0  0  0  0  0  0  0  0  0  0  0
  144.1063  132.3874  151.1964 C   0  0  0  0  0  0  0  0  0  0  0  0
  149.1393  128.2875  152.0556 H   0  0  0  0  0  0  0  0  0  0  0  0
  148.2463  127.8655  150.5866 H   0  0  0  0  0  0  0  0  0  0  0  0
  148.1024  126.8566  152.0308 H   0  0  0  0  0  0  0  0  0  0  0  0
  147.8643  130.3626  151.2882 H   0  0  0  0  0  0  0  0  0  0  0  0
  145.3576  130.6105  152.8889 H   0  0  0  0  0  0  0  0  0  0  0  0
  148.2421  131.0469  153.3709 H   0  0  0  0  0  0  0  0  0  0  0  0
  150.0505  131.4721  155.1771 H   0  0  0  0  0  0  0  0  0  0  0  0
  151.4515  133.2057  156.2069 H   0  0  0  0  0  0  0  0  0  0  0  0
  151.1209  137.1893  154.2034 H   0  0  0  0  0  0  0  0  0  0  0  0
  150.1562  137.6618  155.5963 H   0  0  0  0  0  0  0  0  0  0  0  0
  153.2165  137.6864  155.3962 H   0  0  0  0  0  0  0  0  0  0  0  0
  152.1284  139.6180  154.2656 H   0  0  0  0  0  0  0  0  0  0  0  0
  152.9926  140.1304  155.7119 H   0  0  0  0  0  0  0  0  0  0  0  0
  151.2367  139.9889  155.7408 H   0  0  0  0  0  0  0  0  0  0  0  0
  152.3119  136.8690  158.8670 H   0  0  0  0  0  0  0  0  0  0  0  0
  153.9478  135.2127  158.1401 H   0  0  0  0  0  0  0  0  0  0  0  0
  154.6123  136.8255  157.9115 H   0  0  0  0  0  0  0  0  0  0  0  0
  154.0269  135.9019  156.5285 H   0  0  0  0  0  0  0  0  0  0  0  0
  150.3461  136.1847  157.7013 H   0  0  0  0  0  0  0  0  0  0  0  0
  151.4417  134.8234  157.6710 H   0  0  0  0  0  0  0  0  0  0  0  0
  147.8614  134.6318  153.1815 H   0  0  0  0  0  0  0  0  0  0  0  0
  144.8656  130.5478  150.4267 H   0  0  0  0  0  0  0  0  0  0  0  0
  146.6890  132.9925  150.2180 H   0  0  0  0  0  0  0  0  0  0  0  0
  145.6015  132.4322  148.9530 H   0  0  0  0  0  0  0  0  0  0  0  0
  146.9510  131.4329  149.4399 H   0  0  0  0  0  0  0  0  0  0  0  0
  144.4500  133.3009  151.6823 H   0  0  0  0  0  0  0  0  0  0  0  0
  143.3737  131.9174  151.8527 H   0  0  0  0  0  0  0  0  0  0  0  0
  143.5774  132.6752  150.2873 H   0  0  0  0  0  0  0  0  0  0  0  0
  1  2  1  0  0  0  0
  1 26  1  0  0  0  0
  1 27  1  0  0  0  0
  1 28  1  0  0  0  0
  2  3  2  0  0  0  0
  2  4  1  0  0  0  0
  4  5  1  0  0  0  0
  4 29  1  0  0  0  0
  5  6  1  0  0  0  0
  5 23  1  0  0  0  0
  5 30  1  0  0  0  0
  6  7  2  0  0  0  0
  6  8  1  0  0  0  0
  8  9  1  0  0  0  0
  8 31  1  0  0  0  0
  9 22  1  0  0  0  0
  9 10  2  0  0  0  0
 10 11  1  0  0  0  0
 10 32  1  0  0  0  0
 11 12  2  0  0  0  0
 11 33  1  0  0  0  0
 12 13  1  0  0  0  0
 12 21  1  0  0  0  0
 13 20  1  0  0  0  0
 13 14  1  0  0  0  0
 14 15  1  0  0  0  0
 14 34  1  0  0  0  0
 14 35  1  0  0  0  0
 15 16  1  0  0  0  0
 15 17  1  0  0  0  0
 15 36  1  0  0  0  0
 16 37  1  0  0  0  0
 16 38  1  0  0  0  0
 16 39  1  0  0  0  0
 17 18  1  0  0  0  0
 18 19  1  0  0  0  0
 18 20  1  0  0  0  0
 18 40  1  0  0  0  0
 19 41  1  0  0  0  0
 19 42  1  0  0  0  0
 19 43  1  0  0  0  0
 20 44  1  0  0  0  0
 20 45  1  0  0  0  0
 21 22  2  0  0  0  0
 22 46  1  0  0  0  0
 23 24  1  0  0  0  0
 23 25  1  0  0  0  0
 23 47  1  0  0  0  0
 24 48  1  0  0  0  0
 24 49  1  0  0  0  0
 24 50  1  0  0  0  0
 25 51  1  0  0  0  0
 25 52  1  0  0  0  0
 25 53  1  0  0  0  0
M  END
> <s_m_source_file>
AV-unprocessed.smi

> <i_m_source_file_index>
1966

> <i_lp_mmshare_version>
43012

> <i_f3d_flags>
0

> <s_epik_input>
W0NIM11DKD1PKVtOSF1bQ0BASF0oW0NIXShbQ0gzXSlbQ0gzXSlDKD1PKVtOSF1jMVtjSF1bY0hdYyhuW2NIXTEpTjJbQ0gyXVtDQEBIXShbQ0gzXSlPW0NAQEhdKFtDSDNdKVtDSDJdMg==

> <s_epik_cmdline>
J2VwaWtfcHl0aG9uJywgJy1waCcsICc3LjAnLCAnLXRuJywgJzgnLCAnLW1hJywgJzIwMCcsICctbWV0YWxfYmluZGluZycsICctaW1hZScsICc8aW5maWxlLm1hZT4nLCAnLW9tYWUnLCAnPG91dGZpbGUubWFlPic=

> <r_lp_tautomer_probability>
1

> <r_epik_Ionization_Penalty>
0.000679699

> <r_epik_Ionization_Penalty_Charging>
0

> <r_epik_Ionization_Penalty_Neutral>
0.000679699

> <r_epik_State_Penalty>
0.000430485

> <r_epik_Charging_Adjusted_Penalty>
0.000430485

> <i_epik_Tot_Q>
0

> <i_epik_Tot_abs_Q>
0

> <r_epik_Metal_State_Penalty>
-0

> <b_epik_Metal_Only>
0

> <s_lp_Force_Field>
OPLS_2005

> <r_lp_Energy>
28.3815

> <b_lp_Chiralities_Consistent>
1

> <s_lp_Variant>
AV-unprocessed.smi:1966-6

> <Gold.Version>
5.8.1

> <Gold.Id.Protein>
6NUR|6NUR_protein|mol2

> <Gold.PLP.Fitness>
40.8609

> <Gold.PLP.PLP>
-35.9271

> <Gold.PLP.part.hbond>
-2.0000

> <Gold.PLP.part.metal>
0.0000

> <Gold.PLP.part.buried>
-0.4415

> <Gold.PLP.part.nonpolar>
-34.6473

> <Gold.PLP.part.repulsive>
3.0773

> <Gold.PLP.ligand.clash>
0.0000

> <Gold.PLP.ligand.torsion>
1.1008

> <Gold.PLP.Chemscore.Hbond>
1.8287

> <Gold.PLP.Chemscore.CHOScore>
0.4251

> <Gold.PLP.Chemscore.Metal>
0.0000

> <Gold.Chemscore.Hbonds>
donor molecule, donor type, donor heavy atom, donor atom, acceptor molecule, acceptor atom, score
      L1  H     4    29       P1 10747  1.00
      P1  H 10752 10764       L1    13  0.58
      L1  C    22    46       P1  7948  0.47

> <Gold.PLP.Chemscore.Internal.Correction>
0.3738

> <Gold.Rescore>
     Score         DG    S(hbond)    S(metal)    S(lipo)     H(rot)  DE(clash)    DE(int)     intcor
     10.88     -15.02       1.00        0.00      89.70       1.68       0.26       3.88       ----

> <Gold.Chemscore.Fitness>
10.8772

> <Gold.Chemscore.DG>
-15.0173

> <Gold.Chemscore.ZeroCoef>
-5.4800

> <Gold.Chemscore.Hbond>
0.9977

> <Gold.Chemscore.Metal>
0.0000

> <Gold.Chemscore.Lipo>
89.7022

> <Gold.Chemscore.Internal_Hbond>
0.0000

> <Gold.Chemscore.DEClash>
0.2579

> <Gold.Chemscore.DEInternal>
3.8822

> <Gold.Chemscore.Rot>
1.6759

> <Gold.Chemscore.Internal.Correction>
   9.000000E+99

> <Gold.Chemscore.Hbonds>
donor molecule, donor type, donor heavy atom, donor atom, acceptor molecule, acceptor atom, score
      L1  H     4    29       P1 10747  0.97
      P1  H 10752 10764       L1    13  0.02

> <Gold.Chemscore.Hbond.Weighted>
-3.3324

> <Gold.Chemscore.Metal.Weighted>
-0.0000

> <Gold.Chemscore.Lipo.Weighted>
-10.4952

> <Gold.Chemscore.Internal_Hbond.Weighted>
0.0000

> <Gold.Chemscore.DEClash.Weighted>
0.2579

> <Gold.Chemscore.DEInternal.Weighted>
3.8822

> <Gold.Chemscore.Rot.Weighted>
4.2902

> <Gold.Chemscore.Internal.Correction.Weighted>
   9.000000E+99

> <Gold.Protein.RotatedTorsions>
[ 6907 6896 6895 6894 ] final   -9.65 input  -60.11 | X-H torsion
[ 7974 7965 7964 7962 ] final  143.84 input  175.53 | X-H torsion
[ 8008 7997 7996 7995 ] final   49.44 input   59.86 | X-H torsion
[ 10167 10162 10161 10158 ] final  115.24 input  -65.29 | X-H torsion
[ 10718 10713 10712 10709 ] final  -41.70 input   66.30 | X-H torsion
[ 10763 10752 10751 10750 ] final  -35.63 input  -60.55 | X-H torsion
[ 11005 11000 10999 10996 ] final   -1.98 input  -57.11 | X-H torsion

> <Gold.Protein.ActiveResidues>
 VAL166  LYS551  ARG553  GLY616  TRP617  ASP618  TYR619  PRO620  LYS621  CYS622 
 ASP623  PHE694  ASN695  SER759  ASP760  ASP761  ALA762  ILE779  LEU786  VAL792 
 PHE793  MET794  SER795  GLU796  ALA797  LYS798  CYS799  TRP800  GLU811  SER814 

> <Gold.Protein.RotatedAtoms>
  151.4144  135.0989  159.9594 H   0  0  0  0  0  0  0  0  0  0  0  0  # atno 6907 bound_to 6896
  152.5009  133.8766  159.7336 H   0  0  0  0  0  0  0  0  0  0  0  0  # atno 6908 bound_to 6896
  150.9268  133.6756  159.2847 H   0  0  0  0  0  0  0  0  0  0  0  0  # atno 6909 bound_to 6896
  144.8886  139.5591  143.5809 H   0  0  0  0  0  0  0  0  0  0  0  0  # atno 7974 bound_to 7965
  155.4023  140.3438  155.4258 H   0  0  0  0  0  0  0  0  0  0  0  0  # atno 8008 bound_to 7997
  156.1496  140.1567  156.8823 H   0  0  0  0  0  0  0  0  0  0  0  0  # atno 8009 bound_to 7997
  154.5041  140.0807  156.7839 H   0  0  0  0  0  0  0  0  0  0  0  0  # atno 8010 bound_to 7997
  139.6331  144.7117  151.2391 H   0  0  0  0  0  0  0  0  0  0  0  0  # atno 10167 bound_to 10162
  156.2675  130.4203  149.8474 H   0  0  0  0  0  0  0  0  0  0  0  0  # atno 10718 bound_to 10713
  153.8664  135.6835  153.4778 H   0  0  0  0  0  0  0  0  0  0  0  0  # atno 10763 bound_to 10752
  153.1312  135.4697  154.9350 H   0  0  0  0  0  0  0  0  0  0  0  0  # atno 10764 bound_to 10752
  154.7735  135.3246  154.8091 H   0  0  0  0  0  0  0  0  0  0  0  0  # atno 10765 bound_to 10752
  140.6533  133.9385  155.8393 H   0  0  0  0  0  0  0  0  0  0  0  0  # atno 11005 bound_to 11000
  146.3040  139.7518  142.9070 LP  0  0  0  0  0  0  0  0  0  0  0  0  # atno 17320 bound_to 7965
  145.3823  141.0360  143.3170 LP  0  0  0  0  0  0  0  0  0  0  0  0  # atno 17321 bound_to 7965
  140.7450  143.6445  150.8305 LP  0  0  0  0  0  0  0  0  0  0  0  0  # atno 17342 bound_to 10162
  140.0072  143.5681  152.2853 LP  0  0  0  0  0  0  0  0  0  0  0  0  # atno 17343 bound_to 10162
  156.5967  130.8529  151.3421 LP  0  0  0  0  0  0  0  0  0  0  0  0  # atno 17370 bound_to 10713
  157.7272  130.9640  150.1690 LP  0  0  0  0  0  0  0  0  0  0  0  0  # atno 17371 bound_to 10713
  141.0520  134.0470  157.3771 LP  0  0  0  0  0  0  0  0  0  0  0  0  # atno 17394 bound_to 11000
  139.9038  135.0173  156.7393 LP  0  0  0  0  0  0  0  0  0  0  0  0  # atno 17395 bound_to 11000

$$$$
