AV-unprocessed.smi:2439|AV-procd|sdf|9607|dock7
  -GOLD-   2272013243D 1   1.00000     0.00000
 Structure written by MMmdl.
 41 43  0  0  0  0  0  0  0  0  2 V2000
  153.5494  139.9671  159.0412 N   0  0  0  0  0  0  0  0  0  0  0  0
  153.0624  141.0095  159.1638 C   0  0  0  0  0  0  0  0  0  0  0  0
  152.4486  142.3230  159.3160 C   0  0  0  0  0  0  0  0  0  0  0  0
  152.6569  143.0423  160.5117 C   0  0  0  0  0  0  0  0  0  0  0  0
  152.0620  144.3085  160.6627 C   0  0  0  0  0  0  0  0  0  0  0  0
  151.2803  144.8077  159.6052 C   0  0  0  0  0  0  0  0  0  0  0  0
  151.0739  144.1311  158.4561 N   0  0  0  0  0  0  0  0  0  0  0  0
  151.6414  142.9093  158.3045 C   0  0  0  0  0  0  0  0  0  0  0  0
  151.4072  142.2302  157.0956 N   0  0  0  0  0  0  0  0  0  0  0  0
  150.0548  142.0882  156.5747 C   0  0  0  0  0  0  0  0  0  0  0  0
  150.0134  141.1629  155.3514 C   0  0  2  0  0  0  0  0  0  0  0  0
  148.5671  140.8967  154.8947 C   0  0  0  0  0  0  0  0  0  0  0  0
  148.5407  139.9216  153.7762 N   0  3  2  0  0  0  0  0  0  0  0  0
  147.1786  139.6515  153.2461 C   0  0  0  0  0  0  0  0  0  0  0  0
  146.3565  138.7478  154.1853 C   0  0  0  0  0  0  0  0  0  0  0  0
  147.1102  137.4488  154.5017 C   0  0  0  0  0  0  0  0  0  0  0  0
  148.5082  137.7614  155.0541 C   0  0  0  0  0  0  0  0  0  0  0  0
  149.2944  138.6761  154.0890 C   0  0  2  0  0  0  0  0  0  0  0  0
  150.7008  139.0245  154.6138 C   0  0  0  0  0  0  0  0  0  0  0  0
  150.6068  139.9203  155.7142 O   0  0  0  0  0  0  0  0  0  0  0  0
  153.2636  142.6333  161.3070 H   0  0  0  0  0  0  0  0  0  0  0  0
  152.2018  144.8826  161.5667 H   0  0  0  0  0  0  0  0  0  0  0  0
  150.8081  145.7758  159.6826 H   0  0  0  0  0  0  0  0  0  0  0  0
  152.1328  141.6370  156.7191 H   0  0  0  0  0  0  0  0  0  0  0  0
  149.3963  141.7070  157.3564 H   0  0  0  0  0  0  0  0  0  0  0  0
  149.6872  143.0765  156.2962 H   0  0  0  0  0  0  0  0  0  0  0  0
  150.5764  141.6197  154.5347 H   0  0  0  0  0  0  0  0  0  0  0  0
  147.9769  140.5291  155.7343 H   0  0  0  0  0  0  0  0  0  0  0  0
  148.1048  141.8295  154.5699 H   0  0  0  0  0  0  0  0  0  0  0  0
  146.6555  140.5913  153.0651 H   0  0  0  0  0  0  0  0  0  0  0  0
  147.2805  139.1655  152.2748 H   0  0  0  0  0  0  0  0  0  0  0  0
  146.1272  139.2760  155.1112 H   0  0  0  0  0  0  0  0  0  0  0  0
  145.3961  138.5142  153.7253 H   0  0  0  0  0  0  0  0  0  0  0  0
  146.5468  136.8522  155.2195 H   0  0  0  0  0  0  0  0  0  0  0  0
  147.1994  136.8460  153.5970 H   0  0  0  0  0  0  0  0  0  0  0  0
  148.4192  138.2291  156.0353 H   0  0  0  0  0  0  0  0  0  0  0  0
  149.0541  136.8307  155.2112 H   0  0  0  0  0  0  0  0  0  0  0  0
  149.4197  138.1322  153.1517 H   0  0  0  0  0  0  0  0  0  0  0  0
  151.2243  138.1224  154.9314 H   0  0  0  0  0  0  0  0  0  0  0  0
  151.3059  139.4740  153.8246 H   0  0  0  0  0  0  0  0  0  0  0  0
  149.0455  140.3690  153.0245 H   0  0  0  0  0  0  0  0  0  0  0  0
  1  2  3  0  0  0  0
  2  3  1  0  0  0  0
  3  8  1  0  0  0  0
  3  4  2  0  0  0  0
  4  5  1  0  0  0  0
  4 21  1  0  0  0  0
  5  6  2  0  0  0  0
  5 22  1  0  0  0  0
  6  7  1  0  0  0  0
  6 23  1  0  0  0  0
  7  8  2  0  0  0  0
  8  9  1  0  0  0  0
  9 10  1  0  0  0  0
  9 24  1  0  0  0  0
 10 11  1  0  0  0  0
 10 25  1  0  0  0  0
 10 26  1  0  0  0  0
 11 20  1  0  0  0  0
 11 12  1  0  0  0  0
 11 27  1  0  0  0  0
 12 13  1  0  0  0  0
 12 28  1  0  0  0  0
 12 29  1  0  0  0  0
 13 18  1  0  0  0  0
 13 14  1  0  0  0  0
 13 41  1  0  0  0  0
 14 15  1  0  0  0  0
 14 30  1  0  0  0  0
 14 31  1  0  0  0  0
 15 16  1  0  0  0  0
 15 32  1  0  0  0  0
 15 33  1  0  0  0  0
 16 17  1  0  0  0  0
 16 34  1  0  0  0  0
 16 35  1  0  0  0  0
 17 18  1  0  0  0  0
 17 36  1  0  0  0  0
 17 37  1  0  0  0  0
 18 19  1  0  0  0  0
 18 38  1  0  0  0  0
 19 20  1  0  0  0  0
 19 39  1  0  0  0  0
 19 40  1  0  0  0  0
M  CHG  1  13   1
M  END
> <s_m_source_file>
AV-unprocessed.smi

> <i_m_source_file_index>
2439

> <i_lp_mmshare_version>
43012

> <i_f3d_flags>
0

> <s_epik_input>
TiNDYzFbY0hdW2NIXVtjSF1uYzFbTkhdW0NIMl1bQ0BIXShbQ0gyXTIpT1tDSDJdW0NAQEhdKE4yMylbQ0gyXVtDSDJdW0NIMl1bQ0gyXTM=

> <s_epik_cmdline>
J2VwaWtfcHl0aG9uJywgJy1waCcsICc3LjAnLCAnLXRuJywgJzgnLCAnLW1hJywgJzIwMCcsICctbWV0YWxfYmluZGluZycsICctaW1hZScsICc8aW5maWxlLm1hZT4nLCAnLW9tYWUnLCAnPG91dGZpbGUubWFlPic=

> <r_epik_Ionization_Penalty>
0.0803594

> <r_epik_Ionization_Penalty_Charging>
0.0803403

> <r_epik_Ionization_Penalty_Neutral>
1.90988e-05

> <r_epik_State_Penalty>
0.0711481

> <r_epik_Charging_Adjusted_Penalty>
0.151488

> <i_epik_Tot_Q>
1

> <i_epik_Tot_abs_Q>
1

> <r_epik_Metal_State_Penalty>
0.0711482

> <b_epik_Metal_Only>
0

> <s_lp_Force_Field>
OPLS_2005

> <r_lp_Energy>
31.0257

> <b_lp_Chiralities_Consistent>
1

> <s_lp_Variant>
AV-unprocessed.smi:2439-5

> <Gold.Version>
5.8.1

> <Gold.Id.Protein>
6NUR|6NUR_protein|mol2

> <Gold.PLP.Fitness>
40.2863

> <Gold.PLP.PLP>
-36.0934

> <Gold.PLP.part.hbond>
-2.0000

> <Gold.PLP.part.metal>
0.0000

> <Gold.PLP.part.buried>
-1.2709

> <Gold.PLP.part.nonpolar>
-31.7416

> <Gold.PLP.part.repulsive>
0.3079

> <Gold.PLP.ligand.clash>
0.0000

> <Gold.PLP.ligand.torsion>
0.4744

> <Gold.PLP.Chemscore.Hbond>
1.7137

> <Gold.PLP.Chemscore.CHOScore>
0.0000

> <Gold.PLP.Chemscore.Metal>
0.0000

> <Gold.Chemscore.Hbonds>
donor molecule, donor type, donor heavy atom, donor atom, acceptor molecule, acceptor atom, score
      L1  H    13    41       P1  7957  0.82
      P1  H  7997  8008       L1     1  0.52

> <Gold.PLP.Chemscore.Internal.Correction>
0.0006

> <Gold.Rescore>
     Score         DG    S(hbond)    S(metal)    S(lipo)     H(rot)  DE(clash)    DE(int)     intcor
     17.88     -18.62       1.63        0.00      93.50       1.27       0.24       0.50       ----

> <Gold.Chemscore.Fitness>
17.8786

> <Gold.Chemscore.DG>
-18.6175

> <Gold.Chemscore.ZeroCoef>
-5.4800

> <Gold.Chemscore.Hbond>
1.6285

> <Gold.Chemscore.Metal>
0.0000

> <Gold.Chemscore.Lipo>
93.4969

> <Gold.Chemscore.Internal_Hbond>
0.0000

> <Gold.Chemscore.DEClash>
0.2406

> <Gold.Chemscore.DEInternal>
0.4983

> <Gold.Chemscore.Rot>
1.2659

> <Gold.Chemscore.Internal.Correction>
   9.000000E+99

> <Gold.Chemscore.Hbonds>
donor molecule, donor type, donor heavy atom, donor atom, acceptor molecule, acceptor atom, score
      L1  H    13    41       P1  7957  0.80
      P1  H  7997  8008       L1     1  0.33

> <Gold.Chemscore.Hbond.Weighted>
-5.4391

> <Gold.Chemscore.Metal.Weighted>
-0.0000

> <Gold.Chemscore.Lipo.Weighted>
-10.9391

> <Gold.Chemscore.Internal_Hbond.Weighted>
0.0000

> <Gold.Chemscore.DEClash.Weighted>
0.2406

> <Gold.Chemscore.DEInternal.Weighted>
0.4983

> <Gold.Chemscore.Rot.Weighted>
3.2408

> <Gold.Chemscore.Internal.Correction.Weighted>
   9.000000E+99

> <Gold.Protein.RotatedTorsions>
[ 6907 6896 6895 6894 ] final  -82.83 input  -60.11 | X-H torsion
[ 7974 7965 7964 7962 ] final -179.68 input  175.53 | X-H torsion
[ 8008 7997 7996 7995 ] final -104.34 input   59.86 | X-H torsion
[ 10167 10162 10161 10158 ] final -166.95 input  -65.29 | X-H torsion
[ 10718 10713 10712 10709 ] final   13.82 input   66.30 | X-H torsion
[ 10763 10752 10751 10750 ] final  116.53 input  -60.55 | X-H torsion
[ 11005 11000 10999 10996 ] final  -92.50 input  -57.11 | X-H torsion

> <Gold.Protein.ActiveResidues>
 VAL166  LYS551  ARG553  GLY616  TRP617  ASP618  TYR619  PRO620  LYS621  CYS622 
 ASP623  PHE694  ASN695  SER759  ASP760  ASP761  ALA762  ILE779  LEU786  VAL792 
 PHE793  MET794  SER795  GLU796  ALA797  LYS798  CYS799  TRP800  GLU811  SER814 

> <Gold.Protein.RotatedAtoms>
  150.6892  134.3605  159.4947 H   0  0  0  0  0  0  0  0  0  0  0  0  # atno 6907 bound_to 6896
  152.1434  134.9042  160.0561 H   0  0  0  0  0  0  0  0  0  0  0  0  # atno 6908 bound_to 6896
  152.0167  133.3848  159.4278 H   0  0  0  0  0  0  0  0  0  0  0  0  # atno 6909 bound_to 6896
  144.7138  140.0682  143.6430 H   0  0  0  0  0  0  0  0  0  0  0  0  # atno 7974 bound_to 7965
  154.8839  140.0418  157.1798 H   0  0  0  0  0  0  0  0  0  0  0  0  # atno 8008 bound_to 7997
  154.8611  140.2944  155.5518 H   0  0  0  0  0  0  0  0  0  0  0  0  # atno 8009 bound_to 7997
  156.2998  140.2447  156.3585 H   0  0  0  0  0  0  0  0  0  0  0  0  # atno 8010 bound_to 7997
  139.6081  144.0870  152.1814 H   0  0  0  0  0  0  0  0  0  0  0  0  # atno 10167 bound_to 10162
  157.0302  130.6190  149.5734 H   0  0  0  0  0  0  0  0  0  0  0  0  # atno 10718 bound_to 10713
  153.5386  135.3563  155.2708 H   0  0  0  0  0  0  0  0  0  0  0  0  # atno 10763 bound_to 10752
  154.8720  135.4085  154.3070 H   0  0  0  0  0  0  0  0  0  0  0  0  # atno 10764 bound_to 10752
  153.3772  135.7066  153.6660 H   0  0  0  0  0  0  0  0  0  0  0  0  # atno 10765 bound_to 10752
  141.1520  133.7825  157.0028 H   0  0  0  0  0  0  0  0  0  0  0  0  # atno 11005 bound_to 11000
  145.9806  139.2938  143.1044 LP  0  0  0  0  0  0  0  0  0  0  0  0  # atno 17320 bound_to 7965
  145.9015  140.9240  143.0501 LP  0  0  0  0  0  0  0  0  0  0  0  0  # atno 17321 bound_to 7965
  140.0483  144.5953  150.7356 LP  0  0  0  0  0  0  0  0  0  0  0  0  # atno 17342 bound_to 10162
  140.7300  143.2678  151.3987 LP  0  0  0  0  0  0  0  0  0  0  0  0  # atno 17343 bound_to 10162
  156.0072  130.5160  150.7869 LP  0  0  0  0  0  0  0  0  0  0  0  0  # atno 17370 bound_to 10713
  157.5183  131.0930  151.0111 LP  0  0  0  0  0  0  0  0  0  0  0  0  # atno 17371 bound_to 10713
  140.0929  134.9582  157.1803 LP  0  0  0  0  0  0  0  0  0  0  0  0  # atno 17394 bound_to 11000
  140.3422  134.2691  155.7210 LP  0  0  0  0  0  0  0  0  0  0  0  0  # atno 17395 bound_to 11000

$$$$
