AV-unprocessed.smi:828|AV-procd|sdf|3862|dock8
  -GOLD-   22720 1313D 1   1.00000     0.00000
 Structure written by MMmdl.
 34 35  0  0  0  0  0  0  0  0  3 V2000
  153.7026  129.5478  148.3136 C   0  0  0  0  0  0  0  0  0  0  0  0
  152.7238  130.2999  149.1484 C   0  0  0  0  0  0  0  0  0  0  0  0
  152.6772  130.1907  150.4780 N   0  0  0  0  0  0  0  0  0  0  0  0
  151.6855  130.9859  151.0336 N   0  0  0  0  0  0  0  0  0  0  0  0
  151.0027  131.6898  150.1199 C   0  0  0  0  0  0  0  0  0  0  0  0
  149.9981  132.5171  150.4534 N   0  5  0  0  0  0  0  0  0  0  0  0
  149.1380  132.9512  149.5056 C   0  0  0  0  0  0  0  0  0  0  0  0
  148.8888  132.3943  148.4341 O   0  0  0  0  0  0  0  0  0  0  0  0
  148.5225  134.0984  149.8249 N   0  0  0  0  0  0  0  0  0  0  0  0
  147.5295  134.7997  149.0172 C   0  0  0  0  0  0  0  0  0  0  0  0
  146.1307  134.7536  149.6624 C   0  0  2  0  0  0  0  0  0  0  0  0
  145.1208  135.7375  149.0612 C   0  0  0  0  0  0  0  0  0  0  0  0
  144.1023  135.9054  150.1788 C   0  0  0  0  0  0  0  0  0  0  0  0
  144.9561  135.8511  151.4475 C   0  0  0  0  0  0  0  0  0  0  0  0
  146.1834  135.0927  151.1047 N   0  3  1  0  0  0  0  0  0  0  0  0
  146.4394  133.9371  151.9922 C   0  0  0  0  0  0  0  0  0  0  0  0
  151.5395  131.4011  148.4649 S   0  0  0  0  0  0  0  0  0  0  0  0
  154.7106  129.9219  148.4933 H   0  0  0  0  0  0  0  0  0  0  0  0
  153.4687  129.6652  147.2554 H   0  0  0  0  0  0  0  0  0  0  0  0
  153.6711  128.4868  148.5622 H   0  0  0  0  0  0  0  0  0  0  0  0
  148.7670  134.5173  150.7106 H   0  0  0  0  0  0  0  0  0  0  0  0
  147.8605  135.8341  148.9252 H   0  0  0  0  0  0  0  0  0  0  0  0
  147.4977  134.4023  148.0013 H   0  0  0  0  0  0  0  0  0  0  0  0
  145.7171  133.7484  149.5586 H   0  0  0  0  0  0  0  0  0  0  0  0
  145.5980  136.6970  148.8560 H   0  0  0  0  0  0  0  0  0  0  0  0
  144.6758  135.3768  148.1332 H   0  0  0  0  0  0  0  0  0  0  0  0
  143.5251  136.8267  150.0940 H   0  0  0  0  0  0  0  0  0  0  0  0
  143.4033  135.0680  150.1660 H   0  0  0  0  0  0  0  0  0  0  0  0
  145.2537  136.8571  151.7450 H   0  0  0  0  0  0  0  0  0  0  0  0
  144.4040  135.4128  152.2802 H   0  0  0  0  0  0  0  0  0  0  0  0
  145.6334  133.2051  151.9270 H   0  0  0  0  0  0  0  0  0  0  0  0
  146.5209  134.2652  153.0289 H   0  0  0  0  0  0  0  0  0  0  0  0
  147.3736  133.4434  151.7239 H   0  0  0  0  0  0  0  0  0  0  0  0
  146.9522  135.7379  151.2195 H   0  0  0  0  0  0  0  0  0  0  0  0
  1  2  1  0  0  0  0
  1 18  1  0  0  0  0
  1 19  1  0  0  0  0
  1 20  1  0  0  0  0
  2 17  1  0  0  0  0
  2  3  2  0  0  0  0
  3  4  1  0  0  0  0
  4  5  2  0  0  0  0
  5  6  1  0  0  0  0
  5 17  1  0  0  0  0
  6  7  1  0  0  0  0
  7  8  2  0  0  0  0
  7  9  1  0  0  0  0
  9 10  1  0  0  0  0
  9 21  1  0  0  0  0
 10 11  1  0  0  0  0
 10 22  1  0  0  0  0
 10 23  1  0  0  0  0
 11 15  1  0  0  0  0
 11 12  1  0  0  0  0
 11 24  1  0  0  0  0
 12 13  1  0  0  0  0
 12 25  1  0  0  0  0
 12 26  1  0  0  0  0
 13 14  1  0  0  0  0
 13 27  1  0  0  0  0
 13 28  1  0  0  0  0
 14 15  1  0  0  0  0
 14 29  1  0  0  0  0
 14 30  1  0  0  0  0
 15 16  1  0  0  0  0
 15 34  1  0  0  0  0
 16 31  1  0  0  0  0
 16 32  1  0  0  0  0
 16 33  1  0  0  0  0
M  CHG  1   6  -1
M  CHG  1  15   1
M  END
> <s_m_source_file>
AV-unprocessed.smi

> <i_m_source_file_index>
828

> <i_lp_mmshare_version>
43012

> <i_f3d_flags>
0

> <s_epik_input>
W0NIM11jMW5uYyhzMSlbTkhdQyg9TylbTkhdW0NIMl1bQ0BASF0yW0NIMl1bQ0gyXVtDSDJdTjJbQ0gzXQ==

> <s_epik_cmdline>
J2VwaWtfcHl0aG9uJywgJy1waCcsICc3LjAnLCAnLXRuJywgJzgnLCAnLW1hJywgJzIwMCcsICctbWV0YWxfYmluZGluZycsICctaW1hZScsICc8aW5maWxlLm1hZT4nLCAnLW9tYWUnLCAnPG91dGZpbGUubWFlPic=

> <r_lp_tautomer_probability>
1

> <r_epik_Ionization_Penalty>
3.94379

> <r_epik_Ionization_Penalty_Charging>
3.83377

> <r_epik_Ionization_Penalty_Neutral>
0.110023

> <r_epik_State_Penalty>
3.83036

> <r_epik_Charging_Adjusted_Penalty>
7.66413

> <i_epik_Tot_Q>
0

> <i_epik_Tot_abs_Q>
2

> <r_epik_Metal_State_Penalty>
0.575095

> <b_epik_Metal_Only>
1

> <s_lp_Force_Field>
OPLS_2005

> <r_lp_Energy>
18.3526

> <b_lp_Chiralities_Consistent>
1

> <s_lp_Variant>
AV-unprocessed.smi:828-5

> <Gold.Version>
5.8.1

> <Gold.Id.Protein>
6NUR|6NUR_protein|mol2

> <Gold.PLP.Fitness>
37.1736

> <Gold.PLP.PLP>
-25.9919

> <Gold.PLP.part.hbond>
-3.4697

> <Gold.PLP.part.metal>
0.0000

> <Gold.PLP.part.buried>
-3.7481

> <Gold.PLP.part.nonpolar>
-18.8829

> <Gold.PLP.part.repulsive>
0.1395

> <Gold.PLP.ligand.clash>
0.0000

> <Gold.PLP.ligand.torsion>
0.3004

> <Gold.PLP.Chemscore.Hbond>
3.9200

> <Gold.PLP.Chemscore.CHOScore>
0.0000

> <Gold.PLP.Chemscore.Metal>
0.0000

> <Gold.Chemscore.Hbonds>
donor molecule, donor type, donor heavy atom, donor atom, acceptor molecule, acceptor atom, score
      L1  H    15    34       P1  7948  1.59

> <Gold.PLP.Chemscore.Internal.Correction>
0.0224

> <Gold.Rescore>
     Score         DG    S(hbond)    S(metal)    S(lipo)     H(rot)  DE(clash)    DE(int)     intcor
     11.27     -13.99       2.11        0.00      41.23       1.31       0.03       2.69       ----

> <Gold.Chemscore.Fitness>
11.2711

> <Gold.Chemscore.DG>
-13.9867

> <Gold.Chemscore.ZeroCoef>
-5.4800

> <Gold.Chemscore.Hbond>
2.1105

> <Gold.Chemscore.Metal>
0.0000

> <Gold.Chemscore.Lipo>
41.2277

> <Gold.Chemscore.Internal_Hbond>
0.0000

> <Gold.Chemscore.DEClash>
0.0280

> <Gold.Chemscore.DEInternal>
2.6875

> <Gold.Chemscore.Rot>
1.3149

> <Gold.Chemscore.Internal.Correction>
   9.000000E+99

> <Gold.Chemscore.Hbonds>
donor molecule, donor type, donor heavy atom, donor atom, acceptor molecule, acceptor atom, score
      L1  H    15    34       P1  7948  0.74

> <Gold.Chemscore.Hbond.Weighted>
-7.0492

> <Gold.Chemscore.Metal.Weighted>
-0.0000

> <Gold.Chemscore.Lipo.Weighted>
-4.8236

> <Gold.Chemscore.Internal_Hbond.Weighted>
0.0000

> <Gold.Chemscore.DEClash.Weighted>
0.0280

> <Gold.Chemscore.DEInternal.Weighted>
2.6875

> <Gold.Chemscore.Rot.Weighted>
3.3662

> <Gold.Chemscore.Internal.Correction.Weighted>
   9.000000E+99

> <Gold.Protein.RotatedTorsions>
[ 6907 6896 6895 6894 ] final -177.22 input  -60.11 | X-H torsion
[ 7974 7965 7964 7962 ] final   43.35 input  175.53 | X-H torsion
[ 8008 7997 7996 7995 ] final   82.27 input   59.86 | X-H torsion
[ 10167 10162 10161 10158 ] final  108.42 input  -65.29 | X-H torsion
[ 10718 10713 10712 10709 ] final  -43.45 input   66.30 | X-H torsion
[ 10763 10752 10751 10750 ] final    3.60 input  -60.55 | X-H torsion
[ 11005 11000 10999 10996 ] final  122.79 input  -57.11 | X-H torsion

> <Gold.Protein.ActiveResidues>
 VAL166  LYS551  ARG553  GLY616  TRP617  ASP618  TYR619  PRO620  LYS621  CYS622 
 ASP623  PHE694  ASN695  SER759  ASP760  ASP761  ALA762  ILE779  LEU786  VAL792 
 PHE793  MET794  SER795  GLU796  ALA797  LYS798  CYS799  TRP800  GLU811  SER814 

> <Gold.Protein.RotatedAtoms>
  151.6174  133.3342  159.3080 H   0  0  0  0  0  0  0  0  0  0  0  0  # atno 6907 bound_to 6896
  150.8124  134.7290  159.6711 H   0  0  0  0  0  0  0  0  0  0  0  0  # atno 6908 bound_to 6896
  152.4220  134.5942  160.0034 H   0  0  0  0  0  0  0  0  0  0  0  0  # atno 6909 bound_to 6896
  146.0663  139.5196  142.9626 H   0  0  0  0  0  0  0  0  0  0  0  0  # atno 7974 bound_to 7965
  155.9084  140.3429  155.6080 H   0  0  0  0  0  0  0  0  0  0  0  0  # atno 8008 bound_to 7997
  155.7417  140.0808  157.2261 H   0  0  0  0  0  0  0  0  0  0  0  0  # atno 8009 bound_to 7997
  154.4052  140.1569  156.2610 H   0  0  0  0  0  0  0  0  0  0  0  0  # atno 8010 bound_to 7997
  139.6847  144.7114  151.1452 H   0  0  0  0  0  0  0  0  0  0  0  0  # atno 10167 bound_to 10162
  156.2489  130.4186  149.8673 H   0  0  0  0  0  0  0  0  0  0  0  0  # atno 10718 bound_to 10713
  153.2813  135.6941  153.7382 H   0  0  0  0  0  0  0  0  0  0  0  0  # atno 10763 bound_to 10752
  153.6369  135.3400  155.3060 H   0  0  0  0  0  0  0  0  0  0  0  0  # atno 10764 bound_to 10752
  154.8496  135.4422  154.1867 H   0  0  0  0  0  0  0  0  0  0  0  0  # atno 10765 bound_to 10752
  139.9284  134.9641  156.8162 H   0  0  0  0  0  0  0  0  0  0  0  0  # atno 11005 bound_to 11000
  145.6472  141.0271  143.1780 LP  0  0  0  0  0  0  0  0  0  0  0  0  # atno 17320 bound_to 7965
  144.7204  139.8050  143.7384 LP  0  0  0  0  0  0  0  0  0  0  0  0  # atno 17321 bound_to 7965
  140.7664  143.5646  150.9061 LP  0  0  0  0  0  0  0  0  0  0  0  0  # atno 17342 bound_to 10162
  139.9320  143.6482  152.3074 LP  0  0  0  0  0  0  0  0  0  0  0  0  # atno 17343 bound_to 10162
  156.6228  130.8633  151.3479 LP  0  0  0  0  0  0  0  0  0  0  0  0  # atno 17370 bound_to 10713
  157.7206  130.9554  150.1425 LP  0  0  0  0  0  0  0  0  0  0  0  0  # atno 17371 bound_to 10713
  140.6271  133.9940  155.7645 LP  0  0  0  0  0  0  0  0  0  0  0  0  # atno 17394 bound_to 11000
  141.0857  133.9995  157.3318 LP  0  0  0  0  0  0  0  0  0  0  0  0  # atno 17395 bound_to 11000

$$$$
