AV-unprocessed.smi:1611|AV-procd|sdf|6475|dock4
  -GOLD-   22720 7133D 1   1.00000     0.00000
 Structure written by MMmdl.
 48 49  0  0  0  0  0  0  0  0  1 V2000
  152.5929  143.4843  161.8242 C   0  0  0  0  0  0  0  0  0  0  0  0
  152.2453  142.8129  160.5068 C   0  0  0  0  0  0  0  0  0  0  0  0
  151.1693  143.3162  159.7476 C   0  0  0  0  0  0  0  0  0  0  0  0
  150.8221  142.7211  158.5224 C   0  0  0  0  0  0  0  0  0  0  0  0
  151.5423  141.6087  158.0458 C   0  0  0  0  0  0  0  0  0  0  0  0
  151.1578  140.9820  156.7187 C   0  0  0  0  0  0  0  0  0  0  0  0
  152.6124  141.0856  158.8075 C   0  0  0  0  0  0  0  0  0  0  0  0
  153.3026  139.9962  158.3410 O   0  0  0  0  0  0  0  0  0  0  0  0
  152.5722  138.7808  158.4268 C   0  0  0  0  0  0  0  0  0  0  0  0
  152.3900  138.2039  157.0128 C   0  0  1  0  0  0  0  0  0  0  0  0
  153.6741  138.1421  156.4231 O   0  0  0  0  0  0  0  0  0  0  0  0
  151.8004  136.7766  157.0456 C   0  0  0  0  0  0  0  0  0  0  0  0
  150.3780  136.7786  157.4110 N   0  0  0  0  0  0  0  0  0  0  0  0
  149.5200  136.7012  156.3307 N   0  0  0  0  0  0  0  0  0  0  0  0
  148.2376  136.6746  156.4901 C   0  0  0  0  0  0  0  0  0  0  0  0
  147.4023  136.5903  155.2409 C   0  0  0  0  0  0  0  0  0  0  0  0
  147.6747  136.7271  157.8353 C   0  0  0  0  0  0  0  0  0  0  0  0
  146.1577  136.6916  157.9614 C   0  0  0  0  0  0  0  0  0  0  0  0
  148.5273  136.8059  158.8874 C   0  0  0  0  0  0  0  0  0  0  0  0
  148.0692  136.8629  160.2382 C   0  0  0  0  0  0  0  0  0  0  0  0
  147.6966  136.9296  161.3322 N   0  0  0  0  0  0  0  0  0  0  0  0
  149.9814  136.8374  158.7145 C   0  0  0  0  0  0  0  0  0  0  0  0
  150.7801  136.9090  159.6496 O   0  0  0  0  0  0  0  0  0  0  0  0
  152.9808  141.6978  160.0323 C   0  0  0  0  0  0  0  0  0  0  0  0
  154.1577  141.1563  160.8329 C   0  0  0  0  0  0  0  0  0  0  0  0
  151.8420  144.2242  162.1029 H   0  0  0  0  0  0  0  0  0  0  0  0
  153.5538  143.9940  161.7490 H   0  0  0  0  0  0  0  0  0  0  0  0
  152.6500  142.7502  162.6284 H   0  0  0  0  0  0  0  0  0  0  0  0
  150.6052  144.1674  160.1002 H   0  0  0  0  0  0  0  0  0  0  0  0
  149.9987  143.1226  157.9501 H   0  0  0  0  0  0  0  0  0  0  0  0
  152.0451  140.7289  156.1375 H   0  0  0  0  0  0  0  0  0  0  0  0
  150.5524  141.6651  156.1220 H   0  0  0  0  0  0  0  0  0  0  0  0
  150.5815  140.0716  156.8834 H   0  0  0  0  0  0  0  0  0  0  0  0
  153.0513  138.0572  159.0896 H   0  0  0  0  0  0  0  0  0  0  0  0
  151.5995  139.0111  158.8626 H   0  0  0  0  0  0  0  0  0  0  0  0
  151.7440  138.8633  156.4313 H   0  0  0  0  0  0  0  0  0  0  0  0
  154.2971  138.5357  157.0147 H   0  0  0  0  0  0  0  0  0  0  0  0
  151.9848  136.2541  156.1049 H   0  0  0  0  0  0  0  0  0  0  0  0
  152.3289  136.1859  157.7961 H   0  0  0  0  0  0  0  0  0  0  0  0
  146.7490  137.4585  155.1536 H   0  0  0  0  0  0  0  0  0  0  0  0
  146.7782  135.6967  155.2516 H   0  0  0  0  0  0  0  0  0  0  0  0
  148.0178  136.5502  154.3411 H   0  0  0  0  0  0  0  0  0  0  0  0
  145.8288  136.7123  159.0000 H   0  0  0  0  0  0  0  0  0  0  0  0
  145.7564  135.7834  157.5108 H   0  0  0  0  0  0  0  0  0  0  0  0
  145.7123  137.5513  157.4595 H   0  0  0  0  0  0  0  0  0  0  0  0
  154.8151  140.5354  160.2248 H   0  0  0  0  0  0  0  0  0  0  0  0
  153.7981  140.5536  161.6670 H   0  0  0  0  0  0  0  0  0  0  0  0
  154.7693  141.9654  161.2313 H   0  0  0  0  0  0  0  0  0  0  0  0
  1  2  1  0  0  0  0
  1 26  1  0  0  0  0
  1 27  1  0  0  0  0
  1 28  1  0  0  0  0
  2 24  1  0  0  0  0
  2  3  2  0  0  0  0
  3  4  1  0  0  0  0
  3 29  1  0  0  0  0
  4  5  2  0  0  0  0
  4 30  1  0  0  0  0
  5  6  1  0  0  0  0
  5  7  1  0  0  0  0
  6 31  1  0  0  0  0
  6 32  1  0  0  0  0
  6 33  1  0  0  0  0
  7  8  1  0  0  0  0
  7 24  2  0  0  0  0
  8  9  1  0  0  0  0
  9 10  1  0  0  0  0
  9 34  1  0  0  0  0
  9 35  1  0  0  0  0
 10 11  1  0  0  0  0
 10 12  1  0  0  0  0
 10 36  1  0  0  0  0
 11 37  1  0  0  0  0
 12 13  1  0  0  0  0
 12 38  1  0  0  0  0
 12 39  1  0  0  0  0
 13 22  1  0  0  0  0
 13 14  1  0  0  0  0
 14 15  2  0  0  0  0
 15 16  1  0  0  0  0
 15 17  1  0  0  0  0
 16 40  1  0  0  0  0
 16 41  1  0  0  0  0
 16 42  1  0  0  0  0
 17 18  1  0  0  0  0
 17 19  2  0  0  0  0
 18 43  1  0  0  0  0
 18 44  1  0  0  0  0
 18 45  1  0  0  0  0
 19 20  1  0  0  0  0
 19 22  1  0  0  0  0
 20 21  3  0  0  0  0
 22 23  2  0  0  0  0
 24 25  1  0  0  0  0
 25 46  1  0  0  0  0
 25 47  1  0  0  0  0
 25 48  1  0  0  0  0
M  END
> <s_m_source_file>
AV-unprocessed.smi

> <i_m_source_file_index>
1611

> <i_lp_mmshare_version>
43012

> <i_f3d_flags>
0

> <s_epik_input>
W0NIM11jMVtjSF1bY0hdYyhbQ0gzXSljKGMxW0NIM10pT1tDSDJdW0NASF0oW09IXSlbQ0gyXW4ybmMoW0NIM10pYyhbQ0gzXSljKEMjTiljMj1P

> <s_epik_cmdline>
J2VwaWtfcHl0aG9uJywgJy1waCcsICc3LjAnLCAnLXRuJywgJzgnLCAnLW1hJywgJzIwMCcsICctbWV0YWxfYmluZGluZycsICctaW1hZScsICc8aW5maWxlLm1hZT4nLCAnLW9tYWUnLCAnPG91dGZpbGUubWFlPic=

> <r_lp_tautomer_probability>
1

> <r_epik_Ionization_Penalty>
1.17331e-07

> <r_epik_Ionization_Penalty_Charging>
1.57223e-10

> <r_epik_Ionization_Penalty_Neutral>
1.17174e-07

> <r_epik_State_Penalty>
-0

> <r_epik_Charging_Adjusted_Penalty>
1.57223e-10

> <i_epik_Tot_Q>
0

> <i_epik_Tot_abs_Q>
0

> <r_epik_Metal_State_Penalty>
-0

> <b_epik_Metal_Only>
0

> <s_lp_Force_Field>
OPLS_2005

> <r_lp_Energy>
37.4128

> <b_lp_Chiralities_Consistent>
1

> <s_lp_Variant>
AV-unprocessed.smi:1611-2

> <Gold.Version>
5.8.1

> <Gold.Id.Protein>
6NUR|6NUR_protein|mol2

> <Gold.PLP.Fitness>
46.8546

> <Gold.PLP.PLP>
-37.5076

> <Gold.PLP.part.hbond>
-5.0000

> <Gold.PLP.part.metal>
0.0000

> <Gold.PLP.part.buried>
-3.7972

> <Gold.PLP.part.nonpolar>
-28.3762

> <Gold.PLP.part.repulsive>
0.0270

> <Gold.PLP.ligand.clash>
0.0000

> <Gold.PLP.ligand.torsion>
0.9254

> <Gold.PLP.Chemscore.Hbond>
3.6976

> <Gold.PLP.Chemscore.CHOScore>
0.0000

> <Gold.PLP.Chemscore.Metal>
0.0000

> <Gold.Chemscore.Hbonds>
donor molecule, donor type, donor heavy atom, donor atom, acceptor molecule, acceptor atom, score
      P1  H  6896  6908       L1    23  1.00
      P1  H  6931  6943       L1    21  0.80
      P1  H  6934  6947       L1    21  0.21
      P1  H  7997  8008       L1     8  1.00

> <Gold.PLP.Chemscore.Internal.Correction>
0.1049

> <Gold.Rescore>
     Score         DG    S(hbond)    S(metal)    S(lipo)     H(rot)  DE(clash)    DE(int)     intcor
     17.33     -18.49       2.06        0.00     102.03       2.27       0.12       1.04       ----

> <Gold.Chemscore.Fitness>
17.3314

> <Gold.Chemscore.DG>
-18.4858

> <Gold.Chemscore.ZeroCoef>
-5.4800

> <Gold.Chemscore.Hbond>
2.0602

> <Gold.Chemscore.Metal>
0.0000

> <Gold.Chemscore.Lipo>
102.0284

> <Gold.Chemscore.Internal_Hbond>
0.0000

> <Gold.Chemscore.DEClash>
0.1171

> <Gold.Chemscore.DEInternal>
1.0373

> <Gold.Chemscore.Rot>
2.2706

> <Gold.Chemscore.Internal.Correction>
   9.000000E+99

> <Gold.Chemscore.Hbonds>
donor molecule, donor type, donor heavy atom, donor atom, acceptor molecule, acceptor atom, score
      P1  H  6896  6908       L1    23  0.40
      P1  H  6931  6943       L1    21  0.11
      P1  H  6934  6947       L1    21  0.01
      P1  H  7997  8008       L1     8  0.90

> <Gold.Chemscore.Hbond.Weighted>
-6.8812

> <Gold.Chemscore.Metal.Weighted>
-0.0000

> <Gold.Chemscore.Lipo.Weighted>
-11.9373

> <Gold.Chemscore.Internal_Hbond.Weighted>
0.0000

> <Gold.Chemscore.DEClash.Weighted>
0.1171

> <Gold.Chemscore.DEInternal.Weighted>
1.0373

> <Gold.Chemscore.Rot.Weighted>
5.8127

> <Gold.Chemscore.Internal.Correction.Weighted>
   9.000000E+99

> <Gold.Protein.RotatedTorsions>
[ 6907 6896 6895 6894 ] final -138.90 input  -60.11 | X-H torsion
[ 7974 7965 7964 7962 ] final   31.98 input  175.53 | X-H torsion
[ 8008 7997 7996 7995 ] final  -86.69 input   59.86 | X-H torsion
[ 10167 10162 10161 10158 ] final   26.98 input  -65.29 | X-H torsion
[ 10718 10713 10712 10709 ] final -111.88 input   66.30 | X-H torsion
[ 10763 10752 10751 10750 ] final   44.14 input  -60.55 | X-H torsion
[ 11005 11000 10999 10996 ] final  -19.03 input  -57.11 | X-H torsion

> <Gold.Protein.ActiveResidues>
 VAL166  LYS551  ARG553  GLY616  TRP617  ASP618  TYR619  PRO620  LYS621  CYS622 
 ASP623  PHE694  ASN695  SER759  ASP760  ASP761  ALA762  ILE779  LEU786  VAL792 
 PHE793  MET794  SER795  GLU796  ALA797  LYS798  CYS799  TRP800  GLU811  SER814 

> <Gold.Protein.RotatedAtoms>
  151.0409  133.5707  159.2651 H   0  0  0  0  0  0  0  0  0  0  0  0  # atno 6907 bound_to 6896
  151.2754  135.0697  159.9159 H   0  0  0  0  0  0  0  0  0  0  0  0  # atno 6908 bound_to 6896
  152.5364  134.0132  159.8002 H   0  0  0  0  0  0  0  0  0  0  0  0  # atno 6909 bound_to 6896
  146.1516  139.6586  142.9095 H   0  0  0  0  0  0  0  0  0  0  0  0  # atno 7974 bound_to 7965
  154.6548  140.0575  156.9996 H   0  0  0  0  0  0  0  0  0  0  0  0  # atno 8008 bound_to 7997
  155.1317  140.3257  155.4454 H   0  0  0  0  0  0  0  0  0  0  0  0  # atno 8009 bound_to 7997
  156.2592  140.1979  156.6436 H   0  0  0  0  0  0  0  0  0  0  0  0  # atno 8010 bound_to 7997
  140.4977  144.0365  150.6321 H   0  0  0  0  0  0  0  0  0  0  0  0  # atno 10167 bound_to 10162
  156.0672  130.5890  150.8433 H   0  0  0  0  0  0  0  0  0  0  0  0  # atno 10718 bound_to 10713
  152.9847  135.6080  154.3225 H   0  0  0  0  0  0  0  0  0  0  0  0  # atno 10763 bound_to 10752
  154.2934  135.2774  155.2646 H   0  0  0  0  0  0  0  0  0  0  0  0  # atno 10764 bound_to 10752
  154.4931  135.5887  153.6531 H   0  0  0  0  0  0  0  0  0  0  0  0  # atno 10765 bound_to 10752
  140.8326  133.7985  155.9775 H   0  0  0  0  0  0  0  0  0  0  0  0  # atno 11005 bound_to 11000
  145.4810  141.0438  143.2646 LP  0  0  0  0  0  0  0  0  0  0  0  0  # atno 17320 bound_to 7965
  144.7911  139.6327  143.7113 LP  0  0  0  0  0  0  0  0  0  0  0  0  # atno 17321 bound_to 7965
  140.3652  143.2885  152.0339 LP  0  0  0  0  0  0  0  0  0  0  0  0  # atno 17342 bound_to 10162
  139.4865  144.6272  151.7140 LP  0  0  0  0  0  0  0  0  0  0  0  0  # atno 17343 bound_to 10162
  157.5722  131.0946  150.9400 LP  0  0  0  0  0  0  0  0  0  0  0  0  # atno 17370 bound_to 10713
  156.9614  130.5457  149.5286 LP  0  0  0  0  0  0  0  0  0  0  0  0  # atno 17371 bound_to 10713
  140.8981  134.2412  157.5057 LP  0  0  0  0  0  0  0  0  0  0  0  0  # atno 17394 bound_to 11000
  139.8704  134.9694  156.4663 LP  0  0  0  0  0  0  0  0  0  0  0  0  # atno 17395 bound_to 11000

$$$$
