AV-unprocessed.smi:2775|AV-procd|sdf|10698|dock3
  -GOLD-   2272015133D 1   1.00000     0.00000
 Structure written by MMmdl.
 43 46  0  0  0  0  0  0  0  0  2 V2000
  145.0524  131.3722  151.3455 C   0  0  0  0  0  0  0  0  0  0  0  0
  144.7564  132.7898  151.7962 C   0  0  0  0  0  0  0  0  0  0  0  0
  143.4615  133.1685  151.8706 N   0  3  0  0  0  0  0  0  0  0  0  0
  143.0778  134.4041  152.2525 C   0  0  0  0  0  0  0  0  0  0  0  0
  144.0466  135.3648  152.6021 C   0  0  0  0  0  0  0  0  0  0  0  0
  145.4207  135.0167  152.5562 C   0  0  0  0  0  0  0  0  0  0  0  0
  146.4723  135.9188  152.8776 N   0  0  0  0  0  0  0  0  0  0  0  0
  146.4668  136.9924  153.6912 C   0  0  0  0  0  0  0  0  0  0  0  0
  145.4902  137.3951  154.3188 O   0  0  0  0  0  0  0  0  0  0  0  0
  147.6567  137.6119  153.7781 N   0  0  0  0  0  0  0  0  0  0  0  0
  147.9824  138.7986  154.5710 C   0  0  2  0  0  0  0  0  0  0  0  0
  147.7885  140.1057  153.7797 C   0  0  1  0  0  0  0  0  0  0  0  0
  146.7572  141.1058  154.2286 C   0  0  0  0  0  0  0  0  0  0  0  0
  147.5852  142.1149  155.0290 C   0  0  0  0  0  0  0  0  0  0  0  0
  148.7495  141.3924  155.4225 O   0  0  0  0  0  0  0  0  0  0  0  0
  149.1346  140.5705  154.3247 C   0  0  1  0  0  0  0  0  0  0  0  0
  149.4889  139.1196  154.6727 C   0  0  0  0  0  0  0  0  0  0  0  0
  150.5631  138.3751  153.8568 C   0  0  0  0  0  0  0  0  0  0  0  0
  151.0029  137.6755  155.1457 C   0  0  0  0  0  0  0  0  0  0  0  0
  150.2931  138.7794  155.9353 C   0  0  0  0  0  0  0  0  0  0  0  0
  145.7752  133.7115  152.1335 C   0  0  0  0  0  0  0  0  0  0  0  0
  147.4397  133.2418  152.0330 Cl  0  0  0  0  0  0  0  0  0  0  0  0
  145.6217  130.8420  152.1097 H   0  0  0  0  0  0  0  0  0  0  0  0
  145.6364  131.3813  150.4247 H   0  0  0  0  0  0  0  0  0  0  0  0
  144.1347  130.8128  151.1594 H   0  0  0  0  0  0  0  0  0  0  0  0
  142.0133  134.5884  152.2631 H   0  0  0  0  0  0  0  0  0  0  0  0
  143.7130  136.3502  152.8867 H   0  0  0  0  0  0  0  0  0  0  0  0
  147.3705  135.6839  152.4803 H   0  0  0  0  0  0  0  0  0  0  0  0
  148.4123  137.2252  153.2306 H   0  0  0  0  0  0  0  0  0  0  0  0
  147.4856  138.8471  155.5425 H   0  0  0  0  0  0  0  0  0  0  0  0
  147.8326  139.9523  152.6998 H   0  0  0  0  0  0  0  0  0  0  0  0
  146.2411  141.5814  153.3942 H   0  0  0  0  0  0  0  0  0  0  0  0
  146.0057  140.6330  154.8617 H   0  0  0  0  0  0  0  0  0  0  0  0
  147.8842  142.9520  154.3964 H   0  0  0  0  0  0  0  0  0  0  0  0
  147.0478  142.5124  155.8900 H   0  0  0  0  0  0  0  0  0  0  0  0
  149.7700  141.0672  153.5903 H   0  0  0  0  0  0  0  0  0  0  0  0
  150.1984  137.7055  153.0781 H   0  0  0  0  0  0  0  0  0  0  0  0
  151.3321  139.0451  153.4697 H   0  0  0  0  0  0  0  0  0  0  0  0
  150.5413  136.6962  155.2749 H   0  0  0  0  0  0  0  0  0  0  0  0
  152.0825  137.6346  155.2936 H   0  0  0  0  0  0  0  0  0  0  0  0
  150.9682  139.5832  156.2327 H   0  0  0  0  0  0  0  0  0  0  0  0
  149.6965  138.4232  156.7753 H   0  0  0  0  0  0  0  0  0  0  0  0
  142.7408  132.4904  151.6222 H   0  0  0  0  0  0  0  0  0  0  0  0
  1  2  1  0  0  0  0
  1 23  1  0  0  0  0
  1 24  1  0  0  0  0
  1 25  1  0  0  0  0
  2 21  1  0  0  0  0
  2  3  2  0  0  0  0
  3  4  1  0  0  0  0
  3 43  1  0  0  0  0
  4  5  2  0  0  0  0
  4 26  1  0  0  0  0
  5  6  1  0  0  0  0
  5 27  1  0  0  0  0
  6  7  1  0  0  0  0
  6 21  2  0  0  0  0
  7  8  1  0  0  0  0
  7 28  1  0  0  0  0
  8  9  2  0  0  0  0
  8 10  1  0  0  0  0
 10 11  1  0  0  0  0
 10 29  1  0  0  0  0
 11 17  1  0  0  0  0
 11 12  1  0  0  0  0
 11 30  1  0  0  0  0
 12 16  1  0  0  0  0
 12 13  1  0  0  0  0
 12 31  1  0  0  0  0
 13 14  1  0  0  0  0
 13 32  1  0  0  0  0
 13 33  1  0  0  0  0
 14 15  1  0  0  0  0
 14 34  1  0  0  0  0
 14 35  1  0  0  0  0
 15 16  1  0  0  0  0
 16 17  1  0  0  0  0
 16 36  1  0  0  0  0
 17 20  1  0  0  0  0
 17 18  1  0  0  0  0
 18 19  1  0  0  0  0
 18 37  1  0  0  0  0
 18 38  1  0  0  0  0
 19 20  1  0  0  0  0
 19 39  1  0  0  0  0
 19 40  1  0  0  0  0
 20 41  1  0  0  0  0
 20 42  1  0  0  0  0
 21 22  1  0  0  0  0
M  CHG  1   3   1
M  END
> <s_m_source_file>
AV-unprocessed.smi

> <i_m_source_file_index>
2775

> <i_lp_mmshare_version>
43012

> <i_f3d_flags>
0

> <s_epik_input>
W0NIM11jMW5bY0hdW2NIXWMoYzFDbClbTkhdQyg9TylbTkhdW0NAQEhdMltDQEhdKFtDSDJdW0NIMl1PMylbQ0BASF0zQzI0W0NIMl1bQ0gyXVtDSDJdNA==

> <s_epik_cmdline>
J2VwaWtfcHl0aG9uJywgJy1waCcsICc3LjAnLCAnLXRuJywgJzgnLCAnLW1hJywgJzIwMCcsICctbWV0YWxfYmluZGluZycsICctaW1hZScsICc8aW5maWxlLm1hZT4nLCAnLW9tYWUnLCAnPG91dGZpbGUubWFlPic=

> <r_epik_Ionization_Penalty>
2.4104

> <r_epik_Ionization_Penalty_Charging>
2.41038

> <r_epik_Ionization_Penalty_Neutral>
1.9872e-05

> <r_epik_State_Penalty>
2.56896

> <r_epik_Charging_Adjusted_Penalty>
4.97934

> <i_epik_Tot_Q>
1

> <i_epik_Tot_abs_Q>
1

> <r_epik_Metal_State_Penalty>
2.57906

> <b_epik_Metal_Only>
0

> <s_lp_Force_Field>
OPLS_2005

> <r_lp_Energy>
60.4392

> <b_lp_Chiralities_Consistent>
1

> <s_lp_Variant>
AV-unprocessed.smi:2775-11

> <Gold.Version>
5.8.1

> <Gold.Id.Protein>
6NUR|6NUR_protein|mol2

> <Gold.PLP.Fitness>
36.8165

> <Gold.PLP.PLP>
-31.3883

> <Gold.PLP.part.hbond>
-2.1748

> <Gold.PLP.part.metal>
0.0000

> <Gold.PLP.part.buried>
-2.0465

> <Gold.PLP.part.nonpolar>
-26.5297

> <Gold.PLP.part.repulsive>
0.1975

> <Gold.PLP.ligand.clash>
0.0000

> <Gold.PLP.ligand.torsion>
0.3826

> <Gold.PLP.Chemscore.Hbond>
2.0000

> <Gold.PLP.Chemscore.CHOScore>
0.0000

> <Gold.PLP.Chemscore.Metal>
0.0000

> <Gold.Chemscore.Hbonds>
donor molecule, donor type, donor heavy atom, donor atom, acceptor molecule, acceptor atom, score
      L1  H     7    28       P1  7948  0.99
      L1  H    10    29       P1  7948  1.00

> <Gold.PLP.Chemscore.Internal.Correction>
0.1934

> <Gold.Rescore>
     Score         DG    S(hbond)    S(metal)    S(lipo)     H(rot)  DE(clash)    DE(int)     intcor
     19.44     -20.12       1.92        0.00      92.34       1.00       0.16       0.52       ----

> <Gold.Chemscore.Fitness>
19.4385

> <Gold.Chemscore.DG>
-20.1196

> <Gold.Chemscore.ZeroCoef>
-5.4800

> <Gold.Chemscore.Hbond>
1.9151

> <Gold.Chemscore.Metal>
0.0000

> <Gold.Chemscore.Lipo>
92.3357

> <Gold.Chemscore.Internal_Hbond>
0.0000

> <Gold.Chemscore.DEClash>
0.1579

> <Gold.Chemscore.DEInternal>
0.5232

> <Gold.Chemscore.Rot>
1.0000

> <Gold.Chemscore.Internal.Correction>
   9.000000E+99

> <Gold.Chemscore.Hbonds>
donor molecule, donor type, donor heavy atom, donor atom, acceptor molecule, acceptor atom, score
      L1  H     7    28       P1  7948  0.94
      L1  H    10    29       P1  7948  0.94

> <Gold.Chemscore.Hbond.Weighted>
-6.3963

> <Gold.Chemscore.Metal.Weighted>
-0.0000

> <Gold.Chemscore.Lipo.Weighted>
-10.8033

> <Gold.Chemscore.Internal_Hbond.Weighted>
0.0000

> <Gold.Chemscore.DEClash.Weighted>
0.1579

> <Gold.Chemscore.DEInternal.Weighted>
0.5232

> <Gold.Chemscore.Rot.Weighted>
2.5600

> <Gold.Chemscore.Internal.Correction.Weighted>
   9.000000E+99

> <Gold.Protein.RotatedTorsions>
[ 6907 6896 6895 6894 ] final   26.91 input  -60.11 | X-H torsion
[ 7974 7965 7964 7962 ] final  126.72 input  175.53 | X-H torsion
[ 8008 7997 7996 7995 ] final  -30.54 input   59.86 | X-H torsion
[ 10167 10162 10161 10158 ] final   79.06 input  -65.29 | X-H torsion
[ 10718 10713 10712 10709 ] final   76.04 input   66.30 | X-H torsion
[ 10763 10752 10751 10750 ] final   15.39 input  -60.55 | X-H torsion
[ 11005 11000 10999 10996 ] final -178.11 input  -57.11 | X-H torsion

> <Gold.Protein.ActiveResidues>
 VAL166  LYS551  ARG553  GLY616  TRP617  ASP618  TYR619  PRO620  LYS621  CYS622 
 ASP623  PHE694  ASN695  SER759  ASP760  ASP761  ALA762  ILE779  LEU786  VAL792 
 PHE793  MET794  SER795  GLU796  ALA797  LYS798  CYS799  TRP800  GLU811  SER814 

> <Gold.Protein.RotatedAtoms>
  151.9944  134.9962  160.0562 H   0  0  0  0  0  0  0  0  0  0  0  0  # atno 6907 bound_to 6896
  152.1578  133.4557  159.4854 H   0  0  0  0  0  0  0  0  0  0  0  0  # atno 6908 bound_to 6896
  150.6883  134.2027  159.4371 H   0  0  0  0  0  0  0  0  0  0  0  0  # atno 6909 bound_to 6896
  145.0586  139.3824  143.5017 H   0  0  0  0  0  0  0  0  0  0  0  0  # atno 7974 bound_to 7965
  154.4246  140.1788  156.1424 H   0  0  0  0  0  0  0  0  0  0  0  0  # atno 8008 bound_to 7997
  155.9981  140.3362  155.6794 H   0  0  0  0  0  0  0  0  0  0  0  0  # atno 8009 bound_to 7997
  155.6281  140.0667  157.2648 H   0  0  0  0  0  0  0  0  0  0  0  0  # atno 8010 bound_to 7997
  139.9643  144.5939  150.8043 H   0  0  0  0  0  0  0  0  0  0  0  0  # atno 10167 bound_to 10162
  157.6658  130.9755  150.1440 H   0  0  0  0  0  0  0  0  0  0  0  0  # atno 10718 bound_to 10713
  153.1530  135.6782  153.8854 H   0  0  0  0  0  0  0  0  0  0  0  0  # atno 10763 bound_to 10752
  153.8275  135.3122  155.3417 H   0  0  0  0  0  0  0  0  0  0  0  0  # atno 10764 bound_to 10752
  154.7876  135.4853  154.0068 H   0  0  0  0  0  0  0  0  0  0  0  0  # atno 10765 bound_to 10752
  140.4334  134.6498  157.4723 H   0  0  0  0  0  0  0  0  0  0  0  0  # atno 11005 bound_to 11000
  146.3523  140.0273  142.8653 LP  0  0  0  0  0  0  0  0  0  0  0  0  # atno 17320 bound_to 7965
  145.1437  140.9585  143.4473 LP  0  0  0  0  0  0  0  0  0  0  0  0  # atno 17321 bound_to 7965
  140.7543  143.3024  151.3047 LP  0  0  0  0  0  0  0  0  0  0  0  0  # atno 17342 bound_to 10162
  139.6530  144.0328  152.2639 LP  0  0  0  0  0  0  0  0  0  0  0  0  # atno 17343 bound_to 10162
  156.2256  130.3677  149.8505 LP  0  0  0  0  0  0  0  0  0  0  0  0  # atno 17370 bound_to 10713
  156.6346  130.8680  151.3502 LP  0  0  0  0  0  0  0  0  0  0  0  0  # atno 17371 bound_to 10713
  140.0119  134.6678  155.9368 LP  0  0  0  0  0  0  0  0  0  0  0  0  # atno 17394 bound_to 11000
  141.1736  133.6539  156.4744 LP  0  0  0  0  0  0  0  0  0  0  0  0  # atno 17395 bound_to 11000

$$$$
