AV-unprocessed.smi:282|AV-procd|sdf|2121|dock5
  -GOLD-   2262021423D 1   1.00000     0.00000
 Structure written by MMmdl.
 65 69  0  0  0  0  0  0  0  0  2 V2000
  151.0603  139.9867  155.6975 C   0  0  0  0  0  0  0  0  0  0  0  0
  151.2772  141.3912  156.2769 C   0  0  0  0  0  0  0  0  0  0  0  0
  150.7372  141.5710  157.7169 C   0  0  2  0  0  0  0  0  0  0  0  0
  150.5782  143.0491  158.1300 C   0  0  0  0  0  0  0  0  0  0  0  0
  151.8947  143.7040  158.3546 N   0  3  1  0  0  0  0  0  0  0  0  0
  151.7928  145.1557  158.6564 C   0  0  0  0  0  0  0  0  0  0  0  0
  151.3206  145.4167  160.0995 C   0  0  0  0  0  0  0  0  0  0  0  0
  152.2195  144.6943  161.1122 C   0  0  0  0  0  0  0  0  0  0  0  0
  152.3083  143.1984  160.7787 C   0  0  0  0  0  0  0  0  0  0  0  0
  152.7713  142.9796  159.3211 C   0  0  1  0  0  0  0  0  0  0  0  0
  152.8911  141.4854  158.9611 C   0  0  0  0  0  0  0  0  0  0  0  0
  151.5808  140.8898  158.7021 N   0  0  0  0  0  0  0  0  0  0  0  0
  151.4684  139.5389  158.7746 C   0  0  0  0  0  0  0  0  0  0  0  0
  152.5088  138.8023  159.2475 N   0  0  0  0  0  0  0  0  0  0  0  0
  152.4165  137.4711  159.3165 C   0  0  0  0  0  0  0  0  0  0  0  0
  151.3909  136.6877  158.9785 N   0  0  0  0  0  0  0  0  0  0  0  0
  150.3389  137.4216  158.5149 C   0  0  0  0  0  0  0  0  0  0  0  0
  150.2958  138.8375  158.3760 C   0  0  0  0  0  0  0  0  0  0  0  0
  149.0588  139.2254  157.8750 N   0  0  0  0  0  0  0  0  0  0  0  0
  148.4115  138.1030  157.7198 C   0  0  0  0  0  0  0  0  0  0  0  0
  149.0978  136.9712  158.0982 N   0  0  0  0  0  0  0  0  0  0  0  0
  148.6222  135.5976  158.0365 C   0  0  0  0  0  0  0  0  0  0  0  0
  148.7306  134.9037  156.6402 C   0  0  0  0  0  0  0  0  0  0  0  0
  147.5641  133.8981  156.4264 C   0  0  0  0  0  0  0  0  0  0  0  0
  147.6236  133.2131  155.1904 O   0  0  0  0  0  0  0  0  0  0  0  0
  148.7796  135.9097  155.4607 C   0  0  0  0  0  0  0  0  0  0  0  0
  150.0807  136.7309  155.4355 C   0  0  0  0  0  0  0  0  0  0  0  0
  151.2011  135.8586  155.3654 O   0  0  0  0  0  0  0  0  0  0  0  0
  151.3037  134.9986  156.4928 C   0  0  0  0  0  0  0  0  0  0  0  0
  150.0552  134.1008  156.5885 C   0  0  0  0  0  0  0  0  0  0  0  0
  151.5464  139.8942  154.7261 H   0  0  0  0  0  0  0  0  0  0  0  0
  150.0038  139.7646  155.5517 H   0  0  0  0  0  0  0  0  0  0  0  0
  151.4805  139.2218  156.3510 H   0  0  0  0  0  0  0  0  0  0  0  0
  152.3502  141.5868  156.2710 H   0  0  0  0  0  0  0  0  0  0  0  0
  150.8357  142.1287  155.6063 H   0  0  0  0  0  0  0  0  0  0  0  0
  149.7417  141.1303  157.7389 H   0  0  0  0  0  0  0  0  0  0  0  0
  150.0112  143.6027  157.3824 H   0  0  0  0  0  0  0  0  0  0  0  0
  149.9872  143.0959  159.0448 H   0  0  0  0  0  0  0  0  0  0  0  0
  152.7760  145.6051  158.5107 H   0  0  0  0  0  0  0  0  0  0  0  0
  151.1269  145.6407  157.9417 H   0  0  0  0  0  0  0  0  0  0  0  0
  151.3243  146.4883  160.3010 H   0  0  0  0  0  0  0  0  0  0  0  0
  150.2884  145.0886  160.2235 H   0  0  0  0  0  0  0  0  0  0  0  0
  153.2176  145.1337  161.0946 H   0  0  0  0  0  0  0  0  0  0  0  0
  151.8357  144.8329  162.1233 H   0  0  0  0  0  0  0  0  0  0  0  0
  153.0039  142.7148  161.4654 H   0  0  0  0  0  0  0  0  0  0  0  0
  151.3399  142.7261  160.9464 H   0  0  0  0  0  0  0  0  0  0  0  0
  153.7694  143.4114  159.2327 H   0  0  0  0  0  0  0  0  0  0  0  0
  153.5116  141.3694  158.0719 H   0  0  0  0  0  0  0  0  0  0  0  0
  153.4000  140.9545  159.7671 H   0  0  0  0  0  0  0  0  0  0  0  0
  153.2879  136.9607  159.6992 H   0  0  0  0  0  0  0  0  0  0  0  0
  147.4045  138.0712  157.3307 H   0  0  0  0  0  0  0  0  0  0  0  0
  149.1680  135.0408  158.7963 H   0  0  0  0  0  0  0  0  0  0  0  0
  147.5831  135.5904  158.3679 H   0  0  0  0  0  0  0  0  0  0  0  0
  147.5697  133.1345  157.2049 H   0  0  0  0  0  0  0  0  0  0  0  0
  146.6024  134.4068  156.5011 H   0  0  0  0  0  0  0  0  0  0  0  0
  146.7570  132.9021  154.9777 H   0  0  0  0  0  0  0  0  0  0  0  0
  148.7079  135.3621  154.5197 H   0  0  0  0  0  0  0  0  0  0  0  0
  147.9203  136.5787  155.4727 H   0  0  0  0  0  0  0  0  0  0  0  0
  150.0917  137.3790  154.5590 H   0  0  0  0  0  0  0  0  0  0  0  0
  150.1622  137.3824  156.3062 H   0  0  0  0  0  0  0  0  0  0  0  0
  152.1938  134.3803  156.3750 H   0  0  0  0  0  0  0  0  0  0  0  0
  151.4540  135.5833  157.4005 H   0  0  0  0  0  0  0  0  0  0  0  0
  150.1365  133.4434  157.4550 H   0  0  0  0  0  0  0  0  0  0  0  0
  150.0547  133.4457  155.7163 H   0  0  0  0  0  0  0  0  0  0  0  0
  152.3654  143.6432  157.4632 H   0  0  0  0  0  0  0  0  0  0  0  0
  1  2  1  0  0  0  0
  1 31  1  0  0  0  0
  1 32  1  0  0  0  0
  1 33  1  0  0  0  0
  2  3  1  0  0  0  0
  2 34  1  0  0  0  0
  2 35  1  0  0  0  0
  3 12  1  0  0  0  0
  3  4  1  0  0  0  0
  3 36  1  0  0  0  0
  4  5  1  0  0  0  0
  4 37  1  0  0  0  0
  4 38  1  0  0  0  0
  5 10  1  0  0  0  0
  5  6  1  0  0  0  0
  5 65  1  0  0  0  0
  6  7  1  0  0  0  0
  6 39  1  0  0  0  0
  6 40  1  0  0  0  0
  7  8  1  0  0  0  0
  7 41  1  0  0  0  0
  7 42  1  0  0  0  0
  8  9  1  0  0  0  0
  8 43  1  0  0  0  0
  8 44  1  0  0  0  0
  9 10  1  0  0  0  0
  9 45  1  0  0  0  0
  9 46  1  0  0  0  0
 10 11  1  0  0  0  0
 10 47  1  0  0  0  0
 11 12  1  0  0  0  0
 11 48  1  0  0  0  0
 11 49  1  0  0  0  0
 12 13  1  0  0  0  0
 13 18  1  0  0  0  0
 13 14  2  0  0  0  0
 14 15  1  0  0  0  0
 15 16  2  0  0  0  0
 15 50  1  0  0  0  0
 16 17  1  0  0  0  0
 17 21  1  0  0  0  0
 17 18  2  0  0  0  0
 18 19  1  0  0  0  0
 19 20  2  0  0  0  0
 20 21  1  0  0  0  0
 20 51  1  0  0  0  0
 21 22  1  0  0  0  0
 22 23  1  0  0  0  0
 22 52  1  0  0  0  0
 22 53  1  0  0  0  0
 23 30  1  0  0  0  0
 23 24  1  0  0  0  0
 23 26  1  0  0  0  0
 24 25  1  0  0  0  0
 24 54  1  0  0  0  0
 24 55  1  0  0  0  0
 25 56  1  0  0  0  0
 26 27  1  0  0  0  0
 26 57  1  0  0  0  0
 26 58  1  0  0  0  0
 27 28  1  0  0  0  0
 27 59  1  0  0  0  0
 27 60  1  0  0  0  0
 28 29  1  0  0  0  0
 29 30  1  0  0  0  0
 29 61  1  0  0  0  0
 29 62  1  0  0  0  0
 30 63  1  0  0  0  0
 30 64  1  0  0  0  0
M  CHG  1   5   1
M  END
> <s_m_source_file>
AV-unprocessed.smi

> <i_m_source_file_index>
282

> <i_lp_mmshare_version>
43012

> <i_f3d_flags>
0

> <s_epik_input>
W0NIMl0xW0NIMl1bQ0gyXVtDSDJdW0NAQEhdKE4xMilbQ0gyXU4oW0NAQEhdKFtDSDJdMilbQ0gyXVtDSDNdKWMobltjSF1uMyljKGMzNCluW2NIXW40W0NIMl1DNShbQ0gyXVtPSF0pW0NIMl1bQ0gyXU9bQ0gyXVtDSDJdNQ==

> <s_epik_cmdline>
J2VwaWtfcHl0aG9uJywgJy1waCcsICc3LjAnLCAnLXRuJywgJzgnLCAnLW1hJywgJzIwMCcsICctbWV0YWxfYmluZGluZycsICctaW1hZScsICc8aW5maWxlLm1hZT4nLCAnLW9tYWUnLCAnPG91dGZpbGUubWFlPic=

> <r_lp_tautomer_probability>
1

> <r_epik_Ionization_Penalty>
0.00308583

> <r_epik_Ionization_Penalty_Charging>
0.00300384

> <r_epik_Ionization_Penalty_Neutral>
8.19894e-05

> <r_epik_State_Penalty>
-0

> <r_epik_Charging_Adjusted_Penalty>
0.00300384

> <i_epik_Tot_Q>
1

> <i_epik_Tot_abs_Q>
1

> <r_epik_Metal_State_Penalty>
-0

> <b_epik_Metal_Only>
0

> <s_lp_Force_Field>
OPLS_2005

> <r_lp_Energy>
61.1987

> <b_lp_Chiralities_Consistent>
1

> <s_lp_Variant>
AV-unprocessed.smi:282-5

> <Gold.Version>
5.8.1

> <Gold.Id.Protein>
6NUR|6NUR_protein|mol2

> <Gold.PLP.Fitness>
51.0005

> <Gold.PLP.PLP>
-47.5583

> <Gold.PLP.part.hbond>
-2.0000

> <Gold.PLP.part.metal>
0.0000

> <Gold.PLP.part.buried>
-8.5492

> <Gold.PLP.part.nonpolar>
-36.4562

> <Gold.PLP.part.repulsive>
0.1106

> <Gold.PLP.ligand.clash>
0.0000

> <Gold.PLP.ligand.torsion>
1.2881

> <Gold.PLP.Chemscore.Hbond>
1.9120

> <Gold.PLP.Chemscore.CHOScore>
0.0000

> <Gold.PLP.Chemscore.Metal>
0.0000

> <Gold.Chemscore.Hbonds>
donor molecule, donor type, donor heavy atom, donor atom, acceptor molecule, acceptor atom, score
      P1  H  6896  6909       L1    16  0.91
      P1  H 10752 10763       L1    28  1.00

> <Gold.PLP.Chemscore.Internal.Correction>
0.2824

> <Gold.Rescore>
     Score         DG    S(hbond)    S(metal)    S(lipo)     H(rot)  DE(clash)    DE(int)     intcor
     13.46     -20.13       1.78        0.00     122.70       2.20       0.04       6.63       ----

> <Gold.Chemscore.Fitness>
13.4589

> <Gold.Chemscore.DG>
-20.1252

> <Gold.Chemscore.ZeroCoef>
-5.4800

> <Gold.Chemscore.Hbond>
1.7760

> <Gold.Chemscore.Metal>
0.0000

> <Gold.Chemscore.Lipo>
122.7022

> <Gold.Chemscore.Internal_Hbond>
0.0000

> <Gold.Chemscore.DEClash>
0.0375

> <Gold.Chemscore.DEInternal>
6.6288

> <Gold.Chemscore.Rot>
2.2042

> <Gold.Chemscore.Internal.Correction>
   9.000000E+99

> <Gold.Chemscore.Hbonds>
donor molecule, donor type, donor heavy atom, donor atom, acceptor molecule, acceptor atom, score
      P1  H  6896  6909       L1    16  0.84
      P1  H 10752 10763       L1    28  0.25

> <Gold.Chemscore.Hbond.Weighted>
-5.9319

> <Gold.Chemscore.Metal.Weighted>
-0.0000

> <Gold.Chemscore.Lipo.Weighted>
-14.3562

> <Gold.Chemscore.Internal_Hbond.Weighted>
0.0000

> <Gold.Chemscore.DEClash.Weighted>
0.0375

> <Gold.Chemscore.DEInternal.Weighted>
6.6288

> <Gold.Chemscore.Rot.Weighted>
5.6429

> <Gold.Chemscore.Internal.Correction.Weighted>
   9.000000E+99

> <Gold.Protein.RotatedTorsions>
[ 6907 6896 6895 6894 ] final   98.37 input  -60.11 | X-H torsion
[ 7974 7965 7964 7962 ] final  146.10 input  175.53 | X-H torsion
[ 8008 7997 7996 7995 ] final   96.14 input   59.86 | X-H torsion
[ 10167 10162 10161 10158 ] final -143.05 input  -65.29 | X-H torsion
[ 10718 10713 10712 10709 ] final   75.68 input   66.30 | X-H torsion
[ 10763 10752 10751 10750 ] final   57.34 input  -60.55 | X-H torsion
[ 11005 11000 10999 10996 ] final  148.07 input  -57.11 | X-H torsion

> <Gold.Protein.ActiveResidues>
 VAL166  LYS551  ARG553  GLY616  TRP617  ASP618  TYR619  PRO620  LYS621  CYS622 
 ASP623  PHE694  ASN695  SER759  ASP760  ASP761  ALA762  ILE779  LEU786  VAL792 
 PHE793  MET794  SER795  GLU796  ALA797  LYS798  CYS799  TRP800  GLU811  SER814 

> <Gold.Protein.RotatedAtoms>
  152.5410  134.0591  159.8143 H   0  0  0  0  0  0  0  0  0  0  0  0  # atno 6907 bound_to 6896
  151.0721  133.5450  159.2633 H   0  0  0  0  0  0  0  0  0  0  0  0  # atno 6908 bound_to 6896
  151.2309  135.0562  159.9041 H   0  0  0  0  0  0  0  0  0  0  0  0  # atno 6909 bound_to 6896
  144.8699  139.5863  143.5892 H   0  0  0  0  0  0  0  0  0  0  0  0  # atno 7974 bound_to 7965
  156.0764  140.3277  155.7639 H   0  0  0  0  0  0  0  0  0  0  0  0  # atno 8008 bound_to 7997
  155.5223  140.0586  157.2922 H   0  0  0  0  0  0  0  0  0  0  0  0  # atno 8009 bound_to 7997
  154.4558  140.1942  156.0402 H   0  0  0  0  0  0  0  0  0  0  0  0  # atno 8010 bound_to 7997
  139.8030  143.7807  152.2659 H   0  0  0  0  0  0  0  0  0  0  0  0  # atno 10167 bound_to 10162
  157.6644  130.9738  150.1389 H   0  0  0  0  0  0  0  0  0  0  0  0  # atno 10718 bound_to 10713
  152.9848  135.5645  154.5375 H   0  0  0  0  0  0  0  0  0  0  0  0  # atno 10763 bound_to 10752
  154.4835  135.2789  155.1554 H   0  0  0  0  0  0  0  0  0  0  0  0  # atno 10764 bound_to 10752
  154.3053  135.6299  153.5495 H   0  0  0  0  0  0  0  0  0  0  0  0  # atno 10765 bound_to 10752
  140.0928  134.9030  157.1678 H   0  0  0  0  0  0  0  0  0  0  0  0  # atno 11005 bound_to 11000
  146.2922  139.7173  142.9152 LP  0  0  0  0  0  0  0  0  0  0  0  0  # atno 17320 bound_to 7965
  145.4151  141.0400  143.2995 LP  0  0  0  0  0  0  0  0  0  0  0  0  # atno 17321 bound_to 7965
  139.7933  144.7402  150.9925 LP  0  0  0  0  0  0  0  0  0  0  0  0  # atno 17342 bound_to 10162
  140.7820  143.4420  151.0538 LP  0  0  0  0  0  0  0  0  0  0  0  0  # atno 17343 bound_to 10162
  156.2216  130.3674  149.8549 LP  0  0  0  0  0  0  0  0  0  0  0  0  # atno 17370 bound_to 10713
  156.6400  130.8701  151.3512 LP  0  0  0  0  0  0  0  0  0  0  0  0  # atno 17371 bound_to 10713
  140.3327  134.2791  155.7225 LP  0  0  0  0  0  0  0  0  0  0  0  0  # atno 17394 bound_to 11000
  141.2083  133.7781  157.0066 LP  0  0  0  0  0  0  0  0  0  0  0  0  # atno 17395 bound_to 11000

$$$$
