AV-unprocessed.smi:1131|AV-procd|sdf|4850|dock8
  -GOLD-   22720 3423D 1   1.00000     0.00000
 Structure written by MMmdl.
 33 34  0  0  0  0  0  0  0  0  1 V2000
  145.2541  138.4728  154.2927 O   0  0  0  0  0  0  0  0  0  0  0  0
  146.0611  137.8823  153.5732 C   0  0  0  0  0  0  0  0  0  0  0  0
  145.5891  136.8355  152.5536 C   0  0  0  0  0  0  0  0  0  0  0  0
  144.2700  136.2707  152.8744 N   0  0  0  0  0  0  0  0  0  0  0  0
  143.1178  137.0109  152.6493 C   0  0  0  0  0  0  0  0  0  0  0  0
  141.8733  136.5584  152.9329 C   0  0  0  0  0  0  0  0  0  0  0  0
  141.6833  135.2307  153.5071 C   0  0  0  0  0  0  0  0  0  0  0  0
  140.5981  134.7321  153.7969 O   0  0  0  0  0  0  0  0  0  0  0  0
  142.8662  134.5182  153.7215 N   0  0  0  0  0  0  0  0  0  0  0  0
  144.1516  134.9789  153.4325 C   0  0  0  0  0  0  0  0  0  0  0  0
  145.1295  134.2693  153.6651 O   0  0  0  0  0  0  0  0  0  0  0  0
  147.3814  138.1172  153.6072 N   0  0  0  0  0  0  0  0  0  0  0  0
  148.0407  139.0754  154.4881 C   0  0  0  0  0  0  0  0  0  0  0  0
  149.5374  139.2325  154.1580 C   0  0  2  0  0  0  0  0  0  0  0  0
  150.3883  138.0160  154.4653 C   0  0  0  0  0  0  0  0  0  0  0  0
  151.7892  138.6174  154.5090 C   0  0  0  0  0  0  0  0  0  0  0  0
  151.6254  139.9504  154.9844 O   0  0  0  0  0  0  0  0  0  0  0  0
  150.2453  140.3050  154.9851 C   0  0  0  0  0  0  0  0  0  0  0  0
  142.7843  133.5946  154.1209 H   0  0  0  0  0  0  0  0  0  0  0  0
  145.5691  137.3059  151.5691 H   0  0  0  0  0  0  0  0  0  0  0  0
  146.3306  136.0376  152.4758 H   0  0  0  0  0  0  0  0  0  0  0  0
  143.2110  138.0023  152.2293 H   0  0  0  0  0  0  0  0  0  0  0  0
  141.0139  137.1829  152.7354 H   0  0  0  0  0  0  0  0  0  0  0  0
  147.9732  137.5923  152.9798 H   0  0  0  0  0  0  0  0  0  0  0  0
  147.5368  140.0418  154.4287 H   0  0  0  0  0  0  0  0  0  0  0  0
  147.9175  138.7281  155.5143 H   0  0  0  0  0  0  0  0  0  0  0  0
  149.6567  139.4816  153.1021 H   0  0  0  0  0  0  0  0  0  0  0  0
  150.1269  137.6043  155.4411 H   0  0  0  0  0  0  0  0  0  0  0  0
  150.2918  137.2239  153.7223 H   0  0  0  0  0  0  0  0  0  0  0  0
  152.4680  138.0476  155.1439 H   0  0  0  0  0  0  0  0  0  0  0  0
  152.2168  138.6574  153.5065 H   0  0  0  0  0  0  0  0  0  0  0  0
  150.0925  141.3078  154.5857 H   0  0  0  0  0  0  0  0  0  0  0  0
  149.8910  140.2960  156.0168 H   0  0  0  0  0  0  0  0  0  0  0  0
  1  2  2  0  0  0  0
  2  3  1  0  0  0  0
  2 12  1  0  0  0  0
  3  4  1  0  0  0  0
  3 20  1  0  0  0  0
  3 21  1  0  0  0  0
  4 10  1  0  0  0  0
  4  5  1  0  0  0  0
  5  6  2  0  0  0  0
  5 22  1  0  0  0  0
  6  7  1  0  0  0  0
  6 23  1  0  0  0  0
  7  8  2  0  0  0  0
  7  9  1  0  0  0  0
  9 19  1  0  0  0  0
  9 10  1  0  0  0  0
 10 11  2  0  0  0  0
 12 13  1  0  0  0  0
 12 24  1  0  0  0  0
 13 14  1  0  0  0  0
 13 25  1  0  0  0  0
 13 26  1  0  0  0  0
 14 18  1  0  0  0  0
 14 15  1  0  0  0  0
 14 27  1  0  0  0  0
 15 16  1  0  0  0  0
 15 28  1  0  0  0  0
 15 29  1  0  0  0  0
 16 17  1  0  0  0  0
 16 30  1  0  0  0  0
 16 31  1  0  0  0  0
 17 18  1  0  0  0  0
 18 32  1  0  0  0  0
 18 33  1  0  0  0  0
M  END
> <s_m_source_file>
AV-unprocessed.smi

> <i_m_source_file_index>
1131

> <i_lp_mmshare_version>
43012

> <i_f3d_flags>
0

> <s_epik_input>
W0NIMl0xT1tDSDJdW0NIMl1bQ0BIXTFbQ0gyXVtOSF1DKD1PKVtDSDJdbjJbY0hdW2NIXWMoPU8pW25IXWMyPU8=

> <s_epik_cmdline>
J2VwaWtfcHl0aG9uJywgJy1waCcsICc3LjAnLCAnLXRuJywgJzgnLCAnLW1hJywgJzIwMCcsICctbWV0YWxfYmluZGluZycsICctaW1hZScsICc8aW5maWxlLm1hZT4nLCAnLW9tYWUnLCAnPG91dGZpbGUubWFlPic=

> <r_lp_tautomer_probability>
0.999537

> <r_epik_Ionization_Penalty>
0.00329016

> <r_epik_Ionization_Penalty_Charging>
0.00329014

> <r_epik_Ionization_Penalty_Neutral>
1.87063e-08

> <r_epik_State_Penalty>
0.00232461

> <r_epik_Charging_Adjusted_Penalty>
0.00561475

> <i_epik_Tot_Q>
0

> <i_epik_Tot_abs_Q>
0

> <r_epik_Metal_State_Penalty>
0.365289

> <b_epik_Metal_Only>
0

> <s_lp_Force_Field>
OPLS_2005

> <r_lp_Energy>
17.5195

> <b_lp_Chiralities_Consistent>
1

> <s_lp_Variant>
AV-unprocessed.smi:1131-1

> <Gold.Version>
5.8.1

> <Gold.Id.Protein>
6NUR|6NUR_protein|mol2

> <Gold.PLP.Fitness>
41.2797

> <Gold.PLP.PLP>
-27.2199

> <Gold.PLP.part.hbond>
-5.0000

> <Gold.PLP.part.metal>
0.0000

> <Gold.PLP.part.buried>
-4.7926

> <Gold.PLP.part.nonpolar>
-17.9647

> <Gold.PLP.part.repulsive>
0.5967

> <Gold.PLP.ligand.clash>
0.0000

> <Gold.PLP.ligand.torsion>
0.5556

> <Gold.PLP.Chemscore.Hbond>
3.1523

> <Gold.PLP.Chemscore.CHOScore>
1.9015

> <Gold.PLP.Chemscore.Metal>
0.0000

> <Gold.Chemscore.Hbonds>
donor molecule, donor type, donor heavy atom, donor atom, acceptor molecule, acceptor atom, score
      L1  H     9    19       P1 10957  1.00
      L1  H    12    24       P1  7948  1.00
      P1  H  7989  7998       L1    17  0.20
      P1  H 10995 11001       L1     8  0.02
      P1  H 11000 11005       L1     8  1.00
      L1  C     5    22       P1 10171  0.89
      L1  C     5    22       P1 10175  1.00

> <Gold.PLP.Chemscore.Internal.Correction>
0.0096

> <Gold.Rescore>
     Score         DG    S(hbond)    S(metal)    S(lipo)     H(rot)  DE(clash)    DE(int)     intcor
     15.05     -15.74       3.03        0.00      46.94       2.09       0.02       0.67       ----

> <Gold.Chemscore.Fitness>
15.0531

> <Gold.Chemscore.DG>
-15.7426

> <Gold.Chemscore.ZeroCoef>
-5.4800

> <Gold.Chemscore.Hbond>
3.0318

> <Gold.Chemscore.Metal>
0.0000

> <Gold.Chemscore.Lipo>
46.9358

> <Gold.Chemscore.Internal_Hbond>
0.0000

> <Gold.Chemscore.DEClash>
0.0195

> <Gold.Chemscore.DEInternal>
0.6700

> <Gold.Chemscore.Rot>
2.0919

> <Gold.Chemscore.Internal.Correction>
   9.000000E+99

> <Gold.Chemscore.Hbonds>
donor molecule, donor type, donor heavy atom, donor atom, acceptor molecule, acceptor atom, score
      L1  H     9    19       P1 10957  0.99
      L1  H    12    24       P1  7948  0.95
      P1  H 10995 11001       L1     8  0.02
      P1  H 11000 11005       L1     8  0.88

> <Gold.Chemscore.Hbond.Weighted>
-10.1263

> <Gold.Chemscore.Metal.Weighted>
-0.0000

> <Gold.Chemscore.Lipo.Weighted>
-5.4915

> <Gold.Chemscore.Internal_Hbond.Weighted>
0.0000

> <Gold.Chemscore.DEClash.Weighted>
0.0195

> <Gold.Chemscore.DEInternal.Weighted>
0.6700

> <Gold.Chemscore.Rot.Weighted>
5.3552

> <Gold.Chemscore.Internal.Correction.Weighted>
   9.000000E+99

> <Gold.Protein.RotatedTorsions>
[ 6907 6896 6895 6894 ] final  -52.28 input  -60.11 | X-H torsion
[ 7974 7965 7964 7962 ] final  170.07 input  175.53 | X-H torsion
[ 8008 7997 7996 7995 ] final -140.86 input   59.86 | X-H torsion
[ 10167 10162 10161 10158 ] final  -49.47 input  -65.29 | X-H torsion
[ 10718 10713 10712 10709 ] final  -25.34 input   66.30 | X-H torsion
[ 10763 10752 10751 10750 ] final   -3.15 input  -60.55 | X-H torsion
[ 11005 11000 10999 10996 ] final   22.42 input  -57.11 | X-H torsion

> <Gold.Protein.ActiveResidues>
 VAL166  LYS551  ARG553  GLY616  TRP617  ASP618  TYR619  PRO620  LYS621  CYS622 
 ASP623  PHE694  ASN695  SER759  ASP760  ASP761  ALA762  ILE779  LEU786  VAL792 
 PHE793  MET794  SER795  GLU796  ALA797  LYS798  CYS799  TRP800  GLU811  SER814 

> <Gold.Protein.RotatedAtoms>
  150.8533  134.7864  159.7025 H   0  0  0  0  0  0  0  0  0  0  0  0  # atno 6907 bound_to 6896
  152.4592  134.5220  159.9795 H   0  0  0  0  0  0  0  0  0  0  0  0  # atno 6908 bound_to 6896
  151.5337  133.3406  159.2958 H   0  0  0  0  0  0  0  0  0  0  0  0  # atno 6909 bound_to 6896
  144.7335  139.9147  143.6417 H   0  0  0  0  0  0  0  0  0  0  0  0  # atno 7974 bound_to 7965
  155.4684  140.0551  157.2982 H   0  0  0  0  0  0  0  0  0  0  0  0  # atno 8008 bound_to 7997
  154.4708  140.2039  155.9953 H   0  0  0  0  0  0  0  0  0  0  0  0  # atno 8009 bound_to 7997
  156.1053  140.3212  155.8002 H   0  0  0  0  0  0  0  0  0  0  0  0  # atno 8010 bound_to 7997
  140.6684  143.2696  151.4219 H   0  0  0  0  0  0  0  0  0  0  0  0  # atno 10167 bound_to 10162
  156.4656  130.4513  149.6901 H   0  0  0  0  0  0  0  0  0  0  0  0  # atno 10718 bound_to 10713
  153.3675  135.6993  153.6663 H   0  0  0  0  0  0  0  0  0  0  0  0  # atno 10763 bound_to 10752
  153.5327  135.3589  155.2683 H   0  0  0  0  0  0  0  0  0  0  0  0  # atno 10764 bound_to 10752
  154.8677  135.4184  154.2946 H   0  0  0  0  0  0  0  0  0  0  0  0  # atno 10765 bound_to 10752
  140.3808  134.1922  155.7663 H   0  0  0  0  0  0  0  0  0  0  0  0  # atno 11005 bound_to 11000
  146.0974  139.3967  143.0368 LP  0  0  0  0  0  0  0  0  0  0  0  0  # atno 17320 bound_to 7965
  145.7626  140.9929  143.1192 LP  0  0  0  0  0  0  0  0  0  0  0  0  # atno 17321 bound_to 7965
  139.5941  144.1435  152.2123 LP  0  0  0  0  0  0  0  0  0  0  0  0  # atno 17342 bound_to 10162
  140.0799  144.5709  150.7130 LP  0  0  0  0  0  0  0  0  0  0  0  0  # atno 17343 bound_to 10162
  156.3671  130.7511  151.2490 LP  0  0  0  0  0  0  0  0  0  0  0  0  # atno 17370 bound_to 10713
  157.7495  131.0334  150.4268 LP  0  0  0  0  0  0  0  0  0  0  0  0  # atno 17371 bound_to 10713
  141.1924  133.8174  157.0841 LP  0  0  0  0  0  0  0  0  0  0  0  0  # atno 17394 bound_to 11000
  140.0480  134.9820  157.1084 LP  0  0  0  0  0  0  0  0  0  0  0  0  # atno 17395 bound_to 11000

$$$$
