AV-unprocessed.smi:2033|AV-procd|sdf|8259|dock2
  -GOLD-   2272010533D 1   1.00000     0.00000
 Structure written by MMmdl.
 33 34  0  0  0  0  0  0  0  0  1 V2000
  146.5914  142.5131  154.5961 C   0  0  0  0  0  0  0  0  0  0  0  0
  146.4919  141.0464  154.3502 C   0  0  0  0  0  0  0  0  0  0  0  0
  145.8526  140.2135  155.1807 N   0  0  0  0  0  0  0  0  0  0  0  0
  145.8964  138.8973  154.7423 N   0  0  0  0  0  0  0  0  0  0  0  0
  146.5700  138.7763  153.5901 C   0  0  0  0  0  0  0  0  0  0  0  0
  146.7676  137.5412  152.9177 N   0  0  0  0  0  0  0  0  0  0  0  0
  145.8746  136.5600  152.6979 C   0  0  0  0  0  0  0  0  0  0  0  0
  144.6974  136.5747  153.0585 O   0  0  0  0  0  0  0  0  0  0  0  0
  146.4297  135.5415  152.0249 N   0  0  0  0  0  0  0  0  0  0  0  0
  145.7381  134.3268  151.5926 C   0  0  2  0  0  0  0  0  0  0  0  0
  146.7206  133.3572  150.8872 C   0  0  0  0  0  0  0  0  0  0  0  0
  146.0876  132.3437  149.9106 C   0  0  0  0  0  0  0  0  0  0  0  0
  144.9326  131.4989  150.4857 C   0  0  0  0  0  0  0  0  0  0  0  0
  143.7360  132.2732  151.0900 C   0  0  0  0  0  0  0  0  0  0  0  0
  143.5851  133.6405  150.5926 N   0  0  0  0  0  0  0  0  0  0  0  0
  144.4519  134.6454  150.8067 C   0  0  0  0  0  0  0  0  0  0  0  0
  144.2431  135.7776  150.3727 O   0  0  0  0  0  0  0  0  0  0  0  0
  147.2134  140.2759  152.9428 S   0  0  0  0  0  0  0  0  0  0  0  0
  145.8951  142.8204  155.3772 H   0  0  0  0  0  0  0  0  0  0  0  0
  146.3553  143.0616  153.6842 H   0  0  0  0  0  0  0  0  0  0  0  0
  147.6035  142.7697  154.9086 H   0  0  0  0  0  0  0  0  0  0  0  0
  147.6987  137.3878  152.5595 H   0  0  0  0  0  0  0  0  0  0  0  0
  147.4025  135.6161  151.7651 H   0  0  0  0  0  0  0  0  0  0  0  0
  145.3976  133.8372  152.5059 H   0  0  0  0  0  0  0  0  0  0  0  0
  147.4578  133.9343  150.3271 H   0  0  0  0  0  0  0  0  0  0  0  0
  147.2869  132.8168  151.6465 H   0  0  0  0  0  0  0  0  0  0  0  0
  145.7400  132.8675  149.0191 H   0  0  0  0  0  0  0  0  0  0  0  0
  146.8681  131.6706  149.5545 H   0  0  0  0  0  0  0  0  0  0  0  0
  144.5589  130.8658  149.6805 H   0  0  0  0  0  0  0  0  0  0  0  0
  145.3230  130.8116  151.2369 H   0  0  0  0  0  0  0  0  0  0  0  0
  142.8127  131.7302  150.8869 H   0  0  0  0  0  0  0  0  0  0  0  0
  143.8182  132.2986  152.1770 H   0  0  0  0  0  0  0  0  0  0  0  0
  142.7493  133.8437  150.0636 H   0  0  0  0  0  0  0  0  0  0  0  0
  1  2  1  0  0  0  0
  1 19  1  0  0  0  0
  1 20  1  0  0  0  0
  1 21  1  0  0  0  0
  2 18  1  0  0  0  0
  2  3  2  0  0  0  0
  3  4  1  0  0  0  0
  4  5  2  0  0  0  0
  5  6  1  0  0  0  0
  5 18  1  0  0  0  0
  6  7  1  0  0  0  0
  6 22  1  0  0  0  0
  7  8  2  0  0  0  0
  7  9  1  0  0  0  0
  9 10  1  0  0  0  0
  9 23  1  0  0  0  0
 10 16  1  0  0  0  0
 10 11  1  0  0  0  0
 10 24  1  0  0  0  0
 11 12  1  0  0  0  0
 11 25  1  0  0  0  0
 11 26  1  0  0  0  0
 12 13  1  0  0  0  0
 12 27  1  0  0  0  0
 12 28  1  0  0  0  0
 13 14  1  0  0  0  0
 13 29  1  0  0  0  0
 13 30  1  0  0  0  0
 14 15  1  0  0  0  0
 14 31  1  0  0  0  0
 14 32  1  0  0  0  0
 15 16  1  0  0  0  0
 15 33  1  0  0  0  0
 16 17  2  0  0  0  0
M  END
> <s_m_source_file>
AV-unprocessed.smi

> <i_m_source_file_index>
2033

> <i_lp_mmshare_version>
43012

> <i_f3d_flags>
0

> <s_epik_input>
W0NIM11jMW5uYyhzMSlbTkhdQyg9TylbTkhdW0NAQEhdMltDSDJdW0NIMl1bQ0gyXVtDSDJdW05IXUMyPU8=

> <s_epik_cmdline>
J2VwaWtfcHl0aG9uJywgJy1waCcsICc3LjAnLCAnLXRuJywgJzgnLCAnLW1hJywgJzIwMCcsICctbWV0YWxfYmluZGluZycsICctaW1hZScsICc8aW5maWxlLm1hZT4nLCAnLW9tYWUnLCAnPG91dGZpbGUubWFlPic=

> <r_lp_tautomer_probability>
1

> <r_epik_Ionization_Penalty>
0.00079266

> <r_epik_Ionization_Penalty_Charging>
0

> <r_epik_Ionization_Penalty_Neutral>
0.00079266

> <r_epik_State_Penalty>
-0

> <r_epik_Charging_Adjusted_Penalty>
0

> <i_epik_Tot_Q>
0

> <i_epik_Tot_abs_Q>
0

> <r_epik_Metal_State_Penalty>
0.265831

> <b_epik_Metal_Only>
0

> <s_lp_Force_Field>
OPLS_2005

> <r_lp_Energy>
13.3352

> <b_lp_Chiralities_Consistent>
1

> <s_lp_Variant>
AV-unprocessed.smi:2033-1

> <Gold.Version>
5.8.1

> <Gold.Id.Protein>
6NUR|6NUR_protein|mol2

> <Gold.PLP.Fitness>
35.9886

> <Gold.PLP.PLP>
-27.7442

> <Gold.PLP.part.hbond>
-3.0000

> <Gold.PLP.part.metal>
0.0000

> <Gold.PLP.part.buried>
-3.9933

> <Gold.PLP.part.nonpolar>
-23.6337

> <Gold.PLP.part.repulsive>
2.2515

> <Gold.PLP.ligand.clash>
0.0000

> <Gold.PLP.ligand.torsion>
0.3915

> <Gold.PLP.Chemscore.Hbond>
2.9920

> <Gold.PLP.Chemscore.CHOScore>
0.0000

> <Gold.PLP.Chemscore.Metal>
0.0000

> <Gold.Chemscore.Hbonds>
donor molecule, donor type, donor heavy atom, donor atom, acceptor molecule, acceptor atom, score
      L1  H     6    22       P1  7948  0.99
      L1  H     9    23       P1  7948  1.00
      L1  H    15    33       P1 10186  1.00

> <Gold.PLP.Chemscore.Internal.Correction>
0.0514

> <Gold.Rescore>
     Score         DG    S(hbond)    S(metal)    S(lipo)     H(rot)  DE(clash)    DE(int)     intcor
     18.54     -19.17       2.92        0.00      55.65       1.00       0.19       0.44       ----

> <Gold.Chemscore.Fitness>
18.5357

> <Gold.Chemscore.DG>
-19.1690

> <Gold.Chemscore.ZeroCoef>
-5.4800

> <Gold.Chemscore.Hbond>
2.9157

> <Gold.Chemscore.Metal>
0.0000

> <Gold.Chemscore.Lipo>
55.6462

> <Gold.Chemscore.Internal_Hbond>
0.0000

> <Gold.Chemscore.DEClash>
0.1889

> <Gold.Chemscore.DEInternal>
0.4444

> <Gold.Chemscore.Rot>
1.0000

> <Gold.Chemscore.Internal.Correction>
   9.000000E+99

> <Gold.Chemscore.Hbonds>
donor molecule, donor type, donor heavy atom, donor atom, acceptor molecule, acceptor atom, score
      L1  H     6    22       P1  7948  0.94
      L1  H     9    23       P1  7948  0.98
      L1  H    15    33       P1 10186  0.99

> <Gold.Chemscore.Hbond.Weighted>
-9.7384

> <Gold.Chemscore.Metal.Weighted>
-0.0000

> <Gold.Chemscore.Lipo.Weighted>
-6.5106

> <Gold.Chemscore.Internal_Hbond.Weighted>
0.0000

> <Gold.Chemscore.DEClash.Weighted>
0.1889

> <Gold.Chemscore.DEInternal.Weighted>
0.4444

> <Gold.Chemscore.Rot.Weighted>
2.5600

> <Gold.Chemscore.Internal.Correction.Weighted>
   9.000000E+99

> <Gold.Protein.RotatedTorsions>
[ 6907 6896 6895 6894 ] final  -43.93 input  -60.11 | X-H torsion
[ 7974 7965 7964 7962 ] final  -98.87 input  175.53 | X-H torsion
[ 8008 7997 7996 7995 ] final -127.43 input   59.86 | X-H torsion
[ 10167 10162 10161 10158 ] final   79.66 input  -65.29 | X-H torsion
[ 10718 10713 10712 10709 ] final  166.12 input   66.30 | X-H torsion
[ 10763 10752 10751 10750 ] final  113.20 input  -60.55 | X-H torsion
[ 11005 11000 10999 10996 ] final    6.11 input  -57.11 | X-H torsion

> <Gold.Protein.ActiveResidues>
 VAL166  LYS551  ARG553  GLY616  TRP617  ASP618  TYR619  PRO620  LYS621  CYS622 
 ASP623  PHE694  ASN695  SER759  ASP760  ASP761  ALA762  ILE779  LEU786  VAL792 
 PHE793  MET794  SER795  GLU796  ALA797  LYS798  CYS799  TRP800  GLU811  SER814 

> <Gold.Protein.RotatedAtoms>
  150.9385  134.8795  159.7596 H   0  0  0  0  0  0  0  0  0  0  0  0  # atno 6907 bound_to 6896
  152.5069  134.3977  159.9415 H   0  0  0  0  0  0  0  0  0  0  0  0  # atno 6908 bound_to 6896
  151.3999  133.3721  159.2766 H   0  0  0  0  0  0  0  0  0  0  0  0  # atno 6909 bound_to 6896
  145.3150  140.9409  143.2748 H   0  0  0  0  0  0  0  0  0  0  0  0  # atno 7974 bound_to 7965
  155.2460  140.0430  157.2981 H   0  0  0  0  0  0  0  0  0  0  0  0  # atno 8008 bound_to 7997
  154.5798  140.2397  155.8039 H   0  0  0  0  0  0  0  0  0  0  0  0  # atno 8009 bound_to 7997
  156.2185  140.2977  155.9904 H   0  0  0  0  0  0  0  0  0  0  0  0  # atno 8010 bound_to 7997
  139.9579  144.5981  150.8099 H   0  0  0  0  0  0  0  0  0  0  0  0  # atno 10167 bound_to 10162
  157.0705  131.0365  151.2613 H   0  0  0  0  0  0  0  0  0  0  0  0  # atno 10718 bound_to 10713
  153.4890  135.3663  155.2481 H   0  0  0  0  0  0  0  0  0  0  0  0  # atno 10763 bound_to 10752
  154.8753  135.3972  154.3611 H   0  0  0  0  0  0  0  0  0  0  0  0  # atno 10764 bound_to 10752
  153.4228  135.7080  153.6348 H   0  0  0  0  0  0  0  0  0  0  0  0  # atno 10765 bound_to 10752
  140.5632  134.0173  155.7979 H   0  0  0  0  0  0  0  0  0  0  0  0  # atno 11005 bound_to 11000
  144.8985  139.4680  143.6644 LP  0  0  0  0  0  0  0  0  0  0  0  0  # atno 17320 bound_to 7965
  146.3104  139.7726  142.9024 LP  0  0  0  0  0  0  0  0  0  0  0  0  # atno 17321 bound_to 7965
  140.7562  143.3062  151.2957 LP  0  0  0  0  0  0  0  0  0  0  0  0  # atno 17342 bound_to 10162
  139.6577  144.0247  152.2671 LP  0  0  0  0  0  0  0  0  0  0  0  0  # atno 17343 bound_to 10162
  157.4882  130.7806  149.7481 LP  0  0  0  0  0  0  0  0  0  0  0  0  # atno 17370 bound_to 10713
  155.9952  130.3913  150.2829 LP  0  0  0  0  0  0  0  0  0  0  0  0  # atno 17371 bound_to 10713
  141.1102  133.9629  157.2924 LP  0  0  0  0  0  0  0  0  0  0  0  0  # atno 17394 bound_to 11000
  139.9398  135.0192  156.8671 LP  0  0  0  0  0  0  0  0  0  0  0  0  # atno 17395 bound_to 11000

$$$$
