AV-unprocessed.smi:213|AV-procd|sdf|1642|dock6
  -GOLD-   2262020 13D 1   1.00000     0.00000
 Structure written by MMmdl.
 58 61  0  0  0  0  0  0  0  0  1 V2000
  151.4474  137.7288  158.3028 C   0  0  0  0  0  0  0  0  0  0  0  0
  151.2094  139.2284  158.5585 C   0  0  1  0  0  0  0  0  0  0  0  0
  152.3562  139.9602  159.2981 C   0  0  0  0  0  0  0  0  0  0  0  0
  152.0025  141.2126  159.9723 N   0  0  0  0  0  0  0  0  0  0  0  0
  151.8363  142.2936  159.0041 C   0  0  0  0  0  0  0  0  0  0  0  0
  151.4595  143.6237  159.6791 C   0  0  0  0  0  0  0  0  0  0  0  0
  152.4533  143.9696  160.6372 O   0  0  0  0  0  0  0  0  0  0  0  0
  152.6282  142.9635  161.6285 C   0  0  0  0  0  0  0  0  0  0  0  0
  153.0029  141.6321  160.9537 C   0  0  0  0  0  0  0  0  0  0  0  0
  150.9262  139.9020  157.2886 N   0  0  0  0  0  0  0  0  0  0  0  0
  151.7914  139.7249  156.1253 C   0  0  0  0  0  0  0  0  0  0  0  0
  149.7902  140.6309  157.1430 C   0  0  0  0  0  0  0  0  0  0  0  0
  149.2227  141.1700  158.2543 N   0  0  0  0  0  0  0  0  0  0  0  0
  148.1105  141.9040  158.1586 C   0  0  0  0  0  0  0  0  0  0  0  0
  147.4051  142.2114  157.0689 N   0  0  0  0  0  0  0  0  0  0  0  0
  147.9571  141.6580  155.9519 C   0  0  0  0  0  0  0  0  0  0  0  0
  149.1370  140.8620  155.8966 C   0  0  0  0  0  0  0  0  0  0  0  0
  149.3720  140.4658  154.5836 N   0  0  0  0  0  0  0  0  0  0  0  0
  148.3958  141.0028  153.9045 C   0  0  0  0  0  0  0  0  0  0  0  0
  147.4998  141.7348  154.6489 N   0  0  0  0  0  0  0  0  0  0  0  0
  146.3234  142.4320  154.1607 C   0  0  0  0  0  0  0  0  0  0  0  0
  145.6734  143.3141  155.2445 C   0  0  2  0  0  0  0  0  0  0  0  0
  145.0545  142.5137  156.2338 O   0  0  0  0  0  0  0  0  0  0  0  0
  144.6687  144.3302  154.6658 C   0  0  2  0  0  0  0  0  0  0  0  0
  145.1753  145.2100  153.5193 C   0  0  0  0  0  0  0  0  0  0  0  0
  144.2523  146.4026  153.6304 C   0  0  0  0  0  0  0  0  0  0  0  0
  144.1097  146.5436  155.1437 C   0  0  0  0  0  0  0  0  0  0  0  0
  144.1757  145.2193  155.6659 O   0  0  0  0  0  0  0  0  0  0  0  0
  151.3403  137.1405  159.2114 H   0  0  0  0  0  0  0  0  0  0  0  0
  152.4358  137.5405  157.8833 H   0  0  0  0  0  0  0  0  0  0  0  0
  150.7096  137.3348  157.6029 H   0  0  0  0  0  0  0  0  0  0  0  0
  150.3177  139.2864  159.1818 H   0  0  0  0  0  0  0  0  0  0  0  0
  152.8630  139.2871  159.9905 H   0  0  0  0  0  0  0  0  0  0  0  0
  153.1019  140.1922  158.5361 H   0  0  0  0  0  0  0  0  0  0  0  0
  152.7571  142.4253  158.4336 H   0  0  0  0  0  0  0  0  0  0  0  0
  151.0596  142.0304  158.2851 H   0  0  0  0  0  0  0  0  0  0  0  0
  151.3872  144.4194  158.9375 H   0  0  0  0  0  0  0  0  0  0  0  0
  150.4856  143.5478  160.1654 H   0  0  0  0  0  0  0  0  0  0  0  0
  153.4148  143.2744  162.3163 H   0  0  0  0  0  0  0  0  0  0  0  0
  151.7136  142.8559  162.2138 H   0  0  0  0  0  0  0  0  0  0  0  0
  153.1277  140.8831  161.7286 H   0  0  0  0  0  0  0  0  0  0  0  0
  153.9746  141.7388  160.4688 H   0  0  0  0  0  0  0  0  0  0  0  0
  151.8742  140.6529  155.5583 H   0  0  0  0  0  0  0  0  0  0  0  0
  151.3924  138.9525  155.4674 H   0  0  0  0  0  0  0  0  0  0  0  0
  152.7964  139.4281  156.4246 H   0  0  0  0  0  0  0  0  0  0  0  0
  147.7322  142.3021  159.0886 H   0  0  0  0  0  0  0  0  0  0  0  0
  148.2986  140.8731  152.8365 H   0  0  0  0  0  0  0  0  0  0  0  0
  146.6199  143.0414  153.3061 H   0  0  0  0  0  0  0  0  0  0  0  0
  145.6120  141.6946  153.7868 H   0  0  0  0  0  0  0  0  0  0  0  0
  146.4596  143.8764  155.7495 H   0  0  0  0  0  0  0  0  0  0  0  0
  145.7119  142.2588  156.8631 H   0  0  0  0  0  0  0  0  0  0  0  0
  143.7986  143.7813  154.3017 H   0  0  0  0  0  0  0  0  0  0  0  0
  146.2049  145.5305  153.6809 H   0  0  0  0  0  0  0  0  0  0  0  0
  145.1216  144.7154  152.5491 H   0  0  0  0  0  0  0  0  0  0  0  0
  144.6491  147.2991  153.1535 H   0  0  0  0  0  0  0  0  0  0  0  0
  143.2857  146.1730  153.1801 H   0  0  0  0  0  0  0  0  0  0  0  0
  144.9439  147.1166  155.5507 H   0  0  0  0  0  0  0  0  0  0  0  0
  143.1842  147.0418  155.4327 H   0  0  0  0  0  0  0  0  0  0  0  0
  1  2  1  0  0  0  0
  1 29  1  0  0  0  0
  1 30  1  0  0  0  0
  1 31  1  0  0  0  0
  2  3  1  0  0  0  0
  2 10  1  0  0  0  0
  2 32  1  0  0  0  0
  3  4  1  0  0  0  0
  3 33  1  0  0  0  0
  3 34  1  0  0  0  0
  4  9  1  0  0  0  0
  4  5  1  0  0  0  0
  5  6  1  0  0  0  0
  5 35  1  0  0  0  0
  5 36  1  0  0  0  0
  6  7  1  0  0  0  0
  6 37  1  0  0  0  0
  6 38  1  0  0  0  0
  7  8  1  0  0  0  0
  8  9  1  0  0  0  0
  8 39  1  0  0  0  0
  8 40  1  0  0  0  0
  9 41  1  0  0  0  0
  9 42  1  0  0  0  0
 10 11  1  0  0  0  0
 10 12  1  0  0  0  0
 11 43  1  0  0  0  0
 11 44  1  0  0  0  0
 11 45  1  0  0  0  0
 12 17  1  0  0  0  0
 12 13  2  0  0  0  0
 13 14  1  0  0  0  0
 14 15  2  0  0  0  0
 14 46  1  0  0  0  0
 15 16  1  0  0  0  0
 16 20  1  0  0  0  0
 16 17  2  0  0  0  0
 17 18  1  0  0  0  0
 18 19  2  0  0  0  0
 19 20  1  0  0  0  0
 19 47  1  0  0  0  0
 20 21  1  0  0  0  0
 21 22  1  0  0  0  0
 21 48  1  0  0  0  0
 21 49  1  0  0  0  0
 22 23  1  0  0  0  0
 22 24  1  0  0  0  0
 22 50  1  0  0  0  0
 23 51  1  0  0  0  0
 24 28  1  0  0  0  0
 24 25  1  0  0  0  0
 24 52  1  0  0  0  0
 25 26  1  0  0  0  0
 25 53  1  0  0  0  0
 25 54  1  0  0  0  0
 26 27  1  0  0  0  0
 26 55  1  0  0  0  0
 26 56  1  0  0  0  0
 27 28  1  0  0  0  0
 27 57  1  0  0  0  0
 27 58  1  0  0  0  0
M  END
> <s_m_source_file>
AV-unprocessed.smi

> <i_m_source_file_index>
213

> <i_lp_mmshare_version>
43012

> <i_f3d_flags>
0

> <s_epik_input>
W0NIMl0xW0NIMl1PW0NIMl1bQ0gyXU4xW0NIMl1bQ0BASF0oW0NIM10pTihbQ0gzXSljKG5bY0hdbjIpYyhjMjMpbltjSF1uM1tDSDJdW0NASF0oW09IXSlbQ0BASF00W0NIMl1bQ0gyXVtDSDJdTzQ=

> <s_epik_cmdline>
J2VwaWtfcHl0aG9uJywgJy1waCcsICc3LjAnLCAnLXRuJywgJzgnLCAnLW1hJywgJzIwMCcsICctbWV0YWxfYmluZGluZycsICctaW1hZScsICc8aW5maWxlLm1hZT4nLCAnLW9tYWUnLCAnPG91dGZpbGUubWFlPic=

> <r_lp_tautomer_probability>
1

> <r_epik_Ionization_Penalty>
0.423322

> <r_epik_Ionization_Penalty_Charging>
0

> <r_epik_Ionization_Penalty_Neutral>
0.423322

> <r_epik_State_Penalty>
0.569486

> <r_epik_Charging_Adjusted_Penalty>
0.569486

> <i_epik_Tot_Q>
0

> <i_epik_Tot_abs_Q>
0

> <r_epik_Metal_State_Penalty>
0.568671

> <b_epik_Metal_Only>
0

> <s_lp_Force_Field>
OPLS_2005

> <r_lp_Energy>
55.7593

> <b_lp_Chiralities_Consistent>
1

> <s_lp_Variant>
AV-unprocessed.smi:213-10

> <Gold.Version>
5.8.1

> <Gold.Id.Protein>
6NUR|6NUR_protein|mol2

> <Gold.PLP.Fitness>
49.7121

> <Gold.PLP.PLP>
-48.4093

> <Gold.PLP.part.hbond>
-0.4023

> <Gold.PLP.part.metal>
0.0000

> <Gold.PLP.part.buried>
-4.3176

> <Gold.PLP.part.nonpolar>
-43.8538

> <Gold.PLP.part.repulsive>
0.4876

> <Gold.PLP.ligand.clash>
0.1269

> <Gold.PLP.ligand.torsion>
0.9753

> <Gold.PLP.Chemscore.Hbond>
0.0000

> <Gold.PLP.Chemscore.CHOScore>
1.0000

> <Gold.PLP.Chemscore.Metal>
0.0000

> <Gold.Chemscore.Hbonds>
donor molecule, donor type, donor heavy atom, donor atom, acceptor molecule, acceptor atom, score
      L1  C    19    47       P1  7957  1.00

> <Gold.PLP.Chemscore.Internal.Correction>
0.3801

> <Gold.Rescore>
     Score         DG    S(hbond)    S(metal)    S(lipo)     H(rot)  DE(clash)    DE(int)     intcor
      7.44     -11.34       0.01        0.00     109.83       2.74       0.30       3.61       ----

> <Gold.Chemscore.Fitness>
7.4386

> <Gold.Chemscore.DG>
-11.3404

> <Gold.Chemscore.ZeroCoef>
-5.4800

> <Gold.Chemscore.Hbond>
0.0057

> <Gold.Chemscore.Metal>
0.0000

> <Gold.Chemscore.Lipo>
109.8282

> <Gold.Chemscore.Internal_Hbond>
0.0000

> <Gold.Chemscore.DEClash>
0.2959

> <Gold.Chemscore.DEInternal>
3.6059

> <Gold.Chemscore.Rot>
2.7378

> <Gold.Chemscore.Internal.Correction>
   9.000000E+99

> <Gold.Chemscore.Hbond.Weighted>
-0.0191

> <Gold.Chemscore.Metal.Weighted>
-0.0000

> <Gold.Chemscore.Lipo.Weighted>
-12.8499

> <Gold.Chemscore.Internal_Hbond.Weighted>
0.0000

> <Gold.Chemscore.DEClash.Weighted>
0.2959

> <Gold.Chemscore.DEInternal.Weighted>
3.6059

> <Gold.Chemscore.Rot.Weighted>
7.0087

> <Gold.Chemscore.Internal.Correction.Weighted>
   9.000000E+99

> <Gold.Protein.RotatedTorsions>
[ 6907 6896 6895 6894 ] final -120.41 input  -60.11 | X-H torsion
[ 7974 7965 7964 7962 ] final -126.57 input  175.53 | X-H torsion
[ 8008 7997 7996 7995 ] final  121.17 input   59.86 | X-H torsion
[ 10167 10162 10161 10158 ] final  -73.11 input  -65.29 | X-H torsion
[ 10718 10713 10712 10709 ] final   73.19 input   66.30 | X-H torsion
[ 10763 10752 10751 10750 ] final  -29.95 input  -60.55 | X-H torsion
[ 11005 11000 10999 10996 ] final  -98.50 input  -57.11 | X-H torsion

> <Gold.Protein.ActiveResidues>
 VAL166  LYS551  ARG553  GLY616  TRP617  ASP618  TYR619  PRO620  LYS621  CYS622 
 ASP623  PHE694  ASN695  SER759  ASP760  ASP761  ALA762  ILE779  LEU786  VAL792 
 PHE793  MET794  SER795  GLU796  ALA797  LYS798  CYS799  TRP800  GLU811  SER814 

> <Gold.Protein.RotatedAtoms>
  150.8390  133.7966  159.3067 H   0  0  0  0  0  0  0  0  0  0  0  0  # atno 6907 bound_to 6896
  151.5673  135.1062  159.9996 H   0  0  0  0  0  0  0  0  0  0  0  0  # atno 6908 bound_to 6896
  152.4457  133.7490  159.6740 H   0  0  0  0  0  0  0  0  0  0  0  0  # atno 6909 bound_to 6896
  144.9859  140.7685  143.4584 H   0  0  0  0  0  0  0  0  0  0  0  0  # atno 7974 bound_to 7965
  156.2675  140.2814  156.1266 H   0  0  0  0  0  0  0  0  0  0  0  0  # atno 8008 bound_to 7997
  155.1099  140.0390  157.2738 H   0  0  0  0  0  0  0  0  0  0  0  0  # atno 8009 bound_to 7997
  154.6751  140.2596  155.6972 H   0  0  0  0  0  0  0  0  0  0  0  0  # atno 8010 bound_to 7997
  140.5137  143.2341  151.7550 H   0  0  0  0  0  0  0  0  0  0  0  0  # atno 10167 bound_to 10162
  157.6536  130.9616  150.1035 H   0  0  0  0  0  0  0  0  0  0  0  0  # atno 10718 bound_to 10713
  153.7731  135.6911  153.4902 H   0  0  0  0  0  0  0  0  0  0  0  0  # atno 10763 bound_to 10752
  153.1861  135.4488  155.0089 H   0  0  0  0  0  0  0  0  0  0  0  0  # atno 10764 bound_to 10752
  154.8110  135.3377  154.7239 H   0  0  0  0  0  0  0  0  0  0  0  0  # atno 10765 bound_to 10752
  141.1342  133.8250  157.0847 H   0  0  0  0  0  0  0  0  0  0  0  0  # atno 11005 bound_to 11000
  145.2355  139.2096  143.5020 LP  0  0  0  0  0  0  0  0  0  0  0  0  # atno 17320 bound_to 7965
  146.3419  140.2240  142.8592 LP  0  0  0  0  0  0  0  0  0  0  0  0  # atno 17321 bound_to 7965
  139.4903  144.4354  151.9825 LP  0  0  0  0  0  0  0  0  0  0  0  0  # atno 17342 bound_to 10162
  140.3448  144.3160  150.5960 LP  0  0  0  0  0  0  0  0  0  0  0  0  # atno 17343 bound_to 10162
  156.1951  130.3657  149.8859 LP  0  0  0  0  0  0  0  0  0  0  0  0  # atno 17370 bound_to 10713
  156.6778  130.8846  151.3571 LP  0  0  0  0  0  0  0  0  0  0  0  0  # atno 17371 bound_to 10713
  140.0429  134.9845  157.0996 LP  0  0  0  0  0  0  0  0  0  0  0  0  # atno 17394 bound_to 11000
  140.4107  134.1984  155.7163 LP  0  0  0  0  0  0  0  0  0  0  0  0  # atno 17395 bound_to 11000

$$$$
