AV-unprocessed.smi:77|AV-procd|sdf|772|dock1
  -GOLD-   2262017123D 1   1.00000     0.00000
 Structure written by MMmdl.
 57 61  0  0  0  0  0  0  0  0  1 V2000
  151.4920  131.9664  157.7536 O   0  0  0  0  0  0  0  0  0  0  0  0
  151.9289  132.3416  156.6652 C   0  0  0  0  0  0  0  0  0  0  0  0
  152.2319  133.8250  156.4229 C   0  0  0  0  0  0  0  0  0  0  0  0
  151.0829  134.6881  156.7170 N   0  0  0  0  0  0  0  0  0  0  0  0
  151.3031  135.9943  156.4444 C   0  0  0  0  0  0  0  0  0  0  0  0
  151.4249  136.4052  155.1547 N   0  0  0  0  0  0  0  0  0  0  0  0
  151.6863  137.6885  154.8873 C   0  0  0  0  0  0  0  0  0  0  0  0
  151.8709  138.6988  155.7406 N   0  0  0  0  0  0  0  0  0  0  0  0
  151.7434  138.2851  157.0341 C   0  0  0  0  0  0  0  0  0  0  0  0
  151.4482  136.9644  157.4698 C   0  0  0  0  0  0  0  0  0  0  0  0
  151.3783  136.9213  158.8561 N   0  0  0  0  0  0  0  0  0  0  0  0
  151.6401  138.1458  159.2230 C   0  0  0  0  0  0  0  0  0  0  0  0
  151.9038  139.0224  158.1939 N   0  0  0  0  0  0  0  0  0  0  0  0
  152.2498  140.4260  158.3170 C   0  0  0  0  0  0  0  0  0  0  0  0
  152.6563  140.8704  159.7508 C   0  0  1  0  0  0  0  0  0  0  0  0
  154.0637  140.3108  160.0720 C   0  0  0  0  0  0  0  0  0  0  0  0
  154.2805  140.2283  161.4655 O   0  0  0  0  0  0  0  0  0  0  0  0
  152.5897  142.4147  159.9615 C   0  0  2  0  0  0  0  0  0  0  0  0
  152.7208  142.8762  161.4063 C   0  0  0  0  0  0  0  0  0  0  0  0
  152.1563  144.2871  161.3518 C   0  0  0  0  0  0  0  0  0  0  0  0
  151.0525  144.1793  160.4701 O   0  0  0  0  0  0  0  0  0  0  0  0
  151.2589  143.0897  159.5766 C   0  0  0  0  0  0  0  0  0  0  0  0
  149.7814  134.2123  156.2680 C   0  0  0  0  0  0  0  0  0  0  0  0
  149.6457  133.6525  154.8705 C   0  0  0  0  0  0  0  0  0  0  0  0
  149.0575  135.0042  155.2066 C   0  0  0  0  0  0  0  0  0  0  0  0
  152.1481  131.5159  155.6315 N   0  0  0  0  0  0  0  0  0  0  0  0
  151.9410  130.1040  155.6399 C   0  0  0  0  0  0  0  0  0  0  0  0
  152.6273  129.2871  154.5669 C   0  0  0  0  0  0  0  0  0  0  0  0
  151.1411  129.5052  154.5031 C   0  0  0  0  0  0  0  0  0  0  0  0
  153.1036  134.1356  157.0027 H   0  0  0  0  0  0  0  0  0  0  0  0
  152.5086  133.9375  155.3738 H   0  0  0  0  0  0  0  0  0  0  0  0
  151.7696  137.9404  153.8403 H   0  0  0  0  0  0  0  0  0  0  0  0
  151.6715  138.4386  160.2623 H   0  0  0  0  0  0  0  0  0  0  0  0
  153.0602  140.6142  157.6121 H   0  0  0  0  0  0  0  0  0  0  0  0
  151.4027  141.0205  157.9722 H   0  0  0  0  0  0  0  0  0  0  0  0
  151.9659  140.4149  160.4618 H   0  0  0  0  0  0  0  0  0  0  0  0
  154.2001  139.3252  159.6259 H   0  0  0  0  0  0  0  0  0  0  0  0
  154.8502  140.9529  159.6780 H   0  0  0  0  0  0  0  0  0  0  0  0
  153.7196  140.8561  161.8948 H   0  0  0  0  0  0  0  0  0  0  0  0
  153.3934  142.8850  159.3922 H   0  0  0  0  0  0  0  0  0  0  0  0
  152.1094  142.2566  162.0641 H   0  0  0  0  0  0  0  0  0  0  0  0
  153.7476  142.8605  161.7729 H   0  0  0  0  0  0  0  0  0  0  0  0
  151.8542  144.6618  162.3300 H   0  0  0  0  0  0  0  0  0  0  0  0
  152.8870  144.9780  160.9287 H   0  0  0  0  0  0  0  0  0  0  0  0
  151.2667  143.4558  158.5507 H   0  0  0  0  0  0  0  0  0  0  0  0
  150.4162  142.4066  159.6856 H   0  0  0  0  0  0  0  0  0  0  0  0
  149.1538  133.7540  157.0308 H   0  0  0  0  0  0  0  0  0  0  0  0
  150.5323  133.6355  154.2393 H   0  0  0  0  0  0  0  0  0  0  0  0
  148.9551  132.8240  154.7272 H   0  0  0  0  0  0  0  0  0  0  0  0
  147.9746  135.0766  155.2853 H   0  0  0  0  0  0  0  0  0  0  0  0
  149.5562  135.8831  154.8024 H   0  0  0  0  0  0  0  0  0  0  0  0
  152.4982  131.9175  154.7736 H   0  0  0  0  0  0  0  0  0  0  0  0
  151.8313  129.6200  156.6094 H   0  0  0  0  0  0  0  0  0  0  0  0
  153.2460  129.8148  153.8433 H   0  0  0  0  0  0  0  0  0  0  0  0
  152.9773  128.2938  154.8410 H   0  0  0  0  0  0  0  0  0  0  0  0
  150.4992  128.6573  154.7338 H   0  0  0  0  0  0  0  0  0  0  0  0
  150.7658  130.1775  153.7337 H   0  0  0  0  0  0  0  0  0  0  0  0
  1  2  2  0  0  0  0
  2  3  1  0  0  0  0
  2 26  1  0  0  0  0
  3  4  1  0  0  0  0
  3 30  1  0  0  0  0
  3 31  1  0  0  0  0
  4  5  1  0  0  0  0
  4 23  1  0  0  0  0
  5 10  1  0  0  0  0
  5  6  2  0  0  0  0
  6  7  1  0  0  0  0
  7  8  2  0  0  0  0
  7 32  1  0  0  0  0
  8  9  1  0  0  0  0
  9 13  1  0  0  0  0
  9 10  2  0  0  0  0
 10 11  1  0  0  0  0
 11 12  2  0  0  0  0
 12 13  1  0  0  0  0
 12 33  1  0  0  0  0
 13 14  1  0  0  0  0
 14 15  1  0  0  0  0
 14 34  1  0  0  0  0
 14 35  1  0  0  0  0
 15 16  1  0  0  0  0
 15 18  1  0  0  0  0
 15 36  1  0  0  0  0
 16 17  1  0  0  0  0
 16 37  1  0  0  0  0
 16 38  1  0  0  0  0
 17 39  1  0  0  0  0
 18 22  1  0  0  0  0
 18 19  1  0  0  0  0
 18 40  1  0  0  0  0
 19 20  1  0  0  0  0
 19 41  1  0  0  0  0
 19 42  1  0  0  0  0
 20 21  1  0  0  0  0
 20 43  1  0  0  0  0
 20 44  1  0  0  0  0
 21 22  1  0  0  0  0
 22 45  1  0  0  0  0
 22 46  1  0  0  0  0
 23 25  1  0  0  0  0
 23 24  1  0  0  0  0
 23 47  1  0  0  0  0
 24 25  1  0  0  0  0
 24 48  1  0  0  0  0
 24 49  1  0  0  0  0
 25 50  1  0  0  0  0
 25 51  1  0  0  0  0
 26 27  1  0  0  0  0
 26 52  1  0  0  0  0
 27 29  1  0  0  0  0
 27 28  1  0  0  0  0
 27 53  1  0  0  0  0
 28 29  1  0  0  0  0
 28 54  1  0  0  0  0
 28 55  1  0  0  0  0
 29 56  1  0  0  0  0
 29 57  1  0  0  0  0
M  END
> <s_m_source_file>
AV-unprocessed.smi

> <i_m_source_file_index>
77

> <i_lp_mmshare_version>
43012

> <i_f3d_flags>
0

> <s_epik_input>
W0NIMl0xW0NIMl1bQ0hdMVtOSF1DKD1PKVtDSDJdTihbQ0hdMltDSDJdW0NIMl0yKWMobltjSF1uMyljKGMzNCluW2NIXW40W0NIMl1bQ0BIXShbQ0gyXVtPSF0pW0NAQEhdNVtDSDJdW0NIMl1PW0NIMl01

> <s_epik_cmdline>
J2VwaWtfcHl0aG9uJywgJy1waCcsICc3LjAnLCAnLXRuJywgJzgnLCAnLW1hJywgJzIwMCcsICctbWV0YWxfYmluZGluZycsICctaW1hZScsICc8aW5maWxlLm1hZT4nLCAnLW9tYWUnLCAnPG91dGZpbGUubWFlPic=

> <r_lp_tautomer_probability>
1

> <r_epik_Ionization_Penalty>
0.000703847

> <r_epik_Ionization_Penalty_Charging>
0

> <r_epik_Ionization_Penalty_Neutral>
0.000703847

> <r_epik_State_Penalty>
0.00034025

> <r_epik_Charging_Adjusted_Penalty>
0.00034025

> <i_epik_Tot_Q>
0

> <i_epik_Tot_abs_Q>
0

> <r_epik_Metal_State_Penalty>
-0

> <b_epik_Metal_Only>
0

> <s_lp_Force_Field>
OPLS_2005

> <r_lp_Energy>
54.5586

> <b_lp_Chiralities_Consistent>
1

> <s_lp_Variant>
AV-unprocessed.smi:77-2

> <Gold.Version>
5.8.1

> <Gold.Id.Protein>
6NUR|6NUR_protein|mol2

> <Gold.PLP.Fitness>
51.3800

> <Gold.PLP.PLP>
-44.7015

> <Gold.PLP.part.hbond>
-3.0861

> <Gold.PLP.part.metal>
0.0000

> <Gold.PLP.part.buried>
-6.8613

> <Gold.PLP.part.nonpolar>
-35.2010

> <Gold.PLP.part.repulsive>
0.2674

> <Gold.PLP.ligand.clash>
0.0459

> <Gold.PLP.ligand.torsion>
1.8229

> <Gold.PLP.Chemscore.Hbond>
2.6364

> <Gold.PLP.Chemscore.CHOScore>
0.0000

> <Gold.PLP.Chemscore.Metal>
0.0000

> <Gold.Chemscore.Hbonds>
donor molecule, donor type, donor heavy atom, donor atom, acceptor molecule, acceptor atom, score
      P1  H  6896  6907       L1     1  0.88
      P1  H  6896  6908       L1    11  0.70
      P1  H 10752 10763       L1     6  1.00

> <Gold.PLP.Chemscore.Internal.Correction>
2.4610

> <Gold.Rescore>
     Score         DG    S(hbond)    S(metal)    S(lipo)     H(rot)  DE(clash)    DE(int)     intcor
      9.98     -13.50       1.78        0.00     100.22       3.77       0.10       3.43       ----

> <Gold.Chemscore.Fitness>
9.9766

> <Gold.Chemscore.DG>
-13.5003

> <Gold.Chemscore.ZeroCoef>
-5.4800

> <Gold.Chemscore.Hbond>
1.7813

> <Gold.Chemscore.Metal>
0.0000

> <Gold.Chemscore.Lipo>
100.2178

> <Gold.Chemscore.Internal_Hbond>
0.0000

> <Gold.Chemscore.DEClash>
0.0962

> <Gold.Chemscore.DEInternal>
3.4275

> <Gold.Chemscore.Rot>
3.7714

> <Gold.Chemscore.Internal.Correction>
   9.000000E+99

> <Gold.Chemscore.Hbonds>
donor molecule, donor type, donor heavy atom, donor atom, acceptor molecule, acceptor atom, score
      P1  H  6896  6907       L1     1  0.76
      P1  H  6896  6908       L1    11  0.67
      P1  H 10752 10763       L1     6  0.16

> <Gold.Chemscore.Hbond.Weighted>
-5.9497

> <Gold.Chemscore.Metal.Weighted>
-0.0000

> <Gold.Chemscore.Lipo.Weighted>
-11.7255

> <Gold.Chemscore.Internal_Hbond.Weighted>
0.0000

> <Gold.Chemscore.DEClash.Weighted>
0.0962

> <Gold.Chemscore.DEInternal.Weighted>
3.4275

> <Gold.Chemscore.Rot.Weighted>
9.6548

> <Gold.Chemscore.Internal.Correction.Weighted>
   9.000000E+99

> <Gold.Protein.RotatedTorsions>
[ 6907 6896 6895 6894 ] final -149.24 input  -60.11 | X-H torsion
[ 7974 7965 7964 7962 ] final  127.75 input  175.53 | X-H torsion
[ 8008 7997 7996 7995 ] final -110.29 input   59.86 | X-H torsion
[ 10167 10162 10161 10158 ] final -148.83 input  -65.29 | X-H torsion
[ 10718 10713 10712 10709 ] final -126.41 input   66.30 | X-H torsion
[ 10763 10752 10751 10750 ] final   59.36 input  -60.55 | X-H torsion
[ 11005 11000 10999 10996 ] final -116.14 input  -57.11 | X-H torsion

> <Gold.Protein.ActiveResidues>
 VAL166  LYS551  ARG553  GLY616  TRP617  ASP618  TYR619  PRO620  LYS621  CYS622 
 ASP623  PHE694  ASN695  SER759  ASP760  ASP761  ALA762  ILE779  LEU786  VAL792 
 PHE793  MET794  SER795  GLU796  ALA797  LYS798  CYS799  TRP800  GLU811  SER814 

> <Gold.Protein.RotatedAtoms>
  151.1813  133.4723  159.2593 H   0  0  0  0  0  0  0  0  0  0  0  0  # atno 6907 bound_to 6896
  151.1257  135.0103  159.8569 H   0  0  0  0  0  0  0  0  0  0  0  0  # atno 6908 bound_to 6896
  152.5458  134.1720  159.8653 H   0  0  0  0  0  0  0  0  0  0  0  0  # atno 6909 bound_to 6896
  145.0471  139.3914  143.5072 H   0  0  0  0  0  0  0  0  0  0  0  0  # atno 7974 bound_to 7965
  154.9723  140.0397  157.2240 H   0  0  0  0  0  0  0  0  0  0  0  0  # atno 8008 bound_to 7997
  154.7790  140.2815  155.6056 H   0  0  0  0  0  0  0  0  0  0  0  0  # atno 8009 bound_to 7997
  156.2933  140.2595  156.2610 H   0  0  0  0  0  0  0  0  0  0  0  0  # atno 8010 bound_to 7997
  139.7497  143.8537  152.2583 H   0  0  0  0  0  0  0  0  0  0  0  0  # atno 10167 bound_to 10162
  156.1763  130.6702  151.0246 H   0  0  0  0  0  0  0  0  0  0  0  0  # atno 10718 bound_to 10713
  152.9892  135.5574  154.5700 H   0  0  0  0  0  0  0  0  0  0  0  0  # atno 10763 bound_to 10752
  154.5102  135.2802  155.1351 H   0  0  0  0  0  0  0  0  0  0  0  0  # atno 10764 bound_to 10752
  154.2745  135.6356  153.5376 H   0  0  0  0  0  0  0  0  0  0  0  0  # atno 10765 bound_to 10752
  141.0442  133.9789  157.2946 H   0  0  0  0  0  0  0  0  0  0  0  0  # atno 11005 bound_to 11000
  146.3515  140.0102  142.8668 LP  0  0  0  0  0  0  0  0  0  0  0  0  # atno 17320 bound_to 7965
  145.1574  140.9655  143.4397 LP  0  0  0  0  0  0  0  0  0  0  0  0  # atno 17321 bound_to 7965
  139.8512  144.7163  150.9212 LP  0  0  0  0  0  0  0  0  0  0  0  0  # atno 17342 bound_to 10162
  140.7796  143.3898  151.1330 LP  0  0  0  0  0  0  0  0  0  0  0  0  # atno 17343 bound_to 10162
  157.6838  131.0830  150.7299 LP  0  0  0  0  0  0  0  0  0  0  0  0  # atno 17370 bound_to 10713
  156.7357  130.4723  149.5489 LP  0  0  0  0  0  0  0  0  0  0  0  0  # atno 17371 bound_to 10713
  139.9298  135.0200  156.8362 LP  0  0  0  0  0  0  0  0  0  0  0  0  # atno 17394 bound_to 11000
  140.6179  134.0022  155.7605 LP  0  0  0  0  0  0  0  0  0  0  0  0  # atno 17395 bound_to 11000

$$$$
