AV-unprocessed.smi:814|AV-procd|sdf|3823|dock4
  -GOLD-   22720 1263D 1   1.00000     0.00000
 Structure written by MMmdl.
 36 37  0  0  0  0  0  0  0  0  1 V2000
  155.7661  138.6500  165.4975 C   0  0  0  0  0  0  0  0  0  0  0  0
  155.2160  137.9203  164.3714 N   0  0  0  0  0  0  0  0  0  0  0  0
  154.7851  136.6002  164.3879 C   0  0  0  0  0  0  0  0  0  0  0  0
  154.3509  136.3115  163.1167 C   0  0  0  0  0  0  0  0  0  0  0  0
  154.5049  137.4343  162.3110 N   0  0  0  0  0  0  0  0  0  0  0  0
  155.0171  138.3619  163.1143 C   0  0  0  0  0  0  0  0  0  0  0  0
  155.3721  139.7451  162.6634 C   0  0  0  0  0  0  0  0  0  0  0  0
  155.1881  139.9308  161.1488 C   0  0  0  0  0  0  0  0  0  0  0  0
  154.6328  141.2410  160.8306 N   0  0  0  0  0  0  0  0  0  0  0  0
  153.6238  141.4629  159.9740 C   0  0  0  0  0  0  0  0  0  0  0  0
  153.0481  140.5621  159.3628 O   0  0  0  0  0  0  0  0  0  0  0  0
  153.2027  142.9251  159.7745 C   0  0  2  0  0  0  0  0  0  0  0  0
  152.6091  143.5212  161.0721 C   0  0  0  0  0  0  0  0  0  0  0  0
  151.9545  144.8709  160.8350 C   0  0  0  0  0  0  0  0  0  0  0  0
  151.6237  145.3280  159.6151 C   0  0  0  0  0  0  0  0  0  0  0  0
  151.8617  144.5451  158.3359 C   0  0  0  0  0  0  0  0  0  0  0  0
  152.2023  143.0679  158.6097 C   0  0  0  0  0  0  0  0  0  0  0  0
  155.9175  137.9781  166.3429 H   0  0  0  0  0  0  0  0  0  0  0  0
  155.0782  139.4419  165.7945 H   0  0  0  0  0  0  0  0  0  0  0  0
  156.7250  139.0897  165.2229 H   0  0  0  0  0  0  0  0  0  0  0  0
  154.8250  135.9898  165.2781 H   0  0  0  0  0  0  0  0  0  0  0  0
  153.9449  135.3913  162.7231 H   0  0  0  0  0  0  0  0  0  0  0  0
  154.7424  140.4519  163.2052 H   0  0  0  0  0  0  0  0  0  0  0  0
  156.3987  139.9725  162.9517 H   0  0  0  0  0  0  0  0  0  0  0  0
  156.1503  139.8409  160.6440 H   0  0  0  0  0  0  0  0  0  0  0  0
  154.5505  139.1438  160.7419 H   0  0  0  0  0  0  0  0  0  0  0  0
  155.0509  142.0383  161.2879 H   0  0  0  0  0  0  0  0  0  0  0  0
  154.0922  143.5030  159.5164 H   0  0  0  0  0  0  0  0  0  0  0  0
  151.8608  142.8584  161.5094 H   0  0  0  0  0  0  0  0  0  0  0  0
  153.3975  143.6433  161.8157 H   0  0  0  0  0  0  0  0  0  0  0  0
  151.7430  145.4703  161.7083 H   0  0  0  0  0  0  0  0  0  0  0  0
  151.1727  146.3039  159.5121 H   0  0  0  0  0  0  0  0  0  0  0  0
  150.9760  144.6106  157.7035 H   0  0  0  0  0  0  0  0  0  0  0  0
  152.6762  145.0257  157.7931 H   0  0  0  0  0  0  0  0  0  0  0  0
  152.5974  142.6099  157.7016 H   0  0  0  0  0  0  0  0  0  0  0  0
  151.2840  142.5292  158.8499 H   0  0  0  0  0  0  0  0  0  0  0  0
  1  2  1  0  0  0  0
  1 18  1  0  0  0  0
  1 19  1  0  0  0  0
  1 20  1  0  0  0  0
  2  6  1  0  0  0  0
  2  3  1  0  0  0  0
  3  4  2  0  0  0  0
  3 21  1  0  0  0  0
  4  5  1  0  0  0  0
  4 22  1  0  0  0  0
  5  6  2  0  0  0  0
  6  7  1  0  0  0  0
  7  8  1  0  0  0  0
  7 23  1  0  0  0  0
  7 24  1  0  0  0  0
  8  9  1  0  0  0  0
  8 25  1  0  0  0  0
  8 26  1  0  0  0  0
  9 10  1  0  0  0  0
  9 27  1  0  0  0  0
 10 11  2  0  0  0  0
 10 12  1  0  0  0  0
 12 17  1  0  0  0  0
 12 13  1  0  0  0  0
 12 28  1  0  0  0  0
 13 14  1  0  0  0  0
 13 29  1  0  0  0  0
 13 30  1  0  0  0  0
 14 15  2  0  0  0  0
 14 31  1  0  0  0  0
 15 16  1  0  0  0  0
 15 32  1  0  0  0  0
 16 17  1  0  0  0  0
 16 33  1  0  0  0  0
 16 34  1  0  0  0  0
 17 35  1  0  0  0  0
 17 36  1  0  0  0  0
M  END
> <s_m_source_file>
AV-unprocessed.smi

> <i_m_source_file_index>
814

> <i_lp_mmshare_version>
43012

> <i_f3d_flags>
0

> <s_epik_input>
W0NIM11uMVtjSF1bY0hdbmMxW0NIMl1bQ0gyXVtOSF1DKD1PKVtDQEBIXTJbQ0gyXVtDSF09W0NIXVtDSDJdW0NIMl0y

> <s_epik_cmdline>
J2VwaWtfcHl0aG9uJywgJy1waCcsICc3LjAnLCAnLXRuJywgJzgnLCAnLW1hJywgJzIwMCcsICctbWV0YWxfYmluZGluZycsICctaW1hZScsICc8aW5maWxlLm1hZT4nLCAnLW9tYWUnLCAnPG91dGZpbGUubWFlPic=

> <r_lp_tautomer_probability>
1

> <r_epik_Ionization_Penalty>
1.21249

> <r_epik_Ionization_Penalty_Charging>
1.21249

> <r_epik_Ionization_Penalty_Neutral>
1.60917e-08

> <r_epik_State_Penalty>
1.27906

> <r_epik_Charging_Adjusted_Penalty>
2.49154

> <i_epik_Tot_Q>
0

> <i_epik_Tot_abs_Q>
0

> <r_epik_Metal_State_Penalty>
0.409603

> <b_epik_Metal_Only>
0

> <s_lp_Force_Field>
OPLS_2005

> <r_lp_Energy>
6.39824

> <b_lp_Chiralities_Consistent>
1

> <s_lp_Variant>
AV-unprocessed.smi:814-3

> <Gold.Version>
5.8.1

> <Gold.Id.Protein>
6NUR|6NUR_protein|mol2

> <Gold.PLP.Fitness>
45.1934

> <Gold.PLP.PLP>
-46.1654

> <Gold.PLP.part.hbond>
-0.7114

> <Gold.PLP.part.metal>
0.0000

> <Gold.PLP.part.buried>
-5.7699

> <Gold.PLP.part.nonpolar>
-40.5810

> <Gold.PLP.part.repulsive>
0.0248

> <Gold.PLP.ligand.clash>
0.0000

> <Gold.PLP.ligand.torsion>
0.4980

> <Gold.PLP.Chemscore.Hbond>
0.0000

> <Gold.PLP.Chemscore.CHOScore>
0.0000

> <Gold.PLP.Chemscore.Metal>
0.0000

> <Gold.PLP.Chemscore.Internal.Correction>
0.0240

> <Gold.Rescore>
     Score         DG    S(hbond)    S(metal)    S(lipo)     H(rot)  DE(clash)    DE(int)     intcor
     14.11     -14.53       0.00        0.00     111.94       1.58       0.05       0.37       ----

> <Gold.Chemscore.Fitness>
14.1138

> <Gold.Chemscore.DG>
-14.5293

> <Gold.Chemscore.ZeroCoef>
-5.4800

> <Gold.Chemscore.Hbond>
0.0000

> <Gold.Chemscore.Metal>
0.0000

> <Gold.Chemscore.Lipo>
111.9359

> <Gold.Chemscore.Internal_Hbond>
0.0000

> <Gold.Chemscore.DEClash>
0.0458

> <Gold.Chemscore.DEInternal>
0.3697

> <Gold.Chemscore.Rot>
1.5809

> <Gold.Chemscore.Internal.Correction>
   9.000000E+99

> <Gold.Chemscore.Hbond.Weighted>
-0.0000

> <Gold.Chemscore.Metal.Weighted>
-0.0000

> <Gold.Chemscore.Lipo.Weighted>
-13.0965

> <Gold.Chemscore.Internal_Hbond.Weighted>
0.0000

> <Gold.Chemscore.DEClash.Weighted>
0.0458

> <Gold.Chemscore.DEInternal.Weighted>
0.3697

> <Gold.Chemscore.Rot.Weighted>
4.0472

> <Gold.Chemscore.Internal.Correction.Weighted>
   9.000000E+99

> <Gold.Protein.RotatedTorsions>
[ 6907 6896 6895 6894 ] final   98.46 input  -60.11 | X-H torsion
[ 7974 7965 7964 7962 ] final -118.35 input  175.53 | X-H torsion
[ 8008 7997 7996 7995 ] final  -34.89 input   59.86 | X-H torsion
[ 10167 10162 10161 10158 ] final  115.16 input  -65.29 | X-H torsion
[ 10718 10713 10712 10709 ] final   35.54 input   66.30 | X-H torsion
[ 10763 10752 10751 10750 ] final -125.92 input  -60.55 | X-H torsion
[ 11005 11000 10999 10996 ] final  110.31 input  -57.11 | X-H torsion

> <Gold.Protein.ActiveResidues>
 VAL166  LYS551  ARG553  GLY616  TRP617  ASP618  TYR619  PRO620  LYS621  CYS622 
 ASP623  PHE694  ASN695  SER759  ASP760  ASP761  ALA762  ILE779  LEU786  VAL792 
 PHE793  MET794  SER795  GLU796  ALA797  LYS798  CYS799  TRP800  GLU811  SER814 

> <Gold.Protein.RotatedAtoms>
  152.5409  134.0578  159.8138 H   0  0  0  0  0  0  0  0  0  0  0  0  # atno 6907 bound_to 6896
  151.0710  133.5459  159.2634 H   0  0  0  0  0  0  0  0  0  0  0  0  # atno 6908 bound_to 6896
  151.2322  135.0566  159.9046 H   0  0  0  0  0  0  0  0  0  0  0  0  # atno 6909 bound_to 6896
  145.0748  140.8385  143.4074 H   0  0  0  0  0  0  0  0  0  0  0  0  # atno 7974 bound_to 7965
  154.4109  140.1672  156.2122 H   0  0  0  0  0  0  0  0  0  0  0  0  # atno 8008 bound_to 7997
  155.9434  140.3406  155.6323 H   0  0  0  0  0  0  0  0  0  0  0  0  # atno 8009 bound_to 7997
  155.6960  140.0739  157.2420 H   0  0  0  0  0  0  0  0  0  0  0  0  # atno 8010 bound_to 7997
  139.6336  144.7117  151.2380 H   0  0  0  0  0  0  0  0  0  0  0  0  # atno 10167 bound_to 10162
  157.3240  130.7463  149.6803 H   0  0  0  0  0  0  0  0  0  0  0  0  # atno 10718 bound_to 10713
  154.8741  135.4013  154.3347 H   0  0  0  0  0  0  0  0  0  0  0  0  # atno 10763 bound_to 10752
  153.4155  135.7022  153.6335 H   0  0  0  0  0  0  0  0  0  0  0  0  # atno 10764 bound_to 10752
  153.5020  135.3725  155.2514 H   0  0  0  0  0  0  0  0  0  0  0  0  # atno 10765 bound_to 10752
  139.8879  134.9481  156.6259 H   0  0  0  0  0  0  0  0  0  0  0  0  # atno 11005 bound_to 11000
  145.1248  139.2670  143.5569 LP  0  0  0  0  0  0  0  0  0  0  0  0  # atno 17320 bound_to 7965
  146.3530  140.0883  142.8614 LP  0  0  0  0  0  0  0  0  0  0  0  0  # atno 17321 bound_to 7965
  140.7453  143.6435  150.8313 LP  0  0  0  0  0  0  0  0  0  0  0  0  # atno 17342 bound_to 10162
  140.0063  143.5690  152.2856 LP  0  0  0  0  0  0  0  0  0  0  0  0  # atno 17343 bound_to 10162
  155.9688  130.4215  150.4471 LP  0  0  0  0  0  0  0  0  0  0  0  0  # atno 17370 bound_to 10713
  157.2492  131.0542  151.2390 LP  0  0  0  0  0  0  0  0  0  0  0  0  # atno 17371 bound_to 10713
  140.7704  133.8743  155.8487 LP  0  0  0  0  0  0  0  0  0  0  0  0  # atno 17394 bound_to 11000
  140.9847  134.1359  157.4463 LP  0  0  0  0  0  0  0  0  0  0  0  0  # atno 17395 bound_to 11000

$$$$
