AV-unprocessed.smi:3213|AV-procd|sdf|12282|dock1
  -GOLD-   2272018123D 1   1.00000     0.00000
 Structure written by MMmdl.
 35 35  0  0  0  0  0  0  0  0  1 V2000
  139.3624  138.7296  152.3235 C   0  0  0  0  0  0  0  0  0  0  0  0
  140.3905  139.1412  153.3922 C   0  0  0  0  0  0  0  0  0  0  0  0
  140.4173  140.6815  153.4932 C   0  0  0  0  0  0  0  0  0  0  0  0
  139.9876  138.5143  154.7434 C   0  0  0  0  0  0  0  0  0  0  0  0
  141.6923  138.6239  152.9534 N   0  0  0  0  0  0  0  0  0  0  0  0
  142.0675  137.3447  152.7726 C   0  0  0  0  0  0  0  0  0  0  0  0
  141.3310  136.3779  152.9702 O   0  0  0  0  0  0  0  0  0  0  0  0
  143.5081  137.1288  152.2990 C   0  0  0  0  0  0  0  0  0  0  0  0
  143.7517  135.7467  151.9237 N   0  0  0  0  0  0  0  0  0  0  0  0
  144.1632  135.2502  150.7046 C   0  0  0  0  0  0  0  0  0  0  0  0
  144.2609  133.8928  150.8250 C   0  0  0  0  0  0  0  0  0  0  0  0
  144.6688  132.8837  149.7883 C   0  0  0  0  0  0  0  0  0  0  0  0
  143.5929  132.7196  148.7070 C   0  0  0  0  0  0  0  0  0  0  0  0
  143.4710  133.9154  147.9672 O   0  0  0  0  0  0  0  0  0  0  0  0
  143.8843  133.6531  152.1773 C   0  0  0  0  0  0  0  0  0  0  0  0
  143.5795  134.7618  152.8315 N   0  0  0  0  0  0  0  0  0  0  0  0
  138.3618  139.0807  152.5783 H   0  0  0  0  0  0  0  0  0  0  0  0
  139.3106  137.6452  152.2172 H   0  0  0  0  0  0  0  0  0  0  0  0
  139.6152  139.1441  151.3468 H   0  0  0  0  0  0  0  0  0  0  0  0
  140.7463  141.1357  152.5579 H   0  0  0  0  0  0  0  0  0  0  0  0
  141.0831  141.0310  154.2821 H   0  0  0  0  0  0  0  0  0  0  0  0
  139.4259  141.0763  153.7175 H   0  0  0  0  0  0  0  0  0  0  0  0
  138.9851  138.8272  155.0374 H   0  0  0  0  0  0  0  0  0  0  0  0
  140.6623  138.8052  155.5484 H   0  0  0  0  0  0  0  0  0  0  0  0
  139.9881  137.4249  154.6907 H   0  0  0  0  0  0  0  0  0  0  0  0
  142.3902  139.3264  152.7564 H   0  0  0  0  0  0  0  0  0  0  0  0
  143.7388  137.7738  151.4491 H   0  0  0  0  0  0  0  0  0  0  0  0
  144.1931  137.4002  153.1028 H   0  0  0  0  0  0  0  0  0  0  0  0
  144.3524  135.8987  149.8616 H   0  0  0  0  0  0  0  0  0  0  0  0
  145.6082  133.1804  149.3200 H   0  0  0  0  0  0  0  0  0  0  0  0
  144.8619  131.9161  150.2533 H   0  0  0  0  0  0  0  0  0  0  0  0
  143.8501  131.9059  148.0281 H   0  0  0  0  0  0  0  0  0  0  0  0
  142.6284  132.4799  149.1557 H   0  0  0  0  0  0  0  0  0  0  0  0
  144.3184  134.3319  147.9270 H   0  0  0  0  0  0  0  0  0  0  0  0
  143.8249  132.7095  152.6998 H   0  0  0  0  0  0  0  0  0  0  0  0
  1  2  1  0  0  0  0
  1 17  1  0  0  0  0
  1 18  1  0  0  0  0
  1 19  1  0  0  0  0
  2  3  1  0  0  0  0
  2  4  1  0  0  0  0
  2  5  1  0  0  0  0
  3 20  1  0  0  0  0
  3 21  1  0  0  0  0
  3 22  1  0  0  0  0
  4 23  1  0  0  0  0
  4 24  1  0  0  0  0
  4 25  1  0  0  0  0
  5  6  1  0  0  0  0
  5 26  1  0  0  0  0
  6  7  2  0  0  0  0
  6  8  1  0  0  0  0
  8  9  1  0  0  0  0
  8 27  1  0  0  0  0
  8 28  1  0  0  0  0
  9 16  1  0  0  0  0
  9 10  1  0  0  0  0
 10 11  2  0  0  0  0
 10 29  1  0  0  0  0
 11 12  1  0  0  0  0
 11 15  1  0  0  0  0
 12 13  1  0  0  0  0
 12 30  1  0  0  0  0
 12 31  1  0  0  0  0
 13 14  1  0  0  0  0
 13 32  1  0  0  0  0
 13 33  1  0  0  0  0
 14 34  1  0  0  0  0
 15 16  2  0  0  0  0
 15 35  1  0  0  0  0
M  END
> <s_m_source_file>
AV-unprocessed.smi

> <i_m_source_file_index>
3213

> <i_lp_mmshare_version>
43012

> <i_f3d_flags>
0

> <s_epik_input>
W0NIM11DKFtDSDNdKShbQ0gzXSlbTkhdQyg9TylbQ0gyXW4xW2NIXWMoW2NIXW4xKVtDSDJdW0NIMl1bT0hd

> <s_epik_cmdline>
J2VwaWtfcHl0aG9uJywgJy1waCcsICc3LjAnLCAnLXRuJywgJzgnLCAnLW1hJywgJzIwMCcsICctbWV0YWxfYmluZGluZycsICctaW1hZScsICc8aW5maWxlLm1hZT4nLCAnLW9tYWUnLCAnPG91dGZpbGUubWFlPic=

> <r_lp_tautomer_probability>
1

> <r_epik_Ionization_Penalty>
3.05354e-05

> <r_epik_Ionization_Penalty_Charging>
0

> <r_epik_Ionization_Penalty_Neutral>
3.05354e-05

> <r_epik_State_Penalty>
-0

> <r_epik_Charging_Adjusted_Penalty>
0

> <i_epik_Tot_Q>
0

> <i_epik_Tot_abs_Q>
0

> <r_epik_Metal_State_Penalty>
-0

> <b_epik_Metal_Only>
0

> <s_lp_Force_Field>
OPLS_2005

> <r_lp_Energy>
4.97676

> <b_lp_Chiralities_Consistent>
1

> <s_lp_Variant>
AV-unprocessed.smi:3213-1

> <Gold.Version>
5.8.1

> <Gold.Id.Protein>
6NUR|6NUR_protein|mol2

> <Gold.PLP.Fitness>
43.6604

> <Gold.PLP.PLP>
-30.7382

> <Gold.PLP.part.hbond>
-4.3695

> <Gold.PLP.part.metal>
0.0000

> <Gold.PLP.part.buried>
-1.8925

> <Gold.PLP.part.nonpolar>
-23.8325

> <Gold.PLP.part.repulsive>
0.2540

> <Gold.PLP.ligand.clash>
0.0000

> <Gold.PLP.ligand.torsion>
0.2218

> <Gold.PLP.Chemscore.Hbond>
3.0000

> <Gold.PLP.Chemscore.CHOScore>
1.4277

> <Gold.PLP.Chemscore.Metal>
0.0000

> <Gold.Chemscore.Hbonds>
donor molecule, donor type, donor heavy atom, donor atom, acceptor molecule, acceptor atom, score
      L1  H     5    26       P1 10175  1.00
      L1  H    14    34       P1  7921  1.00
      P1  H 10192 10197       L1    14  0.88
      L1  C    10    29       P1 10171  0.52
      L1  C    15    35       P1 10957  0.78

> <Gold.PLP.Chemscore.Internal.Correction>
0.0825

> <Gold.Rescore>
     Score         DG    S(hbond)    S(metal)    S(lipo)     H(rot)  DE(clash)    DE(int)     intcor
     14.53     -16.98       2.93        0.00      68.79       2.48       0.77       1.68       ----

> <Gold.Chemscore.Fitness>
14.5288

> <Gold.Chemscore.DG>
-16.9751

> <Gold.Chemscore.ZeroCoef>
-5.4800

> <Gold.Chemscore.Hbond>
2.9296

> <Gold.Chemscore.Metal>
0.0000

> <Gold.Chemscore.Lipo>
68.7896

> <Gold.Chemscore.Internal_Hbond>
0.0000

> <Gold.Chemscore.DEClash>
0.7692

> <Gold.Chemscore.DEInternal>
1.6771

> <Gold.Chemscore.Rot>
2.4758

> <Gold.Chemscore.Internal.Correction>
   9.000000E+99

> <Gold.Chemscore.Hbonds>
donor molecule, donor type, donor heavy atom, donor atom, acceptor molecule, acceptor atom, score
      L1  H     5    26       P1 10175  0.96
      L1  H    14    34       P1  7921  1.00
      P1  H 10192 10197       L1    14  0.64

> <Gold.Chemscore.Hbond.Weighted>
-9.7847

> <Gold.Chemscore.Metal.Weighted>
-0.0000

> <Gold.Chemscore.Lipo.Weighted>
-8.0484

> <Gold.Chemscore.Internal_Hbond.Weighted>
0.0000

> <Gold.Chemscore.DEClash.Weighted>
0.7692

> <Gold.Chemscore.DEInternal.Weighted>
1.6771

> <Gold.Chemscore.Rot.Weighted>
6.3380

> <Gold.Chemscore.Internal.Correction.Weighted>
   9.000000E+99

> <Gold.Protein.RotatedTorsions>
[ 6907 6896 6895 6894 ] final  -28.10 input  -60.11 | X-H torsion
[ 7974 7965 7964 7962 ] final  -54.40 input  175.53 | X-H torsion
[ 8008 7997 7996 7995 ] final  -55.99 input   59.86 | X-H torsion
[ 10167 10162 10161 10158 ] final  162.11 input  -65.29 | X-H torsion
[ 10718 10713 10712 10709 ] final  157.37 input   66.30 | X-H torsion
[ 10763 10752 10751 10750 ] final  142.00 input  -60.55 | X-H torsion
[ 11005 11000 10999 10996 ] final  156.57 input  -57.11 | X-H torsion

> <Gold.Protein.ActiveResidues>
 VAL166  LYS551  ARG553  GLY616  TRP617  ASP618  TYR619  PRO620  LYS621  CYS622 
 ASP623  PHE694  ASN695  SER759  ASP760  ASP761  ALA762  ILE779  LEU786  VAL792 
 PHE793  MET794  SER795  GLU796  ALA797  LYS798  CYS799  TRP800  GLU811  SER814 

> <Gold.Protein.RotatedAtoms>
  151.1376  135.0163  159.8610 H   0  0  0  0  0  0  0  0  0  0  0  0  # atno 6907 bound_to 6896
  152.5452  134.1536  159.8539 H   0  0  0  0  0  0  0  0  0  0  0  0  # atno 6908 bound_to 6896
  151.1609  133.4800  159.2627 H   0  0  0  0  0  0  0  0  0  0  0  0  # atno 6909 bound_to 6896
  145.8860  140.8107  142.9815 H   0  0  0  0  0  0  0  0  0  0  0  0  # atno 7974 bound_to 7965
  154.4214  140.1140  156.5566 H   0  0  0  0  0  0  0  0  0  0  0  0  # atno 8008 bound_to 7997
  155.6355  140.3496  155.4678 H   0  0  0  0  0  0  0  0  0  0  0  0  # atno 8009 bound_to 7997
  155.9913  140.1180  157.0625 H   0  0  0  0  0  0  0  0  0  0  0  0  # atno 8010 bound_to 7997
  139.4857  144.4470  151.8879 H   0  0  0  0  0  0  0  0  0  0  0  0  # atno 10167 bound_to 10162
  157.1924  131.0657  151.2071 H   0  0  0  0  0  0  0  0  0  0  0  0  # atno 10718 bound_to 10713
  153.9486  135.2972  155.3439 H   0  0  0  0  0  0  0  0  0  0  0  0  # atno 10763 bound_to 10752
  154.7439  135.5012  153.9173 H   0  0  0  0  0  0  0  0  0  0  0  0  # atno 10764 bound_to 10752
  153.1006  135.6733  153.9788 H   0  0  0  0  0  0  0  0  0  0  0  0  # atno 10765 bound_to 10752
  140.1687  134.8558  157.2664 H   0  0  0  0  0  0  0  0  0  0  0  0  # atno 11005 bound_to 11000
  144.6728  140.1457  143.7434 LP  0  0  0  0  0  0  0  0  0  0  0  0  # atno 17320 bound_to 7965
  145.8966  139.2406  143.1518 LP  0  0  0  0  0  0  0  0  0  0  0  0  # atno 17321 bound_to 7965
  140.3924  144.2598  150.5898 LP  0  0  0  0  0  0  0  0  0  0  0  0  # atno 17342 bound_to 10162
  140.5133  143.2285  151.8501 LP  0  0  0  0  0  0  0  0  0  0  0  0  # atno 17343 bound_to 10162
  157.3847  130.7250  149.6655 LP  0  0  0  0  0  0  0  0  0  0  0  0  # atno 17370 bound_to 10713
  155.9710  130.4163  150.4223 LP  0  0  0  0  0  0  0  0  0  0  0  0  # atno 17371 bound_to 10713
  140.2403  134.3804  155.7483 LP  0  0  0  0  0  0  0  0  0  0  0  0  # atno 17394 bound_to 11000
  141.2216  133.7261  156.8778 LP  0  0  0  0  0  0  0  0  0  0  0  0  # atno 17395 bound_to 11000

$$$$
