AV-unprocessed.smi:2731|AV-procd|sdf|10531|dock3
  -GOLD-   2272014573D 1   1.00000     0.00000
 Structure written by MMmdl.
 46 47  0  0  0  0  0  0  0  0  2 V2000
  146.3100  142.9311  153.8589 C   0  0  0  0  0  0  0  0  0  0  0  0
  146.8377  141.5409  153.7457 C   0  0  0  0  0  0  0  0  0  0  0  0
  146.1543  140.5039  153.1919 N   0  3  0  0  0  0  0  0  0  0  0  0
  146.8837  139.3807  153.2551 N   0  0  0  0  0  0  0  0  0  0  0  0
  146.3240  138.1424  152.7124 C   0  0  0  0  0  0  0  0  0  0  0  0
  148.0842  139.6327  153.8511 C   0  0  0  0  0  0  0  0  0  0  0  0
  149.1477  138.6132  154.1017 C   0  0  0  0  0  0  0  0  0  0  0  0
  148.0550  140.9966  154.1701 C   0  0  0  0  0  0  0  0  0  0  0  0
  149.1432  141.7544  154.8828 C   0  0  0  0  0  0  0  0  0  0  0  0
  149.2007  141.4825  156.3997 C   0  0  0  0  0  0  0  0  0  0  0  0
  149.8056  142.5863  157.1423 N   0  0  0  0  0  0  0  0  0  0  0  0
  151.0575  142.6023  157.6262 C   0  0  0  0  0  0  0  0  0  0  0  0
  151.8304  141.6482  157.5230 O   0  0  0  0  0  0  0  0  0  0  0  0
  151.4981  143.9029  158.3105 C   0  0  0  0  0  0  0  0  0  0  0  0
  152.1980  143.6647  159.5799 N   0  0  0  0  0  0  0  0  0  0  0  0
  153.5144  143.0181  159.5087 C   0  0  0  0  0  0  0  0  0  0  0  0
  153.6008  141.8514  160.5074 C   0  0  0  0  0  0  0  0  0  0  0  0
  153.2030  142.2705  161.9374 C   0  0  0  0  0  0  0  0  0  0  0  0
  152.4847  143.6357  162.0249 C   0  0  0  0  0  0  0  0  0  0  0  0
  151.6461  143.9554  160.7807 C   0  0  0  0  0  0  0  0  0  0  0  0
  150.5329  144.4630  160.9144 O   0  0  0  0  0  0  0  0  0  0  0  0
  145.9874  143.1259  154.8818 H   0  0  0  0  0  0  0  0  0  0  0  0
  145.4590  143.0744  153.1926 H   0  0  0  0  0  0  0  0  0  0  0  0
  147.0825  143.6524  153.5933 H   0  0  0  0  0  0  0  0  0  0  0  0
  146.7350  137.9732  151.7170 H   0  0  0  0  0  0  0  0  0  0  0  0
  145.2373  138.2169  152.6533 H   0  0  0  0  0  0  0  0  0  0  0  0
  146.5900  137.3102  153.3644 H   0  0  0  0  0  0  0  0  0  0  0  0
  149.1341  138.3100  155.1485 H   0  0  0  0  0  0  0  0  0  0  0  0
  150.1298  139.0252  153.8714 H   0  0  0  0  0  0  0  0  0  0  0  0
  148.9979  137.7295  153.4815 H   0  0  0  0  0  0  0  0  0  0  0  0
  150.1136  141.5156  154.4476 H   0  0  0  0  0  0  0  0  0  0  0  0
  149.0139  142.8249  154.7209 H   0  0  0  0  0  0  0  0  0  0  0  0
  148.1909  141.3289  156.7807 H   0  0  0  0  0  0  0  0  0  0  0  0
  149.7388  140.5534  156.5944 H   0  0  0  0  0  0  0  0  0  0  0  0
  149.2345  143.4075  157.2819 H   0  0  0  0  0  0  0  0  0  0  0  0
  152.1550  144.4581  157.6392 H   0  0  0  0  0  0  0  0  0  0  0  0
  150.6226  144.5377  158.4561 H   0  0  0  0  0  0  0  0  0  0  0  0
  153.7134  142.6494  158.5020 H   0  0  0  0  0  0  0  0  0  0  0  0
  154.2848  143.7596  159.7253 H   0  0  0  0  0  0  0  0  0  0  0  0
  152.9281  141.0607  160.1718 H   0  0  0  0  0  0  0  0  0  0  0  0
  154.6014  141.4186  160.5036 H   0  0  0  0  0  0  0  0  0  0  0  0
  152.5738  141.4951  162.3759 H   0  0  0  0  0  0  0  0  0  0  0  0
  154.0969  142.3113  162.5606 H   0  0  0  0  0  0  0  0  0  0  0  0
  151.8643  143.6792  162.9209 H   0  0  0  0  0  0  0  0  0  0  0  0
  153.2259  144.4295  162.1254 H   0  0  0  0  0  0  0  0  0  0  0  0
  145.2293  140.5050  152.7810 H   0  0  0  0  0  0  0  0  0  0  0  0
  1  2  1  0  0  0  0
  1 22  1  0  0  0  0
  1 23  1  0  0  0  0
  1 24  1  0  0  0  0
  2  8  1  0  0  0  0
  2  3  2  0  0  0  0
  3  4  1  0  0  0  0
  3 46  1  0  0  0  0
  4  5  1  0  0  0  0
  4  6  1  0  0  0  0
  5 25  1  0  0  0  0
  5 26  1  0  0  0  0
  5 27  1  0  0  0  0
  6  7  1  0  0  0  0
  6  8  2  0  0  0  0
  7 28  1  0  0  0  0
  7 29  1  0  0  0  0
  7 30  1  0  0  0  0
  8  9  1  0  0  0  0
  9 10  1  0  0  0  0
  9 31  1  0  0  0  0
  9 32  1  0  0  0  0
 10 11  1  0  0  0  0
 10 33  1  0  0  0  0
 10 34  1  0  0  0  0
 11 12  1  0  0  0  0
 11 35  1  0  0  0  0
 12 13  2  0  0  0  0
 12 14  1  0  0  0  0
 14 15  1  0  0  0  0
 14 36  1  0  0  0  0
 14 37  1  0  0  0  0
 15 20  1  0  0  0  0
 15 16  1  0  0  0  0
 16 17  1  0  0  0  0
 16 38  1  0  0  0  0
 16 39  1  0  0  0  0
 17 18  1  0  0  0  0
 17 40  1  0  0  0  0
 17 41  1  0  0  0  0
 18 19  1  0  0  0  0
 18 42  1  0  0  0  0
 18 43  1  0  0  0  0
 19 20  1  0  0  0  0
 19 44  1  0  0  0  0
 19 45  1  0  0  0  0
 20 21  2  0  0  0  0
M  CHG  1   3   1
M  END
> <s_m_source_file>
AV-unprocessed.smi

> <i_m_source_file_index>
2731

> <i_lp_mmshare_version>
43012

> <i_f3d_flags>
0

> <s_epik_input>
W0NIM11jMW5uKFtDSDNdKWMoW0NIM10pYzFbQ0gyXVtDSDJdW05IXUMoPU8pW0NIMl1OMltDSDJdW0NIMl1bQ0gyXVtDSDJdQzI9Tw==

> <s_epik_cmdline>
J2VwaWtfcHl0aG9uJywgJy1waCcsICc3LjAnLCAnLXRuJywgJzgnLCAnLW1hJywgJzIwMCcsICctbWV0YWxfYmluZGluZycsICctaW1hZScsICc8aW5maWxlLm1hZT4nLCAnLW9tYWUnLCAnPG91dGZpbGUubWFlPic=

> <r_lp_tautomer_probability>
1

> <r_epik_Ionization_Penalty>
2.35701

> <r_epik_Ionization_Penalty_Charging>
2.357

> <r_epik_Ionization_Penalty_Neutral>
2.49505e-07

> <r_epik_State_Penalty>
2.51177

> <r_epik_Charging_Adjusted_Penalty>
4.86877

> <i_epik_Tot_Q>
1

> <i_epik_Tot_abs_Q>
1

> <r_epik_Metal_State_Penalty>
2.52284

> <b_epik_Metal_Only>
0

> <s_lp_Force_Field>
OPLS_2005

> <r_lp_Energy>
19.064

> <b_lp_Chiralities_Consistent>
1

> <s_lp_Variant>
AV-unprocessed.smi:2731-2

> <Gold.Version>
5.8.1

> <Gold.Id.Protein>
6NUR|6NUR_protein|mol2

> <Gold.PLP.Fitness>
56.4546

> <Gold.PLP.PLP>
-50.7243

> <Gold.PLP.part.hbond>
-2.0299

> <Gold.PLP.part.metal>
0.0000

> <Gold.PLP.part.buried>
-2.1181

> <Gold.PLP.part.nonpolar>
-46.7132

> <Gold.PLP.part.repulsive>
0.2287

> <Gold.PLP.ligand.clash>
0.0000

> <Gold.PLP.ligand.torsion>
0.7267

> <Gold.PLP.Chemscore.Hbond>
2.3858

> <Gold.PLP.Chemscore.CHOScore>
0.0000

> <Gold.PLP.Chemscore.Metal>
0.0000

> <Gold.Chemscore.Hbonds>
donor molecule, donor type, donor heavy atom, donor atom, acceptor molecule, acceptor atom, score
      L1  H     3    46       P1 10175  2.00
      L1  H    11    35       P1  8028  0.34

> <Gold.PLP.Chemscore.Internal.Correction>
0.0262

> <Gold.Rescore>
     Score         DG    S(hbond)    S(metal)    S(lipo)     H(rot)  DE(clash)    DE(int)     intcor
     17.30     -18.64       1.45        0.00     111.68       1.85       0.65       0.69       ----

> <Gold.Chemscore.Fitness>
17.2951

> <Gold.Chemscore.DG>
-18.6372

> <Gold.Chemscore.ZeroCoef>
-5.4800

> <Gold.Chemscore.Hbond>
1.4453

> <Gold.Chemscore.Metal>
0.0000

> <Gold.Chemscore.Lipo>
111.6753

> <Gold.Chemscore.Internal_Hbond>
0.0000

> <Gold.Chemscore.DEClash>
0.6477

> <Gold.Chemscore.DEInternal>
0.6944

> <Gold.Chemscore.Rot>
1.8501

> <Gold.Chemscore.Internal.Correction>
   9.000000E+99

> <Gold.Chemscore.Hbonds>
donor molecule, donor type, donor heavy atom, donor atom, acceptor molecule, acceptor atom, score
      L1  H     3    46       P1 10175  0.76
      L1  H    11    35       P1  8028  0.24

> <Gold.Chemscore.Hbond.Weighted>
-4.8274

> <Gold.Chemscore.Metal.Weighted>
-0.0000

> <Gold.Chemscore.Lipo.Weighted>
-13.0660

> <Gold.Chemscore.Internal_Hbond.Weighted>
0.0000

> <Gold.Chemscore.DEClash.Weighted>
0.6477

> <Gold.Chemscore.DEInternal.Weighted>
0.6944

> <Gold.Chemscore.Rot.Weighted>
4.7362

> <Gold.Chemscore.Internal.Correction.Weighted>
   9.000000E+99

> <Gold.Protein.RotatedTorsions>
[ 6907 6896 6895 6894 ] final  127.80 input  -60.11 | X-H torsion
[ 7974 7965 7964 7962 ] final   45.40 input  175.53 | X-H torsion
[ 8008 7997 7996 7995 ] final  -85.24 input   59.86 | X-H torsion
[ 10167 10162 10161 10158 ] final  142.50 input  -65.29 | X-H torsion
[ 10718 10713 10712 10709 ] final  111.27 input   66.30 | X-H torsion
[ 10763 10752 10751 10750 ] final  113.70 input  -60.55 | X-H torsion
[ 11005 11000 10999 10996 ] final  137.54 input  -57.11 | X-H torsion

> <Gold.Protein.ActiveResidues>
 VAL166  LYS551  ARG553  GLY616  TRP617  ASP618  TYR619  PRO620  LYS621  CYS622 
 ASP623  PHE694  ASN695  SER759  ASP760  ASP761  ALA762  ILE779  LEU786  VAL792 
 PHE793  MET794  SER795  GLU796  ALA797  LYS798  CYS799  TRP800  GLU811  SER814 

> <Gold.Protein.RotatedAtoms>
  152.3779  133.6506  159.6137 H   0  0  0  0  0  0  0  0  0  0  0  0  # atno 6907 bound_to 6896
  150.7718  133.9163  159.3393 H   0  0  0  0  0  0  0  0  0  0  0  0  # atno 6908 bound_to 6896
  151.6974  135.0937  160.0296 H   0  0  0  0  0  0  0  0  0  0  0  0  # atno 6909 bound_to 6896
  146.0483  139.4968  142.9734 H   0  0  0  0  0  0  0  0  0  0  0  0  # atno 7974 bound_to 7965
  154.6386  140.0594  156.9818 H   0  0  0  0  0  0  0  0  0  0  0  0  # atno 8008 bound_to 7997
  155.1552  140.3277  155.4404 H   0  0  0  0  0  0  0  0  0  0  0  0  # atno 8009 bound_to 7997
  156.2519  140.1940  156.6662 H   0  0  0  0  0  0  0  0  0  0  0  0  # atno 8010 bound_to 7997
  139.4992  144.6102  151.6287 H   0  0  0  0  0  0  0  0  0  0  0  0  # atno 10167 bound_to 10162
  157.6453  131.0947  150.6723 H   0  0  0  0  0  0  0  0  0  0  0  0  # atno 10718 bound_to 10713
  153.4964  135.3647  155.2518 H   0  0  0  0  0  0  0  0  0  0  0  0  # atno 10763 bound_to 10752
  154.8750  135.3989  154.3529 H   0  0  0  0  0  0  0  0  0  0  0  0  # atno 10764 bound_to 10752
  153.4158  135.7079  153.6394 H   0  0  0  0  0  0  0  0  0  0  0  0  # atno 10765 bound_to 10752
  140.0121  134.9434  157.0299 H   0  0  0  0  0  0  0  0  0  0  0  0  # atno 11005 bound_to 11000
  145.6768  141.0202  143.1628 LP  0  0  0  0  0  0  0  0  0  0  0  0  # atno 17320 bound_to 7965
  144.7109  139.8375  143.7415 LP  0  0  0  0  0  0  0  0  0  0  0  0  # atno 17321 bound_to 7965
  140.5775  144.0003  150.6250 LP  0  0  0  0  0  0  0  0  0  0  0  0  # atno 17342 bound_to 10162
  140.3141  143.3179  152.0850 LP  0  0  0  0  0  0  0  0  0  0  0  0  # atno 17343 bound_to 10162
  156.7041  130.4632  149.5565 LP  0  0  0  0  0  0  0  0  0  0  0  0  # atno 17370 bound_to 10713
  156.1775  130.6477  151.0911 LP  0  0  0  0  0  0  0  0  0  0  0  0  # atno 17371 bound_to 10713
  140.4536  134.1557  155.7184 LP  0  0  0  0  0  0  0  0  0  0  0  0  # atno 17394 bound_to 11000
  141.1718  133.8594  157.1547 LP  0  0  0  0  0  0  0  0  0  0  0  0  # atno 17395 bound_to 11000

$$$$
