AV-unprocessed.smi:1715|AV-procd|sdf|6910|dock10
  -GOLD-   22720 8113D 1   1.00000     0.00000
 Structure written by MMmdl.
 40 41  0  0  0  0  0  0  0  0  1 V2000
  149.1987  141.2520  154.7407 C   0  0  0  0  0  0  0  0  0  0  0  0
  149.7114  139.8351  154.4620 C   0  0  2  0  0  0  0  0  0  0  0  0
  149.0786  138.7909  155.4011 C   0  0  0  0  0  0  0  0  0  0  0  0
  149.6231  137.4555  155.1824 N   0  0  0  0  0  0  0  0  0  0  0  0
  148.9994  136.4848  156.0797 C   0  0  0  0  0  0  0  0  0  0  0  0
  148.7768  135.0872  155.4718 C   0  0  0  0  0  0  0  0  0  0  0  0
  148.0700  135.1692  154.1995 N   0  0  0  0  0  0  0  0  0  0  0  0
  146.8219  134.7309  153.9832 C   0  0  0  0  0  0  0  0  0  0  0  0
  146.1259  134.2018  154.8501 O   0  0  0  0  0  0  0  0  0  0  0  0
  146.4435  134.9431  152.7120 N   0  0  0  0  0  0  0  0  0  0  0  0
  145.1978  134.6172  152.1187 C   0  0  0  0  0  0  0  0  0  0  0  0
  144.1632  133.8840  152.7607 C   0  0  0  0  0  0  0  0  0  0  0  0
  143.1145  133.7292  151.9653 N   0  0  0  0  0  0  0  0  0  0  0  0
  143.4701  134.3563  150.8213 N   0  0  0  0  0  0  0  0  0  0  0  0
  144.7295  134.9123  150.8690 C   0  0  0  0  0  0  0  0  0  0  0  0
  151.0756  137.5075  155.3314 C   0  0  0  0  0  0  0  0  0  0  0  0
  151.7149  138.5524  154.3962 C   0  0  2  0  0  0  0  0  0  0  0  0
  153.2274  138.6734  154.6103 C   0  0  0  0  0  0  0  0  0  0  0  0
  151.1246  139.8255  154.6436 O   0  0  0  0  0  0  0  0  0  0  0  0
  142.8492  134.3959  150.0253 H   0  0  0  0  0  0  0  0  0  0  0  0
  148.1187  141.3122  154.6037 H   0  0  0  0  0  0  0  0  0  0  0  0
  149.6601  141.9730  154.0655 H   0  0  0  0  0  0  0  0  0  0  0  0
  149.4245  141.5598  155.7621 H   0  0  0  0  0  0  0  0  0  0  0  0
  149.4858  139.5787  153.4254 H   0  0  0  0  0  0  0  0  0  0  0  0
  149.2416  139.0898  156.4381 H   0  0  0  0  0  0  0  0  0  0  0  0
  147.9988  138.7774  155.2476 H   0  0  0  0  0  0  0  0  0  0  0  0
  149.5890  136.3964  156.9935 H   0  0  0  0  0  0  0  0  0  0  0  0
  148.0276  136.8732  156.3878 H   0  0  0  0  0  0  0  0  0  0  0  0
  149.7293  134.5709  155.3398 H   0  0  0  0  0  0  0  0  0  0  0  0
  148.1746  134.4673  156.1348 H   0  0  0  0  0  0  0  0  0  0  0  0
  148.5677  135.5908  153.4291 H   0  0  0  0  0  0  0  0  0  0  0  0
  147.1172  135.3852  152.1041 H   0  0  0  0  0  0  0  0  0  0  0  0
  144.1388  133.4676  153.7570 H   0  0  0  0  0  0  0  0  0  0  0  0
  145.1576  135.4475  150.0345 H   0  0  0  0  0  0  0  0  0  0  0  0
  151.3316  137.7406  156.3662 H   0  0  0  0  0  0  0  0  0  0  0  0
  151.5124  136.5337  155.1127 H   0  0  0  0  0  0  0  0  0  0  0  0
  151.5297  138.2737  153.3575 H   0  0  0  0  0  0  0  0  0  0  0  0
  153.7285  137.7239  154.4203 H   0  0  0  0  0  0  0  0  0  0  0  0
  153.4585  138.9762  155.6319 H   0  0  0  0  0  0  0  0  0  0  0  0
  153.6571  139.4160  153.9376 H   0  0  0  0  0  0  0  0  0  0  0  0
  1  2  1  0  0  0  0
  1 21  1  0  0  0  0
  1 22  1  0  0  0  0
  1 23  1  0  0  0  0
  2 19  1  0  0  0  0
  2  3  1  0  0  0  0
  2 24  1  0  0  0  0
  3  4  1  0  0  0  0
  3 25  1  0  0  0  0
  3 26  1  0  0  0  0
  4  5  1  0  0  0  0
  4 16  1  0  0  0  0
  5  6  1  0  0  0  0
  5 27  1  0  0  0  0
  5 28  1  0  0  0  0
  6  7  1  0  0  0  0
  6 29  1  0  0  0  0
  6 30  1  0  0  0  0
  7  8  1  0  0  0  0
  7 31  1  0  0  0  0
  8  9  2  0  0  0  0
  8 10  1  0  0  0  0
 10 11  1  0  0  0  0
 10 32  1  0  0  0  0
 11 15  2  0  0  0  0
 11 12  1  0  0  0  0
 12 13  2  0  0  0  0
 12 33  1  0  0  0  0
 13 14  1  0  0  0  0
 14 20  1  0  0  0  0
 14 15  1  0  0  0  0
 15 34  1  0  0  0  0
 16 17  1  0  0  0  0
 16 35  1  0  0  0  0
 16 36  1  0  0  0  0
 17 18  1  0  0  0  0
 17 19  1  0  0  0  0
 17 37  1  0  0  0  0
 18 38  1  0  0  0  0
 18 39  1  0  0  0  0
 18 40  1  0  0  0  0
M  END
> <s_m_source_file>
AV-unprocessed.smi

> <i_m_source_file_index>
1715

> <i_lp_mmshare_version>
43012

> <i_f3d_flags>
0

> <s_epik_input>
W0NIM11bQ0BASF0xW0NIMl1OKFtDSDJdW0NASF0oTzEpW0NIM10pW0NIMl1bQ0gyXVtOSF1DKD1PKVtOSF1jMltjSF1uW25IXVtjSF0y

> <s_epik_cmdline>
J2VwaWtfcHl0aG9uJywgJy1waCcsICc3LjAnLCAnLXRuJywgJzgnLCAnLW1hJywgJzIwMCcsICctbWV0YWxfYmluZGluZycsICctaW1hZScsICc8aW5maWxlLm1hZT4nLCAnLW9tYWUnLCAnPG91dGZpbGUubWFlPic=

> <r_lp_tautomer_probability>
0.5

> <r_epik_Ionization_Penalty>
0.242771

> <r_epik_Ionization_Penalty_Charging>
0

> <r_epik_Ionization_Penalty_Neutral>
0.242771

> <r_epik_State_Penalty>
0.233765

> <r_epik_Charging_Adjusted_Penalty>
0.233765

> <i_epik_Tot_Q>
0

> <i_epik_Tot_abs_Q>
0

> <r_epik_Metal_State_Penalty>
0.233764

> <b_epik_Metal_Only>
0

> <s_lp_Force_Field>
OPLS_2005

> <r_lp_Energy>
21.5882

> <b_lp_Chiralities_Consistent>
1

> <s_lp_Variant>
AV-unprocessed.smi:1715-2

> <Gold.Version>
5.8.1

> <Gold.Id.Protein>
6NUR|6NUR_protein|mol2

> <Gold.PLP.Fitness>
42.9594

> <Gold.PLP.PLP>
-26.8960

> <Gold.PLP.part.hbond>
-4.0000

> <Gold.PLP.part.metal>
0.0000

> <Gold.PLP.part.buried>
-4.9299

> <Gold.PLP.part.nonpolar>
-19.3790

> <Gold.PLP.part.repulsive>
0.4879

> <Gold.PLP.ligand.clash>
0.0000

> <Gold.PLP.ligand.torsion>
0.5234

> <Gold.PLP.Chemscore.Hbond>
3.7280

> <Gold.PLP.Chemscore.CHOScore>
1.9719

> <Gold.PLP.Chemscore.Metal>
0.0000

> <Gold.Chemscore.Hbonds>
donor molecule, donor type, donor heavy atom, donor atom, acceptor molecule, acceptor atom, score
      L1  H     7    31       P1  7948  1.00
      L1  H    10    32       P1  7948  0.99
      L1  H    14    20       P1 10186  0.85
      P1  H  7989  7998       L1    19  1.00
      L1  C    12    33       P1 10957  1.00
      L1  C    15    34       P1  7921  0.67

> <Gold.PLP.Chemscore.Internal.Correction>
0.0106

> <Gold.Rescore>
     Score         DG    S(hbond)    S(metal)    S(lipo)     H(rot)  DE(clash)    DE(int)     intcor
     16.74     -18.66       3.00        0.00      62.74       1.63       0.09       1.82       ----

> <Gold.Chemscore.Fitness>
16.7446

> <Gold.Chemscore.DG>
-18.6591

> <Gold.Chemscore.ZeroCoef>
-5.4800

> <Gold.Chemscore.Hbond>
2.9965

> <Gold.Chemscore.Metal>
0.0000

> <Gold.Chemscore.Lipo>
62.7362

> <Gold.Chemscore.Internal_Hbond>
0.0000

> <Gold.Chemscore.DEClash>
0.0929

> <Gold.Chemscore.DEInternal>
1.8216

> <Gold.Chemscore.Rot>
1.6287

> <Gold.Chemscore.Internal.Correction>
   9.000000E+99

> <Gold.Chemscore.Hbonds>
donor molecule, donor type, donor heavy atom, donor atom, acceptor molecule, acceptor atom, score
      L1  H     7    31       P1  7948  0.99
      L1  H    10    32       P1  7948  0.90
      L1  H    14    20       P1 10186  0.75
      P1  H  7989  7998       L1    19  0.26

> <Gold.Chemscore.Hbond.Weighted>
-10.0084

> <Gold.Chemscore.Metal.Weighted>
-0.0000

> <Gold.Chemscore.Lipo.Weighted>
-7.3401

> <Gold.Chemscore.Internal_Hbond.Weighted>
0.0000

> <Gold.Chemscore.DEClash.Weighted>
0.0929

> <Gold.Chemscore.DEInternal.Weighted>
1.8216

> <Gold.Chemscore.Rot.Weighted>
4.1695

> <Gold.Chemscore.Internal.Correction.Weighted>
   9.000000E+99

> <Gold.Protein.RotatedTorsions>
[ 6907 6896 6895 6894 ] final -172.41 input  -60.11 | X-H torsion
[ 7974 7965 7964 7962 ] final  -81.50 input  175.53 | X-H torsion
[ 8008 7997 7996 7995 ] final  134.25 input   59.86 | X-H torsion
[ 10167 10162 10161 10158 ] final -123.47 input  -65.29 | X-H torsion
[ 10718 10713 10712 10709 ] final   32.35 input   66.30 | X-H torsion
[ 10763 10752 10751 10750 ] final    7.24 input  -60.55 | X-H torsion
[ 11005 11000 10999 10996 ] final  166.37 input  -57.11 | X-H torsion

> <Gold.Protein.ActiveResidues>
 VAL166  LYS551  ARG553  GLY616  TRP617  ASP618  TYR619  PRO620  LYS621  CYS622 
 ASP623  PHE694  ASN695  SER759  ASP760  ASP761  ALA762  ILE779  LEU786  VAL792 
 PHE793  MET794  SER795  GLU796  ALA797  LYS798  CYS799  TRP800  GLU811  SER814 

> <Gold.Protein.RotatedAtoms>
  151.5396  133.3435  159.2932 H   0  0  0  0  0  0  0  0  0  0  0  0  # atno 6907 bound_to 6896
  150.8544  134.7880  159.7045 H   0  0  0  0  0  0  0  0  0  0  0  0  # atno 6908 bound_to 6896
  152.4581  134.5254  159.9847 H   0  0  0  0  0  0  0  0  0  0  0  0  # atno 6909 bound_to 6896
  145.5458  140.9503  143.1526 H   0  0  0  0  0  0  0  0  0  0  0  0  # atno 7974 bound_to 7965
  156.2998  140.2501  156.3386 H   0  0  0  0  0  0  0  0  0  0  0  0  # atno 8008 bound_to 7997
  154.9076  140.0404  157.1947 H   0  0  0  0  0  0  0  0  0  0  0  0  # atno 8009 bound_to 7997
  154.8437  140.2895  155.5647 H   0  0  0  0  0  0  0  0  0  0  0  0  # atno 8010 bound_to 7997
  140.0032  143.5519  152.2295 H   0  0  0  0  0  0  0  0  0  0  0  0  # atno 10167 bound_to 10162
  157.2842  130.7270  149.6573 H   0  0  0  0  0  0  0  0  0  0  0  0  # atno 10718 bound_to 10713
  153.2386  135.6901  153.7809 H   0  0  0  0  0  0  0  0  0  0  0  0  # atno 10763 bound_to 10752
  153.6947  135.3307  155.3211 H   0  0  0  0  0  0  0  0  0  0  0  0  # atno 10764 bound_to 10752
  154.8345  135.4553  154.1299 H   0  0  0  0  0  0  0  0  0  0  0  0  # atno 10765 bound_to 10752
  140.2658  134.7866  157.3631 H   0  0  0  0  0  0  0  0  0  0  0  0  # atno 11005 bound_to 11000
  144.7554  139.7088  143.7256 LP  0  0  0  0  0  0  0  0  0  0  0  0  # atno 17320 bound_to 7965
  146.1950  139.5211  142.9780 LP  0  0  0  0  0  0  0  0  0  0  0  0  # atno 17321 bound_to 7965
  139.6257  144.7637  151.2643 LP  0  0  0  0  0  0  0  0  0  0  0  0  # atno 17342 bound_to 10162
  140.7411  143.6568  150.8199 LP  0  0  0  0  0  0  0  0  0  0  0  0  # atno 17343 bound_to 10162
  155.9665  130.4329  150.4982 LP  0  0  0  0  0  0  0  0  0  0  0  0  # atno 17370 bound_to 10713
  157.2932  131.0630  151.2120 LP  0  0  0  0  0  0  0  0  0  0  0  0  # atno 17371 bound_to 10713
  140.1421  134.4958  155.8024 LP  0  0  0  0  0  0  0  0  0  0  0  0  # atno 17394 bound_to 11000
  141.2184  133.6829  156.7228 LP  0  0  0  0  0  0  0  0  0  0  0  0  # atno 17395 bound_to 11000

$$$$
