AV-unprocessed.smi:1687|AV-procd|sdf|6766|dock2
  -GOLD-   22720 7523D 1   1.00000     0.00000
 Structure written by MMmdl.
 45 46  0  0  0  0  0  0  0  0  2 V2000
  145.0436  136.2858  151.6843 C   0  0  0  0  0  0  0  0  0  0  0  0
  145.8627  137.2503  152.5537 C   0  0  2  0  0  0  0  0  0  0  0  0
  145.0544  137.7527  153.7628 C   0  0  0  0  0  0  0  0  0  0  0  0
  145.8687  138.7466  154.6087 C   0  0  0  0  0  0  0  0  0  0  0  0
  146.3358  139.8881  153.7789 N   0  3  1  0  0  0  0  0  0  0  0  0
  146.9088  141.0131  154.5749 C   0  0  2  0  0  0  0  0  0  0  0  0
  146.7617  142.3398  153.8048 C   0  0  0  0  0  0  0  0  0  0  0  0
  148.3548  140.7370  155.0627 C   0  0  0  0  0  0  0  0  0  0  0  0
  148.9221  141.8623  155.8018 N   0  0  0  0  0  0  0  0  0  0  0  0
  149.7139  141.7624  156.8801 C   0  0  0  0  0  0  0  0  0  0  0  0
  150.0740  140.6859  157.3574 O   0  0  0  0  0  0  0  0  0  0  0  0
  150.0546  142.9754  157.3499 N   0  0  0  0  0  0  0  0  0  0  0  0
  150.8814  143.2836  158.4632 C   0  0  0  0  0  0  0  0  0  0  0  0
  151.0582  144.6632  158.7144 C   0  0  0  0  0  0  0  0  0  0  0  0
  151.8612  145.0731  159.7966 C   0  0  0  0  0  0  0  0  0  0  0  0
  152.4678  144.0914  160.6003 C   0  0  0  0  0  0  0  0  0  0  0  0
  152.2404  142.7397  160.2814 C   0  0  0  0  0  0  0  0  0  0  0  0
  151.4717  142.3449  159.2445 N   0  0  0  0  0  0  0  0  0  0  0  0
  147.1643  139.4286  152.6307 C   0  0  0  0  0  0  0  0  0  0  0  0
  146.3711  138.4554  151.7431 C   0  0  0  0  0  0  0  0  0  0  0  0
  144.1578  136.7731  151.2759 H   0  0  0  0  0  0  0  0  0  0  0  0
  144.7114  135.4226  152.2616 H   0  0  0  0  0  0  0  0  0  0  0  0
  145.6344  135.9136  150.8468 H   0  0  0  0  0  0  0  0  0  0  0  0
  146.7288  136.7033  152.9294 H   0  0  0  0  0  0  0  0  0  0  0  0
  144.1369  138.2336  153.4206 H   0  0  0  0  0  0  0  0  0  0  0  0
  144.7475  136.9097  154.3830 H   0  0  0  0  0  0  0  0  0  0  0  0
  145.2461  139.1100  155.4270 H   0  0  0  0  0  0  0  0  0  0  0  0
  146.7222  138.2388  155.0593 H   0  0  0  0  0  0  0  0  0  0  0  0
  146.2811  141.1196  155.4609 H   0  0  0  0  0  0  0  0  0  0  0  0
  146.9631  143.1969  154.4474 H   0  0  0  0  0  0  0  0  0  0  0  0
  145.7479  142.4617  153.4224 H   0  0  0  0  0  0  0  0  0  0  0  0
  147.4472  142.3991  152.9594 H   0  0  0  0  0  0  0  0  0  0  0  0
  148.3675  139.8784  155.7337 H   0  0  0  0  0  0  0  0  0  0  0  0
  149.0074  140.4774  154.2283 H   0  0  0  0  0  0  0  0  0  0  0  0
  148.6788  142.7873  155.4781 H   0  0  0  0  0  0  0  0  0  0  0  0
  149.6800  143.7715  156.8560 H   0  0  0  0  0  0  0  0  0  0  0  0
  150.5851  145.4046  158.0869 H   0  0  0  0  0  0  0  0  0  0  0  0
  152.0090  146.1225  160.0052 H   0  0  0  0  0  0  0  0  0  0  0  0
  153.0903  144.3664  161.4388 H   0  0  0  0  0  0  0  0  0  0  0  0
  152.6868  141.9547  160.8736 H   0  0  0  0  0  0  0  0  0  0  0  0
  147.4860  140.2770  152.0278 H   0  0  0  0  0  0  0  0  0  0  0  0
  148.0665  138.9334  152.9920 H   0  0  0  0  0  0  0  0  0  0  0  0
  147.0010  138.1132  150.9209 H   0  0  0  0  0  0  0  0  0  0  0  0
  145.5294  138.9805  151.2890 H   0  0  0  0  0  0  0  0  0  0  0  0
  145.4955  140.2697  153.3687 H   0  0  0  0  0  0  0  0  0  0  0  0
  1  2  1  0  0  0  0
  1 21  1  0  0  0  0
  1 22  1  0  0  0  0
  1 23  1  0  0  0  0
  2 20  1  0  0  0  0
  2  3  1  0  0  0  0
  2 24  1  0  0  0  0
  3  4  1  0  0  0  0
  3 25  1  0  0  0  0
  3 26  1  0  0  0  0
  4  5  1  0  0  0  0
  4 27  1  0  0  0  0
  4 28  1  0  0  0  0
  5  6  1  0  0  0  0
  5 19  1  0  0  0  0
  5 45  1  0  0  0  0
  6  7  1  0  0  0  0
  6  8  1  0  0  0  0
  6 29  1  0  0  0  0
  7 30  1  0  0  0  0
  7 31  1  0  0  0  0
  7 32  1  0  0  0  0
  8  9  1  0  0  0  0
  8 33  1  0  0  0  0
  8 34  1  0  0  0  0
  9 10  1  0  0  0  0
  9 35  1  0  0  0  0
 10 11  2  0  0  0  0
 10 12  1  0  0  0  0
 12 13  1  0  0  0  0
 12 36  1  0  0  0  0
 13 18  1  0  0  0  0
 13 14  2  0  0  0  0
 14 15  1  0  0  0  0
 14 37  1  0  0  0  0
 15 16  2  0  0  0  0
 15 38  1  0  0  0  0
 16 17  1  0  0  0  0
 16 39  1  0  0  0  0
 17 18  2  0  0  0  0
 17 40  1  0  0  0  0
 19 20  1  0  0  0  0
 19 41  1  0  0  0  0
 19 42  1  0  0  0  0
 20 43  1  0  0  0  0
 20 44  1  0  0  0  0
M  CHG  1   5   1
M  END
> <s_m_source_file>
AV-unprocessed.smi

> <i_m_source_file_index>
1687

> <i_lp_mmshare_version>
43012

> <i_f3d_flags>
0

> <s_epik_input>
W0NIM11bQ0hdMVtDSDJdW0NIMl1OKFtDSDJdW0NIMl0xKVtDQEhdKFtDSDNdKVtDSDJdW05IXUMoPU8pW05IXWMyW2NIXVtjSF1bY0hdW2NIXW4y

> <s_epik_cmdline>
J2VwaWtfcHl0aG9uJywgJy1waCcsICc3LjAnLCAnLXRuJywgJzgnLCAnLW1hJywgJzIwMCcsICctbWV0YWxfYmluZGluZycsICctaW1hZScsICc8aW5maWxlLm1hZT4nLCAnLW9tYWUnLCAnPG91dGZpbGUubWFlPic=

> <r_epik_Ionization_Penalty>
0.00142891

> <r_epik_Ionization_Penalty_Charging>
0.00139388

> <r_epik_Ionization_Penalty_Neutral>
3.50347e-05

> <r_epik_State_Penalty>
0.000929204

> <r_epik_Charging_Adjusted_Penalty>
0.00232308

> <i_epik_Tot_Q>
1

> <i_epik_Tot_abs_Q>
1

> <r_epik_Metal_State_Penalty>
-0

> <b_epik_Metal_Only>
0

> <s_lp_Force_Field>
OPLS_2005

> <r_lp_Energy>
21.3986

> <b_lp_Chiralities_Consistent>
1

> <s_lp_Variant>
AV-unprocessed.smi:1687-1

> <Gold.Version>
5.8.1

> <Gold.Id.Protein>
6NUR|6NUR_protein|mol2

> <Gold.PLP.Fitness>
49.0561

> <Gold.PLP.PLP>
-37.9060

> <Gold.PLP.part.hbond>
-3.0000

> <Gold.PLP.part.metal>
0.0000

> <Gold.PLP.part.buried>
-3.2894

> <Gold.PLP.part.nonpolar>
-32.2314

> <Gold.PLP.part.repulsive>
0.1303

> <Gold.PLP.ligand.clash>
0.0000

> <Gold.PLP.ligand.torsion>
0.4745

> <Gold.PLP.Chemscore.Hbond>
3.9920

> <Gold.PLP.Chemscore.CHOScore>
0.0000

> <Gold.PLP.Chemscore.Metal>
0.0000

> <Gold.Chemscore.Hbonds>
donor molecule, donor type, donor heavy atom, donor atom, acceptor molecule, acceptor atom, score
      L1  H     5    45       P1 10175  1.98
      L1  H     9    35       P1  8028  0.99
      L1  H    12    36       P1  8028  1.00

> <Gold.PLP.Chemscore.Internal.Correction>
0.1231

> <Gold.Rescore>
     Score         DG    S(hbond)    S(metal)    S(lipo)     H(rot)  DE(clash)    DE(int)     intcor
     20.35     -22.15       2.87        0.00      93.27       1.50       0.13       1.67       ----

> <Gold.Chemscore.Fitness>
20.3457

> <Gold.Chemscore.DG>
-22.1524

> <Gold.Chemscore.ZeroCoef>
-5.4800

> <Gold.Chemscore.Hbond>
2.8708

> <Gold.Chemscore.Metal>
0.0000

> <Gold.Chemscore.Lipo>
93.2728

> <Gold.Chemscore.Internal_Hbond>
0.0000

> <Gold.Chemscore.DEClash>
0.1328

> <Gold.Chemscore.DEInternal>
1.6739

> <Gold.Chemscore.Rot>
1.4956

> <Gold.Chemscore.Internal.Correction>
   9.000000E+99

> <Gold.Chemscore.Hbonds>
donor molecule, donor type, donor heavy atom, donor atom, acceptor molecule, acceptor atom, score
      L1  H     5    45       P1 10175  0.93
      L1  H     9    35       P1  8028  0.93
      L1  H    12    36       P1  8028  0.97

> <Gold.Chemscore.Hbond.Weighted>
-9.5883

> <Gold.Chemscore.Metal.Weighted>
-0.0000

> <Gold.Chemscore.Lipo.Weighted>
-10.9129

> <Gold.Chemscore.Internal_Hbond.Weighted>
0.0000

> <Gold.Chemscore.DEClash.Weighted>
0.1328

> <Gold.Chemscore.DEInternal.Weighted>
1.6739

> <Gold.Chemscore.Rot.Weighted>
3.8289

> <Gold.Chemscore.Internal.Correction.Weighted>
   9.000000E+99

> <Gold.Protein.RotatedTorsions>
[ 6907 6896 6895 6894 ] final   -3.60 input  -60.11 | X-H torsion
[ 7974 7965 7964 7962 ] final -169.66 input  175.53 | X-H torsion
[ 8008 7997 7996 7995 ] final  122.31 input   59.86 | X-H torsion
[ 10167 10162 10161 10158 ] final -134.08 input  -65.29 | X-H torsion
[ 10718 10713 10712 10709 ] final   61.68 input   66.30 | X-H torsion
[ 10763 10752 10751 10750 ] final  -39.79 input  -60.55 | X-H torsion
[ 11005 11000 10999 10996 ] final  147.79 input  -57.11 | X-H torsion

> <Gold.Protein.ActiveResidues>
 VAL166  LYS551  ARG553  GLY616  TRP617  ASP618  TYR619  PRO620  LYS621  CYS622 
 ASP623  PHE694  ASN695  SER759  ASP760  ASP761  ALA762  ILE779  LEU786  VAL792 
 PHE793  MET794  SER795  GLU796  ALA797  LYS798  CYS799  TRP800  GLU811  SER814 

> <Gold.Protein.RotatedAtoms>
  151.5111  135.1065  159.9853 H   0  0  0  0  0  0  0  0  0  0  0  0  # atno 6907 bound_to 6896
  152.4661  133.7922  159.6918 H   0  0  0  0  0  0  0  0  0  0  0  0  # atno 6908 bound_to 6896
  150.8645  133.7530  159.3007 H   0  0  0  0  0  0  0  0  0  0  0  0  # atno 6909 bound_to 6896
  144.7182  140.2188  143.6318 H   0  0  0  0  0  0  0  0  0  0  0  0  # atno 7974 bound_to 7965
  156.2722  140.2789  156.1447 H   0  0  0  0  0  0  0  0  0  0  0  0  # atno 8008 bound_to 7997
  155.0917  140.0388  157.2688 H   0  0  0  0  0  0  0  0  0  0  0  0  # atno 8009 bound_to 7997
  154.6884  140.2624  155.6843 H   0  0  0  0  0  0  0  0  0  0  0  0  # atno 8010 bound_to 7997
  139.8917  143.6714  152.2611 H   0  0  0  0  0  0  0  0  0  0  0  0  # atno 10167 bound_to 10162
  157.5845  130.9008  149.9491 H   0  0  0  0  0  0  0  0  0  0  0  0  # atno 10718 bound_to 10713
  153.9352  135.6767  153.4745 H   0  0  0  0  0  0  0  0  0  0  0  0  # atno 10763 bound_to 10752
  153.0959  135.4851  154.8775 H   0  0  0  0  0  0  0  0  0  0  0  0  # atno 10764 bound_to 10752
  154.7407  135.3160  154.8691 H   0  0  0  0  0  0  0  0  0  0  0  0  # atno 10765 bound_to 10752
  140.0906  134.9043  157.1644 H   0  0  0  0  0  0  0  0  0  0  0  0  # atno 11005 bound_to 11000
  145.8521  139.2180  143.1766 LP  0  0  0  0  0  0  0  0  0  0  0  0  # atno 17320 bound_to 7965
  146.0251  140.8311  142.9904 LP  0  0  0  0  0  0  0  0  0  0  0  0  # atno 17321 bound_to 7965
  139.7104  144.7621  151.1122 LP  0  0  0  0  0  0  0  0  0  0  0  0  # atno 17342 bound_to 10162
  140.7725  143.5339  150.9391 LP  0  0  0  0  0  0  0  0  0  0  0  0  # atno 17343 bound_to 10162
  156.0893  130.3665  150.0425 LP  0  0  0  0  0  0  0  0  0  0  0  0  # atno 17370 bound_to 10713
  156.8559  130.9475  151.3622 LP  0  0  0  0  0  0  0  0  0  0  0  0  # atno 17371 bound_to 10713
  140.3358  134.2759  155.7220 LP  0  0  0  0  0  0  0  0  0  0  0  0  # atno 17394 bound_to 11000
  141.2076  133.7800  157.0107 LP  0  0  0  0  0  0  0  0  0  0  0  0  # atno 17395 bound_to 11000

$$$$
