AV-unprocessed.smi:2659|AV-procd|sdf|10313|dock7
  -GOLD-   2272014333D 1   1.00000     0.00000
 Structure written by MMmdl.
 47 48  0  0  0  0  0  0  0  0  1 V2000
  147.0477  141.4437  153.3234 C   0  0  0  0  0  0  0  0  0  0  0  0
  148.2091  140.9090  154.0067 N   0  0  0  0  0  0  0  0  0  0  0  0
  148.9903  141.7223  154.7489 N   0  0  0  0  0  0  0  0  0  0  0  0
  149.9473  140.9397  155.2368 C   0  0  0  0  0  0  0  0  0  0  0  0
  151.0083  141.5269  156.1329 C   0  0  0  0  0  0  0  0  0  0  0  0
  150.9085  141.1224  157.6313 C   0  0  0  0  0  0  0  0  0  0  0  0
  151.0299  139.5921  157.7754 C   0  0  0  0  0  0  0  0  0  0  0  0
  149.5305  141.5560  158.1686 C   0  0  0  0  0  0  0  0  0  0  0  0
  152.0014  141.7970  158.4885 C   0  0  0  0  0  0  0  0  0  0  0  0
  149.8172  139.5854  154.8102 C   0  0  0  0  0  0  0  0  0  0  0  0
  148.6920  139.6199  154.0330 C   0  0  0  0  0  0  0  0  0  0  0  0
  148.0851  138.6058  153.3611 N   0  0  0  0  0  0  0  0  0  0  0  0
  146.7740  138.3225  153.2720 C   0  0  0  0  0  0  0  0  0  0  0  0
  145.8664  138.9602  153.8065 O   0  0  0  0  0  0  0  0  0  0  0  0
  146.5655  137.2368  152.5143 N   0  0  0  0  0  0  0  0  0  0  0  0
  145.2599  136.6539  152.2268 C   0  0  0  0  0  0  0  0  0  0  0  0
  145.3414  135.6096  151.1015 C   0  0  1  0  0  0  0  0  0  0  0  0
  146.2379  134.4192  151.4322 C   0  0  0  0  0  0  0  0  0  0  0  0
  145.6974  133.3654  150.4931 C   0  0  0  0  0  0  0  0  0  0  0  0
  144.1982  133.6535  150.5191 C   0  0  0  0  0  0  0  0  0  0  0  0
  144.0618  135.0326  150.8553 O   0  0  0  0  0  0  0  0  0  0  0  0
  146.1614  140.8767  153.6090 H   0  0  0  0  0  0  0  0  0  0  0  0
  147.1899  141.3651  152.2455 H   0  0  0  0  0  0  0  0  0  0  0  0
  146.8953  142.4914  153.5862 H   0  0  0  0  0  0  0  0  0  0  0  0
  151.9763  141.2036  155.7477 H   0  0  0  0  0  0  0  0  0  0  0  0
  151.0208  142.6137  156.0382 H   0  0  0  0  0  0  0  0  0  0  0  0
  150.9107  139.2808  158.8138 H   0  0  0  0  0  0  0  0  0  0  0  0
  152.0032  139.2327  157.4410 H   0  0  0  0  0  0  0  0  0  0  0  0
  150.2696  139.0739  157.1900 H   0  0  0  0  0  0  0  0  0  0  0  0
  148.7205  141.1060  157.5934 H   0  0  0  0  0  0  0  0  0  0  0  0
  149.4063  142.6385  158.1201 H   0  0  0  0  0  0  0  0  0  0  0  0
  149.3968  141.2603  159.2098 H   0  0  0  0  0  0  0  0  0  0  0  0
  151.8678  141.5717  159.5471 H   0  0  0  0  0  0  0  0  0  0  0  0
  151.9758  142.8818  158.3792 H   0  0  0  0  0  0  0  0  0  0  0  0
  153.0019  141.4594  158.2166 H   0  0  0  0  0  0  0  0  0  0  0  0
  150.4521  138.7465  155.0509 H   0  0  0  0  0  0  0  0  0  0  0  0
  148.7070  137.9901  152.8583 H   0  0  0  0  0  0  0  0  0  0  0  0
  147.3675  136.7699  152.1173 H   0  0  0  0  0  0  0  0  0  0  0  0
  144.8481  136.2036  153.1314 H   0  0  0  0  0  0  0  0  0  0  0  0
  144.5793  137.4574  151.9440 H   0  0  0  0  0  0  0  0  0  0  0  0
  145.6912  136.0682  150.1749 H   0  0  0  0  0  0  0  0  0  0  0  0
  147.2968  134.6282  151.2780 H   0  0  0  0  0  0  0  0  0  0  0  0
  146.0969  134.1051  152.4674 H   0  0  0  0  0  0  0  0  0  0  0  0
  146.0927  133.5235  149.4889 H   0  0  0  0  0  0  0  0  0  0  0  0
  145.9420  132.3484  150.8006 H   0  0  0  0  0  0  0  0  0  0  0  0
  143.7205  133.4297  149.5650 H   0  0  0  0  0  0  0  0  0  0  0  0
  143.7068  133.0601  151.2908 H   0  0  0  0  0  0  0  0  0  0  0  0
  1  2  1  0  0  0  0
  1 22  1  0  0  0  0
  1 23  1  0  0  0  0
  1 24  1  0  0  0  0
  2 11  1  0  0  0  0
  2  3  1  0  0  0  0
  3  4  2  0  0  0  0
  4  5  1  0  0  0  0
  4 10  1  0  0  0  0
  5  6  1  0  0  0  0
  5 25  1  0  0  0  0
  5 26  1  0  0  0  0
  6  7  1  0  0  0  0
  6  8  1  0  0  0  0
  6  9  1  0  0  0  0
  7 27  1  0  0  0  0
  7 28  1  0  0  0  0
  7 29  1  0  0  0  0
  8 30  1  0  0  0  0
  8 31  1  0  0  0  0
  8 32  1  0  0  0  0
  9 33  1  0  0  0  0
  9 34  1  0  0  0  0
  9 35  1  0  0  0  0
 10 11  2  0  0  0  0
 10 36  1  0  0  0  0
 11 12  1  0  0  0  0
 12 13  1  0  0  0  0
 12 37  1  0  0  0  0
 13 14  2  0  0  0  0
 13 15  1  0  0  0  0
 15 16  1  0  0  0  0
 15 38  1  0  0  0  0
 16 17  1  0  0  0  0
 16 39  1  0  0  0  0
 16 40  1  0  0  0  0
 17 21  1  0  0  0  0
 17 18  1  0  0  0  0
 17 41  1  0  0  0  0
 18 19  1  0  0  0  0
 18 42  1  0  0  0  0
 18 43  1  0  0  0  0
 19 20  1  0  0  0  0
 19 44  1  0  0  0  0
 19 45  1  0  0  0  0
 20 21  1  0  0  0  0
 20 46  1  0  0  0  0
 20 47  1  0  0  0  0
M  END
> <s_m_source_file>
AV-unprocessed.smi

> <i_m_source_file_index>
2659

> <i_lp_mmshare_version>
43012

> <i_f3d_flags>
0

> <s_epik_input>
W0NIM11uMW5jKFtDSDJdQyhbQ0gzXSkoW0NIM10pW0NIM10pW2NIXWMxW05IXUMoPU8pW05IXVtDSDJdW0NAQEhdMltDSDJdW0NIMl1bQ0gyXU8y

> <s_epik_cmdline>
J2VwaWtfcHl0aG9uJywgJy1waCcsICc3LjAnLCAnLXRuJywgJzgnLCAnLW1hJywgJzIwMCcsICctbWV0YWxfYmluZGluZycsICctaW1hZScsICc8aW5maWxlLm1hZT4nLCAnLW9tYWUnLCAnPG91dGZpbGUubWFlPic=

> <r_lp_tautomer_probability>
1

> <r_epik_Ionization_Penalty>
9.6187e-05

> <r_epik_Ionization_Penalty_Charging>
0

> <r_epik_Ionization_Penalty_Neutral>
9.6187e-05

> <r_epik_State_Penalty>
-0

> <r_epik_Charging_Adjusted_Penalty>
0

> <i_epik_Tot_Q>
0

> <i_epik_Tot_abs_Q>
0

> <r_epik_Metal_State_Penalty>
-0

> <b_epik_Metal_Only>
0

> <s_lp_Force_Field>
OPLS_2005

> <r_lp_Energy>
21.1922

> <b_lp_Chiralities_Consistent>
1

> <s_lp_Variant>
AV-unprocessed.smi:2659-2

> <Gold.Version>
5.8.1

> <Gold.Id.Protein>
6NUR|6NUR_protein|mol2

> <Gold.PLP.Fitness>
41.1397

> <Gold.PLP.PLP>
-36.2421

> <Gold.PLP.part.hbond>
-2.7920

> <Gold.PLP.part.metal>
0.0000

> <Gold.PLP.part.buried>
-6.5202

> <Gold.PLP.part.nonpolar>
-28.9779

> <Gold.PLP.part.repulsive>
1.0712

> <Gold.PLP.ligand.clash>
0.0000

> <Gold.PLP.ligand.torsion>
0.5455

> <Gold.PLP.Chemscore.Hbond>
1.9920

> <Gold.PLP.Chemscore.CHOScore>
0.0000

> <Gold.PLP.Chemscore.Metal>
0.0000

> <Gold.Chemscore.Hbonds>
donor molecule, donor type, donor heavy atom, donor atom, acceptor molecule, acceptor atom, score
      L1  H    12    37       P1  7948  0.98
      L1  H    15    38       P1  7948  1.00

> <Gold.PLP.Chemscore.Internal.Correction>
0.0127

> <Gold.Rescore>
     Score         DG    S(hbond)    S(metal)    S(lipo)     H(rot)  DE(clash)    DE(int)     intcor
     16.47     -17.14       1.91        0.00      77.69       1.49       0.01       0.66       ----

> <Gold.Chemscore.Fitness>
16.4664

> <Gold.Chemscore.DG>
-17.1395

> <Gold.Chemscore.ZeroCoef>
-5.4800

> <Gold.Chemscore.Hbond>
1.9111

> <Gold.Chemscore.Metal>
0.0000

> <Gold.Chemscore.Lipo>
77.6868

> <Gold.Chemscore.Internal_Hbond>
0.0000

> <Gold.Chemscore.DEClash>
0.0108

> <Gold.Chemscore.DEInternal>
0.6624

> <Gold.Chemscore.Rot>
1.4894

> <Gold.Chemscore.Internal.Correction>
   9.000000E+99

> <Gold.Chemscore.Hbonds>
donor molecule, donor type, donor heavy atom, donor atom, acceptor molecule, acceptor atom, score
      L1  H    12    37       P1  7948  0.89
      L1  H    15    38       P1  7948  1.00

> <Gold.Chemscore.Hbond.Weighted>
-6.3830

> <Gold.Chemscore.Metal.Weighted>
-0.0000

> <Gold.Chemscore.Lipo.Weighted>
-9.0894

> <Gold.Chemscore.Internal_Hbond.Weighted>
0.0000

> <Gold.Chemscore.DEClash.Weighted>
0.0108

> <Gold.Chemscore.DEInternal.Weighted>
0.6624

> <Gold.Chemscore.Rot.Weighted>
3.8129

> <Gold.Chemscore.Internal.Correction.Weighted>
   9.000000E+99

> <Gold.Protein.RotatedTorsions>
[ 6907 6896 6895 6894 ] final  -13.58 input  -60.11 | X-H torsion
[ 7974 7965 7964 7962 ] final   96.44 input  175.53 | X-H torsion
[ 8008 7997 7996 7995 ] final -120.90 input   59.86 | X-H torsion
[ 10167 10162 10161 10158 ] final   44.39 input  -65.29 | X-H torsion
[ 10718 10713 10712 10709 ] final    3.15 input   66.30 | X-H torsion
[ 10763 10752 10751 10750 ] final  -90.34 input  -60.55 | X-H torsion
[ 11005 11000 10999 10996 ] final -143.50 input  -57.11 | X-H torsion

> <Gold.Protein.ActiveResidues>
 VAL166  LYS551  ARG553  GLY616  TRP617  ASP618  TYR619  PRO620  LYS621  CYS622 
 ASP623  PHE694  ASN695  SER759  ASP760  ASP761  ALA762  ILE779  LEU786  VAL792 
 PHE793  MET794  SER795  GLU796  ALA797  LYS798  CYS799  TRP800  GLU811  SER814 

> <Gold.Protein.RotatedAtoms>
  151.3528  135.0888  159.9408 H   0  0  0  0  0  0  0  0  0  0  0  0  # atno 6907 bound_to 6896
  152.5183  133.9336  159.7602 H   0  0  0  0  0  0  0  0  0  0  0  0  # atno 6908 bound_to 6896
  150.9714  133.6286  159.2767 H   0  0  0  0  0  0  0  0  0  0  0  0  # atno 6909 bound_to 6896
  145.4387  139.2303  143.3104 H   0  0  0  0  0  0  0  0  0  0  0  0  # atno 7974 bound_to 7965
  155.1393  140.0401  157.2794 H   0  0  0  0  0  0  0  0  0  0  0  0  # atno 8008 bound_to 7997
  154.6484  140.2563  155.7215 H   0  0  0  0  0  0  0  0  0  0  0  0  # atno 8009 bound_to 7997
  156.2566  140.2841  156.0908 H   0  0  0  0  0  0  0  0  0  0  0  0  # atno 8010 bound_to 7997
  140.3348  144.2544  150.6163 H   0  0  0  0  0  0  0  0  0  0  0  0  # atno 10167 bound_to 10162
  156.8735  130.5628  149.5656 H   0  0  0  0  0  0  0  0  0  0  0  0  # atno 10718 bound_to 10713
  154.6648  135.5308  153.8063 H   0  0  0  0  0  0  0  0  0  0  0  0  # atno 10763 bound_to 10752
  153.0464  135.6514  154.0817 H   0  0  0  0  0  0  0  0  0  0  0  0  # atno 10764 bound_to 10752
  154.0722  135.2953  155.3286 H   0  0  0  0  0  0  0  0  0  0  0  0  # atno 10765 bound_to 10752
  140.8119  134.2735  157.4937 H   0  0  0  0  0  0  0  0  0  0  0  0  # atno 11005 bound_to 11000
  146.2568  140.5133  142.8870 LP  0  0  0  0  0  0  0  0  0  0  0  0  # atno 17320 bound_to 7965
  144.8135  140.6427  143.6399 LP  0  0  0  0  0  0  0  0  0  0  0  0  # atno 17321 bound_to 7965
  140.5364  143.2232  151.8156 LP  0  0  0  0  0  0  0  0  0  0  0  0  # atno 17342 bound_to 10162
  139.4850  144.4656  151.9488 LP  0  0  0  0  0  0  0  0  0  0  0  0  # atno 17343 bound_to 10162
  156.0714  130.5746  150.9390 LP  0  0  0  0  0  0  0  0  0  0  0  0  # atno 17370 bound_to 10713
  157.6182  131.0931  150.8671 LP  0  0  0  0  0  0  0  0  0  0  0  0  # atno 17371 bound_to 10713
  139.8713  134.9487  156.4005 LP  0  0  0  0  0  0  0  0  0  0  0  0  # atno 17394 bound_to 11000
  140.9189  133.7659  155.9882 LP  0  0  0  0  0  0  0  0  0  0  0  0  # atno 17395 bound_to 11000

$$$$
