AV-unprocessed.smi:2838|AV-procd|sdf|10928|dock7
  -GOLD-   2272015373D 1   1.00000     0.00000
 Structure written by MMmdl.
 48 49  0  0  0  0  0  0  0  0  1 V2000
  146.4979  142.2790  153.8013 C   0  0  0  0  0  0  0  0  0  0  0  0
  147.2646  141.0055  153.4047 C   0  0  2  0  0  0  0  0  0  0  0  0
  146.2837  140.0189  152.9491 N   0  0  0  0  0  0  0  0  0  0  0  0
  146.5281  138.7242  152.6965 C   0  0  0  0  0  0  0  0  0  0  0  0
  147.6274  138.1933  152.8527 O   0  0  0  0  0  0  0  0  0  0  0  0
  145.4277  138.1028  152.2405 N   0  0  0  0  0  0  0  0  0  0  0  0
  145.2814  136.7351  151.8872 C   0  0  0  0  0  0  0  0  0  0  0  0
  144.2308  136.2112  151.0974 C   0  0  0  0  0  0  0  0  0  0  0  0
  144.1660  134.8991  150.7865 N   0  0  0  0  0  0  0  0  0  0  0  0
  145.1524  134.1036  151.2207 C   0  0  0  0  0  0  0  0  0  0  0  0
  144.9814  132.5907  150.9966 C   0  0  0  0  0  0  0  0  0  0  0  0
  145.9925  132.0614  149.9521 C   0  0  0  0  0  0  0  0  0  0  0  0
  143.5773  132.2692  150.4332 C   0  0  0  0  0  0  0  0  0  0  0  0
  145.1877  131.8495  152.3305 C   0  0  0  0  0  0  0  0  0  0  0  0
  146.1724  134.4962  151.9955 N   0  0  0  0  0  0  0  0  0  0  0  0
  146.2525  135.8061  152.3102 C   0  0  0  0  0  0  0  0  0  0  0  0
  148.1388  140.4345  154.5553 C   0  0  0  0  0  0  0  0  0  0  0  0
  147.3400  140.2376  155.8607 C   0  0  0  0  0  0  0  0  0  0  0  0
  148.2429  139.7422  157.0019 C   0  0  0  0  0  0  0  0  0  0  0  0
  149.3153  140.6529  157.2059 O   0  0  0  0  0  0  0  0  0  0  0  0
  150.1599  140.7655  156.0680 C   0  0  0  0  0  0  0  0  0  0  0  0
  149.3640  141.3183  154.8749 C   0  0  0  0  0  0  0  0  0  0  0  0
  147.1717  143.1099  154.0076 H   0  0  0  0  0  0  0  0  0  0  0  0
  145.8847  142.1145  154.6881 H   0  0  0  0  0  0  0  0  0  0  0  0
  145.8365  142.6031  152.9969 H   0  0  0  0  0  0  0  0  0  0  0  0
  147.9230  141.2724  152.5761 H   0  0  0  0  0  0  0  0  0  0  0  0
  145.3469  140.3594  152.7894 H   0  0  0  0  0  0  0  0  0  0  0  0
  144.6194  138.6849  152.0763 H   0  0  0  0  0  0  0  0  0  0  0  0
  143.4421  136.8270  150.6941 H   0  0  0  0  0  0  0  0  0  0  0  0
  145.8407  130.9995  149.7547 H   0  0  0  0  0  0  0  0  0  0  0  0
  147.0237  132.1736  150.2886 H   0  0  0  0  0  0  0  0  0  0  0  0
  145.8951  132.5881  149.0020 H   0  0  0  0  0  0  0  0  0  0  0  0
  143.3911  132.8051  149.5016 H   0  0  0  0  0  0  0  0  0  0  0  0
  142.7846  132.5361  151.1328 H   0  0  0  0  0  0  0  0  0  0  0  0
  143.4667  131.2044  150.2256 H   0  0  0  0  0  0  0  0  0  0  0  0
  145.0719  130.7720  152.2104 H   0  0  0  0  0  0  0  0  0  0  0  0
  144.4668  132.1763  153.0807 H   0  0  0  0  0  0  0  0  0  0  0  0
  146.1851  132.0309  152.7330 H   0  0  0  0  0  0  0  0  0  0  0  0
  147.0930  136.1099  152.9168 H   0  0  0  0  0  0  0  0  0  0  0  0
  148.5107  139.4577  154.2417 H   0  0  0  0  0  0  0  0  0  0  0  0
  146.8718  141.1784  156.1532 H   0  0  0  0  0  0  0  0  0  0  0  0
  146.5339  139.5188  155.7180 H   0  0  0  0  0  0  0  0  0  0  0  0
  147.6689  139.6641  157.9253 H   0  0  0  0  0  0  0  0  0  0  0  0
  148.6325  138.7464  156.7850 H   0  0  0  0  0  0  0  0  0  0  0  0
  150.9864  141.4342  156.3085 H   0  0  0  0  0  0  0  0  0  0  0  0
  150.5966  139.7948  155.8278 H   0  0  0  0  0  0  0  0  0  0  0  0
  150.0283  141.3868  154.0139 H   0  0  0  0  0  0  0  0  0  0  0  0
  149.0376  142.3350  155.0974 H   0  0  0  0  0  0  0  0  0  0  0  0
  1  2  1  0  0  0  0
  1 23  1  0  0  0  0
  1 24  1  0  0  0  0
  1 25  1  0  0  0  0
  2  3  1  0  0  0  0
  2 17  1  0  0  0  0
  2 26  1  0  0  0  0
  3  4  1  0  0  0  0
  3 27  1  0  0  0  0
  4  5  2  0  0  0  0
  4  6  1  0  0  0  0
  6  7  1  0  0  0  0
  6 28  1  0  0  0  0
  7 16  1  0  0  0  0
  7  8  2  0  0  0  0
  8  9  1  0  0  0  0
  8 29  1  0  0  0  0
  9 10  2  0  0  0  0
 10 11  1  0  0  0  0
 10 15  1  0  0  0  0
 11 12  1  0  0  0  0
 11 13  1  0  0  0  0
 11 14  1  0  0  0  0
 12 30  1  0  0  0  0
 12 31  1  0  0  0  0
 12 32  1  0  0  0  0
 13 33  1  0  0  0  0
 13 34  1  0  0  0  0
 13 35  1  0  0  0  0
 14 36  1  0  0  0  0
 14 37  1  0  0  0  0
 14 38  1  0  0  0  0
 15 16  2  0  0  0  0
 16 39  1  0  0  0  0
 17 22  1  0  0  0  0
 17 18  1  0  0  0  0
 17 40  1  0  0  0  0
 18 19  1  0  0  0  0
 18 41  1  0  0  0  0
 18 42  1  0  0  0  0
 19 20  1  0  0  0  0
 19 43  1  0  0  0  0
 19 44  1  0  0  0  0
 20 21  1  0  0  0  0
 21 22  1  0  0  0  0
 21 45  1  0  0  0  0
 21 46  1  0  0  0  0
 22 47  1  0  0  0  0
 22 48  1  0  0  0  0
M  END
> <s_m_source_file>
AV-unprocessed.smi

> <i_m_source_file_index>
2838

> <i_lp_mmshare_version>
43012

> <i_f3d_flags>
0

> <s_epik_input>
W0NIMl0xW0NIMl1PW0NIMl1bQ0gyXVtDSF0xW0NASF0oW0NIM10pW05IXUMoPU8pW05IXWMyW2NIXW5jKEMoW0NIM10pKFtDSDNdKVtDSDNdKW5bY0hdMg==

> <s_epik_cmdline>
J2VwaWtfcHl0aG9uJywgJy1waCcsICc3LjAnLCAnLXRuJywgJzgnLCAnLW1hJywgJzIwMCcsICctbWV0YWxfYmluZGluZycsICctaW1hZScsICc8aW5maWxlLm1hZT4nLCAnLW9tYWUnLCAnPG91dGZpbGUubWFlPic=

> <r_lp_tautomer_probability>
1

> <r_epik_Ionization_Penalty>
2.74753e-05

> <r_epik_Ionization_Penalty_Charging>
0

> <r_epik_Ionization_Penalty_Neutral>
2.74753e-05

> <r_epik_State_Penalty>
-0

> <r_epik_Charging_Adjusted_Penalty>
0

> <i_epik_Tot_Q>
0

> <i_epik_Tot_abs_Q>
0

> <r_epik_Metal_State_Penalty>
-0

> <b_epik_Metal_Only>
0

> <s_lp_Force_Field>
OPLS_2005

> <r_lp_Energy>
9.68517

> <b_lp_Chiralities_Consistent>
1

> <s_lp_Variant>
AV-unprocessed.smi:2838-1

> <Gold.Version>
5.8.1

> <Gold.Id.Protein>
6NUR|6NUR_protein|mol2

> <Gold.PLP.Fitness>
40.5032

> <Gold.PLP.PLP>
-31.3357

> <Gold.PLP.part.hbond>
-3.0000

> <Gold.PLP.part.metal>
0.0000

> <Gold.PLP.part.buried>
-1.0111

> <Gold.PLP.part.nonpolar>
-32.3787

> <Gold.PLP.part.repulsive>
4.6257

> <Gold.PLP.ligand.clash>
0.0000

> <Gold.PLP.ligand.torsion>
0.7233

> <Gold.PLP.Chemscore.Hbond>
1.9920

> <Gold.PLP.Chemscore.CHOScore>
1.4961

> <Gold.PLP.Chemscore.Metal>
0.0000

> <Gold.Chemscore.Hbonds>
donor molecule, donor type, donor heavy atom, donor atom, acceptor molecule, acceptor atom, score
      L1  H     3    27       P1 10175  1.00
      L1  H     6    28       P1 10175  0.95
      L1  C     8    29       P1 10171  0.76
      L1  C    16    39       P1  7948  0.68

> <Gold.PLP.Chemscore.Internal.Correction>
0.1500

> <Gold.Rescore>
     Score         DG    S(hbond)    S(metal)    S(lipo)     H(rot)  DE(clash)    DE(int)     intcor
     11.93     -18.36       1.87        0.00      85.82       1.34       3.78       2.65       ----

> <Gold.Chemscore.Fitness>
11.9318

> <Gold.Chemscore.DG>
-18.3559

> <Gold.Chemscore.ZeroCoef>
-5.4800

> <Gold.Chemscore.Hbond>
1.8723

> <Gold.Chemscore.Metal>
0.0000

> <Gold.Chemscore.Lipo>
85.8186

> <Gold.Chemscore.Internal_Hbond>
0.0000

> <Gold.Chemscore.DEClash>
3.7760

> <Gold.Chemscore.DEInternal>
2.6481

> <Gold.Chemscore.Rot>
1.3354

> <Gold.Chemscore.Internal.Correction>
   9.000000E+99

> <Gold.Chemscore.Hbonds>
donor molecule, donor type, donor heavy atom, donor atom, acceptor molecule, acceptor atom, score
      L1  H     3    27       P1 10175  0.88
      L1  H     6    28       P1 10175  0.85

> <Gold.Chemscore.Hbond.Weighted>
-6.2536

> <Gold.Chemscore.Metal.Weighted>
-0.0000

> <Gold.Chemscore.Lipo.Weighted>
-10.0408

> <Gold.Chemscore.Internal_Hbond.Weighted>
0.0000

> <Gold.Chemscore.DEClash.Weighted>
3.7760

> <Gold.Chemscore.DEInternal.Weighted>
2.6481

> <Gold.Chemscore.Rot.Weighted>
3.4185

> <Gold.Chemscore.Internal.Correction.Weighted>
   9.000000E+99

> <Gold.Protein.RotatedTorsions>
[ 6907 6896 6895 6894 ] final   27.96 input  -60.11 | X-H torsion
[ 7974 7965 7964 7962 ] final   43.77 input  175.53 | X-H torsion
[ 8008 7997 7996 7995 ] final  -24.33 input   59.86 | X-H torsion
[ 10167 10162 10161 10158 ] final   40.29 input  -65.29 | X-H torsion
[ 10718 10713 10712 10709 ] final -174.29 input   66.30 | X-H torsion
[ 10763 10752 10751 10750 ] final    0.73 input  -60.55 | X-H torsion
[ 11005 11000 10999 10996 ] final -127.15 input  -57.11 | X-H torsion

> <Gold.Protein.ActiveResidues>
 VAL166  LYS551  ARG553  GLY616  TRP617  ASP618  TYR619  PRO620  LYS621  CYS622 
 ASP623  PHE694  ASN695  SER759  ASP760  ASP761  ALA762  ILE779  LEU786  VAL792 
 PHE793  MET794  SER795  GLU796  ALA797  LYS798  CYS799  TRP800  GLU811  SER814 

> <Gold.Protein.RotatedAtoms>
  152.0099  134.9882  160.0567 H   0  0  0  0  0  0  0  0  0  0  0  0  # atno 6907 bound_to 6896
  152.1438  133.4475  159.4788 H   0  0  0  0  0  0  0  0  0  0  0  0  # atno 6908 bound_to 6896
  150.6868  134.2190  159.4432 H   0  0  0  0  0  0  0  0  0  0  0  0  # atno 6909 bound_to 6896
  146.0626  139.5149  142.9648 H   0  0  0  0  0  0  0  0  0  0  0  0  # atno 7974 bound_to 7965
  154.4535  140.1956  156.0447 H   0  0  0  0  0  0  0  0  0  0  0  0  # atno 8008 bound_to 7997
  156.0698  140.3286  155.7534 H   0  0  0  0  0  0  0  0  0  0  0  0  # atno 8009 bound_to 7997
  155.5281  140.0575  157.2885 H   0  0  0  0  0  0  0  0  0  0  0  0  # atno 8010 bound_to 7997
  140.3756  144.2047  150.6132 H   0  0  0  0  0  0  0  0  0  0  0  0  # atno 10167 bound_to 10162
  156.7829  130.9490  151.3120 H   0  0  0  0  0  0  0  0  0  0  0  0  # atno 10718 bound_to 10713
  153.3170  135.6966  153.7064 H   0  0  0  0  0  0  0  0  0  0  0  0  # atno 10763 bound_to 10752
  153.5919  135.3478  155.2914 H   0  0  0  0  0  0  0  0  0  0  0  0  # atno 10764 bound_to 10752
  154.8589  135.4320  154.2324 H   0  0  0  0  0  0  0  0  0  0  0  0  # atno 10765 bound_to 10752
  140.9623  134.0919  157.3955 H   0  0  0  0  0  0  0  0  0  0  0  0  # atno 11005 bound_to 11000
  145.6533  141.0258  143.1748 LP  0  0  0  0  0  0  0  0  0  0  0  0  # atno 17320 bound_to 7965
  144.7184  139.8116  143.7391 LP  0  0  0  0  0  0  0  0  0  0  0  0  # atno 17321 bound_to 7965
  140.4989  143.2324  151.8708 LP  0  0  0  0  0  0  0  0  0  0  0  0  # atno 17342 bound_to 10162
  139.4800  144.5081  151.8969 LP  0  0  0  0  0  0  0  0  0  0  0  0  # atno 17343 bound_to 10162
  157.6637  130.8989  149.9886 LP  0  0  0  0  0  0  0  0  0  0  0  0  # atno 17370 bound_to 10713
  156.1206  130.3646  149.9893 LP  0  0  0  0  0  0  0  0  0  0  0  0  # atno 17371 bound_to 10713
  139.8882  135.0096  156.6608 LP  0  0  0  0  0  0  0  0  0  0  0  0  # atno 17394 bound_to 11000
  140.7449  133.8946  155.8305 LP  0  0  0  0  0  0  0  0  0  0  0  0  # atno 17395 bound_to 11000

$$$$
