AV-unprocessed.smi:2829|AV-procd|sdf|10901|dock8
  -GOLD-   2272015353D 1   1.00000     0.00000
 Structure written by MMmdl.
 50 53  0  0  0  0  0  0  0  0  1 V2000
  143.6802  133.3757  160.7139 C   0  0  0  0  0  0  0  0  0  0  0  0
  144.7392  133.9971  161.6483 C   0  0  0  0  0  0  0  0  0  0  0  0
  144.0505  134.8930  162.6992 C   0  0  0  0  0  0  0  0  0  0  0  0
  145.4274  132.8388  162.4056 C   0  0  0  0  0  0  0  0  0  0  0  0
  145.7335  134.8339  160.8235 C   0  0  0  0  0  0  0  0  0  0  0  0
  147.1251  134.5873  160.8066 C   0  0  0  0  0  0  0  0  0  0  0  0
  147.9283  135.4241  160.0135 C   0  0  0  0  0  0  0  0  0  0  0  0
  147.3072  136.4574  159.2838 C   0  0  0  0  0  0  0  0  0  0  0  0
  148.1800  137.2635  158.5077 N   0  0  0  0  0  0  0  0  0  0  0  0
  149.5064  137.4458  158.6638 C   0  0  0  0  0  0  0  0  0  0  0  0
  150.1882  136.9233  159.5435 O   0  0  0  0  0  0  0  0  0  0  0  0
  150.0514  138.2874  157.7679 N   0  0  0  0  0  0  0  0  0  0  0  0
  151.4546  138.6941  157.6652 C   0  0  1  0  0  0  0  0  0  0  0  0
  152.1063  138.3808  156.2975 C   0  0  1  0  0  0  0  0  0  0  0  0
  151.3145  137.9497  155.0894 C   0  0  0  0  0  0  0  0  0  0  0  0
  150.7709  139.2690  154.5506 C   0  0  0  0  0  0  0  0  0  0  0  0
  151.7584  140.2373  154.9036 O   0  0  0  0  0  0  0  0  0  0  0  0
  152.4028  139.8691  156.1261 C   0  0  1  0  0  0  0  0  0  0  0  0
  151.6272  140.2016  157.4140 C   0  0  0  0  0  0  0  0  0  0  0  0
  150.4600  141.2112  157.4174 C   0  0  0  0  0  0  0  0  0  0  0  0
  151.4277  142.2512  157.9858 C   0  0  0  0  0  0  0  0  0  0  0  0
  152.2927  141.0886  158.4783 C   0  0  0  0  0  0  0  0  0  0  0  0
  145.9640  136.6365  159.3459 N   0  0  0  0  0  0  0  0  0  0  0  0
  145.1944  135.8436  160.0973 N   0  0  0  0  0  0  0  0  0  0  0  0
  142.9739  132.7578  161.2692 H   0  0  0  0  0  0  0  0  0  0  0  0
  144.1444  132.7438  159.9555 H   0  0  0  0  0  0  0  0  0  0  0  0
  143.0991  134.1387  160.1945 H   0  0  0  0  0  0  0  0  0  0  0  0
  143.4813  135.6992  162.2349 H   0  0  0  0  0  0  0  0  0  0  0  0
  144.7807  135.3496  163.3687 H   0  0  0  0  0  0  0  0  0  0  0  0
  143.3537  134.3216  163.3135 H   0  0  0  0  0  0  0  0  0  0  0  0
  144.7059  132.2610  162.9844 H   0  0  0  0  0  0  0  0  0  0  0  0
  146.1773  133.2054  163.1075 H   0  0  0  0  0  0  0  0  0  0  0  0
  145.9154  132.1436  161.7212 H   0  0  0  0  0  0  0  0  0  0  0  0
  147.5857  133.7927  161.3726 H   0  0  0  0  0  0  0  0  0  0  0  0
  148.9971  135.2730  159.9698 H   0  0  0  0  0  0  0  0  0  0  0  0
  147.7480  137.7635  157.7448 H   0  0  0  0  0  0  0  0  0  0  0  0
  149.4193  138.7177  157.1081 H   0  0  0  0  0  0  0  0  0  0  0  0
  152.0756  138.3633  158.4999 H   0  0  0  0  0  0  0  0  0  0  0  0
  153.0177  137.7984  156.4383 H   0  0  0  0  0  0  0  0  0  0  0  0
  151.9767  137.4951  154.3518 H   0  0  0  0  0  0  0  0  0  0  0  0
  150.5264  137.2298  155.3085 H   0  0  0  0  0  0  0  0  0  0  0  0
  150.5975  139.2457  153.4747 H   0  0  0  0  0  0  0  0  0  0  0  0
  149.8281  139.5188  155.0386 H   0  0  0  0  0  0  0  0  0  0  0  0
  153.4632  140.1213  156.1613 H   0  0  0  0  0  0  0  0  0  0  0  0
  150.0504  141.4681  156.4409 H   0  0  0  0  0  0  0  0  0  0  0  0
  149.6704  140.9587  158.1268 H   0  0  0  0  0  0  0  0  0  0  0  0
  151.9159  142.8417  157.2087 H   0  0  0  0  0  0  0  0  0  0  0  0
  151.0130  142.8800  158.7742 H   0  0  0  0  0  0  0  0  0  0  0  0
  152.0442  140.7837  159.4963 H   0  0  0  0  0  0  0  0  0  0  0  0
  153.3661  141.2347  158.3548 H   0  0  0  0  0  0  0  0  0  0  0  0
  1  2  1  0  0  0  0
  1 25  1  0  0  0  0
  1 26  1  0  0  0  0
  1 27  1  0  0  0  0
  2  3  1  0  0  0  0
  2  4  1  0  0  0  0
  2  5  1  0  0  0  0
  3 28  1  0  0  0  0
  3 29  1  0  0  0  0
  3 30  1  0  0  0  0
  4 31  1  0  0  0  0
  4 32  1  0  0  0  0
  4 33  1  0  0  0  0
  5 24  1  0  0  0  0
  5  6  2  0  0  0  0
  6  7  1  0  0  0  0
  6 34  1  0  0  0  0
  7  8  2  0  0  0  0
  7 35  1  0  0  0  0
  8  9  1  0  0  0  0
  8 23  1  0  0  0  0
  9 10  1  0  0  0  0
  9 36  1  0  0  0  0
 10 11  2  0  0  0  0
 10 12  1  0  0  0  0
 12 13  1  0  0  0  0
 12 37  1  0  0  0  0
 13 19  1  0  0  0  0
 13 14  1  0  0  0  0
 13 38  1  0  0  0  0
 14 18  1  0  0  0  0
 14 15  1  0  0  0  0
 14 39  1  0  0  0  0
 15 16  1  0  0  0  0
 15 40  1  0  0  0  0
 15 41  1  0  0  0  0
 16 17  1  0  0  0  0
 16 42  1  0  0  0  0
 16 43  1  0  0  0  0
 17 18  1  0  0  0  0
 18 19  1  0  0  0  0
 18 44  1  0  0  0  0
 19 22  1  0  0  0  0
 19 20  1  0  0  0  0
 20 21  1  0  0  0  0
 20 45  1  0  0  0  0
 20 46  1  0  0  0  0
 21 22  1  0  0  0  0
 21 47  1  0  0  0  0
 21 48  1  0  0  0  0
 22 49  1  0  0  0  0
 22 50  1  0  0  0  0
 23 24  2  0  0  0  0
M  END
> <s_m_source_file>
AV-unprocessed.smi

> <i_m_source_file_index>
2829

> <i_lp_mmshare_version>
43012

> <i_f3d_flags>
0

> <s_epik_input>
W0NIM11DKFtDSDNdKShbQ0gzXSljMVtjSF1bY0hdYyhubjEpW05IXUMoPU8pW05IXVtDQEBIXTJbQ0BIXShbQ0gyXVtDSDJdTzMpW0NAQEhdM0MyNFtDSDJdW0NIMl1bQ0gyXTQ=

> <s_epik_cmdline>
J2VwaWtfcHl0aG9uJywgJy1waCcsICc3LjAnLCAnLXRuJywgJzgnLCAnLW1hJywgJzIwMCcsICctbWV0YWxfYmluZGluZycsICctaW1hZScsICc8aW5maWxlLm1hZT4nLCAnLW9tYWUnLCAnPG91dGZpbGUubWFlPic=

> <r_lp_tautomer_probability>
1

> <r_epik_Ionization_Penalty>
0.011915

> <r_epik_Ionization_Penalty_Charging>
0

> <r_epik_Ionization_Penalty_Neutral>
0.011915

> <r_epik_State_Penalty>
0.00486223

> <r_epik_Charging_Adjusted_Penalty>
0.00486223

> <i_epik_Tot_Q>
0

> <i_epik_Tot_abs_Q>
0

> <r_epik_Metal_State_Penalty>
-0

> <b_epik_Metal_Only>
0

> <s_lp_Force_Field>
OPLS_2005

> <r_lp_Energy>
61.8896

> <b_lp_Chiralities_Consistent>
1

> <s_lp_Variant>
AV-unprocessed.smi:2829-4

> <Gold.Version>
5.8.1

> <Gold.Id.Protein>
6NUR|6NUR_protein|mol2

> <Gold.PLP.Fitness>
36.6555

> <Gold.PLP.PLP>
-30.9693

> <Gold.PLP.part.hbond>
-1.8785

> <Gold.PLP.part.metal>
0.0000

> <Gold.PLP.part.buried>
-5.2463

> <Gold.PLP.part.nonpolar>
-25.0742

> <Gold.PLP.part.repulsive>
0.2251

> <Gold.PLP.ligand.clash>
0.0000

> <Gold.PLP.ligand.torsion>
0.2260

> <Gold.PLP.Chemscore.Hbond>
1.9913

> <Gold.PLP.Chemscore.CHOScore>
0.0000

> <Gold.PLP.Chemscore.Metal>
0.0000

> <Gold.Chemscore.Hbonds>
donor molecule, donor type, donor heavy atom, donor atom, acceptor molecule, acceptor atom, score
      P1  H  6896  6908       L1    11  0.55
      P1  H  7989  7998       L1    17  0.50

> <Gold.PLP.Chemscore.Internal.Correction>
0.1644

> <Gold.Rescore>
     Score         DG    S(hbond)    S(metal)    S(lipo)     H(rot)  DE(clash)    DE(int)     intcor
     18.73     -20.41       1.96        0.00      97.10       1.16       0.00       1.68       ----

> <Gold.Chemscore.Fitness>
18.7275

> <Gold.Chemscore.DG>
-20.4080

> <Gold.Chemscore.ZeroCoef>
-5.4800

> <Gold.Chemscore.Hbond>
1.9585

> <Gold.Chemscore.Metal>
0.0000

> <Gold.Chemscore.Lipo>
97.1002

> <Gold.Chemscore.Internal_Hbond>
0.0000

> <Gold.Chemscore.DEClash>
0.0004

> <Gold.Chemscore.DEInternal>
1.6800

> <Gold.Chemscore.Rot>
1.1618

> <Gold.Chemscore.Internal.Correction>
   9.000000E+99

> <Gold.Chemscore.Hbonds>
donor molecule, donor type, donor heavy atom, donor atom, acceptor molecule, acceptor atom, score
      P1  H  6896  6908       L1    11  0.53
      P1  H  7989  7998       L1    17  0.03

> <Gold.Chemscore.Hbond.Weighted>
-6.5414

> <Gold.Chemscore.Metal.Weighted>
-0.0000

> <Gold.Chemscore.Lipo.Weighted>
-11.3607

> <Gold.Chemscore.Internal_Hbond.Weighted>
0.0000

> <Gold.Chemscore.DEClash.Weighted>
0.0004

> <Gold.Chemscore.DEInternal.Weighted>
1.6800

> <Gold.Chemscore.Rot.Weighted>
2.9741

> <Gold.Chemscore.Internal.Correction.Weighted>
   9.000000E+99

> <Gold.Protein.RotatedTorsions>
[ 6907 6896 6895 6894 ] final -174.98 input  -60.11 | X-H torsion
[ 7974 7965 7964 7962 ] final  159.09 input  175.53 | X-H torsion
[ 8008 7997 7996 7995 ] final -114.71 input   59.86 | X-H torsion
[ 10167 10162 10161 10158 ] final  133.87 input  -65.29 | X-H torsion
[ 10718 10713 10712 10709 ] final  142.08 input   66.30 | X-H torsion
[ 10763 10752 10751 10750 ] final   25.69 input  -60.55 | X-H torsion
[ 11005 11000 10999 10996 ] final  -26.98 input  -57.11 | X-H torsion

> <Gold.Protein.ActiveResidues>
 VAL166  LYS551  ARG553  GLY616  TRP617  ASP618  TYR619  PRO620  LYS621  CYS622 
 ASP623  PHE694  ASN695  SER759  ASP760  ASP761  ALA762  ILE779  LEU786  VAL792 
 PHE793  MET794  SER795  GLU796  ALA797  LYS798  CYS799  TRP800  GLU811  SER814 

> <Gold.Protein.RotatedAtoms>
  151.5812  133.3377  159.3008 H   0  0  0  0  0  0  0  0  0  0  0  0  # atno 6907 bound_to 6896
  150.8312  134.7569  159.6867 H   0  0  0  0  0  0  0  0  0  0  0  0  # atno 6908 bound_to 6896
  152.4395  134.5625  159.9950 H   0  0  0  0  0  0  0  0  0  0  0  0  # atno 6909 bound_to 6896
  144.7809  139.7569  143.6260 H   0  0  0  0  0  0  0  0  0  0  0  0  # atno 7974 bound_to 7965
  155.0406  140.0392  157.2508 H   0  0  0  0  0  0  0  0  0  0  0  0  # atno 8008 bound_to 7997
  154.7220  140.2713  155.6509 H   0  0  0  0  0  0  0  0  0  0  0  0  # atno 8009 bound_to 7997
  156.2819  140.2701  156.1894 H   0  0  0  0  0  0  0  0  0  0  0  0  # atno 8010 bound_to 7997
  139.5279  144.6595  151.5058 H   0  0  0  0  0  0  0  0  0  0  0  0  # atno 10167 bound_to 10162
  157.3847  131.0997  151.0705 H   0  0  0  0  0  0  0  0  0  0  0  0  # atno 10718 bound_to 10713
  153.0674  135.6577  154.0323 H   0  0  0  0  0  0  0  0  0  0  0  0  # atno 10763 bound_to 10752
  153.9976  135.2940  155.3407 H   0  0  0  0  0  0  0  0  0  0  0  0  # atno 10764 bound_to 10752
  154.7037  135.5234  153.8633 H   0  0  0  0  0  0  0  0  0  0  0  0  # atno 10765 bound_to 10752
  140.9078  133.7481  156.0629 H   0  0  0  0  0  0  0  0  0  0  0  0  # atno 11005 bound_to 11000
  146.2017  139.5315  142.9739 LP  0  0  0  0  0  0  0  0  0  0  0  0  # atno 17320 bound_to 7965
  145.6052  141.0349  143.1996 LP  0  0  0  0  0  0  0  0  0  0  0  0  # atno 17321 bound_to 7965
  140.6436  143.8839  150.6716 LP  0  0  0  0  0  0  0  0  0  0  0  0  # atno 17342 bound_to 10162
  140.2181  143.3830  152.1665 LP  0  0  0  0  0  0  0  0  0  0  0  0  # atno 17343 bound_to 10162
  157.1761  130.6288  149.5656 LP  0  0  0  0  0  0  0  0  0  0  0  0  # atno 17370 bound_to 10713
  155.9784  130.4769  150.6652 LP  0  0  0  0  0  0  0  0  0  0  0  0  # atno 17371 bound_to 10713
  140.8149  134.3356  157.5400 LP  0  0  0  0  0  0  0  0  0  0  0  0  # atno 17394 bound_to 11000
  139.8752  134.9275  156.3428 LP  0  0  0  0  0  0  0  0  0  0  0  0  # atno 17395 bound_to 11000

$$$$
