AV-unprocessed.smi:2274|AV-procd|sdf|9168|dock10
  -GOLD-   2272012383D 1   1.00000     0.00000
 Structure written by MMmdl.
 47 48  0  0  0  0  0  0  0  0  1 V2000
  150.7960  141.7943  157.5188 C   0  0  0  0  0  0  0  0  0  0  0  0
  151.2952  141.2478  156.1761 C   0  0  0  0  0  0  0  0  0  0  0  0
  150.1966  140.7867  155.3452 N   0  0  0  0  0  0  0  0  0  0  0  0
  149.2073  141.6561  155.0283 N   0  0  0  0  0  0  0  0  0  0  0  0
  148.3568  140.9723  154.2774 C   0  0  0  0  0  0  0  0  0  0  0  0
  147.0950  141.6457  153.8136 C   0  0  0  0  0  0  0  0  0  0  0  0
  148.8315  139.6415  154.0767 C   0  0  0  0  0  0  0  0  0  0  0  0
  148.2227  138.5742  153.3709 N   0  0  0  0  0  0  0  0  0  0  0  0
  146.9073  138.3372  153.2548 C   0  0  0  0  0  0  0  0  0  0  0  0
  146.0200  139.0478  153.7270 O   0  0  0  0  0  0  0  0  0  0  0  0
  146.6701  137.2311  152.5358 N   0  0  0  0  0  0  0  0  0  0  0  0
  145.3467  136.7005  152.2303 C   0  0  0  0  0  0  0  0  0  0  0  0
  145.3610  135.8443  150.9516 C   0  0  0  0  0  0  0  0  0  0  0  0
  144.9853  134.3768  151.2101 C   0  0  2  0  0  0  0  0  0  0  0  0
  146.2130  133.5291  151.5977 C   0  0  0  0  0  0  0  0  0  0  0  0
  145.8217  132.0568  151.7673 C   0  0  0  0  0  0  0  0  0  0  0  0
  145.0919  131.5686  150.5118 C   0  0  0  0  0  0  0  0  0  0  0  0
  143.9257  132.5099  150.1728 C   0  0  0  0  0  0  0  0  0  0  0  0
  144.4061  133.8423  150.0210 O   0  0  0  0  0  0  0  0  0  0  0  0
  149.9895  139.5352  154.7913 C   0  0  0  0  0  0  0  0  0  0  0  0
  150.9245  138.3864  154.9955 C   0  0  0  0  0  0  0  0  0  0  0  0
  151.6296  142.1349  158.1329 H   0  0  0  0  0  0  0  0  0  0  0  0
  150.2597  141.0288  158.0807 H   0  0  0  0  0  0  0  0  0  0  0  0
  150.1216  142.6390  157.3744 H   0  0  0  0  0  0  0  0  0  0  0  0
  151.8516  142.0157  155.6380 H   0  0  0  0  0  0  0  0  0  0  0  0
  151.9864  140.4195  156.3399 H   0  0  0  0  0  0  0  0  0  0  0  0
  146.2690  140.9370  153.7508 H   0  0  0  0  0  0  0  0  0  0  0  0
  147.2301  142.0945  152.8295 H   0  0  0  0  0  0  0  0  0  0  0  0
  146.7907  142.4379  154.4986 H   0  0  0  0  0  0  0  0  0  0  0  0
  148.8416  137.9896  152.8288 H   0  0  0  0  0  0  0  0  0  0  0  0
  147.4608  136.7139  152.1803 H   0  0  0  0  0  0  0  0  0  0  0  0
  144.9714  136.1216  153.0760 H   0  0  0  0  0  0  0  0  0  0  0  0
  144.6684  137.5452  152.1077 H   0  0  0  0  0  0  0  0  0  0  0  0
  144.6810  136.2712  150.2132 H   0  0  0  0  0  0  0  0  0  0  0  0
  146.3567  135.8808  150.5075 H   0  0  0  0  0  0  0  0  0  0  0  0
  144.2514  134.3382  152.0174 H   0  0  0  0  0  0  0  0  0  0  0  0
  146.9791  133.6155  150.8260 H   0  0  0  0  0  0  0  0  0  0  0  0
  146.6559  133.9041  152.5210 H   0  0  0  0  0  0  0  0  0  0  0  0
  146.7058  131.4468  151.9555 H   0  0  0  0  0  0  0  0  0  0  0  0
  145.1723  131.9466  152.6366 H   0  0  0  0  0  0  0  0  0  0  0  0
  145.7878  131.5350  149.6727 H   0  0  0  0  0  0  0  0  0  0  0  0
  144.7278  130.5512  150.6579 H   0  0  0  0  0  0  0  0  0  0  0  0
  143.4520  132.1988  149.2416 H   0  0  0  0  0  0  0  0  0  0  0  0
  143.1583  132.4742  150.9477 H   0  0  0  0  0  0  0  0  0  0  0  0
  150.6541  137.5401  154.3642 H   0  0  0  0  0  0  0  0  0  0  0  0
  150.9040  138.0516  156.0327 H   0  0  0  0  0  0  0  0  0  0  0  0
  151.9483  138.6699  154.7506 H   0  0  0  0  0  0  0  0  0  0  0  0
  1  2  1  0  0  0  0
  1 22  1  0  0  0  0
  1 23  1  0  0  0  0
  1 24  1  0  0  0  0
  2  3  1  0  0  0  0
  2 25  1  0  0  0  0
  2 26  1  0  0  0  0
  3 20  1  0  0  0  0
  3  4  1  0  0  0  0
  4  5  2  0  0  0  0
  5  6  1  0  0  0  0
  5  7  1  0  0  0  0
  6 27  1  0  0  0  0
  6 28  1  0  0  0  0
  6 29  1  0  0  0  0
  7  8  1  0  0  0  0
  7 20  2  0  0  0  0
  8  9  1  0  0  0  0
  8 30  1  0  0  0  0
  9 10  2  0  0  0  0
  9 11  1  0  0  0  0
 11 12  1  0  0  0  0
 11 31  1  0  0  0  0
 12 13  1  0  0  0  0
 12 32  1  0  0  0  0
 12 33  1  0  0  0  0
 13 14  1  0  0  0  0
 13 34  1  0  0  0  0
 13 35  1  0  0  0  0
 14 19  1  0  0  0  0
 14 15  1  0  0  0  0
 14 36  1  0  0  0  0
 15 16  1  0  0  0  0
 15 37  1  0  0  0  0
 15 38  1  0  0  0  0
 16 17  1  0  0  0  0
 16 39  1  0  0  0  0
 16 40  1  0  0  0  0
 17 18  1  0  0  0  0
 17 41  1  0  0  0  0
 17 42  1  0  0  0  0
 18 19  1  0  0  0  0
 18 43  1  0  0  0  0
 18 44  1  0  0  0  0
 20 21  1  0  0  0  0
 21 45  1  0  0  0  0
 21 46  1  0  0  0  0
 21 47  1  0  0  0  0
M  END
> <s_m_source_file>
AV-unprocessed.smi

> <i_m_source_file_index>
2274

> <i_lp_mmshare_version>
43012

> <i_f3d_flags>
0

> <s_epik_input>
W0NIM11bQ0gyXW4xbmMoW0NIM10pYyhjMVtDSDNdKVtOSF1DKD1PKVtOSF1bQ0gyXVtDSDJdW0NAQEhdMltDSDJdW0NIMl1bQ0gyXVtDSDJdTzI=

> <s_epik_cmdline>
J2VwaWtfcHl0aG9uJywgJy1waCcsICc3LjAnLCAnLXRuJywgJzgnLCAnLW1hJywgJzIwMCcsICctbWV0YWxfYmluZGluZycsICctaW1hZScsICc8aW5maWxlLm1hZT4nLCAnLW9tYWUnLCAnPG91dGZpbGUubWFlPic=

> <r_lp_tautomer_probability>
1

> <r_epik_Ionization_Penalty>
0.00368263

> <r_epik_Ionization_Penalty_Charging>
0

> <r_epik_Ionization_Penalty_Neutral>
0.00368263

> <r_epik_State_Penalty>
0.00259417

> <r_epik_Charging_Adjusted_Penalty>
0.00259417

> <i_epik_Tot_Q>
0

> <i_epik_Tot_abs_Q>
0

> <r_epik_Metal_State_Penalty>
-0

> <b_epik_Metal_Only>
0

> <s_lp_Force_Field>
OPLS_2005

> <r_lp_Energy>
11.6854

> <b_lp_Chiralities_Consistent>
1

> <s_lp_Variant>
AV-unprocessed.smi:2274-1

> <Gold.Version>
5.8.1

> <Gold.Id.Protein>
6NUR|6NUR_protein|mol2

> <Gold.PLP.Fitness>
45.0123

> <Gold.PLP.PLP>
-41.2424

> <Gold.PLP.part.hbond>
-3.0000

> <Gold.PLP.part.metal>
0.0000

> <Gold.PLP.part.buried>
-6.4178

> <Gold.PLP.part.nonpolar>
-34.5744

> <Gold.PLP.part.repulsive>
1.6441

> <Gold.PLP.ligand.clash>
0.0000

> <Gold.PLP.ligand.torsion>
1.1274

> <Gold.PLP.Chemscore.Hbond>
1.8960

> <Gold.PLP.Chemscore.CHOScore>
0.0000

> <Gold.PLP.Chemscore.Metal>
0.0000

> <Gold.Chemscore.Hbonds>
donor molecule, donor type, donor heavy atom, donor atom, acceptor molecule, acceptor atom, score
      L1  H     8    30       P1  7948  0.90
      L1  H    11    31       P1  7948  1.00

> <Gold.PLP.Chemscore.Internal.Correction>
0.3368

> <Gold.Rescore>
     Score         DG    S(hbond)    S(metal)    S(lipo)     H(rot)  DE(clash)    DE(int)     intcor
     16.58     -19.09       1.89        0.00      94.36       1.46       0.09       2.42       ----

> <Gold.Chemscore.Fitness>
16.5837

> <Gold.Chemscore.DG>
-19.0947

> <Gold.Chemscore.ZeroCoef>
-5.4800

> <Gold.Chemscore.Hbond>
1.8904

> <Gold.Chemscore.Metal>
0.0000

> <Gold.Chemscore.Lipo>
94.3598

> <Gold.Chemscore.Internal_Hbond>
0.0000

> <Gold.Chemscore.DEClash>
0.0872

> <Gold.Chemscore.DEInternal>
2.4238

> <Gold.Chemscore.Rot>
1.4606

> <Gold.Chemscore.Internal.Correction>
   9.000000E+99

> <Gold.Chemscore.Hbonds>
donor molecule, donor type, donor heavy atom, donor atom, acceptor molecule, acceptor atom, score
      L1  H     8    30       P1  7948  0.84
      L1  H    11    31       P1  7948  0.98

> <Gold.Chemscore.Hbond.Weighted>
-6.3139

> <Gold.Chemscore.Metal.Weighted>
-0.0000

> <Gold.Chemscore.Lipo.Weighted>
-11.0401

> <Gold.Chemscore.Internal_Hbond.Weighted>
0.0000

> <Gold.Chemscore.DEClash.Weighted>
0.0872

> <Gold.Chemscore.DEInternal.Weighted>
2.4238

> <Gold.Chemscore.Rot.Weighted>
3.7393

> <Gold.Chemscore.Internal.Correction.Weighted>
   9.000000E+99

> <Gold.Protein.RotatedTorsions>
[ 6907 6896 6895 6894 ] final   93.60 input  -60.11 | X-H torsion
[ 7974 7965 7964 7962 ] final -146.70 input  175.53 | X-H torsion
[ 8008 7997 7996 7995 ] final   85.48 input   59.86 | X-H torsion
[ 10167 10162 10161 10158 ] final  161.85 input  -65.29 | X-H torsion
[ 10718 10713 10712 10709 ] final  -87.19 input   66.30 | X-H torsion
[ 10763 10752 10751 10750 ] final -148.40 input  -60.55 | X-H torsion
[ 11005 11000 10999 10996 ] final -154.65 input  -57.11 | X-H torsion

> <Gold.Protein.ActiveResidues>
 VAL166  LYS551  ARG553  GLY616  TRP617  ASP618  TYR619  PRO620  LYS621  CYS622 
 ASP623  PHE694  ASN695  SER759  ASP760  ASP761  ALA762  ILE779  LEU786  VAL792 
 PHE793  MET794  SER795  GLU796  ALA797  LYS798  CYS799  TRP800  GLU811  SER814 

> <Gold.Protein.RotatedAtoms>
  152.5452  134.1323  159.8443 H   0  0  0  0  0  0  0  0  0  0  0  0  # atno 6907 bound_to 6896
  151.1367  133.4992  159.2605 H   0  0  0  0  0  0  0  0  0  0  0  0  # atno 6908 bound_to 6896
  151.1616  135.0286  159.8767 H   0  0  0  0  0  0  0  0  0  0  0  0  # atno 6909 bound_to 6896
  144.8142  140.5422  143.5622 H   0  0  0  0  0  0  0  0  0  0  0  0  # atno 7974 bound_to 7965
  155.9506  140.3401  155.6404 H   0  0  0  0  0  0  0  0  0  0  0  0  # atno 8008 bound_to 7997
  155.6925  140.0750  157.2461 H   0  0  0  0  0  0  0  0  0  0  0  0  # atno 8009 bound_to 7997
  154.4121  140.1654  156.2089 H   0  0  0  0  0  0  0  0  0  0  0  0  # atno 8010 bound_to 7997
  139.4854  144.4496  151.8847 H   0  0  0  0  0  0  0  0  0  0  0  0  # atno 10167 bound_to 10162
  155.9986  130.4791  150.4829 H   0  0  0  0  0  0  0  0  0  0  0  0  # atno 10718 bound_to 10713
  154.8235  135.3335  154.6967 H   0  0  0  0  0  0  0  0  0  0  0  0  # atno 10763 bound_to 10752
  153.7596  135.6933  153.4932 H   0  0  0  0  0  0  0  0  0  0  0  0  # atno 10764 bound_to 10752
  153.2119  135.4479  155.0339 H   0  0  0  0  0  0  0  0  0  0  0  0  # atno 10765 bound_to 10752
  140.6950  134.4000  157.5215 H   0  0  0  0  0  0  0  0  0  0  0  0  # atno 11005 bound_to 11000
  145.5253  139.1476  143.3529 LP  0  0  0  0  0  0  0  0  0  0  0  0  # atno 17320 bound_to 7965
  146.2444  140.5394  142.8920 LP  0  0  0  0  0  0  0  0  0  0  0  0  # atno 17321 bound_to 7965
  140.3952  144.2565  150.5896 LP  0  0  0  0  0  0  0  0  0  0  0  0  # atno 17342 bound_to 10162
  140.5109  143.2291  151.8536 LP  0  0  0  0  0  0  0  0  0  0  0  0  # atno 17343 bound_to 10162
  157.2833  131.0611  151.2183 LP  0  0  0  0  0  0  0  0  0  0  0  0  # atno 17370 bound_to 10713
  157.3222  130.6943  149.6275 LP  0  0  0  0  0  0  0  0  0  0  0  0  # atno 17371 bound_to 10713
  139.8913  134.8784  156.2328 LP  0  0  0  0  0  0  0  0  0  0  0  0  # atno 17394 bound_to 11000
  141.0210  133.7041  156.1269 LP  0  0  0  0  0  0  0  0  0  0  0  0  # atno 17395 bound_to 11000

$$$$
