AV-unprocessed.smi:3112|AV-procd|sdf|11836|dock3
  -GOLD-   2272017213D 1   1.00000     0.00000
 Structure written by MMmdl.
 37 37  0  0  0  0  0  0  0  0  2 V2000
  144.9656  135.0564  151.3927 C   0  0  0  0  0  0  0  0  0  0  0  0
  145.8281  136.3108  151.1971 C   0  0  0  0  0  0  0  0  0  0  0  0
  145.7378  137.3060  152.3683 C   0  0  2  0  0  0  0  0  0  0  0  0
  144.3780  137.6219  152.5964 O   0  0  0  0  0  0  0  0  0  0  0  0
  146.4920  138.6124  152.0715 C   0  0  0  0  0  0  0  0  0  0  0  0
  147.8913  138.5365  152.5439 N   0  3  0  0  0  0  0  0  0  0  0  0
  148.1505  139.1034  153.8876 C   0  0  2  0  0  0  0  0  0  0  0  0
  147.6324  140.5530  153.9152 C   0  0  0  0  0  0  0  0  0  0  0  0
  149.6455  138.9531  154.2948 C   0  0  2  0  0  0  0  0  0  0  0  0
  149.9873  137.5383  154.8028 C   0  0  0  0  0  0  0  0  0  0  0  0
  150.0865  139.9893  155.2258 N   0  0  0  0  0  0  0  0  0  0  0  0
  150.5486  139.8233  156.5163 C   0  0  0  0  0  0  0  0  0  0  0  0
  150.8768  141.0576  156.9986 C   0  0  0  0  0  0  0  0  0  0  0  0
  150.5856  141.9315  155.9151 C   0  0  0  0  0  0  0  0  0  0  0  0
  150.1215  141.2902  154.8554 N   0  0  0  0  0  0  0  0  0  0  0  0
  145.0853  134.3712  150.5535 H   0  0  0  0  0  0  0  0  0  0  0  0
  143.9069  135.3061  151.4652 H   0  0  0  0  0  0  0  0  0  0  0  0
  145.2475  134.5210  152.2996 H   0  0  0  0  0  0  0  0  0  0  0  0
  146.8650  135.9957  151.0743 H   0  0  0  0  0  0  0  0  0  0  0  0
  145.5502  136.8042  150.2645 H   0  0  0  0  0  0  0  0  0  0  0  0
  146.1476  136.8435  153.2674 H   0  0  0  0  0  0  0  0  0  0  0  0
  143.9970  137.9164  151.7825 H   0  0  0  0  0  0  0  0  0  0  0  0
  146.5034  138.7964  150.9964 H   0  0  0  0  0  0  0  0  0  0  0  0
  145.9709  139.4515  152.5320 H   0  0  0  0  0  0  0  0  0  0  0  0
  148.1872  137.5705  152.5385 H   0  0  0  0  0  0  0  0  0  0  0  0
  147.5461  138.5386  154.5991 H   0  0  0  0  0  0  0  0  0  0  0  0
  147.7677  141.0130  154.8936 H   0  0  0  0  0  0  0  0  0  0  0  0
  146.5652  140.5854  153.6933 H   0  0  0  0  0  0  0  0  0  0  0  0
  148.1339  141.1793  153.1777 H   0  0  0  0  0  0  0  0  0  0  0  0
  150.2521  139.0787  153.3985 H   0  0  0  0  0  0  0  0  0  0  0  0
  149.7284  136.7842  154.0593 H   0  0  0  0  0  0  0  0  0  0  0  0
  149.4605  137.2872  155.7232 H   0  0  0  0  0  0  0  0  0  0  0  0
  151.0554  137.4452  155.0023 H   0  0  0  0  0  0  0  0  0  0  0  0
  150.6050  138.8499  156.9811 H   0  0  0  0  0  0  0  0  0  0  0  0
  151.2669  141.2992  157.9763 H   0  0  0  0  0  0  0  0  0  0  0  0
  150.7009  143.0043  155.8659 H   0  0  0  0  0  0  0  0  0  0  0  0
  148.4584  139.0444  151.8804 H   0  0  0  0  0  0  0  0  0  0  0  0
  1  2  1  0  0  0  0
  1 16  1  0  0  0  0
  1 17  1  0  0  0  0
  1 18  1  0  0  0  0
  2  3  1  0  0  0  0
  2 19  1  0  0  0  0
  2 20  1  0  0  0  0
  3  4  1  0  0  0  0
  3  5  1  0  0  0  0
  3 21  1  0  0  0  0
  4 22  1  0  0  0  0
  5  6  1  0  0  0  0
  5 23  1  0  0  0  0
  5 24  1  0  0  0  0
  6  7  1  0  0  0  0
  6 25  1  0  0  0  0
  6 37  1  0  0  0  0
  7  8  1  0  0  0  0
  7  9  1  0  0  0  0
  7 26  1  0  0  0  0
  8 27  1  0  0  0  0
  8 28  1  0  0  0  0
  8 29  1  0  0  0  0
  9 10  1  0  0  0  0
  9 11  1  0  0  0  0
  9 30  1  0  0  0  0
 10 31  1  0  0  0  0
 10 32  1  0  0  0  0
 10 33  1  0  0  0  0
 11 15  1  0  0  0  0
 11 12  1  0  0  0  0
 12 13  2  0  0  0  0
 12 34  1  0  0  0  0
 13 14  1  0  0  0  0
 13 35  1  0  0  0  0
 14 15  2  0  0  0  0
 14 36  1  0  0  0  0
M  CHG  1   6   1
M  END
> <s_m_source_file>
AV-unprocessed.smi

> <i_m_source_file_index>
3112

> <i_lp_mmshare_version>
43012

> <i_f3d_flags>
0

> <s_epik_input>
W0NIM11bQ0gyXVtDQEhdKFtPSF0pW0NIMl1bTkhdW0NASF0oW0NIM10pW0NASF0oW0NIM10pbjFbY0hdW2NIXVtjSF1uMQ==

> <s_epik_cmdline>
J2VwaWtfcHl0aG9uJywgJy1waCcsICc3LjAnLCAnLXRuJywgJzgnLCAnLW1hJywgJzIwMCcsICctbWV0YWxfYmluZGluZycsICctaW1hZScsICc8aW5maWxlLm1hZT4nLCAnLW9tYWUnLCAnPG91dGZpbGUubWFlPic=

> <r_lp_tautomer_probability>
1

> <r_epik_Ionization_Penalty>
0.0154842

> <r_epik_Ionization_Penalty_Charging>
0.0154724

> <r_epik_Ionization_Penalty_Neutral>
1.17979e-05

> <r_epik_State_Penalty>
0.0121607

> <r_epik_Charging_Adjusted_Penalty>
0.0276331

> <i_epik_Tot_Q>
1

> <i_epik_Tot_abs_Q>
1

> <r_epik_Metal_State_Penalty>
0.0121863

> <b_epik_Metal_Only>
0

> <s_lp_Force_Field>
OPLS_2005

> <r_lp_Energy>
12.3071

> <b_lp_Chiralities_Consistent>
1

> <s_lp_Variant>
AV-unprocessed.smi:3112-1

> <Gold.Version>
5.8.1

> <Gold.Id.Protein>
6NUR|6NUR_protein|mol2

> <Gold.PLP.Fitness>
43.6710

> <Gold.PLP.PLP>
-30.2626

> <Gold.PLP.part.hbond>
-5.0000

> <Gold.PLP.part.metal>
0.0000

> <Gold.PLP.part.buried>
-1.0489

> <Gold.PLP.part.nonpolar>
-25.9707

> <Gold.PLP.part.repulsive>
0.2060

> <Gold.PLP.ligand.clash>
0.0000

> <Gold.PLP.ligand.torsion>
1.3838

> <Gold.PLP.Chemscore.Hbond>
4.3342

> <Gold.PLP.Chemscore.CHOScore>
0.9840

> <Gold.PLP.Chemscore.Metal>
0.0000

> <Gold.Chemscore.Hbonds>
donor molecule, donor type, donor heavy atom, donor atom, acceptor molecule, acceptor atom, score
      L1  H     4    22       P1 10171  0.88
      L1  H     6    25       P1  7948  2.00
      L1  H     6    37       P1  7957  1.00
      P1  H  7989  7998       L1    15  0.27
      L1  C    14    36       P1  8028  0.96

> <Gold.PLP.Chemscore.Internal.Correction>
0.2216

> <Gold.Rescore>
     Score         DG    S(hbond)    S(metal)    S(lipo)     H(rot)  DE(clash)    DE(int)     intcor
     14.53     -17.44       2.94        0.00      71.07       2.41       0.09       2.81       ----

> <Gold.Chemscore.Fitness>
14.5320

> <Gold.Chemscore.DG>
-17.4364

> <Gold.Chemscore.ZeroCoef>
-5.4800

> <Gold.Chemscore.Hbond>
2.9364

> <Gold.Chemscore.Metal>
0.0000

> <Gold.Chemscore.Lipo>
71.0723

> <Gold.Chemscore.Internal_Hbond>
0.0000

> <Gold.Chemscore.DEClash>
0.0896

> <Gold.Chemscore.DEInternal>
2.8147

> <Gold.Chemscore.Rot>
2.4089

> <Gold.Chemscore.Internal.Correction>
   9.000000E+99

> <Gold.Chemscore.Hbonds>
donor molecule, donor type, donor heavy atom, donor atom, acceptor molecule, acceptor atom, score
      L1  H     4    22       P1 10171  0.85
      L1  H     6    25       P1  7948  0.96
      L1  H     6    37       P1  7957  0.95
      P1  H  7989  7998       L1    15  0.01

> <Gold.Chemscore.Hbond.Weighted>
-9.8076

> <Gold.Chemscore.Metal.Weighted>
-0.0000

> <Gold.Chemscore.Lipo.Weighted>
-8.3155

> <Gold.Chemscore.Internal_Hbond.Weighted>
0.0000

> <Gold.Chemscore.DEClash.Weighted>
0.0896

> <Gold.Chemscore.DEInternal.Weighted>
2.8147

> <Gold.Chemscore.Rot.Weighted>
6.1667

> <Gold.Chemscore.Internal.Correction.Weighted>
   9.000000E+99

> <Gold.Protein.RotatedTorsions>
[ 6907 6896 6895 6894 ] final   80.77 input  -60.11 | X-H torsion
[ 7974 7965 7964 7962 ] final -119.38 input  175.53 | X-H torsion
[ 8008 7997 7996 7995 ] final -177.55 input   59.86 | X-H torsion
[ 10167 10162 10161 10158 ] final  -18.38 input  -65.29 | X-H torsion
[ 10718 10713 10712 10709 ] final  -79.56 input   66.30 | X-H torsion
[ 10763 10752 10751 10750 ] final  108.98 input  -60.55 | X-H torsion
[ 11005 11000 10999 10996 ] final  -77.99 input  -57.11 | X-H torsion

> <Gold.Protein.ActiveResidues>
 VAL166  LYS551  ARG553  GLY616  TRP617  ASP618  TYR619  PRO620  LYS621  CYS622 
 ASP623  PHE694  ASN695  SER759  ASP760  ASP761  ALA762  ILE779  LEU786  VAL792 
 PHE793  MET794  SER795  GLU796  ALA797  LYS798  CYS799  TRP800  GLU811  SER814 

> <Gold.Protein.RotatedAtoms>
  152.5246  134.3307  159.9181 H   0  0  0  0  0  0  0  0  0  0  0  0  # atno 6907 bound_to 6896
  151.3256  133.4015  159.2666 H   0  0  0  0  0  0  0  0  0  0  0  0  # atno 6908 bound_to 6896
  150.9923  134.9272  159.7964 H   0  0  0  0  0  0  0  0  0  0  0  0  # atno 6909 bound_to 6896
  145.0631  140.8305  143.4140 H   0  0  0  0  0  0  0  0  0  0  0  0  # atno 7974 bound_to 7965
  156.0083  140.1235  157.0479 H   0  0  0  0  0  0  0  0  0  0  0  0  # atno 8008 bound_to 7997
  154.4266  140.1093  156.5863 H   0  0  0  0  0  0  0  0  0  0  0  0  # atno 8009 bound_to 7997
  155.6116  140.3471  155.4626 H   0  0  0  0  0  0  0  0  0  0  0  0  # atno 8010 bound_to 7997
  140.7258  143.4922  150.9977 H   0  0  0  0  0  0  0  0  0  0  0  0  # atno 10167 bound_to 10162
  156.0090  130.4549  150.3667 H   0  0  0  0  0  0  0  0  0  0  0  0  # atno 10718 bound_to 10713
  153.4283  135.3794  155.2155 H   0  0  0  0  0  0  0  0  0  0  0  0  # atno 10763 bound_to 10752
  154.8748  135.3834  154.4299 H   0  0  0  0  0  0  0  0  0  0  0  0  # atno 10764 bound_to 10752
  153.4828  135.7088  153.5991 H   0  0  0  0  0  0  0  0  0  0  0  0  # atno 10765 bound_to 10752
  141.1663  133.7045  156.7904 H   0  0  0  0  0  0  0  0  0  0  0  0  # atno 11005 bound_to 11000
  145.1384  139.2588  143.5503 LP  0  0  0  0  0  0  0  0  0  0  0  0  # atno 17320 bound_to 7965
  146.3525  140.1054  142.8606 LP  0  0  0  0  0  0  0  0  0  0  0  0  # atno 17321 bound_to 7965
  139.8627  143.7294  152.3172 LP  0  0  0  0  0  0  0  0  0  0  0  0  # atno 17342 bound_to 10162
  139.7515  144.7533  151.0499 LP  0  0  0  0  0  0  0  0  0  0  0  0  # atno 17343 bound_to 10162
  157.1754  131.0379  151.2775 LP  0  0  0  0  0  0  0  0  0  0  0  0  # atno 17370 bound_to 10713
  157.4193  130.7428  149.6900 LP  0  0  0  0  0  0  0  0  0  0  0  0  # atno 17371 bound_to 10713
  140.2329  134.8672  157.3495 LP  0  0  0  0  0  0  0  0  0  0  0  0  # atno 17394 bound_to 11000
  140.1873  134.4416  155.7736 LP  0  0  0  0  0  0  0  0  0  0  0  0  # atno 17395 bound_to 11000

$$$$
