AV-unprocessed.smi:1645|AV-procd|sdf|6606|dock2
  -GOLD-   22720 7313D 1   1.00000     0.00000
 Structure written by MMmdl.
 55 58  0  0  0  0  0  0  0  0  2 V2000
  149.1452  135.5374  156.3387 O   0  0  0  0  0  0  0  0  0  0  0  0
  149.1767  135.7913  155.1347 C   0  0  0  0  0  0  0  0  0  0  0  0
  149.6183  136.9394  154.5944 N   0  0  0  0  0  0  0  0  0  0  0  0
  150.1109  138.0888  155.2675 C   0  0  0  0  0  0  0  0  0  0  0  0
  150.4078  139.3140  154.6277 C   0  0  0  0  0  0  0  0  0  0  0  0
  150.9086  140.3807  155.3980 C   0  0  0  0  0  0  0  0  0  0  0  0
  151.1075  140.1985  156.7864 C   0  0  0  0  0  0  0  0  0  0  0  0
  151.6002  141.2598  157.5754 N   0  0  0  0  0  0  0  0  0  0  0  0
  151.9768  140.9024  158.9443 C   0  0  0  0  0  0  0  0  0  0  0  0
  152.8710  141.9849  159.5737 C   0  0  0  0  0  0  0  0  0  0  0  0
  152.2122  143.3696  159.4816 C   0  0  0  0  0  0  0  0  0  0  0  0
  151.8488  143.6830  158.0227 C   0  0  0  0  0  0  0  0  0  0  0  0
  150.9696  142.5730  157.4222 C   0  0  0  0  0  0  0  0  0  0  0  0
  150.8339  139.0179  157.3939 N   0  0  0  0  0  0  0  0  0  0  0  0
  150.3583  137.9968  156.6512 C   0  0  0  0  0  0  0  0  0  0  0  0
  148.7799  134.9282  154.1882 N   0  0  0  0  0  0  0  0  0  0  0  0
  148.3032  133.5683  154.4362 C   0  0  2  0  0  0  0  0  0  0  0  0
  149.3749  132.4954  154.1655 C   0  0  0  0  0  0  0  0  0  0  0  0
  148.6092  131.3434  153.5070 C   0  0  0  0  0  0  0  0  0  0  0  0
  147.5713  132.0393  152.7380 N   0  3  1  0  0  0  0  0  0  0  0  0
  146.4745  131.2446  152.1494 C   0  0  0  0  0  0  0  0  0  0  0  0
  145.6342  132.1700  151.2431 C   0  0  0  0  0  0  0  0  0  0  0  0
  145.1770  133.4517  151.9764 C   0  0  0  0  0  0  0  0  0  0  0  0
  146.3525  134.1638  152.6808 C   0  0  0  0  0  0  0  0  0  0  0  0
  147.0859  133.1492  153.5764 C   0  0  2  0  0  0  0  0  0  0  0  0
  149.6763  136.9689  153.5870 H   0  0  0  0  0  0  0  0  0  0  0  0
  150.2713  139.4522  153.5664 H   0  0  0  0  0  0  0  0  0  0  0  0
  151.1220  141.3257  154.9214 H   0  0  0  0  0  0  0  0  0  0  0  0
  151.0668  140.7855  159.5341 H   0  0  0  0  0  0  0  0  0  0  0  0
  152.4967  139.9461  158.9827 H   0  0  0  0  0  0  0  0  0  0  0  0
  153.0792  141.7377  160.6147 H   0  0  0  0  0  0  0  0  0  0  0  0
  153.8336  142.0047  159.0612 H   0  0  0  0  0  0  0  0  0  0  0  0
  151.3129  143.3923  160.0986 H   0  0  0  0  0  0  0  0  0  0  0  0
  152.8826  144.1337  159.8758 H   0  0  0  0  0  0  0  0  0  0  0  0
  151.3336  144.6419  157.9612 H   0  0  0  0  0  0  0  0  0  0  0  0
  152.7614  143.7833  157.4334 H   0  0  0  0  0  0  0  0  0  0  0  0
  150.7976  142.7868  156.3664 H   0  0  0  0  0  0  0  0  0  0  0  0
  149.9955  142.5619  157.9128 H   0  0  0  0  0  0  0  0  0  0  0  0
  150.1611  137.0779  157.1837 H   0  0  0  0  0  0  0  0  0  0  0  0
  148.8413  135.2219  153.2242 H   0  0  0  0  0  0  0  0  0  0  0  0
  148.0177  133.4892  155.4873 H   0  0  0  0  0  0  0  0  0  0  0  0
  150.1223  132.8749  153.4666 H   0  0  0  0  0  0  0  0  0  0  0  0
  149.8984  132.1852  155.0704 H   0  0  0  0  0  0  0  0  0  0  0  0
  149.2429  130.7242  152.8717 H   0  0  0  0  0  0  0  0  0  0  0  0
  148.1455  130.7072  154.2628 H   0  0  0  0  0  0  0  0  0  0  0  0
  146.8878  130.4210  151.5663 H   0  0  0  0  0  0  0  0  0  0  0  0
  145.8606  130.8079  152.9384 H   0  0  0  0  0  0  0  0  0  0  0  0
  146.2285  132.4523  150.3730 H   0  0  0  0  0  0  0  0  0  0  0  0
  144.7681  131.6301  150.8592 H   0  0  0  0  0  0  0  0  0  0  0  0
  144.6927  134.1321  151.2754 H   0  0  0  0  0  0  0  0  0  0  0  0
  144.4214  133.1884  152.7177 H   0  0  0  0  0  0  0  0  0  0  0  0
  147.0357  134.5829  151.9409 H   0  0  0  0  0  0  0  0  0  0  0  0
  145.9722  134.9964  153.2728 H   0  0  0  0  0  0  0  0  0  0  0  0
  146.3537  132.7352  154.2733 H   0  0  0  0  0  0  0  0  0  0  0  0
  148.0570  132.4699  151.9643 H   0  0  0  0  0  0  0  0  0  0  0  0
  1  2  2  0  0  0  0
  2  3  1  0  0  0  0
  2 16  1  0  0  0  0
  3  4  1  0  0  0  0
  3 26  1  0  0  0  0
  4 15  1  0  0  0  0
  4  5  2  0  0  0  0
  5  6  1  0  0  0  0
  5 27  1  0  0  0  0
  6  7  2  0  0  0  0
  6 28  1  0  0  0  0
  7  8  1  0  0  0  0
  7 14  1  0  0  0  0
  8 13  1  0  0  0  0
  8  9  1  0  0  0  0
  9 10  1  0  0  0  0
  9 29  1  0  0  0  0
  9 30  1  0  0  0  0
 10 11  1  0  0  0  0
 10 31  1  0  0  0  0
 10 32  1  0  0  0  0
 11 12  1  0  0  0  0
 11 33  1  0  0  0  0
 11 34  1  0  0  0  0
 12 13  1  0  0  0  0
 12 35  1  0  0  0  0
 12 36  1  0  0  0  0
 13 37  1  0  0  0  0
 13 38  1  0  0  0  0
 14 15  2  0  0  0  0
 15 39  1  0  0  0  0
 16 17  1  0  0  0  0
 16 40  1  0  0  0  0
 17 25  1  0  0  0  0
 17 18  1  0  0  0  0
 17 41  1  0  0  0  0
 18 19  1  0  0  0  0
 18 42  1  0  0  0  0
 18 43  1  0  0  0  0
 19 20  1  0  0  0  0
 19 44  1  0  0  0  0
 19 45  1  0  0  0  0
 20 25  1  0  0  0  0
 20 21  1  0  0  0  0
 20 55  1  0  0  0  0
 21 22  1  0  0  0  0
 21 46  1  0  0  0  0
 21 47  1  0  0  0  0
 22 23  1  0  0  0  0
 22 48  1  0  0  0  0
 22 49  1  0  0  0  0
 23 24  1  0  0  0  0
 23 50  1  0  0  0  0
 23 51  1  0  0  0  0
 24 25  1  0  0  0  0
 24 52  1  0  0  0  0
 24 53  1  0  0  0  0
 25 54  1  0  0  0  0
M  CHG  1  20   1
M  END
> <s_m_source_file>
AV-unprocessed.smi

> <i_m_source_file_index>
1645

> <i_lp_mmshare_version>
43012

> <i_f3d_flags>
0

> <s_epik_input>
W0NIMl0xW0NIMl1bQ0gyXVtDSDJdW0NASF0oTjEyKVtDQEBIXShbQ0gyXVtDSDJdMilbTkhdQyg9TylbTkhdYzNbY0hdW2NIXWMobltjSF0zKU40W0NIMl1bQ0gyXVtDSDJdW0NIMl1bQ0gyXTQ=

> <s_epik_cmdline>
J2VwaWtfcHl0aG9uJywgJy1waCcsICc3LjAnLCAnLXRuJywgJzgnLCAnLW1hJywgJzIwMCcsICctbWV0YWxfYmluZGluZycsICctaW1hZScsICc8aW5maWxlLm1hZT4nLCAnLW9tYWUnLCAnPG91dGZpbGUubWFlPic=

> <r_lp_tautomer_probability>
1

> <r_epik_Ionization_Penalty>
0.0808019

> <r_epik_Ionization_Penalty_Charging>
0.000974069

> <r_epik_Ionization_Penalty_Neutral>
0.0798278

> <r_epik_State_Penalty>
0.0653665

> <r_epik_Charging_Adjusted_Penalty>
0.0663406

> <i_epik_Tot_Q>
1

> <i_epik_Tot_abs_Q>
1

> <r_epik_Metal_State_Penalty>
0.0585673

> <b_epik_Metal_Only>
0

> <s_lp_Force_Field>
OPLS_2005

> <r_lp_Energy>
57.223

> <b_lp_Chiralities_Consistent>
1

> <s_lp_Variant>
AV-unprocessed.smi:1645-7

> <Gold.Version>
5.8.1

> <Gold.Id.Protein>
6NUR|6NUR_protein|mol2

> <Gold.PLP.Fitness>
47.8743

> <Gold.PLP.PLP>
-42.6496

> <Gold.PLP.part.hbond>
-2.9525

> <Gold.PLP.part.metal>
0.0000

> <Gold.PLP.part.buried>
-2.2448

> <Gold.PLP.part.nonpolar>
-37.7978

> <Gold.PLP.part.repulsive>
0.0541

> <Gold.PLP.ligand.clash>
0.0000

> <Gold.PLP.ligand.torsion>
0.4983

> <Gold.PLP.Chemscore.Hbond>
1.9280

> <Gold.PLP.Chemscore.CHOScore>
0.0000

> <Gold.PLP.Chemscore.Metal>
0.0000

> <Gold.Chemscore.Hbonds>
donor molecule, donor type, donor heavy atom, donor atom, acceptor molecule, acceptor atom, score
      L1  H     3    26       P1  7948  0.94
      L1  H    16    40       P1  7948  1.00

> <Gold.PLP.Chemscore.Internal.Correction>
0.4372

> <Gold.Rescore>
     Score         DG    S(hbond)    S(metal)    S(lipo)     H(rot)  DE(clash)    DE(int)     intcor
     19.92     -22.12       1.87        0.00     114.46       1.17       0.15       2.05       ----

> <Gold.Chemscore.Fitness>
19.9238

> <Gold.Chemscore.DG>
-22.1244

> <Gold.Chemscore.ZeroCoef>
-5.4800

> <Gold.Chemscore.Hbond>
1.8732

> <Gold.Chemscore.Metal>
0.0000

> <Gold.Chemscore.Lipo>
114.4555

> <Gold.Chemscore.Internal_Hbond>
0.0000

> <Gold.Chemscore.DEClash>
0.1483

> <Gold.Chemscore.DEInternal>
2.0523

> <Gold.Chemscore.Rot>
1.1731

> <Gold.Chemscore.Internal.Correction>
   9.000000E+99

> <Gold.Chemscore.Hbonds>
donor molecule, donor type, donor heavy atom, donor atom, acceptor molecule, acceptor atom, score
      L1  H     3    26       P1  7948  0.62
      L1  H    16    40       P1  7948  0.55

> <Gold.Chemscore.Hbond.Weighted>
-6.2563

> <Gold.Chemscore.Metal.Weighted>
-0.0000

> <Gold.Chemscore.Lipo.Weighted>
-13.3913

> <Gold.Chemscore.Internal_Hbond.Weighted>
0.0000

> <Gold.Chemscore.DEClash.Weighted>
0.1483

> <Gold.Chemscore.DEInternal.Weighted>
2.0523

> <Gold.Chemscore.Rot.Weighted>
3.0032

> <Gold.Chemscore.Internal.Correction.Weighted>
   9.000000E+99

> <Gold.Protein.RotatedTorsions>
[ 6907 6896 6895 6894 ] final  -30.26 input  -60.11 | X-H torsion
[ 7974 7965 7964 7962 ] final  103.77 input  175.53 | X-H torsion
[ 8008 7997 7996 7995 ] final  -70.40 input   59.86 | X-H torsion
[ 10167 10162 10161 10158 ] final  112.48 input  -65.29 | X-H torsion
[ 10718 10713 10712 10709 ] final   -9.24 input   66.30 | X-H torsion
[ 10763 10752 10751 10750 ] final   11.23 input  -60.55 | X-H torsion
[ 11005 11000 10999 10996 ] final -116.56 input  -57.11 | X-H torsion

> <Gold.Protein.ActiveResidues>
 VAL166  LYS551  ARG553  GLY616  TRP617  ASP618  TYR619  PRO620  LYS621  CYS622 
 ASP623  PHE694  ASN695  SER759  ASP760  ASP761  ALA762  ILE779  LEU786  VAL792 
 PHE793  MET794  SER795  GLU796  ALA797  LYS798  CYS799  TRP800  GLU811  SER814 

> <Gold.Protein.RotatedAtoms>
  151.1080  135.0010  159.8480 H   0  0  0  0  0  0  0  0  0  0  0  0  # atno 6907 bound_to 6896
  152.5441  134.1870  159.8669 H   0  0  0  0  0  0  0  0  0  0  0  0  # atno 6908 bound_to 6896
  151.1918  133.4618  159.2628 H   0  0  0  0  0  0  0  0  0  0  0  0  # atno 6909 bound_to 6896
  145.3415  139.2461  143.3607 H   0  0  0  0  0  0  0  0  0  0  0  0  # atno 7974 bound_to 7965
  154.5009  140.0835  156.7796 H   0  0  0  0  0  0  0  0  0  0  0  0  # atno 8008 bound_to 7997
  155.4005  140.3437  155.4238 H   0  0  0  0  0  0  0  0  0  0  0  0  # atno 8009 bound_to 7997
  156.1455  140.1542  156.8841 H   0  0  0  0  0  0  0  0  0  0  0  0  # atno 8010 bound_to 7997
  139.6532  144.7128  151.2007 H   0  0  0  0  0  0  0  0  0  0  0  0  # atno 10167 bound_to 10162
  156.6909  130.5065  149.5944 H   0  0  0  0  0  0  0  0  0  0  0  0  # atno 10718 bound_to 10713
  153.1948  135.6847  153.8305 H   0  0  0  0  0  0  0  0  0  0  0  0  # atno 10763 bound_to 10752
  153.7592  135.3212  155.3335 H   0  0  0  0  0  0  0  0  0  0  0  0  # atno 10764 bound_to 10752
  154.8138  135.4699  154.0688 H   0  0  0  0  0  0  0  0  0  0  0  0  # atno 10765 bound_to 10752
  141.0413  133.9831  157.2989 H   0  0  0  0  0  0  0  0  0  0  0  0  # atno 11005 bound_to 11000
  146.3005  140.4014  142.8706 LP  0  0  0  0  0  0  0  0  0  0  0  0  # atno 17320 bound_to 7965
  144.8786  140.7370  143.6001 LP  0  0  0  0  0  0  0  0  0  0  0  0  # atno 17321 bound_to 7965
  140.7547  143.6115  150.8601 LP  0  0  0  0  0  0  0  0  0  0  0  0  # atno 17342 bound_to 10162
  139.9765  143.5998  152.2957 LP  0  0  0  0  0  0  0  0  0  0  0  0  # atno 17343 bound_to 10162
  156.1798  130.6491  151.0938 LP  0  0  0  0  0  0  0  0  0  0  0  0  # atno 17370 bound_to 10713
  157.7009  131.0776  150.6823 LP  0  0  0  0  0  0  0  0  0  0  0  0  # atno 17371 bound_to 10713
  139.9278  135.0201  156.8296 LP  0  0  0  0  0  0  0  0  0  0  0  0  # atno 17394 bound_to 11000
  140.6228  133.9978  155.7626 LP  0  0  0  0  0  0  0  0  0  0  0  0  # atno 17395 bound_to 11000

$$$$
