AV-unprocessed.smi:3181|AV-procd|sdf|12149|dock6
  -GOLD-   2272017583D 1   1.00000     0.00000
 Structure written by MMmdl.
 42 43  0  0  0  0  0  0  0  0  2 V2000
  151.0697  140.0075  155.5194 C   0  0  0  0  0  0  0  0  0  0  0  0
  150.0249  141.1249  155.6792 C   0  0  2  0  0  0  0  0  0  0  0  0
  149.2007  141.3694  154.3993 C   0  0  0  0  0  0  0  0  0  0  0  0
  147.8480  141.8163  154.6760 N   0  0  0  0  0  0  0  0  0  0  0  0
  146.8540  142.1353  153.8456 C   0  0  0  0  0  0  0  0  0  0  0  0
  145.7409  142.5073  154.4614 N   0  0  0  0  0  0  0  0  0  0  0  0
  146.1453  142.3810  155.7605 C   0  0  0  0  0  0  0  0  0  0  0  0
  147.4000  141.9689  155.9441 N   0  0  0  0  0  0  0  0  0  0  0  0
  150.6925  142.3839  156.0814 N   0  3  0  0  0  0  0  0  0  0  0  0
  150.8420  142.5989  157.5381 C   0  0  1  0  0  0  0  0  0  0  0  0
  151.6548  141.4653  158.1958 C   0  0  0  0  0  0  0  0  0  0  0  0
  151.8640  141.7184  159.6973 C   0  0  0  0  0  0  0  0  0  0  0  0
  152.5264  143.0862  159.9563 C   0  0  2  0  0  0  0  0  0  0  0  0
  152.8080  143.3102  161.4511 C   0  0  0  0  0  0  0  0  0  0  0  0
  151.7259  144.2414  159.3018 C   0  0  2  0  0  0  0  0  0  0  0  0
  150.3955  144.5700  160.0097 C   0  0  0  0  0  0  0  0  0  0  0  0
  151.5182  143.9592  157.7987 C   0  0  0  0  0  0  0  0  0  0  0  0
  150.6002  139.0480  155.3017 H   0  0  0  0  0  0  0  0  0  0  0  0
  151.6527  139.8792  156.4317 H   0  0  0  0  0  0  0  0  0  0  0  0
  151.7652  140.2282  154.7091 H   0  0  0  0  0  0  0  0  0  0  0  0
  149.3311  140.8179  156.4636 H   0  0  0  0  0  0  0  0  0  0  0  0
  149.6840  142.1280  153.7821 H   0  0  0  0  0  0  0  0  0  0  0  0
  149.1546  140.4608  153.7961 H   0  0  0  0  0  0  0  0  0  0  0  0
  146.9469  142.0972  152.7700 H   0  0  0  0  0  0  0  0  0  0  0  0
  145.4961  142.5998  156.5957 H   0  0  0  0  0  0  0  0  0  0  0  0
  151.6031  142.4293  155.6468 H   0  0  0  0  0  0  0  0  0  0  0  0
  149.8425  142.6264  157.9740 H   0  0  0  0  0  0  0  0  0  0  0  0
  151.1545  140.5059  158.0618 H   0  0  0  0  0  0  0  0  0  0  0  0
  152.6258  141.3759  157.7063 H   0  0  0  0  0  0  0  0  0  0  0  0
  150.9072  141.6588  160.2169 H   0  0  0  0  0  0  0  0  0  0  0  0
  152.4839  140.9230  160.1127 H   0  0  0  0  0  0  0  0  0  0  0  0
  153.5005  143.0633  159.4648 H   0  0  0  0  0  0  0  0  0  0  0  0
  151.8971  143.2587  162.0476 H   0  0  0  0  0  0  0  0  0  0  0  0
  153.2684  144.2834  161.6238 H   0  0  0  0  0  0  0  0  0  0  0  0
  153.4907  142.5520  161.8356 H   0  0  0  0  0  0  0  0  0  0  0  0
  152.3380  145.1419  159.3723 H   0  0  0  0  0  0  0  0  0  0  0  0
  149.7302  143.7087  160.0606 H   0  0  0  0  0  0  0  0  0  0  0  0
  149.8630  145.3642  159.4860 H   0  0  0  0  0  0  0  0  0  0  0  0
  150.5610  144.9194  161.0285 H   0  0  0  0  0  0  0  0  0  0  0  0
  152.4876  143.9797  157.2981 H   0  0  0  0  0  0  0  0  0  0  0  0
  150.9319  144.7616  157.3488 H   0  0  0  0  0  0  0  0  0  0  0  0
  150.1341  143.1443  155.7208 H   0  0  0  0  0  0  0  0  0  0  0  0
  1  2  1  0  0  0  0
  1 18  1  0  0  0  0
  1 19  1  0  0  0  0
  1 20  1  0  0  0  0
  2  3  1  0  0  0  0
  2  9  1  0  0  0  0
  2 21  1  0  0  0  0
  3  4  1  0  0  0  0
  3 22  1  0  0  0  0
  3 23  1  0  0  0  0
  4  8  1  0  0  0  0
  4  5  1  0  0  0  0
  5  6  2  0  0  0  0
  5 24  1  0  0  0  0
  6  7  1  0  0  0  0
  7  8  2  0  0  0  0
  7 25  1  0  0  0  0
  9 10  1  0  0  0  0
  9 26  1  0  0  0  0
  9 42  1  0  0  0  0
 10 17  1  0  0  0  0
 10 11  1  0  0  0  0
 10 27  1  0  0  0  0
 11 12  1  0  0  0  0
 11 28  1  0  0  0  0
 11 29  1  0  0  0  0
 12 13  1  0  0  0  0
 12 30  1  0  0  0  0
 12 31  1  0  0  0  0
 13 14  1  0  0  0  0
 13 15  1  0  0  0  0
 13 32  1  0  0  0  0
 14 33  1  0  0  0  0
 14 34  1  0  0  0  0
 14 35  1  0  0  0  0
 15 16  1  0  0  0  0
 15 17  1  0  0  0  0
 15 36  1  0  0  0  0
 16 37  1  0  0  0  0
 16 38  1  0  0  0  0
 16 39  1  0  0  0  0
 17 40  1  0  0  0  0
 17 41  1  0  0  0  0
M  CHG  1   9   1
M  END
> <s_m_source_file>
AV-unprocessed.smi

> <i_m_source_file_index>
3181

> <i_lp_mmshare_version>
43012

> <i_f3d_flags>
0

> <s_epik_input>
bjFbY0hdbltjSF1uMVtDSDJdW0NAQEhdKFtDSDNdKVtOSF1bQ0BASF0yW0NIMl1bQ0gyXVtDQEBIXShbQ0gzXSlbQ0BASF0oW0NIM10pW0NIMl0y

> <s_epik_cmdline>
J2VwaWtfcHl0aG9uJywgJy1waCcsICc3LjAnLCAnLXRuJywgJzgnLCAnLW1hJywgJzIwMCcsICctbWV0YWxfYmluZGluZycsICctaW1hZScsICc8aW5maWxlLm1hZT4nLCAnLW9tYWUnLCAnPG91dGZpbGUubWFlPic=

> <r_lp_tautomer_probability>
1

> <r_epik_Ionization_Penalty>
0.000617007

> <r_epik_Ionization_Penalty_Charging>
0.000616215

> <r_epik_Ionization_Penalty_Neutral>
7.92544e-07

> <r_epik_State_Penalty>
0.000388807

> <r_epik_Charging_Adjusted_Penalty>
0.00100502

> <i_epik_Tot_Q>
1

> <i_epik_Tot_abs_Q>
1

> <r_epik_Metal_State_Penalty>
-0

> <b_epik_Metal_Only>
0

> <s_lp_Force_Field>
OPLS_2005

> <r_lp_Energy>
22.4909

> <b_lp_Chiralities_Consistent>
1

> <s_lp_Variant>
AV-unprocessed.smi:3181-15

> <Gold.Version>
5.8.1

> <Gold.Id.Protein>
6NUR|6NUR_protein|mol2

> <Gold.PLP.Fitness>
45.5267

> <Gold.PLP.PLP>
-41.0735

> <Gold.PLP.part.hbond>
-1.0000

> <Gold.PLP.part.metal>
0.0000

> <Gold.PLP.part.buried>
-3.2180

> <Gold.PLP.part.nonpolar>
-36.6173

> <Gold.PLP.part.repulsive>
0.5417

> <Gold.PLP.ligand.clash>
0.0000

> <Gold.PLP.ligand.torsion>
0.7817

> <Gold.PLP.Chemscore.Hbond>
2.0000

> <Gold.PLP.Chemscore.CHOScore>
0.0000

> <Gold.PLP.Chemscore.Metal>
0.0000

> <Gold.Chemscore.Hbonds>
donor molecule, donor type, donor heavy atom, donor atom, acceptor molecule, acceptor atom, score
      L1  H     9    42       P1  8028  2.00

> <Gold.PLP.Chemscore.Internal.Correction>
0.0165

> <Gold.Rescore>
     Score         DG    S(hbond)    S(metal)    S(lipo)     H(rot)  DE(clash)    DE(int)     intcor
     14.59     -15.49       0.97        0.00     103.93       2.11       0.08       0.82       ----

> <Gold.Chemscore.Fitness>
14.5858

> <Gold.Chemscore.DG>
-15.4860

> <Gold.Chemscore.ZeroCoef>
-5.4800

> <Gold.Chemscore.Hbond>
0.9720

> <Gold.Chemscore.Metal>
0.0000

> <Gold.Chemscore.Lipo>
103.9311

> <Gold.Chemscore.Internal_Hbond>
0.0000

> <Gold.Chemscore.DEClash>
0.0838

> <Gold.Chemscore.DEInternal>
0.8163

> <Gold.Chemscore.Rot>
2.1095

> <Gold.Chemscore.Internal.Correction>
   9.000000E+99

> <Gold.Chemscore.Hbonds>
donor molecule, donor type, donor heavy atom, donor atom, acceptor molecule, acceptor atom, score
      L1  H     9    42       P1  8028  0.95

> <Gold.Chemscore.Hbond.Weighted>
-3.2464

> <Gold.Chemscore.Metal.Weighted>
-0.0000

> <Gold.Chemscore.Lipo.Weighted>
-12.1599

> <Gold.Chemscore.Internal_Hbond.Weighted>
0.0000

> <Gold.Chemscore.DEClash.Weighted>
0.0838

> <Gold.Chemscore.DEInternal.Weighted>
0.8163

> <Gold.Chemscore.Rot.Weighted>
5.4003

> <Gold.Chemscore.Internal.Correction.Weighted>
   9.000000E+99

> <Gold.Protein.RotatedTorsions>
[ 6907 6896 6895 6894 ] final  110.60 input  -60.11 | X-H torsion
[ 7974 7965 7964 7962 ] final  -73.93 input  175.53 | X-H torsion
[ 8008 7997 7996 7995 ] final   76.91 input   59.86 | X-H torsion
[ 10167 10162 10161 10158 ] final  -84.90 input  -65.29 | X-H torsion
[ 10718 10713 10712 10709 ] final  -82.76 input   66.30 | X-H torsion
[ 10763 10752 10751 10750 ] final   80.60 input  -60.55 | X-H torsion
[ 11005 11000 10999 10996 ] final   96.88 input  -57.11 | X-H torsion

> <Gold.Protein.ActiveResidues>
 VAL166  LYS551  ARG553  GLY616  TRP617  ASP618  TYR619  PRO620  LYS621  CYS622 
 ASP623  PHE694  ASN695  SER759  ASP760  ASP761  ALA762  ILE779  LEU786  VAL792 
 PHE793  MET794  SER795  GLU796  ALA797  LYS798  CYS799  TRP800  GLU811  SER814 

> <Gold.Protein.RotatedAtoms>
  152.5012  133.8778  159.7330 H   0  0  0  0  0  0  0  0  0  0  0  0  # atno 6907 bound_to 6896
  150.9248  133.6828  159.2830 H   0  0  0  0  0  0  0  0  0  0  0  0  # atno 6908 bound_to 6896
  151.4193  135.1000  159.9661 H   0  0  0  0  0  0  0  0  0  0  0  0  # atno 6909 bound_to 6896
  145.6457  140.9297  143.1011 H   0  0  0  0  0  0  0  0  0  0  0  0  # atno 7974 bound_to 7965
  155.8341  140.3465  155.5590 H   0  0  0  0  0  0  0  0  0  0  0  0  # atno 8008 bound_to 7997
  155.8211  140.0913  157.1868 H   0  0  0  0  0  0  0  0  0  0  0  0  # atno 8009 bound_to 7997
  154.4004  140.1430  156.3488 H   0  0  0  0  0  0  0  0  0  0  0  0  # atno 8010 bound_to 7997
  140.4088  143.2631  151.9045 H   0  0  0  0  0  0  0  0  0  0  0  0  # atno 10167 bound_to 10162
  156.0028  130.4644  150.4153 H   0  0  0  0  0  0  0  0  0  0  0  0  # atno 10718 bound_to 10713
  153.1047  135.4796  154.8929 H   0  0  0  0  0  0  0  0  0  0  0  0  # atno 10763 bound_to 10752
  154.7417  135.3084  154.8719 H   0  0  0  0  0  0  0  0  0  0  0  0  # atno 10764 bound_to 10752
  153.9326  135.6843  153.4798 H   0  0  0  0  0  0  0  0  0  0  0  0  # atno 10765 bound_to 10752
  139.8779  134.8973  156.4224 H   0  0  0  0  0  0  0  0  0  0  0  0  # atno 11005 bound_to 11000
  144.7141  139.8262  143.7405 LP  0  0  0  0  0  0  0  0  0  0  0  0  # atno 17320 bound_to 7965
  146.1244  139.4268  143.0208 LP  0  0  0  0  0  0  0  0  0  0  0  0  # atno 17321 bound_to 7965
  139.4783  144.5558  151.8316 LP  0  0  0  0  0  0  0  0  0  0  0  0  # atno 17342 bound_to 10162
  140.4660  144.1655  150.5912 LP  0  0  0  0  0  0  0  0  0  0  0  0  # atno 17343 bound_to 10162
  157.2213  131.0483  151.2545 LP  0  0  0  0  0  0  0  0  0  0  0  0  # atno 17370 bound_to 10713
  157.3797  130.7225  149.6622 LP  0  0  0  0  0  0  0  0  0  0  0  0  # atno 17371 bound_to 10713
  140.9124  133.7702  155.9808 LP  0  0  0  0  0  0  0  0  0  0  0  0  # atno 17394 bound_to 11000
  140.8531  134.2930  157.5267 LP  0  0  0  0  0  0  0  0  0  0  0  0  # atno 17395 bound_to 11000

$$$$
