AV-unprocessed.smi:3336|AV-procd|sdf|12853|dock9
  -GOLD-   2272019243D 1   1.00000     0.00000
 Structure written by MMmdl.
 42 43  0  0  0  0  0  0  0  0  2 V2000
  147.2752  134.6028  154.3378 C   0  0  0  0  0  0  0  0  0  0  0  0
  146.4073  134.5131  153.0715 C   0  0  2  0  0  0  0  0  0  0  0  0
  146.7872  133.3067  152.1821 C   0  0  0  0  0  0  0  0  0  0  0  0
  145.7417  132.9437  151.2431 N   0  0  0  0  0  0  0  0  0  0  0  0
  145.8675  132.3618  149.9988 C   0  0  0  0  0  0  0  0  0  0  0  0
  144.6090  132.2198  149.4890 C   0  0  0  0  0  0  0  0  0  0  0  0
  143.7694  132.7577  150.5042 C   0  0  0  0  0  0  0  0  0  0  0  0
  144.4509  133.1932  151.5517 N   0  0  0  0  0  0  0  0  0  0  0  0
  146.5188  135.7825  152.3140 N   0  3  0  0  0  0  0  0  0  0  0  0
  145.7778  136.9455  152.8636 C   0  0  2  0  0  0  0  0  0  0  0  0
  144.3246  136.8934  152.3629 C   0  0  0  0  0  0  0  0  0  0  0  0
  146.4332  138.2849  152.4602 C   0  0  0  0  0  0  0  0  0  0  0  0
  146.6993  138.4613  151.2697 O   0  0  0  0  0  0  0  0  0  0  0  0
  146.6948  139.2291  153.3991 N   0  0  0  0  0  0  0  0  0  0  0  0
  146.3719  139.0478  154.8189 C   0  0  0  0  0  0  0  0  0  0  0  0
  147.6797  139.0641  155.6294 C   0  0  0  0  0  0  0  0  0  0  0  0
  148.3628  140.2936  155.4048 O   0  0  0  0  0  0  0  0  0  0  0  0
  148.6755  140.5126  154.0325 C   0  0  0  0  0  0  0  0  0  0  0  0
  147.3834  140.5094  153.1946 C   0  0  0  0  0  0  0  0  0  0  0  0
  147.1429  133.7305  154.9785 H   0  0  0  0  0  0  0  0  0  0  0  0
  147.0111  135.4788  154.9316 H   0  0  0  0  0  0  0  0  0  0  0  0
  148.3347  134.6761  154.0896 H   0  0  0  0  0  0  0  0  0  0  0  0
  145.3740  134.3969  153.4012 H   0  0  0  0  0  0  0  0  0  0  0  0
  147.6909  133.5101  151.6076 H   0  0  0  0  0  0  0  0  0  0  0  0
  147.0054  132.4375  152.8038 H   0  0  0  0  0  0  0  0  0  0  0  0
  146.8297  132.0974  149.5851 H   0  0  0  0  0  0  0  0  0  0  0  0
  144.3304  131.7981  148.5346 H   0  0  0  0  0  0  0  0  0  0  0  0
  142.6929  132.8451  150.5104 H   0  0  0  0  0  0  0  0  0  0  0  0
  147.4940  136.0447  152.2802 H   0  0  0  0  0  0  0  0  0  0  0  0
  145.7806  136.8398  153.9463 H   0  0  0  0  0  0  0  0  0  0  0  0
  143.7269  137.7120  152.7635 H   0  0  0  0  0  0  0  0  0  0  0  0
  143.8415  135.9640  152.6654 H   0  0  0  0  0  0  0  0  0  0  0  0
  144.2751  136.9519  151.2747 H   0  0  0  0  0  0  0  0  0  0  0  0
  145.7182  139.8580  155.1461 H   0  0  0  0  0  0  0  0  0  0  0  0
  145.8286  138.1243  155.0218 H   0  0  0  0  0  0  0  0  0  0  0  0
  147.4657  138.9693  156.6939 H   0  0  0  0  0  0  0  0  0  0  0  0
  148.3197  138.2240  155.3547 H   0  0  0  0  0  0  0  0  0  0  0  0
  149.1847  141.4715  153.9364 H   0  0  0  0  0  0  0  0  0  0  0  0
  149.3689  139.7463  153.6825 H   0  0  0  0  0  0  0  0  0  0  0  0
  147.6387  140.7221  152.1596 H   0  0  0  0  0  0  0  0  0  0  0  0
  146.7288  141.3218  153.5139 H   0  0  0  0  0  0  0  0  0  0  0  0
  146.2025  135.6091  151.3709 H   0  0  0  0  0  0  0  0  0  0  0  0
  1  2  1  0  0  0  0
  1 20  1  0  0  0  0
  1 21  1  0  0  0  0
  1 22  1  0  0  0  0
  2  3  1  0  0  0  0
  2  9  1  0  0  0  0
  2 23  1  0  0  0  0
  3  4  1  0  0  0  0
  3 24  1  0  0  0  0
  3 25  1  0  0  0  0
  4  8  1  0  0  0  0
  4  5  1  0  0  0  0
  5  6  2  0  0  0  0
  5 26  1  0  0  0  0
  6  7  1  0  0  0  0
  6 27  1  0  0  0  0
  7  8  2  0  0  0  0
  7 28  1  0  0  0  0
  9 10  1  0  0  0  0
  9 29  1  0  0  0  0
  9 42  1  0  0  0  0
 10 11  1  0  0  0  0
 10 12  1  0  0  0  0
 10 30  1  0  0  0  0
 11 31  1  0  0  0  0
 11 32  1  0  0  0  0
 11 33  1  0  0  0  0
 12 13  2  0  0  0  0
 12 14  1  0  0  0  0
 14 19  1  0  0  0  0
 14 15  1  0  0  0  0
 15 16  1  0  0  0  0
 15 34  1  0  0  0  0
 15 35  1  0  0  0  0
 16 17  1  0  0  0  0
 16 36  1  0  0  0  0
 16 37  1  0  0  0  0
 17 18  1  0  0  0  0
 18 19  1  0  0  0  0
 18 38  1  0  0  0  0
 18 39  1  0  0  0  0
 19 40  1  0  0  0  0
 19 41  1  0  0  0  0
M  CHG  1   9   1
M  END
> <s_m_source_file>
AV-unprocessed.smi

> <i_m_source_file_index>
3336

> <i_lp_mmshare_version>
43012

> <i_f3d_flags>
0

> <s_epik_input>
bjFbY0hdW2NIXVtjSF1uMVtDSDJdW0NAQEhdKFtDSDNdKVtOSF1bQ0BIXShbQ0gzXSlDKD1PKU4yW0NIMl1bQ0gyXU9bQ0gyXVtDSDJdMg==

> <s_epik_cmdline>
J2VwaWtfcHl0aG9uJywgJy1waCcsICc3LjAnLCAnLXRuJywgJzgnLCAnLW1hJywgJzIwMCcsICctbWV0YWxfYmluZGluZycsICctaW1hZScsICc8aW5maWxlLm1hZT4nLCAnLW9tYWUnLCAnPG91dGZpbGUubWFlPic=

> <r_lp_tautomer_probability>
1

> <r_epik_Ionization_Penalty>
0.200288

> <r_epik_Ionization_Penalty_Charging>
0.200285

> <r_epik_Ionization_Penalty_Neutral>
3.37705e-06

> <r_epik_State_Penalty>
0.190126

> <r_epik_Charging_Adjusted_Penalty>
0.39041

> <i_epik_Tot_Q>
1

> <i_epik_Tot_abs_Q>
1

> <r_epik_Metal_State_Penalty>
0.190133

> <b_epik_Metal_Only>
0

> <s_lp_Force_Field>
OPLS_2005

> <r_lp_Energy>
27.4401

> <b_lp_Chiralities_Consistent>
1

> <s_lp_Variant>
AV-unprocessed.smi:3336-1

> <Gold.Version>
5.8.1

> <Gold.Id.Protein>
6NUR|6NUR_protein|mol2

> <Gold.PLP.Fitness>
42.0817

> <Gold.PLP.PLP>
-29.3810

> <Gold.PLP.part.hbond>
-1.9104

> <Gold.PLP.part.metal>
0.0000

> <Gold.PLP.part.buried>
-1.1980

> <Gold.PLP.part.nonpolar>
-27.8562

> <Gold.PLP.part.repulsive>
0.5551

> <Gold.PLP.ligand.clash>
0.0000

> <Gold.PLP.ligand.torsion>
1.1812

> <Gold.PLP.Chemscore.Hbond>
3.0000

> <Gold.PLP.Chemscore.CHOScore>
2.0000

> <Gold.PLP.Chemscore.Metal>
0.0000

> <Gold.Chemscore.Hbonds>
donor molecule, donor type, donor heavy atom, donor atom, acceptor molecule, acceptor atom, score
      L1  H     9    29       P1  7948  1.92
      P1  H  7954  7966       L1    13  0.84
      L1  C     5    26       P1 10747  0.94
      L1  C     7    28       P1 10186  1.00

> <Gold.PLP.Chemscore.Internal.Correction>
0.0632

> <Gold.Rescore>
     Score         DG    S(hbond)    S(metal)    S(lipo)     H(rot)  DE(clash)    DE(int)     intcor
     13.39     -15.25       1.91        0.00      69.52       1.85       0.74       1.12       ----

> <Gold.Chemscore.Fitness>
13.3935

> <Gold.Chemscore.DG>
-15.2543

> <Gold.Chemscore.ZeroCoef>
-5.4800

> <Gold.Chemscore.Hbond>
1.9123

> <Gold.Chemscore.Metal>
0.0000

> <Gold.Chemscore.Lipo>
69.5199

> <Gold.Chemscore.Internal_Hbond>
0.0000

> <Gold.Chemscore.DEClash>
0.7384

> <Gold.Chemscore.DEInternal>
1.1224

> <Gold.Chemscore.Rot>
1.8541

> <Gold.Chemscore.Internal.Correction>
   9.000000E+99

> <Gold.Chemscore.Hbonds>
donor molecule, donor type, donor heavy atom, donor atom, acceptor molecule, acceptor atom, score
      L1  H     9    29       P1  7948  0.91
      P1  H  7954  7966       L1    13  0.81

> <Gold.Chemscore.Hbond.Weighted>
-6.3870

> <Gold.Chemscore.Metal.Weighted>
-0.0000

> <Gold.Chemscore.Lipo.Weighted>
-8.1338

> <Gold.Chemscore.Internal_Hbond.Weighted>
0.0000

> <Gold.Chemscore.DEClash.Weighted>
0.7384

> <Gold.Chemscore.DEInternal.Weighted>
1.1224

> <Gold.Chemscore.Rot.Weighted>
4.7465

> <Gold.Chemscore.Internal.Correction.Weighted>
   9.000000E+99

> <Gold.Protein.RotatedTorsions>
[ 6907 6896 6895 6894 ] final  159.28 input  -60.11 | X-H torsion
[ 7974 7965 7964 7962 ] final  146.65 input  175.53 | X-H torsion
[ 8008 7997 7996 7995 ] final -131.72 input   59.86 | X-H torsion
[ 10167 10162 10161 10158 ] final   20.37 input  -65.29 | X-H torsion
[ 10718 10713 10712 10709 ] final -144.17 input   66.30 | X-H torsion
[ 10763 10752 10751 10750 ] final  119.46 input  -60.55 | X-H torsion
[ 11005 11000 10999 10996 ] final   24.91 input  -57.11 | X-H torsion

> <Gold.Protein.ActiveResidues>
 VAL166  LYS551  ARG553  GLY616  TRP617  ASP618  TYR619  PRO620  LYS621  CYS622 
 ASP623  PHE694  ASN695  SER759  ASP760  ASP761  ALA762  ILE779  LEU786  VAL792 
 PHE793  MET794  SER795  GLU796  ALA797  LYS798  CYS799  TRP800  GLU811  SER814 

> <Gold.Protein.RotatedAtoms>
  151.9879  133.3780  159.4132 H   0  0  0  0  0  0  0  0  0  0  0  0  # atno 6907 bound_to 6896
  150.6925  134.3968  159.5110 H   0  0  0  0  0  0  0  0  0  0  0  0  # atno 6908 bound_to 6896
  152.1697  134.8844  160.0586 H   0  0  0  0  0  0  0  0  0  0  0  0  # atno 6909 bound_to 6896
  144.8654  139.5931  143.5911 H   0  0  0  0  0  0  0  0  0  0  0  0  # atno 7974 bound_to 7965
  155.3170  140.0460  157.3037 H   0  0  0  0  0  0  0  0  0  0  0  0  # atno 8008 bound_to 7997
  154.5401  140.2285  155.8622 H   0  0  0  0  0  0  0  0  0  0  0  0  # atno 8009 bound_to 7997
  156.1872  140.3059  155.9269 H   0  0  0  0  0  0  0  0  0  0  0  0  # atno 8010 bound_to 7997
  140.5508  143.9512  150.6577 H   0  0  0  0  0  0  0  0  0  0  0  0  # atno 10167 bound_to 10162
  156.3668  130.7767  151.1942 H   0  0  0  0  0  0  0  0  0  0  0  0  # atno 10718 bound_to 10713
  153.5834  135.3479  155.2883 H   0  0  0  0  0  0  0  0  0  0  0  0  # atno 10763 bound_to 10752
  154.8664  135.4187  154.2595 H   0  0  0  0  0  0  0  0  0  0  0  0  # atno 10764 bound_to 10752
  153.3386  135.7048  153.6956 H   0  0  0  0  0  0  0  0  0  0  0  0  # atno 10765 bound_to 10752
  140.3536  134.2202  155.7678 H   0  0  0  0  0  0  0  0  0  0  0  0  # atno 11005 bound_to 11000
  146.2892  139.7090  142.9173 LP  0  0  0  0  0  0  0  0  0  0  0  0  # atno 17320 bound_to 7965
  145.4231  141.0408  143.2952 LP  0  0  0  0  0  0  0  0  0  0  0  0  # atno 17321 bound_to 7965
  140.2937  143.3307  152.1038 LP  0  0  0  0  0  0  0  0  0  0  0  0  # atno 17342 bound_to 10162
  139.5027  144.6739  151.6175 LP  0  0  0  0  0  0  0  0  0  0  0  0  # atno 17343 bound_to 10162
  157.7479  131.0384  150.4500 LP  0  0  0  0  0  0  0  0  0  0  0  0  # atno 17370 bound_to 10713
  156.4721  130.4055  149.6512 LP  0  0  0  0  0  0  0  0  0  0  0  0  # atno 17371 bound_to 10713
  141.2005  133.7986  157.0486 LP  0  0  0  0  0  0  0  0  0  0  0  0  # atno 17394 bound_to 11000
  140.0683  134.9716  157.1424 LP  0  0  0  0  0  0  0  0  0  0  0  0  # atno 17395 bound_to 11000

$$$$
