AV-unprocessed.smi:1047|AV-procd|sdf|4567|dock9
  -GOLD-   22720 3 13D 1   1.00000     0.00000
 Structure written by MMmdl.
 57 59  0  0  0  0  0  0  0  0  3 V2000
  144.0889  135.6795  151.2441 C   0  0  0  0  0  0  0  0  0  0  0  0
  145.6084  135.5983  151.0384 C   0  0  0  0  0  0  0  0  0  0  0  0
  146.3608  136.4523  151.9916 N   0  3  2  0  0  0  0  0  0  0  0  0
  146.0464  136.1307  153.4042 C   0  0  0  0  0  0  0  0  0  0  0  0
  146.8939  136.9915  154.3560 C   0  0  0  0  0  0  0  0  0  0  0  0
  146.6713  138.3699  154.0835 O   0  0  0  0  0  0  0  0  0  0  0  0
  147.0370  138.7223  152.7537 C   0  0  2  0  0  0  0  0  0  0  0  0
  146.8952  140.2451  152.5846 C   0  0  0  0  0  0  0  0  0  0  0  0
  148.1019  140.9724  153.0312 N   0  3  0  0  0  0  0  0  0  0  0  0
  148.1875  141.1583  154.4939 C   0  0  0  0  0  0  0  0  0  0  0  0
  149.5191  140.6229  155.0444 C   0  0  1  0  0  0  0  0  0  0  0  0
  150.3273  140.2106  153.9581 O   0  0  0  0  0  0  0  0  0  0  0  0
  150.2699  141.6824  155.8743 C   0  0  0  0  0  0  0  0  0  0  0  0
  151.2245  141.0912  156.7950 N   0  0  0  0  0  0  0  0  0  0  0  0
  151.8997  139.9372  156.6309 C   0  0  0  0  0  0  0  0  0  0  0  0
  152.7366  139.5782  157.5997 N   0  0  0  0  0  0  0  0  0  0  0  0
  152.5845  140.6190  158.4998 C   0  0  0  0  0  0  0  0  0  0  0  0
  153.1992  140.8461  159.7504 C   0  0  0  0  0  0  0  0  0  0  0  0
  152.8874  141.9937  160.5138 C   0  0  0  0  0  0  0  0  0  0  0  0
  153.5709  142.1959  161.8548 C   0  0  0  0  0  0  0  0  0  0  0  0
  151.9453  142.9357  160.0279 C   0  0  0  0  0  0  0  0  0  0  0  0
  151.5882  144.1717  160.8340 C   0  0  0  0  0  0  0  0  0  0  0  0
  151.3251  142.7265  158.7783 C   0  0  0  0  0  0  0  0  0  0  0  0
  151.6435  141.5805  158.0280 C   0  0  0  0  0  0  0  0  0  0  0  0
  146.1984  137.9072  151.7459 C   0  0  0  0  0  0  0  0  0  0  0  0
  143.5671  135.1256  150.4631 H   0  0  0  0  0  0  0  0  0  0  0  0
  143.7392  136.7116  151.2047 H   0  0  0  0  0  0  0  0  0  0  0  0
  143.7811  135.2541  152.1988 H   0  0  0  0  0  0  0  0  0  0  0  0
  145.9506  134.5647  151.1081 H   0  0  0  0  0  0  0  0  0  0  0  0
  145.8253  135.9279  150.0214 H   0  0  0  0  0  0  0  0  0  0  0  0
  144.9847  136.2996  153.5916 H   0  0  0  0  0  0  0  0  0  0  0  0
  146.2415  135.0750  153.5971 H   0  0  0  0  0  0  0  0  0  0  0  0
  146.6192  136.7879  155.3913 H   0  0  0  0  0  0  0  0  0  0  0  0
  147.9543  136.7540  154.2565 H   0  0  0  0  0  0  0  0  0  0  0  0
  148.0905  138.4749  152.6100 H   0  0  0  0  0  0  0  0  0  0  0  0
  146.7105  140.4798  151.5354 H   0  0  0  0  0  0  0  0  0  0  0  0
  146.0305  140.6015  153.1462 H   0  0  0  0  0  0  0  0  0  0  0  0
  148.9219  140.4682  152.7255 H   0  0  0  0  0  0  0  0  0  0  0  0
  148.0674  142.2137  154.7439 H   0  0  0  0  0  0  0  0  0  0  0  0
  147.3564  140.6239  154.9559 H   0  0  0  0  0  0  0  0  0  0  0  0
  149.3260  139.7529  155.6741 H   0  0  0  0  0  0  0  0  0  0  0  0
  149.8130  140.2450  153.1655 H   0  0  0  0  0  0  0  0  0  0  0  0
  150.7977  142.3784  155.2212 H   0  0  0  0  0  0  0  0  0  0  0  0
  149.5631  142.2775  156.4542 H   0  0  0  0  0  0  0  0  0  0  0  0
  151.7721  139.3280  155.7481 H   0  0  0  0  0  0  0  0  0  0  0  0
  153.9149  140.1271  160.1211 H   0  0  0  0  0  0  0  0  0  0  0  0
  152.8417  142.1504  162.6635 H   0  0  0  0  0  0  0  0  0  0  0  0
  154.0691  143.1647  161.8910 H   0  0  0  0  0  0  0  0  0  0  0  0
  154.3233  141.4284  162.0373 H   0  0  0  0  0  0  0  0  0  0  0  0
  150.8087  144.7551  160.3435 H   0  0  0  0  0  0  0  0  0  0  0  0
  152.4612  144.8132  160.9560 H   0  0  0  0  0  0  0  0  0  0  0  0
  151.2224  143.8915  161.8222 H   0  0  0  0  0  0  0  0  0  0  0  0
  150.6080  143.4383  158.3973 H   0  0  0  0  0  0  0  0  0  0  0  0
  146.5138  138.1566  150.7332 H   0  0  0  0  0  0  0  0  0  0  0  0
  145.1421  138.1678  151.8257 H   0  0  0  0  0  0  0  0  0  0  0  0
  148.1061  141.8856  152.5981 H   0  0  0  0  0  0  0  0  0  0  0  0
  147.3387  136.2340  151.8620 H   0  0  0  0  0  0  0  0  0  0  0  0
  1  2  1  0  0  0  0
  1 26  1  0  0  0  0
  1 27  1  0  0  0  0
  1 28  1  0  0  0  0
  2  3  1  0  0  0  0
  2 29  1  0  0  0  0
  2 30  1  0  0  0  0
  3 25  1  0  0  0  0
  3  4  1  0  0  0  0
  3 57  1  0  0  0  0
  4  5  1  0  0  0  0
  4 31  1  0  0  0  0
  4 32  1  0  0  0  0
  5  6  1  0  0  0  0
  5 33  1  0  0  0  0
  5 34  1  0  0  0  0
  6  7  1  0  0  0  0
  7  8  1  0  0  0  0
  7 25  1  0  0  0  0
  7 35  1  0  0  0  0
  8  9  1  0  0  0  0
  8 36  1  0  0  0  0
  8 37  1  0  0  0  0
  9 10  1  0  0  0  0
  9 38  1  0  0  0  0
  9 56  1  0  0  0  0
 10 11  1  0  0  0  0
 10 39  1  0  0  0  0
 10 40  1  0  0  0  0
 11 12  1  0  0  0  0
 11 13  1  0  0  0  0
 11 41  1  0  0  0  0
 12 42  1  0  0  0  0
 13 14  1  0  0  0  0
 13 43  1  0  0  0  0
 13 44  1  0  0  0  0
 14 24  1  0  0  0  0
 14 15  1  0  0  0  0
 15 16  2  0  0  0  0
 15 45  1  0  0  0  0
 16 17  1  0  0  0  0
 17 24  2  0  0  0  0
 17 18  1  0  0  0  0
 18 19  2  0  0  0  0
 18 46  1  0  0  0  0
 19 20  1  0  0  0  0
 19 21  1  0  0  0  0
 20 47  1  0  0  0  0
 20 48  1  0  0  0  0
 20 49  1  0  0  0  0
 21 22  1  0  0  0  0
 21 23  2  0  0  0  0
 22 50  1  0  0  0  0
 22 51  1  0  0  0  0
 22 52  1  0  0  0  0
 23 24  1  0  0  0  0
 23 53  1  0  0  0  0
 25 54  1  0  0  0  0
 25 55  1  0  0  0  0
M  CHG  1   3   1
M  CHG  1   9   1
M  END
> <s_m_source_file>
AV-unprocessed.smi

> <i_m_source_file_index>
1047

> <i_lp_mmshare_version>
43012

> <i_f3d_flags>
0

> <s_epik_input>
W0NIM11bQ0gyXU4xW0NIMl1bQ0gyXU9bQ0BIXShbQ0gyXTEpW0NIMl1bTkhdW0NIMl1bQ0BIXShbT0hdKVtDSDJdbihbY0hdbjIpYyhjMjMpW2NIXWMoW0NIM10pYyhbY0hdMylbQ0gzXQ==

> <s_epik_cmdline>
J2VwaWtfcHl0aG9uJywgJy1waCcsICc3LjAnLCAnLXRuJywgJzgnLCAnLW1hJywgJzIwMCcsICctbWV0YWxfYmluZGluZycsICctaW1hZScsICc8aW5maWxlLm1hZT4nLCAnLW9tYWUnLCAnPG91dGZpbGUubWFlPic=

> <r_epik_Ionization_Penalty>
0.528991

> <r_epik_Ionization_Penalty_Charging>
0.438567

> <r_epik_Ionization_Penalty_Neutral>
0.0904237

> <r_epik_State_Penalty>
0.533036

> <r_epik_Charging_Adjusted_Penalty>
0.971603

> <i_epik_Tot_Q>
2

> <i_epik_Tot_abs_Q>
2

> <r_epik_Metal_State_Penalty>
0.448985

> <b_epik_Metal_Only>
0

> <s_lp_Force_Field>
OPLS_2005

> <r_lp_Energy>
32.051

> <b_lp_Chiralities_Consistent>
1

> <s_lp_Variant>
AV-unprocessed.smi:1047-8

> <Gold.Version>
5.8.1

> <Gold.Id.Protein>
6NUR|6NUR_protein|mol2

> <Gold.PLP.Fitness>
63.5956

> <Gold.PLP.PLP>
-50.8186

> <Gold.PLP.part.hbond>
-4.6949

> <Gold.PLP.part.metal>
0.0000

> <Gold.PLP.part.buried>
-1.0168

> <Gold.PLP.part.nonpolar>
-45.5921

> <Gold.PLP.part.repulsive>
0.3478

> <Gold.PLP.ligand.clash>
0.0000

> <Gold.PLP.ligand.torsion>
2.1190

> <Gold.PLP.Chemscore.Hbond>
5.6160

> <Gold.PLP.Chemscore.CHOScore>
0.0000

> <Gold.PLP.Chemscore.Metal>
0.0000

> <Gold.Chemscore.Hbonds>
donor molecule, donor type, donor heavy atom, donor atom, acceptor molecule, acceptor atom, score
      L1  H     3    57       P1  7948  2.00
      L1  H     9    38       P1  7957  0.69
      L1  H    12    42       P1  7957  1.00
      P1  H  7989  7998       L1    12  0.90
      P1  H  7997  8009       L1    16  1.00

> <Gold.PLP.Chemscore.Internal.Correction>
0.1671

> <Gold.Rescore>
     Score         DG    S(hbond)    S(metal)    S(lipo)     H(rot)  DE(clash)    DE(int)     intcor
     24.53     -27.07       3.81        0.00     134.87       2.70       0.39       2.15       ----

> <Gold.Chemscore.Fitness>
24.5319

> <Gold.Chemscore.DG>
-27.0708

> <Gold.Chemscore.ZeroCoef>
-5.4800

> <Gold.Chemscore.Hbond>
3.8080

> <Gold.Chemscore.Metal>
0.0000

> <Gold.Chemscore.Lipo>
134.8746

> <Gold.Chemscore.Internal_Hbond>
0.0000

> <Gold.Chemscore.DEClash>
0.3925

> <Gold.Chemscore.DEInternal>
2.1463

> <Gold.Chemscore.Rot>
2.6985

> <Gold.Chemscore.Internal.Correction>
   9.000000E+99

> <Gold.Chemscore.Hbonds>
donor molecule, donor type, donor heavy atom, donor atom, acceptor molecule, acceptor atom, score
      L1  H     3    57       P1  7948  0.98
      L1  H     9    38       P1  7957  0.68
      L1  H    12    42       P1  7957  0.90
      P1  H  7989  7998       L1    12  0.21
      P1  H  7997  8009       L1    16  0.08

> <Gold.Chemscore.Hbond.Weighted>
-12.7186

> <Gold.Chemscore.Metal.Weighted>
-0.0000

> <Gold.Chemscore.Lipo.Weighted>
-15.7803

> <Gold.Chemscore.Internal_Hbond.Weighted>
0.0000

> <Gold.Chemscore.DEClash.Weighted>
0.3925

> <Gold.Chemscore.DEInternal.Weighted>
2.1463

> <Gold.Chemscore.Rot.Weighted>
6.9081

> <Gold.Chemscore.Internal.Correction.Weighted>
   9.000000E+99

> <Gold.Protein.RotatedTorsions>
[ 6907 6896 6895 6894 ] final   10.39 input  -60.11 | X-H torsion
[ 7974 7965 7964 7962 ] final  -58.68 input  175.53 | X-H torsion
[ 8008 7997 7996 7995 ] final  169.91 input   59.86 | X-H torsion
[ 10167 10162 10161 10158 ] final -115.55 input  -65.29 | X-H torsion
[ 10718 10713 10712 10709 ] final -155.80 input   66.30 | X-H torsion
[ 10763 10752 10751 10750 ] final  -62.05 input  -60.55 | X-H torsion
[ 11005 11000 10999 10996 ] final    5.02 input  -57.11 | X-H torsion

> <Gold.Protein.ActiveResidues>
 VAL166  LYS551  ARG553  GLY616  TRP617  ASP618  TYR619  PRO620  LYS621  CYS622 
 ASP623  PHE694  ASN695  SER759  ASP760  ASP761  ALA762  ILE779  LEU786  VAL792 
 PHE793  MET794  SER795  GLU796  ALA797  LYS798  CYS799  TRP800  GLU811  SER814 

> <Gold.Protein.RotatedAtoms>
  151.7374  135.0861  160.0309 H   0  0  0  0  0  0  0  0  0  0  0  0  # atno 6907 bound_to 6896
  152.3501  133.6165  159.5947 H   0  0  0  0  0  0  0  0  0  0  0  0  # atno 6908 bound_to 6896
  150.7534  133.9503  159.3525 H   0  0  0  0  0  0  0  0  0  0  0  0  # atno 6909 bound_to 6896
  145.8365  140.8445  143.0056 H   0  0  0  0  0  0  0  0  0  0  0  0  # atno 7974 bound_to 7965
  156.1414  140.1552  156.8915 H   0  0  0  0  0  0  0  0  0  0  0  0  # atno 8008 bound_to 7997
  154.4991  140.0830  156.7797 H   0  0  0  0  0  0  0  0  0  0  0  0  # atno 8009 bound_to 7997
  155.4071  140.3417  155.4263 H   0  0  0  0  0  0  0  0  0  0  0  0  # atno 8010 bound_to 7997
  140.0889  143.4718  152.1882 H   0  0  0  0  0  0  0  0  0  0  0  0  # atno 10167 bound_to 10162
  156.5177  130.8464  151.2670 H   0  0  0  0  0  0  0  0  0  0  0  0  # atno 10718 bound_to 10713
  154.2940  135.6248  153.5397 H   0  0  0  0  0  0  0  0  0  0  0  0  # atno 10763 bound_to 10752
  152.9849  135.5662  154.5358 H   0  0  0  0  0  0  0  0  0  0  0  0  # atno 10764 bound_to 10752
  154.4975  135.2870  155.1424 H   0  0  0  0  0  0  0  0  0  0  0  0  # atno 10765 bound_to 10752
  140.5754  134.0063  155.8025 H   0  0  0  0  0  0  0  0  0  0  0  0  # atno 11005 bound_to 11000
  144.6736  140.0749  143.7471 LP  0  0  0  0  0  0  0  0  0  0  0  0  # atno 17320 bound_to 7965
  145.9513  139.2736  143.1210 LP  0  0  0  0  0  0  0  0  0  0  0  0  # atno 17321 bound_to 7965
  139.5736  144.7476  151.3824 LP  0  0  0  0  0  0  0  0  0  0  0  0  # atno 17342 bound_to 10162
  140.7039  143.7563  150.7449 LP  0  0  0  0  0  0  0  0  0  0  0  0  # atno 17343 bound_to 10162
  157.7441  130.9928  150.2648 LP  0  0  0  0  0  0  0  0  0  0  0  0  # atno 17370 bound_to 10713
  156.3179  130.3781  149.7602 LP  0  0  0  0  0  0  0  0  0  0  0  0  # atno 17371 bound_to 10713
  141.1030  133.9738  157.3046 LP  0  0  0  0  0  0  0  0  0  0  0  0  # atno 17394 bound_to 11000
  139.9342  135.0198  156.8501 LP  0  0  0  0  0  0  0  0  0  0  0  0  # atno 17395 bound_to 11000

$$$$
