AV-unprocessed.smi:1|AV-procd|sdf|7|dock3
  -GOLD-   2262015 93D 1   1.00000     0.00000
 Structure written by MMmdl.
 57 62  0  0  0  0  0  0  0  0  1 V2000
  153.2834  140.0825  157.9083 O   0  0  0  0  0  0  0  0  0  0  0  0
  152.3581  140.8355  157.6026 C   0  0  0  0  0  0  0  0  0  0  0  0
  151.3577  140.4696  156.6157 N   0  0  0  0  0  0  0  0  0  0  0  0
  151.2145  139.2883  155.9710 C   0  0  0  0  0  0  0  0  0  0  0  0
  151.3946  139.1636  154.6293 N   0  0  0  0  0  0  0  0  0  0  0  0
  151.2456  137.9747  154.0379 C   0  0  0  0  0  0  0  0  0  0  0  0
  150.9248  136.8040  154.5917 N   0  0  0  0  0  0  0  0  0  0  0  0
  150.7509  136.9190  155.9397 C   0  0  0  0  0  0  0  0  0  0  0  0
  150.8790  138.1160  156.6970 C   0  0  0  0  0  0  0  0  0  0  0  0
  150.6324  137.8520  158.0386 N   0  0  0  0  0  0  0  0  0  0  0  0
  150.3745  136.5717  158.0669 C   0  0  0  0  0  0  0  0  0  0  0  0
  150.4202  135.9344  156.8471 N   0  0  0  0  0  0  0  0  0  0  0  0
  150.1737  134.4927  156.5599 C   0  0  2  0  0  0  0  0  0  0  0  0
  151.0487  133.7211  157.3183 O   0  0  0  0  0  0  0  0  0  0  0  0
  151.4744  132.5707  156.5848 C   0  0  2  0  0  0  0  0  0  0  0  0
  153.0061  132.6003  156.5008 C   0  0  0  0  0  0  0  0  0  0  0  0
  153.4602  131.4092  155.8767 O   0  0  0  0  0  0  0  0  0  0  0  0
  154.7769  131.2026  155.6687 C   0  0  0  0  0  0  0  0  0  0  0  0
  155.6536  132.0197  155.9579 O   0  0  0  0  0  0  0  0  0  0  0  0
  155.0632  129.8769  155.0489 C   0  0  0  0  0  0  0  0  0  0  0  0
  153.9918  128.9968  154.7692 C   0  0  0  0  0  0  0  0  0  0  0  0
  154.2313  127.7383  154.1837 C   0  0  0  0  0  0  0  0  0  0  0  0
  155.5452  127.3449  153.8697 C   0  0  0  0  0  0  0  0  0  0  0  0
  156.6196  128.2116  154.1421 C   0  0  0  0  0  0  0  0  0  0  0  0
  156.3821  129.4704  154.7278 C   0  0  0  0  0  0  0  0  0  0  0  0
  150.8210  132.6868  155.2016 C   0  0  1  0  0  0  0  0  0  0  0  0
  149.6280  131.9225  155.1505 O   0  0  0  0  0  0  0  0  0  0  0  0
  148.4681  132.8136  154.3418 S   0  0  0  0  0  0  0  0  0  0  0  0
  148.3812  132.3146  152.9612 O   0  0  0  0  0  0  0  0  0  0  0  0
  147.2920  132.9395  155.2161 O   0  0  0  0  0  0  0  0  0  0  0  0
  149.2641  134.2831  154.3167 O   0  0  0  0  0  0  0  0  0  0  0  0
  150.4424  134.1646  155.0938 C   0  0  1  0  0  0  0  0  0  0  0  0
  152.2534  142.2246  158.1613 C   0  0  0  0  0  0  0  0  0  0  0  0
  151.3418  143.1462  157.5988 C   0  0  0  0  0  0  0  0  0  0  0  0
  151.2486  144.4569  158.1061 C   0  0  0  0  0  0  0  0  0  0  0  0
  152.0724  144.8597  159.1740 C   0  0  0  0  0  0  0  0  0  0  0  0
  152.9912  143.9515  159.7330 C   0  0  0  0  0  0  0  0  0  0  0  0
  153.0847  142.6403  159.2273 C   0  0  0  0  0  0  0  0  0  0  0  0
  150.6832  141.1848  156.3853 H   0  0  0  0  0  0  0  0  0  0  0  0
  151.4059  137.9587  152.9697 H   0  0  0  0  0  0  0  0  0  0  0  0
  150.1386  136.0536  158.9853 H   0  0  0  0  0  0  0  0  0  0  0  0
  149.1465  134.3006  156.8732 H   0  0  0  0  0  0  0  0  0  0  0  0
  151.1479  131.6609  157.0902 H   0  0  0  0  0  0  0  0  0  0  0  0
  153.3368  133.4524  155.9064 H   0  0  0  0  0  0  0  0  0  0  0  0
  153.4261  132.7227  157.4993 H   0  0  0  0  0  0  0  0  0  0  0  0
  152.9744  129.2768  155.0019 H   0  0  0  0  0  0  0  0  0  0  0  0
  153.4053  127.0741  153.9762 H   0  0  0  0  0  0  0  0  0  0  0  0
  155.7285  126.3801  153.4203 H   0  0  0  0  0  0  0  0  0  0  0  0
  157.6287  127.9110  153.9019 H   0  0  0  0  0  0  0  0  0  0  0  0
  157.2294  130.1114  154.9224 H   0  0  0  0  0  0  0  0  0  0  0  0
  151.4750  132.3661  154.3898 H   0  0  0  0  0  0  0  0  0  0  0  0
  151.2679  134.7615  154.7043 H   0  0  0  0  0  0  0  0  0  0  0  0
  150.7034  142.8525  156.7777 H   0  0  0  0  0  0  0  0  0  0  0  0
  150.5460  145.1538  157.6737 H   0  0  0  0  0  0  0  0  0  0  0  0
  152.0019  145.8653  159.5616 H   0  0  0  0  0  0  0  0  0  0  0  0
  153.6278  144.2617  160.5484 H   0  0  0  0  0  0  0  0  0  0  0  0
  153.8037  141.9625  159.6642 H   0  0  0  0  0  0  0  0  0  0  0  0
  1  2  2  0  0  0  0
  2  3  1  0  0  0  0
  2 33  1  0  0  0  0
  3  4  1  0  0  0  0
  3 39  1  0  0  0  0
  4  9  1  0  0  0  0
  4  5  2  0  0  0  0
  5  6  1  0  0  0  0
  6  7  2  0  0  0  0
  6 40  1  0  0  0  0
  7  8  1  0  0  0  0
  8 12  1  0  0  0  0
  8  9  2  0  0  0  0
  9 10  1  0  0  0  0
 10 11  2  0  0  0  0
 11 12  1  0  0  0  0
 11 41  1  0  0  0  0
 12 13  1  0  0  0  0
 13 32  1  0  0  0  0
 13 14  1  0  0  0  0
 13 42  1  0  0  0  0
 14 15  1  0  0  0  0
 15 16  1  0  0  0  0
 15 26  1  0  0  0  0
 15 43  1  0  0  0  0
 16 17  1  0  0  0  0
 16 44  1  0  0  0  0
 16 45  1  0  0  0  0
 17 18  1  0  0  0  0
 18 19  2  0  0  0  0
 18 20  1  0  0  0  0
 20 25  1  0  0  0  0
 20 21  2  0  0  0  0
 21 22  1  0  0  0  0
 21 46  1  0  0  0  0
 22 23  2  0  0  0  0
 22 47  1  0  0  0  0
 23 24  1  0  0  0  0
 23 48  1  0  0  0  0
 24 25  2  0  0  0  0
 24 49  1  0  0  0  0
 25 50  1  0  0  0  0
 26 32  1  0  0  0  0
 26 27  1  0  0  0  0
 26 51  1  0  0  0  0
 27 28  1  0  0  0  0
 28 29  2  0  0  0  0
 28 30  2  0  0  0  0
 28 31  1  0  0  0  0
 31 32  1  0  0  0  0
 32 52  1  0  0  0  0
 33 38  1  0  0  0  0
 33 34  2  0  0  0  0
 34 35  1  0  0  0  0
 34 53  1  0  0  0  0
 35 36  2  0  0  0  0
 35 54  1  0  0  0  0
 36 37  1  0  0  0  0
 36 55  1  0  0  0  0
 37 38  2  0  0  0  0
 37 56  1  0  0  0  0
 38 57  1  0  0  0  0
M  END
> <s_m_source_file>
AV-unprocessed.smi

> <i_m_source_file_index>
1

> <i_lp_mmshare_version>
43012

> <i_f3d_flags>
0

> <s_epik_input>
W2NIXTFbY0hdW2NIXVtjSF1bY0hdYzFDKD1PKVtOSF1jKG5bY0hdbjIpYyhjMjMpbltjSF1uM1tDQEBIXShbQ0BIXShbQ0BIXTQ1KU9TKE81KSg9Tyk9TylPW0NASF00W0NIMl1PQyg9TyljNltjSF1bY0hdW2NIXVtjSF1bY0hdNg==

> <s_epik_cmdline>
J2VwaWtfcHl0aG9uJywgJy1waCcsICc3LjAnLCAnLXRuJywgJzgnLCAnLW1hJywgJzIwMCcsICctbWV0YWxfYmluZGluZycsICctaW1hZScsICc8aW5maWxlLm1hZT4nLCAnLW9tYWUnLCAnPG91dGZpbGUubWFlPic=

> <r_lp_tautomer_probability>
1

> <r_epik_Ionization_Penalty>
0.00195722

> <r_epik_Ionization_Penalty_Charging>
0

> <r_epik_Ionization_Penalty_Neutral>
0.00195722

> <r_epik_State_Penalty>
0.00633741

> <r_epik_Charging_Adjusted_Penalty>
0.00633741

> <i_epik_Tot_Q>
0

> <i_epik_Tot_abs_Q>
0

> <r_epik_Metal_State_Penalty>
0.341185

> <b_epik_Metal_Only>
0

> <s_epik_Chemistry_Notes>
This compound has an ester and may undergo hydrolysis at high or low pH. This compound contains an acetal/aminal-like group ( X-CH(R)-Y where X, Y are N, S, or O) that may be acid/base labile, releasing an aldehyde.

> <s_lp_Force_Field>
OPLS_2005

> <r_lp_Energy>
42.4074

> <b_lp_Chiralities_Consistent>
1

> <s_lp_Variant>
AV-unprocessed.smi:1-7

> <Gold.Version>
5.8.1

> <Gold.Id.Protein>
6NUR|6NUR_protein|mol2

> <Gold.PLP.Fitness>
60.4989

> <Gold.PLP.PLP>
-51.5792

> <Gold.PLP.part.hbond>
-2.9155

> <Gold.PLP.part.metal>
0.0000

> <Gold.PLP.part.buried>
-9.4266

> <Gold.PLP.part.nonpolar>
-40.4840

> <Gold.PLP.part.repulsive>
2.7238

> <Gold.PLP.ligand.clash>
0.7378

> <Gold.PLP.ligand.torsion>
0.7280

> <Gold.PLP.Chemscore.Hbond>
2.7173

> <Gold.PLP.Chemscore.CHOScore>
0.9337

> <Gold.PLP.Chemscore.Metal>
0.0000

> <Gold.Chemscore.Hbonds>
donor molecule, donor type, donor heavy atom, donor atom, acceptor molecule, acceptor atom, score
      P1  H  6896  6907       L1    14  0.58
      P1  H  7989  7998       L1     5  0.94
      P1  H  7997  8010       L1     1  0.91
      L1  C     6    40       P1  7949  0.93

> <Gold.PLP.Chemscore.Internal.Correction>
0.1606

> <Gold.Rescore>
     Score         DG    S(hbond)    S(metal)    S(lipo)     H(rot)  DE(clash)    DE(int)     intcor
     17.24     -20.73       1.99        0.00     120.38       2.13       0.27       3.22       ----

> <Gold.Chemscore.Fitness>
17.2447

> <Gold.Chemscore.DG>
-20.7346

> <Gold.Chemscore.ZeroCoef>
-5.4800

> <Gold.Chemscore.Hbond>
1.9853

> <Gold.Chemscore.Metal>
0.0000

> <Gold.Chemscore.Lipo>
120.3835

> <Gold.Chemscore.Internal_Hbond>
0.0000

> <Gold.Chemscore.DEClash>
0.2659

> <Gold.Chemscore.DEInternal>
3.2240

> <Gold.Chemscore.Rot>
2.1333

> <Gold.Chemscore.Internal.Correction>
   9.000000E+99

> <Gold.Chemscore.Hbonds>
donor molecule, donor type, donor heavy atom, donor atom, acceptor molecule, acceptor atom, score
      P1  H  6896  6907       L1    14  0.56
      P1  H  7989  7998       L1     5  0.85
      P1  H  7997  8010       L1     1  0.87

> <Gold.Chemscore.Hbond.Weighted>
-6.6311

> <Gold.Chemscore.Metal.Weighted>
-0.0000

> <Gold.Chemscore.Lipo.Weighted>
-14.0849

> <Gold.Chemscore.Internal_Hbond.Weighted>
0.0000

> <Gold.Chemscore.DEClash.Weighted>
0.2659

> <Gold.Chemscore.DEInternal.Weighted>
3.2240

> <Gold.Chemscore.Rot.Weighted>
5.4614

> <Gold.Chemscore.Internal.Correction.Weighted>
   9.000000E+99

> <Gold.Protein.RotatedTorsions>
[ 6907 6896 6895 6894 ] final -127.40 input  -60.11 | X-H torsion
[ 7974 7965 7964 7962 ] final   45.94 input  175.53 | X-H torsion
[ 8008 7997 7996 7995 ] final   26.35 input   59.86 | X-H torsion
[ 10167 10162 10161 10158 ] final -137.76 input  -65.29 | X-H torsion
[ 10718 10713 10712 10709 ] final   94.96 input   66.30 | X-H torsion
[ 10763 10752 10751 10750 ] final  -29.60 input  -60.55 | X-H torsion
[ 11005 11000 10999 10996 ] final -171.47 input  -57.11 | X-H torsion

> <Gold.Protein.ActiveResidues>
 VAL166  LYS551  ARG553  GLY616  TRP617  ASP618  TYR619  PRO620  LYS621  CYS622 
 ASP623  PHE694  ASN695  SER759  ASP760  ASP761  ALA762  ILE779  LEU786  VAL792 
 PHE793  MET794  SER795  GLU796  ALA797  LYS798  CYS799  TRP800  GLU811  SER814 

> <Gold.Protein.RotatedAtoms>
  150.9069  133.7047  159.2864 H   0  0  0  0  0  0  0  0  0  0  0  0  # atno 6907 bound_to 6896
  151.4547  135.1031  159.9717 H   0  0  0  0  0  0  0  0  0  0  0  0  # atno 6908 bound_to 6896
  152.4908  133.8447  159.7226 H   0  0  0  0  0  0  0  0  0  0  0  0  # atno 6909 bound_to 6896
  146.0434  139.4909  142.9764 H   0  0  0  0  0  0  0  0  0  0  0  0  # atno 7974 bound_to 7965
  155.0259  140.3153  155.4776 H   0  0  0  0  0  0  0  0  0  0  0  0  # atno 8008 bound_to 7997
  156.2883  140.2189  156.5321 H   0  0  0  0  0  0  0  0  0  0  0  0  # atno 8009 bound_to 7997
  154.7412  140.0473  157.0800 H   0  0  0  0  0  0  0  0  0  0  0  0  # atno 8010 bound_to 7997
  139.8546  143.7155  152.2655 H   0  0  0  0  0  0  0  0  0  0  0  0  # atno 10167 bound_to 10162
  157.6943  131.0530  150.4266 H   0  0  0  0  0  0  0  0  0  0  0  0  # atno 10718 bound_to 10713
  153.7673  135.6915  153.4913 H   0  0  0  0  0  0  0  0  0  0  0  0  # atno 10763 bound_to 10752
  153.1898  135.4475  155.0133 H   0  0  0  0  0  0  0  0  0  0  0  0  # atno 10764 bound_to 10752
  154.8131  135.3386  154.7184 H   0  0  0  0  0  0  0  0  0  0  0  0  # atno 10765 bound_to 10752
  140.5078  134.5831  157.5009 H   0  0  0  0  0  0  0  0  0  0  0  0  # atno 11005 bound_to 11000
  145.6846  141.0181  143.1588 LP  0  0  0  0  0  0  0  0  0  0  0  0  # atno 17320 bound_to 7965
  144.7086  139.8461  143.7422 LP  0  0  0  0  0  0  0  0  0  0  0  0  # atno 17321 bound_to 7965
  139.7433  144.7554  151.0619 LP  0  0  0  0  0  0  0  0  0  0  0  0  # atno 17342 bound_to 10162
  140.7783  143.4947  150.9848 LP  0  0  0  0  0  0  0  0  0  0  0  0  # atno 17343 bound_to 10162
  156.4636  130.4037  149.6561 LP  0  0  0  0  0  0  0  0  0  0  0  0  # atno 17370 bound_to 10713
  156.3667  130.7509  151.2488 LP  0  0  0  0  0  0  0  0  0  0  0  0  # atno 17371 bound_to 10713
  139.9676  134.7347  156.0107 LP  0  0  0  0  0  0  0  0  0  0  0  0  # atno 17394 bound_to 11000
  141.1401  133.6566  156.3706 LP  0  0  0  0  0  0  0  0  0  0  0  0  # atno 17395 bound_to 11000

$$$$
