AV-unprocessed.smi:2829|AV-procd|sdf|10898|dock3
  -GOLD-   2272015343D 1   1.00000     0.00000
 Structure written by MMmdl.
 50 53  0  0  0  0  0  0  0  0  1 V2000
  148.2383  128.7300  155.3974 C   0  0  0  0  0  0  0  0  0  0  0  0
  148.9804  129.2778  154.1573 C   0  0  0  0  0  0  0  0  0  0  0  0
  150.4461  128.8038  154.2476 C   0  0  0  0  0  0  0  0  0  0  0  0
  148.3078  128.6702  152.9086 C   0  0  0  0  0  0  0  0  0  0  0  0
  148.9348  130.8144  154.0767 C   0  0  0  0  0  0  0  0  0  0  0  0
  148.2706  131.5154  153.0447 C   0  0  0  0  0  0  0  0  0  0  0  0
  148.3018  132.9195  153.0824 C   0  0  0  0  0  0  0  0  0  0  0  0
  148.9887  133.5481  154.1401 C   0  0  0  0  0  0  0  0  0  0  0  0
  148.9795  134.9667  154.1122 N   0  0  0  0  0  0  0  0  0  0  0  0
  149.4035  135.8226  155.0629 C   0  0  0  0  0  0  0  0  0  0  0  0
  149.8606  135.4895  156.1546 O   0  0  0  0  0  0  0  0  0  0  0  0
  149.2920  137.1175  154.7194 N   0  0  0  0  0  0  0  0  0  0  0  0
  149.6633  138.2880  155.5263 C   0  0  2  0  0  0  0  0  0  0  0  0
  148.8169  139.5370  155.2448 C   0  0  2  0  0  0  0  0  0  0  0  0
  147.4561  139.7949  154.7070 C   0  0  0  0  0  0  0  0  0  0  0  0
  147.8192  141.0422  153.8612 C   0  0  0  0  0  0  0  0  0  0  0  0
  149.2667  141.1306  153.8873 O   0  0  0  0  0  0  0  0  0  0  0  0
  149.7030  139.7917  154.0361 C   0  0  1  0  0  0  0  0  0  0  0  0
  150.8062  139.1535  154.8974 C   0  0  0  0  0  0  0  0  0  0  0  0
  151.7407  140.0097  155.7677 C   0  0  0  0  0  0  0  0  0  0  0  0
  152.8447  138.9813  155.5036 C   0  0  0  0  0  0  0  0  0  0  0  0
  152.0562  138.5159  154.2751 C   0  0  0  0  0  0  0  0  0  0  0  0
  149.6055  132.8121  155.0984 N   0  0  0  0  0  0  0  0  0  0  0  0
  149.5798  131.4765  155.0683 N   0  0  0  0  0  0  0  0  0  0  0  0
  148.2839  127.6410  155.4361 H   0  0  0  0  0  0  0  0  0  0  0  0
  147.1824  129.0037  155.3892 H   0  0  0  0  0  0  0  0  0  0  0  0
  148.6765  129.0998  156.3251 H   0  0  0  0  0  0  0  0  0  0  0  0
  150.9445  129.2246  155.1218 H   0  0  0  0  0  0  0  0  0  0  0  0
  151.0221  129.0963  153.3692 H   0  0  0  0  0  0  0  0  0  0  0  0
  150.5093  127.7177  154.3247 H   0  0  0  0  0  0  0  0  0  0  0  0
  148.3073  127.5803  152.9474 H   0  0  0  0  0  0  0  0  0  0  0  0
  148.8215  128.9577  151.9905 H   0  0  0  0  0  0  0  0  0  0  0  0
  147.2709  128.9964  152.8204 H   0  0  0  0  0  0  0  0  0  0  0  0
  147.7490  131.0190  152.2413 H   0  0  0  0  0  0  0  0  0  0  0  0
  147.8083  133.4974  152.3144 H   0  0  0  0  0  0  0  0  0  0  0  0
  148.6230  135.3832  153.2648 H   0  0  0  0  0  0  0  0  0  0  0  0
  148.9174  137.3132  153.8021 H   0  0  0  0  0  0  0  0  0  0  0  0
  149.8144  138.0770  156.5862 H   0  0  0  0  0  0  0  0  0  0  0  0
  149.0158  140.2525  156.0514 H   0  0  0  0  0  0  0  0  0  0  0  0
  147.0919  138.9744  154.0875 H   0  0  0  0  0  0  0  0  0  0  0  0
  146.7251  140.0109  155.4864 H   0  0  0  0  0  0  0  0  0  0  0  0
  147.4646  140.9314  152.8356 H   0  0  0  0  0  0  0  0  0  0  0  0
  147.3877  141.9549  154.2728 H   0  0  0  0  0  0  0  0  0  0  0  0
  149.4486  139.1884  153.1595 H   0  0  0  0  0  0  0  0  0  0  0  0
  151.9554  140.9828  155.3232 H   0  0  0  0  0  0  0  0  0  0  0  0
  151.4447  140.0991  156.8133 H   0  0  0  0  0  0  0  0  0  0  0  0
  153.8233  139.4086  155.2828 H   0  0  0  0  0  0  0  0  0  0  0  0
  152.9021  138.2174  156.2802 H   0  0  0  0  0  0  0  0  0  0  0  0
  152.0141  137.4337  154.1492 H   0  0  0  0  0  0  0  0  0  0  0  0
  152.3716  139.0168  153.3585 H   0  0  0  0  0  0  0  0  0  0  0  0
  1  2  1  0  0  0  0
  1 25  1  0  0  0  0
  1 26  1  0  0  0  0
  1 27  1  0  0  0  0
  2  3  1  0  0  0  0
  2  4  1  0  0  0  0
  2  5  1  0  0  0  0
  3 28  1  0  0  0  0
  3 29  1  0  0  0  0
  3 30  1  0  0  0  0
  4 31  1  0  0  0  0
  4 32  1  0  0  0  0
  4 33  1  0  0  0  0
  5 24  1  0  0  0  0
  5  6  2  0  0  0  0
  6  7  1  0  0  0  0
  6 34  1  0  0  0  0
  7  8  2  0  0  0  0
  7 35  1  0  0  0  0
  8  9  1  0  0  0  0
  8 23  1  0  0  0  0
  9 10  1  0  0  0  0
  9 36  1  0  0  0  0
 10 11  2  0  0  0  0
 10 12  1  0  0  0  0
 12 13  1  0  0  0  0
 12 37  1  0  0  0  0
 13 19  1  0  0  0  0
 13 14  1  0  0  0  0
 13 38  1  0  0  0  0
 14 18  1  0  0  0  0
 14 15  1  0  0  0  0
 14 39  1  0  0  0  0
 15 16  1  0  0  0  0
 15 40  1  0  0  0  0
 15 41  1  0  0  0  0
 16 17  1  0  0  0  0
 16 42  1  0  0  0  0
 16 43  1  0  0  0  0
 17 18  1  0  0  0  0
 18 19  1  0  0  0  0
 18 44  1  0  0  0  0
 19 22  1  0  0  0  0
 19 20  1  0  0  0  0
 20 21  1  0  0  0  0
 20 45  1  0  0  0  0
 20 46  1  0  0  0  0
 21 22  1  0  0  0  0
 21 47  1  0  0  0  0
 21 48  1  0  0  0  0
 22 49  1  0  0  0  0
 22 50  1  0  0  0  0
 23 24  2  0  0  0  0
M  END
> <s_m_source_file>
AV-unprocessed.smi

> <i_m_source_file_index>
2829

> <i_lp_mmshare_version>
43012

> <i_f3d_flags>
0

> <s_epik_input>
W0NIM11DKFtDSDNdKShbQ0gzXSljMVtjSF1bY0hdYyhubjEpW05IXUMoPU8pW05IXVtDQEBIXTJbQ0BIXShbQ0gyXVtDSDJdTzMpW0NAQEhdM0MyNFtDSDJdW0NIMl1bQ0gyXTQ=

> <s_epik_cmdline>
J2VwaWtfcHl0aG9uJywgJy1waCcsICc3LjAnLCAnLXRuJywgJzgnLCAnLW1hJywgJzIwMCcsICctbWV0YWxfYmluZGluZycsICctaW1hZScsICc8aW5maWxlLm1hZT4nLCAnLW9tYWUnLCAnPG91dGZpbGUubWFlPic=

> <r_lp_tautomer_probability>
1

> <r_epik_Ionization_Penalty>
0.011915

> <r_epik_Ionization_Penalty_Charging>
0

> <r_epik_Ionization_Penalty_Neutral>
0.011915

> <r_epik_State_Penalty>
0.00486223

> <r_epik_Charging_Adjusted_Penalty>
0.00486223

> <i_epik_Tot_Q>
0

> <i_epik_Tot_abs_Q>
0

> <r_epik_Metal_State_Penalty>
-0

> <b_epik_Metal_Only>
0

> <s_lp_Force_Field>
OPLS_2005

> <r_lp_Energy>
85.5181

> <b_lp_Chiralities_Consistent>
1

> <s_lp_Variant>
AV-unprocessed.smi:2829-1

> <Gold.Version>
5.8.1

> <Gold.Id.Protein>
6NUR|6NUR_protein|mol2

> <Gold.PLP.Fitness>
41.0855

> <Gold.PLP.PLP>
-34.3518

> <Gold.PLP.part.hbond>
-4.0000

> <Gold.PLP.part.metal>
0.0000

> <Gold.PLP.part.buried>
3.9026

> <Gold.PLP.part.nonpolar>
-34.0281

> <Gold.PLP.part.repulsive>
1.5673

> <Gold.PLP.ligand.clash>
0.0000

> <Gold.PLP.ligand.torsion>
0.2876

> <Gold.PLP.Chemscore.Hbond>
2.3289

> <Gold.PLP.Chemscore.CHOScore>
0.0000

> <Gold.PLP.Chemscore.Metal>
0.0000

> <Gold.Chemscore.Hbonds>
donor molecule, donor type, donor heavy atom, donor atom, acceptor molecule, acceptor atom, score
      L1  H     9    36       P1  7948  0.93
      L1  H    12    37       P1  7948  0.37
      P1  H  8011  8017       L1    17  0.76

> <Gold.PLP.Chemscore.Internal.Correction>
0.3222

> <Gold.Rescore>
     Score         DG    S(hbond)    S(metal)    S(lipo)     H(rot)  DE(clash)    DE(int)     intcor
     15.75     -17.83       1.60        0.00      85.47       1.16       0.59       1.49       ----

> <Gold.Chemscore.Fitness>
15.7527

> <Gold.Chemscore.DG>
-17.8344

> <Gold.Chemscore.ZeroCoef>
-5.4800

> <Gold.Chemscore.Hbond>
1.5954

> <Gold.Chemscore.Metal>
0.0000

> <Gold.Chemscore.Lipo>
85.4686

> <Gold.Chemscore.Internal_Hbond>
0.0000

> <Gold.Chemscore.DEClash>
0.5941

> <Gold.Chemscore.DEInternal>
1.4877

> <Gold.Chemscore.Rot>
1.1618

> <Gold.Chemscore.Internal.Correction>
   9.000000E+99

> <Gold.Chemscore.Hbonds>
donor molecule, donor type, donor heavy atom, donor atom, acceptor molecule, acceptor atom, score
      L1  H     9    36       P1  7948  0.84
      L1  H    12    37       P1  7948  0.38
      P1  H  8011  8017       L1    17  0.40

> <Gold.Chemscore.Hbond.Weighted>
-5.3287

> <Gold.Chemscore.Metal.Weighted>
-0.0000

> <Gold.Chemscore.Lipo.Weighted>
-9.9998

> <Gold.Chemscore.Internal_Hbond.Weighted>
0.0000

> <Gold.Chemscore.DEClash.Weighted>
0.5941

> <Gold.Chemscore.DEInternal.Weighted>
1.4877

> <Gold.Chemscore.Rot.Weighted>
2.9741

> <Gold.Chemscore.Internal.Correction.Weighted>
   9.000000E+99

> <Gold.Protein.RotatedTorsions>
[ 6907 6896 6895 6894 ] final -145.09 input  -60.11 | X-H torsion
[ 7974 7965 7964 7962 ] final   93.76 input  175.53 | X-H torsion
[ 8008 7997 7996 7995 ] final  157.98 input   59.86 | X-H torsion
[ 10167 10162 10161 10158 ] final  116.94 input  -65.29 | X-H torsion
[ 10718 10713 10712 10709 ] final  -86.90 input   66.30 | X-H torsion
[ 10763 10752 10751 10750 ] final   50.71 input  -60.55 | X-H torsion
[ 11005 11000 10999 10996 ] final   17.24 input  -57.11 | X-H torsion

> <Gold.Protein.ActiveResidues>
 VAL166  LYS551  ARG553  GLY616  TRP617  ASP618  TYR619  PRO620  LYS621  CYS622 
 ASP623  PHE694  ASN695  SER759  ASP760  ASP761  ALA762  ILE779  LEU786  VAL792 
 PHE793  MET794  SER795  GLU796  ALA797  LYS798  CYS799  TRP800  GLU811  SER814 

> <Gold.Protein.RotatedAtoms>
  151.1230  133.5091  159.2601 H   0  0  0  0  0  0  0  0  0  0  0  0  # atno 6907 bound_to 6896
  151.1841  135.0373  159.8815 H   0  0  0  0  0  0  0  0  0  0  0  0  # atno 6908 bound_to 6896
  152.5456  134.1078  159.8399 H   0  0  0  0  0  0  0  0  0  0  0  0  # atno 6909 bound_to 6896
  145.4747  139.2280  143.2916 H   0  0  0  0  0  0  0  0  0  0  0  0  # atno 7974 bound_to 7965
  156.2331  140.1870  156.7191 H   0  0  0  0  0  0  0  0  0  0  0  0  # atno 8008 bound_to 7997
  154.6057  140.0629  156.9455 H   0  0  0  0  0  0  0  0  0  0  0  0  # atno 8009 bound_to 7997
  155.2099  140.3299  155.4333 H   0  0  0  0  0  0  0  0  0  0  0  0  # atno 8010 bound_to 7997
  139.6212  144.7101  151.2629 H   0  0  0  0  0  0  0  0  0  0  0  0  # atno 10167 bound_to 10162
  155.9987  130.4781  150.4786 H   0  0  0  0  0  0  0  0  0  0  0  0  # atno 10718 bound_to 10713
  152.9784  135.5870  154.4297 H   0  0  0  0  0  0  0  0  0  0  0  0  # atno 10763 bound_to 10752
  154.3911  135.2768  155.2156 H   0  0  0  0  0  0  0  0  0  0  0  0  # atno 10764 bound_to 10752
  154.4027  135.6099  153.5961 H   0  0  0  0  0  0  0  0  0  0  0  0  # atno 10765 bound_to 10752
  140.4382  134.1349  155.7687 H   0  0  0  0  0  0  0  0  0  0  0  0  # atno 11005 bound_to 11000
  146.2376  140.5528  142.8948 LP  0  0  0  0  0  0  0  0  0  0  0  0  # atno 17320 bound_to 7965
  144.7924  140.6058  143.6532 LP  0  0  0  0  0  0  0  0  0  0  0  0  # atno 17321 bound_to 7965
  140.7383  143.6651  150.8130 LP  0  0  0  0  0  0  0  0  0  0  0  0  # atno 17342 bound_to 10162
  140.0262  143.5490  152.2779 LP  0  0  0  0  0  0  0  0  0  0  0  0  # atno 17343 bound_to 10162
  157.2793  131.0603  151.2208 LP  0  0  0  0  0  0  0  0  0  0  0  0  # atno 17370 bound_to 10713
  157.3260  130.6961  149.6296 LP  0  0  0  0  0  0  0  0  0  0  0  0  # atno 17371 bound_to 10713
  141.1717  133.8596  157.1550 LP  0  0  0  0  0  0  0  0  0  0  0  0  # atno 17394 bound_to 11000
  140.0088  134.9997  157.0350 LP  0  0  0  0  0  0  0  0  0  0  0  0  # atno 17395 bound_to 11000

$$$$
