AV-unprocessed.smi:705|AV-procd|sdf|3451|dock3
  -GOLD-   22720 0433D 1   1.00000     0.00000
 Structure written by MMmdl.
 28 29  0  0  0  0  0  0  0  0  3 V2000
  152.2625  138.1105  154.8426 N   0  0  0  0  0  0  0  0  0  0  0  0
  151.5451  139.2198  155.0367 C   0  0  0  0  0  0  0  0  0  0  0  0
  150.7127  139.6296  154.2294 O   0  0  0  0  0  0  0  0  0  0  0  0
  151.8186  139.9459  156.3197 C   0  0  0  0  0  0  0  0  0  0  0  0
  151.0477  141.0411  156.7858 C   0  0  0  0  0  0  0  0  0  0  0  0
  151.7693  141.3036  158.0079 C   0  0  0  0  0  0  0  0  0  0  0  0
  151.2939  142.4524  158.8763 C   0  0  1  0  0  0  0  0  0  0  0  0
  152.4676  143.1523  159.5857 C   0  0  0  0  0  0  0  0  0  0  0  0
  151.9603  144.3379  160.4209 C   0  0  0  0  0  0  0  0  0  0  0  0
  151.1256  145.2999  159.5588 C   0  0  0  0  0  0  0  0  0  0  0  0
  150.0094  144.5827  158.9050 N   0  3  0  0  0  0  0  0  0  0  0  0
  150.4637  143.4593  158.0573 C   0  0  0  0  0  0  0  0  0  0  0  0
  152.8025  140.4617  158.1975 N   0  0  0  0  0  0  0  0  0  0  0  0
  152.8240  139.6414  157.1615 N   0  5  0  0  0  0  0  0  0  0  0  0
  152.1404  137.5630  154.0044 H   0  0  0  0  0  0  0  0  0  0  0  0
  152.9278  137.8342  155.5513 H   0  0  0  0  0  0  0  0  0  0  0  0
  150.1841  141.5300  156.3521 H   0  0  0  0  0  0  0  0  0  0  0  0
  150.6428  142.0368  159.6475 H   0  0  0  0  0  0  0  0  0  0  0  0
  153.0007  142.4460  160.2231 H   0  0  0  0  0  0  0  0  0  0  0  0
  153.1867  143.5101  158.8473 H   0  0  0  0  0  0  0  0  0  0  0  0
  151.3555  143.9687  161.2503 H   0  0  0  0  0  0  0  0  0  0  0  0
  152.8030  144.8690  160.8646 H   0  0  0  0  0  0  0  0  0  0  0  0
  150.7213  146.1047  160.1732 H   0  0  0  0  0  0  0  0  0  0  0  0
  151.7505  145.7644  158.7946 H   0  0  0  0  0  0  0  0  0  0  0  0
  149.3987  144.2158  159.6208 H   0  0  0  0  0  0  0  0  0  0  0  0
  151.0519  143.8558  157.2282 H   0  0  0  0  0  0  0  0  0  0  0  0
  149.5918  142.9690  157.6231 H   0  0  0  0  0  0  0  0  0  0  0  0
  149.4895  145.2332  158.3333 H   0  0  0  0  0  0  0  0  0  0  0  0
  1  2  1  0  0  0  0
  1 15  1  0  0  0  0
  1 16  1  0  0  0  0
  2  3  2  0  0  0  0
  2  4  1  0  0  0  0
  4 14  1  0  0  0  0
  4  5  2  0  0  0  0
  5  6  1  0  0  0  0
  5 17  1  0  0  0  0
  6  7  1  0  0  0  0
  6 13  2  0  0  0  0
  7 12  1  0  0  0  0
  7  8  1  0  0  0  0
  7 18  1  0  0  0  0
  8  9  1  0  0  0  0
  8 19  1  0  0  0  0
  8 20  1  0  0  0  0
  9 10  1  0  0  0  0
  9 21  1  0  0  0  0
  9 22  1  0  0  0  0
 10 11  1  0  0  0  0
 10 23  1  0  0  0  0
 10 24  1  0  0  0  0
 11 12  1  0  0  0  0
 11 25  1  0  0  0  0
 11 28  1  0  0  0  0
 12 26  1  0  0  0  0
 12 27  1  0  0  0  0
 13 14  1  0  0  0  0
M  CHG  1  11   1
M  CHG  1  14  -1
M  END
> <s_m_source_file>
AV-unprocessed.smi

> <i_m_source_file_index>
705

> <i_lp_mmshare_version>
43012

> <i_f3d_flags>
0

> <s_epik_input>
W05IMl1DKD1PKWMxW2NIXWMoW25IXW4xKVtDQEBIXTJbQ0gyXVtDSDJdW0NIMl1bTkhdW0NIMl0y

> <s_epik_cmdline>
J2VwaWtfcHl0aG9uJywgJy1waCcsICc3LjAnLCAnLXRuJywgJzgnLCAnLW1hJywgJzIwMCcsICctbWV0YWxfYmluZGluZycsICctaW1hZScsICc8aW5maWxlLm1hZT4nLCAnLW9tYWUnLCAnPG91dGZpbGUubWFlPic=

> <r_lp_tautomer_probability>
0.5

> <r_epik_Ionization_Penalty>
8.1602

> <r_epik_Ionization_Penalty_Charging>
5.25561

> <r_epik_Ionization_Penalty_Neutral>
2.90459

> <r_epik_State_Penalty>
5.66605

> <r_epik_Charging_Adjusted_Penalty>
10.9217

> <i_epik_Tot_Q>
0

> <i_epik_Tot_abs_Q>
2

> <r_epik_Metal_State_Penalty>
1.68656

> <b_epik_Metal_Only>
1

> <s_lp_Force_Field>
OPLS_2005

> <r_lp_Energy>
5.1844

> <b_lp_Chiralities_Consistent>
1

> <s_lp_Variant>
AV-unprocessed.smi:705-6

> <Gold.Version>
5.8.1

> <Gold.Id.Protein>
6NUR|6NUR_protein|mol2

> <Gold.PLP.Fitness>
42.5081

> <Gold.PLP.PLP>
-28.8893

> <Gold.PLP.part.hbond>
-4.0000

> <Gold.PLP.part.metal>
0.0000

> <Gold.PLP.part.buried>
-2.2350

> <Gold.PLP.part.nonpolar>
-23.0256

> <Gold.PLP.part.repulsive>
0.5083

> <Gold.PLP.ligand.clash>
0.0000

> <Gold.PLP.ligand.torsion>
0.7011

> <Gold.PLP.Chemscore.Hbond>
5.0000

> <Gold.PLP.Chemscore.CHOScore>
0.0000

> <Gold.PLP.Chemscore.Metal>
0.0000

> <Gold.Chemscore.Hbonds>
donor molecule, donor type, donor heavy atom, donor atom, acceptor molecule, acceptor atom, score
      L1  H    11    28       P1  8029  2.00
      P1  H  7989  7998       L1     3  1.00
      P1  H  7997  8010       L1    14  2.00

> <Gold.PLP.Chemscore.Internal.Correction>
0.0211

> <Gold.Rescore>
     Score         DG    S(hbond)    S(metal)    S(lipo)     H(rot)  DE(clash)    DE(int)     intcor
     17.98     -18.90       2.47        0.00      66.07       1.00       0.04       0.88       ----

> <Gold.Chemscore.Fitness>
17.9774

> <Gold.Chemscore.DG>
-18.8976

> <Gold.Chemscore.ZeroCoef>
-5.4800

> <Gold.Chemscore.Hbond>
2.4693

> <Gold.Chemscore.Metal>
0.0000

> <Gold.Chemscore.Lipo>
66.0700

> <Gold.Chemscore.Internal_Hbond>
0.0000

> <Gold.Chemscore.DEClash>
0.0444

> <Gold.Chemscore.DEInternal>
0.8757

> <Gold.Chemscore.Rot>
1.0000

> <Gold.Chemscore.Internal.Correction>
   9.000000E+99

> <Gold.Chemscore.Hbonds>
donor molecule, donor type, donor heavy atom, donor atom, acceptor molecule, acceptor atom, score
      L1  H    11    28       P1  8029  0.56
      P1  H  7989  7998       L1     3  0.26
      P1  H  7997  8010       L1    14  0.17

> <Gold.Chemscore.Hbond.Weighted>
-8.2474

> <Gold.Chemscore.Metal.Weighted>
-0.0000

> <Gold.Chemscore.Lipo.Weighted>
-7.7302

> <Gold.Chemscore.Internal_Hbond.Weighted>
0.0000

> <Gold.Chemscore.DEClash.Weighted>
0.0444

> <Gold.Chemscore.DEInternal.Weighted>
0.8757

> <Gold.Chemscore.Rot.Weighted>
2.5600

> <Gold.Chemscore.Internal.Correction.Weighted>
   9.000000E+99

> <Gold.Protein.RotatedTorsions>
[ 6907 6896 6895 6894 ] final  -58.48 input  -60.11 | X-H torsion
[ 7974 7965 7964 7962 ] final   34.56 input  175.53 | X-H torsion
[ 8008 7997 7996 7995 ] final   73.67 input   59.86 | X-H torsion
[ 10167 10162 10161 10158 ] final  -61.64 input  -65.29 | X-H torsion
[ 10718 10713 10712 10709 ] final  -17.30 input   66.30 | X-H torsion
[ 10763 10752 10751 10750 ] final  173.26 input  -60.55 | X-H torsion
[ 11005 11000 10999 10996 ] final   69.60 input  -57.11 | X-H torsion

> <Gold.Protein.ActiveResidues>
 VAL166  LYS551  ARG553  GLY616  TRP617  ASP618  TYR619  PRO620  LYS621  CYS622 
 ASP623  PHE694  ASN695  SER759  ASP760  ASP761  ALA762  ILE779  LEU786  VAL792 
 PHE793  MET794  SER795  GLU796  ALA797  LYS798  CYS799  TRP800  GLU811  SER814 

> <Gold.Protein.RotatedAtoms>
  150.8003  134.7092  159.6593 H   0  0  0  0  0  0  0  0  0  0  0  0  # atno 6907 bound_to 6896
  152.4120  134.6105  160.0034 H   0  0  0  0  0  0  0  0  0  0  0  0  # atno 6908 bound_to 6896
  151.6345  133.3293  159.3152 H   0  0  0  0  0  0  0  0  0  0  0  0  # atno 6909 bound_to 6896
  146.1344  139.6254  142.9205 H   0  0  0  0  0  0  0  0  0  0  0  0  # atno 7974 bound_to 7965
  155.7871  140.3480  155.5329 H   0  0  0  0  0  0  0  0  0  0  0  0  # atno 8008 bound_to 7997
  155.8671  140.0980  157.1595 H   0  0  0  0  0  0  0  0  0  0  0  0  # atno 8009 bound_to 7997
  154.4015  140.1347  156.4020 H   0  0  0  0  0  0  0  0  0  0  0  0  # atno 8010 bound_to 7997
  140.5993  143.2357  151.5966 H   0  0  0  0  0  0  0  0  0  0  0  0  # atno 10167 bound_to 10162
  156.5754  130.4760  149.6344 H   0  0  0  0  0  0  0  0  0  0  0  0  # atno 10718 bound_to 10713
  154.4376  135.2761  155.1870 H   0  0  0  0  0  0  0  0  0  0  0  0  # atno 10763 bound_to 10752
  154.3750  135.6100  153.5763 H   0  0  0  0  0  0  0  0  0  0  0  0  # atno 10764 bound_to 10752
  152.9839  135.5866  154.4698 H   0  0  0  0  0  0  0  0  0  0  0  0  # atno 10765 bound_to 10752
  139.9645  134.7005  156.0575 H   0  0  0  0  0  0  0  0  0  0  0  0  # atno 11005 bound_to 11000
  145.5188  141.0433  143.2447 LP  0  0  0  0  0  0  0  0  0  0  0  0  # atno 17320 bound_to 7965
  144.7724  139.6704  143.7189 LP  0  0  0  0  0  0  0  0  0  0  0  0  # atno 17321 bound_to 7965
  139.5279  144.3002  152.1080 LP  0  0  0  0  0  0  0  0  0  0  0  0  # atno 17342 bound_to 10162
  140.2180  144.4495  150.6355 LP  0  0  0  0  0  0  0  0  0  0  0  0  # atno 17343 bound_to 10162
  156.2678  130.6999  151.1787 LP  0  0  0  0  0  0  0  0  0  0  0  0  # atno 17370 bound_to 10713
  157.7339  131.0587  150.5554 LP  0  0  0  0  0  0  0  0  0  0  0  0  # atno 17371 bound_to 10713
  141.1324  133.6583  156.3500 LP  0  0  0  0  0  0  0  0  0  0  0  0  # atno 17394 bound_to 11000
  140.5427  134.6104  157.5385 LP  0  0  0  0  0  0  0  0  0  0  0  0  # atno 17395 bound_to 11000

$$$$
