AV-unprocessed.smi:3301|AV-procd|sdf|12653|dock7
  -GOLD-   2272018593D 1   1.00000     0.00000
 Structure written by MMmdl.
 37 38  0  0  0  0  0  0  0  0  2 V2000
  147.8173  141.4180  157.0529 C   0  0  0  0  0  0  0  0  0  0  0  0
  149.1511  141.4983  156.2928 C   0  0  1  0  0  0  0  0  0  0  0  0
  148.9715  141.7698  154.7832 C   0  0  0  0  0  0  0  0  0  0  0  0
  148.0178  140.8540  154.1505 N   0  0  0  0  0  0  0  0  0  0  0  0
  148.1604  139.5009  153.9817 C   0  0  0  0  0  0  0  0  0  0  0  0
  147.0293  139.0656  153.3406 C   0  0  0  0  0  0  0  0  0  0  0  0
  146.2466  140.1714  153.1417 N   0  3  0  0  0  0  0  0  0  0  0  0
  146.8509  141.2588  153.6320 C   0  0  0  0  0  0  0  0  0  0  0  0
  149.9864  142.5333  156.8947 N   0  0  0  0  0  0  0  0  0  0  0  0
  151.1996  142.3324  157.4322 C   0  0  0  0  0  0  0  0  0  0  0  0
  151.7365  141.2250  157.4882 O   0  0  0  0  0  0  0  0  0  0  0  0
  151.8975  143.5717  158.0065 C   0  0  0  0  0  0  0  0  0  0  0  0
  152.1437  143.4730  159.4460 N   0  0  0  0  0  0  0  0  0  0  0  0
  151.5889  144.4548  160.3637 C   0  0  0  0  0  0  0  0  0  0  0  0
  152.1970  144.1150  161.7323 C   0  0  0  0  0  0  0  0  0  0  0  0
  152.8575  142.7412  161.5708 C   0  0  0  0  0  0  0  0  0  0  0  0
  152.8401  142.5141  160.0690 C   0  0  0  0  0  0  0  0  0  0  0  0
  153.4003  141.5600  159.5310 O   0  0  0  0  0  0  0  0  0  0  0  0
  147.1978  140.5983  156.6886 H   0  0  0  0  0  0  0  0  0  0  0  0
  147.2453  142.3406  156.9488 H   0  0  0  0  0  0  0  0  0  0  0  0
  147.9832  141.2477  158.1172 H   0  0  0  0  0  0  0  0  0  0  0  0
  149.6537  140.5370  156.4167 H   0  0  0  0  0  0  0  0  0  0  0  0
  148.6342  142.7936  154.6132 H   0  0  0  0  0  0  0  0  0  0  0  0
  149.9194  141.6591  154.2546 H   0  0  0  0  0  0  0  0  0  0  0  0
  149.0334  138.9630  154.3230 H   0  0  0  0  0  0  0  0  0  0  0  0
  146.7312  138.0785  153.0185 H   0  0  0  0  0  0  0  0  0  0  0  0
  146.4690  142.2641  153.6153 H   0  0  0  0  0  0  0  0  0  0  0  0
  149.6179  143.4736  156.8983 H   0  0  0  0  0  0  0  0  0  0  0  0
  152.8457  143.7352  157.4913 H   0  0  0  0  0  0  0  0  0  0  0  0
  151.2775  144.4445  157.7989 H   0  0  0  0  0  0  0  0  0  0  0  0
  151.8367  145.4714  160.0554 H   0  0  0  0  0  0  0  0  0  0  0  0
  150.5024  144.3576  160.3817 H   0  0  0  0  0  0  0  0  0  0  0  0
  152.9476  144.8583  162.0052 H   0  0  0  0  0  0  0  0  0  0  0  0
  151.4401  144.1112  162.5174 H   0  0  0  0  0  0  0  0  0  0  0  0
  153.8748  142.7249  161.9633 H   0  0  0  0  0  0  0  0  0  0  0  0
  152.2782  141.9597  162.0634 H   0  0  0  0  0  0  0  0  0  0  0  0
  145.3414  140.1691  152.6884 H   0  0  0  0  0  0  0  0  0  0  0  0
  1  2  1  0  0  0  0
  1 19  1  0  0  0  0
  1 20  1  0  0  0  0
  1 21  1  0  0  0  0
  2  3  1  0  0  0  0
  2  9  1  0  0  0  0
  2 22  1  0  0  0  0
  3  4  1  0  0  0  0
  3 23  1  0  0  0  0
  3 24  1  0  0  0  0
  4  8  1  0  0  0  0
  4  5  1  0  0  0  0
  5  6  2  0  0  0  0
  5 25  1  0  0  0  0
  6  7  1  0  0  0  0
  6 26  1  0  0  0  0
  7  8  2  0  0  0  0
  7 37  1  0  0  0  0
  8 27  1  0  0  0  0
  9 10  1  0  0  0  0
  9 28  1  0  0  0  0
 10 11  2  0  0  0  0
 10 12  1  0  0  0  0
 12 13  1  0  0  0  0
 12 29  1  0  0  0  0
 12 30  1  0  0  0  0
 13 17  1  0  0  0  0
 13 14  1  0  0  0  0
 14 15  1  0  0  0  0
 14 31  1  0  0  0  0
 14 32  1  0  0  0  0
 15 16  1  0  0  0  0
 15 33  1  0  0  0  0
 15 34  1  0  0  0  0
 16 17  1  0  0  0  0
 16 35  1  0  0  0  0
 16 36  1  0  0  0  0
 17 18  2  0  0  0  0
M  CHG  1   7   1
M  END
> <s_m_source_file>
AV-unprocessed.smi

> <i_m_source_file_index>
3301

> <i_lp_mmshare_version>
43012

> <i_f3d_flags>
0

> <s_epik_input>
W2NIXTFuW2NIXVtjSF1uMVtDSDJdW0NAQEhdKFtDSDNdKVtOSF1DKD1PKVtDSDJdTjJbQ0gyXVtDSDJdW0NIMl1DMj1P

> <s_epik_cmdline>
J2VwaWtfcHl0aG9uJywgJy1waCcsICc3LjAnLCAnLXRuJywgJzgnLCAnLW1hJywgJzIwMCcsICctbWV0YWxfYmluZGluZycsICctaW1hZScsICc8aW5maWxlLm1hZT4nLCAnLW9tYWUnLCAnPG91dGZpbGUubWFlPic=

> <r_lp_tautomer_probability>
1

> <r_epik_Ionization_Penalty>
0.254232

> <r_epik_Ionization_Penalty_Charging>
0

> <r_epik_Ionization_Penalty_Neutral>
0.254232

> <r_epik_State_Penalty>
0.245698

> <r_epik_Charging_Adjusted_Penalty>
0.245698

> <i_epik_Tot_Q>
1

> <i_epik_Tot_abs_Q>
1

> <r_epik_Metal_State_Penalty>
0.5358

> <b_epik_Metal_Only>
0

> <s_lp_Force_Field>
OPLS_2005

> <r_lp_Energy>
15.9577

> <b_lp_Chiralities_Consistent>
1

> <s_lp_Variant>
AV-unprocessed.smi:3301-2

> <Gold.Version>
5.8.1

> <Gold.Id.Protein>
6NUR|6NUR_protein|mol2

> <Gold.PLP.Fitness>
51.1602

> <Gold.PLP.PLP>
-42.5564

> <Gold.PLP.part.hbond>
-2.0000

> <Gold.PLP.part.metal>
0.0000

> <Gold.PLP.part.buried>
-4.5850

> <Gold.PLP.part.nonpolar>
-35.4639

> <Gold.PLP.part.repulsive>
0.0352

> <Gold.PLP.ligand.clash>
0.0000

> <Gold.PLP.ligand.torsion>
0.0867

> <Gold.PLP.Chemscore.Hbond>
2.9120

> <Gold.PLP.Chemscore.CHOScore>
0.0000

> <Gold.PLP.Chemscore.Metal>
0.0000

> <Gold.Chemscore.Hbonds>
donor molecule, donor type, donor heavy atom, donor atom, acceptor molecule, acceptor atom, score
      L1  H     7    37       P1 10175  2.00
      L1  H     9    28       P1  8028  0.78

> <Gold.PLP.Chemscore.Internal.Correction>
0.0412

> <Gold.Rescore>
     Score         DG    S(hbond)    S(metal)    S(lipo)     H(rot)  DE(clash)    DE(int)     intcor
     13.12     -14.69       1.90        0.00      75.72       2.35       0.06       1.50       ----

> <Gold.Chemscore.Fitness>
13.1236

> <Gold.Chemscore.DG>
-14.6911

> <Gold.Chemscore.ZeroCoef>
-5.4800

> <Gold.Chemscore.Hbond>
1.9043

> <Gold.Chemscore.Metal>
0.0000

> <Gold.Chemscore.Lipo>
75.7177

> <Gold.Chemscore.Internal_Hbond>
0.0000

> <Gold.Chemscore.DEClash>
0.0639

> <Gold.Chemscore.DEInternal>
1.5036

> <Gold.Chemscore.Rot>
2.3470

> <Gold.Chemscore.Internal.Correction>
   9.000000E+99

> <Gold.Chemscore.Hbonds>
donor molecule, donor type, donor heavy atom, donor atom, acceptor molecule, acceptor atom, score
      L1  H     7    37       P1 10175  0.94
      L1  H     9    28       P1  8028  0.76

> <Gold.Chemscore.Hbond.Weighted>
-6.3605

> <Gold.Chemscore.Metal.Weighted>
-0.0000

> <Gold.Chemscore.Lipo.Weighted>
-8.8590

> <Gold.Chemscore.Internal_Hbond.Weighted>
0.0000

> <Gold.Chemscore.DEClash.Weighted>
0.0639

> <Gold.Chemscore.DEInternal.Weighted>
1.5036

> <Gold.Chemscore.Rot.Weighted>
6.0083

> <Gold.Chemscore.Internal.Correction.Weighted>
   9.000000E+99

> <Gold.Protein.RotatedTorsions>
[ 6907 6896 6895 6894 ] final   39.52 input  -60.11 | X-H torsion
[ 7974 7965 7964 7962 ] final  -54.73 input  175.53 | X-H torsion
[ 8008 7997 7996 7995 ] final  168.02 input   59.86 | X-H torsion
[ 10167 10162 10161 10158 ] final  -57.08 input  -65.29 | X-H torsion
[ 10718 10713 10712 10709 ] final  -82.72 input   66.30 | X-H torsion
[ 10763 10752 10751 10750 ] final  -52.64 input  -60.55 | X-H torsion
[ 11005 11000 10999 10996 ] final   -6.01 input  -57.11 | X-H torsion

> <Gold.Protein.ActiveResidues>
 VAL166  LYS551  ARG553  GLY616  TRP617  ASP618  TYR619  PRO620  LYS621  CYS622 
 ASP623  PHE694  ASN695  SER759  ASP760  ASP761  ALA762  ILE779  LEU786  VAL792 
 PHE793  MET794  SER795  GLU796  ALA797  LYS798  CYS799  TRP800  GLU811  SER814 

> <Gold.Protein.RotatedAtoms>
  152.1706  134.8837  160.0534 H   0  0  0  0  0  0  0  0  0  0  0  0  # atno 6907 bound_to 6896
  151.9799  133.3749  159.4111 H   0  0  0  0  0  0  0  0  0  0  0  0  # atno 6908 bound_to 6896
  150.6901  134.3973  159.5147 H   0  0  0  0  0  0  0  0  0  0  0  0  # atno 6909 bound_to 6896
  145.8822  140.8135  142.9834 H   0  0  0  0  0  0  0  0  0  0  0  0  # atno 7974 bound_to 7965
  156.1583  140.1601  156.8655 H   0  0  0  0  0  0  0  0  0  0  0  0  # atno 8008 bound_to 7997
  154.5136  140.0795  156.8074 H   0  0  0  0  0  0  0  0  0  0  0  0  # atno 8009 bound_to 7997
  155.3758  140.3402  155.4247 H   0  0  0  0  0  0  0  0  0  0  0  0  # atno 8010 bound_to 7997
  140.6279  143.2446  151.5316 H   0  0  0  0  0  0  0  0  0  0  0  0  # atno 10167 bound_to 10162
  156.0029  130.4643  150.4148 H   0  0  0  0  0  0  0  0  0  0  0  0  # atno 10718 bound_to 10713
  154.1460  135.6497  153.4952 H   0  0  0  0  0  0  0  0  0  0  0  0  # atno 10763 bound_to 10752
  153.0152  135.5326  154.6857 H   0  0  0  0  0  0  0  0  0  0  0  0  # atno 10764 bound_to 10752
  154.6131  135.2956  155.0381 H   0  0  0  0  0  0  0  0  0  0  0  0  # atno 10765 bound_to 10752
  140.6974  133.9019  155.8659 H   0  0  0  0  0  0  0  0  0  0  0  0  # atno 11005 bound_to 11000
  144.6727  140.1401  143.7437 LP  0  0  0  0  0  0  0  0  0  0  0  0  # atno 17320 bound_to 7965
  145.9010  139.2430  143.1494 LP  0  0  0  0  0  0  0  0  0  0  0  0  # atno 17321 bound_to 7965
  139.5497  144.2428  152.1507 LP  0  0  0  0  0  0  0  0  0  0  0  0  # atno 17342 bound_to 10162
  140.1664  144.4977  150.6603 LP  0  0  0  0  0  0  0  0  0  0  0  0  # atno 17343 bound_to 10162
  157.2208  131.0482  151.2547 LP  0  0  0  0  0  0  0  0  0  0  0  0  # atno 17370 bound_to 10713
  157.3802  130.7227  149.6625 LP  0  0  0  0  0  0  0  0  0  0  0  0  # atno 17371 bound_to 10713
  141.0192  134.0913  157.4139 LP  0  0  0  0  0  0  0  0  0  0  0  0  # atno 17394 bound_to 11000
  139.8906  135.0113  156.6746 LP  0  0  0  0  0  0  0  0  0  0  0  0  # atno 17395 bound_to 11000

$$$$
