AV-unprocessed.smi:261|AV-procd|sdf|1995|dock2
  -GOLD-   2262021183D 1   1.00000     0.00000
 Structure written by MMmdl.
 51 54  0  0  0  0  0  0  0  0  1 V2000
  150.4625  130.4669  155.0589 C   0  0  0  0  0  0  0  0  0  0  0  0
  150.6155  131.4929  156.0260 O   0  0  0  0  0  0  0  0  0  0  0  0
  150.5268  132.8005  155.4798 C   0  0  1  0  0  0  0  0  0  0  0  0
  149.1844  133.0104  154.7897 C   0  0  0  0  0  0  0  0  0  0  0  0
  149.0507  134.5383  154.7634 C   0  0  1  0  0  0  0  0  0  0  0  0
  147.5870  134.9886  154.6543 C   0  0  0  0  0  0  0  0  0  0  0  0
  147.2262  135.5888  153.5176 N   0  0  0  0  0  0  0  0  0  0  0  0
  146.7903  134.7891  155.5698 O   0  0  0  0  0  0  0  0  0  0  0  0
  149.6713  134.9704  156.0185 N   0  0  0  0  0  0  0  0  0  0  0  0
  150.2213  136.2043  156.0000 C   0  0  0  0  0  0  0  0  0  0  0  0
  150.3651  136.8024  154.7926 N   0  0  0  0  0  0  0  0  0  0  0  0
  150.9136  138.0187  154.7120 C   0  0  0  0  0  0  0  0  0  0  0  0
  151.3780  138.7929  155.6958 N   0  0  0  0  0  0  0  0  0  0  0  0
  151.2328  138.1906  156.9111 C   0  0  0  0  0  0  0  0  0  0  0  0
  150.6660  136.9088  157.1536 C   0  0  0  0  0  0  0  0  0  0  0  0
  150.6862  136.6286  158.5147 N   0  0  0  0  0  0  0  0  0  0  0  0
  151.2417  137.6831  159.0467 C   0  0  0  0  0  0  0  0  0  0  0  0
  151.6083  138.6655  158.1545 N   0  0  0  0  0  0  0  0  0  0  0  0
  152.2546  139.9272  158.4672 C   0  0  0  0  0  0  0  0  0  0  0  0
  151.3569  141.1469  158.1716 C   0  0  1  0  0  0  0  0  0  0  0  0
  150.0045  140.7358  158.1729 O   0  0  0  0  0  0  0  0  0  0  0  0
  151.5653  142.3445  159.1265 C   0  0  1  0  0  0  0  0  0  0  0  0
  152.8145  143.2081  158.8840 C   0  0  0  0  0  0  0  0  0  0  0  0
  152.2904  144.6350  158.9495 C   0  0  0  0  0  0  0  0  0  0  0  0
  150.9137  144.4837  159.5879 C   0  0  0  0  0  0  0  0  0  0  0  0
  150.4610  143.2395  159.0822 O   0  0  0  0  0  0  0  0  0  0  0  0
  150.5262  133.9075  156.5392 C   0  0  0  0  0  0  0  0  0  0  0  0
  151.3243  132.9740  154.7547 H   0  0  0  0  0  0  0  0  0  0  0  0
  149.6117  134.9277  153.9113 H   0  0  0  0  0  0  0  0  0  0  0  0
  150.5203  129.4946  155.5480 H   0  0  0  0  0  0  0  0  0  0  0  0
  151.2479  130.5069  154.3035 H   0  0  0  0  0  0  0  0  0  0  0  0
  149.4943  130.5354  154.5616 H   0  0  0  0  0  0  0  0  0  0  0  0
  149.1537  132.5660  153.7944 H   0  0  0  0  0  0  0  0  0  0  0  0
  148.3874  132.5594  155.3845 H   0  0  0  0  0  0  0  0  0  0  0  0
  146.2755  135.9049  153.3931 H   0  0  0  0  0  0  0  0  0  0  0  0
  147.9082  135.7241  152.7853 H   0  0  0  0  0  0  0  0  0  0  0  0
  150.9938  138.4291  153.7161 H   0  0  0  0  0  0  0  0  0  0  0  0
  151.4103  137.7689  160.1105 H   0  0  0  0  0  0  0  0  0  0  0  0
  152.5458  139.9145  159.5181 H   0  0  0  0  0  0  0  0  0  0  0  0
  153.1770  139.9905  157.8882 H   0  0  0  0  0  0  0  0  0  0  0  0
  151.5700  141.4918  157.1594 H   0  0  0  0  0  0  0  0  0  0  0  0
  149.6586  140.8522  159.0448 H   0  0  0  0  0  0  0  0  0  0  0  0
  151.6201  141.9721  160.1513 H   0  0  0  0  0  0  0  0  0  0  0  0
  153.5565  143.0244  159.6619 H   0  0  0  0  0  0  0  0  0  0  0  0
  153.2955  143.0175  157.9247 H   0  0  0  0  0  0  0  0  0  0  0  0
  152.9442  145.3049  159.5088 H   0  0  0  0  0  0  0  0  0  0  0  0
  152.1839  145.0329  157.9396 H   0  0  0  0  0  0  0  0  0  0  0  0
  150.9902  144.4313  160.6753 H   0  0  0  0  0  0  0  0  0  0  0  0
  150.2354  145.2966  159.3279 H   0  0  0  0  0  0  0  0  0  0  0  0
  150.0722  133.5478  157.4636 H   0  0  0  0  0  0  0  0  0  0  0  0
  151.5396  134.2336  156.7807 H   0  0  0  0  0  0  0  0  0  0  0  0
  1  2  1  0  0  0  0
  1 30  1  0  0  0  0
  1 31  1  0  0  0  0
  1 32  1  0  0  0  0
  2  3  1  0  0  0  0
  3 28  1  0  0  0  0
  3 27  1  0  0  0  0
  3  4  1  0  0  0  0
  4  5  1  0  0  0  0
  4 33  1  0  0  0  0
  4 34  1  0  0  0  0
  5 29  1  0  0  0  0
  5  6  1  0  0  0  0
  5  9  1  0  0  0  0
  6  7  1  0  0  0  0
  6  8  2  0  0  0  0
  7 35  1  0  0  0  0
  7 36  1  0  0  0  0
  9 10  1  0  0  0  0
  9 27  1  0  0  0  0
 10 15  1  0  0  0  0
 10 11  2  0  0  0  0
 11 12  1  0  0  0  0
 12 13  2  0  0  0  0
 12 37  1  0  0  0  0
 13 14  1  0  0  0  0
 14 18  1  0  0  0  0
 14 15  2  0  0  0  0
 15 16  1  0  0  0  0
 16 17  2  0  0  0  0
 17 18  1  0  0  0  0
 17 38  1  0  0  0  0
 18 19  1  0  0  0  0
 19 20  1  0  0  0  0
 19 39  1  0  0  0  0
 19 40  1  0  0  0  0
 20 21  1  0  0  0  0
 20 22  1  0  0  0  0
 20 41  1  0  0  0  0
 21 42  1  0  0  0  0
 22 26  1  0  0  0  0
 22 23  1  0  0  0  0
 22 43  1  0  0  0  0
 23 24  1  0  0  0  0
 23 44  1  0  0  0  0
 23 45  1  0  0  0  0
 24 25  1  0  0  0  0
 24 46  1  0  0  0  0
 24 47  1  0  0  0  0
 25 26  1  0  0  0  0
 25 48  1  0  0  0  0
 25 49  1  0  0  0  0
 27 50  1  0  0  0  0
 27 51  1  0  0  0  0
M  END
> <s_m_source_file>
AV-unprocessed.smi

> <i_m_source_file_index>
261

> <i_lp_mmshare_version>
43012

> <i_f3d_flags>
0

> <s_epik_input>
W0NIM11PW0NASF0xW0NIMl1bQ0BASF0oQyg9TylbTkgyXSlOKFtDSDJdMSljKG5bY0hdbjIpYyhjMjMpbltjSF1uM1tDSDJdW0NASF0oW09IXSlbQ0BASF00W0NIMl1bQ0gyXVtDSDJdTzQ=

> <s_epik_cmdline>
J2VwaWtfcHl0aG9uJywgJy1waCcsICc3LjAnLCAnLXRuJywgJzgnLCAnLW1hJywgJzIwMCcsICctbWV0YWxfYmluZGluZycsICctaW1hZScsICc8aW5maWxlLm1hZT4nLCAnLW9tYWUnLCAnPG91dGZpbGUubWFlPic=

> <r_lp_tautomer_probability>
1

> <r_epik_Ionization_Penalty>
0.000713824

> <r_epik_Ionization_Penalty_Charging>
0

> <r_epik_Ionization_Penalty_Neutral>
0.000713824

> <r_epik_State_Penalty>
0.000402132

> <r_epik_Charging_Adjusted_Penalty>
0.000402132

> <i_epik_Tot_Q>
0

> <i_epik_Tot_abs_Q>
0

> <r_epik_Metal_State_Penalty>
-0

> <b_epik_Metal_Only>
0

> <s_lp_Force_Field>
OPLS_2005

> <r_lp_Energy>
47.7975

> <b_lp_Chiralities_Consistent>
1

> <s_lp_Variant>
AV-unprocessed.smi:261-13

> <Gold.Version>
5.8.1

> <Gold.Id.Protein>
6NUR|6NUR_protein|mol2

> <Gold.PLP.Fitness>
43.2726

> <Gold.PLP.PLP>
-39.6804

> <Gold.PLP.part.hbond>
-2.1114

> <Gold.PLP.part.metal>
0.0000

> <Gold.PLP.part.buried>
-7.8752

> <Gold.PLP.part.nonpolar>
-30.4519

> <Gold.PLP.part.repulsive>
0.3098

> <Gold.PLP.ligand.clash>
0.0000

> <Gold.PLP.ligand.torsion>
1.1566

> <Gold.PLP.Chemscore.Hbond>
1.8800

> <Gold.PLP.Chemscore.CHOScore>
0.0000

> <Gold.PLP.Chemscore.Metal>
0.0000

> <Gold.Chemscore.Hbonds>
donor molecule, donor type, donor heavy atom, donor atom, acceptor molecule, acceptor atom, score
      L1  H     7    36       P1  7948  0.86
      P1  H  6896  6908       L1    16  0.84

> <Gold.PLP.Chemscore.Internal.Correction>
0.2653

> <Gold.Rescore>
     Score         DG    S(hbond)    S(metal)    S(lipo)     H(rot)  DE(clash)    DE(int)     intcor
     12.00     -13.09       1.88        0.00      89.66       3.57       0.12       0.97       ----

> <Gold.Chemscore.Fitness>
12.0027

> <Gold.Chemscore.DG>
-13.0933

> <Gold.Chemscore.ZeroCoef>
-5.4800

> <Gold.Chemscore.Hbond>
1.8781

> <Gold.Chemscore.Metal>
0.0000

> <Gold.Chemscore.Lipo>
89.6574

> <Gold.Chemscore.Internal_Hbond>
0.0000

> <Gold.Chemscore.DEClash>
0.1229

> <Gold.Chemscore.DEInternal>
0.9677

> <Gold.Chemscore.Rot>
3.5740

> <Gold.Chemscore.Internal.Correction>
   9.000000E+99

> <Gold.Chemscore.Hbonds>
donor molecule, donor type, donor heavy atom, donor atom, acceptor molecule, acceptor atom, score
      L1  H     7    36       P1  7948  0.84
      P1  H  6896  6908       L1    16  0.47

> <Gold.Chemscore.Hbond.Weighted>
-6.2728

> <Gold.Chemscore.Metal.Weighted>
-0.0000

> <Gold.Chemscore.Lipo.Weighted>
-10.4899

> <Gold.Chemscore.Internal_Hbond.Weighted>
0.0000

> <Gold.Chemscore.DEClash.Weighted>
0.1229

> <Gold.Chemscore.DEInternal.Weighted>
0.9677

> <Gold.Chemscore.Rot.Weighted>
9.1495

> <Gold.Chemscore.Internal.Correction.Weighted>
   9.000000E+99

> <Gold.Protein.RotatedTorsions>
[ 6907 6896 6895 6894 ] final -152.21 input  -60.11 | X-H torsion
[ 7974 7965 7964 7962 ] final   48.00 input  175.53 | X-H torsion
[ 8008 7997 7996 7995 ] final -171.68 input   59.86 | X-H torsion
[ 10167 10162 10161 10158 ] final  -49.39 input  -65.29 | X-H torsion
[ 10718 10713 10712 10709 ] final  159.05 input   66.30 | X-H torsion
[ 10763 10752 10751 10750 ] final -167.77 input  -60.55 | X-H torsion
[ 11005 11000 10999 10996 ] final  -12.53 input  -57.11 | X-H torsion

> <Gold.Protein.ActiveResidues>
 VAL166  LYS551  ARG553  GLY616  TRP617  ASP618  TYR619  PRO620  LYS621  CYS622 
 ASP623  PHE694  ASN695  SER759  ASP760  ASP761  ALA762  ILE779  LEU786  VAL792 
 PHE793  MET794  SER795  GLU796  ALA797  LYS798  CYS799  TRP800  GLU811  SER814 

> <Gold.Protein.RotatedAtoms>
  151.2244  133.4484  159.2601 H   0  0  0  0  0  0  0  0  0  0  0  0  # atno 6907 bound_to 6896
  151.0854  134.9884  159.8387 H   0  0  0  0  0  0  0  0  0  0  0  0  # atno 6908 bound_to 6896
  152.5429  134.2181  159.8829 H   0  0  0  0  0  0  0  0  0  0  0  0  # atno 6909 bound_to 6896
  146.0245  139.4690  142.9876 H   0  0  0  0  0  0  0  0  0  0  0  0  # atno 7974 bound_to 7965
  155.9347  140.1097  157.1104 H   0  0  0  0  0  0  0  0  0  0  0  0  # atno 8008 bound_to 7997
  154.4077  140.1230  156.4914 H   0  0  0  0  0  0  0  0  0  0  0  0  # atno 8009 bound_to 7997
  155.7036  140.3471  155.4946 H   0  0  0  0  0  0  0  0  0  0  0  0  # atno 8010 bound_to 7997
  140.6687  143.2699  151.4209 H   0  0  0  0  0  0  0  0  0  0  0  0  # atno 10167 bound_to 10162
  157.1694  131.0606  151.2190 H   0  0  0  0  0  0  0  0  0  0  0  0  # atno 10718 bound_to 10713
  154.6697  135.2937  154.9758 H   0  0  0  0  0  0  0  0  0  0  0  0  # atno 10763 bound_to 10752
  154.0789  135.6607  153.4839 H   0  0  0  0  0  0  0  0  0  0  0  0  # atno 10764 bound_to 10752
  153.0479  135.5192  154.7688 H   0  0  0  0  0  0  0  0  0  0  0  0  # atno 10765 bound_to 10752
  140.7667  133.8471  155.9171 H   0  0  0  0  0  0  0  0  0  0  0  0  # atno 11005 bound_to 11000
  145.7140  141.0097  143.1438 LP  0  0  0  0  0  0  0  0  0  0  0  0  # atno 17320 bound_to 7965
  144.7004  139.8791  143.7446 LP  0  0  0  0  0  0  0  0  0  0  0  0  # atno 17321 bound_to 7965
  139.5946  144.1425  152.2128 LP  0  0  0  0  0  0  0  0  0  0  0  0  # atno 17342 bound_to 10162
  140.0790  144.5716  150.7136 LP  0  0  0  0  0  0  0  0  0  0  0  0  # atno 17343 bound_to 10162
  157.4057  130.7357  149.6801 LP  0  0  0  0  0  0  0  0  0  0  0  0  # atno 17370 bound_to 10713
  155.9741  130.4109  150.3952 LP  0  0  0  0  0  0  0  0  0  0  0  0  # atno 17371 bound_to 10713
  140.9612  134.1653  157.4652 LP  0  0  0  0  0  0  0  0  0  0  0  0  # atno 17394 bound_to 11000
  139.8762  134.9945  156.5699 LP  0  0  0  0  0  0  0  0  0  0  0  0  # atno 17395 bound_to 11000

$$$$
