AV-unprocessed.smi:1593|AV-procd|sdf|6409|dock7
  -GOLD-   22720 7 43D 1   1.00000     0.00000
 Structure written by MMmdl.
 36 37  0  0  0  0  0  0  0  0  1 V2000
  143.4924  132.4248  149.0631 C   0  0  0  0  0  0  0  0  0  0  0  0
  144.5292  133.1421  149.8579 C   0  0  0  0  0  0  0  0  0  0  0  0
  144.5736  134.3875  150.4178 C   0  0  0  0  0  0  0  0  0  0  0  0
  145.8612  134.4175  151.0286 C   0  0  0  0  0  0  0  0  0  0  0  0
  146.4233  135.4999  151.7535 N   0  0  0  0  0  0  0  0  0  0  0  0
  145.7881  136.4664  152.4373 C   0  0  0  0  0  0  0  0  0  0  0  0
  144.5680  136.5612  152.5688 O   0  0  0  0  0  0  0  0  0  0  0  0
  146.6604  137.3347  152.9700 N   0  0  0  0  0  0  0  0  0  0  0  0
  146.3063  138.5226  153.7406 C   0  0  0  0  0  0  0  0  0  0  0  0
  147.2690  139.6912  153.4526 C   0  0  0  0  0  0  0  0  0  0  0  0
  148.3871  139.8338  154.3853 N   0  0  0  0  0  0  0  0  0  0  0  0
  148.9090  141.1956  154.3800 C   0  0  0  0  0  0  0  0  0  0  0  0
  150.0771  141.3653  155.3669 C   0  0  0  0  0  0  0  0  0  0  0  0
  151.1044  140.4290  155.0567 O   0  0  0  0  0  0  0  0  0  0  0  0
  150.6466  139.0809  155.0899 C   0  0  0  0  0  0  0  0  0  0  0  0
  149.4808  138.9070  154.1014 C   0  0  0  0  0  0  0  0  0  0  0  0
  146.5331  133.2943  150.8536 N   0  0  0  0  0  0  0  0  0  0  0  0
  145.6860  132.4702  150.1033 O   0  0  0  0  0  0  0  0  0  0  0  0
  142.5128  132.8841  149.1974 H   0  0  0  0  0  0  0  0  0  0  0  0
  143.4203  131.3812  149.3702 H   0  0  0  0  0  0  0  0  0  0  0  0
  143.7355  132.4505  148.0009 H   0  0  0  0  0  0  0  0  0  0  0  0
  143.8016  135.1411  150.3842 H   0  0  0  0  0  0  0  0  0  0  0  0
  147.4315  135.5476  151.7417 H   0  0  0  0  0  0  0  0  0  0  0  0
  147.6445  137.1753  152.8118 H   0  0  0  0  0  0  0  0  0  0  0  0
  145.2645  138.8054  153.5857 H   0  0  0  0  0  0  0  0  0  0  0  0
  146.3828  138.2565  154.7948 H   0  0  0  0  0  0  0  0  0  0  0  0
  147.6557  139.5922  152.4371 H   0  0  0  0  0  0  0  0  0  0  0  0
  146.6827  140.6113  153.4561 H   0  0  0  0  0  0  0  0  0  0  0  0
  149.2439  141.4602  153.3756 H   0  0  0  0  0  0  0  0  0  0  0  0
  148.1155  141.8971  154.6396 H   0  0  0  0  0  0  0  0  0  0  0  0
  150.4836  142.3747  155.3038 H   0  0  0  0  0  0  0  0  0  0  0  0
  149.7394  141.2182  156.3939 H   0  0  0  0  0  0  0  0  0  0  0  0
  151.4702  138.4173  154.8261 H   0  0  0  0  0  0  0  0  0  0  0  0
  150.3352  138.8192  156.1024 H   0  0  0  0  0  0  0  0  0  0  0  0
  149.1321  137.8770  154.1544 H   0  0  0  0  0  0  0  0  0  0  0  0
  149.8434  139.0621  153.0842 H   0  0  0  0  0  0  0  0  0  0  0  0
  1  2  1  0  0  0  0
  1 19  1  0  0  0  0
  1 20  1  0  0  0  0
  1 21  1  0  0  0  0
  2 18  1  0  0  0  0
  2  3  2  0  0  0  0
  3  4  1  0  0  0  0
  3 22  1  0  0  0  0
  4  5  1  0  0  0  0
  4 17  2  0  0  0  0
  5  6  1  0  0  0  0
  5 23  1  0  0  0  0
  6  7  2  0  0  0  0
  6  8  1  0  0  0  0
  8  9  1  0  0  0  0
  8 24  1  0  0  0  0
  9 10  1  0  0  0  0
  9 25  1  0  0  0  0
  9 26  1  0  0  0  0
 10 11  1  0  0  0  0
 10 27  1  0  0  0  0
 10 28  1  0  0  0  0
 11 16  1  0  0  0  0
 11 12  1  0  0  0  0
 12 13  1  0  0  0  0
 12 29  1  0  0  0  0
 12 30  1  0  0  0  0
 13 14  1  0  0  0  0
 13 31  1  0  0  0  0
 13 32  1  0  0  0  0
 14 15  1  0  0  0  0
 15 16  1  0  0  0  0
 15 33  1  0  0  0  0
 15 34  1  0  0  0  0
 16 35  1  0  0  0  0
 16 36  1  0  0  0  0
 17 18  1  0  0  0  0
M  END
> <s_m_source_file>
AV-unprocessed.smi

> <i_m_source_file_index>
1593

> <i_lp_mmshare_version>
43012

> <i_f3d_flags>
0

> <s_epik_input>
W0NIM11jMVtjSF1jKG5vMSlbTkhdQyg9TylbTkhdW0NIMl1bQ0gyXU4yW0NIMl1bQ0gyXU9bQ0gyXVtDSDJdMg==

> <s_epik_cmdline>
J2VwaWtfcHl0aG9uJywgJy1waCcsICc3LjAnLCAnLXRuJywgJzgnLCAnLW1hJywgJzIwMCcsICctbWV0YWxfYmluZGluZycsICctaW1hZScsICc8aW5maWxlLm1hZT4nLCAnLW9tYWUnLCAnPG91dGZpbGUubWFlPic=

> <r_epik_Ionization_Penalty>
0.214073

> <r_epik_Ionization_Penalty_Charging>
0

> <r_epik_Ionization_Penalty_Neutral>
0.214073

> <r_epik_State_Penalty>
0.204211

> <r_epik_Charging_Adjusted_Penalty>
0.204211

> <i_epik_Tot_Q>
0

> <i_epik_Tot_abs_Q>
0

> <r_epik_Metal_State_Penalty>
0.217151

> <b_epik_Metal_Only>
0

> <s_lp_Force_Field>
OPLS_2005

> <r_lp_Energy>
24.5673

> <b_lp_Chiralities_Consistent>
1

> <s_lp_Variant>
AV-unprocessed.smi:1593-1

> <Gold.Version>
5.8.1

> <Gold.Id.Protein>
6NUR|6NUR_protein|mol2

> <Gold.PLP.Fitness>
36.7525

> <Gold.PLP.PLP>
-29.4446

> <Gold.PLP.part.hbond>
-3.0000

> <Gold.PLP.part.metal>
0.0000

> <Gold.PLP.part.buried>
-2.2158

> <Gold.PLP.part.nonpolar>
-24.7124

> <Gold.PLP.part.repulsive>
0.7746

> <Gold.PLP.ligand.clash>
0.0000

> <Gold.PLP.ligand.torsion>
0.7653

> <Gold.PLP.Chemscore.Hbond>
2.9440

> <Gold.PLP.Chemscore.CHOScore>
0.0000

> <Gold.PLP.Chemscore.Metal>
0.0000

> <Gold.Chemscore.Hbonds>
donor molecule, donor type, donor heavy atom, donor atom, acceptor molecule, acceptor atom, score
      L1  H     5    23       P1  7948  1.00
      L1  H     8    24       P1  7948  0.94
      P1  H  7989  7998       L1    14  1.00

> <Gold.PLP.Chemscore.Internal.Correction>
0.0065

> <Gold.Rescore>
     Score         DG    S(hbond)    S(metal)    S(lipo)     H(rot)  DE(clash)    DE(int)     intcor
     16.86     -18.61       2.76        0.00      68.55       1.60       0.22       1.53       ----

> <Gold.Chemscore.Fitness>
16.8604

> <Gold.Chemscore.DG>
-18.6133

> <Gold.Chemscore.ZeroCoef>
-5.4800

> <Gold.Chemscore.Hbond>
2.7588

> <Gold.Chemscore.Metal>
0.0000

> <Gold.Chemscore.Lipo>
68.5474

> <Gold.Chemscore.Internal_Hbond>
0.0000

> <Gold.Chemscore.DEClash>
0.2196

> <Gold.Chemscore.DEInternal>
1.5334

> <Gold.Chemscore.Rot>
1.6019

> <Gold.Chemscore.Internal.Correction>
   9.000000E+99

> <Gold.Chemscore.Hbonds>
donor molecule, donor type, donor heavy atom, donor atom, acceptor molecule, acceptor atom, score
      L1  H     5    23       P1  7948  0.98
      L1  H     8    24       P1  7948  0.91
      P1  H  7989  7998       L1    14  0.35

> <Gold.Chemscore.Hbond.Weighted>
-9.2142

> <Gold.Chemscore.Metal.Weighted>
-0.0000

> <Gold.Chemscore.Lipo.Weighted>
-8.0200

> <Gold.Chemscore.Internal_Hbond.Weighted>
0.0000

> <Gold.Chemscore.DEClash.Weighted>
0.2196

> <Gold.Chemscore.DEInternal.Weighted>
1.5334

> <Gold.Chemscore.Rot.Weighted>
4.1009

> <Gold.Chemscore.Internal.Correction.Weighted>
   9.000000E+99

> <Gold.Protein.RotatedTorsions>
[ 6907 6896 6895 6894 ] final  -53.93 input  -60.11 | X-H torsion
[ 7974 7965 7964 7962 ] final -127.24 input  175.53 | X-H torsion
[ 8008 7997 7996 7995 ] final   96.19 input   59.86 | X-H torsion
[ 10167 10162 10161 10158 ] final   54.89 input  -65.29 | X-H torsion
[ 10718 10713 10712 10709 ] final -154.29 input   66.30 | X-H torsion
[ 10763 10752 10751 10750 ] final   -0.45 input  -60.55 | X-H torsion
[ 11005 11000 10999 10996 ] final   52.20 input  -57.11 | X-H torsion

> <Gold.Protein.ActiveResidues>
 VAL166  LYS551  ARG553  GLY616  TRP617  ASP618  TYR619  PRO620  LYS621  CYS622 
 ASP623  PHE694  ASN695  SER759  ASP760  ASP761  ALA762  ILE779  LEU786  VAL792 
 PHE793  MET794  SER795  GLU796  ALA797  LYS798  CYS799  TRP800  GLU811  SER814 

> <Gold.Protein.RotatedAtoms>
  150.8383  134.7665  159.6910 H   0  0  0  0  0  0  0  0  0  0  0  0  # atno 6907 bound_to 6896
  152.4475  134.5460  159.9862 H   0  0  0  0  0  0  0  0  0  0  0  0  # atno 6908 bound_to 6896
  151.5605  133.3366  159.3006 H   0  0  0  0  0  0  0  0  0  0  0  0  # atno 6909 bound_to 6896
  144.9791  140.7622  143.4623 H   0  0  0  0  0  0  0  0  0  0  0  0  # atno 7974 bound_to 7965
  156.0770  140.3276  155.7646 H   0  0  0  0  0  0  0  0  0  0  0  0  # atno 8008 bound_to 7997
  155.5215  140.0585  157.2923 H   0  0  0  0  0  0  0  0  0  0  0  0  # atno 8009 bound_to 7997
  154.4561  140.1943  156.0394 H   0  0  0  0  0  0  0  0  0  0  0  0  # atno 8010 bound_to 7997
  140.2253  144.3745  150.6435 H   0  0  0  0  0  0  0  0  0  0  0  0  # atno 10167 bound_to 10162
  156.4973  130.8375  151.2595 H   0  0  0  0  0  0  0  0  0  0  0  0  # atno 10718 bound_to 10713
  153.3321  135.6975  153.6939 H   0  0  0  0  0  0  0  0  0  0  0  0  # atno 10763 bound_to 10752
  153.5737  135.3511  155.2848 H   0  0  0  0  0  0  0  0  0  0  0  0  # atno 10764 bound_to 10752
  154.8620  135.4278  154.2512 H   0  0  0  0  0  0  0  0  0  0  0  0  # atno 10765 bound_to 10752
  140.0869  134.5263  155.8891 H   0  0  0  0  0  0  0  0  0  0  0  0  # atno 11005 bound_to 11000
  145.2447  139.2057  143.4974 LP  0  0  0  0  0  0  0  0  0  0  0  0  # atno 17320 bound_to 7965
  146.3403  140.2349  142.8594 LP  0  0  0  0  0  0  0  0  0  0  0  0  # atno 17321 bound_to 7965
  140.6225  143.2178  151.6664 LP  0  0  0  0  0  0  0  0  0  0  0  0  # atno 17342 bound_to 10162
  139.5129  144.3460  152.0697 LP  0  0  0  0  0  0  0  0  0  0  0  0  # atno 17343 bound_to 10162
  157.7467  130.9993  150.2886 LP  0  0  0  0  0  0  0  0  0  0  0  0  # atno 17370 bound_to 10713
  156.3368  130.3809  149.7443 LP  0  0  0  0  0  0  0  0  0  0  0  0  # atno 17371 bound_to 10713
  141.2065  133.6656  156.6248 LP  0  0  0  0  0  0  0  0  0  0  0  0  # atno 17394 bound_to 11000
  140.3408  134.7851  157.4396 LP  0  0  0  0  0  0  0  0  0  0  0  0  # atno 17395 bound_to 11000

$$$$
