AV-unprocessed.smi:2694|AV-procd|sdf|10405|dock6
  -GOLD-   2272014443D 1   1.00000     0.00000
 Structure written by MMmdl.
 42 44  0  0  0  0  0  0  0  0  1 V2000
  149.4886  140.5876  155.7215 O   0  0  0  0  0  0  0  0  0  0  0  0
  150.2043  140.8315  156.6929 C   0  0  0  0  0  0  0  0  0  0  0  0
  150.6900  142.1779  156.9954 C   0  0  0  0  0  0  0  0  0  0  0  0
  151.4799  142.4051  158.0726 C   0  0  0  0  0  0  0  0  0  0  0  0
  152.0380  143.7827  158.4032 C   0  0  0  0  0  0  0  0  0  0  0  0
  152.4261  144.0373  159.8699 C   0  0  0  0  0  0  0  0  0  0  0  0
  151.8415  145.4456  159.7156 C   0  0  0  0  0  0  0  0  0  0  0  0
  150.9918  144.8981  158.5638 C   0  0  0  0  0  0  0  0  0  0  0  0
  151.8472  141.3539  158.9197 N   0  0  0  0  0  0  0  0  0  0  0  0
  151.4268  140.1540  158.6765 C   0  0  0  0  0  0  0  0  0  0  0  0
  150.6097  139.8640  157.5656 N   0  0  0  0  0  0  0  0  0  0  0  0
  150.2154  138.4560  157.3817 C   0  0  0  0  0  0  0  0  0  0  0  0
  149.6735  137.7984  158.6736 C   0  0  2  0  0  0  0  0  0  0  0  0
  150.3788  136.5919  158.8794 O   0  0  0  0  0  0  0  0  0  0  0  0
  148.1670  137.4820  158.6384 C   0  0  0  0  0  0  0  0  0  0  0  0
  147.6978  137.3492  159.9736 O   0  0  0  0  0  0  0  0  0  0  0  0
  147.2976  136.1070  160.4175 C   0  0  0  0  0  0  0  0  0  0  0  0
  147.2667  134.9470  159.6025 C   0  0  0  0  0  0  0  0  0  0  0  0
  146.8284  133.7161  160.1283 C   0  0  0  0  0  0  0  0  0  0  0  0
  146.4197  133.6267  161.4713 C   0  0  0  0  0  0  0  0  0  0  0  0
  146.4561  134.7692  162.2909 C   0  0  0  0  0  0  0  0  0  0  0  0
  146.8964  136.0006  161.7680 C   0  0  0  0  0  0  0  0  0  0  0  0
  146.9450  137.3841  162.7996 Cl  0  0  0  0  0  0  0  0  0  0  0  0
  150.4147  142.9913  156.3402 H   0  0  0  0  0  0  0  0  0  0  0  0
  152.8359  144.0711  157.7164 H   0  0  0  0  0  0  0  0  0  0  0  0
  151.8661  143.4346  160.5865 H   0  0  0  0  0  0  0  0  0  0  0  0
  153.4974  144.0078  160.0699 H   0  0  0  0  0  0  0  0  0  0  0  0
  151.2718  145.8007  160.5748 H   0  0  0  0  0  0  0  0  0  0  0  0
  152.5807  146.1777  159.3865 H   0  0  0  0  0  0  0  0  0  0  0  0
  150.8994  145.5649  157.7063 H   0  0  0  0  0  0  0  0  0  0  0  0
  150.0180  144.5365  158.8999 H   0  0  0  0  0  0  0  0  0  0  0  0
  151.6861  139.3010  159.3056 H   0  0  0  0  0  0  0  0  0  0  0  0
  149.4733  138.3589  156.5865 H   0  0  0  0  0  0  0  0  0  0  0  0
  151.0764  137.8902  157.0203 H   0  0  0  0  0  0  0  0  0  0  0  0
  149.8855  138.4341  159.5342 H   0  0  0  0  0  0  0  0  0  0  0  0
  150.9915  136.4753  158.1694 H   0  0  0  0  0  0  0  0  0  0  0  0
  147.6429  138.2707  158.0963 H   0  0  0  0  0  0  0  0  0  0  0  0
  147.9872  136.5394  158.1187 H   0  0  0  0  0  0  0  0  0  0  0  0
  147.5771  134.9734  158.5693 H   0  0  0  0  0  0  0  0  0  0  0  0
  146.8062  132.8387  159.4990 H   0  0  0  0  0  0  0  0  0  0  0  0
  146.0829  132.6826  161.8734 H   0  0  0  0  0  0  0  0  0  0  0  0
  146.1469  134.7003  163.3236 H   0  0  0  0  0  0  0  0  0  0  0  0
  1  2  2  0  0  0  0
  2 11  1  0  0  0  0
  2  3  1  0  0  0  0
  3  4  2  0  0  0  0
  3 24  1  0  0  0  0
  4  5  1  0  0  0  0
  4  9  1  0  0  0  0
  5  8  1  0  0  0  0
  5  6  1  0  0  0  0
  5 25  1  0  0  0  0
  6  7  1  0  0  0  0
  6 26  1  0  0  0  0
  6 27  1  0  0  0  0
  7  8  1  0  0  0  0
  7 28  1  0  0  0  0
  7 29  1  0  0  0  0
  8 30  1  0  0  0  0
  8 31  1  0  0  0  0
  9 10  2  0  0  0  0
 10 11  1  0  0  0  0
 10 32  1  0  0  0  0
 11 12  1  0  0  0  0
 12 13  1  0  0  0  0
 12 33  1  0  0  0  0
 12 34  1  0  0  0  0
 13 14  1  0  0  0  0
 13 15  1  0  0  0  0
 13 35  1  0  0  0  0
 14 36  1  0  0  0  0
 15 16  1  0  0  0  0
 15 37  1  0  0  0  0
 15 38  1  0  0  0  0
 16 17  1  0  0  0  0
 17 22  1  0  0  0  0
 17 18  2  0  0  0  0
 18 19  1  0  0  0  0
 18 39  1  0  0  0  0
 19 20  2  0  0  0  0
 19 40  1  0  0  0  0
 20 21  1  0  0  0  0
 20 41  1  0  0  0  0
 21 22  2  0  0  0  0
 21 42  1  0  0  0  0
 22 23  1  0  0  0  0
M  END
> <s_m_source_file>
AV-unprocessed.smi

> <i_m_source_file_index>
2694

> <i_lp_mmshare_version>
43012

> <i_f3d_flags>
0

> <s_epik_input>
W0NIMl0xW0NIMl1bQ0gyXVtDSF0xYyhbY0hdYzI9TyluW2NIXW4yW0NIMl1bQ0BIXShbT0hdKVtDSDJdT2MzW2NIXVtjSF1bY0hdW2NIXWMzQ2w=

> <s_epik_cmdline>
J2VwaWtfcHl0aG9uJywgJy1waCcsICc3LjAnLCAnLXRuJywgJzgnLCAnLW1hJywgJzIwMCcsICctbWV0YWxfYmluZGluZycsICctaW1hZScsICc8aW5maWxlLm1hZT4nLCAnLW9tYWUnLCAnPG91dGZpbGUubWFlPic=

> <r_lp_tautomer_probability>
1

> <r_epik_Ionization_Penalty>
1.78212e-05

> <r_epik_Ionization_Penalty_Charging>
5.61663e-08

> <r_epik_Ionization_Penalty_Neutral>
1.7765e-05

> <r_epik_State_Penalty>
-0

> <r_epik_Charging_Adjusted_Penalty>
5.61663e-08

> <i_epik_Tot_Q>
0

> <i_epik_Tot_abs_Q>
0

> <r_epik_Metal_State_Penalty>
-0

> <b_epik_Metal_Only>
0

> <s_lp_Force_Field>
OPLS_2005

> <r_lp_Energy>
26.4785

> <b_lp_Chiralities_Consistent>
1

> <s_lp_Variant>
AV-unprocessed.smi:2694-1

> <Gold.Version>
5.8.1

> <Gold.Id.Protein>
6NUR|6NUR_protein|mol2

> <Gold.PLP.Fitness>
56.4115

> <Gold.PLP.PLP>
-53.2328

> <Gold.PLP.part.hbond>
-3.0000

> <Gold.PLP.part.metal>
0.0000

> <Gold.PLP.part.buried>
-4.6947

> <Gold.PLP.part.nonpolar>
-45.7438

> <Gold.PLP.part.repulsive>
0.0402

> <Gold.PLP.ligand.clash>
0.0000

> <Gold.PLP.ligand.torsion>
1.7639

> <Gold.PLP.Chemscore.Hbond>
2.0792

> <Gold.PLP.Chemscore.CHOScore>
0.0000

> <Gold.PLP.Chemscore.Metal>
0.0000

> <Gold.Chemscore.Hbonds>
donor molecule, donor type, donor heavy atom, donor atom, acceptor molecule, acceptor atom, score
      P1  H  6896  6908       L1    14  0.60
      P1  H  6934  6947       L1    16  0.82

> <Gold.PLP.Chemscore.Internal.Correction>
0.4690

> <Gold.Rescore>
     Score         DG    S(hbond)    S(metal)    S(lipo)     H(rot)  DE(clash)    DE(int)     intcor
     17.50     -19.08       1.50        0.00     126.35       2.42       0.08       1.50       ----

> <Gold.Chemscore.Fitness>
17.5045

> <Gold.Chemscore.DG>
-19.0785

> <Gold.Chemscore.ZeroCoef>
-5.4800

> <Gold.Chemscore.Hbond>
1.5036

> <Gold.Chemscore.Metal>
0.0000

> <Gold.Chemscore.Lipo>
126.3517

> <Gold.Chemscore.Internal_Hbond>
0.0000

> <Gold.Chemscore.DEClash>
0.0766

> <Gold.Chemscore.DEInternal>
1.4974

> <Gold.Chemscore.Rot>
2.4245

> <Gold.Chemscore.Internal.Correction>
   9.000000E+99

> <Gold.Chemscore.Hbonds>
donor molecule, donor type, donor heavy atom, donor atom, acceptor molecule, acceptor atom, score
      P1  H  6896  6908       L1    14  0.04
      P1  H  6934  6947       L1    16  0.73

> <Gold.Chemscore.Hbond.Weighted>
-5.0219

> <Gold.Chemscore.Metal.Weighted>
-0.0000

> <Gold.Chemscore.Lipo.Weighted>
-14.7832

> <Gold.Chemscore.Internal_Hbond.Weighted>
0.0000

> <Gold.Chemscore.DEClash.Weighted>
0.0766

> <Gold.Chemscore.DEInternal.Weighted>
1.4974

> <Gold.Chemscore.Rot.Weighted>
6.2066

> <Gold.Chemscore.Internal.Correction.Weighted>
   9.000000E+99

> <Gold.Protein.RotatedTorsions>
[ 6907 6896 6895 6894 ] final -156.10 input  -60.11 | X-H torsion
[ 7974 7965 7964 7962 ] final   47.94 input  175.53 | X-H torsion
[ 8008 7997 7996 7995 ] final  109.06 input   59.86 | X-H torsion
[ 10167 10162 10161 10158 ] final -127.37 input  -65.29 | X-H torsion
[ 10718 10713 10712 10709 ] final  -51.16 input   66.30 | X-H torsion
[ 10763 10752 10751 10750 ] final -103.76 input  -60.55 | X-H torsion
[ 11005 11000 10999 10996 ] final -118.45 input  -57.11 | X-H torsion

> <Gold.Protein.ActiveResidues>
 VAL166  LYS551  ARG553  GLY616  TRP617  ASP618  TYR619  PRO620  LYS621  CYS622 
 ASP623  PHE694  ASN695  SER759  ASP760  ASP761  ALA762  ILE779  LEU786  VAL792 
 PHE793  MET794  SER795  GLU796  ALA797  LYS798  CYS799  TRP800  GLU811  SER814 

> <Gold.Protein.RotatedAtoms>
  151.2824  133.4203  159.2627 H   0  0  0  0  0  0  0  0  0  0  0  0  # atno 6907 bound_to 6896
  151.0349  134.9566  159.8141 H   0  0  0  0  0  0  0  0  0  0  0  0  # atno 6908 bound_to 6896
  152.5353  134.2784  159.9051 H   0  0  0  0  0  0  0  0  0  0  0  0  # atno 6909 bound_to 6896
  146.0250  139.4696  142.9873 H   0  0  0  0  0  0  0  0  0  0  0  0  # atno 7974 bound_to 7965
  156.1950  140.3065  155.9409 H   0  0  0  0  0  0  0  0  0  0  0  0  # atno 8008 bound_to 7997
  155.3086  140.0450  157.3050 H   0  0  0  0  0  0  0  0  0  0  0  0  # atno 8009 bound_to 7997
  154.5499  140.2288  155.8511 H   0  0  0  0  0  0  0  0  0  0  0  0  # atno 8010 bound_to 7997
  139.9616  143.5944  152.2443 H   0  0  0  0  0  0  0  0  0  0  0  0  # atno 10167 bound_to 10162
  156.1735  130.4149  149.9612 H   0  0  0  0  0  0  0  0  0  0  0  0  # atno 10718 bound_to 10713
  154.7831  135.4811  153.9886 H   0  0  0  0  0  0  0  0  0  0  0  0  # atno 10763 bound_to 10752
  153.1521  135.6793  153.8874 H   0  0  0  0  0  0  0  0  0  0  0  0  # atno 10764 bound_to 10752
  153.8515  135.3166  155.3411 H   0  0  0  0  0  0  0  0  0  0  0  0  # atno 10765 bound_to 10752
  141.0285  134.0018  157.3179 H   0  0  0  0  0  0  0  0  0  0  0  0  # atno 11005 bound_to 11000
  145.7132  141.0099  143.1442 LP  0  0  0  0  0  0  0  0  0  0  0  0  # atno 17320 bound_to 7965
  144.7006  139.8782  143.7445 LP  0  0  0  0  0  0  0  0  0  0  0  0  # atno 17321 bound_to 7965
  139.6550  144.7662  151.2074 LP  0  0  0  0  0  0  0  0  0  0  0  0  # atno 17342 bound_to 10162
  140.7551  143.6100  150.8615 LP  0  0  0  0  0  0  0  0  0  0  0  0  # atno 17343 bound_to 10162
  156.7405  130.9078  151.3632 LP  0  0  0  0  0  0  0  0  0  0  0  0  # atno 17370 bound_to 10713
  157.6819  130.9148  150.0288 LP  0  0  0  0  0  0  0  0  0  0  0  0  # atno 17371 bound_to 10713
  139.9191  135.0199  156.7998 LP  0  0  0  0  0  0  0  0  0  0  0  0  # atno 17394 bound_to 11000
  140.6449  133.9784  155.7726 LP  0  0  0  0  0  0  0  0  0  0  0  0  # atno 17395 bound_to 11000

$$$$
