AV-unprocessed.smi:1239|AV-procd|sdf|5186|dock6
  -GOLD-   22720 4273D 1   1.00000     0.00000
 Structure written by MMmdl.
 48 49  0  0  0  0  0  0  0  0  2 V2000
  140.4202  141.3437  156.2651 C   0  0  0  0  0  0  0  0  0  0  0  0
  140.4809  141.4657  154.7208 C   0  0  1  0  0  0  0  0  0  0  0  0
  140.1664  140.0798  154.0909 C   0  0  0  0  0  0  0  0  0  0  0  0
  141.3599  139.3962  153.5963 N   0  0  0  0  0  0  0  0  0  0  0  0
  141.5002  138.0695  153.4625 C   0  0  0  0  0  0  0  0  0  0  0  0
  140.6254  137.2570  153.7610 O   0  0  0  0  0  0  0  0  0  0  0  0
  142.7171  137.7565  152.9840 N   0  0  0  0  0  0  0  0  0  0  0  0
  143.2377  136.4742  152.6583 C   0  0  0  0  0  0  0  0  0  0  0  0
  144.0864  136.3728  151.5363 C   0  0  0  0  0  0  0  0  0  0  0  0
  144.6126  135.1185  151.1641 C   0  0  0  0  0  0  0  0  0  0  0  0
  144.2788  133.9637  151.9134 C   0  0  0  0  0  0  0  0  0  0  0  0
  144.7620  132.6740  151.6033 N   0  0  0  0  0  0  0  0  0  0  0  0
  144.4642  132.0810  150.3043 C   0  0  0  0  0  0  0  0  0  0  0  0
  145.5529  131.9406  152.5829 C   0  0  0  0  0  0  0  0  0  0  0  0
  143.4507  134.1098  152.9764 N   0  3  0  0  0  0  0  0  0  0  0  0
  142.9262  135.2907  153.3688 C   0  0  0  0  0  0  0  0  0  0  0  0
  139.6190  142.5525  154.1989 N   0  0  0  0  0  0  0  0  0  0  0  0
  138.1961  142.1925  154.1972 C   0  0  0  0  0  0  0  0  0  0  0  0
  137.2925  143.3247  153.6788 C   0  0  0  0  0  0  0  0  0  0  0  0
  137.4966  144.4942  154.4589 O   0  0  0  0  0  0  0  0  0  0  0  0
  138.8494  144.9265  154.4249 C   0  0  0  0  0  0  0  0  0  0  0  0
  139.7667  143.8068  154.9468 C   0  0  0  0  0  0  0  0  0  0  0  0
  141.0343  140.5272  156.6426 H   0  0  0  0  0  0  0  0  0  0  0  0
  139.3992  141.1699  156.6060 H   0  0  0  0  0  0  0  0  0  0  0  0
  140.7972  142.2327  156.7680 H   0  0  0  0  0  0  0  0  0  0  0  0
  141.5139  141.7044  154.4623 H   0  0  0  0  0  0  0  0  0  0  0  0
  139.6156  139.4653  154.8052 H   0  0  0  0  0  0  0  0  0  0  0  0
  139.5273  140.1799  153.2156 H   0  0  0  0  0  0  0  0  0  0  0  0
  142.1367  139.9843  153.3323 H   0  0  0  0  0  0  0  0  0  0  0  0
  143.3576  138.5279  152.8657 H   0  0  0  0  0  0  0  0  0  0  0  0
  144.3393  137.2518  150.9612 H   0  0  0  0  0  0  0  0  0  0  0  0
  145.2644  135.0640  150.3050 H   0  0  0  0  0  0  0  0  0  0  0  0
  144.8689  132.6964  149.5000 H   0  0  0  0  0  0  0  0  0  0  0  0
  143.3868  131.9888  150.1630 H   0  0  0  0  0  0  0  0  0  0  0  0
  144.8990  131.0855  150.2126 H   0  0  0  0  0  0  0  0  0  0  0  0
  144.9798  131.7818  153.4969 H   0  0  0  0  0  0  0  0  0  0  0  0
  146.4615  132.4900  152.8308 H   0  0  0  0  0  0  0  0  0  0  0  0
  145.8490  130.9631  152.2018 H   0  0  0  0  0  0  0  0  0  0  0  0
  142.2711  135.2308  154.2248 H   0  0  0  0  0  0  0  0  0  0  0  0
  138.0179  141.3286  153.5597 H   0  0  0  0  0  0  0  0  0  0  0  0
  137.8842  141.9137  155.2049 H   0  0  0  0  0  0  0  0  0  0  0  0
  137.5007  143.5361  152.6286 H   0  0  0  0  0  0  0  0  0  0  0  0
  136.2445  143.0327  153.7441 H   0  0  0  0  0  0  0  0  0  0  0  0
  139.1246  145.2085  153.4073 H   0  0  0  0  0  0  0  0  0  0  0  0
  138.9524  145.8187  155.0425 H   0  0  0  0  0  0  0  0  0  0  0  0
  139.5620  143.6334  156.0043 H   0  0  0  0  0  0  0  0  0  0  0  0
  140.7866  144.1795  154.8772 H   0  0  0  0  0  0  0  0  0  0  0  0
  143.2051  133.2772  153.5122 H   0  0  0  0  0  0  0  0  0  0  0  0
  1  2  1  0  0  0  0
  1 23  1  0  0  0  0
  1 24  1  0  0  0  0
  1 25  1  0  0  0  0
  2  3  1  0  0  0  0
  2 17  1  0  0  0  0
  2 26  1  0  0  0  0
  3  4  1  0  0  0  0
  3 27  1  0  0  0  0
  3 28  1  0  0  0  0
  4  5  1  0  0  0  0
  4 29  1  0  0  0  0
  5  6  2  0  0  0  0
  5  7  1  0  0  0  0
  7  8  1  0  0  0  0
  7 30  1  0  0  0  0
  8 16  1  0  0  0  0
  8  9  2  0  0  0  0
  9 10  1  0  0  0  0
  9 31  1  0  0  0  0
 10 11  2  0  0  0  0
 10 32  1  0  0  0  0
 11 12  1  0  0  0  0
 11 15  1  0  0  0  0
 12 13  1  0  0  0  0
 12 14  1  0  0  0  0
 13 33  1  0  0  0  0
 13 34  1  0  0  0  0
 13 35  1  0  0  0  0
 14 36  1  0  0  0  0
 14 37  1  0  0  0  0
 14 38  1  0  0  0  0
 15 16  2  0  0  0  0
 15 48  1  0  0  0  0
 16 39  1  0  0  0  0
 17 22  1  0  0  0  0
 17 18  1  0  0  0  0
 18 19  1  0  0  0  0
 18 40  1  0  0  0  0
 18 41  1  0  0  0  0
 19 20  1  0  0  0  0
 19 42  1  0  0  0  0
 19 43  1  0  0  0  0
 20 21  1  0  0  0  0
 21 22  1  0  0  0  0
 21 44  1  0  0  0  0
 21 45  1  0  0  0  0
 22 46  1  0  0  0  0
 22 47  1  0  0  0  0
M  CHG  1  15   1
M  END
> <s_m_source_file>
AV-unprocessed.smi

> <i_m_source_file_index>
1239

> <i_lp_mmshare_version>
43012

> <i_f3d_flags>
0

> <s_epik_input>
W0NIMl0xW0NIMl1PW0NIMl1bQ0gyXU4xW0NASF0oW0NIM10pW0NIMl1bTkhdQyg9TylbTkhdYzJbY0hdW2NIXWMoTihbQ0gzXSlbQ0gzXSluW2NIXTI=

> <s_epik_cmdline>
J2VwaWtfcHl0aG9uJywgJy1waCcsICc3LjAnLCAnLXRuJywgJzgnLCAnLW1hJywgJzIwMCcsICctbWV0YWxfYmluZGluZycsICctaW1hZScsICc8aW5maWxlLm1hZT4nLCAnLW9tYWUnLCAnPG91dGZpbGUubWFlPic=

> <r_lp_tautomer_probability>
0.999994

> <r_epik_Ionization_Penalty>
0.528791

> <r_epik_Ionization_Penalty_Charging>
0.26278

> <r_epik_Ionization_Penalty_Neutral>
0.26601

> <r_epik_State_Penalty>
0.520375

> <r_epik_Charging_Adjusted_Penalty>
0.783156

> <i_epik_Tot_Q>
1

> <i_epik_Tot_abs_Q>
1

> <r_epik_Metal_State_Penalty>
0.806531

> <b_epik_Metal_Only>
0

> <s_lp_Force_Field>
OPLS_2005

> <r_lp_Energy>
38.5694

> <b_lp_Chiralities_Consistent>
1

> <s_lp_Variant>
AV-unprocessed.smi:1239-2

> <Gold.Version>
5.8.1

> <Gold.Id.Protein>
6NUR|6NUR_protein|mol2

> <Gold.PLP.Fitness>
40.6766

> <Gold.PLP.PLP>
-31.8389

> <Gold.PLP.part.hbond>
-4.9326

> <Gold.PLP.part.metal>
0.0000

> <Gold.PLP.part.buried>
-4.6489

> <Gold.PLP.part.nonpolar>
-23.1291

> <Gold.PLP.part.repulsive>
0.3012

> <Gold.PLP.ligand.clash>
0.0000

> <Gold.PLP.ligand.torsion>
2.3863

> <Gold.PLP.Chemscore.Hbond>
4.5226

> <Gold.PLP.Chemscore.CHOScore>
0.0000

> <Gold.PLP.Chemscore.Metal>
0.0000

> <Gold.Chemscore.Hbonds>
donor molecule, donor type, donor heavy atom, donor atom, acceptor molecule, acceptor atom, score
      L1  H     4    29       P1 10175  1.00
      L1  H     7    30       P1 10175  0.96
      L1  H    15    48       P1 10957  1.95
      P1  H 10162 10167       L1    17  0.44

> <Gold.PLP.Chemscore.Internal.Correction>
0.0425

> <Gold.Rescore>
     Score         DG    S(hbond)    S(metal)    S(lipo)     H(rot)  DE(clash)    DE(int)     intcor
     13.70     -17.41       2.52        0.00      61.94       1.46       0.89       2.82       ----

> <Gold.Chemscore.Fitness>
13.7004

> <Gold.Chemscore.DG>
-17.4060

> <Gold.Chemscore.ZeroCoef>
-5.4800

> <Gold.Chemscore.Hbond>
2.5202

> <Gold.Chemscore.Metal>
0.0000

> <Gold.Chemscore.Lipo>
61.9411

> <Gold.Chemscore.Internal_Hbond>
0.0000

> <Gold.Chemscore.DEClash>
0.8889

> <Gold.Chemscore.DEInternal>
2.8168

> <Gold.Chemscore.Rot>
1.4604

> <Gold.Chemscore.Internal.Correction>
   9.000000E+99

> <Gold.Chemscore.Hbonds>
donor molecule, donor type, donor heavy atom, donor atom, acceptor molecule, acceptor atom, score
      L1  H     4    29       P1 10175  0.65
      L1  H     7    30       P1 10175  0.91
      L1  H    15    48       P1 10957  0.89
      P1  H 10162 10167       L1    17  0.03

> <Gold.Chemscore.Hbond.Weighted>
-8.4175

> <Gold.Chemscore.Metal.Weighted>
-0.0000

> <Gold.Chemscore.Lipo.Weighted>
-7.2471

> <Gold.Chemscore.Internal_Hbond.Weighted>
0.0000

> <Gold.Chemscore.DEClash.Weighted>
0.8889

> <Gold.Chemscore.DEInternal.Weighted>
2.8168

> <Gold.Chemscore.Rot.Weighted>
3.7385

> <Gold.Chemscore.Internal.Correction.Weighted>
   9.000000E+99

> <Gold.Protein.RotatedTorsions>
[ 6907 6896 6895 6894 ] final   76.40 input  -60.11 | X-H torsion
[ 7974 7965 7964 7962 ] final  -45.05 input  175.53 | X-H torsion
[ 8008 7997 7996 7995 ] final  -81.91 input   59.86 | X-H torsion
[ 10167 10162 10161 10158 ] final -119.89 input  -65.29 | X-H torsion
[ 10718 10713 10712 10709 ] final   13.39 input   66.30 | X-H torsion
[ 10763 10752 10751 10750 ] final  114.28 input  -60.55 | X-H torsion
[ 11005 11000 10999 10996 ] final  -89.45 input  -57.11 | X-H torsion

> <Gold.Protein.ActiveResidues>
 VAL166  LYS551  ARG553  GLY616  TRP617  ASP618  TYR619  PRO620  LYS621  CYS622 
 ASP623  PHE694  ASN695  SER759  ASP760  ASP761  ALA762  ILE779  LEU786  VAL792 
 PHE793  MET794  SER795  GLU796  ALA797  LYS798  CYS799  TRP800  GLU811  SER814 

> <Gold.Protein.RotatedAtoms>
  152.5071  134.3974  159.9404 H   0  0  0  0  0  0  0  0  0  0  0  0  # atno 6907 bound_to 6896
  151.3936  133.3774  159.2731 H   0  0  0  0  0  0  0  0  0  0  0  0  # atno 6908 bound_to 6896
  150.9414  134.8843  159.7673 H   0  0  0  0  0  0  0  0  0  0  0  0  # atno 6909 bound_to 6896
  145.9859  140.7234  142.9341 H   0  0  0  0  0  0  0  0  0  0  0  0  # atno 7974 bound_to 7965
  154.6031  140.0641  156.9395 H   0  0  0  0  0  0  0  0  0  0  0  0  # atno 8008 bound_to 7997
  155.2098  140.3322  155.4312 H   0  0  0  0  0  0  0  0  0  0  0  0  # atno 8009 bound_to 7997
  156.2331  140.1850  156.7175 H   0  0  0  0  0  0  0  0  0  0  0  0  # atno 8010 bound_to 7997
  140.0417  143.5146  152.2126 H   0  0  0  0  0  0  0  0  0  0  0  0  # atno 10167 bound_to 10162
  157.0239  130.6166  149.5725 H   0  0  0  0  0  0  0  0  0  0  0  0  # atno 10718 bound_to 10713
  153.5050  135.3630  155.2559 H   0  0  0  0  0  0  0  0  0  0  0  0  # atno 10763 bound_to 10752
  154.8745  135.4009  154.3434 H   0  0  0  0  0  0  0  0  0  0  0  0  # atno 10764 bound_to 10752
  153.4077  135.7077  153.6447 H   0  0  0  0  0  0  0  0  0  0  0  0  # atno 10765 bound_to 10752
  141.1584  133.7631  156.9596 H   0  0  0  0  0  0  0  0  0  0  0  0  # atno 11005 bound_to 11000
  144.6874  140.2987  143.7266 LP  0  0  0  0  0  0  0  0  0  0  0  0  # atno 17320 bound_to 7965
  145.7701  139.1854  143.2217 LP  0  0  0  0  0  0  0  0  0  0  0  0  # atno 17321 bound_to 7965
  139.6009  144.7582  151.3174 LP  0  0  0  0  0  0  0  0  0  0  0  0  # atno 17342 bound_to 10162
  140.7257  143.7011  150.7844 LP  0  0  0  0  0  0  0  0  0  0  0  0  # atno 17343 bound_to 10162
  156.0093  130.5183  150.7934 LP  0  0  0  0  0  0  0  0  0  0  0  0  # atno 17370 bound_to 10713
  157.5229  131.0932  151.0055 LP  0  0  0  0  0  0  0  0  0  0  0  0  # atno 17371 bound_to 10713
  140.1202  134.9422  157.2192 LP  0  0  0  0  0  0  0  0  0  0  0  0  # atno 17394 bound_to 11000
  140.3082  134.3054  155.7273 LP  0  0  0  0  0  0  0  0  0  0  0  0  # atno 17395 bound_to 11000

$$$$
