AV-unprocessed.smi:103|AV-procd|sdf|989|dock3
  -GOLD-   2262017563D 1   1.00000     0.00000
 Structure written by MMmdl.
 53 55  0  0  0  0  0  0  0  0  1 V2000
  150.1150  131.9967  155.4749 C   0  0  0  0  0  0  0  0  0  0  0  0
  149.6850  132.6889  156.7612 C   0  0  0  0  0  0  0  0  0  0  0  0
  150.2340  132.4455  157.8360 O   0  0  0  0  0  0  0  0  0  0  0  0
  148.6739  133.5546  156.5641 O   0  0  0  0  0  0  0  0  0  0  0  0
  148.0585  134.2039  157.6678 C   0  0  0  0  0  0  0  0  0  0  0  0
  147.6363  135.6423  157.2946 C   0  0  2  0  0  0  0  0  0  0  0  0
  148.7902  136.4485  157.0900 O   0  0  0  0  0  0  0  0  0  0  0  0
  149.2486  136.9201  158.3181 C   0  0  1  0  0  0  0  0  0  0  0  0
  149.7879  138.3004  158.1192 N   0  0  0  0  0  0  0  0  0  0  0  0
  151.0771  138.7766  158.2560 C   0  0  0  0  0  0  0  0  0  0  0  0
  152.5128  137.8368  158.7663 S   0  0  0  0  0  0  0  0  0  0  0  0
  153.4979  139.0999  159.6703 C   0  0  0  0  0  0  0  0  0  0  0  0
  152.0454  136.8116  159.7117 O   0  0  0  0  0  0  0  0  0  0  0  0
  153.2329  137.4514  157.5423 O   0  0  0  0  0  0  0  0  0  0  0  0
  151.2543  140.0540  158.0523 N   0  0  0  0  0  0  0  0  0  0  0  0
  149.9880  140.4944  157.6944 C   0  0  0  0  0  0  0  0  0  0  0  0
  149.4507  141.7525  157.3228 C   0  0  0  0  0  0  0  0  0  0  0  0
  150.1881  142.8690  157.2479 N   0  0  0  0  0  0  0  0  0  0  0  0
  148.1321  141.8311  157.0279 N   0  0  0  0  0  0  0  0  0  0  0  0
  147.3756  140.7307  157.0943 C   0  0  0  0  0  0  0  0  0  0  0  0
  147.7352  139.4883  157.4283 N   0  0  0  0  0  0  0  0  0  0  0  0
  149.0658  139.4093  157.7246 C   0  0  0  0  0  0  0  0  0  0  0  0
  148.0632  136.9213  159.2944 C   0  0  2  0  0  0  0  0  0  0  0  0
  148.3651  136.0433  160.3748 O   0  0  0  0  0  0  0  0  0  0  0  0
  147.8120  136.2330  161.5848 C   0  0  0  0  0  0  0  0  0  0  0  0
  147.6276  134.9274  162.3458 C   0  0  0  0  0  0  0  0  0  0  0  0
  147.4736  137.3130  162.0687 O   0  0  0  0  0  0  0  0  0  0  0  0
  146.9229  136.4032  158.4196 C   0  0  2  0  0  0  0  0  0  0  0  0
  145.9727  135.6305  159.1465 O   0  0  0  0  0  0  0  0  0  0  0  0
  144.8954  135.1207  158.5267 C   0  0  0  0  0  0  0  0  0  0  0  0
  143.9532  134.4140  159.4918 C   0  0  0  0  0  0  0  0  0  0  0  0
  144.6541  135.1850  157.3215 O   0  0  0  0  0  0  0  0  0  0  0  0
  149.2844  131.4298  155.0547 H   0  0  0  0  0  0  0  0  0  0  0  0
  150.9400  131.3104  155.6667 H   0  0  0  0  0  0  0  0  0  0  0  0
  150.4414  132.7322  154.7394 H   0  0  0  0  0  0  0  0  0  0  0  0
  147.1721  133.6217  157.9189 H   0  0  0  0  0  0  0  0  0  0  0  0
  148.6963  134.1829  158.5522 H   0  0  0  0  0  0  0  0  0  0  0  0
  147.0213  135.6242  156.3943 H   0  0  0  0  0  0  0  0  0  0  0  0
  150.0817  136.3139  158.6644 H   0  0  0  0  0  0  0  0  0  0  0  0
  154.4292  138.6526  160.0157 H   0  0  0  0  0  0  0  0  0  0  0  0
  152.9334  139.4642  160.5269 H   0  0  0  0  0  0  0  0  0  0  0  0
  153.7207  139.9321  159.0031 H   0  0  0  0  0  0  0  0  0  0  0  0
  151.1744  142.8349  157.4621 H   0  0  0  0  0  0  0  0  0  0  0  0
  149.7586  143.7401  156.9716 H   0  0  0  0  0  0  0  0  0  0  0  0
  146.3330  140.8645  156.8458 H   0  0  0  0  0  0  0  0  0  0  0  0
  147.8653  137.9369  159.6410 H   0  0  0  0  0  0  0  0  0  0  0  0
  148.5938  134.4558  162.5259 H   0  0  0  0  0  0  0  0  0  0  0  0
  147.0066  134.2396  161.7717 H   0  0  0  0  0  0  0  0  0  0  0  0
  147.1462  135.1079  163.3071 H   0  0  0  0  0  0  0  0  0  0  0  0
  146.4290  137.2731  157.9848 H   0  0  0  0  0  0  0  0  0  0  0  0
  143.6411  135.0955  160.2832 H   0  0  0  0  0  0  0  0  0  0  0  0
  144.4508  133.5576  159.9473 H   0  0  0  0  0  0  0  0  0  0  0  0
  143.0640  134.0604  158.9695 H   0  0  0  0  0  0  0  0  0  0  0  0
  1  2  1  0  0  0  0
  1 33  1  0  0  0  0
  1 34  1  0  0  0  0
  1 35  1  0  0  0  0
  2  3  2  0  0  0  0
  2  4  1  0  0  0  0
  4  5  1  0  0  0  0
  5  6  1  0  0  0  0
  5 36  1  0  0  0  0
  5 37  1  0  0  0  0
  6 28  1  0  0  0  0
  6  7  1  0  0  0  0
  6 38  1  0  0  0  0
  7  8  1  0  0  0  0
  8  9  1  0  0  0  0
  8 23  1  0  0  0  0
  8 39  1  0  0  0  0
  9 22  1  0  0  0  0
  9 10  1  0  0  0  0
 10 11  1  0  0  0  0
 10 15  2  0  0  0  0
 11 12  1  0  0  0  0
 11 13  2  0  0  0  0
 11 14  2  0  0  0  0
 12 40  1  0  0  0  0
 12 41  1  0  0  0  0
 12 42  1  0  0  0  0
 15 16  1  0  0  0  0
 16 22  2  0  0  0  0
 16 17  1  0  0  0  0
 17 18  1  0  0  0  0
 17 19  2  0  0  0  0
 18 43  1  0  0  0  0
 18 44  1  0  0  0  0
 19 20  1  0  0  0  0
 20 21  2  0  0  0  0
 20 45  1  0  0  0  0
 21 22  1  0  0  0  0
 23 24  1  0  0  0  0
 23 28  1  0  0  0  0
 23 46  1  0  0  0  0
 24 25  1  0  0  0  0
 25 26  1  0  0  0  0
 25 27  2  0  0  0  0
 26 47  1  0  0  0  0
 26 48  1  0  0  0  0
 26 49  1  0  0  0  0
 28 29  1  0  0  0  0
 28 50  1  0  0  0  0
 29 30  1  0  0  0  0
 30 31  1  0  0  0  0
 30 32  2  0  0  0  0
 31 51  1  0  0  0  0
 31 52  1  0  0  0  0
 31 53  1  0  0  0  0
M  END
> <s_m_source_file>
AV-unprocessed.smi

> <i_m_source_file_index>
103

> <i_lp_mmshare_version>
43012

> <i_f3d_flags>
0

> <s_epik_input>
W0NIM11DKD1PKU9bQ0gyXVtDQEBIXTFPW0NASF0oW0NAQEhdKE9DKD1PKVtDSDNdKVtDQEhdMU9DKD1PKVtDSDNdKW4oYyhuMilTKD1PKSg9TylbQ0gzXSljKGMyMyluW2NIXW5jM1tOSDJd

> <s_epik_cmdline>
J2VwaWtfcHl0aG9uJywgJy1waCcsICc3LjAnLCAnLXRuJywgJzgnLCAnLW1hJywgJzIwMCcsICctbWV0YWxfYmluZGluZycsICctaW1hZScsICc8aW5maWxlLm1hZT4nLCAnLW9tYWUnLCAnPG91dGZpbGUubWFlPic=

> <r_lp_tautomer_probability>
1

> <r_epik_Ionization_Penalty>
1.51338e-05

> <r_epik_Ionization_Penalty_Charging>
0

> <r_epik_Ionization_Penalty_Neutral>
1.51338e-05

> <r_epik_State_Penalty>
-0

> <r_epik_Charging_Adjusted_Penalty>
0

> <i_epik_Tot_Q>
0

> <i_epik_Tot_abs_Q>
0

> <r_epik_Metal_State_Penalty>
-0

> <b_epik_Metal_Only>
0

> <s_epik_Chemistry_Notes>
This compound has an ester and may undergo hydrolysis at high or low pH. This compound contains an acetal/aminal-like group ( X-CH(R)-Y where X, Y are N, S, or O) that may be acid/base labile, releasing an aldehyde.

> <s_lp_Force_Field>
OPLS_2005

> <r_lp_Energy>
21.2574

> <b_lp_Chiralities_Consistent>
1

> <s_lp_Variant>
AV-unprocessed.smi:103-13

> <Gold.Version>
5.8.1

> <Gold.Id.Protein>
6NUR|6NUR_protein|mol2

> <Gold.PLP.Fitness>
40.9957

> <Gold.PLP.PLP>
-29.0735

> <Gold.PLP.part.hbond>
-5.0000

> <Gold.PLP.part.metal>
0.0000

> <Gold.PLP.part.buried>
-7.3196

> <Gold.PLP.part.nonpolar>
-17.1757

> <Gold.PLP.part.repulsive>
0.1709

> <Gold.PLP.ligand.clash>
0.0000

> <Gold.PLP.ligand.torsion>
2.2961

> <Gold.PLP.Chemscore.Hbond>
4.7040

> <Gold.PLP.Chemscore.CHOScore>
0.0000

> <Gold.PLP.Chemscore.Metal>
0.0000

> <Gold.Chemscore.Hbonds>
donor molecule, donor type, donor heavy atom, donor atom, acceptor molecule, acceptor atom, score
      L1  H    18    44       P1  8028  0.99
      P1  H  6896  6907       L1    13  0.98
      P1  H  6896  6909       L1     3  1.00
      P1  H  6931  6943       L1    27  0.85
      P1  H  6934  6947       L1    27  0.59

> <Gold.PLP.Chemscore.Internal.Correction>
2.4025

> <Gold.Rescore>
     Score         DG    S(hbond)    S(metal)    S(lipo)     H(rot)  DE(clash)    DE(int)     intcor
     11.06     -13.58       4.59        0.00      31.11       4.25       0.01       2.51       ----

> <Gold.Chemscore.Fitness>
11.0599

> <Gold.Chemscore.DG>
-13.5836

> <Gold.Chemscore.ZeroCoef>
-5.4800

> <Gold.Chemscore.Hbond>
4.5907

> <Gold.Chemscore.Metal>
0.0000

> <Gold.Chemscore.Lipo>
31.1051

> <Gold.Chemscore.Internal_Hbond>
0.0000

> <Gold.Chemscore.DEClash>
0.0147

> <Gold.Chemscore.DEInternal>
2.5090

> <Gold.Chemscore.Rot>
4.2456

> <Gold.Chemscore.Internal.Correction>
   9.000000E+99

> <Gold.Chemscore.Hbonds>
donor molecule, donor type, donor heavy atom, donor atom, acceptor molecule, acceptor atom, score
      L1  H    18    44       P1  8028  0.89
      P1  H  6896  6907       L1    13  0.93
      P1  H  6896  6909       L1     3  0.99
      P1  H  6931  6943       L1    27  0.25
      P1  H  6934  6947       L1    27  0.56

> <Gold.Chemscore.Hbond.Weighted>
-15.3329

> <Gold.Chemscore.Metal.Weighted>
-0.0000

> <Gold.Chemscore.Lipo.Weighted>
-3.6393

> <Gold.Chemscore.Internal_Hbond.Weighted>
0.0000

> <Gold.Chemscore.DEClash.Weighted>
0.0147

> <Gold.Chemscore.DEInternal.Weighted>
2.5090

> <Gold.Chemscore.Rot.Weighted>
10.8687

> <Gold.Chemscore.Internal.Correction.Weighted>
   9.000000E+99

> <Gold.Protein.RotatedTorsions>
[ 6907 6896 6895 6894 ] final  -11.71 input  -60.11 | X-H torsion
[ 7974 7965 7964 7962 ] final  158.57 input  175.53 | X-H torsion
[ 8008 7997 7996 7995 ] final -176.79 input   59.86 | X-H torsion
[ 10167 10162 10161 10158 ] final -114.89 input  -65.29 | X-H torsion
[ 10718 10713 10712 10709 ] final -125.60 input   66.30 | X-H torsion
[ 10763 10752 10751 10750 ] final  170.02 input  -60.55 | X-H torsion
[ 11005 11000 10999 10996 ] final -128.77 input  -57.11 | X-H torsion

> <Gold.Protein.ActiveResidues>
 VAL166  LYS551  ARG553  GLY616  TRP617  ASP618  TYR619  PRO620  LYS621  CYS622 
 ASP623  PHE694  ASN695  SER759  ASP760  ASP761  ALA762  ILE779  LEU786  VAL792 
 PHE793  MET794  SER795  GLU796  ALA797  LYS798  CYS799  TRP800  GLU811  SER814 

> <Gold.Protein.RotatedAtoms>
  151.3819  135.0941  159.9498 H   0  0  0  0  0  0  0  0  0  0  0  0  # atno 6907 bound_to 6896
  152.5105  133.9063  159.7476 H   0  0  0  0  0  0  0  0  0  0  0  0  # atno 6908 bound_to 6896
  150.9498  133.6506  159.2803 H   0  0  0  0  0  0  0  0  0  0  0  0  # atno 6909 bound_to 6896
  144.7838  139.7497  143.6249 H   0  0  0  0  0  0  0  0  0  0  0  0  # atno 7974 bound_to 7965
  155.9992  140.1217  157.0564 H   0  0  0  0  0  0  0  0  0  0  0  0  # atno 8008 bound_to 7997
  154.4236  140.1110  156.5741 H   0  0  0  0  0  0  0  0  0  0  0  0  # atno 8009 bound_to 7997
  155.6236  140.3472  155.4662 H   0  0  0  0  0  0  0  0  0  0  0  0  # atno 8010 bound_to 7997
  140.0960  143.4656  152.1841 H   0  0  0  0  0  0  0  0  0  0  0  0  # atno 10167 bound_to 10162
  156.1690  130.6654  151.0154 H   0  0  0  0  0  0  0  0  0  0  0  0  # atno 10718 bound_to 10713
  154.3916  135.2754  155.2151 H   0  0  0  0  0  0  0  0  0  0  0  0  # atno 10763 bound_to 10752
  154.4215  135.5999  153.6016 H   0  0  0  0  0  0  0  0  0  0  0  0  # atno 10764 bound_to 10752
  152.9832  135.5973  154.4172 H   0  0  0  0  0  0  0  0  0  0  0  0  # atno 10765 bound_to 10752
  140.9488  134.1093  157.4081 H   0  0  0  0  0  0  0  0  0  0  0  0  # atno 11005 bound_to 11000
  146.2060  139.5385  142.9712 LP  0  0  0  0  0  0  0  0  0  0  0  0  # atno 17320 bound_to 7965
  145.5977  141.0360  143.2035 LP  0  0  0  0  0  0  0  0  0  0  0  0  # atno 17321 bound_to 7965
  139.5698  144.7456  151.3923 LP  0  0  0  0  0  0  0  0  0  0  0  0  # atno 17342 bound_to 10162
  140.7003  143.7648  150.7392 LP  0  0  0  0  0  0  0  0  0  0  0  0  # atno 17343 bound_to 10162
  157.6789  131.0843  150.7423 LP  0  0  0  0  0  0  0  0  0  0  0  0  # atno 17370 bound_to 10713
  156.7482  130.4760  149.5462 LP  0  0  0  0  0  0  0  0  0  0  0  0  # atno 17371 bound_to 10713
  139.8841  135.0059  156.6348 LP  0  0  0  0  0  0  0  0  0  0  0  0  # atno 17394 bound_to 11000
  140.7631  133.8801  155.8434 LP  0  0  0  0  0  0  0  0  0  0  0  0  # atno 17395 bound_to 11000

$$$$
