AV-unprocessed.smi:3227|AV-procd|sdf|12318|dock2
  -GOLD-   2272018163D 1   1.00000     0.00000
 Structure written by MMmdl.
 38 39  0  0  0  0  0  0  0  0  2 V2000
  145.7839  142.6556  156.1502 C   0  0  0  0  0  0  0  0  0  0  0  0
  146.2670  142.6195  154.7746 N   0  0  0  0  0  0  0  0  0  0  0  0
  145.5019  143.3586  153.7776 C   0  0  0  0  0  0  0  0  0  0  0  0
  146.9332  141.4429  154.3622 C   0  0  0  0  0  0  0  0  0  0  0  0
  146.2569  140.5770  153.5659 N   0  3  0  0  0  0  0  0  0  0  0  0
  146.7672  139.4141  153.1100 C   0  0  0  0  0  0  0  0  0  0  0  0
  148.0804  139.0481  153.4516 C   0  0  0  0  0  0  0  0  0  0  0  0
  148.8381  139.9089  154.2681 C   0  0  0  0  0  0  0  0  0  0  0  0
  148.2670  141.1172  154.7433 C   0  0  0  0  0  0  0  0  0  0  0  0
  149.0223  142.0395  155.5200 N   0  0  0  0  0  0  0  0  0  0  0  0
  150.2842  141.9137  155.9693 C   0  0  0  0  0  0  0  0  0  0  0  0
  151.0270  140.9675  155.7116 O   0  0  0  0  0  0  0  0  0  0  0  0
  150.7863  143.0476  156.8612 C   0  0  0  0  0  0  0  0  0  0  0  0
  151.4221  142.4860  157.9988 O   0  0  0  0  0  0  0  0  0  0  0  0
  151.8603  143.4635  158.9245 C   0  0  0  0  0  0  0  0  0  0  0  0
  152.9786  142.8734  159.7559 C   0  0  0  0  0  0  0  0  0  0  0  0
  152.8912  141.4488  160.2531 C   0  0  0  0  0  0  0  0  0  0  0  0
  152.7834  142.5940  161.2285 C   0  0  0  0  0  0  0  0  0  0  0  0
  146.4283  143.2915  156.7574 H   0  0  0  0  0  0  0  0  0  0  0  0
  145.7591  141.6607  156.5967 H   0  0  0  0  0  0  0  0  0  0  0  0
  144.7734  143.0632  156.1968 H   0  0  0  0  0  0  0  0  0  0  0  0
  146.0756  143.4852  152.8586 H   0  0  0  0  0  0  0  0  0  0  0  0
  145.2522  144.3517  154.1523 H   0  0  0  0  0  0  0  0  0  0  0  0
  144.5718  142.8406  153.5413 H   0  0  0  0  0  0  0  0  0  0  0  0
  146.1151  138.8198  152.4867 H   0  0  0  0  0  0  0  0  0  0  0  0
  148.5057  138.1252  153.0847 H   0  0  0  0  0  0  0  0  0  0  0  0
  149.8566  139.6372  154.5002 H   0  0  0  0  0  0  0  0  0  0  0  0
  148.5074  142.8291  155.8831 H   0  0  0  0  0  0  0  0  0  0  0  0
  151.4864  143.6753  156.3073 H   0  0  0  0  0  0  0  0  0  0  0  0
  149.9401  143.6683  157.1595 H   0  0  0  0  0  0  0  0  0  0  0  0
  152.2295  144.3484  158.4042 H   0  0  0  0  0  0  0  0  0  0  0  0
  151.0382  143.7705  159.5728 H   0  0  0  0  0  0  0  0  0  0  0  0
  153.9700  143.2111  159.4598 H   0  0  0  0  0  0  0  0  0  0  0  0
  151.9840  140.8899  160.0321 H   0  0  0  0  0  0  0  0  0  0  0  0
  153.8085  140.8640  160.2622 H   0  0  0  0  0  0  0  0  0  0  0  0
  153.6287  142.7736  161.8895 H   0  0  0  0  0  0  0  0  0  0  0  0
  151.8045  142.7949  161.6592 H   0  0  0  0  0  0  0  0  0  0  0  0
  145.3017  140.8159  153.2995 H   0  0  0  0  0  0  0  0  0  0  0  0
  1  2  1  0  0  0  0
  1 19  1  0  0  0  0
  1 20  1  0  0  0  0
  1 21  1  0  0  0  0
  2  3  1  0  0  0  0
  2  4  1  0  0  0  0
  3 22  1  0  0  0  0
  3 23  1  0  0  0  0
  3 24  1  0  0  0  0
  4  9  1  0  0  0  0
  4  5  2  0  0  0  0
  5  6  1  0  0  0  0
  5 38  1  0  0  0  0
  6  7  2  0  0  0  0
  6 25  1  0  0  0  0
  7  8  1  0  0  0  0
  7 26  1  0  0  0  0
  8  9  2  0  0  0  0
  8 27  1  0  0  0  0
  9 10  1  0  0  0  0
 10 11  1  0  0  0  0
 10 28  1  0  0  0  0
 11 12  2  0  0  0  0
 11 13  1  0  0  0  0
 13 14  1  0  0  0  0
 13 29  1  0  0  0  0
 13 30  1  0  0  0  0
 14 15  1  0  0  0  0
 15 16  1  0  0  0  0
 15 31  1  0  0  0  0
 15 32  1  0  0  0  0
 16 18  1  0  0  0  0
 16 17  1  0  0  0  0
 16 33  1  0  0  0  0
 17 18  1  0  0  0  0
 17 34  1  0  0  0  0
 17 35  1  0  0  0  0
 18 36  1  0  0  0  0
 18 37  1  0  0  0  0
M  CHG  1   5   1
M  END
> <s_m_source_file>
AV-unprocessed.smi

> <i_m_source_file_index>
3227

> <i_lp_mmshare_version>
43012

> <i_f3d_flags>
0

> <s_epik_input>
W0NIM11OKFtDSDNdKWMxbltjSF1bY0hdW2NIXWMxW05IXUMoPU8pW0NIMl1PW0NIMl1bQ0hdMltDSDJdW0NIMl0y

> <s_epik_cmdline>
J2VwaWtfcHl0aG9uJywgJy1waCcsICc3LjAnLCAnLXRuJywgJzgnLCAnLW1hJywgJzIwMCcsICctbWV0YWxfYmluZGluZycsICctaW1hZScsICc8aW5maWxlLm1hZT4nLCAnLW9tYWUnLCAnPG91dGZpbGUubWFlPic=

> <r_lp_tautomer_probability>
0.999994

> <r_epik_Ionization_Penalty>
0.625506

> <r_epik_Ionization_Penalty_Charging>
0.625505

> <r_epik_Ionization_Penalty_Neutral>
1.06265e-06

> <r_epik_State_Penalty>
0.641902

> <r_epik_Charging_Adjusted_Penalty>
1.26741

> <i_epik_Tot_Q>
1

> <i_epik_Tot_abs_Q>
1

> <r_epik_Metal_State_Penalty>
0.821585

> <b_epik_Metal_Only>
0

> <s_lp_Force_Field>
OPLS_2005

> <r_lp_Energy>
27.1321

> <b_lp_Chiralities_Consistent>
1

> <s_lp_Variant>
AV-unprocessed.smi:3227-2

> <Gold.Version>
5.8.1

> <Gold.Id.Protein>
6NUR|6NUR_protein|mol2

> <Gold.PLP.Fitness>
48.5982

> <Gold.PLP.PLP>
-39.8965

> <Gold.PLP.part.hbond>
-3.0000

> <Gold.PLP.part.metal>
0.0000

> <Gold.PLP.part.buried>
-0.4316

> <Gold.PLP.part.nonpolar>
-35.5511

> <Gold.PLP.part.repulsive>
0.2509

> <Gold.PLP.ligand.clash>
0.0000

> <Gold.PLP.ligand.torsion>
1.7898

> <Gold.PLP.Chemscore.Hbond>
3.4112

> <Gold.PLP.Chemscore.CHOScore>
0.0000

> <Gold.PLP.Chemscore.Metal>
0.0000

> <Gold.Chemscore.Hbonds>
donor molecule, donor type, donor heavy atom, donor atom, acceptor molecule, acceptor atom, score
      L1  H     5    38       P1 10175  2.00
      L1  H    10    28       P1  8028  0.58
      P1  H  7989  7998       L1    12  0.26

> <Gold.PLP.Chemscore.Internal.Correction>
2.0476

> <Gold.Rescore>
     Score         DG    S(hbond)    S(metal)    S(lipo)     H(rot)  DE(clash)    DE(int)     intcor
     14.70     -18.57       1.92        0.00      90.90       1.54       0.77       3.11       ----

> <Gold.Chemscore.Fitness>
14.6955

> <Gold.Chemscore.DG>
-18.5715

> <Gold.Chemscore.ZeroCoef>
-5.4800

> <Gold.Chemscore.Hbond>
1.9154

> <Gold.Chemscore.Metal>
0.0000

> <Gold.Chemscore.Lipo>
90.9000

> <Gold.Chemscore.Internal_Hbond>
0.0000

> <Gold.Chemscore.DEClash>
0.7671

> <Gold.Chemscore.DEInternal>
3.1089

> <Gold.Chemscore.Rot>
1.5396

> <Gold.Chemscore.Internal.Correction>
   9.000000E+99

> <Gold.Chemscore.Hbonds>
donor molecule, donor type, donor heavy atom, donor atom, acceptor molecule, acceptor atom, score
      L1  H     5    38       P1 10175  0.73
      L1  H    10    28       P1  8028  0.57
      P1  H  7989  7998       L1    12  0.22

> <Gold.Chemscore.Hbond.Weighted>
-6.3975

> <Gold.Chemscore.Metal.Weighted>
-0.0000

> <Gold.Chemscore.Lipo.Weighted>
-10.6353

> <Gold.Chemscore.Internal_Hbond.Weighted>
0.0000

> <Gold.Chemscore.DEClash.Weighted>
0.7671

> <Gold.Chemscore.DEInternal.Weighted>
3.1089

> <Gold.Chemscore.Rot.Weighted>
3.9413

> <Gold.Chemscore.Internal.Correction.Weighted>
   9.000000E+99

> <Gold.Protein.RotatedTorsions>
[ 6907 6896 6895 6894 ] final   32.47 input  -60.11 | X-H torsion
[ 7974 7965 7964 7962 ] final   -2.58 input  175.53 | X-H torsion
[ 8008 7997 7996 7995 ] final   17.44 input   59.86 | X-H torsion
[ 10167 10162 10161 10158 ] final  -43.44 input  -65.29 | X-H torsion
[ 10718 10713 10712 10709 ] final   14.78 input   66.30 | X-H torsion
[ 10763 10752 10751 10750 ] final  -90.58 input  -60.55 | X-H torsion
[ 11005 11000 10999 10996 ] final   39.73 input  -57.11 | X-H torsion

> <Gold.Protein.ActiveResidues>
 VAL166  LYS551  ARG553  GLY616  TRP617  ASP618  TYR619  PRO620  LYS621  CYS622 
 ASP623  PHE694  ASN695  SER759  ASP760  ASP761  ALA762  ILE779  LEU786  VAL792 
 PHE793  MET794  SER795  GLU796  ALA797  LYS798  CYS799  TRP800  GLU811  SER814 

> <Gold.Protein.RotatedAtoms>
  152.0749  134.9509  160.0573 H   0  0  0  0  0  0  0  0  0  0  0  0  # atno 6907 bound_to 6896
  152.0820  133.4153  159.4514 H   0  0  0  0  0  0  0  0  0  0  0  0  # atno 6908 bound_to 6896
  150.6836  134.2890  159.4702 H   0  0  0  0  0  0  0  0  0  0  0  0  # atno 6909 bound_to 6896
  146.2402  140.1592  142.8333 H   0  0  0  0  0  0  0  0  0  0  0  0  # atno 7974 bound_to 7965
  154.8914  140.2987  155.5368 H   0  0  0  0  0  0  0  0  0  0  0  0  # atno 8008 bound_to 7997
  156.3021  140.2424  156.3864 H   0  0  0  0  0  0  0  0  0  0  0  0  # atno 8009 bound_to 7997
  154.8615  140.0405  157.1657 H   0  0  0  0  0  0  0  0  0  0  0  0  # atno 8010 bound_to 7997
  140.6934  143.2983  151.3352 H   0  0  0  0  0  0  0  0  0  0  0  0  # atno 10167 bound_to 10162
  157.0440  130.6243  149.5756 H   0  0  0  0  0  0  0  0  0  0  0  0  # atno 10718 bound_to 10713
  154.6673  135.5299  153.8093 H   0  0  0  0  0  0  0  0  0  0  0  0  # atno 10763 bound_to 10752
  153.0479  135.6520  154.0780 H   0  0  0  0  0  0  0  0  0  0  0  0  # atno 10764 bound_to 10752
  154.0682  135.2956  155.3292 H   0  0  0  0  0  0  0  0  0  0  0  0  # atno 10765 bound_to 10752
  140.2000  134.3882  155.8101 H   0  0  0  0  0  0  0  0  0  0  0  0  # atno 11005 bound_to 11000
  145.0103  140.8708  143.5228 LP  0  0  0  0  0  0  0  0  0  0  0  0  # atno 17320 bound_to 7965
  145.1625  139.2450  143.5384 LP  0  0  0  0  0  0  0  0  0  0  0  0  # atno 17321 bound_to 7965
  139.6361  144.0628  152.2516 LP  0  0  0  0  0  0  0  0  0  0  0  0  # atno 17342 bound_to 10162
  140.0119  144.6218  150.7640 LP  0  0  0  0  0  0  0  0  0  0  0  0  # atno 17343 bound_to 10162
  156.0029  130.5111  150.7727 LP  0  0  0  0  0  0  0  0  0  0  0  0  # atno 17370 bound_to 10713
  157.5082  131.0923  151.0231 LP  0  0  0  0  0  0  0  0  0  0  0  0  # atno 17371 bound_to 10713
  141.2227  133.7089  156.8241 LP  0  0  0  0  0  0  0  0  0  0  0  0  # atno 17394 bound_to 11000
  140.2065  134.8859  157.3227 LP  0  0  0  0  0  0  0  0  0  0  0  0  # atno 17395 bound_to 11000

$$$$
