AV-unprocessed.smi:3247|AV-procd|sdf|12412|dock10
  -GOLD-   2272018293D 1   1.00000     0.00000
 Structure written by MMmdl.
 35 36  0  0  0  0  0  0  0  0  1 V2000
  150.5215  140.2740  154.9474 O   0  0  0  0  0  0  0  0  0  0  0  0
  150.0978  141.3536  155.3597 C   0  0  0  0  0  0  0  0  0  0  0  0
  150.8959  142.1457  156.3926 C   0  0  0  0  0  0  0  0  0  0  0  0
  150.1020  142.3049  157.5596 O   0  0  0  0  0  0  0  0  0  0  0  0
  150.7529  143.0172  158.6016 C   0  0  0  0  0  0  0  0  0  0  0  0
  151.3434  144.3207  158.0677 C   0  0  0  0  0  0  0  0  0  0  0  0
  152.4194  144.7031  159.0884 C   0  0  0  0  0  0  0  0  0  0  0  0
  152.8694  143.3889  159.7465 C   0  0  0  0  0  0  0  0  0  0  0  0
  151.9744  142.2859  159.1674 C   0  0  0  0  0  0  0  0  0  0  0  0
  148.9371  141.8950  154.9597 N   0  0  0  0  0  0  0  0  0  0  0  0
  148.0231  141.3039  153.9891 C   0  0  0  0  0  0  0  0  0  0  0  0
  146.8999  142.2783  153.5961 C   0  0  0  0  0  0  0  0  0  0  0  0
  146.0829  142.7063  154.7774 C   0  0  0  0  0  0  0  0  0  0  0  0
  144.8465  143.3059  154.7489 C   0  0  0  0  0  0  0  0  0  0  0  0
  144.2467  143.6471  156.3504 S   0  0  0  0  0  0  0  0  0  0  0  0
  145.7228  142.9525  156.9990 C   0  0  0  0  0  0  0  0  0  0  0  0
  146.5747  142.5114  156.0729 N   0  0  0  0  0  0  0  0  0  0  0  0
  151.8158  141.6064  156.6237 H   0  0  0  0  0  0  0  0  0  0  0  0
  151.1722  143.1150  155.9754 H   0  0  0  0  0  0  0  0  0  0  0  0
  150.0506  143.2508  159.4040 H   0  0  0  0  0  0  0  0  0  0  0  0
  151.8113  144.1426  157.0983 H   0  0  0  0  0  0  0  0  0  0  0  0
  150.5924  145.0997  157.9348 H   0  0  0  0  0  0  0  0  0  0  0  0
  153.2487  145.2336  158.6195 H   0  0  0  0  0  0  0  0  0  0  0  0
  151.9950  145.3646  159.8447 H   0  0  0  0  0  0  0  0  0  0  0  0
  153.9219  143.1794  159.5525 H   0  0  0  0  0  0  0  0  0  0  0  0
  152.7441  143.4535  160.8282 H   0  0  0  0  0  0  0  0  0  0  0  0
  151.7082  141.5337  159.9106 H   0  0  0  0  0  0  0  0  0  0  0  0
  152.5038  141.7788  158.3594 H   0  0  0  0  0  0  0  0  0  0  0  0
  148.6730  142.7874  155.3519 H   0  0  0  0  0  0  0  0  0  0  0  0
  148.6033  141.0302  153.1075 H   0  0  0  0  0  0  0  0  0  0  0  0
  147.6042  140.3775  154.3859 H   0  0  0  0  0  0  0  0  0  0  0  0
  147.3277  143.1552  153.1088 H   0  0  0  0  0  0  0  0  0  0  0  0
  146.2555  141.8094  152.8511 H   0  0  0  0  0  0  0  0  0  0  0  0
  144.2547  143.5682  153.8844 H   0  0  0  0  0  0  0  0  0  0  0  0
  145.9599  142.8708  158.0495 H   0  0  0  0  0  0  0  0  0  0  0  0
  1  2  2  0  0  0  0
  2  3  1  0  0  0  0
  2 10  1  0  0  0  0
  3  4  1  0  0  0  0
  3 18  1  0  0  0  0
  3 19  1  0  0  0  0
  4  5  1  0  0  0  0
  5  9  1  0  0  0  0
  5  6  1  0  0  0  0
  5 20  1  0  0  0  0
  6  7  1  0  0  0  0
  6 21  1  0  0  0  0
  6 22  1  0  0  0  0
  7  8  1  0  0  0  0
  7 23  1  0  0  0  0
  7 24  1  0  0  0  0
  8  9  1  0  0  0  0
  8 25  1  0  0  0  0
  8 26  1  0  0  0  0
  9 27  1  0  0  0  0
  9 28  1  0  0  0  0
 10 11  1  0  0  0  0
 10 29  1  0  0  0  0
 11 12  1  0  0  0  0
 11 30  1  0  0  0  0
 11 31  1  0  0  0  0
 12 13  1  0  0  0  0
 12 32  1  0  0  0  0
 12 33  1  0  0  0  0
 13 17  1  0  0  0  0
 13 14  2  0  0  0  0
 14 15  1  0  0  0  0
 14 34  1  0  0  0  0
 15 16  1  0  0  0  0
 16 17  2  0  0  0  0
 16 35  1  0  0  0  0
M  END
> <s_m_source_file>
AV-unprocessed.smi

> <i_m_source_file_index>
3247

> <i_lp_mmshare_version>
43012

> <i_f3d_flags>
0

> <s_epik_input>
W0NIMl0xW0NIMl1bQ0gyXVtDSDJdW0NIXTFPW0NIMl1DKD1PKVtOSF1bQ0gyXVtDSDJdYzJbY0hdc1tjSF1uMg==

> <s_epik_cmdline>
J2VwaWtfcHl0aG9uJywgJy1waCcsICc3LjAnLCAnLXRuJywgJzgnLCAnLW1hJywgJzIwMCcsICctbWV0YWxfYmluZGluZycsICctaW1hZScsICc8aW5maWxlLm1hZT4nLCAnLW9tYWUnLCAnPG91dGZpbGUubWFlPic=

> <r_lp_tautomer_probability>
1

> <r_epik_Ionization_Penalty>
0.00018119

> <r_epik_Ionization_Penalty_Charging>
0

> <r_epik_Ionization_Penalty_Neutral>
0.00018119

> <r_epik_State_Penalty>
-0

> <r_epik_Charging_Adjusted_Penalty>
0

> <i_epik_Tot_Q>
0

> <i_epik_Tot_abs_Q>
0

> <r_epik_Metal_State_Penalty>
-0

> <b_epik_Metal_Only>
0

> <s_lp_Force_Field>
OPLS_2005

> <r_lp_Energy>
17.1434

> <b_lp_Chiralities_Consistent>
1

> <s_lp_Variant>
AV-unprocessed.smi:3247-1

> <Gold.Version>
5.8.1

> <Gold.Id.Protein>
6NUR|6NUR_protein|mol2

> <Gold.PLP.Fitness>
46.0831

> <Gold.PLP.PLP>
-37.6052

> <Gold.PLP.part.hbond>
-2.0000

> <Gold.PLP.part.metal>
0.0000

> <Gold.PLP.part.buried>
-6.0701

> <Gold.PLP.part.nonpolar>
-30.5136

> <Gold.PLP.part.repulsive>
0.5504

> <Gold.PLP.ligand.clash>
0.0000

> <Gold.PLP.ligand.torsion>
0.2806

> <Gold.PLP.Chemscore.Hbond>
2.0000

> <Gold.PLP.Chemscore.CHOScore>
1.0000

> <Gold.PLP.Chemscore.Metal>
0.0000

> <Gold.Chemscore.Hbonds>
donor molecule, donor type, donor heavy atom, donor atom, acceptor molecule, acceptor atom, score
      L1  H    10    29       P1  8028  1.00
      P1  H  7989  7998       L1     1  1.00
      L1  C    14    34       P1 10174  0.85

> <Gold.PLP.Chemscore.Internal.Correction>
0.0391

> <Gold.Rescore>
     Score         DG    S(hbond)    S(metal)    S(lipo)     H(rot)  DE(clash)    DE(int)     intcor
     14.66     -16.80       1.45        0.00      94.21       1.78       0.66       1.48       ----

> <Gold.Chemscore.Fitness>
14.6589

> <Gold.Chemscore.DG>
-16.7972

> <Gold.Chemscore.ZeroCoef>
-5.4800

> <Gold.Chemscore.Hbond>
1.4542

> <Gold.Chemscore.Metal>
0.0000

> <Gold.Chemscore.Lipo>
94.2129

> <Gold.Chemscore.Internal_Hbond>
0.0000

> <Gold.Chemscore.DEClash>
0.6595

> <Gold.Chemscore.DEInternal>
1.4788

> <Gold.Chemscore.Rot>
1.7824

> <Gold.Chemscore.Internal.Correction>
   9.000000E+99

> <Gold.Chemscore.Hbonds>
donor molecule, donor type, donor heavy atom, donor atom, acceptor molecule, acceptor atom, score
      L1  H    10    29       P1  8028  0.96
      P1  H  7989  7998       L1     1  0.25

> <Gold.Chemscore.Hbond.Weighted>
-4.8571

> <Gold.Chemscore.Metal.Weighted>
-0.0000

> <Gold.Chemscore.Lipo.Weighted>
-11.0229

> <Gold.Chemscore.Internal_Hbond.Weighted>
0.0000

> <Gold.Chemscore.DEClash.Weighted>
0.6595

> <Gold.Chemscore.DEInternal.Weighted>
1.4788

> <Gold.Chemscore.Rot.Weighted>
4.5629

> <Gold.Chemscore.Internal.Correction.Weighted>
   9.000000E+99

> <Gold.Protein.RotatedTorsions>
[ 6907 6896 6895 6894 ] final  -53.07 input  -60.11 | X-H torsion
[ 7974 7965 7964 7962 ] final  -40.95 input  175.53 | X-H torsion
[ 8008 7997 7996 7995 ] final   61.65 input   59.86 | X-H torsion
[ 10167 10162 10161 10158 ] final  -45.39 input  -65.29 | X-H torsion
[ 10718 10713 10712 10709 ] final  -17.00 input   66.30 | X-H torsion
[ 10763 10752 10751 10750 ] final  165.35 input  -60.55 | X-H torsion
[ 11005 11000 10999 10996 ] final   55.08 input  -57.11 | X-H torsion

> <Gold.Protein.ActiveResidues>
 VAL166  LYS551  ARG553  GLY616  TRP617  ASP618  TYR619  PRO620  LYS621  CYS622 
 ASP623  PHE694  ASN695  SER759  ASP760  ASP761  ALA762  ILE779  LEU786  VAL792 
 PHE793  MET794  SER795  GLU796  ALA797  LYS798  CYS799  TRP800  GLU811  SER814 

> <Gold.Protein.RotatedAtoms>
  150.8460  134.7769  159.6970 H   0  0  0  0  0  0  0  0  0  0  0  0  # atno 6907 bound_to 6896
  152.4537  134.5335  159.9828 H   0  0  0  0  0  0  0  0  0  0  0  0  # atno 6908 bound_to 6896
  151.5465  133.3386  159.2981 H   0  0  0  0  0  0  0  0  0  0  0  0  # atno 6909 bound_to 6896
  146.0257  140.6795  142.9157 H   0  0  0  0  0  0  0  0  0  0  0  0  # atno 7974 bound_to 7965
  155.6018  140.3494  155.4596 H   0  0  0  0  0  0  0  0  0  0  0  0  # atno 8008 bound_to 7997
  156.0222  140.1256  157.0369 H   0  0  0  0  0  0  0  0  0  0  0  0  # atno 8009 bound_to 7997
  154.4320  140.1060  156.5967 H   0  0  0  0  0  0  0  0  0  0  0  0  # atno 8010 bound_to 7997
  140.6860  143.2882  151.3631 H   0  0  0  0  0  0  0  0  0  0  0  0  # atno 10167 bound_to 10162
  156.5797  130.4771  149.6326 H   0  0  0  0  0  0  0  0  0  0  0  0  # atno 10718 bound_to 10713
  154.3226  135.2755  155.2512 H   0  0  0  0  0  0  0  0  0  0  0  0  # atno 10763 bound_to 10752
  154.4858  135.5846  153.6426 H   0  0  0  0  0  0  0  0  0  0  0  0  # atno 10764 bound_to 10752
  152.9875  135.6122  154.3412 H   0  0  0  0  0  0  0  0  0  0  0  0  # atno 10765 bound_to 10752
  140.0635  134.5569  155.9125 H   0  0  0  0  0  0  0  0  0  0  0  0  # atno 11005 bound_to 11000
  144.7008  140.3645  143.7157 LP  0  0  0  0  0  0  0  0  0  0  0  0  # atno 17320 bound_to 7965
  145.7122  139.1688  143.2532 LP  0  0  0  0  0  0  0  0  0  0  0  0  # atno 17321 bound_to 7965
  139.6219  144.0890  152.2399 LP  0  0  0  0  0  0  0  0  0  0  0  0  # atno 17342 bound_to 10162
  140.0337  144.6061  150.7467 LP  0  0  0  0  0  0  0  0  0  0  0  0  # atno 17343 bound_to 10162
  156.2642  130.6980  151.1758 LP  0  0  0  0  0  0  0  0  0  0  0  0  # atno 17370 bound_to 10713
  157.7329  131.0595  150.5603 LP  0  0  0  0  0  0  0  0  0  0  0  0  # atno 17371 bound_to 10713
  141.1983  133.6601  156.5785 LP  0  0  0  0  0  0  0  0  0  0  0  0  # atno 17394 bound_to 11000
  140.3734  134.7586  157.4614 LP  0  0  0  0  0  0  0  0  0  0  0  0  # atno 17395 bound_to 11000

$$$$
