AV-unprocessed.smi:2568|AV-procd|sdf|10095|dock1
  -GOLD-   2272014113D 1   1.00000     0.00000
 Structure written by MMmdl.
 25 26  0  0  0  0  0  0  0  0  2 V2000
  151.0958  143.3391  158.5330 C   0  0  0  0  0  0  0  0  0  0  0  0
  150.8359  142.1682  157.6470 C   0  0  0  0  0  0  0  0  0  0  0  0
  151.2826  140.9279  157.8645 N   0  0  0  0  0  0  0  0  0  0  0  0
  150.8091  140.1744  156.8041 N   0  0  0  0  0  0  0  0  0  0  0  0
  150.1163  141.0265  156.0408 C   0  0  0  0  0  0  0  0  0  0  0  0
  149.4226  140.6673  154.7645 C   0  0  1  0  0  0  0  0  0  0  0  0
  149.6345  139.1914  154.3752 C   0  0  0  0  0  0  0  0  0  0  0  0
  148.8469  138.8689  153.1693 N   0  3  0  0  0  0  0  0  0  0  0  0
  147.4203  139.2027  153.3510 C   0  0  0  0  0  0  0  0  0  0  0  0
  147.2703  140.6736  153.7777 C   0  0  0  0  0  0  0  0  0  0  0  0
  148.0315  140.9121  154.9574 O   0  0  0  0  0  0  0  0  0  0  0  0
  150.1106  142.2776  156.5249 N   0  0  0  0  0  0  0  0  0  0  0  0
  149.6668  143.1003  156.1429 H   0  0  0  0  0  0  0  0  0  0  0  0
  151.5704  143.0176  159.4607 H   0  0  0  0  0  0  0  0  0  0  0  0
  150.1593  143.8408  158.7782 H   0  0  0  0  0  0  0  0  0  0  0  0
  151.7551  144.0481  158.0320 H   0  0  0  0  0  0  0  0  0  0  0  0
  149.7944  141.3206  153.9725 H   0  0  0  0  0  0  0  0  0  0  0  0
  150.6888  138.9897  154.1841 H   0  0  0  0  0  0  0  0  0  0  0  0
  149.3228  138.5335  155.1878 H   0  0  0  0  0  0  0  0  0  0  0  0
  149.2082  139.4039  152.3925 H   0  0  0  0  0  0  0  0  0  0  0  0
  146.8823  139.0146  152.4217 H   0  0  0  0  0  0  0  0  0  0  0  0
  146.9925  138.5456  154.1095 H   0  0  0  0  0  0  0  0  0  0  0  0
  147.5943  141.3454  152.9810 H   0  0  0  0  0  0  0  0  0  0  0  0
  146.2236  140.9020  153.9798 H   0  0  0  0  0  0  0  0  0  0  0  0
  148.9379  137.8844  152.9617 H   0  0  0  0  0  0  0  0  0  0  0  0
  1 14  1  0  0  0  0
  1 15  1  0  0  0  0
  1 16  1  0  0  0  0
  1  2  1  0  0  0  0
  2  3  2  0  0  0  0
  2 12  1  0  0  0  0
  3  4  1  0  0  0  0
  4  5  2  0  0  0  0
  5 12  1  0  0  0  0
  5  6  1  0  0  0  0
  6 11  1  0  0  0  0
  6  7  1  0  0  0  0
  6 17  1  0  0  0  0
  7  8  1  0  0  0  0
  7 18  1  0  0  0  0
  7 19  1  0  0  0  0
  8  9  1  0  0  0  0
  8 20  1  0  0  0  0
  8 25  1  0  0  0  0
  9 10  1  0  0  0  0
  9 21  1  0  0  0  0
  9 22  1  0  0  0  0
 10 11  1  0  0  0  0
 10 23  1  0  0  0  0
 10 24  1  0  0  0  0
 12 13  1  0  0  0  0
M  CHG  1   8   1
M  END
> <s_m_source_file>
AV-unprocessed.smi

> <i_m_source_file_index>
2568

> <i_lp_mmshare_version>
43012

> <i_f3d_flags>
0

> <s_epik_input>
W0NIM11jMW5bbkhdYyhuMSlbQ0BASF0yW0NIMl1bTkhdW0NIMl1bQ0gyXU8y

> <s_epik_cmdline>
J2VwaWtfcHl0aG9uJywgJy1waCcsICc3LjAnLCAnLXRuJywgJzgnLCAnLW1hJywgJzIwMCcsICctbWV0YWxfYmluZGluZycsICctaW1hZScsICc8aW5maWxlLm1hZT4nLCAnLW9tYWUnLCAnPG91dGZpbGUubWFlPic=

> <r_lp_tautomer_probability>
0.0517155

> <r_epik_Ionization_Penalty>
0.290065

> <r_epik_Ionization_Penalty_Charging>
0.125708

> <r_epik_Ionization_Penalty_Neutral>
0.164357

> <r_epik_State_Penalty>
2.14308

> <r_epik_Charging_Adjusted_Penalty>
2.26879

> <i_epik_Tot_Q>
1

> <i_epik_Tot_abs_Q>
1

> <r_epik_Metal_State_Penalty>
2.44434

> <b_epik_Metal_Only>
0

> <s_lp_Force_Field>
OPLS_2005

> <r_lp_Energy>
13.5699

> <b_lp_Chiralities_Consistent>
1

> <s_lp_Variant>
AV-unprocessed.smi:2568-8

> <Gold.Version>
5.8.1

> <Gold.Id.Protein>
6NUR|6NUR_protein|mol2

> <Gold.PLP.Fitness>
33.6747

> <Gold.PLP.PLP>
-21.8715

> <Gold.PLP.part.hbond>
-2.9555

> <Gold.PLP.part.metal>
0.0000

> <Gold.PLP.part.buried>
-4.0359

> <Gold.PLP.part.nonpolar>
-16.5828

> <Gold.PLP.part.repulsive>
0.2825

> <Gold.PLP.ligand.clash>
0.0000

> <Gold.PLP.ligand.torsion>
0.0131

> <Gold.PLP.Chemscore.Hbond>
3.9428

> <Gold.PLP.Chemscore.CHOScore>
0.0000

> <Gold.PLP.Chemscore.Metal>
0.0000

> <Gold.Chemscore.Hbonds>
donor molecule, donor type, donor heavy atom, donor atom, acceptor molecule, acceptor atom, score
      L1  H     8    20       P1  7957  0.76
      L1  H     8    25       P1  7948  2.00
      L1  H    12    13       P1  8028  1.00

> <Gold.PLP.Chemscore.Internal.Correction>
0.0011

> <Gold.Rescore>
     Score         DG    S(hbond)    S(metal)    S(lipo)     H(rot)  DE(clash)    DE(int)     intcor
     16.87     -16.87       2.85        0.00      37.97       1.00       0.00       0.00       ----

> <Gold.Chemscore.Fitness>
16.8711

> <Gold.Chemscore.DG>
-16.8715

> <Gold.Chemscore.ZeroCoef>
-5.4800

> <Gold.Chemscore.Hbond>
2.8469

> <Gold.Chemscore.Metal>
0.0000

> <Gold.Chemscore.Lipo>
37.9734

> <Gold.Chemscore.Internal_Hbond>
0.0000

> <Gold.Chemscore.DEClash>
0.0000

> <Gold.Chemscore.DEInternal>
0.0005

> <Gold.Chemscore.Rot>
1.0000

> <Gold.Chemscore.Internal.Correction>
   9.000000E+99

> <Gold.Chemscore.Hbonds>
donor molecule, donor type, donor heavy atom, donor atom, acceptor molecule, acceptor atom, score
      L1  H     8    20       P1  7957  0.77
      L1  H     8    25       P1  7948  0.97
      L1  H    12    13       P1  8028  1.00

> <Gold.Chemscore.Hbond.Weighted>
-9.5086

> <Gold.Chemscore.Metal.Weighted>
-0.0000

> <Gold.Chemscore.Lipo.Weighted>
-4.4429

> <Gold.Chemscore.Internal_Hbond.Weighted>
0.0000

> <Gold.Chemscore.DEClash.Weighted>
0.0000

> <Gold.Chemscore.DEInternal.Weighted>
0.0005

> <Gold.Chemscore.Rot.Weighted>
2.5600

> <Gold.Chemscore.Internal.Correction.Weighted>
   9.000000E+99

> <Gold.Protein.RotatedTorsions>
[ 6907 6896 6895 6894 ] final   97.05 input  -60.11 | X-H torsion
[ 7974 7965 7964 7962 ] final   80.24 input  175.53 | X-H torsion
[ 8008 7997 7996 7995 ] final  167.74 input   59.86 | X-H torsion
[ 10167 10162 10161 10158 ] final  163.26 input  -65.29 | X-H torsion
[ 10718 10713 10712 10709 ] final  -55.54 input   66.30 | X-H torsion
[ 10763 10752 10751 10750 ] final  -33.02 input  -60.55 | X-H torsion
[ 11005 11000 10999 10996 ] final  135.60 input  -57.11 | X-H torsion

> <Gold.Protein.ActiveResidues>
 VAL166  LYS551  ARG553  GLY616  TRP617  ASP618  TYR619  PRO620  LYS621  CYS622 
 ASP623  PHE694  ASN695  SER759  ASP760  ASP761  ALA762  ILE779  LEU786  VAL792 
 PHE793  MET794  SER795  GLU796  ALA797  LYS798  CYS799  TRP800  GLU811  SER814 

> <Gold.Protein.RotatedAtoms>
  152.5428  134.0793  159.8228 H   0  0  0  0  0  0  0  0  0  0  0  0  # atno 6907 bound_to 6896
  151.0897  133.5318  159.2623 H   0  0  0  0  0  0  0  0  0  0  0  0  # atno 6908 bound_to 6896
  151.2114  135.0491  159.8967 H   0  0  0  0  0  0  0  0  0  0  0  0  # atno 6909 bound_to 6896
  145.6538  139.2454  143.1962 H   0  0  0  0  0  0  0  0  0  0  0  0  # atno 7974 bound_to 7965
  156.1607  140.1609  156.8616 H   0  0  0  0  0  0  0  0  0  0  0  0  # atno 8008 bound_to 7997
  154.5158  140.0790  156.8114 H   0  0  0  0  0  0  0  0  0  0  0  0  # atno 8009 bound_to 7997
  155.3713  140.3400  155.4245 H   0  0  0  0  0  0  0  0  0  0  0  0  # atno 8010 bound_to 7997
  139.4871  144.4355  151.9017 H   0  0  0  0  0  0  0  0  0  0  0  0  # atno 10167 bound_to 10162
  156.1360  130.4157  150.0184 H   0  0  0  0  0  0  0  0  0  0  0  0  # atno 10718 bound_to 10713
  153.8234  135.6872  153.4824 H   0  0  0  0  0  0  0  0  0  0  0  0  # atno 10763 bound_to 10752
  153.1555  135.4601  154.9696 H   0  0  0  0  0  0  0  0  0  0  0  0  # atno 10764 bound_to 10752
  154.7918  135.3304  154.7704 H   0  0  0  0  0  0  0  0  0  0  0  0  # atno 10765 bound_to 10752
  139.9990  134.9486  157.0030 H   0  0  0  0  0  0  0  0  0  0  0  0  # atno 11005 bound_to 11000
  146.1182  140.7343  142.9470 LP  0  0  0  0  0  0  0  0  0  0  0  0  # atno 17320 bound_to 7965
  144.7113  140.4049  143.7078 LP  0  0  0  0  0  0  0  0  0  0  0  0  # atno 17321 bound_to 7965
  140.3804  144.2743  150.5909 LP  0  0  0  0  0  0  0  0  0  0  0  0  # atno 17342 bound_to 10162
  140.5238  143.2259  151.8347 LP  0  0  0  0  0  0  0  0  0  0  0  0  # atno 17343 bound_to 10162
  156.8083  130.9315  151.3644 LP  0  0  0  0  0  0  0  0  0  0  0  0  # atno 17370 bound_to 10713
  157.6533  130.8903  149.9677 LP  0  0  0  0  0  0  0  0  0  0  0  0  # atno 17371 bound_to 10713
  140.4763  134.1335  155.7210 LP  0  0  0  0  0  0  0  0  0  0  0  0  # atno 17394 bound_to 11000
  141.1627  133.8762  157.1802 LP  0  0  0  0  0  0  0  0  0  0  0  0  # atno 17395 bound_to 11000

$$$$
