AV-unprocessed.smi:3290|AV-procd|sdf|12618|dock9
  -GOLD-   2272018553D 1   1.00000     0.00000
 Structure written by MMmdl.
 43 44  0  0  0  0  0  0  0  0  2 V2000
  151.7912  144.9871  160.7268 C   0  0  0  0  0  0  0  0  0  0  0  0
  152.5539  143.7637  160.1868 C   0  0  1  0  0  0  0  0  0  0  0  0
  152.9038  142.8188  161.3561 C   0  0  0  0  0  0  0  0  0  0  0  0
  153.7151  141.6022  160.8918 C   0  0  0  0  0  0  0  0  0  0  0  0
  152.9688  140.8384  159.7926 C   0  0  0  0  0  0  0  0  0  0  0  0
  152.6259  141.7667  158.6192 C   0  0  0  0  0  0  0  0  0  0  0  0
  151.7968  142.9925  159.0643 C   0  0  2  0  0  0  0  0  0  0  0  0
  151.4643  143.8614  157.8298 C   0  0  0  0  0  0  0  0  0  0  0  0
  150.9453  143.0567  156.7059 N   0  3  0  0  0  0  0  0  0  0  0  0
  150.0143  141.9838  157.1088 C   0  0  0  0  0  0  0  0  0  0  0  0
  149.4668  141.2256  155.8869 C   0  0  1  0  0  0  0  0  0  0  0  0
  149.1802  142.1592  154.8633 O   0  0  0  0  0  0  0  0  0  0  0  0
  150.4441  140.1590  155.4186 C   0  0  0  0  0  0  0  0  0  0  0  0
  151.7478  140.0977  155.9536 C   0  0  0  0  0  0  0  0  0  0  0  0
  152.6217  139.0952  155.4868 C   0  0  0  0  0  0  0  0  0  0  0  0
  152.2758  138.1883  154.5485 N   0  0  0  0  0  0  0  0  0  0  0  0
  151.0279  138.2523  154.0378 C   0  0  0  0  0  0  0  0  0  0  0  0
  150.0781  139.2142  154.4353 C   0  0  0  0  0  0  0  0  0  0  0  0
  150.7928  144.7143  161.0697 H   0  0  0  0  0  0  0  0  0  0  0  0
  151.6928  145.7678  159.9732 H   0  0  0  0  0  0  0  0  0  0  0  0
  152.3182  145.4350  161.5700 H   0  0  0  0  0  0  0  0  0  0  0  0
  153.4940  144.1289  159.7703 H   0  0  0  0  0  0  0  0  0  0  0  0
  153.4720  143.3574  162.1155 H   0  0  0  0  0  0  0  0  0  0  0  0
  151.9879  142.4793  161.8422 H   0  0  0  0  0  0  0  0  0  0  0  0
  154.6869  141.9284  160.5190 H   0  0  0  0  0  0  0  0  0  0  0  0
  153.9126  140.9414  161.7364 H   0  0  0  0  0  0  0  0  0  0  0  0
  153.5762  140.0033  159.4422 H   0  0  0  0  0  0  0  0  0  0  0  0
  152.0538  140.4066  160.2004 H   0  0  0  0  0  0  0  0  0  0  0  0
  153.5477  142.0994  158.1394 H   0  0  0  0  0  0  0  0  0  0  0  0
  152.0780  141.1973  157.8673 H   0  0  0  0  0  0  0  0  0  0  0  0
  150.8606  142.6115  159.4764 H   0  0  0  0  0  0  0  0  0  0  0  0
  150.7507  144.6421  158.0973 H   0  0  0  0  0  0  0  0  0  0  0  0
  152.3622  144.3676  157.4727 H   0  0  0  0  0  0  0  0  0  0  0  0
  150.4761  143.6697  156.0546 H   0  0  0  0  0  0  0  0  0  0  0  0
  150.5224  141.2949  157.7857 H   0  0  0  0  0  0  0  0  0  0  0  0
  149.1904  142.4310  157.6668 H   0  0  0  0  0  0  0  0  0  0  0  0
  148.5278  140.7393  156.1554 H   0  0  0  0  0  0  0  0  0  0  0  0
  149.3185  143.0301  155.2049 H   0  0  0  0  0  0  0  0  0  0  0  0
  152.0771  140.7999  156.7054 H   0  0  0  0  0  0  0  0  0  0  0  0
  153.6258  139.0209  155.8774 H   0  0  0  0  0  0  0  0  0  0  0  0
  150.7785  137.5157  153.2884 H   0  0  0  0  0  0  0  0  0  0  0  0
  149.0931  139.2222  153.9921 H   0  0  0  0  0  0  0  0  0  0  0  0
  151.7294  142.6266  156.2354 H   0  0  0  0  0  0  0  0  0  0  0  0
  1  2  1  0  0  0  0
  1 19  1  0  0  0  0
  1 20  1  0  0  0  0
  1 21  1  0  0  0  0
  2  7  1  0  0  0  0
  2  3  1  0  0  0  0
  2 22  1  0  0  0  0
  3  4  1  0  0  0  0
  3 23  1  0  0  0  0
  3 24  1  0  0  0  0
  4  5  1  0  0  0  0
  4 25  1  0  0  0  0
  4 26  1  0  0  0  0
  5  6  1  0  0  0  0
  5 27  1  0  0  0  0
  5 28  1  0  0  0  0
  6  7  1  0  0  0  0
  6 29  1  0  0  0  0
  6 30  1  0  0  0  0
  7  8  1  0  0  0  0
  7 31  1  0  0  0  0
  8  9  1  0  0  0  0
  8 32  1  0  0  0  0
  8 33  1  0  0  0  0
  9 10  1  0  0  0  0
  9 34  1  0  0  0  0
  9 43  1  0  0  0  0
 10 11  1  0  0  0  0
 10 35  1  0  0  0  0
 10 36  1  0  0  0  0
 11 12  1  0  0  0  0
 11 13  1  0  0  0  0
 11 37  1  0  0  0  0
 12 38  1  0  0  0  0
 13 18  1  0  0  0  0
 13 14  2  0  0  0  0
 14 15  1  0  0  0  0
 14 39  1  0  0  0  0
 15 16  2  0  0  0  0
 15 40  1  0  0  0  0
 16 17  1  0  0  0  0
 17 18  2  0  0  0  0
 17 41  1  0  0  0  0
 18 42  1  0  0  0  0
M  CHG  1   9   1
M  END
> <s_m_source_file>
AV-unprocessed.smi

> <i_m_source_file_index>
3290

> <i_lp_mmshare_version>
43012

> <i_f3d_flags>
0

> <s_epik_input>
W0NIM11bQ0BASF0xW0NIMl1bQ0gyXVtDSDJdW0NIMl1bQ0BIXTFbQ0gyXVtOSF1bQ0gyXVtDQEhdKFtPSF0pYzJbY0hdW2NIXW5bY0hdW2NIXTI=

> <s_epik_cmdline>
J2VwaWtfcHl0aG9uJywgJy1waCcsICc3LjAnLCAnLXRuJywgJzgnLCAnLW1hJywgJzIwMCcsICctbWV0YWxfYmluZGluZycsICctaW1hZScsICc8aW5maWxlLm1hZT4nLCAnLW9tYWUnLCAnPG91dGZpbGUubWFlPic=

> <r_lp_tautomer_probability>
1

> <r_epik_Ionization_Penalty>
0.00420552

> <r_epik_Ionization_Penalty_Charging>
0.00207255

> <r_epik_Ionization_Penalty_Neutral>
0.00213297

> <r_epik_State_Penalty>
-0

> <r_epik_Charging_Adjusted_Penalty>
0.00207255

> <i_epik_Tot_Q>
1

> <i_epik_Tot_abs_Q>
1

> <r_epik_Metal_State_Penalty>
-0

> <b_epik_Metal_Only>
0

> <s_lp_Force_Field>
OPLS_2005

> <r_lp_Energy>
17.3555

> <b_lp_Chiralities_Consistent>
1

> <s_lp_Variant>
AV-unprocessed.smi:3290-8

> <Gold.Version>
5.8.1

> <Gold.Id.Protein>
6NUR|6NUR_protein|mol2

> <Gold.PLP.Fitness>
57.6392

> <Gold.PLP.PLP>
-46.8058

> <Gold.PLP.part.hbond>
-2.7510

> <Gold.PLP.part.metal>
0.0000

> <Gold.PLP.part.buried>
-6.1736

> <Gold.PLP.part.nonpolar>
-39.0836

> <Gold.PLP.part.repulsive>
0.1481

> <Gold.PLP.ligand.clash>
0.0000

> <Gold.PLP.ligand.torsion>
0.4929

> <Gold.PLP.Chemscore.Hbond>
2.7920

> <Gold.PLP.Chemscore.CHOScore>
1.1272

> <Gold.PLP.Chemscore.Metal>
0.0000

> <Gold.Chemscore.Hbonds>
donor molecule, donor type, donor heavy atom, donor atom, acceptor molecule, acceptor atom, score
      L1  H     9    34       P1  8028  1.89
      L1  H    12    38       P1  8028  1.00
      L1  C    17    41       P1  7948  0.30
      L1  C    17    41       P1  7949  0.81

> <Gold.PLP.Chemscore.Internal.Correction>
0.0615

> <Gold.Rescore>
     Score         DG    S(hbond)    S(metal)    S(lipo)     H(rot)  DE(clash)    DE(int)     intcor
     22.03     -22.42       1.86        0.00     136.43       2.05       0.03       0.36       ----

> <Gold.Chemscore.Fitness>
22.0338

> <Gold.Chemscore.DG>
-22.4227

> <Gold.Chemscore.ZeroCoef>
-5.4800

> <Gold.Chemscore.Hbond>
1.8648

> <Gold.Chemscore.Metal>
0.0000

> <Gold.Chemscore.Lipo>
136.4257

> <Gold.Chemscore.Internal_Hbond>
0.0000

> <Gold.Chemscore.DEClash>
0.0279

> <Gold.Chemscore.DEInternal>
0.3610

> <Gold.Chemscore.Rot>
2.0498

> <Gold.Chemscore.Internal.Correction>
   9.000000E+99

> <Gold.Chemscore.Hbonds>
donor molecule, donor type, donor heavy atom, donor atom, acceptor molecule, acceptor atom, score
      L1  H     9    34       P1  8028  0.92
      L1  H    12    38       P1  8028  0.99

> <Gold.Chemscore.Hbond.Weighted>
-6.2284

> <Gold.Chemscore.Metal.Weighted>
-0.0000

> <Gold.Chemscore.Lipo.Weighted>
-15.9618

> <Gold.Chemscore.Internal_Hbond.Weighted>
0.0000

> <Gold.Chemscore.DEClash.Weighted>
0.0279

> <Gold.Chemscore.DEInternal.Weighted>
0.3610

> <Gold.Chemscore.Rot.Weighted>
5.2475

> <Gold.Chemscore.Internal.Correction.Weighted>
   9.000000E+99

> <Gold.Protein.RotatedTorsions>
[ 6907 6896 6895 6894 ] final   -4.86 input  -60.11 | X-H torsion
[ 7974 7965 7964 7962 ] final   74.01 input  175.53 | X-H torsion
[ 8008 7997 7996 7995 ] final  157.86 input   59.86 | X-H torsion
[ 10167 10162 10161 10158 ] final  106.91 input  -65.29 | X-H torsion
[ 10718 10713 10712 10709 ] final -138.81 input   66.30 | X-H torsion
[ 10763 10752 10751 10750 ] final  -66.42 input  -60.55 | X-H torsion
[ 11005 11000 10999 10996 ] final  -94.36 input  -57.11 | X-H torsion

> <Gold.Protein.ActiveResidues>
 VAL166  LYS551  ARG553  GLY616  TRP617  ASP618  TYR619  PRO620  LYS621  CYS622 
 ASP623  PHE694  ASN695  SER759  ASP760  ASP761  ALA762  ILE779  LEU786  VAL792 
 PHE793  MET794  SER795  GLU796  ALA797  LYS798  CYS799  TRP800  GLU811  SER814 

> <Gold.Protein.RotatedAtoms>
  151.4908  135.1057  159.9802 H   0  0  0  0  0  0  0  0  0  0  0  0  # atno 6907 bound_to 6896
  152.4741  133.8094  159.7006 H   0  0  0  0  0  0  0  0  0  0  0  0  # atno 6908 bound_to 6896
  150.8769  133.7365  159.2970 H   0  0  0  0  0  0  0  0  0  0  0  0  # atno 6909 bound_to 6896
  145.7336  139.2693  143.1527 H   0  0  0  0  0  0  0  0  0  0  0  0  # atno 7974 bound_to 7965
  156.2338  140.1874  156.7173 H   0  0  0  0  0  0  0  0  0  0  0  0  # atno 8008 bound_to 7997
  154.6070  140.0627  156.9471 H   0  0  0  0  0  0  0  0  0  0  0  0  # atno 8009 bound_to 7997
  155.2080  140.3297  155.4335 H   0  0  0  0  0  0  0  0  0  0  0  0  # atno 8010 bound_to 7997
  139.6970  144.7100  151.1250 H   0  0  0  0  0  0  0  0  0  0  0  0  # atno 10167 bound_to 10162
  156.3036  130.7442  151.1500 H   0  0  0  0  0  0  0  0  0  0  0  0  # atno 10718 bound_to 10713
  154.3596  135.6119  153.5684 H   0  0  0  0  0  0  0  0  0  0  0  0  # atno 10763 bound_to 10752
  152.9794  135.5812  154.4648 H   0  0  0  0  0  0  0  0  0  0  0  0  # atno 10764 bound_to 10752
  154.4384  135.2849  155.1842 H   0  0  0  0  0  0  0  0  0  0  0  0  # atno 10765 bound_to 10752
  141.1472  133.7951  157.0287 H   0  0  0  0  0  0  0  0  0  0  0  0  # atno 11005 bound_to 11000
  146.0514  140.8065  142.9780 LP  0  0  0  0  0  0  0  0  0  0  0  0  # atno 17320 bound_to 7965
  144.6887  140.3058  143.7256 LP  0  0  0  0  0  0  0  0  0  0  0  0  # atno 17321 bound_to 7965
  140.7699  143.5477  150.9240 LP  0  0  0  0  0  0  0  0  0  0  0  0  # atno 17342 bound_to 10162
  139.9157  143.6666  152.3106 LP  0  0  0  0  0  0  0  0  0  0  0  0  # atno 17343 bound_to 10162
  157.7374  131.0552  150.5357 LP  0  0  0  0  0  0  0  0  0  0  0  0  # atno 17370 bound_to 10713
  156.5488  130.4226  149.6118 LP  0  0  0  0  0  0  0  0  0  0  0  0  # atno 17371 bound_to 10713
  140.0768  134.9671  157.1559 LP  0  0  0  0  0  0  0  0  0  0  0  0  # atno 17394 bound_to 11000
  140.3632  134.2471  155.7185 LP  0  0  0  0  0  0  0  0  0  0  0  0  # atno 17395 bound_to 11000

$$$$
