AV-unprocessed.smi:3261|AV-procd|sdf|12481|dock8
  -GOLD-   2272018383D 1   1.00000     0.00000
 Structure written by MMmdl.
 31 32  0  0  0  0  0  0  0  0  2 V2000
  147.0354  133.4012  153.8294 O   0  0  0  0  0  0  0  0  0  0  0  0
  147.6019  132.6902  153.0027 C   0  0  0  0  0  0  0  0  0  0  0  0
  147.0418  132.2440  151.8605 N   0  0  0  0  0  0  0  0  0  0  0  0
  145.7496  132.5129  151.3314 C   0  0  0  0  0  0  0  0  0  0  0  0
  145.5220  132.1844  149.9765 C   0  0  0  0  0  0  0  0  0  0  0  0
  144.2632  132.4460  149.3979 C   0  0  0  0  0  0  0  0  0  0  0  0
  143.2887  133.0156  150.1385 N   0  3  0  0  0  0  0  0  0  0  0  0
  143.4619  133.3595  151.4326 C   0  0  0  0  0  0  0  0  0  0  0  0
  144.6992  133.1218  152.0654 C   0  0  0  0  0  0  0  0  0  0  0  0
  148.8633  132.2666  153.2020 N   0  0  0  0  0  0  0  0  0  0  0  0
  149.7533  132.5602  154.3267 C   0  0  1  0  0  0  0  0  0  0  0  0
  149.8857  134.0790  154.5444 C   0  0  0  0  0  0  0  0  0  0  0  0
  150.5191  134.3262  155.9196 C   0  0  0  0  0  0  0  0  0  0  0  0
  149.9968  132.9258  156.9813 S   0  0  0  0  0  0  0  0  0  0  0  0
  151.1945  132.2293  157.4746 O   0  0  0  0  0  0  0  0  0  0  0  0
  148.9435  133.3702  157.9063 O   0  0  0  0  0  0  0  0  0  0  0  0
  149.2363  131.9429  155.6359 C   0  0  0  0  0  0  0  0  0  0  0  0
  147.6017  131.5988  151.3225 H   0  0  0  0  0  0  0  0  0  0  0  0
  146.3026  131.7311  149.3824 H   0  0  0  0  0  0  0  0  0  0  0  0
  144.0094  132.2203  148.3723 H   0  0  0  0  0  0  0  0  0  0  0  0
  142.6130  133.8172  151.9195 H   0  0  0  0  0  0  0  0  0  0  0  0
  144.8170  133.4239  153.0943 H   0  0  0  0  0  0  0  0  0  0  0  0
  149.2430  131.6517  152.4962 H   0  0  0  0  0  0  0  0  0  0  0  0
  150.7542  132.1745  154.1256 H   0  0  0  0  0  0  0  0  0  0  0  0
  150.4615  134.5544  153.7497 H   0  0  0  0  0  0  0  0  0  0  0  0
  148.8935  134.5324  154.5319 H   0  0  0  0  0  0  0  0  0  0  0  0
  151.6073  134.3100  155.8535 H   0  0  0  0  0  0  0  0  0  0  0  0
  150.2122  135.2727  156.3649 H   0  0  0  0  0  0  0  0  0  0  0  0
  148.1539  132.0480  155.7208 H   0  0  0  0  0  0  0  0  0  0  0  0
  149.4938  130.8900  155.7504 H   0  0  0  0  0  0  0  0  0  0  0  0
  142.3854  133.1986  149.7008 H   0  0  0  0  0  0  0  0  0  0  0  0
  1  2  2  0  0  0  0
  2  3  1  0  0  0  0
  2 10  1  0  0  0  0
  3  4  1  0  0  0  0
  3 18  1  0  0  0  0
  4  9  1  0  0  0  0
  4  5  2  0  0  0  0
  5  6  1  0  0  0  0
  5 19  1  0  0  0  0
  6  7  2  0  0  0  0
  6 20  1  0  0  0  0
  7  8  1  0  0  0  0
  7 31  1  0  0  0  0
  8  9  2  0  0  0  0
  8 21  1  0  0  0  0
  9 22  1  0  0  0  0
 10 11  1  0  0  0  0
 10 23  1  0  0  0  0
 11 17  1  0  0  0  0
 11 12  1  0  0  0  0
 11 24  1  0  0  0  0
 12 13  1  0  0  0  0
 12 25  1  0  0  0  0
 12 26  1  0  0  0  0
 13 14  1  0  0  0  0
 13 27  1  0  0  0  0
 13 28  1  0  0  0  0
 14 15  2  0  0  0  0
 14 16  2  0  0  0  0
 14 17  1  0  0  0  0
 17 29  1  0  0  0  0
 17 30  1  0  0  0  0
M  CHG  1   7   1
M  END
> <s_m_source_file>
AV-unprocessed.smi

> <i_m_source_file_index>
3261

> <i_lp_mmshare_version>
43012

> <i_f3d_flags>
0

> <s_epik_input>
Tz1TMSg9TylbQ0gyXVtDSDJdW0NASF0oW0NIMl0xKVtOSF1DKD1PKVtOSF1jMltjSF1bY0hdbltjSF1bY0hdMg==

> <s_epik_cmdline>
J2VwaWtfcHl0aG9uJywgJy1waCcsICc3LjAnLCAnLXRuJywgJzgnLCAnLW1hJywgJzIwMCcsICctbWV0YWxfYmluZGluZycsICctaW1hZScsICc8aW5maWxlLm1hZT4nLCAnLW9tYWUnLCAnPG91dGZpbGUubWFlPic=

> <r_epik_Ionization_Penalty>
1.10375

> <r_epik_Ionization_Penalty_Charging>
1.10372

> <r_epik_Ionization_Penalty_Neutral>
2.06752e-05

> <r_epik_State_Penalty>
1.16109

> <r_epik_Charging_Adjusted_Penalty>
2.26482

> <i_epik_Tot_Q>
1

> <i_epik_Tot_abs_Q>
1

> <r_epik_Metal_State_Penalty>
1.24883

> <b_epik_Metal_Only>
0

> <s_lp_Force_Field>
OPLS_2005

> <r_lp_Energy>
25.5271

> <b_lp_Chiralities_Consistent>
1

> <s_lp_Variant>
AV-unprocessed.smi:3261-4

> <Gold.Version>
5.8.1

> <Gold.Id.Protein>
6NUR|6NUR_protein|mol2

> <Gold.PLP.Fitness>
41.8260

> <Gold.PLP.PLP>
-30.1530

> <Gold.PLP.part.hbond>
-3.6182

> <Gold.PLP.part.metal>
0.0000

> <Gold.PLP.part.buried>
-5.4621

> <Gold.PLP.part.nonpolar>
-20.7709

> <Gold.PLP.part.repulsive>
0.1421

> <Gold.PLP.ligand.clash>
0.0000

> <Gold.PLP.ligand.torsion>
0.0812

> <Gold.PLP.Chemscore.Hbond>
3.9449

> <Gold.PLP.Chemscore.CHOScore>
0.0000

> <Gold.PLP.Chemscore.Metal>
0.0000

> <Gold.Chemscore.Hbonds>
donor molecule, donor type, donor heavy atom, donor atom, acceptor molecule, acceptor atom, score
      L1  H     3    18       P1 10747  1.00
      L1  H     7    31       P1 10186  1.79
      L1  H    10    23       P1 10747  0.21
      P1  H  6896  6908       L1    15  0.83

> <Gold.PLP.Chemscore.Internal.Correction>
0.0005

> <Gold.Rescore>
     Score         DG    S(hbond)    S(metal)    S(lipo)     H(rot)  DE(clash)    DE(int)     intcor
     17.91     -19.21       2.65        0.00      63.56       1.00       0.07       1.23       ----

> <Gold.Chemscore.Fitness>
17.9068

> <Gold.Chemscore.DG>
-19.2086

> <Gold.Chemscore.ZeroCoef>
-5.4800

> <Gold.Chemscore.Hbond>
2.6502

> <Gold.Chemscore.Metal>
0.0000

> <Gold.Chemscore.Lipo>
63.5648

> <Gold.Chemscore.Internal_Hbond>
0.0000

> <Gold.Chemscore.DEClash>
0.0705

> <Gold.Chemscore.DEInternal>
1.2313

> <Gold.Chemscore.Rot>
1.0000

> <Gold.Chemscore.Internal.Correction>
   9.000000E+99

> <Gold.Chemscore.Hbonds>
donor molecule, donor type, donor heavy atom, donor atom, acceptor molecule, acceptor atom, score
      L1  H     3    18       P1 10747  1.00
      L1  H     7    31       P1 10186  0.88
      L1  H    10    23       P1 10747  0.09
      P1  H  6896  6908       L1    15  0.24

> <Gold.Chemscore.Hbond.Weighted>
-8.8515

> <Gold.Chemscore.Metal.Weighted>
-0.0000

> <Gold.Chemscore.Lipo.Weighted>
-7.4371

> <Gold.Chemscore.Internal_Hbond.Weighted>
0.0000

> <Gold.Chemscore.DEClash.Weighted>
0.0705

> <Gold.Chemscore.DEInternal.Weighted>
1.2313

> <Gold.Chemscore.Rot.Weighted>
2.5600

> <Gold.Chemscore.Internal.Correction.Weighted>
   9.000000E+99

> <Gold.Protein.RotatedTorsions>
[ 6907 6896 6895 6894 ] final   64.94 input  -60.11 | X-H torsion
[ 7974 7965 7964 7962 ] final -129.44 input  175.53 | X-H torsion
[ 8008 7997 7996 7995 ] final -106.34 input   59.86 | X-H torsion
[ 10167 10162 10161 10158 ] final  101.63 input  -65.29 | X-H torsion
[ 10718 10713 10712 10709 ] final   -2.14 input   66.30 | X-H torsion
[ 10763 10752 10751 10750 ] final -168.83 input  -60.55 | X-H torsion
[ 11005 11000 10999 10996 ] final   98.39 input  -57.11 | X-H torsion

> <Gold.Protein.ActiveResidues>
 VAL166  LYS551  ARG553  GLY616  TRP617  ASP618  TYR619  PRO620  LYS621  CYS622 
 ASP623  PHE694  ASN695  SER759  ASP760  ASP761  ALA762  ILE779  LEU786  VAL792 
 PHE793  MET794  SER795  GLU796  ALA797  LYS798  CYS799  TRP800  GLU811  SER814 

> <Gold.Protein.RotatedAtoms>
  152.4370  134.5667  159.9909 H   0  0  0  0  0  0  0  0  0  0  0  0  # atno 6907 bound_to 6896
  151.5775  133.3376  159.3010 H   0  0  0  0  0  0  0  0  0  0  0  0  # atno 6908 bound_to 6896
  150.8269  134.7539  159.6885 H   0  0  0  0  0  0  0  0  0  0  0  0  # atno 6909 bound_to 6896
  144.9572  140.7408  143.4751 H   0  0  0  0  0  0  0  0  0  0  0  0  # atno 7974 bound_to 7965
  154.9131  140.0409  157.1957 H   0  0  0  0  0  0  0  0  0  0  0  0  # atno 8008 bound_to 7997
  154.8328  140.2902  155.5689 H   0  0  0  0  0  0  0  0  0  0  0  0  # atno 8009 bound_to 7997
  156.2988  140.2497  156.3257 H   0  0  0  0  0  0  0  0  0  0  0  0  # atno 8010 bound_to 7997
  139.7421  144.7008  151.0560 H   0  0  0  0  0  0  0  0  0  0  0  0  # atno 10167 bound_to 10162
  156.7952  130.5375  149.5729 H   0  0  0  0  0  0  0  0  0  0  0  0  # atno 10718 bound_to 10713
  154.6587  135.2922  154.9894 H   0  0  0  0  0  0  0  0  0  0  0  0  # atno 10763 bound_to 10752
  154.0961  135.6583  153.4864 H   0  0  0  0  0  0  0  0  0  0  0  0  # atno 10764 bound_to 10752
  153.0417  135.5231  154.7528 H   0  0  0  0  0  0  0  0  0  0  0  0  # atno 10765 bound_to 10752
  139.8772  134.9047  156.4450 H   0  0  0  0  0  0  0  0  0  0  0  0  # atno 11005 bound_to 11000
  145.2755  139.1938  143.4819 LP  0  0  0  0  0  0  0  0  0  0  0  0  # atno 17320 bound_to 7965
  146.3341  140.2708  142.8606 LP  0  0  0  0  0  0  0  0  0  0  0  0  # atno 17321 bound_to 7965
  140.7787  143.4912  150.9891 LP  0  0  0  0  0  0  0  0  0  0  0  0  # atno 17342 bound_to 10162
  139.8600  143.7327  152.3174 LP  0  0  0  0  0  0  0  0  0  0  0  0  # atno 17343 bound_to 10162
  156.1135  130.6057  151.0084 LP  0  0  0  0  0  0  0  0  0  0  0  0  # atno 17370 bound_to 10713
  157.6581  131.0886  150.7901 LP  0  0  0  0  0  0  0  0  0  0  0  0  # atno 17371 bound_to 10713
  140.8973  133.7805  155.9639 LP  0  0  0  0  0  0  0  0  0  0  0  0  # atno 17394 bound_to 11000
  140.8689  134.2750  157.5200 LP  0  0  0  0  0  0  0  0  0  0  0  0  # atno 17395 bound_to 11000

$$$$
