AV-unprocessed.smi:199|AV-procd|sdf|1560|dock1
  -GOLD-   2262019433D 1   1.00000     0.00000
 Structure written by MMmdl.
 51 55  0  0  0  0  0  0  0  0  1 V2000
  147.0205  133.3244  162.0048 C   0  0  0  0  0  0  0  0  0  0  0  0
  146.5409  134.7219  162.4271 C   0  0  2  0  0  0  0  0  0  0  0  0
  145.1681  134.6139  162.7956 O   0  0  0  0  0  0  0  0  0  0  0  0
  144.5170  135.8379  162.5043 C   0  0  0  0  0  0  0  0  0  0  0  0
  145.1363  136.2264  161.1710 C   0  0  0  0  0  0  0  0  0  0  0  0
  146.6022  135.8398  161.3475 C   0  0  1  0  0  0  0  0  0  0  0  0
  147.2772  136.9490  161.9183 O   0  0  0  0  0  0  0  0  0  0  0  0
  147.3133  135.4783  160.0162 C   0  0  0  0  0  0  0  0  0  0  0  0
  147.6456  136.6395  159.2037 N   0  0  0  0  0  0  0  0  0  0  0  0
  146.7623  137.5488  158.6683 C   0  0  0  0  0  0  0  0  0  0  0  0
  147.3054  138.5038  157.9650 N   0  0  0  0  0  0  0  0  0  0  0  0
  148.6698  138.2456  158.0289 C   0  0  0  0  0  0  0  0  0  0  0  0
  149.8302  138.8751  157.4918 C   0  0  0  0  0  0  0  0  0  0  0  0
  149.7901  139.9938  156.7178 N   0  0  0  0  0  0  0  0  0  0  0  0
  150.9926  140.7837  156.5110 C   0  0  1  0  0  0  0  0  0  0  0  0
  151.8225  139.9483  155.5163 C   0  0  0  0  0  0  0  0  0  0  0  0
  150.7172  139.3298  154.6463 C   0  0  0  0  0  0  0  0  0  0  0  0
  149.4505  139.9213  155.3025 C   0  0  2  0  0  0  0  0  0  0  0  0
  149.3369  141.4096  154.9043 C   0  0  1  0  0  0  0  0  0  0  0  0
  147.9464  142.0133  155.1747 C   0  0  0  0  0  0  0  0  0  0  0  0
  147.9079  143.3621  154.7597 O   0  0  0  0  0  0  0  0  0  0  0  0
  150.4388  142.0250  155.7915 C   0  0  0  0  0  0  0  0  0  0  0  0
  151.0303  138.2908  157.7510 N   0  0  0  0  0  0  0  0  0  0  0  0
  151.1009  137.1908  158.5054 C   0  0  0  0  0  0  0  0  0  0  0  0
  150.1094  136.5102  159.0814 N   0  0  0  0  0  0  0  0  0  0  0  0
  148.8986  137.0735  158.8063 C   0  0  0  0  0  0  0  0  0  0  0  0
  148.0730  133.3321  161.7214 H   0  0  0  0  0  0  0  0  0  0  0  0
  146.4417  132.9395  161.1650 H   0  0  0  0  0  0  0  0  0  0  0  0
  146.9108  132.6168  162.8270 H   0  0  0  0  0  0  0  0  0  0  0  0
  147.0978  135.0208  163.3172 H   0  0  0  0  0  0  0  0  0  0  0  0
  143.4350  135.7170  162.4492 H   0  0  0  0  0  0  0  0  0  0  0  0
  144.7460  136.5741  163.2762 H   0  0  0  0  0  0  0  0  0  0  0  0
  144.6796  135.6197  160.3887 H   0  0  0  0  0  0  0  0  0  0  0  0
  144.9826  137.2748  160.9118 H   0  0  0  0  0  0  0  0  0  0  0  0
  147.0533  136.9972  162.8350 H   0  0  0  0  0  0  0  0  0  0  0  0
  148.2352  134.9302  160.2144 H   0  0  0  0  0  0  0  0  0  0  0  0
  146.6867  134.8203  159.4135 H   0  0  0  0  0  0  0  0  0  0  0  0
  145.6938  137.4759  158.8095 H   0  0  0  0  0  0  0  0  0  0  0  0
  151.5456  141.0476  157.4107 H   0  0  0  0  0  0  0  0  0  0  0  0
  152.5257  140.5535  154.9429 H   0  0  0  0  0  0  0  0  0  0  0  0
  152.3861  139.1703  156.0330 H   0  0  0  0  0  0  0  0  0  0  0  0
  150.8097  139.5921  153.5920 H   0  0  0  0  0  0  0  0  0  0  0  0
  150.7327  138.2419  154.7222 H   0  0  0  0  0  0  0  0  0  0  0  0
  148.5475  139.3524  155.0775 H   0  0  0  0  0  0  0  0  0  0  0  0
  149.5791  141.5487  153.8494 H   0  0  0  0  0  0  0  0  0  0  0  0
  147.1665  141.4538  154.6572 H   0  0  0  0  0  0  0  0  0  0  0  0
  147.7187  141.9761  156.2403 H   0  0  0  0  0  0  0  0  0  0  0  0
  148.5912  143.8344  155.2102 H   0  0  0  0  0  0  0  0  0  0  0  0
  150.0212  142.7274  156.5143 H   0  0  0  0  0  0  0  0  0  0  0  0
  151.2005  142.5518  155.2156 H   0  0  0  0  0  0  0  0  0  0  0  0
  152.0940  136.7997  158.6695 H   0  0  0  0  0  0  0  0  0  0  0  0
  1  2  1  0  0  0  0
  1 27  1  0  0  0  0
  1 28  1  0  0  0  0
  1 29  1  0  0  0  0
  2  6  1  0  0  0  0
  2  3  1  0  0  0  0
  2 30  1  0  0  0  0
  3  4  1  0  0  0  0
  4  5  1  0  0  0  0
  4 31  1  0  0  0  0
  4 32  1  0  0  0  0
  5  6  1  0  0  0  0
  5 33  1  0  0  0  0
  5 34  1  0  0  0  0
  6  7  1  0  0  0  0
  6  8  1  0  0  0  0
  7 35  1  0  0  0  0
  8  9  1  0  0  0  0
  8 36  1  0  0  0  0
  8 37  1  0  0  0  0
  9 26  1  0  0  0  0
  9 10  1  0  0  0  0
 10 11  2  0  0  0  0
 10 38  1  0  0  0  0
 11 12  1  0  0  0  0
 12 26  2  0  0  0  0
 12 13  1  0  0  0  0
 13 14  1  0  0  0  0
 13 23  2  0  0  0  0
 14 18  1  0  0  0  0
 14 15  1  0  0  0  0
 15 22  1  0  0  0  0
 15 16  1  0  0  0  0
 15 39  1  0  0  0  0
 16 17  1  0  0  0  0
 16 40  1  0  0  0  0
 16 41  1  0  0  0  0
 17 18  1  0  0  0  0
 17 42  1  0  0  0  0
 17 43  1  0  0  0  0
 18 19  1  0  0  0  0
 18 44  1  0  0  0  0
 19 20  1  0  0  0  0
 19 22  1  0  0  0  0
 19 45  1  0  0  0  0
 20 21  1  0  0  0  0
 20 46  1  0  0  0  0
 20 47  1  0  0  0  0
 21 48  1  0  0  0  0
 22 49  1  0  0  0  0
 22 50  1  0  0  0  0
 23 24  1  0  0  0  0
 24 25  2  0  0  0  0
 24 51  1  0  0  0  0
 25 26  1  0  0  0  0
M  END
> <s_m_source_file>
AV-unprocessed.smi

> <i_m_source_file_index>
199

> <i_lp_mmshare_version>
43012

> <i_f3d_flags>
0

> <s_epik_input>
W0NIMl0xW0NIMl1PW0NAQEhdKFtDSDNdKVtDQEBdMShbT0hdKVtDSDJdbihbY0hdbjIpYyhjMjMpbltjSF1uYzNOKFtDQEBIXTQ1KVtDQEhdKFtDSDJdW0NIMl00KVtDQEhdKFtDSDJdNSlbQ0gyXVtPSF0=

> <s_epik_cmdline>
J2VwaWtfcHl0aG9uJywgJy1waCcsICc3LjAnLCAnLXRuJywgJzgnLCAnLW1hJywgJzIwMCcsICctbWV0YWxfYmluZGluZycsICctaW1hZScsICc8aW5maWxlLm1hZT4nLCAnLW9tYWUnLCAnPG91dGZpbGUubWFlPic=

> <r_lp_tautomer_probability>
1

> <r_epik_Ionization_Penalty>
0.00583903

> <r_epik_Ionization_Penalty_Charging>
0

> <r_epik_Ionization_Penalty_Neutral>
0.00583903

> <r_epik_State_Penalty>
-0

> <r_epik_Charging_Adjusted_Penalty>
0

> <i_epik_Tot_Q>
0

> <i_epik_Tot_abs_Q>
0

> <r_epik_Metal_State_Penalty>
-0

> <b_epik_Metal_Only>
0

> <s_lp_Force_Field>
OPLS_2005

> <r_lp_Energy>
83.6751

> <b_lp_Chiralities_Consistent>
1

> <s_lp_Variant>
AV-unprocessed.smi:199-1

> <Gold.Version>
5.8.1

> <Gold.Id.Protein>
6NUR|6NUR_protein|mol2

> <Gold.PLP.Fitness>
52.5753

> <Gold.PLP.PLP>
-43.4104

> <Gold.PLP.part.hbond>
-6.0807

> <Gold.PLP.part.metal>
0.0000

> <Gold.PLP.part.buried>
-2.3216

> <Gold.PLP.part.nonpolar>
-34.2923

> <Gold.PLP.part.repulsive>
0.0166

> <Gold.PLP.ligand.clash>
0.0000

> <Gold.PLP.ligand.torsion>
0.7272

> <Gold.PLP.Chemscore.Hbond>
3.5258

> <Gold.PLP.Chemscore.CHOScore>
0.0000

> <Gold.PLP.Chemscore.Metal>
0.0000

> <Gold.Chemscore.Hbonds>
donor molecule, donor type, donor heavy atom, donor atom, acceptor molecule, acceptor atom, score
      P1  H  6896  6909       L1    25  1.00
      P1  H  6931  6943       L1     7  0.59
      P1  H  6934  6947       L1     7  0.30

> <Gold.PLP.Chemscore.Internal.Correction>
0.0417

> <Gold.Rescore>
     Score         DG    S(hbond)    S(metal)    S(lipo)     H(rot)  DE(clash)    DE(int)     intcor
     15.34     -17.72       2.78        0.00      92.52       3.07       0.23       2.14       ----

> <Gold.Chemscore.Fitness>
15.3433

> <Gold.Chemscore.DG>
-17.7166

> <Gold.Chemscore.ZeroCoef>
-5.4800

> <Gold.Chemscore.Hbond>
2.7780

> <Gold.Chemscore.Metal>
0.0000

> <Gold.Chemscore.Lipo>
92.5212

> <Gold.Chemscore.Internal_Hbond>
0.0000

> <Gold.Chemscore.DEClash>
0.2298

> <Gold.Chemscore.DEInternal>
2.1435

> <Gold.Chemscore.Rot>
3.0729

> <Gold.Chemscore.Internal.Correction>
   9.000000E+99

> <Gold.Chemscore.Hbonds>
donor molecule, donor type, donor heavy atom, donor atom, acceptor molecule, acceptor atom, score
      P1  H  6896  6909       L1    25  0.50
      P1  H  6931  6943       L1     7  0.13
      P1  H  6934  6947       L1     7  0.21

> <Gold.Chemscore.Hbond.Weighted>
-9.2784

> <Gold.Chemscore.Metal.Weighted>
-0.0000

> <Gold.Chemscore.Lipo.Weighted>
-10.8250

> <Gold.Chemscore.Internal_Hbond.Weighted>
0.0000

> <Gold.Chemscore.DEClash.Weighted>
0.2298

> <Gold.Chemscore.DEInternal.Weighted>
2.1435

> <Gold.Chemscore.Rot.Weighted>
7.8667

> <Gold.Chemscore.Internal.Correction.Weighted>
   9.000000E+99

> <Gold.Protein.RotatedTorsions>
[ 6907 6896 6895 6894 ] final   75.95 input  -60.11 | X-H torsion
[ 7974 7965 7964 7962 ] final   10.37 input  175.53 | X-H torsion
[ 8008 7997 7996 7995 ] final  -85.15 input   59.86 | X-H torsion
[ 10167 10162 10161 10158 ] final  -23.97 input  -65.29 | X-H torsion
[ 10718 10713 10712 10709 ] final  -75.28 input   66.30 | X-H torsion
[ 10763 10752 10751 10750 ] final  -89.98 input  -60.55 | X-H torsion
[ 11005 11000 10999 10996 ] final   90.12 input  -57.11 | X-H torsion

> <Gold.Protein.ActiveResidues>
 VAL166  LYS551  ARG553  GLY616  TRP617  ASP618  TYR619  PRO620  LYS621  CYS622 
 ASP623  PHE694  ASN695  SER759  ASP760  ASP761  ALA762  ILE779  LEU786  VAL792 
 PHE793  MET794  SER795  GLU796  ALA797  LYS798  CYS799  TRP800  GLU811  SER814 

> <Gold.Protein.RotatedAtoms>
  152.5050  134.4042  159.9426 H   0  0  0  0  0  0  0  0  0  0  0  0  # atno 6907 bound_to 6896
  151.4008  133.3752  159.2739 H   0  0  0  0  0  0  0  0  0  0  0  0  # atno 6908 bound_to 6896
  150.9363  134.8797  159.7643 H   0  0  0  0  0  0  0  0  0  0  0  0  # atno 6909 bound_to 6896
  146.2389  139.9644  142.8454 H   0  0  0  0  0  0  0  0  0  0  0  0  # atno 7974 bound_to 7965
  154.6376  140.0595  156.9807 H   0  0  0  0  0  0  0  0  0  0  0  0  # atno 8008 bound_to 7997
  155.1567  140.3279  155.4401 H   0  0  0  0  0  0  0  0  0  0  0  0  # atno 8009 bound_to 7997
  156.2515  140.1938  156.6676 H   0  0  0  0  0  0  0  0  0  0  0  0  # atno 8010 bound_to 7997
  140.7288  143.4395  151.0678 H   0  0  0  0  0  0  0  0  0  0  0  0  # atno 10167 bound_to 10162
  156.0213  130.4437  150.3019 H   0  0  0  0  0  0  0  0  0  0  0  0  # atno 10718 bound_to 10713
  154.6610  135.5321  153.8018 H   0  0  0  0  0  0  0  0  0  0  0  0  # atno 10763 bound_to 10752
  153.0442  135.6505  154.0872 H   0  0  0  0  0  0  0  0  0  0  0  0  # atno 10764 bound_to 10752
  154.0781  135.2949  155.3275 H   0  0  0  0  0  0  0  0  0  0  0  0  # atno 10765 bound_to 10752
  139.8862  134.8594  156.3239 H   0  0  0  0  0  0  0  0  0  0  0  0  # atno 11005 bound_to 11000
  145.1741  140.9735  143.4305 LP  0  0  0  0  0  0  0  0  0  0  0  0  # atno 17320 bound_to 7965
  145.0002  139.3606  143.6171 LP  0  0  0  0  0  0  0  0  0  0  0  0  # atno 17321 bound_to 7965
  139.8061  143.8016  152.3167 LP  0  0  0  0  0  0  0  0  0  0  0  0  # atno 17342 bound_to 10162
  139.8049  144.7359  150.9774 LP  0  0  0  0  0  0  0  0  0  0  0  0  # atno 17343 bound_to 10162
  157.1122  131.0224  151.3043 LP  0  0  0  0  0  0  0  0  0  0  0  0  # atno 17370 bound_to 10713
  157.4695  130.7700  149.7310 LP  0  0  0  0  0  0  0  0  0  0  0  0  # atno 17371 bound_to 10713
  140.9768  133.7292  156.0614 LP  0  0  0  0  0  0  0  0  0  0  0  0  # atno 17394 bound_to 11000
  140.7800  134.3736  157.5489 LP  0  0  0  0  0  0  0  0  0  0  0  0  # atno 17395 bound_to 11000

$$$$
