AV-unprocessed.smi:2416|AV-procd|sdf|9546|dock1
  -GOLD-   2272013173D 1   1.00000     0.00000
 Structure written by MMmdl.
 40 41  0  0  0  0  0  0  0  0  1 V2000
  150.4850  141.5481  156.4144 C   0  0  0  0  0  0  0  0  0  0  0  0
  149.3315  140.7242  156.2919 O   0  0  0  0  0  0  0  0  0  0  0  0
  148.9867  140.2635  154.9778 C   0  0  1  0  0  0  0  0  0  0  0  0
  148.6762  141.4506  154.0577 C   0  0  0  0  0  0  0  0  0  0  0  0
  149.9856  139.1881  154.5100 C   0  0  0  0  0  0  0  0  0  0  0  0
  149.1524  138.1760  155.2934 C   0  0  2  0  0  0  0  0  0  0  0  0
  149.0528  136.8894  154.6122 N   0  0  0  0  0  0  0  0  0  0  0  0
  149.3187  135.7059  155.1818 C   0  0  0  0  0  0  0  0  0  0  0  0
  149.6738  135.5823  156.3543 O   0  0  0  0  0  0  0  0  0  0  0  0
  149.1457  134.6975  154.3094 N   0  0  0  0  0  0  0  0  0  0  0  0
  149.2993  133.3038  154.5357 C   0  0  0  0  0  0  0  0  0  0  0  0
  148.7234  132.4713  153.5491 C   0  0  0  0  0  0  0  0  0  0  0  0
  148.8186  131.0722  153.6809 C   0  0  0  0  0  0  0  0  0  0  0  0
  149.4870  130.5428  154.7990 C   0  0  0  0  0  0  0  0  0  0  0  0
  149.6041  129.2045  154.9686 F   0  0  0  0  0  0  0  0  0  0  0  0
  150.0307  131.4399  155.7369 C   0  0  0  0  0  0  0  0  0  0  0  0
  149.9410  132.7812  155.6111 N   0  0  0  0  0  0  0  0  0  0  0  0
  147.9319  139.1163  155.1150 C   0  0  0  0  0  0  0  0  0  0  0  0
  146.9754  139.2076  156.3093 C   0  0  0  0  0  0  0  0  0  0  0  0
  147.0404  138.8681  153.8831 C   0  0  0  0  0  0  0  0  0  0  0  0
  150.7017  141.7000  157.4717 H   0  0  0  0  0  0  0  0  0  0  0  0
  150.3258  142.5329  155.9754 H   0  0  0  0  0  0  0  0  0  0  0  0
  151.3675  141.1005  155.9586 H   0  0  0  0  0  0  0  0  0  0  0  0
  148.3059  141.1250  153.0863 H   0  0  0  0  0  0  0  0  0  0  0  0
  149.5621  142.0520  153.8556 H   0  0  0  0  0  0  0  0  0  0  0  0
  147.9189  142.1021  154.4943 H   0  0  0  0  0  0  0  0  0  0  0  0
  149.9621  139.0315  153.4300 H   0  0  0  0  0  0  0  0  0  0  0  0
  151.0098  139.2929  154.8658 H   0  0  0  0  0  0  0  0  0  0  0  0
  149.4821  138.1009  156.3323 H   0  0  0  0  0  0  0  0  0  0  0  0
  148.7682  136.9048  153.6439 H   0  0  0  0  0  0  0  0  0  0  0  0
  148.8685  134.9576  153.3746 H   0  0  0  0  0  0  0  0  0  0  0  0
  148.2133  132.8966  152.6967 H   0  0  0  0  0  0  0  0  0  0  0  0
  148.3865  130.4189  152.9372 H   0  0  0  0  0  0  0  0  0  0  0  0
  150.5502  131.0733  156.6097 H   0  0  0  0  0  0  0  0  0  0  0  0
  146.3165  138.3404  156.3644 H   0  0  0  0  0  0  0  0  0  0  0  0
  146.3467  140.0964  156.2492 H   0  0  0  0  0  0  0  0  0  0  0  0
  147.5103  139.2520  157.2583 H   0  0  0  0  0  0  0  0  0  0  0  0
  146.4612  137.9495  153.9834 H   0  0  0  0  0  0  0  0  0  0  0  0
  147.6212  138.7786  152.9651 H   0  0  0  0  0  0  0  0  0  0  0  0
  146.3290  139.6811  153.7351 H   0  0  0  0  0  0  0  0  0  0  0  0
  1  2  1  0  0  0  0
  1 21  1  0  0  0  0
  1 22  1  0  0  0  0
  1 23  1  0  0  0  0
  2  3  1  0  0  0  0
  3 18  1  0  0  0  0
  3  4  1  0  0  0  0
  3  5  1  0  0  0  0
  4 24  1  0  0  0  0
  4 25  1  0  0  0  0
  4 26  1  0  0  0  0
  5  6  1  0  0  0  0
  5 27  1  0  0  0  0
  5 28  1  0  0  0  0
  6  7  1  0  0  0  0
  6 18  1  0  0  0  0
  6 29  1  0  0  0  0
  7  8  1  0  0  0  0
  7 30  1  0  0  0  0
  8  9  2  0  0  0  0
  8 10  1  0  0  0  0
 10 11  1  0  0  0  0
 10 31  1  0  0  0  0
 11 17  1  0  0  0  0
 11 12  2  0  0  0  0
 12 13  1  0  0  0  0
 12 32  1  0  0  0  0
 13 14  2  0  0  0  0
 13 33  1  0  0  0  0
 14 15  1  0  0  0  0
 14 16  1  0  0  0  0
 16 17  2  0  0  0  0
 16 34  1  0  0  0  0
 18 19  1  0  0  0  0
 18 20  1  0  0  0  0
 19 35  1  0  0  0  0
 19 36  1  0  0  0  0
 19 37  1  0  0  0  0
 20 38  1  0  0  0  0
 20 39  1  0  0  0  0
 20 40  1  0  0  0  0
M  END
> <s_m_source_file>
AV-unprocessed.smi

> <i_m_source_file_index>
2416

> <i_lp_mmshare_version>
43012

> <i_f3d_flags>
0

> <s_epik_input>
W0NIM11PW0NAQF0xKFtDSDNdKVtDSDJdW0NASF0oQzEoW0NIM10pW0NIM10pW05IXUMoPU8pW05IXWMyW2NIXVtjSF1jKEYpW2NIXW4y

> <s_epik_cmdline>
J2VwaWtfcHl0aG9uJywgJy1waCcsICc3LjAnLCAnLXRuJywgJzgnLCAnLW1hJywgJzIwMCcsICctbWV0YWxfYmluZGluZycsICctaW1hZScsICc8aW5maWxlLm1hZT4nLCAnLW9tYWUnLCAnPG91dGZpbGUubWFlPic=

> <r_lp_tautomer_probability>
1

> <r_epik_Ionization_Penalty>
3.67756e-05

> <r_epik_Ionization_Penalty_Charging>
0

> <r_epik_Ionization_Penalty_Neutral>
3.67756e-05

> <r_epik_State_Penalty>
-0

> <r_epik_Charging_Adjusted_Penalty>
0

> <i_epik_Tot_Q>
0

> <i_epik_Tot_abs_Q>
0

> <r_epik_Metal_State_Penalty>
-0

> <b_epik_Metal_Only>
0

> <s_lp_Force_Field>
OPLS_2005

> <r_lp_Energy>
27.4539

> <b_lp_Chiralities_Consistent>
1

> <s_lp_Variant>
AV-unprocessed.smi:2416-3

> <Gold.Version>
5.8.1

> <Gold.Id.Protein>
6NUR|6NUR_protein|mol2

> <Gold.PLP.Fitness>
35.9921

> <Gold.PLP.PLP>
-30.2469

> <Gold.PLP.part.hbond>
-2.0000

> <Gold.PLP.part.metal>
0.0000

> <Gold.PLP.part.buried>
-3.8796

> <Gold.PLP.part.nonpolar>
-25.2940

> <Gold.PLP.part.repulsive>
0.1017

> <Gold.PLP.ligand.clash>
0.0000

> <Gold.PLP.ligand.torsion>
0.2419

> <Gold.PLP.Chemscore.Hbond>
1.9520

> <Gold.PLP.Chemscore.CHOScore>
0.0000

> <Gold.PLP.Chemscore.Metal>
0.0000

> <Gold.Chemscore.Hbonds>
donor molecule, donor type, donor heavy atom, donor atom, acceptor molecule, acceptor atom, score
      L1  H     7    30       P1  7948  0.98
      L1  H    10    31       P1  7948  0.99

> <Gold.PLP.Chemscore.Internal.Correction>
0.3729

> <Gold.Rescore>
     Score         DG    S(hbond)    S(metal)    S(lipo)     H(rot)  DE(clash)    DE(int)     intcor
     12.29     -14.03       1.44        0.00      59.71       1.27       0.24       1.49       ----

> <Gold.Chemscore.Fitness>
12.2934

> <Gold.Chemscore.DG>
-14.0266

> <Gold.Chemscore.ZeroCoef>
-5.4800

> <Gold.Chemscore.Hbond>
1.4372

> <Gold.Chemscore.Metal>
0.0000

> <Gold.Chemscore.Lipo>
59.7061

> <Gold.Chemscore.Internal_Hbond>
0.0000

> <Gold.Chemscore.DEClash>
0.2416

> <Gold.Chemscore.DEInternal>
1.4917

> <Gold.Chemscore.Rot>
1.2653

> <Gold.Chemscore.Internal.Correction>
   9.000000E+99

> <Gold.Chemscore.Hbonds>
donor molecule, donor type, donor heavy atom, donor atom, acceptor molecule, acceptor atom, score
      L1  H     7    30       P1  7948  0.93
      L1  H    10    31       P1  7948  0.37

> <Gold.Chemscore.Hbond.Weighted>
-4.8002

> <Gold.Chemscore.Metal.Weighted>
-0.0000

> <Gold.Chemscore.Lipo.Weighted>
-6.9856

> <Gold.Chemscore.Internal_Hbond.Weighted>
0.0000

> <Gold.Chemscore.DEClash.Weighted>
0.2416

> <Gold.Chemscore.DEInternal.Weighted>
1.4917

> <Gold.Chemscore.Rot.Weighted>
3.2392

> <Gold.Chemscore.Internal.Correction.Weighted>
   9.000000E+99

> <Gold.Protein.RotatedTorsions>
[ 6907 6896 6895 6894 ] final  111.51 input  -60.11 | X-H torsion
[ 7974 7965 7964 7962 ] final -119.42 input  175.53 | X-H torsion
[ 8008 7997 7996 7995 ] final  -68.03 input   59.86 | X-H torsion
[ 10167 10162 10161 10158 ] final   11.50 input  -65.29 | X-H torsion
[ 10718 10713 10712 10709 ] final  138.75 input   66.30 | X-H torsion
[ 10763 10752 10751 10750 ] final   52.54 input  -60.55 | X-H torsion
[ 11005 11000 10999 10996 ] final  168.66 input  -57.11 | X-H torsion

> <Gold.Protein.ActiveResidues>
 VAL166  LYS551  ARG553  GLY616  TRP617  ASP618  TYR619  PRO620  LYS621  CYS622 
 ASP623  PHE694  ASN695  SER759  ASP760  ASP761  ALA762  ILE779  LEU786  VAL792 
 PHE793  MET794  SER795  GLU796  ALA797  LYS798  CYS799  TRP800  GLU811  SER814 

> <Gold.Protein.RotatedAtoms>
  152.4966  133.8648  159.7268 H   0  0  0  0  0  0  0  0  0  0  0  0  # atno 6907 bound_to 6896
  150.9150  133.6941  159.2852 H   0  0  0  0  0  0  0  0  0  0  0  0  # atno 6908 bound_to 6896
  151.4338  135.1017  159.9702 H   0  0  0  0  0  0  0  0  0  0  0  0  # atno 6909 bound_to 6896
  145.0628  140.8302  143.4142 H   0  0  0  0  0  0  0  0  0  0  0  0  # atno 7974 bound_to 7965
  154.4840  140.0881  156.7443 H   0  0  0  0  0  0  0  0  0  0  0  0  # atno 8008 bound_to 7997
  155.4398  140.3453  155.4270 H   0  0  0  0  0  0  0  0  0  0  0  0  # atno 8009 bound_to 7997
  156.1233  140.1480  156.9160 H   0  0  0  0  0  0  0  0  0  0  0  0  # atno 8010 bound_to 7997
  140.6128  143.8371  150.7084 H   0  0  0  0  0  0  0  0  0  0  0  0  # atno 10167 bound_to 10162
  157.4219  131.1039  151.0344 H   0  0  0  0  0  0  0  0  0  0  0  0  # atno 10718 bound_to 10713
  152.9789  135.5809  154.4595 H   0  0  0  0  0  0  0  0  0  0  0  0  # atno 10763 bound_to 10752
  154.4173  135.2771  155.2000 H   0  0  0  0  0  0  0  0  0  0  0  0  # atno 10764 bound_to 10752
  154.3764  135.6156  153.5821 H   0  0  0  0  0  0  0  0  0  0  0  0  # atno 10765 bound_to 10752
  140.2895  134.7684  157.3827 H   0  0  0  0  0  0  0  0  0  0  0  0  # atno 11005 bound_to 11000
  145.1388  139.2585  143.5501 LP  0  0  0  0  0  0  0  0  0  0  0  0  # atno 17320 bound_to 7965
  146.3525  140.1060  142.8606 LP  0  0  0  0  0  0  0  0  0  0  0  0  # atno 17321 bound_to 7965
  140.1944  143.4010  152.1839 LP  0  0  0  0  0  0  0  0  0  0  0  0  # atno 17342 bound_to 10162
  139.5375  144.7224  151.4845 LP  0  0  0  0  0  0  0  0  0  0  0  0  # atno 17343 bound_to 10162
  157.1271  130.6086  149.5520 LP  0  0  0  0  0  0  0  0  0  0  0  0  # atno 17370 bound_to 10713
  155.9883  130.4926  150.7166 LP  0  0  0  0  0  0  0  0  0  0  0  0  # atno 17371 bound_to 10713
  140.1208  134.5222  155.8185 LP  0  0  0  0  0  0  0  0  0  0  0  0  # atno 17394 bound_to 11000
  141.2149  133.6756  156.6862 LP  0  0  0  0  0  0  0  0  0  0  0  0  # atno 17395 bound_to 11000

$$$$
