AV-unprocessed.smi:1572|AV-procd|sdf|6330|dock10
  -GOLD-   22720 6543D 1   1.00000     0.00000
 Structure written by MMmdl.
 42 43  0  0  0  0  0  0  0  0  3 V2000
  149.0426  142.2095  157.8236 C   0  0  0  0  0  0  0  0  0  0  0  0
  149.5520  142.2759  156.4345 N   0  3  0  0  0  0  0  0  0  0  0  0
  148.8850  141.3331  155.5068 C   0  0  0  0  0  0  0  0  0  0  0  0
  149.3974  139.8890  155.6904 C   0  0  0  0  0  0  0  0  0  0  0  0
  150.8509  139.8463  155.4704 N   0  0  0  0  0  0  0  0  0  0  0  0
  151.4542  138.4962  155.3228 C   0  0  0  0  0  0  0  0  0  0  0  0
  150.6040  137.5963  154.3958 C   0  0  0  0  0  0  0  0  0  0  0  0
  152.8819  138.6033  154.7280 C   0  0  0  0  0  0  0  0  0  0  0  0
  151.5806  137.8253  156.7241 C   0  0  0  0  0  0  0  0  0  0  0  0
  150.2831  137.4422  157.2843 N   0  0  0  0  0  0  0  0  0  0  0  0
  150.0401  137.0486  158.5430 C   0  0  0  0  0  0  0  0  0  0  0  0
  150.9427  137.0627  159.3829 O   0  0  0  0  0  0  0  0  0  0  0  0
  148.7669  136.6429  158.7487 N   0  5  0  0  0  0  0  0  0  0  0  0
  148.3577  136.3269  159.9882 C   0  0  0  0  0  0  0  0  0  0  0  0
  148.2472  137.2407  160.9653 N   0  0  0  0  0  0  0  0  0  0  0  0
  147.8051  136.7041  162.1670 N   0  0  0  0  0  0  0  0  0  0  0  0
  147.5846  135.3939  162.0619 C   0  0  0  0  0  0  0  0  0  0  0  0
  147.8994  134.6958  160.4873 S   0  0  0  0  0  0  0  0  0  0  0  0
  151.4722  140.6865  156.5064 C   0  0  0  0  0  0  0  0  0  0  0  0
  151.0239  142.1495  156.3284 C   0  0  0  0  0  0  0  0  0  0  0  0
  149.2349  141.2395  158.2823 H   0  0  0  0  0  0  0  0  0  0  0  0
  147.9667  142.3858  157.8439 H   0  0  0  0  0  0  0  0  0  0  0  0
  149.5142  142.9756  158.4398 H   0  0  0  0  0  0  0  0  0  0  0  0
  147.8040  141.3764  155.6436 H   0  0  0  0  0  0  0  0  0  0  0  0
  149.0778  141.6595  154.4837 H   0  0  0  0  0  0  0  0  0  0  0  0
  149.1434  139.5026  156.6777 H   0  0  0  0  0  0  0  0  0  0  0  0
  148.8669  139.2760  154.9647 H   0  0  0  0  0  0  0  0  0  0  0  0
  151.0890  136.6314  154.2445 H   0  0  0  0  0  0  0  0  0  0  0  0
  150.4641  138.0408  153.4104 H   0  0  0  0  0  0  0  0  0  0  0  0
  149.6183  137.3873  154.8117 H   0  0  0  0  0  0  0  0  0  0  0  0
  153.4128  137.6542  154.8088 H   0  0  0  0  0  0  0  0  0  0  0  0
  153.4831  139.3541  155.2427 H   0  0  0  0  0  0  0  0  0  0  0  0
  152.8716  138.8514  153.6665 H   0  0  0  0  0  0  0  0  0  0  0  0
  152.2744  136.9847  156.7193 H   0  0  0  0  0  0  0  0  0  0  0  0
  152.0255  138.5341  157.4232 H   0  0  0  0  0  0  0  0  0  0  0  0
  149.5054  137.4185  156.6410 H   0  0  0  0  0  0  0  0  0  0  0  0
  147.2341  134.8354  162.9171 H   0  0  0  0  0  0  0  0  0  0  0  0
  151.2128  140.3253  157.5018 H   0  0  0  0  0  0  0  0  0  0  0  0
  152.5570  140.6605  156.4465 H   0  0  0  0  0  0  0  0  0  0  0  0
  151.3385  142.5127  155.3484 H   0  0  0  0  0  0  0  0  0  0  0  0
  151.5089  142.7915  157.0643 H   0  0  0  0  0  0  0  0  0  0  0  0
  149.3238  143.2043  156.1088 H   0  0  0  0  0  0  0  0  0  0  0  0
  1  2  1  0  0  0  0
  1 21  1  0  0  0  0
  1 22  1  0  0  0  0
  1 23  1  0  0  0  0
  2 20  1  0  0  0  0
  2  3  1  0  0  0  0
  2 42  1  0  0  0  0
  3  4  1  0  0  0  0
  3 24  1  0  0  0  0
  3 25  1  0  0  0  0
  4  5  1  0  0  0  0
  4 26  1  0  0  0  0
  4 27  1  0  0  0  0
  5  6  1  0  0  0  0
  5 19  1  0  0  0  0
  6  7  1  0  0  0  0
  6  8  1  0  0  0  0
  6  9  1  0  0  0  0
  7 28  1  0  0  0  0
  7 29  1  0  0  0  0
  7 30  1  0  0  0  0
  8 31  1  0  0  0  0
  8 32  1  0  0  0  0
  8 33  1  0  0  0  0
  9 10  1  0  0  0  0
  9 34  1  0  0  0  0
  9 35  1  0  0  0  0
 10 11  1  0  0  0  0
 10 36  1  0  0  0  0
 11 12  2  0  0  0  0
 11 13  1  0  0  0  0
 13 14  1  0  0  0  0
 14 18  1  0  0  0  0
 14 15  2  0  0  0  0
 15 16  1  0  0  0  0
 16 17  2  0  0  0  0
 17 18  1  0  0  0  0
 17 37  1  0  0  0  0
 19 20  1  0  0  0  0
 19 38  1  0  0  0  0
 19 39  1  0  0  0  0
 20 40  1  0  0  0  0
 20 41  1  0  0  0  0
M  CHG  1   2   1
M  CHG  1  13  -1
M  END
> <s_m_source_file>
AV-unprocessed.smi

> <i_m_source_file_index>
1572

> <i_lp_mmshare_version>
43012

> <i_f3d_flags>
0

> <s_epik_input>
W0NIM11OMVtDSDJdW0NIMl1OKFtDSDJdW0NIMl0xKUMoW0NIM10pKFtDSDNdKVtDSDJdW05IXUMoPU8pW05IXWMybm5bY0hdczI=

> <s_epik_cmdline>
J2VwaWtfcHl0aG9uJywgJy1waCcsICc3LjAnLCAnLXRuJywgJzgnLCAnLW1hJywgJzIwMCcsICctbWV0YWxfYmluZGluZycsICctaW1hZScsICc8aW5maWxlLm1hZT4nLCAnLW9tYWUnLCAnPG91dGZpbGUubWFlPic=

> <r_lp_tautomer_probability>
1

> <r_epik_Ionization_Penalty>
3.56565

> <r_epik_Ionization_Penalty_Charging>
3.52353

> <r_epik_Ionization_Penalty_Neutral>
0.0421115

> <r_epik_State_Penalty>
3.62656

> <r_epik_Charging_Adjusted_Penalty>
7.1501

> <i_epik_Tot_Q>
0

> <i_epik_Tot_abs_Q>
2

> <r_epik_Metal_State_Penalty>
0.645945

> <b_epik_Metal_Only>
1

> <s_lp_Force_Field>
OPLS_2005

> <r_lp_Energy>
17.8403

> <b_lp_Chiralities_Consistent>
1

> <s_lp_Variant>
AV-unprocessed.smi:1572-4

> <Gold.Version>
5.8.1

> <Gold.Id.Protein>
6NUR|6NUR_protein|mol2

> <Gold.PLP.Fitness>
42.0689

> <Gold.PLP.PLP>
-31.5671

> <Gold.PLP.part.hbond>
-4.7656

> <Gold.PLP.part.metal>
0.0000

> <Gold.PLP.part.buried>
-6.1166

> <Gold.PLP.part.nonpolar>
-21.9616

> <Gold.PLP.part.repulsive>
0.0941

> <Gold.PLP.ligand.clash>
0.0000

> <Gold.PLP.ligand.torsion>
1.0304

> <Gold.PLP.Chemscore.Hbond>
4.1680

> <Gold.PLP.Chemscore.CHOScore>
0.0000

> <Gold.PLP.Chemscore.Metal>
0.0000

> <Gold.Chemscore.Hbonds>
donor molecule, donor type, donor heavy atom, donor atom, acceptor molecule, acceptor atom, score
      L1  H     2    42       P1  8028  2.00
      P1  H  6896  6907       L1    12  0.98
      P1  H  6931  6943       L1    15  0.19
      P1  H  6934  6947       L1    15  0.55
      P1  H  7989  7998       L1     5  0.19

> <Gold.PLP.Chemscore.Internal.Correction>
0.0587

> <Gold.Rescore>
     Score         DG    S(hbond)    S(metal)    S(lipo)     H(rot)  DE(clash)    DE(int)     intcor
     15.00     -16.26       2.10        0.00      68.77       1.67       0.13       1.13       ----

> <Gold.Chemscore.Fitness>
14.9963

> <Gold.Chemscore.DG>
-16.2596

> <Gold.Chemscore.ZeroCoef>
-5.4800

> <Gold.Chemscore.Hbond>
2.0982

> <Gold.Chemscore.Metal>
0.0000

> <Gold.Chemscore.Lipo>
68.7654

> <Gold.Chemscore.Internal_Hbond>
0.0000

> <Gold.Chemscore.DEClash>
0.1301

> <Gold.Chemscore.DEInternal>
1.1332

> <Gold.Chemscore.Rot>
1.6694

> <Gold.Chemscore.Internal.Correction>
   9.000000E+99

> <Gold.Chemscore.Hbonds>
donor molecule, donor type, donor heavy atom, donor atom, acceptor molecule, acceptor atom, score
      L1  H     2    42       P1  8028  1.00
      P1  H  6896  6907       L1    12  0.32
      P1  H  6934  6947       L1    15  0.16
      P1  H  7989  7998       L1     5  0.02

> <Gold.Chemscore.Hbond.Weighted>
-7.0078

> <Gold.Chemscore.Metal.Weighted>
-0.0000

> <Gold.Chemscore.Lipo.Weighted>
-8.0455

> <Gold.Chemscore.Internal_Hbond.Weighted>
0.0000

> <Gold.Chemscore.DEClash.Weighted>
0.1301

> <Gold.Chemscore.DEInternal.Weighted>
1.1332

> <Gold.Chemscore.Rot.Weighted>
4.2738

> <Gold.Chemscore.Internal.Correction.Weighted>
   9.000000E+99

> <Gold.Protein.RotatedTorsions>
[ 6907 6896 6895 6894 ] final  -27.97 input  -60.11 | X-H torsion
[ 7974 7965 7964 7962 ] final   45.08 input  175.53 | X-H torsion
[ 8008 7997 7996 7995 ] final  -60.49 input   59.86 | X-H torsion
[ 10167 10162 10161 10158 ] final   88.06 input  -65.29 | X-H torsion
[ 10718 10713 10712 10709 ] final  -78.78 input   66.30 | X-H torsion
[ 10763 10752 10751 10750 ] final  168.71 input  -60.55 | X-H torsion
[ 11005 11000 10999 10996 ] final   41.13 input  -57.11 | X-H torsion

> <Gold.Protein.ActiveResidues>
 VAL166  LYS551  ARG553  GLY616  TRP617  ASP618  TYR619  PRO620  LYS621  CYS622 
 ASP623  PHE694  ASN695  SER759  ASP760  ASP761  ALA762  ILE779  LEU786  VAL792 
 PHE793  MET794  SER795  GLU796  ALA797  LYS798  CYS799  TRP800  GLU811  SER814 

> <Gold.Protein.RotatedAtoms>
  151.1395  135.0172  159.8618 H   0  0  0  0  0  0  0  0  0  0  0  0  # atno 6907 bound_to 6896
  152.5452  134.1516  159.8531 H   0  0  0  0  0  0  0  0  0  0  0  0  # atno 6908 bound_to 6896
  151.1590  133.4812  159.2627 H   0  0  0  0  0  0  0  0  0  0  0  0  # atno 6909 bound_to 6896
  146.0511  139.5003  142.9717 H   0  0  0  0  0  0  0  0  0  0  0  0  # atno 7974 bound_to 7965
  154.4401  140.1038  156.6282 H   0  0  0  0  0  0  0  0  0  0  0  0  # atno 8008 bound_to 7997
  155.5634  140.3488  155.4478 H   0  0  0  0  0  0  0  0  0  0  0  0  # atno 8009 bound_to 7997
  156.0443  140.1289  157.0110 H   0  0  0  0  0  0  0  0  0  0  0  0  # atno 8010 bound_to 7997
  139.8711  144.6492  150.8949 H   0  0  0  0  0  0  0  0  0  0  0  0  # atno 10167 bound_to 10162
  156.0109  130.4527  150.3548 H   0  0  0  0  0  0  0  0  0  0  0  0  # atno 10718 bound_to 10713
  154.3725  135.2753  155.2258 H   0  0  0  0  0  0  0  0  0  0  0  0  # atno 10763 bound_to 10752
  154.4399  135.5957  153.6126 H   0  0  0  0  0  0  0  0  0  0  0  0  # atno 10764 bound_to 10752
  152.9838  135.6016  154.3958 H   0  0  0  0  0  0  0  0  0  0  0  0  # atno 10765 bound_to 10752
  140.1864  134.4041  155.8171 H   0  0  0  0  0  0  0  0  0  0  0  0  # atno 11005 bound_to 11000
  145.6722  141.0213  143.1651 LP  0  0  0  0  0  0  0  0  0  0  0  0  # atno 17320 bound_to 7965
  144.7123  139.8324  143.7410 LP  0  0  0  0  0  0  0  0  0  0  0  0  # atno 17321 bound_to 7965
  140.7760  143.3663  151.1732 LP  0  0  0  0  0  0  0  0  0  0  0  0  # atno 17342 bound_to 10162
  139.7283  143.9113  152.3010 LP  0  0  0  0  0  0  0  0  0  0  0  0  # atno 17343 bound_to 10162
  157.1639  131.0352  151.2828 LP  0  0  0  0  0  0  0  0  0  0  0  0  # atno 17370 bound_to 10713
  157.4287  130.7478  149.6972 LP  0  0  0  0  0  0  0  0  0  0  0  0  # atno 17371 bound_to 10713
  141.2225  133.7025  156.8019 LP  0  0  0  0  0  0  0  0  0  0  0  0  # atno 17394 bound_to 11000
  140.2209  134.8757  157.3376 LP  0  0  0  0  0  0  0  0  0  0  0  0  # atno 17395 bound_to 11000

$$$$
