AV-unprocessed.smi:1304|AV-procd|sdf|5432|dock5
  -GOLD-   22720 4593D 1   1.00000     0.00000
 Structure written by MMmdl.
 48 49  0  0  0  0  0  0  0  0  2 V2000
  146.3877  133.6430  156.0973 C   0  0  0  0  0  0  0  0  0  0  0  0
  147.1472  132.9386  154.9588 C   0  0  0  0  0  0  0  0  0  0  0  0
  148.1123  133.8413  154.1293 C   0  0  2  0  0  0  0  0  0  0  0  0
  148.9644  132.9012  153.2358 C   0  0  0  0  0  0  0  0  0  0  0  0
  149.0659  134.6254  155.0861 C   0  0  0  0  0  0  0  0  0  0  0  0
  149.4923  135.9186  154.5534 N   0  0  0  0  0  0  0  0  0  0  0  0
  149.7646  137.0134  155.2801 C   0  0  0  0  0  0  0  0  0  0  0  0
  149.6356  137.0638  156.5034 O   0  0  0  0  0  0  0  0  0  0  0  0
  150.2612  138.2376  154.5005 C   0  0  0  0  0  0  0  0  0  0  0  0
  149.2793  139.3346  154.4971 N   0  0  0  0  0  0  0  0  0  0  0  0
  148.0145  139.0672  153.9359 C   0  0  0  0  0  0  0  0  0  0  0  0
  147.0476  139.9973  153.8897 C   0  0  0  0  0  0  0  0  0  0  0  0
  147.3300  141.3035  154.4357 C   0  0  0  0  0  0  0  0  0  0  0  0
  148.5359  141.5698  154.9762 C   0  0  0  0  0  0  0  0  0  0  0  0
  149.5956  140.5562  155.0295 C   0  0  0  0  0  0  0  0  0  0  0  0
  150.6993  140.7893  155.5245 O   0  0  0  0  0  0  0  0  0  0  0  0
  147.3118  134.7954  153.2776 N   0  3  0  0  0  0  0  0  0  0  0  0
  146.4748  134.1708  152.2138 C   0  0  0  0  0  0  0  0  0  0  0  0
  145.8875  135.2487  151.2885 C   0  0  0  0  0  0  0  0  0  0  0  0
  145.1169  136.1636  152.0549 O   0  0  0  0  0  0  0  0  0  0  0  0
  145.9086  136.8341  153.0255 C   0  0  0  0  0  0  0  0  0  0  0  0
  146.5061  135.8135  154.0092 C   0  0  0  0  0  0  0  0  0  0  0  0
  145.7259  132.9394  156.6030 H   0  0  0  0  0  0  0  0  0  0  0  0
  145.7673  134.4593  155.7280 H   0  0  0  0  0  0  0  0  0  0  0  0
  147.0645  134.0468  156.8500 H   0  0  0  0  0  0  0  0  0  0  0  0
  147.6827  132.0824  155.3683 H   0  0  0  0  0  0  0  0  0  0  0  0
  146.3991  132.4997  154.2988 H   0  0  0  0  0  0  0  0  0  0  0  0
  149.3714  132.0639  153.8043 H   0  0  0  0  0  0  0  0  0  0  0  0
  149.8202  133.4163  152.7991 H   0  0  0  0  0  0  0  0  0  0  0  0
  148.3813  132.4786  152.4173 H   0  0  0  0  0  0  0  0  0  0  0  0
  148.5673  134.8323  156.0323 H   0  0  0  0  0  0  0  0  0  0  0  0
  149.9454  134.0329  155.3387 H   0  0  0  0  0  0  0  0  0  0  0  0
  149.6203  135.9763  153.5532 H   0  0  0  0  0  0  0  0  0  0  0  0
  151.2073  138.5897  154.9169 H   0  0  0  0  0  0  0  0  0  0  0  0
  150.4953  137.9199  153.4837 H   0  0  0  0  0  0  0  0  0  0  0  0
  147.8803  138.0651  153.5554 H   0  0  0  0  0  0  0  0  0  0  0  0
  146.0829  139.7733  153.4586 H   0  0  0  0  0  0  0  0  0  0  0  0
  146.5703  142.0709  154.4118 H   0  0  0  0  0  0  0  0  0  0  0  0
  148.7286  142.5530  155.3802 H   0  0  0  0  0  0  0  0  0  0  0  0
  147.0524  133.4793  151.6037 H   0  0  0  0  0  0  0  0  0  0  0  0
  145.6568  133.6030  152.6575 H   0  0  0  0  0  0  0  0  0  0  0  0
  146.6771  135.7755  150.7505 H   0  0  0  0  0  0  0  0  0  0  0  0
  145.2432  134.7884  150.5393 H   0  0  0  0  0  0  0  0  0  0  0  0
  146.6965  137.4093  152.5361 H   0  0  0  0  0  0  0  0  0  0  0  0
  145.2804  137.5471  153.5599 H   0  0  0  0  0  0  0  0  0  0  0  0
  145.7036  135.3307  154.5672 H   0  0  0  0  0  0  0  0  0  0  0  0
  147.1097  136.3668  154.7265 H   0  0  0  0  0  0  0  0  0  0  0  0
  148.0112  135.3296  152.7817 H   0  0  0  0  0  0  0  0  0  0  0  0
  1  2  1  0  0  0  0
  1 23  1  0  0  0  0
  1 24  1  0  0  0  0
  1 25  1  0  0  0  0
  2  3  1  0  0  0  0
  2 26  1  0  0  0  0
  2 27  1  0  0  0  0
  3  4  1  0  0  0  0
  3  5  1  0  0  0  0
  3 17  1  0  0  0  0
  4 28  1  0  0  0  0
  4 29  1  0  0  0  0
  4 30  1  0  0  0  0
  5  6  1  0  0  0  0
  5 31  1  0  0  0  0
  5 32  1  0  0  0  0
  6  7  1  0  0  0  0
  6 33  1  0  0  0  0
  7  8  2  0  0  0  0
  7  9  1  0  0  0  0
  9 10  1  0  0  0  0
  9 34  1  0  0  0  0
  9 35  1  0  0  0  0
 10 15  1  0  0  0  0
 10 11  1  0  0  0  0
 11 12  2  0  0  0  0
 11 36  1  0  0  0  0
 12 13  1  0  0  0  0
 12 37  1  0  0  0  0
 13 14  2  0  0  0  0
 13 38  1  0  0  0  0
 14 15  1  0  0  0  0
 14 39  1  0  0  0  0
 15 16  2  0  0  0  0
 17 22  1  0  0  0  0
 17 18  1  0  0  0  0
 17 48  1  0  0  0  0
 18 19  1  0  0  0  0
 18 40  1  0  0  0  0
 18 41  1  0  0  0  0
 19 20  1  0  0  0  0
 19 42  1  0  0  0  0
 19 43  1  0  0  0  0
 20 21  1  0  0  0  0
 21 22  1  0  0  0  0
 21 44  1  0  0  0  0
 21 45  1  0  0  0  0
 22 46  1  0  0  0  0
 22 47  1  0  0  0  0
M  CHG  1  17   1
M  END
> <s_m_source_file>
AV-unprocessed.smi

> <i_m_source_file_index>
1304

> <i_lp_mmshare_version>
43012

> <i_f3d_flags>
0

> <s_epik_input>
W0NIMl0xW0NIMl1PW0NIMl1bQ0gyXU4xW0NAQF0oW0NIM10pKFtDSDJdW0NIM10pW0NIMl1bTkhdQyg9TylbQ0gyXW4yW2NIXVtjSF1bY0hdW2NIXWMyPU8=

> <s_epik_cmdline>
J2VwaWtfcHl0aG9uJywgJy1waCcsICc3LjAnLCAnLXRuJywgJzgnLCAnLW1hJywgJzIwMCcsICctbWV0YWxfYmluZGluZycsICctaW1hZScsICc8aW5maWxlLm1hZT4nLCAnLW9tYWUnLCAnPG91dGZpbGUubWFlPic=

> <r_lp_tautomer_probability>
1

> <r_epik_Ionization_Penalty>
0.519658

> <r_epik_Ionization_Penalty_Charging>
0.519658

> <r_epik_Ionization_Penalty_Neutral>
8.70177e-08

> <r_epik_State_Penalty>
0.527569

> <r_epik_Charging_Adjusted_Penalty>
1.04723

> <i_epik_Tot_Q>
1

> <i_epik_Tot_abs_Q>
1

> <r_epik_Metal_State_Penalty>
0.527613

> <b_epik_Metal_Only>
0

> <s_lp_Force_Field>
OPLS_2005

> <r_lp_Energy>
37.518

> <b_lp_Chiralities_Consistent>
1

> <s_lp_Variant>
AV-unprocessed.smi:1304-4

> <Gold.Version>
5.8.1

> <Gold.Id.Protein>
6NUR|6NUR_protein|mol2

> <Gold.PLP.Fitness>
45.5474

> <Gold.PLP.PLP>
-32.7158

> <Gold.PLP.part.hbond>
-3.0000

> <Gold.PLP.part.metal>
0.0000

> <Gold.PLP.part.buried>
0.4939

> <Gold.PLP.part.nonpolar>
-28.9649

> <Gold.PLP.part.repulsive>
0.3106

> <Gold.PLP.ligand.clash>
0.0000

> <Gold.PLP.ligand.torsion>
0.9697

> <Gold.PLP.Chemscore.Hbond>
3.8320

> <Gold.PLP.Chemscore.CHOScore>
1.0000

> <Gold.PLP.Chemscore.Metal>
0.0000

> <Gold.Chemscore.Hbonds>
donor molecule, donor type, donor heavy atom, donor atom, acceptor molecule, acceptor atom, score
      L1  H     6    33       P1  7948  1.00
      L1  H    17    48       P1  7948  2.00
      P1  H  7989  7998       L1    16  0.23
      L1  C    11    36       P1  7948  0.56

> <Gold.PLP.Chemscore.Internal.Correction>
0.2751

> <Gold.Rescore>
     Score         DG    S(hbond)    S(metal)    S(lipo)     H(rot)  DE(clash)    DE(int)     intcor
     13.79     -16.03       2.60        0.00      60.25       2.03       0.10       2.14       ----

> <Gold.Chemscore.Fitness>
13.7901

> <Gold.Chemscore.DG>
-16.0316

> <Gold.Chemscore.ZeroCoef>
-5.4800

> <Gold.Chemscore.Hbond>
2.6044

> <Gold.Chemscore.Metal>
0.0000

> <Gold.Chemscore.Lipo>
60.2479

> <Gold.Chemscore.Internal_Hbond>
0.0000

> <Gold.Chemscore.DEClash>
0.0978

> <Gold.Chemscore.DEInternal>
2.1437

> <Gold.Chemscore.Rot>
2.0298

> <Gold.Chemscore.Internal.Correction>
   9.000000E+99

> <Gold.Chemscore.Hbonds>
donor molecule, donor type, donor heavy atom, donor atom, acceptor molecule, acceptor atom, score
      L1  H     6    33       P1  7948  0.25
      L1  H    17    48       P1  7948  0.97
      P1  H  7989  7998       L1    16  0.01

> <Gold.Chemscore.Hbond.Weighted>
-8.6988

> <Gold.Chemscore.Metal.Weighted>
-0.0000

> <Gold.Chemscore.Lipo.Weighted>
-7.0490

> <Gold.Chemscore.Internal_Hbond.Weighted>
0.0000

> <Gold.Chemscore.DEClash.Weighted>
0.0978

> <Gold.Chemscore.DEInternal.Weighted>
2.1437

> <Gold.Chemscore.Rot.Weighted>
5.1962

> <Gold.Chemscore.Internal.Correction.Weighted>
   9.000000E+99

> <Gold.Protein.RotatedTorsions>
[ 6907 6896 6895 6894 ] final  132.91 input  -60.11 | X-H torsion
[ 7974 7965 7964 7962 ] final  -47.90 input  175.53 | X-H torsion
[ 8008 7997 7996 7995 ] final  -42.42 input   59.86 | X-H torsion
[ 10167 10162 10161 10158 ] final   26.57 input  -65.29 | X-H torsion
[ 10718 10713 10712 10709 ] final -133.66 input   66.30 | X-H torsion
[ 10763 10752 10751 10750 ] final   62.40 input  -60.55 | X-H torsion
[ 11005 11000 10999 10996 ] final -157.70 input  -57.11 | X-H torsion

> <Gold.Protein.ActiveResidues>
 VAL166  LYS551  ARG553  GLY616  TRP617  ASP618  TYR619  PRO620  LYS621  CYS622 
 ASP623  PHE694  ASN695  SER759  ASP760  ASP761  ALA762  ILE779  LEU786  VAL792 
 PHE793  MET794  SER795  GLU796  ALA797  LYS798  CYS799  TRP800  GLU811  SER814 

> <Gold.Protein.RotatedAtoms>
  152.3275  133.5921  159.5786 H   0  0  0  0  0  0  0  0  0  0  0  0  # atno 6907 bound_to 6896
  150.7404  133.9919  159.3618 H   0  0  0  0  0  0  0  0  0  0  0  0  # atno 6908 bound_to 6896
  151.7797  135.0765  160.0423 H   0  0  0  0  0  0  0  0  0  0  0  0  # atno 6909 bound_to 6896
  145.9568  140.7519  142.9477 H   0  0  0  0  0  0  0  0  0  0  0  0  # atno 7974 bound_to 7965
  154.3999  140.1474  156.3353 H   0  0  0  0  0  0  0  0  0  0  0  0  # atno 8008 bound_to 7997
  155.8406  140.3462  155.5608 H   0  0  0  0  0  0  0  0  0  0  0  0  # atno 8009 bound_to 7997
  155.8091  140.0881  157.1905 H   0  0  0  0  0  0  0  0  0  0  0  0  # atno 8010 bound_to 7997
  140.5011  144.0313  150.6333 H   0  0  0  0  0  0  0  0  0  0  0  0  # atno 10167 bound_to 10162
  156.2472  130.7131  151.1016 H   0  0  0  0  0  0  0  0  0  0  0  0  # atno 10718 bound_to 10713
  152.9981  135.5466  154.6186 H   0  0  0  0  0  0  0  0  0  0  0  0  # atno 10763 bound_to 10752
  154.5491  135.2825  155.1027 H   0  0  0  0  0  0  0  0  0  0  0  0  # atno 10764 bound_to 10752
  154.2274  135.6439  153.5217 H   0  0  0  0  0  0  0  0  0  0  0  0  # atno 10765 bound_to 10752
  140.6618  134.4341  157.5234 H   0  0  0  0  0  0  0  0  0  0  0  0  # atno 11005 bound_to 11000
  144.6806  140.2525  143.7330 LP  0  0  0  0  0  0  0  0  0  0  0  0  # atno 17320 bound_to 7965
  145.8095  139.1997  143.2001 LP  0  0  0  0  0  0  0  0  0  0  0  0  # atno 17321 bound_to 7965
  140.3609  143.2908  152.0384 LP  0  0  0  0  0  0  0  0  0  0  0  0  # atno 17342 bound_to 10162
  139.4872  144.6303  151.7082 LP  0  0  0  0  0  0  0  0  0  0  0  0  # atno 17343 bound_to 10162
  157.7200  131.0687  150.6175 LP  0  0  0  0  0  0  0  0  0  0  0  0  # atno 17370 bound_to 10713
  156.6252  130.4417  149.5807 LP  0  0  0  0  0  0  0  0  0  0  0  0  # atno 17371 bound_to 10713
  139.9010  134.8555  156.1895 LP  0  0  0  0  0  0  0  0  0  0  0  0  # atno 17394 bound_to 11000
  141.0459  133.6913  156.1683 LP  0  0  0  0  0  0  0  0  0  0  0  0  # atno 17395 bound_to 11000

$$$$
