AV-unprocessed.smi:1976|AV-procd|sdf|7988|dock1
  -GOLD-   2272010173D 1   1.00000     0.00000
 Structure written by MMmdl.
 45 47  0  0  0  0  0  0  0  0  2 V2000
  149.0787  140.0636  156.4443 O   0  0  0  0  0  0  0  0  0  0  0  0
  149.2344  141.2494  156.1498 C   0  0  0  0  0  0  0  0  0  0  0  0
  150.6405  141.8483  156.0011 C   0  0  0  0  0  0  0  0  0  0  0  0
  151.3767  141.9386  157.2735 N   0  0  0  0  0  0  0  0  0  0  0  0
  151.1822  143.1005  158.0459 C   0  0  0  0  0  0  0  0  0  0  0  0
  151.8033  143.3112  159.2223 C   0  0  0  0  0  0  0  0  0  0  0  0
  151.5293  144.5501  160.0607 C   0  0  0  0  0  0  0  0  0  0  0  0
  151.9209  145.6555  159.4264 F   0  0  0  0  0  0  0  0  0  0  0  0
  150.2233  144.6518  160.3039 F   0  0  0  0  0  0  0  0  0  0  0  0
  152.1661  144.4909  161.2310 F   0  0  0  0  0  0  0  0  0  0  0  0
  152.6759  142.2522  159.6898 C   0  0  0  0  0  0  0  0  0  0  0  0
  152.8641  141.1294  158.9691 C   0  0  0  0  0  0  0  0  0  0  0  0
  152.1975  140.9244  157.6812 C   0  0  0  0  0  0  0  0  0  0  0  0
  152.3622  139.9041  157.0114 O   0  0  0  0  0  0  0  0  0  0  0  0
  148.2133  142.0946  155.9432 N   0  0  0  0  0  0  0  0  0  0  0  0
  146.7991  141.7355  155.9949 C   0  0  1  0  0  0  0  0  0  0  0  0
  145.8661  142.9489  155.8810 C   0  0  0  0  0  0  0  0  0  0  0  0
  144.6719  142.4682  155.0324 C   0  0  0  0  0  0  0  0  0  0  0  0
  144.9029  141.0340  154.7420 N   0  3  2  0  0  0  0  0  0  0  0  0
  144.1385  140.1473  155.6622 C   0  0  0  0  0  0  0  0  0  0  0  0
  144.5506  138.6761  155.5243 C   0  0  0  0  0  0  0  0  0  0  0  0
  146.0498  138.5211  155.7906 C   0  0  0  0  0  0  0  0  0  0  0  0
  146.8329  139.3916  154.8031 C   0  0  0  0  0  0  0  0  0  0  0  0
  146.3755  140.8684  154.8021 C   0  0  2  0  0  0  0  0  0  0  0  0
  151.2120  141.2524  155.2866 H   0  0  0  0  0  0  0  0  0  0  0  0
  150.5447  142.8320  155.5392 H   0  0  0  0  0  0  0  0  0  0  0  0
  150.4860  143.8101  157.6230 H   0  0  0  0  0  0  0  0  0  0  0  0
  153.1896  142.3615  160.6336 H   0  0  0  0  0  0  0  0  0  0  0  0
  153.5220  140.3612  159.3482 H   0  0  0  0  0  0  0  0  0  0  0  0
  148.4335  143.0537  155.7157 H   0  0  0  0  0  0  0  0  0  0  0  0
  146.5692  141.2179  156.9280 H   0  0  0  0  0  0  0  0  0  0  0  0
  145.5504  143.2944  156.8661 H   0  0  0  0  0  0  0  0  0  0  0  0
  146.3583  143.7859  155.3829 H   0  0  0  0  0  0  0  0  0  0  0  0
  143.7145  142.6459  155.5247 H   0  0  0  0  0  0  0  0  0  0  0  0
  144.6524  143.0120  154.0872 H   0  0  0  0  0  0  0  0  0  0  0  0
  144.2859  140.4667  156.6951 H   0  0  0  0  0  0  0  0  0  0  0  0
  143.0733  140.2533  155.4532 H   0  0  0  0  0  0  0  0  0  0  0  0
  143.9830  138.0635  156.2254 H   0  0  0  0  0  0  0  0  0  0  0  0
  144.3079  138.3120  154.5249 H   0  0  0  0  0  0  0  0  0  0  0  0
  146.2834  138.8093  156.8161 H   0  0  0  0  0  0  0  0  0  0  0  0
  146.3450  137.4769  155.6846 H   0  0  0  0  0  0  0  0  0  0  0  0
  147.9021  139.3205  155.0035 H   0  0  0  0  0  0  0  0  0  0  0  0
  146.6933  138.9841  153.8009 H   0  0  0  0  0  0  0  0  0  0  0  0
  146.7770  141.3306  153.8977 H   0  0  0  0  0  0  0  0  0  0  0  0
  144.5927  140.8289  153.8028 H   0  0  0  0  0  0  0  0  0  0  0  0
  1  2  2  0  0  0  0
  2  3  1  0  0  0  0
  2 15  1  0  0  0  0
  3  4  1  0  0  0  0
  3 25  1  0  0  0  0
  3 26  1  0  0  0  0
  4 13  1  0  0  0  0
  4  5  1  0  0  0  0
  5  6  2  0  0  0  0
  5 27  1  0  0  0  0
  6  7  1  0  0  0  0
  6 11  1  0  0  0  0
  7  8  1  0  0  0  0
  7  9  1  0  0  0  0
  7 10  1  0  0  0  0
 11 12  2  0  0  0  0
 11 28  1  0  0  0  0
 12 13  1  0  0  0  0
 12 29  1  0  0  0  0
 13 14  2  0  0  0  0
 15 16  1  0  0  0  0
 15 30  1  0  0  0  0
 16 24  1  0  0  0  0
 16 17  1  0  0  0  0
 16 31  1  0  0  0  0
 17 18  1  0  0  0  0
 17 32  1  0  0  0  0
 17 33  1  0  0  0  0
 18 19  1  0  0  0  0
 18 34  1  0  0  0  0
 18 35  1  0  0  0  0
 19 24  1  0  0  0  0
 19 20  1  0  0  0  0
 19 45  1  0  0  0  0
 20 21  1  0  0  0  0
 20 36  1  0  0  0  0
 20 37  1  0  0  0  0
 21 22  1  0  0  0  0
 21 38  1  0  0  0  0
 21 39  1  0  0  0  0
 22 23  1  0  0  0  0
 22 40  1  0  0  0  0
 22 41  1  0  0  0  0
 23 24  1  0  0  0  0
 23 42  1  0  0  0  0
 23 43  1  0  0  0  0
 24 44  1  0  0  0  0
M  CHG  1  19   1
M  END
> <s_m_source_file>
AV-unprocessed.smi

> <i_m_source_file_index>
1976

> <i_lp_mmshare_version>
43012

> <i_f3d_flags>
0

> <s_epik_input>
W0NIMl0xW0NIMl1bQ0gyXVtDSDJdW0NASF0oTjEyKVtDQEBIXShbQ0gyXVtDSDJdMilbTkhdQyg9TylbQ0gyXW4zW2NIXWMoQyhGKShGKUYpW2NIXVtjSF1jMz1P

> <s_epik_cmdline>
J2VwaWtfcHl0aG9uJywgJy1waCcsICc3LjAnLCAnLXRuJywgJzgnLCAnLW1hJywgJzIwMCcsICctbWV0YWxfYmluZGluZycsICctaW1hZScsICc8aW5maWxlLm1hZT4nLCAnLW9tYWUnLCAnPG91dGZpbGUubWFlPic=

> <r_lp_tautomer_probability>
1

> <r_epik_Ionization_Penalty>
0.00171506

> <r_epik_Ionization_Penalty_Charging>
0.00171498

> <r_epik_Ionization_Penalty_Neutral>
7.81737e-08

> <r_epik_State_Penalty>
0.00115937

> <r_epik_Charging_Adjusted_Penalty>
0.00287436

> <i_epik_Tot_Q>
1

> <i_epik_Tot_abs_Q>
1

> <r_epik_Metal_State_Penalty>
-0

> <b_epik_Metal_Only>
0

> <s_lp_Force_Field>
OPLS_2005

> <r_lp_Energy>
48.7142

> <b_lp_Chiralities_Consistent>
1

> <s_lp_Variant>
AV-unprocessed.smi:1976-6

> <Gold.Version>
5.8.1

> <Gold.Id.Protein>
6NUR|6NUR_protein|mol2

> <Gold.PLP.Fitness>
52.8857

> <Gold.PLP.PLP>
-39.9532

> <Gold.PLP.part.hbond>
-3.0000

> <Gold.PLP.part.metal>
0.0000

> <Gold.PLP.part.buried>
-5.0628

> <Gold.PLP.part.nonpolar>
-30.9814

> <Gold.PLP.part.repulsive>
0.0643

> <Gold.PLP.ligand.clash>
0.0000

> <Gold.PLP.ligand.torsion>
0.5593

> <Gold.PLP.Chemscore.Hbond>
4.0000

> <Gold.PLP.Chemscore.CHOScore>
0.6546

> <Gold.PLP.Chemscore.Metal>
0.0000

> <Gold.Chemscore.Hbonds>
donor molecule, donor type, donor heavy atom, donor atom, acceptor molecule, acceptor atom, score
      L1  H    15    30       P1  8028  1.00
      L1  H    19    45       P1 10175  2.00
      P1  H  7997  8010       L1    14  0.91
      L1  C     5    27       P1  8028  0.65

> <Gold.PLP.Chemscore.Internal.Correction>
0.0875

> <Gold.Rescore>
     Score         DG    S(hbond)    S(metal)    S(lipo)     H(rot)  DE(clash)    DE(int)     intcor
     17.24     -19.50       2.73        0.00      76.57       1.58       0.22       2.05       ----

> <Gold.Chemscore.Fitness>
17.2387

> <Gold.Chemscore.DG>
-19.5028

> <Gold.Chemscore.ZeroCoef>
-5.4800

> <Gold.Chemscore.Hbond>
2.7294

> <Gold.Chemscore.Metal>
0.0000

> <Gold.Chemscore.Lipo>
76.5718

> <Gold.Chemscore.Internal_Hbond>
0.0000

> <Gold.Chemscore.DEClash>
0.2168

> <Gold.Chemscore.DEInternal>
2.0473

> <Gold.Chemscore.Rot>
1.5830

> <Gold.Chemscore.Internal.Correction>
   9.000000E+99

> <Gold.Chemscore.Hbonds>
donor molecule, donor type, donor heavy atom, donor atom, acceptor molecule, acceptor atom, score
      L1  H    15    30       P1  8028  0.98
      L1  H    19    45       P1 10175  0.94
      P1  H  7997  8010       L1    14  0.19

> <Gold.Chemscore.Hbond.Weighted>
-9.1162

> <Gold.Chemscore.Metal.Weighted>
-0.0000

> <Gold.Chemscore.Lipo.Weighted>
-8.9589

> <Gold.Chemscore.Internal_Hbond.Weighted>
0.0000

> <Gold.Chemscore.DEClash.Weighted>
0.2168

> <Gold.Chemscore.DEInternal.Weighted>
2.0473

> <Gold.Chemscore.Rot.Weighted>
4.0524

> <Gold.Chemscore.Internal.Correction.Weighted>
   9.000000E+99

> <Gold.Protein.RotatedTorsions>
[ 6907 6896 6895 6894 ] final   51.06 input  -60.11 | X-H torsion
[ 7974 7965 7964 7962 ] final  -60.11 input  175.53 | X-H torsion
[ 8008 7997 7996 7995 ] final   63.68 input   59.86 | X-H torsion
[ 10167 10162 10161 10158 ] final   14.11 input  -65.29 | X-H torsion
[ 10718 10713 10712 10709 ] final -165.25 input   66.30 | X-H torsion
[ 10763 10752 10751 10750 ] final    0.20 input  -60.55 | X-H torsion
[ 11005 11000 10999 10996 ] final  124.36 input  -57.11 | X-H torsion

> <Gold.Protein.ActiveResidues>
 VAL166  LYS551  ARG553  GLY616  TRP617  ASP618  TYR619  PRO620  LYS621  CYS622 
 ASP623  PHE694  ASN695  SER759  ASP760  ASP761  ALA762  ILE779  LEU786  VAL792 
 PHE793  MET794  SER795  GLU796  ALA797  LYS798  CYS799  TRP800  GLU811  SER814 

> <Gold.Protein.RotatedAtoms>
  152.3086  134.7525  160.0341 H   0  0  0  0  0  0  0  0  0  0  0  0  # atno 6907 bound_to 6896
  151.8014  133.3365  159.3536 H   0  0  0  0  0  0  0  0  0  0  0  0  # atno 6908 bound_to 6896
  150.7309  134.5680  159.5920 H   0  0  0  0  0  0  0  0  0  0  0  0  # atno 6909 bound_to 6896
  145.8195  140.8549  143.0140 H   0  0  0  0  0  0  0  0  0  0  0  0  # atno 7974 bound_to 7965
  155.6340  140.3496  155.4692 H   0  0  0  0  0  0  0  0  0  0  0  0  # atno 8008 bound_to 7997
  155.9980  140.1207  157.0598 H   0  0  0  0  0  0  0  0  0  0  0  0  # atno 8009 bound_to 7997
  154.4239  140.1106  156.5643 H   0  0  0  0  0  0  0  0  0  0  0  0  # atno 8010 bound_to 7997
  140.5957  143.8706  150.6916 H   0  0  0  0  0  0  0  0  0  0  0  0  # atno 10167 bound_to 10162
  156.6507  130.9006  151.3012 H   0  0  0  0  0  0  0  0  0  0  0  0  # atno 10718 bound_to 10713
  153.3237  135.6971  153.7008 H   0  0  0  0  0  0  0  0  0  0  0  0  # atno 10763 bound_to 10752
  153.5838  135.3493  155.2886 H   0  0  0  0  0  0  0  0  0  0  0  0  # atno 10764 bound_to 10752
  154.8603  135.4301  154.2407 H   0  0  0  0  0  0  0  0  0  0  0  0  # atno 10765 bound_to 10752
  139.9355  134.9639  156.8398 H   0  0  0  0  0  0  0  0  0  0  0  0  # atno 11005 bound_to 11000
  144.6749  140.0512  143.7478 LP  0  0  0  0  0  0  0  0  0  0  0  0  # atno 17320 bound_to 7965
  145.9691  139.2856  143.1110 LP  0  0  0  0  0  0  0  0  0  0  0  0  # atno 17321 bound_to 7965
  140.2240  143.3787  152.1620 LP  0  0  0  0  0  0  0  0  0  0  0  0  # atno 17342 bound_to 10162
  139.5257  144.7098  151.5240 LP  0  0  0  0  0  0  0  0  0  0  0  0  # atno 17343 bound_to 10162
  157.7142  130.9476  150.1195 LP  0  0  0  0  0  0  0  0  0  0  0  0  # atno 17370 bound_to 10713
  156.2087  130.3665  149.8698 LP  0  0  0  0  0  0  0  0  0  0  0  0  # atno 17371 bound_to 10713
  140.6087  134.0103  155.7567 LP  0  0  0  0  0  0  0  0  0  0  0  0  # atno 17394 bound_to 11000
  141.0967  133.9833  157.3149 LP  0  0  0  0  0  0  0  0  0  0  0  0  # atno 17395 bound_to 11000

$$$$
