AV-unprocessed.smi:2124|AV-procd|sdf|8662|dock1
  -GOLD-   2272011413D 1   1.00000     0.00000
 Structure written by MMmdl.
 47 49  0  0  0  0  0  0  0  0  1 V2000
  149.1011  141.5294  153.2165 C   0  0  0  0  0  0  0  0  0  0  0  0
  150.0403  140.8354  154.1788 C   0  0  0  0  0  0  0  0  0  0  0  0
  149.4028  139.9683  155.0509 N   0  0  0  0  0  0  0  0  0  0  0  0
  150.1785  139.2974  155.9798 C   0  0  0  0  0  0  0  0  0  0  0  0
  149.4002  138.3761  156.9032 C   0  0  0  0  0  0  0  0  0  0  0  0
  151.5233  139.4746  156.0301 C   0  0  0  0  0  0  0  0  0  0  0  0
  152.4234  138.7549  157.0329 C   0  0  0  0  0  0  0  0  0  0  0  0
  153.2699  139.6539  157.9377 C   0  0  0  0  0  0  0  0  0  0  0  0
  154.4734  139.4395  158.0827 O   0  0  0  0  0  0  0  0  0  0  0  0
  152.6214  140.6628  158.5387 N   0  0  0  0  0  0  0  0  0  0  0  0
  153.2262  141.6605  159.4195 C   0  0  2  0  0  0  0  0  0  0  0  0
  153.8287  140.9453  160.6424 C   0  0  0  0  0  0  0  0  0  0  0  0
  152.1624  142.7185  159.8048 C   0  0  2  0  0  0  0  0  0  0  0  0
  151.3367  143.2389  158.6004 C   0  0  0  0  0  0  0  0  0  0  0  0
  151.4840  144.7669  158.7009 C   0  0  1  0  0  0  0  0  0  0  0  0
  150.7194  145.2799  159.9346 C   0  0  0  0  0  0  0  0  0  0  0  0
  151.6020  144.8004  161.1018 C   0  0  0  0  0  0  0  0  0  0  0  0
  152.7329  144.0388  160.3834 C   0  0  2  0  0  0  0  0  0  0  0  0
  152.9347  144.9029  159.1424 C   0  0  0  0  0  0  0  0  0  0  0  0
  152.1507  140.4006  155.0584 C   0  0  0  0  0  0  0  0  0  0  0  0
  153.3675  140.5830  155.0383 O   0  0  0  0  0  0  0  0  0  0  0  0
  151.3172  141.0684  154.1466 N   0  0  0  0  0  0  0  0  0  0  0  0
  148.4060  139.8068  155.0473 H   0  0  0  0  0  0  0  0  0  0  0  0
  149.6462  142.2108  152.5620 H   0  0  0  0  0  0  0  0  0  0  0  0
  148.3547  142.1067  153.7632 H   0  0  0  0  0  0  0  0  0  0  0  0
  148.5867  140.7974  152.5931 H   0  0  0  0  0  0  0  0  0  0  0  0
  149.4872  138.7114  157.9367 H   0  0  0  0  0  0  0  0  0  0  0  0
  149.7816  137.3570  156.8372 H   0  0  0  0  0  0  0  0  0  0  0  0
  148.3399  138.3524  156.6480 H   0  0  0  0  0  0  0  0  0  0  0  0
  153.1089  138.1011  156.4942 H   0  0  0  0  0  0  0  0  0  0  0  0
  151.8234  138.0804  157.6460 H   0  0  0  0  0  0  0  0  0  0  0  0
  151.6328  140.7603  158.3580 H   0  0  0  0  0  0  0  0  0  0  0  0
  154.0327  142.1636  158.8835 H   0  0  0  0  0  0  0  0  0  0  0  0
  154.3608  141.6352  161.2958 H   0  0  0  0  0  0  0  0  0  0  0  0
  154.5455  140.1826  160.3367 H   0  0  0  0  0  0  0  0  0  0  0  0
  153.0562  140.4540  161.2348 H   0  0  0  0  0  0  0  0  0  0  0  0
  151.4894  142.2645  160.5342 H   0  0  0  0  0  0  0  0  0  0  0  0
  151.7488  142.8942  157.6509 H   0  0  0  0  0  0  0  0  0  0  0  0
  150.2951  142.9179  158.6423 H   0  0  0  0  0  0  0  0  0  0  0  0
  151.2314  145.2915  157.7790 H   0  0  0  0  0  0  0  0  0  0  0  0
  150.6506  146.3686  159.9272 H   0  0  0  0  0  0  0  0  0  0  0  0
  149.7062  144.8796  159.9870 H   0  0  0  0  0  0  0  0  0  0  0  0
  152.0014  145.6527  161.6528 H   0  0  0  0  0  0  0  0  0  0  0  0
  151.0571  144.1740  161.8089 H   0  0  0  0  0  0  0  0  0  0  0  0
  153.6202  143.9220  161.0038 H   0  0  0  0  0  0  0  0  0  0  0  0
  153.6464  144.4850  158.4286 H   0  0  0  0  0  0  0  0  0  0  0  0
  153.2221  145.9306  159.3724 H   0  0  0  0  0  0  0  0  0  0  0  0
  1 24  1  0  0  0  0
  1 25  1  0  0  0  0
  1 26  1  0  0  0  0
  1  2  1  0  0  0  0
  2  3  1  0  0  0  0
  2 22  2  0  0  0  0
  3  4  1  0  0  0  0
  3 23  1  0  0  0  0
  4  6  2  0  0  0  0
  4  5  1  0  0  0  0
  5 27  1  0  0  0  0
  5 28  1  0  0  0  0
  5 29  1  0  0  0  0
  6 20  1  0  0  0  0
  6  7  1  0  0  0  0
  7  8  1  0  0  0  0
  7 30  1  0  0  0  0
  7 31  1  0  0  0  0
  8  9  2  0  0  0  0
  8 10  1  0  0  0  0
 10 11  1  0  0  0  0
 10 32  1  0  0  0  0
 11 12  1  0  0  0  0
 11 13  1  0  0  0  0
 11 33  1  0  0  0  0
 12 34  1  0  0  0  0
 12 35  1  0  0  0  0
 12 36  1  0  0  0  0
 13 18  1  0  0  0  0
 13 14  1  0  0  0  0
 13 37  1  0  0  0  0
 14 15  1  0  0  0  0
 14 38  1  0  0  0  0
 14 39  1  0  0  0  0
 15 19  1  0  0  0  0
 15 16  1  0  0  0  0
 15 40  1  0  0  0  0
 16 17  1  0  0  0  0
 16 41  1  0  0  0  0
 16 42  1  0  0  0  0
 17 18  1  0  0  0  0
 17 43  1  0  0  0  0
 17 44  1  0  0  0  0
 18 19  1  0  0  0  0
 18 45  1  0  0  0  0
 19 46  1  0  0  0  0
 19 47  1  0  0  0  0
 20 21  2  0  0  0  0
 20 22  1  0  0  0  0
M  END
> <s_m_source_file>
AV-unprocessed.smi

> <i_m_source_file_index>
2124

> <i_lp_mmshare_version>
43012

> <i_f3d_flags>
0

> <s_epik_input>
W0NIM11jMW5jKFtDSDNdKWMoYyg9TylbbkhdMSlbQ0gyXUMoPU8pW05IXVtDQEhdKFtDSDNdKVtDQEhdKFtDSDJdW0NASF0yMylbQ0BIXShbQ0gyXTMpW0NIMl1bQ0gyXTI=

> <s_epik_cmdline>
J2VwaWtfcHl0aG9uJywgJy1waCcsICc3LjAnLCAnLXRuJywgJzgnLCAnLW1hJywgJzIwMCcsICctbWV0YWxfYmluZGluZycsICctaW1hZScsICc8aW5maWxlLm1hZT4nLCAnLW9tYWUnLCAnPG91dGZpbGUubWFlPic=

> <r_lp_tautomer_probability>
0.156392

> <r_epik_Ionization_Penalty>
0.0139374

> <r_epik_Ionization_Penalty_Charging>
0.0138122

> <r_epik_Ionization_Penalty_Neutral>
0.000125146

> <r_epik_State_Penalty>
1.15342

> <r_epik_Charging_Adjusted_Penalty>
1.16723

> <i_epik_Tot_Q>
0

> <i_epik_Tot_abs_Q>
0

> <r_epik_Metal_State_Penalty>
1.3173

> <b_epik_Metal_Only>
0

> <s_lp_Force_Field>
OPLS_2005

> <r_lp_Energy>
56.0301

> <b_lp_Chiralities_Consistent>
1

> <s_lp_Variant>
AV-unprocessed.smi:2124-13

> <Gold.Version>
5.8.1

> <Gold.Id.Protein>
6NUR|6NUR_protein|mol2

> <Gold.PLP.Fitness>
53.0304

> <Gold.PLP.PLP>
-44.6634

> <Gold.PLP.part.hbond>
-3.0000

> <Gold.PLP.part.metal>
0.0000

> <Gold.PLP.part.buried>
-4.9141

> <Gold.PLP.part.nonpolar>
-36.7532

> <Gold.PLP.part.repulsive>
0.1912

> <Gold.PLP.ligand.clash>
0.0000

> <Gold.PLP.ligand.torsion>
0.3467

> <Gold.PLP.Chemscore.Hbond>
3.0000

> <Gold.PLP.Chemscore.CHOScore>
0.0000

> <Gold.PLP.Chemscore.Metal>
0.0000

> <Gold.Chemscore.Hbonds>
donor molecule, donor type, donor heavy atom, donor atom, acceptor molecule, acceptor atom, score
      P1  H  7997  8008       L1     9  0.19
      P1  H  7997  8009       L1    21  0.67

> <Gold.PLP.Chemscore.Internal.Correction>
0.0604

> <Gold.Rescore>
     Score         DG    S(hbond)    S(metal)    S(lipo)     H(rot)  DE(clash)    DE(int)     intcor
     20.29     -24.40       2.70        0.00     120.92       1.65       1.99       2.12       ----

> <Gold.Chemscore.Fitness>
20.2898

> <Gold.Chemscore.DG>
-24.3985

> <Gold.Chemscore.ZeroCoef>
-5.4800

> <Gold.Chemscore.Hbond>
2.6957

> <Gold.Chemscore.Metal>
0.0000

> <Gold.Chemscore.Lipo>
120.9186

> <Gold.Chemscore.Internal_Hbond>
0.0000

> <Gold.Chemscore.DEClash>
1.9934

> <Gold.Chemscore.DEInternal>
2.1153

> <Gold.Chemscore.Rot>
1.6534

> <Gold.Chemscore.Internal.Correction>
   9.000000E+99

> <Gold.Chemscore.Hbonds>
donor molecule, donor type, donor heavy atom, donor atom, acceptor molecule, acceptor atom, score
      P1  H  7997  8008       L1     9  0.18
      P1  H  7997  8009       L1    21  0.64

> <Gold.Chemscore.Hbond.Weighted>
-9.0036

> <Gold.Chemscore.Metal.Weighted>
-0.0000

> <Gold.Chemscore.Lipo.Weighted>
-14.1475

> <Gold.Chemscore.Internal_Hbond.Weighted>
0.0000

> <Gold.Chemscore.DEClash.Weighted>
1.9934

> <Gold.Chemscore.DEInternal.Weighted>
2.1153

> <Gold.Chemscore.Rot.Weighted>
4.2326

> <Gold.Chemscore.Internal.Correction.Weighted>
   9.000000E+99

> <Gold.Protein.RotatedTorsions>
[ 6907 6896 6895 6894 ] final  -23.23 input  -60.11 | X-H torsion
[ 7974 7965 7964 7962 ] final -117.03 input  175.53 | X-H torsion
[ 8008 7997 7996 7995 ] final -130.77 input   59.86 | X-H torsion
[ 10167 10162 10161 10158 ] final   93.22 input  -65.29 | X-H torsion
[ 10718 10713 10712 10709 ] final -111.47 input   66.30 | X-H torsion
[ 10763 10752 10751 10750 ] final  -17.67 input  -60.55 | X-H torsion
[ 11005 11000 10999 10996 ] final  -32.46 input  -57.11 | X-H torsion

> <Gold.Protein.ActiveResidues>
 VAL166  LYS551  ARG553  GLY616  TRP617  ASP618  TYR619  PRO620  LYS621  CYS622 
 ASP623  PHE694  ASN695  SER759  ASP760  ASP761  ALA762  ILE779  LEU786  VAL792 
 PHE793  MET794  SER795  GLU796  ALA797  LYS798  CYS799  TRP800  GLU811  SER814 

> <Gold.Protein.RotatedAtoms>
  151.2070  135.0466  159.8895 H   0  0  0  0  0  0  0  0  0  0  0  0  # atno 6907 bound_to 6896
  152.5428  134.0787  159.8236 H   0  0  0  0  0  0  0  0  0  0  0  0  # atno 6908 bound_to 6896
  151.0935  133.5250  159.2645 H   0  0  0  0  0  0  0  0  0  0  0  0  # atno 6909 bound_to 6896
  145.0899  140.8483  143.3988 H   0  0  0  0  0  0  0  0  0  0  0  0  # atno 7974 bound_to 7965
  155.3012  140.0453  157.3029 H   0  0  0  0  0  0  0  0  0  0  0  0  # atno 8008 bound_to 7997
  154.5485  140.2310  155.8490 H   0  0  0  0  0  0  0  0  0  0  0  0  # atno 8009 bound_to 7997
  156.1946  140.3042  155.9408 H   0  0  0  0  0  0  0  0  0  0  0  0  # atno 8010 bound_to 7997
  139.8201  144.6735  150.9530 H   0  0  0  0  0  0  0  0  0  0  0  0  # atno 10167 bound_to 10162
  156.0649  130.5869  150.8377 H   0  0  0  0  0  0  0  0  0  0  0  0  # atno 10718 bound_to 10713
  153.5775  135.7006  153.5477 H   0  0  0  0  0  0  0  0  0  0  0  0  # atno 10763 bound_to 10752
  153.3290  135.4052  155.1479 H   0  0  0  0  0  0  0  0  0  0  0  0  # atno 10764 bound_to 10752
  154.8623  135.3714  154.5301 H   0  0  0  0  0  0  0  0  0  0  0  0  # atno 10765 bound_to 10752
  140.9554  133.7196  156.1285 H   0  0  0  0  0  0  0  0  0  0  0  0  # atno 11005 bound_to 11000
  145.1078  139.2778  143.5653 LP  0  0  0  0  0  0  0  0  0  0  0  0  # atno 17320 bound_to 7965
  146.3531  140.0664  142.8626 LP  0  0  0  0  0  0  0  0  0  0  0  0  # atno 17321 bound_to 7965
  140.7813  143.4100  151.1008 LP  0  0  0  0  0  0  0  0  0  0  0  0  # atno 17342 bound_to 10162
  139.7761  143.8423  152.3129 LP  0  0  0  0  0  0  0  0  0  0  0  0  # atno 17343 bound_to 10162
  157.5683  131.0946  150.9456 LP  0  0  0  0  0  0  0  0  0  0  0  0  # atno 17370 bound_to 10713
  156.9678  130.5479  149.5289 LP  0  0  0  0  0  0  0  0  0  0  0  0  # atno 17371 bound_to 10713
  140.7543  134.4010  157.5536 LP  0  0  0  0  0  0  0  0  0  0  0  0  # atno 17394 bound_to 11000
  139.8860  134.8920  156.2607 LP  0  0  0  0  0  0  0  0  0  0  0  0  # atno 17395 bound_to 11000

$$$$
