AV-unprocessed.smi:2691|AV-procd|sdf|10390|dock4
  -GOLD-   2272014423D 1   1.00000     0.00000
 Structure written by MMmdl.
 49 51  0  0  0  0  0  0  0  0  1 V2000
  151.5150  143.8293  158.4518 C   0  0  0  0  0  0  0  0  0  0  0  0
  151.5803  142.4371  157.8491 C   0  0  0  0  0  0  0  0  0  0  0  0
  150.9336  142.1908  156.6172 C   0  0  0  0  0  0  0  0  0  0  0  0
  150.9662  140.9094  156.0253 C   0  0  0  0  0  0  0  0  0  0  0  0
  150.4116  140.4522  154.8421 N   0  0  0  0  0  0  0  0  0  0  0  0
  150.7846  139.1759  154.8479 C   0  0  0  0  0  0  0  0  0  0  0  0
  151.5084  138.7489  155.9007 N   0  0  0  0  0  0  0  0  0  0  0  0
  152.0108  137.4063  156.1326 C   0  0  0  0  0  0  0  0  0  0  0  0
  151.3845  136.7512  157.3801 C   0  0  2  0  0  0  0  0  0  0  0  0
  152.2052  135.6542  157.7251 O   0  0  0  0  0  0  0  0  0  0  0  0
  149.9402  136.2382  157.1565 C   0  0  0  0  0  0  0  0  0  0  0  0
  149.2626  135.9431  158.4282 N   0  0  0  0  0  0  0  0  0  0  0  0
  148.9660  137.0464  159.2499 C   0  0  0  0  0  0  0  0  0  0  0  0
  148.3614  136.9063  160.3863 N   0  0  0  0  0  0  0  0  0  0  0  0
  147.9847  135.6297  160.8220 C   0  0  0  0  0  0  0  0  0  0  0  0
  147.2701  135.5221  162.1628 C   0  0  0  0  0  0  0  0  0  0  0  0
  148.0864  136.1654  163.2955 C   0  0  0  0  0  0  0  0  0  0  0  0
  146.9080  134.0644  162.4859 C   0  0  0  0  0  0  0  0  0  0  0  0
  148.2427  134.5384  160.0622 C   0  0  0  0  0  0  0  0  0  0  0  0
  148.9243  134.6664  158.7742 C   0  0  0  0  0  0  0  0  0  0  0  0
  149.1695  133.6981  158.0544 O   0  0  0  0  0  0  0  0  0  0  0  0
  151.6677  139.8716  156.7058 C   0  0  0  0  0  0  0  0  0  0  0  0
  152.3201  140.1056  157.9292 C   0  0  0  0  0  0  0  0  0  0  0  0
  152.2781  141.3920  158.5063 C   0  0  0  0  0  0  0  0  0  0  0  0
  152.9824  141.6334  159.8296 C   0  0  0  0  0  0  0  0  0  0  0  0
  150.9141  144.5010  157.8380 H   0  0  0  0  0  0  0  0  0  0  0  0
  152.5145  144.2565  158.5357 H   0  0  0  0  0  0  0  0  0  0  0  0
  151.0672  143.7950  159.4450 H   0  0  0  0  0  0  0  0  0  0  0  0
  150.4032  142.9867  156.1154 H   0  0  0  0  0  0  0  0  0  0  0  0
  150.5058  138.5089  154.0454 H   0  0  0  0  0  0  0  0  0  0  0  0
  151.8176  136.8005  155.2458 H   0  0  0  0  0  0  0  0  0  0  0  0
  153.0946  137.4683  156.2405 H   0  0  0  0  0  0  0  0  0  0  0  0
  151.4164  137.4663  158.2030 H   0  0  0  0  0  0  0  0  0  0  0  0
  152.9439  135.6339  157.1360 H   0  0  0  0  0  0  0  0  0  0  0  0
  149.3446  136.9841  156.6295 H   0  0  0  0  0  0  0  0  0  0  0  0
  149.9345  135.3828  156.4774 H   0  0  0  0  0  0  0  0  0  0  0  0
  149.2761  138.0179  158.8612 H   0  0  0  0  0  0  0  0  0  0  0  0
  146.3346  136.0779  162.0854 H   0  0  0  0  0  0  0  0  0  0  0  0
  148.3187  137.2064  163.0691 H   0  0  0  0  0  0  0  0  0  0  0  0
  149.0285  135.6414  163.4602 H   0  0  0  0  0  0  0  0  0  0  0  0
  147.5324  136.1491  164.2344 H   0  0  0  0  0  0  0  0  0  0  0  0
  146.3074  133.6240  161.6894 H   0  0  0  0  0  0  0  0  0  0  0  0
  146.3292  134.0005  163.4076 H   0  0  0  0  0  0  0  0  0  0  0  0
  147.7990  133.4482  162.6107 H   0  0  0  0  0  0  0  0  0  0  0  0
  147.9456  133.5571  160.4022 H   0  0  0  0  0  0  0  0  0  0  0  0
  152.8451  139.3003  158.4210 H   0  0  0  0  0  0  0  0  0  0  0  0
  153.5170  140.7437  160.1635 H   0  0  0  0  0  0  0  0  0  0  0  0
  152.2606  141.9011  160.6016 H   0  0  0  0  0  0  0  0  0  0  0  0
  153.7075  142.4424  159.7367 H   0  0  0  0  0  0  0  0  0  0  0  0
  1  2  1  0  0  0  0
  1 26  1  0  0  0  0
  1 27  1  0  0  0  0
  1 28  1  0  0  0  0
  2 24  1  0  0  0  0
  2  3  2  0  0  0  0
  3  4  1  0  0  0  0
  3 29  1  0  0  0  0
  4 22  2  0  0  0  0
  4  5  1  0  0  0  0
  5  6  2  0  0  0  0
  6  7  1  0  0  0  0
  6 30  1  0  0  0  0
  7  8  1  0  0  0  0
  7 22  1  0  0  0  0
  8  9  1  0  0  0  0
  8 31  1  0  0  0  0
  8 32  1  0  0  0  0
  9 10  1  0  0  0  0
  9 11  1  0  0  0  0
  9 33  1  0  0  0  0
 10 34  1  0  0  0  0
 11 12  1  0  0  0  0
 11 35  1  0  0  0  0
 11 36  1  0  0  0  0
 12 20  1  0  0  0  0
 12 13  1  0  0  0  0
 13 14  2  0  0  0  0
 13 37  1  0  0  0  0
 14 15  1  0  0  0  0
 15 16  1  0  0  0  0
 15 19  2  0  0  0  0
 16 17  1  0  0  0  0
 16 18  1  0  0  0  0
 16 38  1  0  0  0  0
 17 39  1  0  0  0  0
 17 40  1  0  0  0  0
 17 41  1  0  0  0  0
 18 42  1  0  0  0  0
 18 43  1  0  0  0  0
 18 44  1  0  0  0  0
 19 20  1  0  0  0  0
 19 45  1  0  0  0  0
 20 21  2  0  0  0  0
 22 23  1  0  0  0  0
 23 24  2  0  0  0  0
 23 46  1  0  0  0  0
 24 25  1  0  0  0  0
 25 47  1  0  0  0  0
 25 48  1  0  0  0  0
 25 49  1  0  0  0  0
M  END
> <s_m_source_file>
AV-unprocessed.smi

> <i_m_source_file_index>
2691

> <i_lp_mmshare_version>
43012

> <i_f3d_flags>
0

> <s_epik_input>
W0NIM11jKFtjSF0xKWMoW0NIM10pW2NIXWMoYzEyKW4oW2NIXW4yKVtDSDJdW0NASF0oW09IXSlbQ0gyXW4zW2NIXW5jKFtDSF0oW0NIM10pW0NIM10pW2NIXWMzPU8=

> <s_epik_cmdline>
J2VwaWtfcHl0aG9uJywgJy1waCcsICc3LjAnLCAnLXRuJywgJzgnLCAnLW1hJywgJzIwMCcsICctbWV0YWxfYmluZGluZycsICctaW1hZScsICc8aW5maWxlLm1hZT4nLCAnLW9tYWUnLCAnPG91dGZpbGUubWFlPic=

> <r_lp_tautomer_probability>
1

> <r_epik_Ionization_Penalty>
0.113357

> <r_epik_Ionization_Penalty_Charging>
3.84185e-08

> <r_epik_Ionization_Penalty_Neutral>
0.113357

> <r_epik_State_Penalty>
0.103025

> <r_epik_Charging_Adjusted_Penalty>
0.103025

> <i_epik_Tot_Q>
0

> <i_epik_Tot_abs_Q>
0

> <r_epik_Metal_State_Penalty>
0.0863451

> <b_epik_Metal_Only>
0

> <s_lp_Force_Field>
OPLS_2005

> <r_lp_Energy>
18.3457

> <b_lp_Chiralities_Consistent>
1

> <s_lp_Variant>
AV-unprocessed.smi:2691-1

> <Gold.Version>
5.8.1

> <Gold.Id.Protein>
6NUR|6NUR_protein|mol2

> <Gold.PLP.Fitness>
54.4576

> <Gold.PLP.PLP>
-48.2907

> <Gold.PLP.part.hbond>
-4.7047

> <Gold.PLP.part.metal>
0.0000

> <Gold.PLP.part.buried>
-5.1797

> <Gold.PLP.part.nonpolar>
-39.9162

> <Gold.PLP.part.repulsive>
0.0886

> <Gold.PLP.ligand.clash>
0.0000

> <Gold.PLP.ligand.torsion>
0.3451

> <Gold.PLP.Chemscore.Hbond>
2.2648

> <Gold.PLP.Chemscore.CHOScore>
0.0000

> <Gold.PLP.Chemscore.Metal>
0.0000

> <Gold.Chemscore.Hbonds>
donor molecule, donor type, donor heavy atom, donor atom, acceptor molecule, acceptor atom, score
      P1  H  6896  6909       L1    10  0.01
      P1  H  6931  6943       L1    14  0.62
      P1  H  7989  7998       L1     5  0.65

> <Gold.PLP.Chemscore.Internal.Correction>
0.0627

> <Gold.Rescore>
     Score         DG    S(hbond)    S(metal)    S(lipo)     H(rot)  DE(clash)    DE(int)     intcor
     16.66     -17.01       1.17        0.00     118.69       2.45       0.01       0.34       ----

> <Gold.Chemscore.Fitness>
16.6650

> <Gold.Chemscore.DG>
-17.0101

> <Gold.Chemscore.ZeroCoef>
-5.4800

> <Gold.Chemscore.Hbond>
1.1749

> <Gold.Chemscore.Metal>
0.0000

> <Gold.Chemscore.Lipo>
118.6930

> <Gold.Chemscore.Internal_Hbond>
0.0000

> <Gold.Chemscore.DEClash>
0.0081

> <Gold.Chemscore.DEInternal>
0.3370

> <Gold.Chemscore.Rot>
2.4536

> <Gold.Chemscore.Internal.Correction>
   9.000000E+99

> <Gold.Chemscore.Hbonds>
donor molecule, donor type, donor heavy atom, donor atom, acceptor molecule, acceptor atom, score
      P1  H  6896  6909       L1    10  0.01
      P1  H  6931  6943       L1    14  0.49
      P1  H  6934  6947       L1    14  0.01
      P1  H  7989  7998       L1     5  0.03

> <Gold.Chemscore.Hbond.Weighted>
-3.9243

> <Gold.Chemscore.Metal.Weighted>
-0.0000

> <Gold.Chemscore.Lipo.Weighted>
-13.8871

> <Gold.Chemscore.Internal_Hbond.Weighted>
0.0000

> <Gold.Chemscore.DEClash.Weighted>
0.0081

> <Gold.Chemscore.DEInternal.Weighted>
0.3370

> <Gold.Chemscore.Rot.Weighted>
6.2812

> <Gold.Chemscore.Internal.Correction.Weighted>
   9.000000E+99

> <Gold.Protein.RotatedTorsions>
[ 6907 6896 6895 6894 ] final  133.84 input  -60.11 | X-H torsion
[ 7974 7965 7964 7962 ] final  126.80 input  175.53 | X-H torsion
[ 8008 7997 7996 7995 ] final  173.57 input   59.86 | X-H torsion
[ 10167 10162 10161 10158 ] final   31.35 input  -65.29 | X-H torsion
[ 10718 10713 10712 10709 ] final  113.03 input   66.30 | X-H torsion
[ 10763 10752 10751 10750 ] final   33.46 input  -60.55 | X-H torsion
[ 11005 11000 10999 10996 ] final  -95.00 input  -57.11 | X-H torsion

> <Gold.Protein.ActiveResidues>
 VAL166  LYS551  ARG553  GLY616  TRP617  ASP618  TYR619  PRO620  LYS621  CYS622 
 ASP623  PHE694  ASN695  SER759  ASP760  ASP761  ALA762  ILE779  LEU786  VAL792 
 PHE793  MET794  SER795  GLU796  ALA797  LYS798  CYS799  TRP800  GLU811  SER814 

> <Gold.Protein.RotatedAtoms>
  152.3177  133.5820  159.5723 H   0  0  0  0  0  0  0  0  0  0  0  0  # atno 6907 bound_to 6896
  150.7355  134.0058  159.3662 H   0  0  0  0  0  0  0  0  0  0  0  0  # atno 6908 bound_to 6896
  151.7945  135.0727  160.0443 H   0  0  0  0  0  0  0  0  0  0  0  0  # atno 6909 bound_to 6896
  145.0577  139.3831  143.5022 H   0  0  0  0  0  0  0  0  0  0  0  0  # atno 7974 bound_to 7965
  156.1062  140.1457  156.9401 H   0  0  0  0  0  0  0  0  0  0  0  0  # atno 8008 bound_to 7997
  154.4735  140.0902  156.7249 H   0  0  0  0  0  0  0  0  0  0  0  0  # atno 8009 bound_to 7997
  155.4675  140.3440  155.4323 H   0  0  0  0  0  0  0  0  0  0  0  0  # atno 8010 bound_to 7997
  140.4596  144.0926  150.6210 H   0  0  0  0  0  0  0  0  0  0  0  0  # atno 10167 bound_to 10162
  157.6360  131.0977  150.6982 H   0  0  0  0  0  0  0  0  0  0  0  0  # atno 10718 bound_to 10713
  153.0211  135.6386  154.1516 H   0  0  0  0  0  0  0  0  0  0  0  0  # atno 10763 bound_to 10752
  154.1250  135.2844  155.3201 H   0  0  0  0  0  0  0  0  0  0  0  0  # atno 10764 bound_to 10752
  154.6236  135.5516  153.7664 H   0  0  0  0  0  0  0  0  0  0  0  0  # atno 10765 bound_to 10752
  141.1454  133.7995  157.0375 H   0  0  0  0  0  0  0  0  0  0  0  0  # atno 11005 bound_to 11000
  146.3522  140.0259  142.8654 LP  0  0  0  0  0  0  0  0  0  0  0  0  # atno 17320 bound_to 7965
  145.1448  140.9591  143.4467 LP  0  0  0  0  0  0  0  0  0  0  0  0  # atno 17321 bound_to 7965
  140.4109  143.2657  151.9834 LP  0  0  0  0  0  0  0  0  0  0  0  0  # atno 17342 bound_to 10162
  139.4805  144.5916  151.7762 LP  0  0  0  0  0  0  0  0  0  0  0  0  # atno 17343 bound_to 10162
  156.7313  130.4710  149.5499 LP  0  0  0  0  0  0  0  0  0  0  0  0  # atno 17370 bound_to 10713
  156.1600  130.6367  151.0706 LP  0  0  0  0  0  0  0  0  0  0  0  0  # atno 17371 bound_to 10713
  140.0714  134.9700  157.1473 LP  0  0  0  0  0  0  0  0  0  0  0  0  # atno 17394 bound_to 11000
  140.3705  134.2395  155.7178 LP  0  0  0  0  0  0  0  0  0  0  0  0  # atno 17395 bound_to 11000

$$$$
