AV-unprocessed.smi:363|AV-procd|sdf|2424|dock3
  -GOLD-   2262022363D 1   1.00000     0.00000
 Structure written by MMmdl.
 39 40  0  0  0  0  0  0  0  0  1 V2000
  155.5668  140.2094  161.1986 C   0  0  0  0  0  0  0  0  0  0  0  0
  154.2625  140.1504  160.4132 C   0  0  0  0  0  0  0  0  0  0  0  0
  153.6986  141.3950  159.9452 C   0  0  0  0  0  0  0  0  0  0  0  0
  152.5299  141.4235  159.2852 C   0  0  0  0  0  0  0  0  0  0  0  0
  151.9408  142.7454  158.8038 C   0  0  0  0  0  0  0  0  0  0  0  0
  151.8247  140.2184  159.0146 N   0  0  0  0  0  0  0  0  0  0  0  0
  150.5333  140.2740  158.2907 C   0  0  0  0  0  0  0  0  0  0  0  0
  150.7130  140.4629  156.7648 C   0  0  1  0  0  0  0  0  0  0  0  0
  151.1353  139.2420  156.1914 O   0  0  0  0  0  0  0  0  0  0  0  0
  149.4198  140.9401  156.1202 C   0  0  0  0  0  0  0  0  0  0  0  0
  148.3359  141.3650  156.9200 C   0  0  0  0  0  0  0  0  0  0  0  0
  147.1443  141.8163  156.3203 C   0  0  0  0  0  0  0  0  0  0  0  0
  147.0296  141.8475  154.9171 C   0  0  0  0  0  0  0  0  0  0  0  0
  145.5698  142.4012  154.1826 Cl  0  0  0  0  0  0  0  0  0  0  0  0
  148.1079  141.4271  154.1145 C   0  0  0  0  0  0  0  0  0  0  0  0
  149.2995  140.9746  154.7141 C   0  0  0  0  0  0  0  0  0  0  0  0
  152.3064  138.9911  159.3933 C   0  0  0  0  0  0  0  0  0  0  0  0
  151.6981  137.9613  159.0846 O   0  0  0  0  0  0  0  0  0  0  0  0
  153.5836  138.9994  160.1591 C   0  0  0  0  0  0  0  0  0  0  0  0
  154.0944  137.6887  160.6072 C   0  0  0  0  0  0  0  0  0  0  0  0
  153.6860  136.6388  159.8812 N   0  0  0  0  0  0  0  0  0  0  0  0
  154.7795  137.5083  161.6129 O   0  0  0  0  0  0  0  0  0  0  0  0
  155.8360  141.2385  161.4379 H   0  0  0  0  0  0  0  0  0  0  0  0
  156.3835  139.7807  160.6174 H   0  0  0  0  0  0  0  0  0  0  0  0
  155.4830  139.6670  162.1408 H   0  0  0  0  0  0  0  0  0  0  0  0
  154.2232  142.3198  160.1376 H   0  0  0  0  0  0  0  0  0  0  0  0
  152.6771  143.5459  158.8812 H   0  0  0  0  0  0  0  0  0  0  0  0
  151.0865  143.0299  159.4186 H   0  0  0  0  0  0  0  0  0  0  0  0
  151.6301  142.7077  157.7614 H   0  0  0  0  0  0  0  0  0  0  0  0
  149.8989  139.4090  158.4949 H   0  0  0  0  0  0  0  0  0  0  0  0
  149.9386  141.0929  158.6930 H   0  0  0  0  0  0  0  0  0  0  0  0
  151.4927  141.1988  156.5655 H   0  0  0  0  0  0  0  0  0  0  0  0
  151.1286  139.3340  155.2509 H   0  0  0  0  0  0  0  0  0  0  0  0
  148.4174  141.3480  157.9969 H   0  0  0  0  0  0  0  0  0  0  0  0
  146.3198  142.1398  156.9386 H   0  0  0  0  0  0  0  0  0  0  0  0
  148.0235  141.4522  153.0380 H   0  0  0  0  0  0  0  0  0  0  0  0
  150.1207  140.6564  154.0885 H   0  0  0  0  0  0  0  0  0  0  0  0
  153.9780  135.7058  160.1343 H   0  0  0  0  0  0  0  0  0  0  0  0
  153.0726  136.7834  159.0924 H   0  0  0  0  0  0  0  0  0  0  0  0
  1  2  1  0  0  0  0
  1 23  1  0  0  0  0
  1 24  1  0  0  0  0
  1 25  1  0  0  0  0
  2 19  2  0  0  0  0
  2  3  1  0  0  0  0
  3  4  2  0  0  0  0
  3 26  1  0  0  0  0
  4  5  1  0  0  0  0
  4  6  1  0  0  0  0
  5 27  1  0  0  0  0
  5 28  1  0  0  0  0
  5 29  1  0  0  0  0
  6  7  1  0  0  0  0
  6 17  1  0  0  0  0
  7  8  1  0  0  0  0
  7 30  1  0  0  0  0
  7 31  1  0  0  0  0
  8  9  1  0  0  0  0
  8 10  1  0  0  0  0
  8 32  1  0  0  0  0
  9 33  1  0  0  0  0
 10 16  1  0  0  0  0
 10 11  2  0  0  0  0
 11 12  1  0  0  0  0
 11 34  1  0  0  0  0
 12 13  2  0  0  0  0
 12 35  1  0  0  0  0
 13 14  1  0  0  0  0
 13 15  1  0  0  0  0
 15 16  2  0  0  0  0
 15 36  1  0  0  0  0
 16 37  1  0  0  0  0
 17 18  2  0  0  0  0
 17 19  1  0  0  0  0
 19 20  1  0  0  0  0
 20 21  1  0  0  0  0
 20 22  2  0  0  0  0
 21 38  1  0  0  0  0
 21 39  1  0  0  0  0
M  END
> <s_m_source_file>
AV-unprocessed.smi

> <i_m_source_file_index>
363

> <i_lp_mmshare_version>
43012

> <i_f3d_flags>
0

> <s_epik_input>
W0NIM11jMVtjSF1jKFtDSDNdKW4oYyg9TyljMUMoPU8pW05IMl0pW0NIMl1bQ0BIXShbT0hdKWMyW2NIXVtjSF1jKENsKVtjSF1bY0hdMg==

> <s_epik_cmdline>
J2VwaWtfcHl0aG9uJywgJy1waCcsICc3LjAnLCAnLXRuJywgJzgnLCAnLW1hJywgJzIwMCcsICctbWV0YWxfYmluZGluZycsICctaW1hZScsICc8aW5maWxlLm1hZT4nLCAnLW9tYWUnLCAnPG91dGZpbGUubWFlPic=

> <r_lp_tautomer_probability>
1

> <r_epik_Ionization_Penalty>
3.91973e-07

> <r_epik_Ionization_Penalty_Charging>
1.35363e-07

> <r_epik_Ionization_Penalty_Neutral>
2.5661e-07

> <r_epik_State_Penalty>
-0

> <r_epik_Charging_Adjusted_Penalty>
1.35363e-07

> <i_epik_Tot_Q>
0

> <i_epik_Tot_abs_Q>
0

> <r_epik_Metal_State_Penalty>
-0

> <b_epik_Metal_Only>
0

> <s_lp_Force_Field>
OPLS_2005

> <r_lp_Energy>
39.726

> <b_lp_Chiralities_Consistent>
1

> <s_lp_Variant>
AV-unprocessed.smi:363-2

> <Gold.Version>
5.8.1

> <Gold.Id.Protein>
6NUR|6NUR_protein|mol2

> <Gold.PLP.Fitness>
36.2780

> <Gold.PLP.PLP>
-37.8414

> <Gold.PLP.part.hbond>
0.0000

> <Gold.PLP.part.metal>
0.0000

> <Gold.PLP.part.buried>
-2.1430

> <Gold.PLP.part.nonpolar>
-34.7741

> <Gold.PLP.part.repulsive>
0.0856

> <Gold.PLP.ligand.clash>
0.0000

> <Gold.PLP.ligand.torsion>
0.9259

> <Gold.PLP.Chemscore.Hbond>
0.0000

> <Gold.PLP.Chemscore.CHOScore>
0.0000

> <Gold.PLP.Chemscore.Metal>
0.0000

> <Gold.PLP.Chemscore.Internal.Correction>
0.2885

> <Gold.Rescore>
     Score         DG    S(hbond)    S(metal)    S(lipo)     H(rot)  DE(clash)    DE(int)     intcor
      9.49     -11.96       0.00        0.00      98.01       1.95       0.12       2.34       ----

> <Gold.Chemscore.Fitness>
9.4947

> <Gold.Chemscore.DG>
-11.9569

> <Gold.Chemscore.ZeroCoef>
-5.4800

> <Gold.Chemscore.Hbond>
0.0000

> <Gold.Chemscore.Metal>
0.0000

> <Gold.Chemscore.Lipo>
98.0149

> <Gold.Chemscore.Internal_Hbond>
0.0000

> <Gold.Chemscore.DEClash>
0.1249

> <Gold.Chemscore.DEInternal>
2.3373

> <Gold.Chemscore.Rot>
1.9495

> <Gold.Chemscore.Internal.Correction>
   9.000000E+99

> <Gold.Chemscore.Hbond.Weighted>
-0.0000

> <Gold.Chemscore.Metal.Weighted>
-0.0000

> <Gold.Chemscore.Lipo.Weighted>
-11.4677

> <Gold.Chemscore.Internal_Hbond.Weighted>
0.0000

> <Gold.Chemscore.DEClash.Weighted>
0.1249

> <Gold.Chemscore.DEInternal.Weighted>
2.3373

> <Gold.Chemscore.Rot.Weighted>
4.9908

> <Gold.Chemscore.Internal.Correction.Weighted>
   9.000000E+99

> <Gold.Protein.RotatedTorsions>
[ 6907 6896 6895 6894 ] final    6.25 input  -60.11 | X-H torsion
[ 7974 7965 7964 7962 ] final -157.58 input  175.53 | X-H torsion
[ 8008 7997 7996 7995 ] final -129.14 input   59.86 | X-H torsion
[ 10167 10162 10161 10158 ] final  155.78 input  -65.29 | X-H torsion
[ 10718 10713 10712 10709 ] final  179.79 input   66.30 | X-H torsion
[ 10763 10752 10751 10750 ] final -172.56 input  -60.55 | X-H torsion
[ 11005 11000 10999 10996 ] final  100.94 input  -57.11 | X-H torsion

> <Gold.Protein.ActiveResidues>
 VAL166  LYS551  ARG553  GLY616  TRP617  ASP618  TYR619  PRO620  LYS621  CYS622 
 ASP623  PHE694  ASN695  SER759  ASP760  ASP761  ALA762  ILE779  LEU786  VAL792 
 PHE793  MET794  SER795  GLU796  ALA797  LYS798  CYS799  TRP800  GLU811  SER814 

> <Gold.Protein.RotatedAtoms>
  151.6707  135.0976  160.0197 H   0  0  0  0  0  0  0  0  0  0  0  0  # atno 6907 bound_to 6896
  152.3893  133.6651  159.6233 H   0  0  0  0  0  0  0  0  0  0  0  0  # atno 6908 bound_to 6896
  150.7812  133.8898  159.3351 H   0  0  0  0  0  0  0  0  0  0  0  0  # atno 6909 bound_to 6896
  144.7542  140.3949  143.6025 H   0  0  0  0  0  0  0  0  0  0  0  0  # atno 7974 bound_to 7965
  155.2743  140.0441  157.3010 H   0  0  0  0  0  0  0  0  0  0  0  0  # atno 8008 bound_to 7997
  154.5635  140.2353  155.8268 H   0  0  0  0  0  0  0  0  0  0  0  0  # atno 8009 bound_to 7997
  156.2066  140.3011  155.9648 H   0  0  0  0  0  0  0  0  0  0  0  0  # atno 8010 bound_to 7997
  139.4821  144.5068  151.8085 H   0  0  0  0  0  0  0  0  0  0  0  0  # atno 10167 bound_to 10162
  156.8706  130.9782  151.3073 H   0  0  0  0  0  0  0  0  0  0  0  0  # atno 10718 bound_to 10713
  154.6179  135.2872  155.0359 H   0  0  0  0  0  0  0  0  0  0  0  0  # atno 10763 bound_to 10752
  154.1565  135.6495  153.4979 H   0  0  0  0  0  0  0  0  0  0  0  0  # atno 10764 bound_to 10752
  153.0223  135.5368  154.6957 H   0  0  0  0  0  0  0  0  0  0  0  0  # atno 10765 bound_to 10752
  139.8772  134.9162  156.4832 H   0  0  0  0  0  0  0  0  0  0  0  0  # atno 11005 bound_to 11000
  145.6837  139.1624  143.2686 LP  0  0  0  0  0  0  0  0  0  0  0  0  # atno 17320 bound_to 7965
  146.1532  140.6896  142.9312 LP  0  0  0  0  0  0  0  0  0  0  0  0  # atno 17321 bound_to 7965
  140.4567  144.1780  150.5902 LP  0  0  0  0  0  0  0  0  0  0  0  0  # atno 17342 bound_to 10162
  140.4528  143.2480  151.9325 LP  0  0  0  0  0  0  0  0  0  0  0  0  # atno 17343 bound_to 10162
  157.6198  130.8646  149.9089 LP  0  0  0  0  0  0  0  0  0  0  0  0  # atno 17370 bound_to 10713
  156.0728  130.3683  150.0739 LP  0  0  0  0  0  0  0  0  0  0  0  0  # atno 17371 bound_to 10713
  140.8712  133.7987  155.9366 LP  0  0  0  0  0  0  0  0  0  0  0  0  # atno 17394 bound_to 11000
  140.8951  134.2448  157.5073 LP  0  0  0  0  0  0  0  0  0  0  0  0  # atno 17395 bound_to 11000

$$$$
