AV-unprocessed.smi:697|AV-procd|sdf|3389|dock5
  -GOLD-   22720 0373D 1   1.00000     0.00000
 Structure written by MMmdl.
 44 45  0  0  0  0  0  0  0  0  1 V2000
  154.6805  132.8926  160.4210 C   0  0  0  0  0  0  0  0  0  0  0  0
  154.5331  134.2912  160.6286 O   0  0  0  0  0  0  0  0  0  0  0  0
  155.1747  135.1434  159.6783 C   0  0  1  0  0  0  0  0  0  0  0  0
  156.6669  134.7889  159.5792 C   0  0  0  0  0  0  0  0  0  0  0  0
  154.3748  135.2647  158.3682 C   0  0  0  0  0  0  0  0  0  0  0  0
  154.6745  136.7609  158.4284 C   0  0  1  0  0  0  0  0  0  0  0  0
  153.5647  137.5775  157.9489 N   0  0  0  0  0  0  0  0  0  0  0  0
  153.4923  138.9083  158.0833 C   0  0  0  0  0  0  0  0  0  0  0  0
  154.3699  139.5786  158.6265 O   0  0  0  0  0  0  0  0  0  0  0  0
  152.3588  139.3845  157.5367 N   0  0  0  0  0  0  0  0  0  0  0  0
  151.8872  140.7068  157.4729 C   0  0  0  0  0  0  0  0  0  0  0  0
  152.0070  141.6251  158.4673 C   0  0  0  0  0  0  0  0  0  0  0  0
  151.4855  142.9757  158.3375 C   0  0  0  0  0  0  0  0  0  0  0  0
  151.6916  144.0181  159.4254 C   0  0  0  0  0  0  0  0  0  0  0  0
  152.4208  143.5309  160.4302 F   0  0  0  0  0  0  0  0  0  0  0  0
  152.3301  145.0745  158.9242 F   0  0  0  0  0  0  0  0  0  0  0  0
  150.5248  144.4337  159.9182 F   0  0  0  0  0  0  0  0  0  0  0  0
  150.8852  143.2778  157.1716 C   0  0  0  0  0  0  0  0  0  0  0  0
  150.7395  142.3339  156.1528 N   0  0  0  0  0  0  0  0  0  0  0  0
  151.1951  141.0631  156.2230 C   0  0  0  0  0  0  0  0  0  0  0  0
  151.0224  140.2888  155.2824 O   0  0  0  0  0  0  0  0  0  0  0  0
  154.7666  136.6244  159.9699 C   0  0  0  0  0  0  0  0  0  0  0  0
  153.4602  136.8261  160.7645 C   0  0  0  0  0  0  0  0  0  0  0  0
  155.8132  137.5076  160.6562 C   0  0  0  0  0  0  0  0  0  0  0  0
  150.2610  142.6332  155.3153 H   0  0  0  0  0  0  0  0  0  0  0  0
  154.0764  132.3591  161.1547 H   0  0  0  0  0  0  0  0  0  0  0  0
  155.7119  132.5675  160.5539 H   0  0  0  0  0  0  0  0  0  0  0  0
  154.3406  132.5881  159.4309 H   0  0  0  0  0  0  0  0  0  0  0  0
  157.2147  135.5059  158.9681 H   0  0  0  0  0  0  0  0  0  0  0  0
  156.8242  133.8137  159.1196 H   0  0  0  0  0  0  0  0  0  0  0  0
  157.1368  134.7722  160.5627 H   0  0  0  0  0  0  0  0  0  0  0  0
  154.8157  134.7501  157.5140 H   0  0  0  0  0  0  0  0  0  0  0  0
  153.3154  135.0240  158.4755 H   0  0  0  0  0  0  0  0  0  0  0  0
  155.6327  137.0007  157.9619 H   0  0  0  0  0  0  0  0  0  0  0  0
  152.8064  137.0977  157.4865 H   0  0  0  0  0  0  0  0  0  0  0  0
  151.7703  138.7093  157.0704 H   0  0  0  0  0  0  0  0  0  0  0  0
  152.4796  141.3729  159.4022 H   0  0  0  0  0  0  0  0  0  0  0  0
  150.4795  144.2492  156.9302 H   0  0  0  0  0  0  0  0  0  0  0  0
  153.1442  137.8698  160.7629 H   0  0  0  0  0  0  0  0  0  0  0  0
  153.5779  136.5278  161.8068 H   0  0  0  0  0  0  0  0  0  0  0  0
  152.6339  136.2428  160.3584 H   0  0  0  0  0  0  0  0  0  0  0  0
  155.4731  138.5403  160.7398 H   0  0  0  0  0  0  0  0  0  0  0  0
  156.7522  137.5335  160.1038 H   0  0  0  0  0  0  0  0  0  0  0  0
  156.0365  137.1520  161.6625 H   0  0  0  0  0  0  0  0  0  0  0  0
  1  2  1  0  0  0  0
  1 26  1  0  0  0  0
  1 27  1  0  0  0  0
  1 28  1  0  0  0  0
  2  3  1  0  0  0  0
  3 22  1  0  0  0  0
  3  4  1  0  0  0  0
  3  5  1  0  0  0  0
  4 29  1  0  0  0  0
  4 30  1  0  0  0  0
  4 31  1  0  0  0  0
  5  6  1  0  0  0  0
  5 32  1  0  0  0  0
  5 33  1  0  0  0  0
  6  7  1  0  0  0  0
  6 22  1  0  0  0  0
  6 34  1  0  0  0  0
  7  8  1  0  0  0  0
  7 35  1  0  0  0  0
  8  9  2  0  0  0  0
  8 10  1  0  0  0  0
 10 11  1  0  0  0  0
 10 36  1  0  0  0  0
 11 20  1  0  0  0  0
 11 12  2  0  0  0  0
 12 13  1  0  0  0  0
 12 37  1  0  0  0  0
 13 14  1  0  0  0  0
 13 18  2  0  0  0  0
 14 15  1  0  0  0  0
 14 16  1  0  0  0  0
 14 17  1  0  0  0  0
 18 19  1  0  0  0  0
 18 38  1  0  0  0  0
 19 25  1  0  0  0  0
 19 20  1  0  0  0  0
 20 21  2  0  0  0  0
 22 23  1  0  0  0  0
 22 24  1  0  0  0  0
 23 39  1  0  0  0  0
 23 40  1  0  0  0  0
 23 41  1  0  0  0  0
 24 42  1  0  0  0  0
 24 43  1  0  0  0  0
 24 44  1  0  0  0  0
M  END
> <s_m_source_file>
AV-unprocessed.smi

> <i_m_source_file_index>
697

> <i_lp_mmshare_version>
43012

> <i_f3d_flags>
0

> <s_epik_input>
W0NIM11PW0NAQF0xKFtDSDNdKVtDSDJdW0NASF0oQzEoW0NIM10pW0NIM10pW05IXUMoPU8pW05IXWMyW2NIXWMoQyhGKShGKUYpW2NIXVtuSF1jMj1P

> <s_epik_cmdline>
J2VwaWtfcHl0aG9uJywgJy1waCcsICc3LjAnLCAnLXRuJywgJzgnLCAnLW1hJywgJzIwMCcsICctbWV0YWxfYmluZGluZycsICctaW1hZScsICc8aW5maWxlLm1hZT4nLCAnLW9tYWUnLCAnPG91dGZpbGUubWFlPic=

> <r_lp_tautomer_probability>
1

> <r_epik_Ionization_Penalty>
0.0036482

> <r_epik_Ionization_Penalty_Charging>
0.00362828

> <r_epik_Ionization_Penalty_Neutral>
1.99208e-05

> <r_epik_State_Penalty>
-0

> <r_epik_Charging_Adjusted_Penalty>
0.00362828

> <i_epik_Tot_Q>
0

> <i_epik_Tot_abs_Q>
0

> <r_epik_Metal_State_Penalty>
0.369362

> <b_epik_Metal_Only>
0

> <s_lp_Force_Field>
OPLS_2005

> <r_lp_Energy>
34.4926

> <b_lp_Chiralities_Consistent>
1

> <s_lp_Variant>
AV-unprocessed.smi:697-1

> <Gold.Version>
5.8.1

> <Gold.Id.Protein>
6NUR|6NUR_protein|mol2

> <Gold.PLP.Fitness>
41.9145

> <Gold.PLP.PLP>
-31.6954

> <Gold.PLP.part.hbond>
-3.7407

> <Gold.PLP.part.metal>
0.0000

> <Gold.PLP.part.buried>
0.2799

> <Gold.PLP.part.nonpolar>
-28.8217

> <Gold.PLP.part.repulsive>
0.3629

> <Gold.PLP.ligand.clash>
0.0000

> <Gold.PLP.ligand.torsion>
0.5448

> <Gold.PLP.Chemscore.Hbond>
2.6354

> <Gold.PLP.Chemscore.CHOScore>
1.0000

> <Gold.PLP.Chemscore.Metal>
0.0000

> <Gold.Chemscore.Hbonds>
donor molecule, donor type, donor heavy atom, donor atom, acceptor molecule, acceptor atom, score
      P1  H  6896  6909       L1     2  0.75
      P1  H  7989  7998       L1    21  1.00
      P1  H  7997  8008       L1     9  1.00
      L1  C    18    38       P1  8028  1.00

> <Gold.PLP.Chemscore.Internal.Correction>
0.4025

> <Gold.Rescore>
     Score         DG    S(hbond)    S(metal)    S(lipo)     H(rot)  DE(clash)    DE(int)     intcor
     14.11     -15.64       1.68        0.00      67.47       1.31       1.02       0.50       ----

> <Gold.Chemscore.Fitness>
14.1136

> <Gold.Chemscore.DG>
-15.6395

> <Gold.Chemscore.ZeroCoef>
-5.4800

> <Gold.Chemscore.Hbond>
1.6796

> <Gold.Chemscore.Metal>
0.0000

> <Gold.Chemscore.Lipo>
67.4667

> <Gold.Chemscore.Internal_Hbond>
0.0000

> <Gold.Chemscore.DEClash>
1.0230

> <Gold.Chemscore.DEInternal>
0.5029

> <Gold.Chemscore.Rot>
1.3062

> <Gold.Chemscore.Internal.Correction>
   9.000000E+99

> <Gold.Chemscore.Hbonds>
donor molecule, donor type, donor heavy atom, donor atom, acceptor molecule, acceptor atom, score
      P1  H  6896  6909       L1     2  0.03
      P1  H  7989  7998       L1    21  0.90
      P1  H  7997  8008       L1     9  0.24

> <Gold.Chemscore.Hbond.Weighted>
-5.6099

> <Gold.Chemscore.Metal.Weighted>
-0.0000

> <Gold.Chemscore.Lipo.Weighted>
-7.8936

> <Gold.Chemscore.Internal_Hbond.Weighted>
0.0000

> <Gold.Chemscore.DEClash.Weighted>
1.0230

> <Gold.Chemscore.DEInternal.Weighted>
0.5029

> <Gold.Chemscore.Rot.Weighted>
3.3440

> <Gold.Chemscore.Internal.Correction.Weighted>
   9.000000E+99

> <Gold.Protein.RotatedTorsions>
[ 6907 6896 6895 6894 ] final -166.54 input  -60.11 | X-H torsion
[ 7974 7965 7964 7962 ] final   69.85 input  175.53 | X-H torsion
[ 8008 7997 7996 7995 ] final -127.54 input   59.86 | X-H torsion
[ 10167 10162 10161 10158 ] final  -32.69 input  -65.29 | X-H torsion
[ 10718 10713 10712 10709 ] final  -52.29 input   66.30 | X-H torsion
[ 10763 10752 10751 10750 ] final  -38.46 input  -60.55 | X-H torsion
[ 11005 11000 10999 10996 ] final -177.34 input  -57.11 | X-H torsion

> <Gold.Protein.ActiveResidues>
 VAL166  LYS551  ARG553  GLY616  TRP617  ASP618  TYR619  PRO620  LYS621  CYS622 
 ASP623  PHE694  ASN695  SER759  ASP760  ASP761  ALA762  ILE779  LEU786  VAL792 
 PHE793  MET794  SER795  GLU796  ALA797  LYS798  CYS799  TRP800  GLU811  SER814 

> <Gold.Protein.RotatedAtoms>
  151.4452  133.3632  159.2787 H   0  0  0  0  0  0  0  0  0  0  0  0  # atno 6907 bound_to 6896
  150.9129  134.8548  159.7448 H   0  0  0  0  0  0  0  0  0  0  0  0  # atno 6908 bound_to 6896
  152.4942  134.4383  159.9587 H   0  0  0  0  0  0  0  0  0  0  0  0  # atno 6909 bound_to 6896
  145.7853  139.2907  143.1241 H   0  0  0  0  0  0  0  0  0  0  0  0  # atno 7974 bound_to 7965
  155.2479  140.0431  157.2983 H   0  0  0  0  0  0  0  0  0  0  0  0  # atno 8008 bound_to 7997
  154.5787  140.2394  155.8054 H   0  0  0  0  0  0  0  0  0  0  0  0  # atno 8009 bound_to 7997
  156.2177  140.2979  155.9887 H   0  0  0  0  0  0  0  0  0  0  0  0  # atno 8010 bound_to 7997
  140.7217  143.3676  151.1841 H   0  0  0  0  0  0  0  0  0  0  0  0  # atno 10167 bound_to 10162
  156.1635  130.4149  149.9756 H   0  0  0  0  0  0  0  0  0  0  0  0  # atno 10718 bound_to 10713
  153.9133  135.6790  153.4750 H   0  0  0  0  0  0  0  0  0  0  0  0  # atno 10763 bound_to 10752
  153.1067  135.4802  154.8961 H   0  0  0  0  0  0  0  0  0  0  0  0  # atno 10764 bound_to 10752
  154.7516  135.3186  154.8503 H   0  0  0  0  0  0  0  0  0  0  0  0  # atno 10765 bound_to 10752
  140.4420  134.6422  157.4762 H   0  0  0  0  0  0  0  0  0  0  0  0  # atno 11005 bound_to 11000
  146.0032  140.8502  143.0008 LP  0  0  0  0  0  0  0  0  0  0  0  0  # atno 17320 bound_to 7965
  144.6790  140.2382  143.7347 LP  0  0  0  0  0  0  0  0  0  0  0  0  # atno 17321 bound_to 7965
  139.7240  143.9177  152.2996 LP  0  0  0  0  0  0  0  0  0  0  0  0  # atno 17342 bound_to 10162
  139.8944  144.6947  150.8734 LP  0  0  0  0  0  0  0  0  0  0  0  0  # atno 17343 bound_to 10162
  156.7578  130.9140  151.3640 LP  0  0  0  0  0  0  0  0  0  0  0  0  # atno 17370 bound_to 10713
  157.6750  130.9086  150.0129 LP  0  0  0  0  0  0  0  0  0  0  0  0  # atno 17371 bound_to 10713
  140.0063  134.6759  155.9450 LP  0  0  0  0  0  0  0  0  0  0  0  0  # atno 17394 bound_to 11000
  141.1701  133.6537  156.4621 LP  0  0  0  0  0  0  0  0  0  0  0  0  # atno 17395 bound_to 11000

$$$$
