AV-unprocessed.smi:2032|AV-procd|sdf|8253|dock4
  -GOLD-   2272010523D 1   1.00000     0.00000
 Structure written by MMmdl.
 42 43  0  0  0  0  0  0  0  0  3 V2000
  146.6365  132.9271  150.3571 C   0  0  0  0  0  0  0  0  0  0  0  0
  146.8309  134.0102  151.4241 C   0  0  2  0  0  0  0  0  0  0  0  0
  147.6016  133.4804  152.6478 C   0  0  0  0  0  0  0  0  0  0  0  0
  147.6922  134.5190  153.7087 N   0  3  2  0  0  0  0  0  0  0  0  0
  148.5007  134.1597  154.9180 C   0  0  1  0  0  0  0  0  0  0  0  0
  148.4442  132.6571  155.2860 C   0  0  0  0  0  0  0  0  0  0  0  0
  149.9715  134.6097  154.7172 C   0  0  0  0  0  0  0  0  0  0  0  0
  150.0900  136.0091  154.3203 N   0  0  0  0  0  0  0  0  0  0  0  0
  150.8673  136.9249  154.9150 C   0  0  0  0  0  0  0  0  0  0  0  0
  151.5435  136.6116  155.8977 O   0  0  0  0  0  0  0  0  0  0  0  0
  150.8180  138.1416  154.3285 N   0  5  0  0  0  0  0  0  0  0  0  0
  150.6899  139.2454  155.0826 C   0  0  0  0  0  0  0  0  0  0  0  0
  150.2232  140.4052  154.6062 N   0  0  0  0  0  0  0  0  0  0  0  0
  150.1806  141.4210  155.5630 C   0  0  0  0  0  0  0  0  0  0  0  0
  150.6335  141.0277  156.7943 C   0  0  0  0  0  0  0  0  0  0  0  0
  151.1309  139.3597  156.7887 S   0  0  0  0  0  0  0  0  0  0  0  0
  146.3233  134.9815  154.0627 C   0  0  0  0  0  0  0  0  0  0  0  0
  145.5550  135.4791  152.8246 C   0  0  1  0  0  0  0  0  0  0  0  0
  146.0579  136.8327  152.2911 C   0  0  0  0  0  0  0  0  0  0  0  0
  145.5423  134.4663  151.8212 O   0  0  0  0  0  0  0  0  0  0  0  0
  147.5952  132.5486  150.0021 H   0  0  0  0  0  0  0  0  0  0  0  0
  146.0962  133.3208  149.4957 H   0  0  0  0  0  0  0  0  0  0  0  0
  146.0680  132.0832  150.7491 H   0  0  0  0  0  0  0  0  0  0  0  0
  147.3869  134.8313  150.9710 H   0  0  0  0  0  0  0  0  0  0  0  0
  147.1174  132.5886  153.0499 H   0  0  0  0  0  0  0  0  0  0  0  0
  148.5938  133.1891  152.3042 H   0  0  0  0  0  0  0  0  0  0  0  0
  148.0762  134.6999  155.7658 H   0  0  0  0  0  0  0  0  0  0  0  0
  149.0561  132.4348  156.1602 H   0  0  0  0  0  0  0  0  0  0  0  0
  148.8046  132.0312  154.4690 H   0  0  0  0  0  0  0  0  0  0  0  0
  147.4348  132.3381  155.5456 H   0  0  0  0  0  0  0  0  0  0  0  0
  150.5246  134.4809  155.6480 H   0  0  0  0  0  0  0  0  0  0  0  0
  150.4886  134.0015  153.9759 H   0  0  0  0  0  0  0  0  0  0  0  0
  149.5482  136.3085  153.5226 H   0  0  0  0  0  0  0  0  0  0  0  0
  149.8141  142.3963  155.2792 H   0  0  0  0  0  0  0  0  0  0  0  0
  150.7066  141.6130  157.6985 H   0  0  0  0  0  0  0  0  0  0  0  0
  145.7775  134.1525  154.5167 H   0  0  0  0  0  0  0  0  0  0  0  0
  146.3495  135.7743  154.8088 H   0  0  0  0  0  0  0  0  0  0  0  0
  144.5144  135.6236  153.1170 H   0  0  0  0  0  0  0  0  0  0  0  0
  145.9245  137.6148  153.0387 H   0  0  0  0  0  0  0  0  0  0  0  0
  145.5028  137.1305  151.4013 H   0  0  0  0  0  0  0  0  0  0  0  0
  147.1168  136.8106  152.0339 H   0  0  0  0  0  0  0  0  0  0  0  0
  148.1668  135.3026  153.2837 H   0  0  0  0  0  0  0  0  0  0  0  0
  1  2  1  0  0  0  0
  1 21  1  0  0  0  0
  1 22  1  0  0  0  0
  1 23  1  0  0  0  0
  2 20  1  0  0  0  0
  2  3  1  0  0  0  0
  2 24  1  0  0  0  0
  3  4  1  0  0  0  0
  3 25  1  0  0  0  0
  3 26  1  0  0  0  0
  4  5  1  0  0  0  0
  4 17  1  0  0  0  0
  4 42  1  0  0  0  0
  5  6  1  0  0  0  0
  5  7  1  0  0  0  0
  5 27  1  0  0  0  0
  6 28  1  0  0  0  0
  6 29  1  0  0  0  0
  6 30  1  0  0  0  0
  7  8  1  0  0  0  0
  7 31  1  0  0  0  0
  7 32  1  0  0  0  0
  8  9  1  0  0  0  0
  8 33  1  0  0  0  0
  9 10  2  0  0  0  0
  9 11  1  0  0  0  0
 11 12  1  0  0  0  0
 12 16  1  0  0  0  0
 12 13  2  0  0  0  0
 13 14  1  0  0  0  0
 14 15  2  0  0  0  0
 14 34  1  0  0  0  0
 15 16  1  0  0  0  0
 15 35  1  0  0  0  0
 17 18  1  0  0  0  0
 17 36  1  0  0  0  0
 17 37  1  0  0  0  0
 18 19  1  0  0  0  0
 18 20  1  0  0  0  0
 18 38  1  0  0  0  0
 19 39  1  0  0  0  0
 19 40  1  0  0  0  0
 19 41  1  0  0  0  0
M  CHG  1   4   1
M  CHG  1  11  -1
M  END
> <s_m_source_file>
AV-unprocessed.smi

> <i_m_source_file_index>
2032

> <i_lp_mmshare_version>
43012

> <i_f3d_flags>
0

> <s_epik_input>
W0NIM11bQ0BASF0xW0NIMl1OKFtDSDJdW0NASF0oTzEpW0NIM10pW0NASF0oW0NIM10pW0NIMl1bTkhdQyg9TylbTkhdYzJuW2NIXVtjSF1zMg==

> <s_epik_cmdline>
J2VwaWtfcHl0aG9uJywgJy1waCcsICc3LjAnLCAnLXRuJywgJzgnLCAnLW1hJywgJzIwMCcsICctbWV0YWxfYmluZGluZycsICctaW1hZScsICc8aW5maWxlLm1hZT4nLCAnLW9tYWUnLCAnPG91dGZpbGUubWFlPic=

> <r_lp_tautomer_probability>
0.999

> <r_epik_Ionization_Penalty>
6.71699

> <r_epik_Ionization_Penalty_Charging>
5.88592

> <r_epik_Ionization_Penalty_Neutral>
0.831074

> <r_epik_State_Penalty>
6.08365

> <r_epik_Charging_Adjusted_Penalty>
11.9696

> <i_epik_Tot_Q>
0

> <i_epik_Tot_abs_Q>
2

> <r_epik_Metal_State_Penalty>
2.0947

> <b_epik_Metal_Only>
1

> <s_lp_Force_Field>
OPLS_2005

> <r_lp_Energy>
13.0518

> <b_lp_Chiralities_Consistent>
1

> <s_lp_Variant>
AV-unprocessed.smi:2032-23

> <Gold.Version>
5.8.1

> <Gold.Id.Protein>
6NUR|6NUR_protein|mol2

> <Gold.PLP.Fitness>
42.3416

> <Gold.PLP.PLP>
-27.6709

> <Gold.PLP.part.hbond>
-5.0000

> <Gold.PLP.part.metal>
0.0000

> <Gold.PLP.part.buried>
-0.8136

> <Gold.PLP.part.nonpolar>
-21.5932

> <Gold.PLP.part.repulsive>
0.5128

> <Gold.PLP.ligand.clash>
0.0000

> <Gold.PLP.ligand.torsion>
1.3959

> <Gold.PLP.Chemscore.Hbond>
4.8940

> <Gold.PLP.Chemscore.CHOScore>
0.9012

> <Gold.PLP.Chemscore.Metal>
0.0000

> <Gold.Chemscore.Hbonds>
donor molecule, donor type, donor heavy atom, donor atom, acceptor molecule, acceptor atom, score
      L1  H     4    42       P1  7948  2.00
      L1  H     8    33       P1  7948  1.00
      P1  H  7989  7998       L1    13  0.99
      P1  H 10752 10763       L1    10  0.56
      L1  C    14    34       P1  8028  1.00

> <Gold.PLP.Chemscore.Internal.Correction>
0.0770

> <Gold.Rescore>
     Score         DG    S(hbond)    S(metal)    S(lipo)     H(rot)  DE(clash)    DE(int)     intcor
     16.25     -19.02       3.34        0.00      54.94       1.58       0.04       2.73       ----

> <Gold.Chemscore.Fitness>
16.2545

> <Gold.Chemscore.DG>
-19.0218

> <Gold.Chemscore.ZeroCoef>
-5.4800

> <Gold.Chemscore.Hbond>
3.3400

> <Gold.Chemscore.Metal>
0.0000

> <Gold.Chemscore.Lipo>
54.9444

> <Gold.Chemscore.Internal_Hbond>
0.0000

> <Gold.Chemscore.DEClash>
0.0412

> <Gold.Chemscore.DEInternal>
2.7261

> <Gold.Chemscore.Rot>
1.5791

> <Gold.Chemscore.Internal.Correction>
   9.000000E+99

> <Gold.Chemscore.Hbonds>
donor molecule, donor type, donor heavy atom, donor atom, acceptor molecule, acceptor atom, score
      L1  H     4    42       P1  7948  0.96
      L1  H     8    33       P1  7948  0.54
      P1  H  7989  7998       L1    13  0.11
      P1  H 10752 10763       L1    10  0.06

> <Gold.Chemscore.Hbond.Weighted>
-11.1558

> <Gold.Chemscore.Metal.Weighted>
-0.0000

> <Gold.Chemscore.Lipo.Weighted>
-6.4285

> <Gold.Chemscore.Internal_Hbond.Weighted>
0.0000

> <Gold.Chemscore.DEClash.Weighted>
0.0412

> <Gold.Chemscore.DEInternal.Weighted>
2.7261

> <Gold.Chemscore.Rot.Weighted>
4.0425

> <Gold.Chemscore.Internal.Correction.Weighted>
   9.000000E+99

> <Gold.Protein.RotatedTorsions>
[ 6907 6896 6895 6894 ] final   72.70 input  -60.11 | X-H torsion
[ 7974 7965 7964 7962 ] final -120.98 input  175.53 | X-H torsion
[ 8008 7997 7996 7995 ] final  125.25 input   59.86 | X-H torsion
[ 10167 10162 10161 10158 ] final  -16.07 input  -65.29 | X-H torsion
[ 10718 10713 10712 10709 ] final  -30.21 input   66.30 | X-H torsion
[ 10763 10752 10751 10750 ] final   69.76 input  -60.55 | X-H torsion
[ 11005 11000 10999 10996 ] final   88.63 input  -57.11 | X-H torsion

> <Gold.Protein.ActiveResidues>
 VAL166  LYS551  ARG553  GLY616  TRP617  ASP618  TYR619  PRO620  LYS621  CYS622 
 ASP623  PHE694  ASN695  SER759  ASP760  ASP761  ALA762  ILE779  LEU786  VAL792 
 PHE793  MET794  SER795  GLU796  ALA797  LYS798  CYS799  TRP800  GLU811  SER814 

> <Gold.Protein.RotatedAtoms>
  152.4883  134.4531  159.9580 H   0  0  0  0  0  0  0  0  0  0  0  0  # atno 6907 bound_to 6896
  151.4523  133.3608  159.2805 H   0  0  0  0  0  0  0  0  0  0  0  0  # atno 6908 bound_to 6896
  150.9013  134.8449  159.7422 H   0  0  0  0  0  0  0  0  0  0  0  0  # atno 6909 bound_to 6896
  145.0454  140.8177  143.4241 H   0  0  0  0  0  0  0  0  0  0  0  0  # atno 7974 bound_to 7965
  156.2828  140.2720  156.1920 H   0  0  0  0  0  0  0  0  0  0  0  0  # atno 8008 bound_to 7997
  155.0449  140.0386  157.2541 H   0  0  0  0  0  0  0  0  0  0  0  0  # atno 8009 bound_to 7997
  154.7243  140.2694  155.6518 H   0  0  0  0  0  0  0  0  0  0  0  0  # atno 8010 bound_to 7997
  140.7228  143.5154  150.9699 H   0  0  0  0  0  0  0  0  0  0  0  0  # atno 10167 bound_to 10162
  156.4027  130.4393  149.7310 H   0  0  0  0  0  0  0  0  0  0  0  0  # atno 10718 bound_to 10713
  153.0304  135.5199  154.7337 H   0  0  0  0  0  0  0  0  0  0  0  0  # atno 10763 bound_to 10752
  154.6357  135.2906  155.0166 H   0  0  0  0  0  0  0  0  0  0  0  0  # atno 10764 bound_to 10752
  154.1102  135.6623  153.4936 H   0  0  0  0  0  0  0  0  0  0  0  0  # atno 10765 bound_to 10752
  139.8892  134.8500  156.3027 H   0  0  0  0  0  0  0  0  0  0  0  0  # atno 11005 bound_to 11000
  145.1594  139.2467  143.5399 LP  0  0  0  0  0  0  0  0  0  0  0  0  # atno 17320 bound_to 7965
  146.3513  140.1318  142.8597 LP  0  0  0  0  0  0  0  0  0  0  0  0  # atno 17321 bound_to 7965
  139.8869  143.7002  152.3150 LP  0  0  0  0  0  0  0  0  0  0  0  0  # atno 17342 bound_to 10162
  139.7304  144.7583  151.0811 LP  0  0  0  0  0  0  0  0  0  0  0  0  # atno 17343 bound_to 10162
  156.4320  130.7820  151.2840 LP  0  0  0  0  0  0  0  0  0  0  0  0  # atno 17370 bound_to 10713
  157.7504  131.0151  150.3490 LP  0  0  0  0  0  0  0  0  0  0  0  0  # atno 17371 bound_to 10713
  140.9903  133.7213  156.0803 LP  0  0  0  0  0  0  0  0  0  0  0  0  # atno 17394 bound_to 11000
  140.7634  134.3913  157.5521 LP  0  0  0  0  0  0  0  0  0  0  0  0  # atno 17395 bound_to 11000

$$$$
