AV-unprocessed.smi:1123|AV-procd|sdf|4832|dock3
  -GOLD-   22720 3393D 1   1.00000     0.00000
 Structure written by MMmdl.
 38 39  0  0  0  0  0  0  0  0  2 V2000
  143.2378  135.2426  152.4145 C   0  0  0  0  0  0  0  0  0  0  0  0
  144.3422  135.5210  151.3746 C   0  0  1  0  0  0  0  0  0  0  0  0
  145.4494  136.4403  151.9151 C   0  0  0  0  0  0  0  0  0  0  0  0
  146.1662  136.0815  152.8501 O   0  0  0  0  0  0  0  0  0  0  0  0
  145.5801  137.6340  151.3139 N   0  0  0  0  0  0  0  0  0  0  0  0
  146.5831  138.6346  151.6583 C   0  0  0  0  0  0  0  0  0  0  0  0
  146.7494  138.7686  153.1842 C   0  0  0  0  0  0  0  0  0  0  0  0
  146.1652  140.0287  153.7070 N   0  3  0  0  0  0  0  0  0  0  0  0
  145.8382  139.9440  155.1505 C   0  0  0  0  0  0  0  0  0  0  0  0
  145.1934  141.2534  155.6359 C   0  0  0  0  0  0  0  0  0  0  0  0
  146.0677  142.3427  155.3702 O   0  0  0  0  0  0  0  0  0  0  0  0
  146.3213  142.4932  153.9791 C   0  0  0  0  0  0  0  0  0  0  0  0
  147.0017  141.2248  153.4366 C   0  0  0  0  0  0  0  0  0  0  0  0
  144.9204  134.2919  150.8451 N   0  0  0  0  0  0  0  0  0  0  0  0
  144.3331  133.2629  150.2304 C   0  0  0  0  0  0  0  0  0  0  0  0
  145.1756  132.3196  149.8336 N   0  0  0  0  0  0  0  0  0  0  0  0
  146.3512  132.8717  150.2564 C   0  0  0  0  0  0  0  0  0  0  0  0
  146.2565  134.0570  150.8586 N   0  0  0  0  0  0  0  0  0  0  0  0
  142.7817  136.1705  152.7612 H   0  0  0  0  0  0  0  0  0  0  0  0
  143.6207  134.7161  153.2897 H   0  0  0  0  0  0  0  0  0  0  0  0
  142.4447  134.6309  151.9839 H   0  0  0  0  0  0  0  0  0  0  0  0
  143.8713  136.0393  150.5376 H   0  0  0  0  0  0  0  0  0  0  0  0
  144.9537  137.8548  150.5532 H   0  0  0  0  0  0  0  0  0  0  0  0
  147.5251  138.3763  151.1737 H   0  0  0  0  0  0  0  0  0  0  0  0
  146.2685  139.5886  151.2341 H   0  0  0  0  0  0  0  0  0  0  0  0
  146.2495  137.9200  153.6539 H   0  0  0  0  0  0  0  0  0  0  0  0
  147.7992  138.7054  153.4749 H   0  0  0  0  0  0  0  0  0  0  0  0
  145.1546  139.1130  155.3281 H   0  0  0  0  0  0  0  0  0  0  0  0
  146.7464  139.7407  155.7205 H   0  0  0  0  0  0  0  0  0  0  0  0
  144.2298  141.4174  155.1510 H   0  0  0  0  0  0  0  0  0  0  0  0
  145.0057  141.2049  156.7086 H   0  0  0  0  0  0  0  0  0  0  0  0
  145.3903  142.6952  153.4468 H   0  0  0  0  0  0  0  0  0  0  0  0
  146.9670  143.3588  153.8301 H   0  0  0  0  0  0  0  0  0  0  0  0
  147.9799  141.1007  153.9039 H   0  0  0  0  0  0  0  0  0  0  0  0
  147.1726  141.3390  152.3669 H   0  0  0  0  0  0  0  0  0  0  0  0
  143.2673  133.2041  150.0655 H   0  0  0  0  0  0  0  0  0  0  0  0
  147.3063  132.3889  150.1099 H   0  0  0  0  0  0  0  0  0  0  0  0
  145.2874  140.1640  153.2259 H   0  0  0  0  0  0  0  0  0  0  0  0
  1  2  1  0  0  0  0
  1 19  1  0  0  0  0
  1 20  1  0  0  0  0
  1 21  1  0  0  0  0
  2  3  1  0  0  0  0
  2 14  1  0  0  0  0
  2 22  1  0  0  0  0
  3  4  2  0  0  0  0
  3  5  1  0  0  0  0
  5  6  1  0  0  0  0
  5 23  1  0  0  0  0
  6  7  1  0  0  0  0
  6 24  1  0  0  0  0
  6 25  1  0  0  0  0
  7  8  1  0  0  0  0
  7 26  1  0  0  0  0
  7 27  1  0  0  0  0
  8 13  1  0  0  0  0
  8  9  1  0  0  0  0
  8 38  1  0  0  0  0
  9 10  1  0  0  0  0
  9 28  1  0  0  0  0
  9 29  1  0  0  0  0
 10 11  1  0  0  0  0
 10 30  1  0  0  0  0
 10 31  1  0  0  0  0
 11 12  1  0  0  0  0
 12 13  1  0  0  0  0
 12 32  1  0  0  0  0
 12 33  1  0  0  0  0
 13 34  1  0  0  0  0
 13 35  1  0  0  0  0
 14 18  1  0  0  0  0
 14 15  1  0  0  0  0
 15 16  2  0  0  0  0
 15 36  1  0  0  0  0
 16 17  1  0  0  0  0
 17 18  2  0  0  0  0
 17 37  1  0  0  0  0
M  CHG  1   8   1
M  END
> <s_m_source_file>
AV-unprocessed.smi

> <i_m_source_file_index>
1123

> <i_lp_mmshare_version>
43012

> <i_f3d_flags>
0

> <s_epik_input>
bjFbY0hdbltjSF1uMVtDQEhdKFtDSDNdKUMoPU8pW05IXVtDSDJdW0NIMl1OMltDSDJdW0NIMl1PW0NIMl1bQ0gyXTI=

> <s_epik_cmdline>
J2VwaWtfcHl0aG9uJywgJy1waCcsICc3LjAnLCAnLXRuJywgJzgnLCAnLW1hJywgJzIwMCcsICctbWV0YWxfYmluZGluZycsICctaW1hZScsICc8aW5maWxlLm1hZT4nLCAnLW9tYWUnLCAnPG91dGZpbGUubWFlPic=

> <r_lp_tautomer_probability>
1

> <r_epik_Ionization_Penalty>
0.71326

> <r_epik_Ionization_Penalty_Charging>
0.713252

> <r_epik_Ionization_Penalty_Neutral>
7.98515e-06

> <r_epik_State_Penalty>
0.737017

> <r_epik_Charging_Adjusted_Penalty>
1.45027

> <i_epik_Tot_Q>
1

> <i_epik_Tot_abs_Q>
1

> <r_epik_Metal_State_Penalty>
0.73702

> <b_epik_Metal_Only>
0

> <s_lp_Force_Field>
OPLS_2005

> <r_lp_Energy>
21.0283

> <b_lp_Chiralities_Consistent>
1

> <s_lp_Variant>
AV-unprocessed.smi:1123-4

> <Gold.Version>
5.8.1

> <Gold.Id.Protein>
6NUR|6NUR_protein|mol2

> <Gold.PLP.Fitness>
45.4887

> <Gold.PLP.PLP>
-31.7464

> <Gold.PLP.part.hbond>
-2.0000

> <Gold.PLP.part.metal>
0.0000

> <Gold.PLP.part.buried>
-7.3922

> <Gold.PLP.part.nonpolar>
-24.6748

> <Gold.PLP.part.repulsive>
1.4689

> <Gold.PLP.ligand.clash>
0.0000

> <Gold.PLP.ligand.torsion>
0.6911

> <Gold.PLP.Chemscore.Hbond>
3.0000

> <Gold.PLP.Chemscore.CHOScore>
2.0000

> <Gold.PLP.Chemscore.Metal>
0.0000

> <Gold.Chemscore.Hbonds>
donor molecule, donor type, donor heavy atom, donor atom, acceptor molecule, acceptor atom, score
      L1  H     5    23       P1 10171  0.93
      L1  H     8    38       P1 10175  2.00
      L1  C    15    36       P1 10186  0.78
      L1  C    17    37       P1 10747  1.00

> <Gold.PLP.Chemscore.Internal.Correction>
0.1246

> <Gold.Rescore>
     Score         DG    S(hbond)    S(metal)    S(lipo)     H(rot)  DE(clash)    DE(int)     intcor
      7.22     -10.48       1.98        0.00      45.00       2.69       0.12       3.14       ----

> <Gold.Chemscore.Fitness>
7.2223

> <Gold.Chemscore.DG>
-10.4812

> <Gold.Chemscore.ZeroCoef>
-5.4800

> <Gold.Chemscore.Hbond>
1.9840

> <Gold.Chemscore.Metal>
0.0000

> <Gold.Chemscore.Lipo>
45.0030

> <Gold.Chemscore.Internal_Hbond>
0.0000

> <Gold.Chemscore.DEClash>
0.1151

> <Gold.Chemscore.DEInternal>
3.1438

> <Gold.Chemscore.Rot>
2.6916

> <Gold.Chemscore.Internal.Correction>
   9.000000E+99

> <Gold.Chemscore.Hbonds>
donor molecule, donor type, donor heavy atom, donor atom, acceptor molecule, acceptor atom, score
      L1  H     5    23       P1 10171  0.88
      L1  H     8    38       P1 10175  1.00

> <Gold.Chemscore.Hbond.Weighted>
-6.6264

> <Gold.Chemscore.Metal.Weighted>
-0.0000

> <Gold.Chemscore.Lipo.Weighted>
-5.2654

> <Gold.Chemscore.Internal_Hbond.Weighted>
0.0000

> <Gold.Chemscore.DEClash.Weighted>
0.1151

> <Gold.Chemscore.DEInternal.Weighted>
3.1438

> <Gold.Chemscore.Rot.Weighted>
6.8906

> <Gold.Chemscore.Internal.Correction.Weighted>
   9.000000E+99

> <Gold.Protein.RotatedTorsions>
[ 6907 6896 6895 6894 ] final   80.81 input  -60.11 | X-H torsion
[ 7974 7965 7964 7962 ] final  121.35 input  175.53 | X-H torsion
[ 8008 7997 7996 7995 ] final  168.38 input   59.86 | X-H torsion
[ 10167 10162 10161 10158 ] final -146.34 input  -65.29 | X-H torsion
[ 10718 10713 10712 10709 ] final -106.81 input   66.30 | X-H torsion
[ 10763 10752 10751 10750 ] final   11.29 input  -60.55 | X-H torsion
[ 11005 11000 10999 10996 ] final   10.60 input  -57.11 | X-H torsion

> <Gold.Protein.ActiveResidues>
 VAL166  LYS551  ARG553  GLY616  TRP617  ASP618  TYR619  PRO620  LYS621  CYS622 
 ASP623  PHE694  ASN695  SER759  ASP760  ASP761  ALA762  ILE779  LEU786  VAL792 
 PHE793  MET794  SER795  GLU796  ALA797  LYS798  CYS799  TRP800  GLU811  SER814 

> <Gold.Protein.RotatedAtoms>
  152.5247  134.3301  159.9179 H   0  0  0  0  0  0  0  0  0  0  0  0  # atno 6907 bound_to 6896
  151.3250  133.4018  159.2665 H   0  0  0  0  0  0  0  0  0  0  0  0  # atno 6908 bound_to 6896
  150.9927  134.9276  159.7966 H   0  0  0  0  0  0  0  0  0  0  0  0  # atno 6909 bound_to 6896
  145.1203  139.3393  143.4717 H   0  0  0  0  0  0  0  0  0  0  0  0  # atno 7974 bound_to 7965
  156.1551  140.1592  156.8705 H   0  0  0  0  0  0  0  0  0  0  0  0  # atno 8008 bound_to 7997
  154.5107  140.0801  156.8021 H   0  0  0  0  0  0  0  0  0  0  0  0  # atno 8009 bound_to 7997
  155.3818  140.3405  155.4249 H   0  0  0  0  0  0  0  0  0  0  0  0  # atno 8010 bound_to 7997
  139.7723  143.8220  152.2626 H   0  0  0  0  0  0  0  0  0  0  0  0  # atno 10167 bound_to 10162
  156.0407  130.5631  150.7733 H   0  0  0  0  0  0  0  0  0  0  0  0  # atno 10718 bound_to 10713
  153.1942  135.6846  153.8314 H   0  0  0  0  0  0  0  0  0  0  0  0  # atno 10763 bound_to 10752
  153.7603  135.3211  155.3337 H   0  0  0  0  0  0  0  0  0  0  0  0  # atno 10764 bound_to 10752
  154.8135  135.4702  154.0678 H   0  0  0  0  0  0  0  0  0  0  0  0  # atno 10765 bound_to 10752
  140.5126  134.0637  155.7822 H   0  0  0  0  0  0  0  0  0  0  0  0  # atno 11005 bound_to 11000
  146.3521  140.1160  142.8602 LP  0  0  0  0  0  0  0  0  0  0  0  0  # atno 17320 bound_to 7965
  145.0747  140.9180  143.4861 LP  0  0  0  0  0  0  0  0  0  0  0  0  # atno 17321 bound_to 7965
  139.8258  144.7275  150.9513 LP  0  0  0  0  0  0  0  0  0  0  0  0  # atno 17342 bound_to 10162
  140.7814  143.4116  151.0984 LP  0  0  0  0  0  0  0  0  0  0  0  0  # atno 17343 bound_to 10162
  157.5221  131.0932  151.0065 LP  0  0  0  0  0  0  0  0  0  0  0  0  # atno 17370 bound_to 10713
  157.0393  130.5742  149.5354 LP  0  0  0  0  0  0  0  0  0  0  0  0  # atno 17371 bound_to 10713
  141.1377  133.9192  157.2396 LP  0  0  0  0  0  0  0  0  0  0  0  0  # atno 17394 bound_to 11000
  139.9650  135.0144  156.9363 LP  0  0  0  0  0  0  0  0  0  0  0  0  # atno 17395 bound_to 11000

$$$$
