AV-unprocessed.smi:1976|AV-procd|sdf|7987|dock1
  -GOLD-   2272010163D 1   1.00000     0.00000
 Structure written by MMmdl.
 45 47  0  0  0  0  0  0  0  0  2 V2000
  149.8303  139.5456  157.9535 O   0  0  0  0  0  0  0  0  0  0  0  0
  150.6093  140.0879  157.1686 C   0  0  0  0  0  0  0  0  0  0  0  0
  152.1141  140.1536  157.4659 C   0  0  0  0  0  0  0  0  0  0  0  0
  152.4364  140.9142  158.6849 N   0  0  0  0  0  0  0  0  0  0  0  0
  151.8879  142.2068  158.7992 C   0  0  0  0  0  0  0  0  0  0  0  0
  152.1161  143.0089  159.8566 C   0  0  0  0  0  0  0  0  0  0  0  0
  151.4689  144.3800  159.9746 C   0  0  0  0  0  0  0  0  0  0  0  0
  151.8815  145.1914  159.0005 F   0  0  0  0  0  0  0  0  0  0  0  0
  150.1447  144.2648  159.8863 F   0  0  0  0  0  0  0  0  0  0  0  0
  151.7586  144.9499  161.1449 F   0  0  0  0  0  0  0  0  0  0  0  0
  152.9415  142.4616  160.9152 C   0  0  0  0  0  0  0  0  0  0  0  0
  153.4704  141.2256  160.8239 C   0  0  0  0  0  0  0  0  0  0  0  0
  153.2348  140.3755  159.6547 C   0  0  0  0  0  0  0  0  0  0  0  0
  153.7229  139.2498  159.5528 O   0  0  0  0  0  0  0  0  0  0  0  0
  150.2171  140.6349  156.0089 N   0  0  0  0  0  0  0  0  0  0  0  0
  148.8389  140.6778  155.5274 C   0  0  2  0  0  0  0  0  0  0  0  0
  148.5734  141.7614  154.4861 C   0  0  0  0  0  0  0  0  0  0  0  0
  147.0519  141.9253  154.5364 C   0  0  0  0  0  0  0  0  0  0  0  0
  146.6220  141.5275  155.8991 N   0  3  2  0  0  0  0  0  0  0  0  0
  145.8534  142.5776  156.6195 C   0  0  0  0  0  0  0  0  0  0  0  0
  145.7728  142.2651  158.1208 C   0  0  0  0  0  0  0  0  0  0  0  0
  147.1709  142.2384  158.7671 C   0  0  0  0  0  0  0  0  0  0  0  0
  148.2877  141.9440  157.7468 C   0  0  0  0  0  0  0  0  0  0  0  0
  147.8074  140.9890  156.6263 C   0  0  2  0  0  0  0  0  0  0  0  0
  152.4899  139.1322  157.5399 H   0  0  0  0  0  0  0  0  0  0  0  0
  152.6330  140.5855  156.6079 H   0  0  0  0  0  0  0  0  0  0  0  0
  151.2699  142.5086  157.9661 H   0  0  0  0  0  0  0  0  0  0  0  0
  153.1443  143.0537  161.7953 H   0  0  0  0  0  0  0  0  0  0  0  0
  154.0833  140.8518  161.6308 H   0  0  0  0  0  0  0  0  0  0  0  0
  150.9224  141.0552  155.4207 H   0  0  0  0  0  0  0  0  0  0  0  0
  148.5879  139.7088  155.0903 H   0  0  0  0  0  0  0  0  0  0  0  0
  149.0564  142.6945  154.7799 H   0  0  0  0  0  0  0  0  0  0  0  0
  148.9337  141.4951  153.4919 H   0  0  0  0  0  0  0  0  0  0  0  0
  146.7484  142.9378  154.2670 H   0  0  0  0  0  0  0  0  0  0  0  0
  146.5802  141.2458  153.8258 H   0  0  0  0  0  0  0  0  0  0  0  0
  146.3253  143.5519  156.4809 H   0  0  0  0  0  0  0  0  0  0  0  0
  144.8547  142.6465  156.1868 H   0  0  0  0  0  0  0  0  0  0  0  0
  145.1402  142.9926  158.6303 H   0  0  0  0  0  0  0  0  0  0  0  0
  145.2901  141.2958  158.2546 H   0  0  0  0  0  0  0  0  0  0  0  0
  147.3779  143.1933  159.2516 H   0  0  0  0  0  0  0  0  0  0  0  0
  147.1809  141.4889  159.5594 H   0  0  0  0  0  0  0  0  0  0  0  0
  148.6248  142.8807  157.3005 H   0  0  0  0  0  0  0  0  0  0  0  0
  149.1489  141.5324  158.2739 H   0  0  0  0  0  0  0  0  0  0  0  0
  147.5108  140.0528  157.1017 H   0  0  0  0  0  0  0  0  0  0  0  0
  145.9949  140.7448  155.7789 H   0  0  0  0  0  0  0  0  0  0  0  0
  1  2  2  0  0  0  0
  2  3  1  0  0  0  0
  2 15  1  0  0  0  0
  3  4  1  0  0  0  0
  3 25  1  0  0  0  0
  3 26  1  0  0  0  0
  4 13  1  0  0  0  0
  4  5  1  0  0  0  0
  5  6  2  0  0  0  0
  5 27  1  0  0  0  0
  6  7  1  0  0  0  0
  6 11  1  0  0  0  0
  7  8  1  0  0  0  0
  7  9  1  0  0  0  0
  7 10  1  0  0  0  0
 11 12  2  0  0  0  0
 11 28  1  0  0  0  0
 12 13  1  0  0  0  0
 12 29  1  0  0  0  0
 13 14  2  0  0  0  0
 15 16  1  0  0  0  0
 15 30  1  0  0  0  0
 16 24  1  0  0  0  0
 16 17  1  0  0  0  0
 16 31  1  0  0  0  0
 17 18  1  0  0  0  0
 17 32  1  0  0  0  0
 17 33  1  0  0  0  0
 18 19  1  0  0  0  0
 18 34  1  0  0  0  0
 18 35  1  0  0  0  0
 19 24  1  0  0  0  0
 19 20  1  0  0  0  0
 19 45  1  0  0  0  0
 20 21  1  0  0  0  0
 20 36  1  0  0  0  0
 20 37  1  0  0  0  0
 21 22  1  0  0  0  0
 21 38  1  0  0  0  0
 21 39  1  0  0  0  0
 22 23  1  0  0  0  0
 22 40  1  0  0  0  0
 22 41  1  0  0  0  0
 23 24  1  0  0  0  0
 23 42  1  0  0  0  0
 23 43  1  0  0  0  0
 24 44  1  0  0  0  0
M  CHG  1  19   1
M  END
> <s_m_source_file>
AV-unprocessed.smi

> <i_m_source_file_index>
1976

> <i_lp_mmshare_version>
43012

> <i_f3d_flags>
0

> <s_epik_input>
W0NIMl0xW0NIMl1bQ0gyXVtDSDJdW0NASF0oTjEyKVtDQEBIXShbQ0gyXVtDSDJdMilbTkhdQyg9TylbQ0gyXW4zW2NIXWMoQyhGKShGKUYpW2NIXVtjSF1jMz1P

> <s_epik_cmdline>
J2VwaWtfcHl0aG9uJywgJy1waCcsICc3LjAnLCAnLXRuJywgJzgnLCAnLW1hJywgJzIwMCcsICctbWV0YWxfYmluZGluZycsICctaW1hZScsICc8aW5maWxlLm1hZT4nLCAnLW9tYWUnLCAnPG91dGZpbGUubWFlPic=

> <r_lp_tautomer_probability>
1

> <r_epik_Ionization_Penalty>
0.00171506

> <r_epik_Ionization_Penalty_Charging>
0.00171498

> <r_epik_Ionization_Penalty_Neutral>
7.81737e-08

> <r_epik_State_Penalty>
0.00115937

> <r_epik_Charging_Adjusted_Penalty>
0.00287436

> <i_epik_Tot_Q>
1

> <i_epik_Tot_abs_Q>
1

> <r_epik_Metal_State_Penalty>
-0

> <b_epik_Metal_Only>
0

> <s_lp_Force_Field>
OPLS_2005

> <r_lp_Energy>
52.9045

> <b_lp_Chiralities_Consistent>
1

> <s_lp_Variant>
AV-unprocessed.smi:1976-5

> <Gold.Version>
5.8.1

> <Gold.Id.Protein>
6NUR|6NUR_protein|mol2

> <Gold.PLP.Fitness>
46.6374

> <Gold.PLP.PLP>
-47.3329

> <Gold.PLP.part.hbond>
0.0000

> <Gold.PLP.part.metal>
0.0000

> <Gold.PLP.part.buried>
-5.7361

> <Gold.PLP.part.nonpolar>
-40.9166

> <Gold.PLP.part.repulsive>
0.0676

> <Gold.PLP.ligand.clash>
0.0000

> <Gold.PLP.ligand.torsion>
0.3891

> <Gold.PLP.Chemscore.Hbond>
0.0000

> <Gold.PLP.Chemscore.CHOScore>
0.0000

> <Gold.PLP.Chemscore.Metal>
0.0000

> <Gold.PLP.Chemscore.Internal.Correction>
0.0827

> <Gold.Rescore>
     Score         DG    S(hbond)    S(metal)    S(lipo)     H(rot)  DE(clash)    DE(int)     intcor
      9.32     -11.81       0.02        0.00      88.22       1.58       0.23       2.26       ----

> <Gold.Chemscore.Fitness>
9.3218

> <Gold.Chemscore.DG>
-11.8120

> <Gold.Chemscore.ZeroCoef>
-5.4800

> <Gold.Chemscore.Hbond>
0.0189

> <Gold.Chemscore.Metal>
0.0000

> <Gold.Chemscore.Lipo>
88.2168

> <Gold.Chemscore.Internal_Hbond>
0.0000

> <Gold.Chemscore.DEClash>
0.2277

> <Gold.Chemscore.DEInternal>
2.2626

> <Gold.Chemscore.Rot>
1.5830

> <Gold.Chemscore.Internal.Correction>
   9.000000E+99

> <Gold.Chemscore.Hbond.Weighted>
-0.0630

> <Gold.Chemscore.Metal.Weighted>
-0.0000

> <Gold.Chemscore.Lipo.Weighted>
-10.3214

> <Gold.Chemscore.Internal_Hbond.Weighted>
0.0000

> <Gold.Chemscore.DEClash.Weighted>
0.2277

> <Gold.Chemscore.DEInternal.Weighted>
2.2626

> <Gold.Chemscore.Rot.Weighted>
4.0524

> <Gold.Chemscore.Internal.Correction.Weighted>
   9.000000E+99

> <Gold.Protein.RotatedTorsions>
[ 6907 6896 6895 6894 ] final   78.50 input  -60.11 | X-H torsion
[ 7974 7965 7964 7962 ] final    9.61 input  175.53 | X-H torsion
[ 8008 7997 7996 7995 ] final  159.17 input   59.86 | X-H torsion
[ 10167 10162 10161 10158 ] final -170.53 input  -65.29 | X-H torsion
[ 10718 10713 10712 10709 ] final  -18.11 input   66.30 | X-H torsion
[ 10763 10752 10751 10750 ] final -112.45 input  -60.55 | X-H torsion
[ 11005 11000 10999 10996 ] final  -23.22 input  -57.11 | X-H torsion

> <Gold.Protein.ActiveResidues>
 VAL166  LYS551  ARG553  GLY616  TRP617  ASP618  TYR619  PRO620  LYS621  CYS622 
 ASP623  PHE694  ASN695  SER759  ASP760  ASP761  ALA762  ILE779  LEU786  VAL792 
 PHE793  MET794  SER795  GLU796  ALA797  LYS798  CYS799  TRP800  GLU811  SER814 

> <Gold.Protein.RotatedAtoms>
  152.5162  134.3655  159.9299 H   0  0  0  0  0  0  0  0  0  0  0  0  # atno 6907 bound_to 6896
  151.3608  133.3884  159.2697 H   0  0  0  0  0  0  0  0  0  0  0  0  # atno 6908 bound_to 6896
  150.9653  134.9054  159.7813 H   0  0  0  0  0  0  0  0  0  0  0  0  # atno 6909 bound_to 6896
  146.2401  139.9757  142.8442 H   0  0  0  0  0  0  0  0  0  0  0  0  # atno 7974 bound_to 7965
  156.2256  140.1838  156.7372 H   0  0  0  0  0  0  0  0  0  0  0  0  # atno 8008 bound_to 7997
  154.5935  140.0647  156.9300 H   0  0  0  0  0  0  0  0  0  0  0  0  # atno 8009 bound_to 7997
  155.2295  140.3313  155.4307 H   0  0  0  0  0  0  0  0  0  0  0  0  # atno 8010 bound_to 7997
  139.5856  144.1325  152.1571 H   0  0  0  0  0  0  0  0  0  0  0  0  # atno 10167 bound_to 10162
  156.5641  130.4733  149.6393 H   0  0  0  0  0  0  0  0  0  0  0  0  # atno 10718 bound_to 10713
  154.8350  135.4490  154.1196 H   0  0  0  0  0  0  0  0  0  0  0  0  # atno 10763 bound_to 10752
  153.2436  135.6919  153.7762 H   0  0  0  0  0  0  0  0  0  0  0  0  # atno 10764 bound_to 10752
  153.7101  135.3358  155.3220 H   0  0  0  0  0  0  0  0  0  0  0  0  # atno 10765 bound_to 10752
  140.8731  133.7707  156.0210 H   0  0  0  0  0  0  0  0  0  0  0  0  # atno 11005 bound_to 11000
  145.1639  140.9686  143.4361 LP  0  0  0  0  0  0  0  0  0  0  0  0  # atno 17320 bound_to 7965
  145.0091  139.3527  143.6129 LP  0  0  0  0  0  0  0  0  0  0  0  0  # atno 17321 bound_to 7965
  140.0888  144.5638  150.7069 LP  0  0  0  0  0  0  0  0  0  0  0  0  # atno 17342 bound_to 10162
  140.7128  143.2519  151.4527 LP  0  0  0  0  0  0  0  0  0  0  0  0  # atno 17343 bound_to 10162
  156.2772  130.7050  151.1865 LP  0  0  0  0  0  0  0  0  0  0  0  0  # atno 17370 bound_to 10713
  157.7362  131.0564  150.5426 LP  0  0  0  0  0  0  0  0  0  0  0  0  # atno 17371 bound_to 10713
  140.8550  134.2908  157.5259 LP  0  0  0  0  0  0  0  0  0  0  0  0  # atno 17394 bound_to 11000
  139.8713  134.9488  156.4007 LP  0  0  0  0  0  0  0  0  0  0  0  0  # atno 17395 bound_to 11000

$$$$
