AV-unprocessed.smi:232|AV-procd|sdf|1779|dock4
  -GOLD-   2262020323D 1   1.00000     0.00000
 Structure written by MMmdl.
 52 55  0  0  0  0  0  0  0  0  1 V2000
  151.3082  138.3151  154.5454 C   0  0  0  0  0  0  0  0  0  0  0  0
  150.5940  139.6723  154.4879 C   0  0  0  0  0  0  0  0  0  0  0  0
  150.0086  140.1121  155.8423 C   0  0  2  0  0  0  0  0  0  0  0  0
  149.6058  141.5975  155.8732 C   0  0  0  0  0  0  0  0  0  0  0  0
  149.9610  142.0474  157.2867 C   0  0  0  0  0  0  0  0  0  0  0  0
  151.2197  141.2282  157.5520 C   0  0  1  0  0  0  0  0  0  0  0  0
  151.6932  141.2268  159.0195 C   0  0  0  0  0  0  0  0  0  0  0  0
  150.9585  139.9207  156.9454 N   0  0  0  0  0  0  0  0  0  0  0  0
  150.7112  138.8772  157.7736 C   0  0  0  0  0  0  0  0  0  0  0  0
  151.6879  138.3904  158.5847 N   0  0  0  0  0  0  0  0  0  0  0  0
  151.4310  137.3567  159.3925 C   0  0  0  0  0  0  0  0  0  0  0  0
  150.2930  136.6739  159.5397 N   0  0  0  0  0  0  0  0  0  0  0  0
  149.3172  137.1562  158.7176 C   0  0  0  0  0  0  0  0  0  0  0  0
  149.4427  138.2426  157.8084 C   0  0  0  0  0  0  0  0  0  0  0  0
  148.2443  138.4455  157.1362 N   0  0  0  0  0  0  0  0  0  0  0  0
  147.4506  137.5319  157.6259 C   0  0  0  0  0  0  0  0  0  0  0  0
  148.0125  136.7181  158.5839 N   0  0  0  0  0  0  0  0  0  0  0  0
  147.3615  135.6369  159.3010 C   0  0  0  0  0  0  0  0  0  0  0  0
  147.2806  135.9085  160.8155 C   0  0  1  0  0  0  0  0  0  0  0  0
  146.8099  137.2202  161.0623 O   0  0  0  0  0  0  0  0  0  0  0  0
  146.4145  134.8756  161.5639 C   0  0  1  0  0  0  0  0  0  0  0  0
  144.8977  135.0234  161.4149 C   0  0  0  0  0  0  0  0  0  0  0  0
  144.4333  133.6169  161.7197 C   0  0  0  0  0  0  0  0  0  0  0  0
  145.5248  132.7792  161.0589 C   0  0  0  0  0  0  0  0  0  0  0  0
  146.7249  133.5394  161.1746 O   0  0  0  0  0  0  0  0  0  0  0  0
  151.6509  138.0160  153.5548 H   0  0  0  0  0  0  0  0  0  0  0  0
  150.6425  137.5355  154.9164 H   0  0  0  0  0  0  0  0  0  0  0  0
  152.1804  138.3502  155.1981 H   0  0  0  0  0  0  0  0  0  0  0  0
  151.2793  140.4330  154.1119 H   0  0  0  0  0  0  0  0  0  0  0  0
  149.7854  139.6028  153.7595 H   0  0  0  0  0  0  0  0  0  0  0  0
  149.1025  139.5307  156.0151 H   0  0  0  0  0  0  0  0  0  0  0  0
  150.1983  142.1679  155.1562 H   0  0  0  0  0  0  0  0  0  0  0  0
  148.5539  141.7534  155.6325 H   0  0  0  0  0  0  0  0  0  0  0  0
  150.1283  143.1222  157.3610 H   0  0  0  0  0  0  0  0  0  0  0  0
  149.1682  141.7721  157.9840 H   0  0  0  0  0  0  0  0  0  0  0  0
  152.0286  141.6623  156.9625 H   0  0  0  0  0  0  0  0  0  0  0  0
  151.9237  142.2404  159.3479 H   0  0  0  0  0  0  0  0  0  0  0  0
  152.5977  140.6305  159.1427 H   0  0  0  0  0  0  0  0  0  0  0  0
  150.9327  140.8328  159.6946 H   0  0  0  0  0  0  0  0  0  0  0  0
  152.2550  137.0311  160.0101 H   0  0  0  0  0  0  0  0  0  0  0  0
  146.4241  137.4301  157.3047 H   0  0  0  0  0  0  0  0  0  0  0  0
  146.3651  135.4913  158.8817 H   0  0  0  0  0  0  0  0  0  0  0  0
  147.9181  134.7182  159.1111 H   0  0  0  0  0  0  0  0  0  0  0  0
  148.2891  135.8590  161.2284 H   0  0  0  0  0  0  0  0  0  0  0  0
  146.2463  137.1956  161.8205 H   0  0  0  0  0  0  0  0  0  0  0  0
  146.6502  134.9380  162.6278 H   0  0  0  0  0  0  0  0  0  0  0  0
  144.4754  135.7700  162.0878 H   0  0  0  0  0  0  0  0  0  0  0  0
  144.6158  135.2863  160.3948 H   0  0  0  0  0  0  0  0  0  0  0  0
  144.4293  133.4484  162.7975 H   0  0  0  0  0  0  0  0  0  0  0  0
  143.4366  133.4001  161.3344 H   0  0  0  0  0  0  0  0  0  0  0  0
  145.6300  131.7948  161.5152 H   0  0  0  0  0  0  0  0  0  0  0  0
  145.3057  132.6401  159.9996 H   0  0  0  0  0  0  0  0  0  0  0  0
  1  2  1  0  0  0  0
  1 26  1  0  0  0  0
  1 27  1  0  0  0  0
  1 28  1  0  0  0  0
  2  3  1  0  0  0  0
  2 29  1  0  0  0  0
  2 30  1  0  0  0  0
  3  8  1  0  0  0  0
  3  4  1  0  0  0  0
  3 31  1  0  0  0  0
  4  5  1  0  0  0  0
  4 32  1  0  0  0  0
  4 33  1  0  0  0  0
  5  6  1  0  0  0  0
  5 34  1  0  0  0  0
  5 35  1  0  0  0  0
  6  7  1  0  0  0  0
  6  8  1  0  0  0  0
  6 36  1  0  0  0  0
  7 37  1  0  0  0  0
  7 38  1  0  0  0  0
  7 39  1  0  0  0  0
  8  9  1  0  0  0  0
  9 14  1  0  0  0  0
  9 10  2  0  0  0  0
 10 11  1  0  0  0  0
 11 12  2  0  0  0  0
 11 40  1  0  0  0  0
 12 13  1  0  0  0  0
 13 17  1  0  0  0  0
 13 14  2  0  0  0  0
 14 15  1  0  0  0  0
 15 16  2  0  0  0  0
 16 17  1  0  0  0  0
 16 41  1  0  0  0  0
 17 18  1  0  0  0  0
 18 19  1  0  0  0  0
 18 42  1  0  0  0  0
 18 43  1  0  0  0  0
 19 20  1  0  0  0  0
 19 21  1  0  0  0  0
 19 44  1  0  0  0  0
 20 45  1  0  0  0  0
 21 25  1  0  0  0  0
 21 22  1  0  0  0  0
 21 46  1  0  0  0  0
 22 23  1  0  0  0  0
 22 47  1  0  0  0  0
 22 48  1  0  0  0  0
 23 24  1  0  0  0  0
 23 49  1  0  0  0  0
 23 50  1  0  0  0  0
 24 25  1  0  0  0  0
 24 51  1  0  0  0  0
 24 52  1  0  0  0  0
M  END
> <s_m_source_file>
AV-unprocessed.smi

> <i_m_source_file_index>
232

> <i_lp_mmshare_version>
43012

> <i_f3d_flags>
0

> <s_epik_input>
W0NIM11bQ0gyXVtDQEBIXTFbQ0gyXVtDSDJdW0NAQEhdKFtDSDNdKU4xYyhuW2NIXW4yKWMoYzIzKW5bY0hdbjNbQ0gyXVtDQEhdKFtPSF0pW0NAQEhdNFtDSDJdW0NIMl1bQ0gyXU80

> <s_epik_cmdline>
J2VwaWtfcHl0aG9uJywgJy1waCcsICc3LjAnLCAnLXRuJywgJzgnLCAnLW1hJywgJzIwMCcsICctbWV0YWxfYmluZGluZycsICctaW1hZScsICc8aW5maWxlLm1hZT4nLCAnLW9tYWUnLCAnPG91dGZpbGUubWFlPic=

> <r_lp_tautomer_probability>
1

> <r_epik_Ionization_Penalty>
0.00258048

> <r_epik_Ionization_Penalty_Charging>
0

> <r_epik_Ionization_Penalty_Neutral>
0.00258048

> <r_epik_State_Penalty>
0.00168551

> <r_epik_Charging_Adjusted_Penalty>
0.00168551

> <i_epik_Tot_Q>
0

> <i_epik_Tot_abs_Q>
0

> <r_epik_Metal_State_Penalty>
-0

> <b_epik_Metal_Only>
0

> <s_lp_Force_Field>
OPLS_2005

> <r_lp_Energy>
58.3384

> <b_lp_Chiralities_Consistent>
1

> <s_lp_Variant>
AV-unprocessed.smi:232-13

> <Gold.Version>
5.8.1

> <Gold.Id.Protein>
6NUR|6NUR_protein|mol2

> <Gold.PLP.Fitness>
48.3480

> <Gold.PLP.PLP>
-40.9279

> <Gold.PLP.part.hbond>
-3.0000

> <Gold.PLP.part.metal>
0.0000

> <Gold.PLP.part.buried>
-4.9468

> <Gold.PLP.part.nonpolar>
-33.3420

> <Gold.PLP.part.repulsive>
0.0000

> <Gold.PLP.ligand.clash>
0.0000

> <Gold.PLP.ligand.torsion>
0.6100

> <Gold.PLP.Chemscore.Hbond>
2.8080

> <Gold.PLP.Chemscore.CHOScore>
0.0000

> <Gold.PLP.Chemscore.Metal>
0.0000

> <Gold.Chemscore.Hbonds>
donor molecule, donor type, donor heavy atom, donor atom, acceptor molecule, acceptor atom, score
      P1  H  6896  6908       L1    12  0.85
      P1  H  6934  6947       L1    20  1.00

> <Gold.PLP.Chemscore.Internal.Correction>
0.2160

> <Gold.Rescore>
     Score         DG    S(hbond)    S(metal)    S(lipo)     H(rot)  DE(clash)    DE(int)     intcor
     12.49     -16.03       1.82        0.00      91.38       2.43       0.25       3.29       ----

> <Gold.Chemscore.Fitness>
12.4939

> <Gold.Chemscore.DG>
-16.0319

> <Gold.Chemscore.ZeroCoef>
-5.4800

> <Gold.Chemscore.Hbond>
1.8178

> <Gold.Chemscore.Metal>
0.0000

> <Gold.Chemscore.Lipo>
91.3771

> <Gold.Chemscore.Internal_Hbond>
0.0000

> <Gold.Chemscore.DEClash>
0.2514

> <Gold.Chemscore.DEInternal>
3.2866

> <Gold.Chemscore.Rot>
2.4260

> <Gold.Chemscore.Internal.Correction>
   9.000000E+99

> <Gold.Chemscore.Hbonds>
donor molecule, donor type, donor heavy atom, donor atom, acceptor molecule, acceptor atom, score
      P1  H  6896  6908       L1    12  0.15
      P1  H  6934  6947       L1    20  0.30

> <Gold.Chemscore.Hbond.Weighted>
-6.0715

> <Gold.Chemscore.Metal.Weighted>
-0.0000

> <Gold.Chemscore.Lipo.Weighted>
-10.6911

> <Gold.Chemscore.Internal_Hbond.Weighted>
0.0000

> <Gold.Chemscore.DEClash.Weighted>
0.2514

> <Gold.Chemscore.DEInternal.Weighted>
3.2866

> <Gold.Chemscore.Rot.Weighted>
6.2107

> <Gold.Chemscore.Internal.Correction.Weighted>
   9.000000E+99

> <Gold.Protein.RotatedTorsions>
[ 6907 6896 6895 6894 ] final -152.03 input  -60.11 | X-H torsion
[ 7974 7965 7964 7962 ] final -108.04 input  175.53 | X-H torsion
[ 8008 7997 7996 7995 ] final -155.55 input   59.86 | X-H torsion
[ 10167 10162 10161 10158 ] final  -66.39 input  -65.29 | X-H torsion
[ 10718 10713 10712 10709 ] final  174.42 input   66.30 | X-H torsion
[ 10763 10752 10751 10750 ] final   14.67 input  -60.55 | X-H torsion
[ 11005 11000 10999 10996 ] final  143.38 input  -57.11 | X-H torsion

> <Gold.Protein.ActiveResidues>
 VAL166  LYS551  ARG553  GLY616  TRP617  ASP618  TYR619  PRO620  LYS621  CYS622 
 ASP623  PHE694  ASN695  SER759  ASP760  ASP761  ALA762  ILE779  LEU786  VAL792 
 PHE793  MET794  SER795  GLU796  ALA797  LYS798  CYS799  TRP800  GLU811  SER814 

> <Gold.Protein.RotatedAtoms>
  151.2218  133.4498  159.2600 H   0  0  0  0  0  0  0  0  0  0  0  0  # atno 6907 bound_to 6896
  151.0878  134.9897  159.8398 H   0  0  0  0  0  0  0  0  0  0  0  0  # atno 6908 bound_to 6896
  152.5431  134.2153  159.8819 H   0  0  0  0  0  0  0  0  0  0  0  0  # atno 6909 bound_to 6896
  145.1978  140.9043  143.3387 H   0  0  0  0  0  0  0  0  0  0  0  0  # atno 7974 bound_to 7965
  155.7036  140.0770  157.2400 H   0  0  0  0  0  0  0  0  0  0  0  0  # atno 8008 bound_to 7997
  154.4069  140.1643  156.2271 H   0  0  0  0  0  0  0  0  0  0  0  0  # atno 8009 bound_to 7997
  155.9346  140.3389  155.6280 H   0  0  0  0  0  0  0  0  0  0  0  0  # atno 8010 bound_to 7997
  140.5660  143.2315  151.6633 H   0  0  0  0  0  0  0  0  0  0  0  0  # atno 10167 bound_to 10162
  156.9499  131.0028  151.2951 H   0  0  0  0  0  0  0  0  0  0  0  0  # atno 10718 bound_to 10713
  153.1599  135.6794  153.8758 H   0  0  0  0  0  0  0  0  0  0  0  0  # atno 10763 bound_to 10752
  153.8157  135.3137  155.3406 H   0  0  0  0  0  0  0  0  0  0  0  0  # atno 10764 bound_to 10752
  154.7925  135.4826  154.0173 H   0  0  0  0  0  0  0  0  0  0  0  0  # atno 10765 bound_to 10752
  140.0549  134.9236  157.1083 H   0  0  0  0  0  0  0  0  0  0  0  0  # atno 11005 bound_to 11000
  144.9977  139.3628  143.6183 LP  0  0  0  0  0  0  0  0  0  0  0  0  # atno 17320 bound_to 7965
  146.3423  139.9187  142.8769 LP  0  0  0  0  0  0  0  0  0  0  0  0  # atno 17321 bound_to 7965
  139.5093  144.3581  152.0589 LP  0  0  0  0  0  0  0  0  0  0  0  0  # atno 17342 bound_to 10162
  140.2712  144.3961  150.6150 LP  0  0  0  0  0  0  0  0  0  0  0  0  # atno 17343 bound_to 10162
  157.5729  130.8323  149.8416 LP  0  0  0  0  0  0  0  0  0  0  0  0  # atno 17370 bound_to 10713
  156.0367  130.3749  150.1541 LP  0  0  0  0  0  0  0  0  0  0  0  0  # atno 17371 bound_to 10713
  140.3859  134.2236  155.7168 LP  0  0  0  0  0  0  0  0  0  0  0  0  # atno 17394 bound_to 11000
  141.1947  133.8121  157.0744 LP  0  0  0  0  0  0  0  0  0  0  0  0  # atno 17395 bound_to 11000

$$$$
