AV-unprocessed.smi:157|AV-procd|sdf|1305|dock1
  -GOLD-   2262018593D 1   1.00000     0.00000
 Structure written by MMmdl.
 35 37  0  0  0  0  0  0  0  0  1 V2000
  151.7959  136.9155  154.5637 O   0  0  0  0  0  0  0  0  0  0  0  0
  152.1538  138.2762  154.4477 C   0  0  0  0  0  0  0  0  0  0  0  0
  151.5355  139.0921  155.5964 C   0  0  1  0  0  0  0  0  0  0  0  0
  151.5989  140.4876  155.3265 O   0  0  0  0  0  0  0  0  0  0  0  0
  150.6292  141.1640  156.0730 C   0  0  2  0  0  0  0  0  0  0  0  0
  151.3025  141.9102  157.1874 N   0  0  0  0  0  0  0  0  0  0  0  0
  151.2802  143.2330  157.4019 C   0  0  0  0  0  0  0  0  0  0  0  0
  151.9676  143.6299  158.4589 N   0  0  0  0  0  0  0  0  0  0  0  0
  152.4781  142.4467  158.9927 C   0  0  0  0  0  0  0  0  0  0  0  0
  152.0933  141.3697  158.2060 C   0  0  0  0  0  0  0  0  0  0  0  0
  152.3039  140.0025  158.2041 N   0  0  0  0  0  0  0  0  0  0  0  0
  153.1905  139.5020  159.0074 C   0  0  0  0  0  0  0  0  0  0  0  0
  153.9573  140.0983  159.9993 N   0  0  0  0  0  0  0  0  0  0  0  0
  153.4514  141.1114  160.9053 C   0  0  0  0  0  0  0  0  0  0  0  0
  153.3326  142.4771  160.2284 C   0  0  2  0  0  0  0  0  0  0  0  0
  152.7286  143.3751  161.1377 O   0  0  0  0  0  0  0  0  0  0  0  0
  149.6706  140.1117  156.6524 C   0  0  0  0  0  0  0  0  0  0  0  0
  150.0511  138.8516  155.8976 C   0  0  1  0  0  0  0  0  0  0  0  0
  149.2793  138.7209  154.7185 O   0  0  0  0  0  0  0  0  0  0  0  0
  152.1086  138.9148  156.5084 H   0  0  0  0  0  0  0  0  0  0  0  0
  150.1440  141.9278  155.4643 H   0  0  0  0  0  0  0  0  0  0  0  0
  154.3266  142.8523  159.9823 H   0  0  0  0  0  0  0  0  0  0  0  0
  149.9038  137.9572  156.5041 H   0  0  0  0  0  0  0  0  0  0  0  0
  150.8650  136.8625  154.7178 H   0  0  0  0  0  0  0  0  0  0  0  0
  153.2409  138.3488  154.4857 H   0  0  0  0  0  0  0  0  0  0  0  0
  151.8454  138.6563  153.4736 H   0  0  0  0  0  0  0  0  0  0  0  0
  150.7511  143.9286  156.7673 H   0  0  0  0  0  0  0  0  0  0  0  0
  153.3962  138.4328  158.9403 H   0  0  0  0  0  0  0  0  0  0  0  0
  154.7189  139.5751  160.4072 H   0  0  0  0  0  0  0  0  0  0  0  0
  152.4781  140.7900  161.2800 H   0  0  0  0  0  0  0  0  0  0  0  0
  154.1152  141.1748  161.7680 H   0  0  0  0  0  0  0  0  0  0  0  0
  153.3368  144.0796  161.3033 H   0  0  0  0  0  0  0  0  0  0  0  0
  149.8635  139.9808  157.7188 H   0  0  0  0  0  0  0  0  0  0  0  0
  148.6299  140.4120  156.5230 H   0  0  0  0  0  0  0  0  0  0  0  0
  148.5785  138.1099  154.8876 H   0  0  0  0  0  0  0  0  0  0  0  0
  1  2  1  0  0  0  0
  1 24  1  0  0  0  0
  2  3  1  0  0  0  0
  2 25  1  0  0  0  0
  2 26  1  0  0  0  0
  3 20  1  0  0  0  0
  3 18  1  0  0  0  0
  3  4  1  0  0  0  0
  4  5  1  0  0  0  0
  5 21  1  0  0  0  0
  5  6  1  0  0  0  0
  5 17  1  0  0  0  0
  6 10  1  0  0  0  0
  6  7  1  0  0  0  0
  7  8  2  0  0  0  0
  7 27  1  0  0  0  0
  8  9  1  0  0  0  0
  9 15  1  0  0  0  0
  9 10  2  0  0  0  0
 10 11  1  0  0  0  0
 11 12  2  0  0  0  0
 12 13  1  0  0  0  0
 12 28  1  0  0  0  0
 13 14  1  0  0  0  0
 13 29  1  0  0  0  0
 14 15  1  0  0  0  0
 14 30  1  0  0  0  0
 14 31  1  0  0  0  0
 15 22  1  0  0  0  0
 15 16  1  0  0  0  0
 16 32  1  0  0  0  0
 17 18  1  0  0  0  0
 17 33  1  0  0  0  0
 17 34  1  0  0  0  0
 18 23  1  0  0  0  0
 18 19  1  0  0  0  0
 19 35  1  0  0  0  0
M  END
> <s_m_source_file>
AV-unprocessed.smi

> <i_m_source_file_index>
157

> <i_lp_mmshare_version>
43012

> <i_f3d_flags>
0

> <s_epik_input>
W09IXVtDSDJdW0NASF0xT1tDQEhdKFtDSDJdW0NAQEhdMVtPSF0pbihbY0hdbjIpYyhjMjMpTj1bQ0hdW05IXVtDSDJdW0NASF0zW09IXQ==

> <s_epik_cmdline>
J2VwaWtfcHl0aG9uJywgJy1waCcsICc3LjAnLCAnLXRuJywgJzgnLCAnLW1hJywgJzIwMCcsICctbWV0YWxfYmluZGluZycsICctaW1hZScsICc8aW5maWxlLm1hZT4nLCAnLW9tYWUnLCAnPG91dGZpbGUubWFlPic=

> <r_lp_tautomer_probability>
1

> <r_epik_Ionization_Penalty>
0.0357149

> <r_epik_Ionization_Penalty_Charging>
0.0355056

> <r_epik_Ionization_Penalty_Neutral>
0.000209255

> <r_epik_State_Penalty>
0.0296046

> <r_epik_Charging_Adjusted_Penalty>
0.0651102

> <i_epik_Tot_Q>
0

> <i_epik_Tot_abs_Q>
0

> <r_epik_Metal_State_Penalty>
3.03559e-05

> <b_epik_Metal_Only>
0

> <s_epik_Chemistry_Notes>
This compound has an imine and may undergo hydrolysis. This compound contains an acetal/aminal-like group ( X-CH(R)-Y where X, Y are N, S, or O) that may be acid/base labile, releasing an aldehyde.

> <s_lp_Force_Field>
OPLS_2005

> <r_lp_Energy>
41.6449

> <b_lp_Chiralities_Consistent>
1

> <s_lp_Variant>
AV-unprocessed.smi:157-15

> <Gold.Version>
5.8.1

> <Gold.Id.Protein>
6NUR|6NUR_protein|mol2

> <Gold.PLP.Fitness>
41.8914

> <Gold.PLP.PLP>
-33.6321

> <Gold.PLP.part.hbond>
-2.3169

> <Gold.PLP.part.metal>
0.0000

> <Gold.PLP.part.buried>
-5.7973

> <Gold.PLP.part.nonpolar>
-24.6668

> <Gold.PLP.part.repulsive>
0.1333

> <Gold.PLP.ligand.clash>
0.0000

> <Gold.PLP.ligand.torsion>
0.0977

> <Gold.PLP.Chemscore.Hbond>
1.8160

> <Gold.PLP.Chemscore.CHOScore>
1.0000

> <Gold.PLP.Chemscore.Metal>
0.0000

> <Gold.Chemscore.Hbonds>
donor molecule, donor type, donor heavy atom, donor atom, acceptor molecule, acceptor atom, score
      P1  H  7989  7998       L1     4  0.82
      P1  H 10752 10763       L1     1  1.00
      L1  C     7    27       P1  8028  1.00

> <Gold.PLP.Chemscore.Internal.Correction>
0.0067

> <Gold.Rescore>
     Score         DG    S(hbond)    S(metal)    S(lipo)     H(rot)  DE(clash)    DE(int)     intcor
      6.03      -8.73       1.88        0.00      53.78       3.64       0.16       2.54       ----

> <Gold.Chemscore.Fitness>
6.0256

> <Gold.Chemscore.DG>
-8.7333

> <Gold.Chemscore.ZeroCoef>
-5.4800

> <Gold.Chemscore.Hbond>
1.8772

> <Gold.Chemscore.Metal>
0.0000

> <Gold.Chemscore.Lipo>
53.7803

> <Gold.Chemscore.Internal_Hbond>
0.0000

> <Gold.Chemscore.DEClash>
0.1648

> <Gold.Chemscore.DEInternal>
2.5428

> <Gold.Chemscore.Rot>
3.6362

> <Gold.Chemscore.Internal.Correction>
   9.000000E+99

> <Gold.Chemscore.Hbonds>
donor molecule, donor type, donor heavy atom, donor atom, acceptor molecule, acceptor atom, score
      P1  H  7989  7998       L1     4  0.64
      P1  H 10752 10763       L1     1  0.96

> <Gold.Chemscore.Hbond.Weighted>
-6.2697

> <Gold.Chemscore.Metal.Weighted>
-0.0000

> <Gold.Chemscore.Lipo.Weighted>
-6.2923

> <Gold.Chemscore.Internal_Hbond.Weighted>
0.0000

> <Gold.Chemscore.DEClash.Weighted>
0.1648

> <Gold.Chemscore.DEInternal.Weighted>
2.5428

> <Gold.Chemscore.Rot.Weighted>
9.3087

> <Gold.Chemscore.Internal.Correction.Weighted>
   9.000000E+99

> <Gold.Protein.RotatedTorsions>
[ 6907 6896 6895 6894 ] final -172.34 input  -60.11 | X-H torsion
[ 7974 7965 7964 7962 ] final    3.00 input  175.53 | X-H torsion
[ 8008 7997 7996 7995 ] final   65.25 input   59.86 | X-H torsion
[ 10167 10162 10161 10158 ] final  139.02 input  -65.29 | X-H torsion
[ 10718 10713 10712 10709 ] final   68.18 input   66.30 | X-H torsion
[ 10763 10752 10751 10750 ] final   38.58 input  -60.55 | X-H torsion
[ 11005 11000 10999 10996 ] final  -95.86 input  -57.11 | X-H torsion

> <Gold.Protein.ActiveResidues>
 VAL166  LYS551  ARG553  GLY616  TRP617  ASP618  TYR619  PRO620  LYS621  CYS622 
 ASP623  PHE694  ASN695  SER759  ASP760  ASP761  ALA762  ILE779  LEU786  VAL792 
 PHE793  MET794  SER795  GLU796  ALA797  LYS798  CYS799  TRP800  GLU811  SER814 

> <Gold.Protein.RotatedAtoms>
  151.5384  133.3437  159.2930 H   0  0  0  0  0  0  0  0  0  0  0  0  # atno 6907 bound_to 6896
  150.8550  134.7889  159.7050 H   0  0  0  0  0  0  0  0  0  0  0  0  # atno 6908 bound_to 6896
  152.4586  134.5243  159.9843 H   0  0  0  0  0  0  0  0  0  0  0  0  # atno 6909 bound_to 6896
  146.2445  140.0751  142.8360 H   0  0  0  0  0  0  0  0  0  0  0  0  # atno 7974 bound_to 7965
  155.6588  140.3497  155.4775 H   0  0  0  0  0  0  0  0  0  0  0  0  # atno 8008 bound_to 7997
  155.9786  140.1170  157.0770 H   0  0  0  0  0  0  0  0  0  0  0  0  # atno 8009 bound_to 7997
  154.4185  140.1142  156.5391 H   0  0  0  0  0  0  0  0  0  0  0  0  # atno 8010 bound_to 7997
  139.5092  144.6319  151.5794 H   0  0  0  0  0  0  0  0  0  0  0  0  # atno 10167 bound_to 10162
  157.6274  130.9360  150.0343 H   0  0  0  0  0  0  0  0  0  0  0  0  # atno 10718 bound_to 10713
  152.9996  135.6245  154.2328 H   0  0  0  0  0  0  0  0  0  0  0  0  # atno 10763 bound_to 10752
  154.2070  135.2801  155.2973 H   0  0  0  0  0  0  0  0  0  0  0  0  # atno 10764 bound_to 10752
  154.5638  135.5697  153.7090 H   0  0  0  0  0  0  0  0  0  0  0  0  # atno 10765 bound_to 10752
  141.1429  133.8056  157.0493 H   0  0  0  0  0  0  0  0  0  0  0  0  # atno 11005 bound_to 11000
  145.0782  140.9202  143.4841 LP  0  0  0  0  0  0  0  0  0  0  0  0  # atno 17320 bound_to 7965
  145.0899  139.2898  143.5740 LP  0  0  0  0  0  0  0  0  0  0  0  0  # atno 17321 bound_to 7965
  140.6055  143.9531  150.6416 LP  0  0  0  0  0  0  0  0  0  0  0  0  # atno 17342 bound_to 10162
  140.2757  143.3424  152.1197 LP  0  0  0  0  0  0  0  0  0  0  0  0  # atno 17343 bound_to 10162
  156.1455  130.3642  149.9517 LP  0  0  0  0  0  0  0  0  0  0  0  0  # atno 17370 bound_to 10713
  156.7548  130.9129  151.3639 LP  0  0  0  0  0  0  0  0  0  0  0  0  # atno 17371 bound_to 10713
  140.0642  134.9738  157.1357 LP  0  0  0  0  0  0  0  0  0  0  0  0  # atno 17394 bound_to 11000
  140.3804  134.2293  155.7171 LP  0  0  0  0  0  0  0  0  0  0  0  0  # atno 17395 bound_to 11000

$$$$
