AV-unprocessed.smi:1130|AV-procd|sdf|4848|dock5
  -GOLD-   22720 3413D 1   1.00000     0.00000
 Structure written by MMmdl.
 36 37  0  0  0  0  0  0  0  0  1 V2000
  148.5955  140.9333  154.1310 C   0  0  0  0  0  0  0  0  0  0  0  0
  149.6685  139.9687  154.5053 C   0  0  0  0  0  0  0  0  0  0  0  0
  150.8749  140.3860  154.8693 N   0  0  0  0  0  0  0  0  0  0  0  0
  151.5634  139.1932  155.1339 O   0  0  0  0  0  0  0  0  0  0  0  0
  150.6854  138.1945  154.8747 C   0  0  0  0  0  0  0  0  0  0  0  0
  151.1062  136.7830  155.1120 C   0  0  0  0  0  0  0  0  0  0  0  0
  149.9314  135.8882  155.5371 C   0  0  0  0  0  0  0  0  0  0  0  0
  149.2413  135.3190  154.3855 N   0  0  0  0  0  0  0  0  0  0  0  0
  148.5371  134.1789  154.3986 C   0  0  0  0  0  0  0  0  0  0  0  0
  148.3979  133.4651  155.3919 O   0  0  0  0  0  0  0  0  0  0  0  0
  148.0043  133.9104  153.1991 N   0  0  0  0  0  0  0  0  0  0  0  0
  147.1824  132.7453  152.8919 C   0  0  0  0  0  0  0  0  0  0  0  0
  146.4930  132.8664  151.5218 C   0  0  2  0  0  0  0  0  0  0  0  0
  145.5390  134.0564  151.3844 C   0  0  0  0  0  0  0  0  0  0  0  0
  144.4653  133.5627  150.4238 C   0  0  0  0  0  0  0  0  0  0  0  0
  144.8052  132.0875  150.2039 C   0  0  0  0  0  0  0  0  0  0  0  0
  145.6460  131.7513  151.2963 O   0  0  0  0  0  0  0  0  0  0  0  0
  149.4828  138.6201  154.4953 N   0  0  0  0  0  0  0  0  0  0  0  0
  148.7597  141.8999  154.6087 H   0  0  0  0  0  0  0  0  0  0  0  0
  147.6205  140.5584  154.4435 H   0  0  0  0  0  0  0  0  0  0  0  0
  148.5816  141.0784  153.0507 H   0  0  0  0  0  0  0  0  0  0  0  0
  151.5615  136.3980  154.1987 H   0  0  0  0  0  0  0  0  0  0  0  0
  151.8850  136.7788  155.8755 H   0  0  0  0  0  0  0  0  0  0  0  0
  150.2768  135.0916  156.1985 H   0  0  0  0  0  0  0  0  0  0  0  0
  149.2083  136.4725  156.1068 H   0  0  0  0  0  0  0  0  0  0  0  0
  149.2971  135.8349  153.5194 H   0  0  0  0  0  0  0  0  0  0  0  0
  148.1757  134.5582  152.4440 H   0  0  0  0  0  0  0  0  0  0  0  0
  147.7890  131.8392  152.9304 H   0  0  0  0  0  0  0  0  0  0  0  0
  146.4321  132.6461  153.6768 H   0  0  0  0  0  0  0  0  0  0  0  0
  147.2374  132.8967  150.7236 H   0  0  0  0  0  0  0  0  0  0  0  0
  145.0848  134.2987  152.3462 H   0  0  0  0  0  0  0  0  0  0  0  0
  146.0494  134.9491  151.0221 H   0  0  0  0  0  0  0  0  0  0  0  0
  143.4784  133.6714  150.8747 H   0  0  0  0  0  0  0  0  0  0  0  0
  144.4668  134.1137  149.4828 H   0  0  0  0  0  0  0  0  0  0  0  0
  143.9204  131.4514  150.1697 H   0  0  0  0  0  0  0  0  0  0  0  0
  145.3575  131.9539  149.2724 H   0  0  0  0  0  0  0  0  0  0  0  0
  1  2  1  0  0  0  0
  1 19  1  0  0  0  0
  1 20  1  0  0  0  0
  1 21  1  0  0  0  0
  2 18  1  0  0  0  0
  2  3  2  0  0  0  0
  3  4  1  0  0  0  0
  4  5  1  0  0  0  0
  5  6  1  0  0  0  0
  5 18  2  0  0  0  0
  6  7  1  0  0  0  0
  6 22  1  0  0  0  0
  6 23  1  0  0  0  0
  7  8  1  0  0  0  0
  7 24  1  0  0  0  0
  7 25  1  0  0  0  0
  8  9  1  0  0  0  0
  8 26  1  0  0  0  0
  9 10  2  0  0  0  0
  9 11  1  0  0  0  0
 11 12  1  0  0  0  0
 11 27  1  0  0  0  0
 12 13  1  0  0  0  0
 12 28  1  0  0  0  0
 12 29  1  0  0  0  0
 13 17  1  0  0  0  0
 13 14  1  0  0  0  0
 13 30  1  0  0  0  0
 14 15  1  0  0  0  0
 14 31  1  0  0  0  0
 14 32  1  0  0  0  0
 15 16  1  0  0  0  0
 15 33  1  0  0  0  0
 15 34  1  0  0  0  0
 16 17  1  0  0  0  0
 16 35  1  0  0  0  0
 16 36  1  0  0  0  0
M  END
> <s_m_source_file>
AV-unprocessed.smi

> <i_m_source_file_index>
1130

> <i_lp_mmshare_version>
43012

> <i_f3d_flags>
0

> <s_epik_input>
W0NIM11jMW5vYyhuMSlbQ0gyXVtDSDJdW05IXUMoPU8pW05IXVtDSDJdW0NAQEhdMltDSDJdW0NIMl1bQ0gyXU8y

> <s_epik_cmdline>
J2VwaWtfcHl0aG9uJywgJy1waCcsICc3LjAnLCAnLXRuJywgJzgnLCAnLW1hJywgJzIwMCcsICctbWV0YWxfYmluZGluZycsICctaW1hZScsICc8aW5maWxlLm1hZT4nLCAnLW9tYWUnLCAnPG91dGZpbGUubWFlPic=

> <r_lp_tautomer_probability>
1

> <r_epik_Ionization_Penalty>
4.67036e-05

> <r_epik_Ionization_Penalty_Charging>
0

> <r_epik_Ionization_Penalty_Neutral>
4.67036e-05

> <r_epik_State_Penalty>
-0

> <r_epik_Charging_Adjusted_Penalty>
0

> <i_epik_Tot_Q>
0

> <i_epik_Tot_abs_Q>
0

> <r_epik_Metal_State_Penalty>
-0

> <b_epik_Metal_Only>
0

> <s_lp_Force_Field>
OPLS_2005

> <r_lp_Energy>
8.95109

> <b_lp_Chiralities_Consistent>
1

> <s_lp_Variant>
AV-unprocessed.smi:1130-1

> <Gold.Version>
5.8.1

> <Gold.Id.Protein>
6NUR|6NUR_protein|mol2

> <Gold.PLP.Fitness>
37.5786

> <Gold.PLP.PLP>
-30.1782

> <Gold.PLP.part.hbond>
-3.1382

> <Gold.PLP.part.metal>
0.0000

> <Gold.PLP.part.buried>
-4.9660

> <Gold.PLP.part.nonpolar>
-22.2945

> <Gold.PLP.part.repulsive>
0.4438

> <Gold.PLP.ligand.clash>
0.0000

> <Gold.PLP.ligand.torsion>
0.7787

> <Gold.PLP.Chemscore.Hbond>
2.9760

> <Gold.PLP.Chemscore.CHOScore>
0.0000

> <Gold.PLP.Chemscore.Metal>
0.0000

> <Gold.Chemscore.Hbonds>
donor molecule, donor type, donor heavy atom, donor atom, acceptor molecule, acceptor atom, score
      L1  H     8    26       P1  7948  1.00
      L1  H    11    27       P1  7948  0.98
      P1  H  7989  7998       L1     3  1.00

> <Gold.PLP.Chemscore.Internal.Correction>
0.0298

> <Gold.Rescore>
     Score         DG    S(hbond)    S(metal)    S(lipo)     H(rot)  DE(clash)    DE(int)     intcor
     12.23     -12.97       2.23        0.00      51.30       2.33       0.03       0.71       ----

> <Gold.Chemscore.Fitness>
12.2285

> <Gold.Chemscore.DG>
-12.9725

> <Gold.Chemscore.ZeroCoef>
-5.4800

> <Gold.Chemscore.Hbond>
2.2312

> <Gold.Chemscore.Metal>
0.0000

> <Gold.Chemscore.Lipo>
51.2984

> <Gold.Chemscore.Internal_Hbond>
0.0000

> <Gold.Chemscore.DEClash>
0.0324

> <Gold.Chemscore.DEInternal>
0.7116

> <Gold.Chemscore.Rot>
2.3288

> <Gold.Chemscore.Internal.Correction>
   9.000000E+99

> <Gold.Chemscore.Hbonds>
donor molecule, donor type, donor heavy atom, donor atom, acceptor molecule, acceptor atom, score
      L1  H     8    26       P1  7948  0.60
      L1  H    11    27       P1  7948  0.28
      P1  H  7989  7998       L1     3  0.18

> <Gold.Chemscore.Hbond.Weighted>
-7.4523

> <Gold.Chemscore.Metal.Weighted>
-0.0000

> <Gold.Chemscore.Lipo.Weighted>
-6.0019

> <Gold.Chemscore.Internal_Hbond.Weighted>
0.0000

> <Gold.Chemscore.DEClash.Weighted>
0.0324

> <Gold.Chemscore.DEInternal.Weighted>
0.7116

> <Gold.Chemscore.Rot.Weighted>
5.9617

> <Gold.Chemscore.Internal.Correction.Weighted>
   9.000000E+99

> <Gold.Protein.RotatedTorsions>
[ 6907 6896 6895 6894 ] final  -19.25 input  -60.11 | X-H torsion
[ 7974 7965 7964 7962 ] final   42.42 input  175.53 | X-H torsion
[ 8008 7997 7996 7995 ] final  -35.19 input   59.86 | X-H torsion
[ 10167 10162 10161 10158 ] final  147.86 input  -65.29 | X-H torsion
[ 10718 10713 10712 10709 ] final  125.47 input   66.30 | X-H torsion
[ 10763 10752 10751 10750 ] final  -99.19 input  -60.55 | X-H torsion
[ 11005 11000 10999 10996 ] final  179.13 input  -57.11 | X-H torsion

> <Gold.Protein.ActiveResidues>
 VAL166  LYS551  ARG553  GLY616  TRP617  ASP618  TYR619  PRO620  LYS621  CYS622 
 ASP623  PHE694  ASN695  SER759  ASP760  ASP761  ALA762  ILE779  LEU786  VAL792 
 PHE793  MET794  SER795  GLU796  ALA797  LYS798  CYS799  TRP800  GLU811  SER814 

> <Gold.Protein.RotatedAtoms>
  151.2659  135.0669  159.9115 H   0  0  0  0  0  0  0  0  0  0  0  0  # atno 6907 bound_to 6896
  152.5358  134.0182  159.7980 H   0  0  0  0  0  0  0  0  0  0  0  0  # atno 6908 bound_to 6896
  151.0412  133.5654  159.2682 H   0  0  0  0  0  0  0  0  0  0  0  0  # atno 6909 bound_to 6896
  146.0742  139.5302  142.9578 H   0  0  0  0  0  0  0  0  0  0  0  0  # atno 7974 bound_to 7965
  154.4101  140.1664  156.2171 H   0  0  0  0  0  0  0  0  0  0  0  0  # atno 8008 bound_to 7997
  155.9395  140.3409  155.6292 H   0  0  0  0  0  0  0  0  0  0  0  0  # atno 8009 bound_to 7997
  155.7007  140.0744  157.2402 H   0  0  0  0  0  0  0  0  0  0  0  0  # atno 8010 bound_to 7997
  139.4883  144.5723  151.7031 H   0  0  0  0  0  0  0  0  0  0  0  0  # atno 10167 bound_to 10162
  157.5500  131.1094  150.8718 H   0  0  0  0  0  0  0  0  0  0  0  0  # atno 10718 bound_to 10713
  154.7477  135.4981  153.9233 H   0  0  0  0  0  0  0  0  0  0  0  0  # atno 10763 bound_to 10752
  153.1110  135.6709  153.9509 H   0  0  0  0  0  0  0  0  0  0  0  0  # atno 10764 bound_to 10752
  153.9268  135.3082  155.3425 H   0  0  0  0  0  0  0  0  0  0  0  0  # atno 10765 bound_to 10752
  140.4028  134.6762  157.4571 H   0  0  0  0  0  0  0  0  0  0  0  0  # atno 11005 bound_to 11000
  145.6337  141.0299  143.1849 LP  0  0  0  0  0  0  0  0  0  0  0  0  # atno 17320 bound_to 7965
  144.7251  139.7903  143.7368 LP  0  0  0  0  0  0  0  0  0  0  0  0  # atno 17321 bound_to 7965
  140.5313  144.0726  150.6054 LP  0  0  0  0  0  0  0  0  0  0  0  0  # atno 17342 bound_to 10162
  140.3717  143.2851  152.0270 LP  0  0  0  0  0  0  0  0  0  0  0  0  # atno 17343 bound_to 10162
  156.9245  130.5327  149.5279 LP  0  0  0  0  0  0  0  0  0  0  0  0  # atno 17370 bound_to 10713
  156.0568  130.5628  150.9109 LP  0  0  0  0  0  0  0  0  0  0  0  0  # atno 17371 bound_to 10713
  140.0324  134.6387  155.9089 LP  0  0  0  0  0  0  0  0  0  0  0  0  # atno 17394 bound_to 11000
  141.1850  133.6554  156.5181 LP  0  0  0  0  0  0  0  0  0  0  0  0  # atno 17395 bound_to 11000

$$$$
