AV-unprocessed.smi:3276|AV-procd|sdf|12534|dock1
  -GOLD-   2272018453D 1   1.00000     0.00000
 Structure written by MMmdl.
 39 40  0  0  0  0  0  0  0  0  1 V2000
  147.0399  141.6774  154.5078 C   0  0  0  0  0  0  0  0  0  0  0  0
  148.2547  140.7775  154.5846 C   0  0  0  0  0  0  0  0  0  0  0  0
  149.5587  141.3047  154.6970 C   0  0  0  0  0  0  0  0  0  0  0  0
  150.6426  140.5021  154.7657 N   0  0  0  0  0  0  0  0  0  0  0  0
  150.4186  139.1684  154.7194 C   0  0  0  0  0  0  0  0  0  0  0  0
  151.6484  138.2813  154.7953 C   0  0  0  0  0  0  0  0  0  0  0  0
  149.1105  138.6324  154.6036 C   0  0  0  0  0  0  0  0  0  0  0  0
  148.9161  137.2439  154.5604 N   0  0  0  0  0  0  0  0  0  0  0  0
  148.0841  136.5886  155.5596 C   0  0  0  0  0  0  0  0  0  0  0  0
  148.8392  136.4087  156.8803 C   0  0  0  0  0  0  0  0  0  0  0  0
  147.9945  135.7328  157.7963 O   0  0  0  0  0  0  0  0  0  0  0  0
  147.4428  136.5900  158.7819 C   0  0  0  0  0  0  0  0  0  0  0  0
  147.9046  136.1383  160.1745 C   0  0  2  0  0  0  0  0  0  0  0  0
  147.3433  134.7923  160.6410 C   0  0  0  0  0  0  0  0  0  0  0  0
  147.3518  134.9627  162.1432 C   0  0  0  0  0  0  0  0  0  0  0  0
  146.9544  136.4288  162.2850 C   0  0  0  0  0  0  0  0  0  0  0  0
  147.5396  137.0926  161.1690 O   0  0  0  0  0  0  0  0  0  0  0  0
  148.0280  139.4461  154.5379 N   0  0  0  0  0  0  0  0  0  0  0  0
  147.3147  142.7225  154.6549 H   0  0  0  0  0  0  0  0  0  0  0  0
  146.3149  141.4048  155.2754 H   0  0  0  0  0  0  0  0  0  0  0  0
  146.5619  141.5842  153.5322 H   0  0  0  0  0  0  0  0  0  0  0  0
  149.7357  142.3697  154.7321 H   0  0  0  0  0  0  0  0  0  0  0  0
  151.7095  137.6401  153.9155 H   0  0  0  0  0  0  0  0  0  0  0  0
  151.6033  137.6476  155.6814 H   0  0  0  0  0  0  0  0  0  0  0  0
  152.5646  138.8713  154.8473 H   0  0  0  0  0  0  0  0  0  0  0  0
  149.0880  136.7558  153.6932 H   0  0  0  0  0  0  0  0  0  0  0  0
  147.1964  137.1992  155.7283 H   0  0  0  0  0  0  0  0  0  0  0  0
  147.7460  135.6203  155.1884 H   0  0  0  0  0  0  0  0  0  0  0  0
  149.7646  135.8526  156.7209 H   0  0  0  0  0  0  0  0  0  0  0  0
  149.1081  137.3852  157.2852 H   0  0  0  0  0  0  0  0  0  0  0  0
  147.7680  137.6163  158.6049 H   0  0  0  0  0  0  0  0  0  0  0  0
  146.3533  136.5769  158.7245 H   0  0  0  0  0  0  0  0  0  0  0  0
  148.9941  136.0823  160.1858 H   0  0  0  0  0  0  0  0  0  0  0  0
  146.3184  134.6488  160.2963 H   0  0  0  0  0  0  0  0  0  0  0  0
  147.9374  133.9434  160.3015 H   0  0  0  0  0  0  0  0  0  0  0  0
  146.6706  134.2841  162.6571 H   0  0  0  0  0  0  0  0  0  0  0  0
  148.3571  134.8035  162.5348 H   0  0  0  0  0  0  0  0  0  0  0  0
  145.8706  136.5352  162.2225 H   0  0  0  0  0  0  0  0  0  0  0  0
  147.2843  136.8642  163.2282 H   0  0  0  0  0  0  0  0  0  0  0  0
  1  2  1  0  0  0  0
  1 19  1  0  0  0  0
  1 20  1  0  0  0  0
  1 21  1  0  0  0  0
  2 18  1  0  0  0  0
  2  3  2  0  0  0  0
  3  4  1  0  0  0  0
  3 22  1  0  0  0  0
  4  5  2  0  0  0  0
  5  6  1  0  0  0  0
  5  7  1  0  0  0  0
  6 23  1  0  0  0  0
  6 24  1  0  0  0  0
  6 25  1  0  0  0  0
  7  8  1  0  0  0  0
  7 18  2  0  0  0  0
  8  9  1  0  0  0  0
  8 26  1  0  0  0  0
  9 10  1  0  0  0  0
  9 27  1  0  0  0  0
  9 28  1  0  0  0  0
 10 11  1  0  0  0  0
 10 29  1  0  0  0  0
 10 30  1  0  0  0  0
 11 12  1  0  0  0  0
 12 13  1  0  0  0  0
 12 31  1  0  0  0  0
 12 32  1  0  0  0  0
 13 17  1  0  0  0  0
 13 14  1  0  0  0  0
 13 33  1  0  0  0  0
 14 15  1  0  0  0  0
 14 34  1  0  0  0  0
 14 35  1  0  0  0  0
 15 16  1  0  0  0  0
 15 36  1  0  0  0  0
 15 37  1  0  0  0  0
 16 17  1  0  0  0  0
 16 38  1  0  0  0  0
 16 39  1  0  0  0  0
M  END
> <s_m_source_file>
AV-unprocessed.smi

> <i_m_source_file_index>
3276

> <i_lp_mmshare_version>
43012

> <i_f3d_flags>
0

> <s_epik_input>
W0NIM11jMVtjSF1uYyhbQ0gzXSljKG4xKVtOSF1bQ0gyXVtDSDJdT1tDSDJdW0NAQEhdMltDSDJdW0NIMl1bQ0gyXU8y

> <s_epik_cmdline>
J2VwaWtfcHl0aG9uJywgJy1waCcsICc3LjAnLCAnLXRuJywgJzgnLCAnLW1hJywgJzIwMCcsICctbWV0YWxfYmluZGluZycsICctaW1hZScsICc8aW5maWxlLm1hZT4nLCAnLW9tYWUnLCAnPG91dGZpbGUubWFlPic=

> <r_lp_tautomer_probability>
1

> <r_epik_Ionization_Penalty>
0.000506

> <r_epik_Ionization_Penalty_Charging>
0

> <r_epik_Ionization_Penalty_Neutral>
0.000506

> <r_epik_State_Penalty>
-0

> <r_epik_Charging_Adjusted_Penalty>
0

> <i_epik_Tot_Q>
0

> <i_epik_Tot_abs_Q>
0

> <r_epik_Metal_State_Penalty>
-0

> <b_epik_Metal_Only>
0

> <s_lp_Force_Field>
OPLS_2005

> <r_lp_Energy>
26.3084

> <b_lp_Chiralities_Consistent>
1

> <s_lp_Variant>
AV-unprocessed.smi:3276-1

> <Gold.Version>
5.8.1

> <Gold.Id.Protein>
6NUR|6NUR_protein|mol2

> <Gold.PLP.Fitness>
43.7875

> <Gold.PLP.PLP>
-31.9956

> <Gold.PLP.part.hbond>
-4.0000

> <Gold.PLP.part.metal>
0.0000

> <Gold.PLP.part.buried>
-2.8606

> <Gold.PLP.part.nonpolar>
-24.6172

> <Gold.PLP.part.repulsive>
0.1934

> <Gold.PLP.ligand.clash>
0.0000

> <Gold.PLP.ligand.torsion>
1.3974

> <Gold.PLP.Chemscore.Hbond>
3.7680

> <Gold.PLP.Chemscore.CHOScore>
0.9970

> <Gold.PLP.Chemscore.Metal>
0.0000

> <Gold.Chemscore.Hbonds>
donor molecule, donor type, donor heavy atom, donor atom, acceptor molecule, acceptor atom, score
      L1  H     8    26       P1  7948  1.00
      P1  H  6931  6943       L1    17  0.94
      P1  H  6934  6947       L1    17  0.94
      P1  H  7989  7998       L1     4  1.00
      L1  C     3    22       P1  8028  0.69

> <Gold.PLP.Chemscore.Internal.Correction>
0.2917

> <Gold.Rescore>
     Score         DG    S(hbond)    S(metal)    S(lipo)     H(rot)  DE(clash)    DE(int)     intcor
     19.27     -20.54       3.36        0.00      69.69       1.68       0.03       1.24       ----

> <Gold.Chemscore.Fitness>
19.2730

> <Gold.Chemscore.DG>
-20.5361

> <Gold.Chemscore.ZeroCoef>
-5.4800

> <Gold.Chemscore.Hbond>
3.3558

> <Gold.Chemscore.Metal>
0.0000

> <Gold.Chemscore.Lipo>
69.6899

> <Gold.Chemscore.Internal_Hbond>
0.0000

> <Gold.Chemscore.DEClash>
0.0260

> <Gold.Chemscore.DEInternal>
1.2372

> <Gold.Chemscore.Rot>
1.6820

> <Gold.Chemscore.Internal.Correction>
   9.000000E+99

> <Gold.Chemscore.Hbonds>
donor molecule, donor type, donor heavy atom, donor atom, acceptor molecule, acceptor atom, score
      L1  H     8    26       P1  7948  0.99
      P1  H  6931  6943       L1    17  0.48
      P1  H  6934  6947       L1    17  0.86
      P1  H  7989  7998       L1     4  0.38

> <Gold.Chemscore.Hbond.Weighted>
-11.2082

> <Gold.Chemscore.Metal.Weighted>
-0.0000

> <Gold.Chemscore.Lipo.Weighted>
-8.1537

> <Gold.Chemscore.Internal_Hbond.Weighted>
0.0000

> <Gold.Chemscore.DEClash.Weighted>
0.0260

> <Gold.Chemscore.DEInternal.Weighted>
1.2372

> <Gold.Chemscore.Rot.Weighted>
4.3058

> <Gold.Chemscore.Internal.Correction.Weighted>
   9.000000E+99

> <Gold.Protein.RotatedTorsions>
[ 6907 6896 6895 6894 ] final  147.61 input  -60.11 | X-H torsion
[ 7974 7965 7964 7962 ] final   53.58 input  175.53 | X-H torsion
[ 8008 7997 7996 7995 ] final -100.83 input   59.86 | X-H torsion
[ 10167 10162 10161 10158 ] final  130.14 input  -65.29 | X-H torsion
[ 10718 10713 10712 10709 ] final   54.49 input   66.30 | X-H torsion
[ 10763 10752 10751 10750 ] final  -37.68 input  -60.55 | X-H torsion
[ 11005 11000 10999 10996 ] final   -9.59 input  -57.11 | X-H torsion

> <Gold.Protein.ActiveResidues>
 VAL166  LYS551  ARG553  GLY616  TRP617  ASP618  TYR619  PRO620  LYS621  CYS622 
 ASP623  PHE694  ASN695  SER759  ASP760  ASP761  ALA762  ILE779  LEU786  VAL792 
 PHE793  MET794  SER795  GLU796  ALA797  LYS798  CYS799  TRP800  GLU811  SER814 

> <Gold.Protein.RotatedAtoms>
  152.1525  133.4530  159.4820 H   0  0  0  0  0  0  0  0  0  0  0  0  # atno 6907 bound_to 6896
  150.6897  134.2172  159.4391 H   0  0  0  0  0  0  0  0  0  0  0  0  # atno 6908 bound_to 6896
  152.0069  134.9897  160.0617 H   0  0  0  0  0  0  0  0  0  0  0  0  # atno 6909 bound_to 6896
  145.9697  139.4137  143.0198 H   0  0  0  0  0  0  0  0  0  0  0  0  # atno 7974 bound_to 7965
  154.8341  140.0438  157.1497 H   0  0  0  0  0  0  0  0  0  0  0  0  # atno 8008 bound_to 7997
  154.9119  140.3015  155.5241 H   0  0  0  0  0  0  0  0  0  0  0  0  # atno 8009 bound_to 7997
  156.2989  140.2356  156.4159 H   0  0  0  0  0  0  0  0  0  0  0  0  # atno 8010 bound_to 7997
  139.5444  144.6760  151.4521 H   0  0  0  0  0  0  0  0  0  0  0  0  # atno 10167 bound_to 10162
  157.5261  130.8598  149.8624 H   0  0  0  0  0  0  0  0  0  0  0  0  # atno 10718 bound_to 10713
  153.9003  135.6803  153.4755 H   0  0  0  0  0  0  0  0  0  0  0  0  # atno 10763 bound_to 10752
  153.1133  135.4773  154.9070 H   0  0  0  0  0  0  0  0  0  0  0  0  # atno 10764 bound_to 10752
  154.7578  135.3202  154.8390 H   0  0  0  0  0  0  0  0  0  0  0  0  # atno 10765 bound_to 10752
  140.7357  133.8712  155.8928 H   0  0  0  0  0  0  0  0  0  0  0  0  # atno 11005 bound_to 11000
  145.7924  140.9808  143.1042 LP  0  0  0  0  0  0  0  0  0  0  0  0  # atno 17320 bound_to 7965
  144.6834  139.9699  143.7482 LP  0  0  0  0  0  0  0  0  0  0  0  0  # atno 17321 bound_to 7965
  140.6686  143.8343  150.6972 LP  0  0  0  0  0  0  0  0  0  0  0  0  # atno 17342 bound_to 10162
  140.1760  143.4155  152.1967 LP  0  0  0  0  0  0  0  0  0  0  0  0  # atno 17343 bound_to 10162
  156.0388  130.3744  150.1489 LP  0  0  0  0  0  0  0  0  0  0  0  0  # atno 17370 bound_to 10713
  156.9676  130.9824  151.3466 LP  0  0  0  0  0  0  0  0  0  0  0  0  # atno 17371 bound_to 10713
  140.9881  134.1315  157.4433 LP  0  0  0  0  0  0  0  0  0  0  0  0  # atno 17394 bound_to 11000
  139.8816  135.0032  156.6172 LP  0  0  0  0  0  0  0  0  0  0  0  0  # atno 17395 bound_to 11000

$$$$
