AV-unprocessed.smi:644|AV-procd|sdf|3158|dock3
  -GOLD-   22720 0 83D 1   1.00000     0.00000
 Structure written by MMmdl.
 38 40  0  0  0  0  0  0  0  0  2 V2000
  152.2301  144.0915  160.6992 C   0  0  0  0  0  0  0  0  0  0  0  0
  152.0906  143.0754  159.5785 C   0  0  0  0  0  0  0  0  0  0  0  0
  151.2206  143.3706  158.5044 C   0  0  0  0  0  0  0  0  0  0  0  0
  151.1130  142.4206  157.4956 C   0  0  0  0  0  0  0  0  0  0  0  0
  150.3527  142.4099  156.3237 N   0  3  0  0  0  0  0  0  0  0  0  0
  150.5792  141.2506  155.6456 C   0  0  0  0  0  0  0  0  0  0  0  0
  151.4736  140.5224  156.3674 N   0  0  0  0  0  0  0  0  0  0  0  0
  152.0522  139.1998  156.0979 C   0  0  0  0  0  0  0  0  0  0  0  0
  151.6463  138.6419  154.7202 C   0  0  1  0  0  0  0  0  0  0  0  0
  152.6402  137.7425  154.2666 O   0  0  0  0  0  0  0  0  0  0  0  0
  150.2901  137.9211  154.7683 C   0  0  0  0  0  0  0  0  0  0  0  0
  150.4327  136.2514  155.4772 S   0  0  0  0  0  0  0  0  0  0  0  0
  150.8555  136.6539  157.1422 C   0  0  0  0  0  0  0  0  0  0  0  0
  151.9959  136.3070  157.7565 N   0  0  0  0  0  0  0  0  0  0  0  0
  152.0508  136.7638  159.0665 N   0  0  0  0  0  0  0  0  0  0  0  0
  150.9475  137.4406  159.3942 C   0  0  0  0  0  0  0  0  0  0  0  0
  149.7372  137.5836  158.1331 S   0  0  0  0  0  0  0  0  0  0  0  0
  151.8350  141.2121  157.5288 C   0  0  0  0  0  0  0  0  0  0  0  0
  152.6969  140.9051  158.5783 C   0  0  0  0  0  0  0  0  0  0  0  0
  152.8194  141.8580  159.6148 C   0  0  0  0  0  0  0  0  0  0  0  0
  153.7515  141.5504  160.7746 C   0  0  0  0  0  0  0  0  0  0  0  0
  151.6041  144.9670  160.5245 H   0  0  0  0  0  0  0  0  0  0  0  0
  153.2627  144.4317  160.7816 H   0  0  0  0  0  0  0  0  0  0  0  0
  151.9318  143.6542  161.6523 H   0  0  0  0  0  0  0  0  0  0  0  0
  150.6619  144.2946  158.4706 H   0  0  0  0  0  0  0  0  0  0  0  0
  150.1273  140.9587  154.7085 H   0  0  0  0  0  0  0  0  0  0  0  0
  153.1369  139.2965  156.1638 H   0  0  0  0  0  0  0  0  0  0  0  0
  151.7522  138.5234  156.8992 H   0  0  0  0  0  0  0  0  0  0  0  0
  151.5848  139.4624  154.0045 H   0  0  0  0  0  0  0  0  0  0  0  0
  153.4882  138.1272  154.4304 H   0  0  0  0  0  0  0  0  0  0  0  0
  149.5719  138.5035  155.3472 H   0  0  0  0  0  0  0  0  0  0  0  0
  149.8911  137.8295  153.7575 H   0  0  0  0  0  0  0  0  0  0  0  0
  150.8457  137.8582  160.3849 H   0  0  0  0  0  0  0  0  0  0  0  0
  153.2497  139.9777  158.6051 H   0  0  0  0  0  0  0  0  0  0  0  0
  154.2257  140.5756  160.6579 H   0  0  0  0  0  0  0  0  0  0  0  0
  153.2019  141.5420  161.7162 H   0  0  0  0  0  0  0  0  0  0  0  0
  154.5412  142.2993  160.8403 H   0  0  0  0  0  0  0  0  0  0  0  0
  149.7228  143.1367  156.0088 H   0  0  0  0  0  0  0  0  0  0  0  0
  1  2  1  0  0  0  0
  1 22  1  0  0  0  0
  1 23  1  0  0  0  0
  1 24  1  0  0  0  0
  2 20  1  0  0  0  0
  2  3  2  0  0  0  0
  3  4  1  0  0  0  0
  3 25  1  0  0  0  0
  4 18  2  0  0  0  0
  4  5  1  0  0  0  0
  5  6  2  0  0  0  0
  5 38  1  0  0  0  0
  6  7  1  0  0  0  0
  6 26  1  0  0  0  0
  7  8  1  0  0  0  0
  7 18  1  0  0  0  0
  8  9  1  0  0  0  0
  8 27  1  0  0  0  0
  8 28  1  0  0  0  0
  9 10  1  0  0  0  0
  9 11  1  0  0  0  0
  9 29  1  0  0  0  0
 10 30  1  0  0  0  0
 11 12  1  0  0  0  0
 11 31  1  0  0  0  0
 11 32  1  0  0  0  0
 12 13  1  0  0  0  0
 13 17  1  0  0  0  0
 13 14  2  0  0  0  0
 14 15  1  0  0  0  0
 15 16  2  0  0  0  0
 16 17  1  0  0  0  0
 16 33  1  0  0  0  0
 18 19  1  0  0  0  0
 19 20  2  0  0  0  0
 19 34  1  0  0  0  0
 20 21  1  0  0  0  0
 21 35  1  0  0  0  0
 21 36  1  0  0  0  0
 21 37  1  0  0  0  0
M  CHG  1   5   1
M  END
> <s_m_source_file>
AV-unprocessed.smi

> <i_m_source_file_index>
644

> <i_lp_mmshare_version>
43012

> <i_f3d_flags>
0

> <s_epik_input>
W0NIM11jKFtjSF0xKWMoW0NIM10pW2NIXWMoYzEyKW4oW2NIXW4yKVtDSDJdW0NASF0oW09IXSlbQ0gyXVNjM25uW2NIXXMz

> <s_epik_cmdline>
J2VwaWtfcHl0aG9uJywgJy1waCcsICc3LjAnLCAnLXRuJywgJzgnLCAnLW1hJywgJzIwMCcsICctbWV0YWxfYmluZGluZycsICctaW1hZScsICc8aW5maWxlLm1hZT4nLCAnLW9tYWUnLCAnPG91dGZpbGUubWFlPic=

> <r_lp_tautomer_probability>
1

> <r_epik_Ionization_Penalty>
1.07492

> <r_epik_Ionization_Penalty_Charging>
1.07491

> <r_epik_Ionization_Penalty_Neutral>
3.80549e-06

> <r_epik_State_Penalty>
1.12982

> <r_epik_Charging_Adjusted_Penalty>
2.20473

> <i_epik_Tot_Q>
1

> <i_epik_Tot_abs_Q>
1

> <r_epik_Metal_State_Penalty>
1.2206

> <b_epik_Metal_Only>
0

> <s_lp_Force_Field>
OPLS_2005

> <r_lp_Energy>
12.6095

> <b_lp_Chiralities_Consistent>
1

> <s_lp_Variant>
AV-unprocessed.smi:644-4

> <Gold.Version>
5.8.1

> <Gold.Id.Protein>
6NUR|6NUR_protein|mol2

> <Gold.PLP.Fitness>
54.0397

> <Gold.PLP.PLP>
-44.4424

> <Gold.PLP.part.hbond>
-3.9161

> <Gold.PLP.part.metal>
0.0000

> <Gold.PLP.part.buried>
-6.4742

> <Gold.PLP.part.nonpolar>
-34.6396

> <Gold.PLP.part.repulsive>
0.0879

> <Gold.PLP.ligand.clash>
0.0000

> <Gold.PLP.ligand.torsion>
0.4816

> <Gold.PLP.Chemscore.Hbond>
3.4802

> <Gold.PLP.Chemscore.CHOScore>
0.0000

> <Gold.PLP.Chemscore.Metal>
0.0000

> <Gold.Chemscore.Hbonds>
donor molecule, donor type, donor heavy atom, donor atom, acceptor molecule, acceptor atom, score
      L1  H     5    38       P1  8028  2.00
      P1  H  6896  6909       L1    15  0.91
      P1  H 10752 10765       L1    10  0.50

> <Gold.PLP.Chemscore.Internal.Correction>
0.1199

> <Gold.Rescore>
     Score         DG    S(hbond)    S(metal)    S(lipo)     H(rot)  DE(clash)    DE(int)     intcor
     17.65     -18.41       1.83        0.00     113.70       2.53       0.06       0.70       ----

> <Gold.Chemscore.Fitness>
17.6497

> <Gold.Chemscore.DG>
-18.4062

> <Gold.Chemscore.ZeroCoef>
-5.4800

> <Gold.Chemscore.Hbond>
1.8276

> <Gold.Chemscore.Metal>
0.0000

> <Gold.Chemscore.Lipo>
113.6986

> <Gold.Chemscore.Internal_Hbond>
0.0000

> <Gold.Chemscore.DEClash>
0.0578

> <Gold.Chemscore.DEInternal>
0.6988

> <Gold.Chemscore.Rot>
2.5315

> <Gold.Chemscore.Internal.Correction>
   9.000000E+99

> <Gold.Chemscore.Hbonds>
donor molecule, donor type, donor heavy atom, donor atom, acceptor molecule, acceptor atom, score
      L1  H     5    38       P1  8028  1.00
      P1  H  6896  6909       L1    15  0.08
      P1  H 10752 10765       L1    10  0.22

> <Gold.Chemscore.Hbond.Weighted>
-6.1040

> <Gold.Chemscore.Metal.Weighted>
-0.0000

> <Gold.Chemscore.Lipo.Weighted>
-13.3027

> <Gold.Chemscore.Internal_Hbond.Weighted>
0.0000

> <Gold.Chemscore.DEClash.Weighted>
0.0578

> <Gold.Chemscore.DEInternal.Weighted>
0.6988

> <Gold.Chemscore.Rot.Weighted>
6.4805

> <Gold.Chemscore.Internal.Correction.Weighted>
   9.000000E+99

> <Gold.Protein.RotatedTorsions>
[ 6907 6896 6895 6894 ] final  132.97 input  -60.11 | X-H torsion
[ 7974 7965 7964 7962 ] final  114.35 input  175.53 | X-H torsion
[ 8008 7997 7996 7995 ] final  -61.83 input   59.86 | X-H torsion
[ 10167 10162 10161 10158 ] final   81.42 input  -65.29 | X-H torsion
[ 10718 10713 10712 10709 ] final  -19.94 input   66.30 | X-H torsion
[ 10763 10752 10751 10750 ] final  156.74 input  -60.55 | X-H torsion
[ 11005 11000 10999 10996 ] final -164.99 input  -57.11 | X-H torsion

> <Gold.Protein.ActiveResidues>
 VAL166  LYS551  ARG553  GLY616  TRP617  ASP618  TYR619  PRO620  LYS621  CYS622 
 ASP623  PHE694  ASN695  SER759  ASP760  ASP761  ALA762  ILE779  LEU786  VAL792 
 PHE793  MET794  SER795  GLU796  ALA797  LYS798  CYS799  TRP800  GLU811  SER814 

> <Gold.Protein.RotatedAtoms>
  152.3268  133.5914  159.5782 H   0  0  0  0  0  0  0  0  0  0  0  0  # atno 6907 bound_to 6896
  150.7401  133.9928  159.3621 H   0  0  0  0  0  0  0  0  0  0  0  0  # atno 6908 bound_to 6896
  151.7807  135.0763  160.0424 H   0  0  0  0  0  0  0  0  0  0  0  0  # atno 6909 bound_to 6896
  145.2056  139.2931  143.4295 H   0  0  0  0  0  0  0  0  0  0  0  0  # atno 7974 bound_to 7965
  154.4468  140.1009  156.6493 H   0  0  0  0  0  0  0  0  0  0  0  0  # atno 8008 bound_to 7997
  155.5415  140.3483  155.4429 H   0  0  0  0  0  0  0  0  0  0  0  0  # atno 8009 bound_to 7997
  156.0593  140.1322  156.9949 H   0  0  0  0  0  0  0  0  0  0  0  0  # atno 8010 bound_to 7997
  139.9394  144.6099  150.8266 H   0  0  0  0  0  0  0  0  0  0  0  0  # atno 10167 bound_to 10162
  156.5388  130.4673  149.6509 H   0  0  0  0  0  0  0  0  0  0  0  0  # atno 10718 bound_to 10713
  154.1891  135.2795  155.3028 H   0  0  0  0  0  0  0  0  0  0  0  0  # atno 10763 bound_to 10752
  154.5943  135.5550  153.7313 H   0  0  0  0  0  0  0  0  0  0  0  0  # atno 10764 bound_to 10752
  153.0117  135.6376  154.2030 H   0  0  0  0  0  0  0  0  0  0  0  0  # atno 10765 bound_to 10752
  140.5808  134.5144  157.5178 H   0  0  0  0  0  0  0  0  0  0  0  0  # atno 11005 bound_to 11000
  146.3408  140.2314  142.8593 LP  0  0  0  0  0  0  0  0  0  0  0  0  # atno 17320 bound_to 7965
  144.9906  140.8543  143.5342 LP  0  0  0  0  0  0  0  0  0  0  0  0  # atno 17321 bound_to 7965
  140.7615  143.3176  151.2697 LP  0  0  0  0  0  0  0  0  0  0  0  0  # atno 17342 bound_to 10162
  139.6717  144.0009  152.2757 LP  0  0  0  0  0  0  0  0  0  0  0  0  # atno 17343 bound_to 10162
  156.2991  130.7167  151.2034 LP  0  0  0  0  0  0  0  0  0  0  0  0  # atno 17370 bound_to 10713
  157.7409  131.0511  150.5134 LP  0  0  0  0  0  0  0  0  0  0  0  0  # atno 17371 bound_to 10713
  139.9318  134.7949  156.0909 LP  0  0  0  0  0  0  0  0  0  0  0  0  # atno 17394 bound_to 11000
  141.0998  133.6682  156.2727 LP  0  0  0  0  0  0  0  0  0  0  0  0  # atno 17395 bound_to 11000

$$$$
