AV-unprocessed.smi:1920|AV-procd|sdf|7783|dock3
  -GOLD-   22720 9523D 1   1.00000     0.00000
 Structure written by MMmdl.
 36 37  0  0  0  0  0  0  0  0  1 V2000
  147.5568  141.2459  154.2271 C   0  0  0  0  0  0  0  0  0  0  0  0
  149.0341  140.9156  154.5126 C   0  0  2  0  0  0  0  0  0  0  0  0
  149.3925  139.4452  154.2192 C   0  0  0  0  0  0  0  0  0  0  0  0
  150.8237  139.2070  154.2067 N   0  0  0  0  0  0  0  0  0  0  0  0
  151.8224  140.0973  154.5783 C   0  0  0  0  0  0  0  0  0  0  0  0
  153.0192  139.4390  154.4071 C   0  0  0  0  0  0  0  0  0  0  0  0
  152.7819  138.1490  153.9381 N   0  0  0  0  0  0  0  0  0  0  0  0
  151.4598  138.0836  153.8470 C   0  0  0  0  0  0  0  0  0  0  0  0
  149.3589  141.2153  155.9043 N   0  0  0  0  0  0  0  0  0  0  0  0
  150.3259  142.0497  156.3166 C   0  0  0  0  0  0  0  0  0  0  0  0
  151.0637  142.6647  155.5469 O   0  0  0  0  0  0  0  0  0  0  0  0
  150.4842  142.2158  157.8317 C   0  0  0  0  0  0  0  0  0  0  0  0
  151.6225  143.1803  158.2308 C   0  0  1  0  0  0  0  0  0  0  0  0
  151.2482  144.6385  158.1159 C   0  0  0  0  0  0  0  0  0  0  0  0
  151.4605  145.3144  159.2426 C   0  0  0  0  0  0  0  0  0  0  0  0
  152.0178  144.4481  160.3376 C   0  0  0  0  0  0  0  0  0  0  0  0
  152.0517  143.0350  159.7135 C   0  0  0  0  0  0  0  0  0  0  0  0
  147.3088  141.0928  153.1767 H   0  0  0  0  0  0  0  0  0  0  0  0
  147.3318  142.2872  154.4597 H   0  0  0  0  0  0  0  0  0  0  0  0
  146.8900  140.6212  154.8220 H   0  0  0  0  0  0  0  0  0  0  0  0
  149.6538  141.5439  153.8698 H   0  0  0  0  0  0  0  0  0  0  0  0
  148.9485  138.7906  154.9706 H   0  0  0  0  0  0  0  0  0  0  0  0
  148.9813  139.1388  153.2560 H   0  0  0  0  0  0  0  0  0  0  0  0
  151.6047  141.0980  154.9220 H   0  0  0  0  0  0  0  0  0  0  0  0
  154.0246  139.7910  154.5856 H   0  0  0  0  0  0  0  0  0  0  0  0
  150.9423  137.1986  153.5068 H   0  0  0  0  0  0  0  0  0  0  0  0
  148.8027  140.7543  156.6098 H   0  0  0  0  0  0  0  0  0  0  0  0
  149.5426  142.5607  158.2623 H   0  0  0  0  0  0  0  0  0  0  0  0
  150.6742  141.2306  158.2588 H   0  0  0  0  0  0  0  0  0  0  0  0
  152.4888  143.0141  157.5885 H   0  0  0  0  0  0  0  0  0  0  0  0
  150.8665  145.0672  157.2005 H   0  0  0  0  0  0  0  0  0  0  0  0
  151.2749  146.3691  159.3809 H   0  0  0  0  0  0  0  0  0  0  0  0
  153.0155  144.7917  160.6118 H   0  0  0  0  0  0  0  0  0  0  0  0
  151.3791  144.4870  161.2205 H   0  0  0  0  0  0  0  0  0  0  0  0
  151.3700  142.3781  160.2556 H   0  0  0  0  0  0  0  0  0  0  0  0
  153.0458  142.5939  159.7926 H   0  0  0  0  0  0  0  0  0  0  0  0
  1  2  1  0  0  0  0
  1 18  1  0  0  0  0
  1 19  1  0  0  0  0
  1 20  1  0  0  0  0
  2  3  1  0  0  0  0
  2  9  1  0  0  0  0
  2 21  1  0  0  0  0
  3  4  1  0  0  0  0
  3 22  1  0  0  0  0
  3 23  1  0  0  0  0
  4  8  1  0  0  0  0
  4  5  1  0  0  0  0
  5  6  2  0  0  0  0
  5 24  1  0  0  0  0
  6  7  1  0  0  0  0
  6 25  1  0  0  0  0
  7  8  2  0  0  0  0
  8 26  1  0  0  0  0
  9 10  1  0  0  0  0
  9 27  1  0  0  0  0
 10 11  2  0  0  0  0
 10 12  1  0  0  0  0
 12 13  1  0  0  0  0
 12 28  1  0  0  0  0
 12 29  1  0  0  0  0
 13 17  1  0  0  0  0
 13 14  1  0  0  0  0
 13 30  1  0  0  0  0
 14 15  2  0  0  0  0
 14 31  1  0  0  0  0
 15 16  1  0  0  0  0
 15 32  1  0  0  0  0
 16 17  1  0  0  0  0
 16 33  1  0  0  0  0
 16 34  1  0  0  0  0
 17 35  1  0  0  0  0
 17 36  1  0  0  0  0
M  END
> <s_m_source_file>
AV-unprocessed.smi

> <i_m_source_file_index>
1920

> <i_lp_mmshare_version>
43012

> <i_f3d_flags>
0

> <s_epik_input>
W2NIXTFuW2NIXVtjSF1uMVtDSDJdW0NAQEhdKFtDSDNdKVtOSF1DKD1PKVtDSDJdW0NAQEhdMltDSF09W0NIXVtDSDJdW0NIMl0y

> <s_epik_cmdline>
J2VwaWtfcHl0aG9uJywgJy1waCcsICc3LjAnLCAnLXRuJywgJzgnLCAnLW1hJywgJzIwMCcsICctbWV0YWxfYmluZGluZycsICctaW1hZScsICc8aW5maWxlLm1hZT4nLCAnLW9tYWUnLCAnPG91dGZpbGUubWFlPic=

> <r_lp_tautomer_probability>
1

> <r_epik_Ionization_Penalty>
0.635367

> <r_epik_Ionization_Penalty_Charging>
0.635367

> <r_epik_Ionization_Penalty_Neutral>
2.1249e-08

> <r_epik_State_Penalty>
0.65258

> <r_epik_Charging_Adjusted_Penalty>
1.28795

> <i_epik_Tot_Q>
0

> <i_epik_Tot_abs_Q>
0

> <r_epik_Metal_State_Penalty>
0.310403

> <b_epik_Metal_Only>
0

> <s_lp_Force_Field>
OPLS_2005

> <r_lp_Energy>
18.7511

> <b_lp_Chiralities_Consistent>
1

> <s_lp_Variant>
AV-unprocessed.smi:1920-7

> <Gold.Version>
5.8.1

> <Gold.Id.Protein>
6NUR|6NUR_protein|mol2

> <Gold.PLP.Fitness>
44.4027

> <Gold.PLP.PLP>
-39.2340

> <Gold.PLP.part.hbond>
-2.0000

> <Gold.PLP.part.metal>
0.0000

> <Gold.PLP.part.buried>
3.4990

> <Gold.PLP.part.nonpolar>
-41.5915

> <Gold.PLP.part.repulsive>
0.3120

> <Gold.PLP.ligand.clash>
0.0000

> <Gold.PLP.ligand.torsion>
0.3094

> <Gold.PLP.Chemscore.Hbond>
0.8960

> <Gold.PLP.Chemscore.CHOScore>
1.0000

> <Gold.PLP.Chemscore.Metal>
0.0000

> <Gold.Chemscore.Hbonds>
donor molecule, donor type, donor heavy atom, donor atom, acceptor molecule, acceptor atom, score
      L1  C     8    26       P1  7948  0.13
      L1  C     8    26       P1  7949  1.00

> <Gold.PLP.Chemscore.Internal.Correction>
0.0995

> <Gold.Rescore>
     Score         DG    S(hbond)    S(metal)    S(lipo)     H(rot)  DE(clash)    DE(int)     intcor
     12.97     -15.29       0.91        0.00     100.21       1.93       1.75       0.57       ----

> <Gold.Chemscore.Fitness>
12.9728

> <Gold.Chemscore.DG>
-15.2863

> <Gold.Chemscore.ZeroCoef>
-5.4800

> <Gold.Chemscore.Hbond>
0.9053

> <Gold.Chemscore.Metal>
0.0000

> <Gold.Chemscore.Lipo>
100.2143

> <Gold.Chemscore.Internal_Hbond>
0.0000

> <Gold.Chemscore.DEClash>
1.7479

> <Gold.Chemscore.DEInternal>
0.5657

> <Gold.Chemscore.Rot>
1.9306

> <Gold.Chemscore.Internal.Correction>
   9.000000E+99

> <Gold.Chemscore.Hbond.Weighted>
-3.0237

> <Gold.Chemscore.Metal.Weighted>
-0.0000

> <Gold.Chemscore.Lipo.Weighted>
-11.7251

> <Gold.Chemscore.Internal_Hbond.Weighted>
0.0000

> <Gold.Chemscore.DEClash.Weighted>
1.7479

> <Gold.Chemscore.DEInternal.Weighted>
0.5657

> <Gold.Chemscore.Rot.Weighted>
4.9424

> <Gold.Chemscore.Internal.Correction.Weighted>
   9.000000E+99

> <Gold.Protein.RotatedTorsions>
[ 6907 6896 6895 6894 ] final   53.60 input  -60.11 | X-H torsion
[ 7974 7965 7964 7962 ] final  -71.97 input  175.53 | X-H torsion
[ 8008 7997 7996 7995 ] final   91.13 input   59.86 | X-H torsion
[ 10167 10162 10161 10158 ] final   97.67 input  -65.29 | X-H torsion
[ 10718 10713 10712 10709 ] final   56.00 input   66.30 | X-H torsion
[ 10763 10752 10751 10750 ] final  157.32 input  -60.55 | X-H torsion
[ 11005 11000 10999 10996 ] final    2.87 input  -57.11 | X-H torsion

> <Gold.Protein.ActiveResidues>
 VAL166  LYS551  ARG553  GLY616  TRP617  ASP618  TYR619  PRO620  LYS621  CYS622 
 ASP623  PHE694  ASN695  SER759  ASP760  ASP761  ALA762  ILE779  LEU786  VAL792 
 PHE793  MET794  SER795  GLU796  ALA797  LYS798  CYS799  TRP800  GLU811  SER814 

> <Gold.Protein.RotatedAtoms>
  152.3353  134.7206  160.0278 H   0  0  0  0  0  0  0  0  0  0  0  0  # atno 6907 bound_to 6896
  151.7609  133.3328  159.3425 H   0  0  0  0  0  0  0  0  0  0  0  0  # atno 6908 bound_to 6896
  150.7447  134.6039  159.6095 H   0  0  0  0  0  0  0  0  0  0  0  0  # atno 6909 bound_to 6896
  145.6712  140.9220  143.0882 H   0  0  0  0  0  0  0  0  0  0  0  0  # atno 7974 bound_to 7965
  156.0201  140.3341  155.7030 H   0  0  0  0  0  0  0  0  0  0  0  0  # atno 8008 bound_to 7997
  155.6034  140.0658  157.2744 H   0  0  0  0  0  0  0  0  0  0  0  0  # atno 8009 bound_to 7997
  154.4313  140.1806  156.1185 H   0  0  0  0  0  0  0  0  0  0  0  0  # atno 8010 bound_to 7997
  139.7779  144.6899  151.0063 H   0  0  0  0  0  0  0  0  0  0  0  0  # atno 10167 bound_to 10162
  157.5393  130.8686  149.8799 H   0  0  0  0  0  0  0  0  0  0  0  0  # atno 10718 bound_to 10713
  154.1983  135.2791  155.2999 H   0  0  0  0  0  0  0  0  0  0  0  0  # atno 10763 bound_to 10752
  154.5874  135.5570  153.7248 H   0  0  0  0  0  0  0  0  0  0  0  0  # atno 10764 bound_to 10752
  153.0094  135.6360  154.2121 H   0  0  0  0  0  0  0  0  0  0  0  0  # atno 10765 bound_to 10752
  140.5995  133.9849  155.8125 H   0  0  0  0  0  0  0  0  0  0  0  0  # atno 11005 bound_to 11000
  144.7056  139.8574  143.7431 LP  0  0  0  0  0  0  0  0  0  0  0  0  # atno 17320 bound_to 7965
  146.1044  139.4042  143.0327 LP  0  0  0  0  0  0  0  0  0  0  0  0  # atno 17321 bound_to 7965
  140.7817  143.4515  151.0406 LP  0  0  0  0  0  0  0  0  0  0  0  0  # atno 17342 bound_to 10162
  139.8197  143.7837  152.3176 LP  0  0  0  0  0  0  0  0  0  0  0  0  # atno 17343 bound_to 10162
  156.0484  130.3723  150.1261 LP  0  0  0  0  0  0  0  0  0  0  0  0  # atno 17370 bound_to 10713
  156.9442  130.9754  151.3510 LP  0  0  0  0  0  0  0  0  0  0  0  0  # atno 17371 bound_to 10713
  141.0881  133.9958  157.3280 LP  0  0  0  0  0  0  0  0  0  0  0  0  # atno 17394 bound_to 11000
  139.9238  135.0201  156.8162 LP  0  0  0  0  0  0  0  0  0  0  0  0  # atno 17395 bound_to 11000

$$$$
