AV-unprocessed.smi:1175|AV-procd|sdf|4951|dock2
  -GOLD-   22720 3543D 1   1.00000     0.00000
 Structure written by MMmdl.
 36 37  0  0  0  0  0  0  0  0  1 V2000
  148.9507  133.5663  155.9675 O   0  0  0  0  0  0  0  0  0  0  0  0
  149.2081  134.0863  154.8808 C   0  0  0  0  0  0  0  0  0  0  0  0
  149.5437  133.2241  153.6553 C   0  0  0  0  0  0  0  0  0  0  0  0
  148.4152  132.3960  153.1973 N   0  0  0  0  0  0  0  0  0  0  0  0
  147.4031  133.0415  152.4597 C   0  0  0  0  0  0  0  0  0  0  0  0
  146.3153  132.4002  151.9908 C   0  0  0  0  0  0  0  0  0  0  0  0
  145.2690  133.1109  151.1463 C   0  0  0  0  0  0  0  0  0  0  0  0
  145.1622  132.5494  149.9420 F   0  0  0  0  0  0  0  0  0  0  0  0
  144.0804  133.0394  151.7437 F   0  0  0  0  0  0  0  0  0  0  0  0
  145.5744  134.3987  150.9826 F   0  0  0  0  0  0  0  0  0  0  0  0
  146.2421  130.9767  152.2550 C   0  0  0  0  0  0  0  0  0  0  0  0
  147.2071  130.3417  152.9484 C   0  0  0  0  0  0  0  0  0  0  0  0
  148.3745  131.0570  153.4686 C   0  0  0  0  0  0  0  0  0  0  0  0
  149.2607  130.4882  154.1069 O   0  0  0  0  0  0  0  0  0  0  0  0
  149.2362  135.4139  154.6885 N   0  0  0  0  0  0  0  0  0  0  0  0
  148.9558  136.4239  155.7041 C   0  0  0  0  0  0  0  0  0  0  0  0
  149.9193  137.6216  155.6061 C   0  0  1  0  0  0  0  0  0  0  0  0
  151.3514  137.2305  155.3033 C   0  0  0  0  0  0  0  0  0  0  0  0
  151.9477  138.5466  154.8103 C   0  0  0  0  0  0  0  0  0  0  0  0
  150.8690  139.2750  154.2294 O   0  0  0  0  0  0  0  0  0  0  0  0
  149.6408  138.5919  154.4572 C   0  0  0  0  0  0  0  0  0  0  0  0
  149.8894  133.8673  152.8439 H   0  0  0  0  0  0  0  0  0  0  0  0
  150.4009  132.5973  153.9056 H   0  0  0  0  0  0  0  0  0  0  0  0
  147.5737  134.0947  152.2899 H   0  0  0  0  0  0  0  0  0  0  0  0
  145.3974  130.4091  151.8934 H   0  0  0  0  0  0  0  0  0  0  0  0
  147.1190  129.2800  153.1269 H   0  0  0  0  0  0  0  0  0  0  0  0
  149.4625  135.7517  153.7642 H   0  0  0  0  0  0  0  0  0  0  0  0
  147.9330  136.7685  155.5509 H   0  0  0  0  0  0  0  0  0  0  0  0
  148.9816  135.9878  156.7043 H   0  0  0  0  0  0  0  0  0  0  0  0
  149.9051  138.1767  156.5459 H   0  0  0  0  0  0  0  0  0  0  0  0
  151.8778  136.8240  156.1675 H   0  0  0  0  0  0  0  0  0  0  0  0
  151.3817  136.4872  154.5054 H   0  0  0  0  0  0  0  0  0  0  0  0
  152.3434  139.1236  155.6468 H   0  0  0  0  0  0  0  0  0  0  0  0
  152.7551  138.3922  154.0939 H   0  0  0  0  0  0  0  0  0  0  0  0
  149.3758  138.0494  153.5486 H   0  0  0  0  0  0  0  0  0  0  0  0
  148.8340  139.2899  154.6817 H   0  0  0  0  0  0  0  0  0  0  0  0
  1  2  2  0  0  0  0
  2  3  1  0  0  0  0
  2 15  1  0  0  0  0
  3  4  1  0  0  0  0
  3 22  1  0  0  0  0
  3 23  1  0  0  0  0
  4 13  1  0  0  0  0
  4  5  1  0  0  0  0
  5  6  2  0  0  0  0
  5 24  1  0  0  0  0
  6  7  1  0  0  0  0
  6 11  1  0  0  0  0
  7  8  1  0  0  0  0
  7  9  1  0  0  0  0
  7 10  1  0  0  0  0
 11 12  2  0  0  0  0
 11 25  1  0  0  0  0
 12 13  1  0  0  0  0
 12 26  1  0  0  0  0
 13 14  2  0  0  0  0
 15 16  1  0  0  0  0
 15 27  1  0  0  0  0
 16 17  1  0  0  0  0
 16 28  1  0  0  0  0
 16 29  1  0  0  0  0
 17 21  1  0  0  0  0
 17 18  1  0  0  0  0
 17 30  1  0  0  0  0
 18 19  1  0  0  0  0
 18 31  1  0  0  0  0
 18 32  1  0  0  0  0
 19 20  1  0  0  0  0
 19 33  1  0  0  0  0
 19 34  1  0  0  0  0
 20 21  1  0  0  0  0
 21 35  1  0  0  0  0
 21 36  1  0  0  0  0
M  END
> <s_m_source_file>
AV-unprocessed.smi

> <i_m_source_file_index>
1175

> <i_lp_mmshare_version>
43012

> <i_f3d_flags>
0

> <s_epik_input>
W0NIMl0xT1tDSDJdW0NIMl1bQ0BIXTFbQ0gyXVtOSF1DKD1PKVtDSDJdbjJbY0hdYyhDKEYpKEYpRilbY0hdW2NIXWMyPU8=

> <s_epik_cmdline>
J2VwaWtfcHl0aG9uJywgJy1waCcsICc3LjAnLCAnLXRuJywgJzgnLCAnLW1hJywgJzIwMCcsICctbWV0YWxfYmluZGluZycsICctaW1hZScsICc8aW5maWxlLm1hZT4nLCAnLW9tYWUnLCAnPG91dGZpbGUubWFlPic=

> <r_lp_tautomer_probability>
1

> <r_epik_Ionization_Penalty>
3.67963e-08

> <r_epik_Ionization_Penalty_Charging>
1.809e-08

> <r_epik_Ionization_Penalty_Neutral>
1.87063e-08

> <r_epik_State_Penalty>
-0

> <r_epik_Charging_Adjusted_Penalty>
1.809e-08

> <i_epik_Tot_Q>
0

> <i_epik_Tot_abs_Q>
0

> <r_epik_Metal_State_Penalty>
-0

> <b_epik_Metal_Only>
0

> <s_lp_Force_Field>
OPLS_2005

> <r_lp_Energy>
29.657

> <b_lp_Chiralities_Consistent>
1

> <s_lp_Variant>
AV-unprocessed.smi:1175-2

> <Gold.Version>
5.8.1

> <Gold.Id.Protein>
6NUR|6NUR_protein|mol2

> <Gold.PLP.Fitness>
45.4925

> <Gold.PLP.PLP>
-38.8331

> <Gold.PLP.part.hbond>
-2.0000

> <Gold.PLP.part.metal>
0.0000

> <Gold.PLP.part.buried>
-4.9139

> <Gold.PLP.part.nonpolar>
-31.8908

> <Gold.PLP.part.repulsive>
0.2782

> <Gold.PLP.ligand.clash>
1.2878

> <Gold.PLP.ligand.torsion>
0.5606

> <Gold.PLP.Chemscore.Hbond>
2.0000

> <Gold.PLP.Chemscore.CHOScore>
1.0000

> <Gold.PLP.Chemscore.Metal>
0.0000

> <Gold.Chemscore.Hbonds>
donor molecule, donor type, donor heavy atom, donor atom, acceptor molecule, acceptor atom, score
      L1  H    15    27       P1  7948  1.00
      P1  H  7989  7998       L1    20  1.00
      L1  C     5    24       P1  7948  1.00

> <Gold.PLP.Chemscore.Internal.Correction>
0.0684

> <Gold.Rescore>
     Score         DG    S(hbond)    S(metal)    S(lipo)     H(rot)  DE(clash)    DE(int)     intcor
     13.14     -13.57       1.66        0.00      62.70       1.87       0.00       0.43       ----

> <Gold.Chemscore.Fitness>
13.1350

> <Gold.Chemscore.DG>
-13.5676

> <Gold.Chemscore.ZeroCoef>
-5.4800

> <Gold.Chemscore.Hbond>
1.6570

> <Gold.Chemscore.Metal>
0.0000

> <Gold.Chemscore.Lipo>
62.6967

> <Gold.Chemscore.Internal_Hbond>
0.0000

> <Gold.Chemscore.DEClash>
0.0004

> <Gold.Chemscore.DEInternal>
0.4321

> <Gold.Chemscore.Rot>
1.8681

> <Gold.Chemscore.Internal.Correction>
   9.000000E+99

> <Gold.Chemscore.Hbonds>
donor molecule, donor type, donor heavy atom, donor atom, acceptor molecule, acceptor atom, score
      L1  H    15    27       P1  7948  0.42
      P1  H  7989  7998       L1    20  0.55

> <Gold.Chemscore.Hbond.Weighted>
-5.5343

> <Gold.Chemscore.Metal.Weighted>
-0.0000

> <Gold.Chemscore.Lipo.Weighted>
-7.3355

> <Gold.Chemscore.Internal_Hbond.Weighted>
0.0000

> <Gold.Chemscore.DEClash.Weighted>
0.0004

> <Gold.Chemscore.DEInternal.Weighted>
0.4321

> <Gold.Chemscore.Rot.Weighted>
4.7822

> <Gold.Chemscore.Internal.Correction.Weighted>
   9.000000E+99

> <Gold.Protein.RotatedTorsions>
[ 6907 6896 6895 6894 ] final -177.12 input  -60.11 | X-H torsion
[ 7974 7965 7964 7962 ] final   72.82 input  175.53 | X-H torsion
[ 8008 7997 7996 7995 ] final   49.07 input   59.86 | X-H torsion
[ 10167 10162 10161 10158 ] final  155.39 input  -65.29 | X-H torsion
[ 10718 10713 10712 10709 ] final  123.39 input   66.30 | X-H torsion
[ 10763 10752 10751 10750 ] final -118.34 input  -60.55 | X-H torsion
[ 11005 11000 10999 10996 ] final   34.43 input  -57.11 | X-H torsion

> <Gold.Protein.ActiveResidues>
 VAL166  LYS551  ARG553  GLY616  TRP617  ASP618  TYR619  PRO620  LYS621  CYS622 
 ASP623  PHE694  ASN695  SER759  ASP760  ASP761  ALA762  ILE779  LEU786  VAL792 
 PHE793  MET794  SER795  GLU796  ALA797  LYS798  CYS799  TRP800  GLU811  SER814 

> <Gold.Protein.RotatedAtoms>
  151.6159  133.3343  159.3077 H   0  0  0  0  0  0  0  0  0  0  0  0  # atno 6907 bound_to 6896
  150.8132  134.7302  159.6718 H   0  0  0  0  0  0  0  0  0  0  0  0  # atno 6908 bound_to 6896
  152.4228  134.5929  160.0030 H   0  0  0  0  0  0  0  0  0  0  0  0  # atno 6909 bound_to 6896
  145.7486  139.2750  143.1444 H   0  0  0  0  0  0  0  0  0  0  0  0  # atno 7974 bound_to 7965
  155.3961  140.3435  155.4254 H   0  0  0  0  0  0  0  0  0  0  0  0  # atno 8008 bound_to 7997
  156.1530  140.1577  156.8771 H   0  0  0  0  0  0  0  0  0  0  0  0  # atno 8009 bound_to 7997
  154.5069  140.0800  156.7894 H   0  0  0  0  0  0  0  0  0  0  0  0  # atno 8010 bound_to 7997
  139.4821  144.5102  151.8035 H   0  0  0  0  0  0  0  0  0  0  0  0  # atno 10167 bound_to 10162
  157.5668  131.1086  150.8440 H   0  0  0  0  0  0  0  0  0  0  0  0  # atno 10718 bound_to 10713
  154.8584  135.4277  154.2124 H   0  0  0  0  0  0  0  0  0  0  0  0  # atno 10763 bound_to 10752
  153.3147  135.6978  153.7090 H   0  0  0  0  0  0  0  0  0  0  0  0  # atno 10764 bound_to 10752
  153.6169  135.3509  155.2971 H   0  0  0  0  0  0  0  0  0  0  0  0  # atno 10765 bound_to 10752
  140.2529  134.3282  155.7884 H   0  0  0  0  0  0  0  0  0  0  0  0  # atno 11005 bound_to 11000
  146.0378  140.8195  142.9843 LP  0  0  0  0  0  0  0  0  0  0  0  0  # atno 17320 bound_to 7965
  144.6854  140.2865  143.7284 LP  0  0  0  0  0  0  0  0  0  0  0  0  # atno 17321 bound_to 7965
  140.4605  144.1729  150.5906 LP  0  0  0  0  0  0  0  0  0  0  0  0  # atno 17342 bound_to 10162
  140.4490  143.2495  151.9373 LP  0  0  0  0  0  0  0  0  0  0  0  0  # atno 17343 bound_to 10162
  156.8922  130.5217  149.5286 LP  0  0  0  0  0  0  0  0  0  0  0  0  # atno 17370 bound_to 10713
  156.0716  130.5747  150.9394 LP  0  0  0  0  0  0  0  0  0  0  0  0  # atno 17371 bound_to 10713
  141.2199  133.7364  156.9066 LP  0  0  0  0  0  0  0  0  0  0  0  0  # atno 17394 bound_to 11000
  140.1540  134.9211  157.2629 LP  0  0  0  0  0  0  0  0  0  0  0  0  # atno 17395 bound_to 11000

$$$$
