AV-unprocessed.smi:1414|AV-procd|sdf|5761|dock8
  -GOLD-   22720 5403D 1   1.00000     0.00000
 Structure written by MMmdl.
 45 46  0  0  0  0  0  0  0  0  1 V2000
  152.9858  138.7974  154.5207 C   0  0  0  0  0  0  0  0  0  0  0  0
  151.9450  139.1151  155.5997 C   0  0  2  0  0  0  0  0  0  0  0  0
  150.6917  139.7941  155.0123 C   0  0  0  0  0  0  0  0  0  0  0  0
  149.7733  140.2322  156.0770 N   0  0  0  0  0  0  0  0  0  0  0  0
  148.3319  139.3184  156.4096 S   0  0  0  0  0  0  0  0  0  0  0  0
  148.5043  138.6625  157.7150 O   0  0  0  0  0  0  0  0  0  0  0  0
  147.1757  140.2014  156.1917 O   0  0  0  0  0  0  0  0  0  0  0  0
  148.3146  138.0132  155.1094 C   0  0  0  0  0  0  0  0  0  0  0  0
  147.0590  138.1336  154.2332 C   0  0  0  0  0  0  0  0  0  0  0  0
  147.0126  137.0916  153.2133 N   0  0  0  0  0  0  0  0  0  0  0  0
  146.0012  136.2291  153.0396 C   0  0  0  0  0  0  0  0  0  0  0  0
  144.9859  136.2277  153.7352 O   0  0  0  0  0  0  0  0  0  0  0  0
  146.2567  135.3780  152.0310 N   0  0  0  0  0  0  0  0  0  0  0  0
  145.4413  134.3289  151.5253 C   0  0  0  0  0  0  0  0  0  0  0  0
  145.8691  133.3721  150.5729 C   0  0  0  0  0  0  0  0  0  0  0  0
  144.9681  132.3700  150.1640 C   0  0  0  0  0  0  0  0  0  0  0  0
  143.6766  132.3562  150.7254 C   0  0  0  0  0  0  0  0  0  0  0  0
  143.2597  133.2529  151.6437 N   0  0  0  0  0  0  0  0  0  0  0  0
  144.1294  134.2102  152.0316 C   0  0  0  0  0  0  0  0  0  0  0  0
  150.4316  140.9825  157.1594 C   0  0  0  0  0  0  0  0  0  0  0  0
  151.6926  140.2494  157.6577 C   0  0  2  0  0  0  0  0  0  0  0  0
  152.4776  141.0832  158.6760 C   0  0  0  0  0  0  0  0  0  0  0  0
  152.5484  139.9772  156.5556 O   0  0  0  0  0  0  0  0  0  0  0  0
  152.5758  138.1262  153.7659 H   0  0  0  0  0  0  0  0  0  0  0  0
  153.8609  138.3135  154.9548 H   0  0  0  0  0  0  0  0  0  0  0  0
  153.3221  139.7039  154.0165 H   0  0  0  0  0  0  0  0  0  0  0  0
  151.6712  138.1804  156.0886 H   0  0  0  0  0  0  0  0  0  0  0  0
  150.9864  140.6725  154.4369 H   0  0  0  0  0  0  0  0  0  0  0  0
  150.1812  139.1258  154.3192 H   0  0  0  0  0  0  0  0  0  0  0  0
  149.2124  138.1247  154.5035 H   0  0  0  0  0  0  0  0  0  0  0  0
  148.3488  137.0406  155.5979 H   0  0  0  0  0  0  0  0  0  0  0  0
  146.1662  138.0415  154.8518 H   0  0  0  0  0  0  0  0  0  0  0  0
  147.0118  139.1182  153.7648 H   0  0  0  0  0  0  0  0  0  0  0  0
  147.8128  137.0173  152.6021 H   0  0  0  0  0  0  0  0  0  0  0  0
  147.1683  135.4582  151.6050 H   0  0  0  0  0  0  0  0  0  0  0  0
  146.8653  133.3752  150.1597 H   0  0  0  0  0  0  0  0  0  0  0  0
  145.2625  131.6262  149.4385 H   0  0  0  0  0  0  0  0  0  0  0  0
  142.9619  131.6012  150.4333 H   0  0  0  0  0  0  0  0  0  0  0  0
  143.7624  134.9083  152.7699 H   0  0  0  0  0  0  0  0  0  0  0  0
  150.7064  141.9647  156.7731 H   0  0  0  0  0  0  0  0  0  0  0  0
  149.7367  141.1548  157.9810 H   0  0  0  0  0  0  0  0  0  0  0  0
  151.4161  139.3081  158.1331 H   0  0  0  0  0  0  0  0  0  0  0  0
  151.8668  141.3136  159.5492 H   0  0  0  0  0  0  0  0  0  0  0  0
  152.8113  142.0262  158.2419 H   0  0  0  0  0  0  0  0  0  0  0  0
  153.3606  140.5450  159.0210 H   0  0  0  0  0  0  0  0  0  0  0  0
  1  2  1  0  0  0  0
  1 24  1  0  0  0  0
  1 25  1  0  0  0  0
  1 26  1  0  0  0  0
  2 23  1  0  0  0  0
  2  3  1  0  0  0  0
  2 27  1  0  0  0  0
  3  4  1  0  0  0  0
  3 28  1  0  0  0  0
  3 29  1  0  0  0  0
  4  5  1  0  0  0  0
  4 20  1  0  0  0  0
  5  6  2  0  0  0  0
  5  7  2  0  0  0  0
  5  8  1  0  0  0  0
  8  9  1  0  0  0  0
  8 30  1  0  0  0  0
  8 31  1  0  0  0  0
  9 10  1  0  0  0  0
  9 32  1  0  0  0  0
  9 33  1  0  0  0  0
 10 11  1  0  0  0  0
 10 34  1  0  0  0  0
 11 12  2  0  0  0  0
 11 13  1  0  0  0  0
 13 14  1  0  0  0  0
 13 35  1  0  0  0  0
 14 19  1  0  0  0  0
 14 15  2  0  0  0  0
 15 16  1  0  0  0  0
 15 36  1  0  0  0  0
 16 17  2  0  0  0  0
 16 37  1  0  0  0  0
 17 18  1  0  0  0  0
 17 38  1  0  0  0  0
 18 19  2  0  0  0  0
 19 39  1  0  0  0  0
 20 21  1  0  0  0  0
 20 40  1  0  0  0  0
 20 41  1  0  0  0  0
 21 22  1  0  0  0  0
 21 23  1  0  0  0  0
 21 42  1  0  0  0  0
 22 43  1  0  0  0  0
 22 44  1  0  0  0  0
 22 45  1  0  0  0  0
M  END
> <s_m_source_file>
AV-unprocessed.smi

> <i_m_source_file_index>
1414

> <i_lp_mmshare_version>
43012

> <i_f3d_flags>
0

> <s_epik_input>
W0NIM11bQ0BASF0xW0NIMl1OKFtDSDJdW0NASF0oTzEpW0NIM10pUyg9TykoPU8pW0NIMl1bQ0gyXVtOSF1DKD1PKVtOSF1jMltjSF1bY0hdW2NIXW5bY0hdMg==

> <s_epik_cmdline>
J2VwaWtfcHl0aG9uJywgJy1waCcsICc3LjAnLCAnLXRuJywgJzgnLCAnLW1hJywgJzIwMCcsICctbWV0YWxfYmluZGluZycsICctaW1hZScsICc8aW5maWxlLm1hZT4nLCAnLW9tYWUnLCAnPG91dGZpbGUubWFlPic=

> <r_epik_Ionization_Penalty>
0.00437531

> <r_epik_Ionization_Penalty_Charging>
0

> <r_epik_Ionization_Penalty_Neutral>
0.00437531

> <r_epik_State_Penalty>
0.00312896

> <r_epik_Charging_Adjusted_Penalty>
0.00312896

> <i_epik_Tot_Q>
0

> <i_epik_Tot_abs_Q>
0

> <r_epik_Metal_State_Penalty>
-0

> <b_epik_Metal_Only>
0

> <s_lp_Force_Field>
OPLS_2005

> <r_lp_Energy>
4.57438

> <b_lp_Chiralities_Consistent>
1

> <s_lp_Variant>
AV-unprocessed.smi:1414-2

> <Gold.Version>
5.8.1

> <Gold.Id.Protein>
6NUR|6NUR_protein|mol2

> <Gold.PLP.Fitness>
44.9271

> <Gold.PLP.PLP>
-33.5546

> <Gold.PLP.part.hbond>
-3.0000

> <Gold.PLP.part.metal>
0.0000

> <Gold.PLP.part.buried>
-5.6821

> <Gold.PLP.part.nonpolar>
-25.6539

> <Gold.PLP.part.repulsive>
0.3734

> <Gold.PLP.ligand.clash>
0.0000

> <Gold.PLP.ligand.torsion>
1.2678

> <Gold.PLP.Chemscore.Hbond>
2.9280

> <Gold.PLP.Chemscore.CHOScore>
0.9976

> <Gold.PLP.Chemscore.Metal>
0.0000

> <Gold.Chemscore.Hbonds>
donor molecule, donor type, donor heavy atom, donor atom, acceptor molecule, acceptor atom, score
      L1  H    10    34       P1  7948  1.00
      L1  H    13    35       P1  7948  0.90
      P1  H  7997  8009       L1    23  0.96
      L1  C    17    38       P1 10952  0.76

> <Gold.PLP.Chemscore.Internal.Correction>
2.1313

> <Gold.Rescore>
     Score         DG    S(hbond)    S(metal)    S(lipo)     H(rot)  DE(clash)    DE(int)     intcor
     17.60     -20.28       2.86        0.00      79.21       1.57       0.00       2.68       ----

> <Gold.Chemscore.Fitness>
17.5989

> <Gold.Chemscore.DG>
-20.2750

> <Gold.Chemscore.ZeroCoef>
-5.4800

> <Gold.Chemscore.Hbond>
2.8574

> <Gold.Chemscore.Metal>
0.0000

> <Gold.Chemscore.Lipo>
79.2079

> <Gold.Chemscore.Internal_Hbond>
0.0000

> <Gold.Chemscore.DEClash>
0.0000

> <Gold.Chemscore.DEInternal>
2.6761

> <Gold.Chemscore.Rot>
1.5687

> <Gold.Chemscore.Internal.Correction>
   9.000000E+99

> <Gold.Chemscore.Hbonds>
donor molecule, donor type, donor heavy atom, donor atom, acceptor molecule, acceptor atom, score
      L1  H    10    34       P1  7948  0.95
      L1  H    13    35       P1  7948  0.86
      P1  H  7997  8009       L1    23  0.89

> <Gold.Chemscore.Hbond.Weighted>
-9.5437

> <Gold.Chemscore.Metal.Weighted>
-0.0000

> <Gold.Chemscore.Lipo.Weighted>
-9.2673

> <Gold.Chemscore.Internal_Hbond.Weighted>
0.0000

> <Gold.Chemscore.DEClash.Weighted>
0.0000

> <Gold.Chemscore.DEInternal.Weighted>
2.6761

> <Gold.Chemscore.Rot.Weighted>
4.0160

> <Gold.Chemscore.Internal.Correction.Weighted>
   9.000000E+99

> <Gold.Protein.RotatedTorsions>
[ 6907 6896 6895 6894 ] final  148.35 input  -60.11 | X-H torsion
[ 7974 7965 7964 7962 ] final -137.24 input  175.53 | X-H torsion
[ 8008 7997 7996 7995 ] final  173.81 input   59.86 | X-H torsion
[ 10167 10162 10161 10158 ] final  -52.47 input  -65.29 | X-H torsion
[ 10718 10713 10712 10709 ] final -141.39 input   66.30 | X-H torsion
[ 10763 10752 10751 10750 ] final   85.50 input  -60.55 | X-H torsion
[ 11005 11000 10999 10996 ] final  -73.69 input  -57.11 | X-H torsion

> <Gold.Protein.ActiveResidues>
 VAL166  LYS551  ARG553  GLY616  TRP617  ASP618  TYR619  PRO620  LYS621  CYS622 
 ASP623  PHE694  ASN695  SER759  ASP760  ASP761  ALA762  ILE779  LEU786  VAL792 
 PHE793  MET794  SER795  GLU796  ALA797  LYS798  CYS799  TRP800  GLU811  SER814 

> <Gold.Protein.RotatedAtoms>
  152.1427  133.4473  159.4774 H   0  0  0  0  0  0  0  0  0  0  0  0  # atno 6907 bound_to 6896
  150.6887  134.2286  159.4434 H   0  0  0  0  0  0  0  0  0  0  0  0  # atno 6908 bound_to 6896
  152.0177  134.9840  160.0620 H   0  0  0  0  0  0  0  0  0  0  0  0  # atno 6909 bound_to 6896
  144.8858  140.6573  143.5176 H   0  0  0  0  0  0  0  0  0  0  0  0  # atno 7974 bound_to 7965
  156.1038  140.1450  156.9432 H   0  0  0  0  0  0  0  0  0  0  0  0  # atno 8008 bound_to 7997
  154.4720  140.0907  156.7212 H   0  0  0  0  0  0  0  0  0  0  0  0  # atno 8009 bound_to 7997
  155.4715  140.3442  155.4328 H   0  0  0  0  0  0  0  0  0  0  0  0  # atno 8010 bound_to 7997
  140.6535  143.2582  151.4653 H   0  0  0  0  0  0  0  0  0  0  0  0  # atno 10167 bound_to 10162
  156.3334  130.7598  151.1721 H   0  0  0  0  0  0  0  0  0  0  0  0  # atno 10718 bound_to 10713
  153.1480  135.4615  154.9595 H   0  0  0  0  0  0  0  0  0  0  0  0  # atno 10763 bound_to 10752
  154.7802  135.3186  154.8008 H   0  0  0  0  0  0  0  0  0  0  0  0  # atno 10764 bound_to 10752
  153.8519  135.6920  153.4846 H   0  0  0  0  0  0  0  0  0  0  0  0  # atno 10765 bound_to 10752
  141.1626  133.6886  156.7250 H   0  0  0  0  0  0  0  0  0  0  0  0  # atno 11005 bound_to 11000
  145.3871  139.1624  143.4249 LP  0  0  0  0  0  0  0  0  0  0  0  0  # atno 17320 bound_to 7965
  146.3023  140.3957  142.8699 LP  0  0  0  0  0  0  0  0  0  0  0  0  # atno 17321 bound_to 7965
  139.5754  144.1831  152.1895 LP  0  0  0  0  0  0  0  0  0  0  0  0  # atno 17342 bound_to 10162
  140.1140  144.5432  150.6906 LP  0  0  0  0  0  0  0  0  0  0  0  0  # atno 17343 bound_to 10162
  157.7434  131.0475  150.4946 LP  0  0  0  0  0  0  0  0  0  0  0  0  # atno 17370 bound_to 10713
  156.5115  130.4140  149.6298 LP  0  0  0  0  0  0  0  0  0  0  0  0  # atno 17371 bound_to 10713
  140.2788  134.8333  157.3914 LP  0  0  0  0  0  0  0  0  0  0  0  0  # atno 17394 bound_to 11000
  140.1453  134.4920  155.8001 LP  0  0  0  0  0  0  0  0  0  0  0  0  # atno 17395 bound_to 11000

$$$$
