AV-unprocessed.smi:375|AV-procd|sdf|2453|dock1
  -GOLD-   2262022393D 1   1.00000     0.00000
 Structure written by MMmdl.
 36 38  0  0  0  0  0  0  0  0  1 V2000
  153.9465  141.4323  160.8304 C   0  0  0  0  0  0  0  0  0  0  0  0
  152.9772  141.8141  159.8108 N   0  0  0  0  0  0  0  0  0  0  0  0
  152.5642  141.0705  158.7578 C   0  0  0  0  0  0  0  0  0  0  0  0
  152.9474  139.9344  158.4794 O   0  0  0  0  0  0  0  0  0  0  0  0
  151.6701  141.8036  158.0514 N   0  0  0  0  0  0  0  0  0  0  0  0
  151.0037  141.4160  156.8075 C   0  0  0  0  0  0  0  0  0  0  0  0
  149.5341  140.9987  157.0310 C   0  0  2  0  0  0  0  0  0  0  0  0
  149.5253  139.7333  157.6602 O   0  0  0  0  0  0  0  0  0  0  0  0
  148.7109  141.0161  155.7471 C   0  0  0  0  0  0  0  0  0  0  0  0
  147.5748  141.8495  155.6444 C   0  0  0  0  0  0  0  0  0  0  0  0
  146.7980  141.8541  154.4699 C   0  0  0  0  0  0  0  0  0  0  0  0
  147.1487  141.0214  153.3908 C   0  0  0  0  0  0  0  0  0  0  0  0
  148.2764  140.1844  153.4874 C   0  0  0  0  0  0  0  0  0  0  0  0
  149.0564  140.1799  154.6602 C   0  0  0  0  0  0  0  0  0  0  0  0
  150.1312  139.3589  154.7385 F   0  0  0  0  0  0  0  0  0  0  0  0
  151.5131  143.0527  158.6688 C   0  0  0  0  0  0  0  0  0  0  0  0
  150.7189  144.1607  158.3264 C   0  0  0  0  0  0  0  0  0  0  0  0
  150.7961  145.2956  159.1676 C   0  0  0  0  0  0  0  0  0  0  0  0
  151.6431  145.3004  160.3064 C   0  0  0  0  0  0  0  0  0  0  0  0
  152.4316  144.1707  160.6282 C   0  0  0  0  0  0  0  0  0  0  0  0
  152.3362  143.0585  159.7745 C   0  0  0  0  0  0  0  0  0  0  0  0
  154.3747  140.4472  160.6414 H   0  0  0  0  0  0  0  0  0  0  0  0
  153.4713  141.4113  161.8114 H   0  0  0  0  0  0  0  0  0  0  0  0
  154.7639  142.1532  160.8619 H   0  0  0  0  0  0  0  0  0  0  0  0
  151.0509  142.2409  156.0945 H   0  0  0  0  0  0  0  0  0  0  0  0
  151.5612  140.5963  156.3524 H   0  0  0  0  0  0  0  0  0  0  0  0
  149.0800  141.6870  157.7440 H   0  0  0  0  0  0  0  0  0  0  0  0
  148.9113  139.7606  158.3780 H   0  0  0  0  0  0  0  0  0  0  0  0
  147.2906  142.4847  156.4706 H   0  0  0  0  0  0  0  0  0  0  0  0
  145.9312  142.4942  154.3988 H   0  0  0  0  0  0  0  0  0  0  0  0
  146.5517  141.0229  152.4909 H   0  0  0  0  0  0  0  0  0  0  0  0
  148.5427  139.5417  152.6613 H   0  0  0  0  0  0  0  0  0  0  0  0
  150.0773  144.1508  157.4578 H   0  0  0  0  0  0  0  0  0  0  0  0
  150.2035  146.1691  158.9395 H   0  0  0  0  0  0  0  0  0  0  0  0
  151.6869  146.1775  160.9350 H   0  0  0  0  0  0  0  0  0  0  0  0
  153.0796  144.1664  161.4922 H   0  0  0  0  0  0  0  0  0  0  0  0
  1  2  1  0  0  0  0
  1 22  1  0  0  0  0
  1 23  1  0  0  0  0
  1 24  1  0  0  0  0
  2 21  1  0  0  0  0
  2  3  1  0  0  0  0
  3  4  2  0  0  0  0
  3  5  1  0  0  0  0
  5  6  1  0  0  0  0
  5 16  1  0  0  0  0
  6  7  1  0  0  0  0
  6 25  1  0  0  0  0
  6 26  1  0  0  0  0
  7  8  1  0  0  0  0
  7  9  1  0  0  0  0
  7 27  1  0  0  0  0
  8 28  1  0  0  0  0
  9 14  1  0  0  0  0
  9 10  2  0  0  0  0
 10 11  1  0  0  0  0
 10 29  1  0  0  0  0
 11 12  2  0  0  0  0
 11 30  1  0  0  0  0
 12 13  1  0  0  0  0
 12 31  1  0  0  0  0
 13 14  2  0  0  0  0
 13 32  1  0  0  0  0
 14 15  1  0  0  0  0
 16 21  2  0  0  0  0
 16 17  1  0  0  0  0
 17 18  2  0  0  0  0
 17 33  1  0  0  0  0
 18 19  1  0  0  0  0
 18 34  1  0  0  0  0
 19 20  2  0  0  0  0
 19 35  1  0  0  0  0
 20 21  1  0  0  0  0
 20 36  1  0  0  0  0
M  END
> <s_m_source_file>
AV-unprocessed.smi

> <i_m_source_file_index>
375

> <i_lp_mmshare_version>
43012

> <i_f3d_flags>
0

> <s_epik_input>
W2NIXTFbY0hdW2NIXVtjSF1jKGMxMiluKFtDSDNdKWMoPU8pbjJbQ0gyXVtDQEhdKFtPSF0pYzNbY0hdW2NIXVtjSF1bY0hdYzNG

> <s_epik_cmdline>
J2VwaWtfcHl0aG9uJywgJy1waCcsICc3LjAnLCAnLXRuJywgJzgnLCAnLW1hJywgJzIwMCcsICctbWV0YWxfYmluZGluZycsICctaW1hZScsICc8aW5maWxlLm1hZT4nLCAnLW9tYWUnLCAnPG91dGZpbGUubWFlPic=

> <r_lp_tautomer_probability>
1

> <r_epik_Ionization_Penalty>
1.34619e-06

> <r_epik_Ionization_Penalty_Charging>
2.57375e-09

> <r_epik_Ionization_Penalty_Neutral>
1.34362e-06

> <r_epik_State_Penalty>
-0

> <r_epik_Charging_Adjusted_Penalty>
2.57375e-09

> <i_epik_Tot_Q>
0

> <i_epik_Tot_abs_Q>
0

> <r_epik_Metal_State_Penalty>
-0

> <b_epik_Metal_Only>
0

> <s_lp_Force_Field>
OPLS_2005

> <r_lp_Energy>
41.1048

> <b_lp_Chiralities_Consistent>
1

> <s_lp_Variant>
AV-unprocessed.smi:375-1

> <Gold.Version>
5.8.1

> <Gold.Id.Protein>
6NUR|6NUR_protein|mol2

> <Gold.PLP.Fitness>
49.4017

> <Gold.PLP.PLP>
-47.0763

> <Gold.PLP.part.hbond>
-1.0000

> <Gold.PLP.part.metal>
0.0000

> <Gold.PLP.part.buried>
-1.3860

> <Gold.PLP.part.nonpolar>
-44.6657

> <Gold.PLP.part.repulsive>
0.0000

> <Gold.PLP.ligand.clash>
0.0000

> <Gold.PLP.ligand.torsion>
0.3654

> <Gold.PLP.Chemscore.Hbond>
1.0000

> <Gold.PLP.Chemscore.CHOScore>
0.0000

> <Gold.PLP.Chemscore.Metal>
0.0000

> <Gold.Chemscore.Hbonds>
donor molecule, donor type, donor heavy atom, donor atom, acceptor molecule, acceptor atom, score
      P1  H  7997  8008       L1     4  0.59

> <Gold.PLP.Chemscore.Internal.Correction>
0.0560

> <Gold.Rescore>
     Score         DG    S(hbond)    S(metal)    S(lipo)     H(rot)  DE(clash)    DE(int)     intcor
     15.32     -18.22       0.93        0.00     122.75       1.85       1.39       1.50       ----

> <Gold.Chemscore.Fitness>
15.3223

> <Gold.Chemscore.DG>
-18.2154

> <Gold.Chemscore.ZeroCoef>
-5.4800

> <Gold.Chemscore.Hbond>
0.9282

> <Gold.Chemscore.Metal>
0.0000

> <Gold.Chemscore.Lipo>
122.7544

> <Gold.Chemscore.Internal_Hbond>
0.0000

> <Gold.Chemscore.DEClash>
1.3946

> <Gold.Chemscore.DEInternal>
1.4985

> <Gold.Chemscore.Rot>
1.8465

> <Gold.Chemscore.Internal.Correction>
   9.000000E+99

> <Gold.Chemscore.Hbonds>
donor molecule, donor type, donor heavy atom, donor atom, acceptor molecule, acceptor atom, score
      P1  H  7997  8008       L1     4  0.40

> <Gold.Chemscore.Hbond.Weighted>
-3.1002

> <Gold.Chemscore.Metal.Weighted>
-0.0000

> <Gold.Chemscore.Lipo.Weighted>
-14.3623

> <Gold.Chemscore.Internal_Hbond.Weighted>
0.0000

> <Gold.Chemscore.DEClash.Weighted>
1.3946

> <Gold.Chemscore.DEInternal.Weighted>
1.4985

> <Gold.Chemscore.Rot.Weighted>
4.7270

> <Gold.Chemscore.Internal.Correction.Weighted>
   9.000000E+99

> <Gold.Protein.RotatedTorsions>
[ 6907 6896 6895 6894 ] final  167.97 input  -60.11 | X-H torsion
[ 7974 7965 7964 7962 ] final  -74.06 input  175.53 | X-H torsion
[ 8008 7997 7996 7995 ] final  -81.28 input   59.86 | X-H torsion
[ 10167 10162 10161 10158 ] final   11.13 input  -65.29 | X-H torsion
[ 10718 10713 10712 10709 ] final   43.56 input   66.30 | X-H torsion
[ 10763 10752 10751 10750 ] final -170.01 input  -60.55 | X-H torsion
[ 11005 11000 10999 10996 ] final   41.73 input  -57.11 | X-H torsion

> <Gold.Protein.ActiveResidues>
 VAL166  LYS551  ARG553  GLY616  TRP617  ASP618  TYR619  PRO620  LYS621  CYS622 
 ASP623  PHE694  ASN695  SER759  ASP760  ASP761  ALA762  ILE779  LEU786  VAL792 
 PHE793  MET794  SER795  GLU796  ALA797  LYS798  CYS799  TRP800  GLU811  SER814 

> <Gold.Protein.RotatedAtoms>
  151.8550  133.3447  159.3685 H   0  0  0  0  0  0  0  0  0  0  0  0  # atno 6907 bound_to 6896
  150.7195  134.5262  159.5687 H   0  0  0  0  0  0  0  0  0  0  0  0  # atno 6908 bound_to 6896
  152.2763  134.7878  160.0456 H   0  0  0  0  0  0  0  0  0  0  0  0  # atno 6909 bound_to 6896
  145.6440  140.9302  143.1020 H   0  0  0  0  0  0  0  0  0  0  0  0  # atno 7974 bound_to 7965
  154.5967  140.0650  156.9314 H   0  0  0  0  0  0  0  0  0  0  0  0  # atno 8008 bound_to 7997
  155.2201  140.3329  155.4298 H   0  0  0  0  0  0  0  0  0  0  0  0  # atno 8009 bound_to 7997
  156.2292  140.1833  156.7270 H   0  0  0  0  0  0  0  0  0  0  0  0  # atno 8010 bound_to 7997
  140.6151  143.8325  150.7109 H   0  0  0  0  0  0  0  0  0  0  0  0  # atno 10167 bound_to 10162
  157.4172  130.7948  149.7483 H   0  0  0  0  0  0  0  0  0  0  0  0  # atno 10718 bound_to 10713
  154.6462  135.2905  155.0043 H   0  0  0  0  0  0  0  0  0  0  0  0  # atno 10763 bound_to 10752
  154.1153  135.6556  153.4896 H   0  0  0  0  0  0  0  0  0  0  0  0  # atno 10764 bound_to 10752
  153.0352  135.5274  154.7350 H   0  0  0  0  0  0  0  0  0  0  0  0  # atno 10765 bound_to 10752
  140.1807  134.4108  155.8202 H   0  0  0  0  0  0  0  0  0  0  0  0  # atno 11005 bound_to 11000
  144.7147  139.8241  143.7403 LP  0  0  0  0  0  0  0  0  0  0  0  0  # atno 17320 bound_to 7965
  146.1258  139.4283  143.0200 LP  0  0  0  0  0  0  0  0  0  0  0  0  # atno 17321 bound_to 7965
  140.1902  143.4042  152.1868 LP  0  0  0  0  0  0  0  0  0  0  0  0  # atno 17342 bound_to 10162
  139.5392  144.7240  151.4790 LP  0  0  0  0  0  0  0  0  0  0  0  0  # atno 17343 bound_to 10162
  155.9869  130.3971  150.3191 LP  0  0  0  0  0  0  0  0  0  0  0  0  # atno 17370 bound_to 10713
  157.1335  131.0278  151.2959 LP  0  0  0  0  0  0  0  0  0  0  0  0  # atno 17371 bound_to 10713
  141.2223  133.6999  156.7925 LP  0  0  0  0  0  0  0  0  0  0  0  0  # atno 17394 bound_to 11000
  140.2271  134.8714  157.3438 LP  0  0  0  0  0  0  0  0  0  0  0  0  # atno 17395 bound_to 11000

$$$$
