AV-unprocessed.smi:156|AV-procd|sdf|1288|dock2
  -GOLD-   2262018563D 1   1.00000     0.00000
 Structure written by MMmdl.
 51 53  0  0  0  0  0  0  0  0  1 V2000
  152.1899  140.6181  158.2260 C   0  0  0  0  0  0  0  0  0  0  0  0
  151.1919  140.5107  157.0559 C   0  0  1  0  0  0  0  0  0  0  0  0
  150.7697  139.0412  156.7491 C   0  0  2  0  0  0  0  0  0  0  0  0
  150.4368  138.2349  158.0188 C   0  0  0  0  0  0  0  0  0  0  0  0
  152.0418  138.1077  155.7504 S   0  0  0  0  0  0  0  0  0  0  0  0
  151.1883  137.8072  154.1448 C   0  0  0  0  0  0  0  0  0  0  0  0
  153.1711  139.0110  155.4817 O   0  0  0  0  0  0  0  0  0  0  0  0
  152.2994  136.8005  156.3728 O   0  0  0  0  0  0  0  0  0  0  0  0
  150.0463  141.3994  157.3118 N   0  0  0  0  0  0  0  0  0  0  0  0
  150.1596  142.4717  158.2979 C   0  0  0  0  0  0  0  0  0  0  0  0
  149.0690  141.4978  156.3663 C   0  0  0  0  0  0  0  0  0  0  0  0
  149.3193  140.9807  155.1344 N   0  0  0  0  0  0  0  0  0  0  0  0
  148.3968  141.0261  154.1705 C   0  0  0  0  0  0  0  0  0  0  0  0
  147.1675  141.5377  154.2187 N   0  0  0  0  0  0  0  0  0  0  0  0
  146.9015  142.0666  155.4467 C   0  0  0  0  0  0  0  0  0  0  0  0
  147.7822  142.0873  156.5682 C   0  0  0  0  0  0  0  0  0  0  0  0
  147.1482  142.7126  157.6374 N   0  0  0  0  0  0  0  0  0  0  0  0
  145.9672  143.0257  157.1818 C   0  0  0  0  0  0  0  0  0  0  0  0
  145.7383  142.6895  155.8676 N   0  0  0  0  0  0  0  0  0  0  0  0
  144.5183  142.9140  155.1035 C   0  0  0  0  0  0  0  0  0  0  0  0
  144.1791  144.4009  154.8358 C   0  0  0  0  0  0  0  0  0  0  0  0
  144.8971  144.8291  153.5486 C   0  0  0  0  0  0  0  0  0  0  0  0
  144.4234  146.0782  153.0873 O   0  0  0  0  0  0  0  0  0  0  0  0
  142.6879  144.7715  154.9038 C   0  0  0  0  0  0  0  0  0  0  0  0
  142.8361  145.3550  156.2150 O   0  0  0  0  0  0  0  0  0  0  0  0
  144.2657  145.3808  156.0190 C   0  0  0  0  0  0  0  0  0  0  0  0
  153.1373  140.1316  157.9962 H   0  0  0  0  0  0  0  0  0  0  0  0
  151.7924  140.1650  159.1347 H   0  0  0  0  0  0  0  0  0  0  0  0
  152.4197  141.6607  158.4487 H   0  0  0  0  0  0  0  0  0  0  0  0
  151.7383  140.8594  156.1814 H   0  0  0  0  0  0  0  0  0  0  0  0
  149.8657  139.0460  156.1421 H   0  0  0  0  0  0  0  0  0  0  0  0
  149.5438  138.6176  158.5123 H   0  0  0  0  0  0  0  0  0  0  0  0
  151.2529  138.2659  158.7402 H   0  0  0  0  0  0  0  0  0  0  0  0
  150.2373  137.1893  157.7853 H   0  0  0  0  0  0  0  0  0  0  0  0
  151.8532  137.2453  153.4893 H   0  0  0  0  0  0  0  0  0  0  0  0
  150.9430  138.7556  153.6689 H   0  0  0  0  0  0  0  0  0  0  0  0
  150.2793  137.2306  154.3024 H   0  0  0  0  0  0  0  0  0  0  0  0
  149.1739  142.7936  158.6357 H   0  0  0  0  0  0  0  0  0  0  0  0
  150.6818  143.3302  157.8749 H   0  0  0  0  0  0  0  0  0  0  0  0
  150.7068  142.1514  159.1823 H   0  0  0  0  0  0  0  0  0  0  0  0
  148.6849  140.5882  153.2263 H   0  0  0  0  0  0  0  0  0  0  0  0
  145.2280  143.5146  157.7989 H   0  0  0  0  0  0  0  0  0  0  0  0
  144.6163  142.3633  154.1674 H   0  0  0  0  0  0  0  0  0  0  0  0
  143.6999  142.4337  155.6411 H   0  0  0  0  0  0  0  0  0  0  0  0
  145.9749  144.8928  153.7017 H   0  0  0  0  0  0  0  0  0  0  0  0
  144.7392  144.1001  152.7530 H   0  0  0  0  0  0  0  0  0  0  0  0
  143.6212  146.2837  153.5429 H   0  0  0  0  0  0  0  0  0  0  0  0
  142.3807  145.5159  154.1674 H   0  0  0  0  0  0  0  0  0  0  0  0
  142.0060  143.9226  154.8894 H   0  0  0  0  0  0  0  0  0  0  0  0
  144.8202  145.0139  156.8811 H   0  0  0  0  0  0  0  0  0  0  0  0
  144.6140  146.3766  155.7392 H   0  0  0  0  0  0  0  0  0  0  0  0
  1  2  1  0  0  0  0
  1 27  1  0  0  0  0
  1 28  1  0  0  0  0
  1 29  1  0  0  0  0
  2  3  1  0  0  0  0
  2  9  1  0  0  0  0
  2 30  1  0  0  0  0
  3  4  1  0  0  0  0
  3  5  1  0  0  0  0
  3 31  1  0  0  0  0
  4 32  1  0  0  0  0
  4 33  1  0  0  0  0
  4 34  1  0  0  0  0
  5  6  1  0  0  0  0
  5  7  2  0  0  0  0
  5  8  2  0  0  0  0
  6 35  1  0  0  0  0
  6 36  1  0  0  0  0
  6 37  1  0  0  0  0
  9 10  1  0  0  0  0
  9 11  1  0  0  0  0
 10 38  1  0  0  0  0
 10 39  1  0  0  0  0
 10 40  1  0  0  0  0
 11 16  1  0  0  0  0
 11 12  2  0  0  0  0
 12 13  1  0  0  0  0
 13 14  2  0  0  0  0
 13 41  1  0  0  0  0
 14 15  1  0  0  0  0
 15 19  1  0  0  0  0
 15 16  2  0  0  0  0
 16 17  1  0  0  0  0
 17 18  2  0  0  0  0
 18 19  1  0  0  0  0
 18 42  1  0  0  0  0
 19 20  1  0  0  0  0
 20 21  1  0  0  0  0
 20 43  1  0  0  0  0
 20 44  1  0  0  0  0
 21 26  1  0  0  0  0
 21 22  1  0  0  0  0
 21 24  1  0  0  0  0
 22 23  1  0  0  0  0
 22 45  1  0  0  0  0
 22 46  1  0  0  0  0
 23 47  1  0  0  0  0
 24 25  1  0  0  0  0
 24 48  1  0  0  0  0
 24 49  1  0  0  0  0
 25 26  1  0  0  0  0
 26 50  1  0  0  0  0
 26 51  1  0  0  0  0
M  END
> <s_m_source_file>
AV-unprocessed.smi

> <i_m_source_file_index>
156

> <i_lp_mmshare_version>
43012

> <i_f3d_flags>
0

> <s_epik_input>
W0NIM11TKD1PKSg9TylbQ0BASF0oW0NIM10pW0NAQEhdKFtDSDNdKU4oW0NIM10pYyhuW2NIXW4xKWMoYzEyKW5bY0hdbjJbQ0gyXUMzKFtDSDJdW09IXSlbQ0gyXU9bQ0gyXTM=

> <s_epik_cmdline>
J2VwaWtfcHl0aG9uJywgJy1waCcsICc3LjAnLCAnLXRuJywgJzgnLCAnLW1hJywgJzIwMCcsICctbWV0YWxfYmluZGluZycsICctaW1hZScsICc8aW5maWxlLm1hZT4nLCAnLW9tYWUnLCAnPG91dGZpbGUubWFlPic=

> <r_lp_tautomer_probability>
1

> <r_epik_Ionization_Penalty>
0.00107697

> <r_epik_Ionization_Penalty_Charging>
0

> <r_epik_Ionization_Penalty_Neutral>
0.00107697

> <r_epik_State_Penalty>
0.000614712

> <r_epik_Charging_Adjusted_Penalty>
0.000614712

> <i_epik_Tot_Q>
0

> <i_epik_Tot_abs_Q>
0

> <r_epik_Metal_State_Penalty>
-0

> <b_epik_Metal_Only>
0

> <s_lp_Force_Field>
OPLS_2005

> <r_lp_Energy>
29.1467

> <b_lp_Chiralities_Consistent>
1

> <s_lp_Variant>
AV-unprocessed.smi:156-2

> <Gold.Version>
5.8.1

> <Gold.Id.Protein>
6NUR|6NUR_protein|mol2

> <Gold.PLP.Fitness>
43.4353

> <Gold.PLP.PLP>
-36.4199

> <Gold.PLP.part.hbond>
-3.9616

> <Gold.PLP.part.metal>
0.0000

> <Gold.PLP.part.buried>
-8.2417

> <Gold.PLP.part.nonpolar>
-26.5348

> <Gold.PLP.part.repulsive>
0.4420

> <Gold.PLP.ligand.clash>
0.0000

> <Gold.PLP.ligand.torsion>
1.7204

> <Gold.PLP.Chemscore.Hbond>
1.9920

> <Gold.PLP.Chemscore.CHOScore>
1.0000

> <Gold.PLP.Chemscore.Metal>
0.0000

> <Gold.Chemscore.Hbonds>
donor molecule, donor type, donor heavy atom, donor atom, acceptor molecule, acceptor atom, score
      P1  H  7997  8008       L1     7  1.00
      P1  H 10752 10763       L1     8  0.98
      L1  C    13    41       P1  7957  1.00

> <Gold.PLP.Chemscore.Internal.Correction>
1.4801

> <Gold.Rescore>
     Score         DG    S(hbond)    S(metal)    S(lipo)     H(rot)  DE(clash)    DE(int)     intcor
      7.93     -10.22       1.72        0.00      61.63       3.21       0.61       1.67       ----

> <Gold.Chemscore.Fitness>
7.9343

> <Gold.Chemscore.DG>
-10.2189

> <Gold.Chemscore.ZeroCoef>
-5.4800

> <Gold.Chemscore.Hbond>
1.7214

> <Gold.Chemscore.Metal>
0.0000

> <Gold.Chemscore.Lipo>
61.6332

> <Gold.Chemscore.Internal_Hbond>
0.0000

> <Gold.Chemscore.DEClash>
0.6109

> <Gold.Chemscore.DEInternal>
1.6737

> <Gold.Chemscore.Rot>
3.2115

> <Gold.Chemscore.Internal.Correction>
   9.000000E+99

> <Gold.Chemscore.Hbonds>
donor molecule, donor type, donor heavy atom, donor atom, acceptor molecule, acceptor atom, score
      P1  H  7997  8008       L1     7  0.99
      P1  H 10752 10763       L1     8  0.76

> <Gold.Chemscore.Hbond.Weighted>
-5.7493

> <Gold.Chemscore.Metal.Weighted>
-0.0000

> <Gold.Chemscore.Lipo.Weighted>
-7.2111

> <Gold.Chemscore.Internal_Hbond.Weighted>
0.0000

> <Gold.Chemscore.DEClash.Weighted>
0.6109

> <Gold.Chemscore.DEInternal.Weighted>
1.6737

> <Gold.Chemscore.Rot.Weighted>
8.2215

> <Gold.Chemscore.Internal.Correction.Weighted>
   9.000000E+99

> <Gold.Protein.RotatedTorsions>
[ 6907 6896 6895 6894 ] final -100.14 input  -60.11 | X-H torsion
[ 7974 7965 7964 7962 ] final  144.10 input  175.53 | X-H torsion
[ 8008 7997 7996 7995 ] final  -25.06 input   59.86 | X-H torsion
[ 10167 10162 10161 10158 ] final  117.30 input  -65.29 | X-H torsion
[ 10718 10713 10712 10709 ] final  164.66 input   66.30 | X-H torsion
[ 10763 10752 10751 10750 ] final   94.77 input  -60.55 | X-H torsion
[ 11005 11000 10999 10996 ] final   25.78 input  -57.11 | X-H torsion

> <Gold.Protein.ActiveResidues>
 VAL166  LYS551  ARG553  GLY616  TRP617  ASP618  TYR619  PRO620  LYS621  CYS622 
 ASP623  PHE694  ASN695  SER759  ASP760  ASP761  ALA762  ILE779  LEU786  VAL792 
 PHE793  MET794  SER795  GLU796  ALA797  LYS798  CYS799  TRP800  GLU811  SER814 

> <Gold.Protein.RotatedAtoms>
  150.7105  134.0933  159.3939 H   0  0  0  0  0  0  0  0  0  0  0  0  # atno 6907 bound_to 6896
  151.8919  135.0411  160.0508 H   0  0  0  0  0  0  0  0  0  0  0  0  # atno 6908 bound_to 6896
  152.2485  133.5159  159.5348 H   0  0  0  0  0  0  0  0  0  0  0  0  # atno 6909 bound_to 6896
  144.8864  139.5622  143.5819 H   0  0  0  0  0  0  0  0  0  0  0  0  # atno 7974 bound_to 7965
  154.4496  140.1937  156.0560 H   0  0  0  0  0  0  0  0  0  0  0  0  # atno 8008 bound_to 7997
  156.0618  140.3296  155.7444 H   0  0  0  0  0  0  0  0  0  0  0  0  # atno 8009 bound_to 7997
  155.5399  140.0585  157.2863 H   0  0  0  0  0  0  0  0  0  0  0  0  # atno 8010 bound_to 7997
  139.6188  144.7097  151.2680 H   0  0  0  0  0  0  0  0  0  0  0  0  # atno 10167 bound_to 10162
  157.0912  131.0418  151.2536 H   0  0  0  0  0  0  0  0  0  0  0  0  # atno 10718 bound_to 10713
  153.2454  135.4278  155.0742 H   0  0  0  0  0  0  0  0  0  0  0  0  # atno 10763 bound_to 10752
  154.8359  135.3413  154.6589 H   0  0  0  0  0  0  0  0  0  0  0  0  # atno 10764 bound_to 10752
  153.7011  135.7028  153.5119 H   0  0  0  0  0  0  0  0  0  0  0  0  # atno 10765 bound_to 10752
  140.3441  134.2301  155.7687 H   0  0  0  0  0  0  0  0  0  0  0  0  # atno 11005 bound_to 11000
  146.3027  139.7478  142.9079 LP  0  0  0  0  0  0  0  0  0  0  0  0  # atno 17320 bound_to 7965
  145.3861  141.0365  143.3150 LP  0  0  0  0  0  0  0  0  0  0  0  0  # atno 17321 bound_to 7965
  140.7368  143.6696  150.8093 LP  0  0  0  0  0  0  0  0  0  0  0  0  # atno 17342 bound_to 10162
  140.0303  143.5450  152.2763 LP  0  0  0  0  0  0  0  0  0  0  0  0  # atno 17343 bound_to 10162
  157.4719  130.7714  149.7332 LP  0  0  0  0  0  0  0  0  0  0  0  0  # atno 17370 bound_to 10713
  155.9897  130.3949  150.3059 LP  0  0  0  0  0  0  0  0  0  0  0  0  # atno 17371 bound_to 10713
  141.2030  133.7922  157.0360 LP  0  0  0  0  0  0  0  0  0  0  0  0  # atno 17394 bound_to 11000
  140.0757  134.9677  157.1541 LP  0  0  0  0  0  0  0  0  0  0  0  0  # atno 17395 bound_to 11000

$$$$
