AV-unprocessed.smi:3241|AV-procd|sdf|12389|dock10
  -GOLD-   2272018263D 1   1.00000     0.00000
 Structure written by MMmdl.
 43 44  0  0  0  0  0  0  0  0  1 V2000
  154.1763  141.1119  161.5305 C   0  0  0  0  0  0  0  0  0  0  0  0
  153.5500  141.8055  160.3086 C   0  0  2  0  0  0  0  0  0  0  0  0
  152.6596  142.9854  160.7467 C   0  0  0  0  0  0  0  0  0  0  0  0
  152.0204  143.6933  159.5425 C   0  0  0  0  0  0  0  0  0  0  0  0
  151.2203  142.7049  158.6823 C   0  0  0  0  0  0  0  0  0  0  0  0
  152.0987  141.5279  158.2319 C   0  0  0  0  0  0  0  0  0  0  0  0
  152.7499  140.8131  159.4346 C   0  0  1  0  0  0  0  0  0  0  0  0
  153.6595  139.8220  158.9756 O   0  0  0  0  0  0  0  0  0  0  0  0
  153.1257  138.5089  158.8905 C   0  0  0  0  0  0  0  0  0  0  0  0
  153.3740  137.9980  157.4684 C   0  0  0  0  0  0  0  0  0  0  0  0
  152.1187  137.9298  156.7296 N   0  0  0  0  0  0  0  0  0  0  0  0
  152.1948  138.4825  155.3814 C   0  0  0  0  0  0  0  0  0  0  0  0
  150.9770  138.0699  154.5386 C   0  0  0  0  0  0  0  0  0  0  0  0
  150.0377  139.1644  154.3614 N   0  0  0  0  0  0  0  0  0  0  0  0
  148.7555  139.1192  153.8553 C   0  0  0  0  0  0  0  0  0  0  0  0
  148.2568  140.3898  153.8971 C   0  0  0  0  0  0  0  0  0  0  0  0
  149.3225  141.1533  154.4502 C   0  0  0  0  0  0  0  0  0  0  0  0
  150.3867  140.4175  154.7269 N   0  0  0  0  0  0  0  0  0  0  0  0
  153.4128  140.6700  162.1715 H   0  0  0  0  0  0  0  0  0  0  0  0
  154.7488  141.8178  162.1326 H   0  0  0  0  0  0  0  0  0  0  0  0
  154.8572  140.3156  161.2293 H   0  0  0  0  0  0  0  0  0  0  0  0
  154.3644  142.2084  159.7043 H   0  0  0  0  0  0  0  0  0  0  0  0
  151.8750  142.6270  161.4147 H   0  0  0  0  0  0  0  0  0  0  0  0
  153.2472  143.7034  161.3201 H   0  0  0  0  0  0  0  0  0  0  0  0
  151.3701  144.4981  159.8862 H   0  0  0  0  0  0  0  0  0  0  0  0
  152.7981  144.1603  158.9368 H   0  0  0  0  0  0  0  0  0  0  0  0
  150.3686  142.3295  159.2512 H   0  0  0  0  0  0  0  0  0  0  0  0
  150.8099  143.2172  157.8116 H   0  0  0  0  0  0  0  0  0  0  0  0
  151.4931  140.8299  157.6541 H   0  0  0  0  0  0  0  0  0  0  0  0
  152.8764  141.8924  157.5592 H   0  0  0  0  0  0  0  0  0  0  0  0
  151.9756  140.3559  160.0539 H   0  0  0  0  0  0  0  0  0  0  0  0
  153.5871  137.8406  159.6198 H   0  0  0  0  0  0  0  0  0  0  0  0
  152.0551  138.5306  159.0941 H   0  0  0  0  0  0  0  0  0  0  0  0
  154.0666  138.6635  156.9524 H   0  0  0  0  0  0  0  0  0  0  0  0
  153.8505  137.0178  157.5113 H   0  0  0  0  0  0  0  0  0  0  0  0
  151.8059  136.9646  156.6826 H   0  0  0  0  0  0  0  0  0  0  0  0
  152.2541  139.5702  155.4308 H   0  0  0  0  0  0  0  0  0  0  0  0
  153.1057  138.1429  154.8871 H   0  0  0  0  0  0  0  0  0  0  0  0
  151.2923  137.7002  153.5613 H   0  0  0  0  0  0  0  0  0  0  0  0
  150.4510  137.2493  155.0275 H   0  0  0  0  0  0  0  0  0  0  0  0
  148.3090  138.1964  153.5158 H   0  0  0  0  0  0  0  0  0  0  0  0
  147.2791  140.7230  153.5819 H   0  0  0  0  0  0  0  0  0  0  0  0
  149.3535  142.2123  154.6602 H   0  0  0  0  0  0  0  0  0  0  0  0
  1  2  1  0  0  0  0
  1 19  1  0  0  0  0
  1 20  1  0  0  0  0
  1 21  1  0  0  0  0
  2  7  1  0  0  0  0
  2  3  1  0  0  0  0
  2 22  1  0  0  0  0
  3  4  1  0  0  0  0
  3 23  1  0  0  0  0
  3 24  1  0  0  0  0
  4  5  1  0  0  0  0
  4 25  1  0  0  0  0
  4 26  1  0  0  0  0
  5  6  1  0  0  0  0
  5 27  1  0  0  0  0
  5 28  1  0  0  0  0
  6  7  1  0  0  0  0
  6 29  1  0  0  0  0
  6 30  1  0  0  0  0
  7  8  1  0  0  0  0
  7 31  1  0  0  0  0
  8  9  1  0  0  0  0
  9 10  1  0  0  0  0
  9 32  1  0  0  0  0
  9 33  1  0  0  0  0
 10 11  1  0  0  0  0
 10 34  1  0  0  0  0
 10 35  1  0  0  0  0
 11 12  1  0  0  0  0
 11 36  1  0  0  0  0
 12 13  1  0  0  0  0
 12 37  1  0  0  0  0
 12 38  1  0  0  0  0
 13 14  1  0  0  0  0
 13 39  1  0  0  0  0
 13 40  1  0  0  0  0
 14 18  1  0  0  0  0
 14 15  1  0  0  0  0
 15 16  2  0  0  0  0
 15 41  1  0  0  0  0
 16 17  1  0  0  0  0
 16 42  1  0  0  0  0
 17 18  2  0  0  0  0
 17 43  1  0  0  0  0
M  END
> <s_m_source_file>
AV-unprocessed.smi

> <i_m_source_file_index>
3241

> <i_lp_mmshare_version>
43012

> <i_f3d_flags>
0

> <s_epik_input>
W0NIM11bQ0BASF0xW0NIMl1bQ0gyXVtDSDJdW0NIMl1bQ0BIXTFPW0NIMl1bQ0gyXVtOSF1bQ0gyXVtDSDJdbjJbY0hdW2NIXVtjSF1uMg==

> <s_epik_cmdline>
J2VwaWtfcHl0aG9uJywgJy1waCcsICc3LjAnLCAnLXRuJywgJzgnLCAnLW1hJywgJzIwMCcsICctbWV0YWxfYmluZGluZycsICctaW1hZScsICc8aW5maWxlLm1hZT4nLCAnLW9tYWUnLCAnPG91dGZpbGUubWFlPic=

> <r_lp_tautomer_probability>
1

> <r_epik_Ionization_Penalty>
2.47055

> <r_epik_Ionization_Penalty_Charging>
0

> <r_epik_Ionization_Penalty_Neutral>
2.47055

> <r_epik_State_Penalty>
2.6322

> <r_epik_Charging_Adjusted_Penalty>
2.6322

> <i_epik_Tot_Q>
0

> <i_epik_Tot_abs_Q>
0

> <r_epik_Metal_State_Penalty>
2.63108

> <b_epik_Metal_Only>
0

> <s_lp_Force_Field>
OPLS_2005

> <r_lp_Energy>
15.2111

> <b_lp_Chiralities_Consistent>
1

> <s_lp_Variant>
AV-unprocessed.smi:3241-5

> <Gold.Version>
5.8.1

> <Gold.Id.Protein>
6NUR|6NUR_protein|mol2

> <Gold.PLP.Fitness>
45.7321

> <Gold.PLP.PLP>
-39.5902

> <Gold.PLP.part.hbond>
-2.0000

> <Gold.PLP.part.metal>
0.0000

> <Gold.PLP.part.buried>
-1.0884

> <Gold.PLP.part.nonpolar>
-35.8783

> <Gold.PLP.part.repulsive>
0.0885

> <Gold.PLP.ligand.clash>
0.0000

> <Gold.PLP.ligand.torsion>
2.0032

> <Gold.PLP.Chemscore.Hbond>
1.9920

> <Gold.PLP.Chemscore.CHOScore>
1.3666

> <Gold.PLP.Chemscore.Metal>
0.0000

> <Gold.Chemscore.Hbonds>
donor molecule, donor type, donor heavy atom, donor atom, acceptor molecule, acceptor atom, score
      P1  H  7989  7998       L1    18  1.00
      P1  H  7997  8010       L1     8  0.78
      L1  C    15    41       P1  7948  0.74
      L1  C    17    43       P1  8028  0.51

> <Gold.PLP.Chemscore.Internal.Correction>
0.0725

> <Gold.Rescore>
     Score         DG    S(hbond)    S(metal)    S(lipo)     H(rot)  DE(clash)    DE(int)     intcor
     17.47     -19.78       1.61        0.00     115.28       1.79       0.14       2.17       ----

> <Gold.Chemscore.Fitness>
17.4692

> <Gold.Chemscore.DG>
-19.7768

> <Gold.Chemscore.ZeroCoef>
-5.4800

> <Gold.Chemscore.Hbond>
1.6143

> <Gold.Chemscore.Metal>
0.0000

> <Gold.Chemscore.Lipo>
115.2814

> <Gold.Chemscore.Internal_Hbond>
0.0000

> <Gold.Chemscore.DEClash>
0.1383

> <Gold.Chemscore.DEInternal>
2.1693

> <Gold.Chemscore.Rot>
1.7901

> <Gold.Chemscore.Internal.Correction>
   9.000000E+99

> <Gold.Chemscore.Hbonds>
donor molecule, donor type, donor heavy atom, donor atom, acceptor molecule, acceptor atom, score
      P1  H  7989  7998       L1    18  0.19
      P1  H  7997  8010       L1     8  0.30

> <Gold.Chemscore.Hbond.Weighted>
-5.3916

> <Gold.Chemscore.Metal.Weighted>
-0.0000

> <Gold.Chemscore.Lipo.Weighted>
-13.4879

> <Gold.Chemscore.Internal_Hbond.Weighted>
0.0000

> <Gold.Chemscore.DEClash.Weighted>
0.1383

> <Gold.Chemscore.DEInternal.Weighted>
2.1693

> <Gold.Chemscore.Rot.Weighted>
4.5827

> <Gold.Chemscore.Internal.Correction.Weighted>
   9.000000E+99

> <Gold.Protein.RotatedTorsions>
[ 6907 6896 6895 6894 ] final   71.90 input  -60.11 | X-H torsion
[ 7974 7965 7964 7962 ] final   -8.84 input  175.53 | X-H torsion
[ 8008 7997 7996 7995 ] final   24.43 input   59.86 | X-H torsion
[ 10167 10162 10161 10158 ] final   60.09 input  -65.29 | X-H torsion
[ 10718 10713 10712 10709 ] final  -34.38 input   66.30 | X-H torsion
[ 10763 10752 10751 10750 ] final   35.47 input  -60.55 | X-H torsion
[ 11005 11000 10999 10996 ] final -146.74 input  -57.11 | X-H torsion

> <Gold.Protein.ActiveResidues>
 VAL166  LYS551  ARG553  GLY616  TRP617  ASP618  TYR619  PRO620  LYS621  CYS622 
 ASP623  PHE694  ASN695  SER759  ASP760  ASP761  ALA762  ILE779  LEU786  VAL792 
 PHE793  MET794  SER795  GLU796  ALA797  LYS798  CYS799  TRP800  GLU811  SER814 

> <Gold.Protein.RotatedAtoms>
  152.4837  134.4651  159.9617 H   0  0  0  0  0  0  0  0  0  0  0  0  # atno 6907 bound_to 6896
  151.4652  133.3577  159.2823 H   0  0  0  0  0  0  0  0  0  0  0  0  # atno 6908 bound_to 6896
  150.8930  134.8360  159.7367 H   0  0  0  0  0  0  0  0  0  0  0  0  # atno 6909 bound_to 6896
  146.2269  140.2527  142.8348 H   0  0  0  0  0  0  0  0  0  0  0  0  # atno 7974 bound_to 7965
  154.9962  140.3119  155.4886 H   0  0  0  0  0  0  0  0  0  0  0  0  # atno 8008 bound_to 7997
  156.2932  140.2240  156.5010 H   0  0  0  0  0  0  0  0  0  0  0  0  # atno 8009 bound_to 7997
  154.7659  140.0456  157.1000 H   0  0  0  0  0  0  0  0  0  0  0  0  # atno 8010 bound_to 7997
  140.1694  144.4292  150.6669 H   0  0  0  0  0  0  0  0  0  0  0  0  # atno 10167 bound_to 10162
  156.3512  130.4308  149.7703 H   0  0  0  0  0  0  0  0  0  0  0  0  # atno 10718 bound_to 10713
  153.0118  135.6332  154.1831 H   0  0  0  0  0  0  0  0  0  0  0  0  # atno 10763 bound_to 10752
  154.1573  135.2825  155.3120 H   0  0  0  0  0  0  0  0  0  0  0  0  # atno 10764 bound_to 10752
  154.6008  135.5588  153.7433 H   0  0  0  0  0  0  0  0  0  0  0  0  # atno 10765 bound_to 10752
  140.7789  134.3102  157.5052 H   0  0  0  0  0  0  0  0  0  0  0  0  # atno 11005 bound_to 11000
  144.9399  140.8067  143.5637 LP  0  0  0  0  0  0  0  0  0  0  0  0  # atno 17320 bound_to 7965
  145.2478  139.2044  143.4958 LP  0  0  0  0  0  0  0  0  0  0  0  0  # atno 17321 bound_to 7965
  140.6592  143.2247  151.5896 LP  0  0  0  0  0  0  0  0  0  0  0  0  # atno 17342 bound_to 10162
  139.5345  144.2821  152.1221 LP  0  0  0  0  0  0  0  0  0  0  0  0  # atno 17343 bound_to 10162
  156.4902  130.8081  151.3091 LP  0  0  0  0  0  0  0  0  0  0  0  0  # atno 17370 bound_to 10713
  157.7461  130.9978  150.2828 LP  0  0  0  0  0  0  0  0  0  0  0  0  # atno 17371 bound_to 10713
  139.8745  134.9306  156.3507 LP  0  0  0  0  0  0  0  0  0  0  0  0  # atno 17394 bound_to 11000
  140.9502  133.7456  156.0262 LP  0  0  0  0  0  0  0  0  0  0  0  0  # atno 17395 bound_to 11000

$$$$
