AV-unprocessed.smi:2069|AV-procd|sdf|8436|dock5
  -GOLD-   2272011133D 1   1.00000     0.00000
 Structure written by MMmdl.
 37 38  0  0  0  0  0  0  0  0  2 V2000
  144.0678  143.0595  162.4731 C   0  0  0  0  0  0  0  0  0  0  0  0
  144.9466  142.8102  161.2958 C   0  0  0  0  0  0  0  0  0  0  0  0
  145.1575  141.5889  160.7992 N   0  0  0  0  0  0  0  0  0  0  0  0
  146.0081  141.6102  159.7035 N   0  0  0  0  0  0  0  0  0  0  0  0
  146.4202  142.8444  159.3810 C   0  0  0  0  0  0  0  0  0  0  0  0
  147.2529  143.0778  158.3532 N   0  5  0  0  0  0  0  0  0  0  0  0
  148.1391  142.1301  157.9708 C   0  0  0  0  0  0  0  0  0  0  0  0
  148.1169  140.9379  158.2855 O   0  0  0  0  0  0  0  0  0  0  0  0
  149.1110  142.5922  157.1732 N   0  0  0  0  0  0  0  0  0  0  0  0
  150.2022  141.7967  156.6197 C   0  0  0  0  0  0  0  0  0  0  0  0
  149.6968  140.7086  155.6328 C   0  0  1  0  0  0  0  0  0  0  0  0
  148.8047  141.3856  154.5609 C   0  0  0  0  0  0  0  0  0  0  0  0
  150.7867  139.8983  155.0392 N   0  0  0  0  0  0  0  0  0  0  0  0
  151.7472  139.4176  156.0394 C   0  0  0  0  0  0  0  0  0  0  0  0
  152.8608  138.5481  155.4299 C   0  0  0  0  0  0  0  0  0  0  0  0
  152.2876  137.4495  154.7349 O   0  0  0  0  0  0  0  0  0  0  0  0
  151.4088  137.8732  153.7021 C   0  0  0  0  0  0  0  0  0  0  0  0
  150.2833  138.7344  154.3007 C   0  0  0  0  0  0  0  0  0  0  0  0
  145.7855  144.0980  160.4473 S   0  0  0  0  0  0  0  0  0  0  0  0
  143.0211  142.9851  162.1780 H   0  0  0  0  0  0  0  0  0  0  0  0
  144.2484  144.0558  162.8771 H   0  0  0  0  0  0  0  0  0  0  0  0
  144.2666  142.3253  163.2544 H   0  0  0  0  0  0  0  0  0  0  0  0
  149.0948  143.5738  156.9387 H   0  0  0  0  0  0  0  0  0  0  0  0
  150.9193  142.4482  156.1174 H   0  0  0  0  0  0  0  0  0  0  0  0
  150.7098  141.3593  157.4777 H   0  0  0  0  0  0  0  0  0  0  0  0
  149.0537  140.0374  156.2043 H   0  0  0  0  0  0  0  0  0  0  0  0
  148.0387  142.0255  154.9977 H   0  0  0  0  0  0  0  0  0  0  0  0
  148.2579  140.6609  153.9595 H   0  0  0  0  0  0  0  0  0  0  0  0
  149.3997  142.0037  153.8879 H   0  0  0  0  0  0  0  0  0  0  0  0
  152.2373  140.2524  156.5362 H   0  0  0  0  0  0  0  0  0  0  0  0
  151.2251  138.8496  156.8109 H   0  0  0  0  0  0  0  0  0  0  0  0
  153.4811  139.1352  154.7509 H   0  0  0  0  0  0  0  0  0  0  0  0
  153.5162  138.1688  156.2141 H   0  0  0  0  0  0  0  0  0  0  0  0
  151.9635  138.4323  152.9468 H   0  0  0  0  0  0  0  0  0  0  0  0
  150.9919  136.9955  153.2082 H   0  0  0  0  0  0  0  0  0  0  0  0
  149.6662  138.1184  154.9569 H   0  0  0  0  0  0  0  0  0  0  0  0
  149.6497  139.0489  153.4735 H   0  0  0  0  0  0  0  0  0  0  0  0
  1  2  1  0  0  0  0
  1 20  1  0  0  0  0
  1 21  1  0  0  0  0
  1 22  1  0  0  0  0
  2 19  1  0  0  0  0
  2  3  2  0  0  0  0
  3  4  1  0  0  0  0
  4  5  2  0  0  0  0
  5  6  1  0  0  0  0
  5 19  1  0  0  0  0
  6  7  1  0  0  0  0
  7  8  2  0  0  0  0
  7  9  1  0  0  0  0
  9 10  1  0  0  0  0
  9 23  1  0  0  0  0
 10 11  1  0  0  0  0
 10 24  1  0  0  0  0
 10 25  1  0  0  0  0
 11 12  1  0  0  0  0
 11 13  1  0  0  0  0
 11 26  1  0  0  0  0
 12 27  1  0  0  0  0
 12 28  1  0  0  0  0
 12 29  1  0  0  0  0
 13 18  1  0  0  0  0
 13 14  1  0  0  0  0
 14 15  1  0  0  0  0
 14 30  1  0  0  0  0
 14 31  1  0  0  0  0
 15 16  1  0  0  0  0
 15 32  1  0  0  0  0
 15 33  1  0  0  0  0
 16 17  1  0  0  0  0
 17 18  1  0  0  0  0
 17 34  1  0  0  0  0
 17 35  1  0  0  0  0
 18 36  1  0  0  0  0
 18 37  1  0  0  0  0
M  CHG  1   6  -1
M  END
> <s_m_source_file>
AV-unprocessed.smi

> <i_m_source_file_index>
2069

> <i_lp_mmshare_version>
43012

> <i_f3d_flags>
0

> <s_epik_input>
W0NIM11jMW5uYyhzMSlbTkhdQyg9TylbTkhdW0NIMl1bQ0BIXShbQ0gzXSlOMltDSDJdW0NIMl1PW0NIMl1bQ0gyXTI=

> <s_epik_cmdline>
J2VwaWtfcHl0aG9uJywgJy1waCcsICc3LjAnLCAnLXRuJywgJzgnLCAnLW1hJywgJzIwMCcsICctbWV0YWxfYmluZGluZycsICctaW1hZScsICc8aW5maWxlLm1hZT4nLCAnLW9tYWUnLCAnPG91dGZpbGUubWFlPic=

> <r_lp_tautomer_probability>
1

> <r_epik_Ionization_Penalty>
3.82002

> <r_epik_Ionization_Penalty_Charging>
3.36369

> <r_epik_Ionization_Penalty_Neutral>
0.456339

> <r_epik_State_Penalty>
3.571

> <r_epik_Charging_Adjusted_Penalty>
6.93469

> <i_epik_Tot_Q>
-1

> <i_epik_Tot_abs_Q>
1

> <r_epik_Metal_State_Penalty>
0.710436

> <b_epik_Metal_Only>
1

> <s_lp_Force_Field>
OPLS_2005

> <r_lp_Energy>
26.7527

> <b_lp_Chiralities_Consistent>
1

> <s_lp_Variant>
AV-unprocessed.smi:2069-6

> <Gold.Version>
5.8.1

> <Gold.Id.Protein>
6NUR|6NUR_protein|mol2

> <Gold.PLP.Fitness>
39.8252

> <Gold.PLP.PLP>
-32.1876

> <Gold.PLP.part.hbond>
-5.8059

> <Gold.PLP.part.metal>
0.0000

> <Gold.PLP.part.buried>
-3.4606

> <Gold.PLP.part.nonpolar>
-25.2473

> <Gold.PLP.part.repulsive>
1.9094

> <Gold.PLP.ligand.clash>
0.0000

> <Gold.PLP.ligand.torsion>
0.3456

> <Gold.PLP.Chemscore.Hbond>
2.7460

> <Gold.PLP.Chemscore.CHOScore>
0.0000

> <Gold.PLP.Chemscore.Metal>
0.0000

> <Gold.Chemscore.Hbonds>
donor molecule, donor type, donor heavy atom, donor atom, acceptor molecule, acceptor atom, score
      L1  H     9    23       P1  8028  0.91
      P1  H  6934  6946       L1     4  0.05
      P1  H  7989  7998       L1    13  0.90
      P1  H 10752 10763       L1    16  0.69

> <Gold.PLP.Chemscore.Internal.Correction>
0.0907

> <Gold.Rescore>
     Score         DG    S(hbond)    S(metal)    S(lipo)     H(rot)  DE(clash)    DE(int)     intcor
     11.83     -15.74       1.90        0.00      67.82       1.57       1.34       2.58       ----

> <Gold.Chemscore.Fitness>
11.8299

> <Gold.Chemscore.DG>
-15.7443

> <Gold.Chemscore.ZeroCoef>
-5.4800

> <Gold.Chemscore.Hbond>
1.9031

> <Gold.Chemscore.Metal>
0.0000

> <Gold.Chemscore.Lipo>
67.8229

> <Gold.Chemscore.Internal_Hbond>
0.0000

> <Gold.Chemscore.DEClash>
1.3373

> <Gold.Chemscore.DEInternal>
2.5771

> <Gold.Chemscore.Rot>
1.5732

> <Gold.Chemscore.Internal.Correction>
   9.000000E+99

> <Gold.Chemscore.Hbonds>
donor molecule, donor type, donor heavy atom, donor atom, acceptor molecule, acceptor atom, score
      L1  H     9    23       P1  8028  0.63
      P1  H  7989  7998       L1    13  0.12
      P1  H 10752 10763       L1    16  0.63

> <Gold.Chemscore.Hbond.Weighted>
-6.3565

> <Gold.Chemscore.Metal.Weighted>
-0.0000

> <Gold.Chemscore.Lipo.Weighted>
-7.9353

> <Gold.Chemscore.Internal_Hbond.Weighted>
0.0000

> <Gold.Chemscore.DEClash.Weighted>
1.3373

> <Gold.Chemscore.DEInternal.Weighted>
2.5771

> <Gold.Chemscore.Rot.Weighted>
4.0274

> <Gold.Chemscore.Internal.Correction.Weighted>
   9.000000E+99

> <Gold.Protein.RotatedTorsions>
[ 6907 6896 6895 6894 ] final -110.71 input  -60.11 | X-H torsion
[ 7974 7965 7964 7962 ] final  -50.28 input  175.53 | X-H torsion
[ 8008 7997 7996 7995 ] final  135.97 input   59.86 | X-H torsion
[ 10167 10162 10161 10158 ] final  -83.72 input  -65.29 | X-H torsion
[ 10718 10713 10712 10709 ] final  118.88 input   66.30 | X-H torsion
[ 10763 10752 10751 10750 ] final   56.58 input  -60.55 | X-H torsion
[ 11005 11000 10999 10996 ] final -168.63 input  -57.11 | X-H torsion

> <Gold.Protein.ActiveResidues>
 VAL166  LYS551  ARG553  GLY616  TRP617  ASP618  TYR619  PRO620  LYS621  CYS622 
 ASP623  PHE694  ASN695  SER759  ASP760  ASP761  ALA762  ILE779  LEU786  VAL792 
 PHE793  MET794  SER795  GLU796  ALA797  LYS798  CYS799  TRP800  GLU811  SER814 

> <Gold.Protein.RotatedAtoms>
  150.7642  133.9342  159.3436 H   0  0  0  0  0  0  0  0  0  0  0  0  # atno 6907 bound_to 6896
  151.7244  135.0886  160.0299 H   0  0  0  0  0  0  0  0  0  0  0  0  # atno 6908 bound_to 6896
  152.3630  133.6283  159.6065 H   0  0  0  0  0  0  0  0  0  0  0  0  # atno 6909 bound_to 6896
  145.9316  140.7744  142.9597 H   0  0  0  0  0  0  0  0  0  0  0  0  # atno 7974 bound_to 7965
  156.3004  140.2457  156.3669 H   0  0  0  0  0  0  0  0  0  0  0  0  # atno 8008 bound_to 7997
  154.8825  140.0412  157.1810 H   0  0  0  0  0  0  0  0  0  0  0  0  # atno 8009 bound_to 7997
  154.8681  140.2931  155.5502 H   0  0  0  0  0  0  0  0  0  0  0  0  # atno 8010 bound_to 7997
  140.4200  143.2588  151.8903 H   0  0  0  0  0  0  0  0  0  0  0  0  # atno 10167 bound_to 10162
  157.6000  131.1052  150.7818 H   0  0  0  0  0  0  0  0  0  0  0  0  # atno 10718 bound_to 10713
  152.9834  135.5671  154.5252 H   0  0  0  0  0  0  0  0  0  0  0  0  # atno 10763 bound_to 10752
  154.4733  135.2785  155.1628 H   0  0  0  0  0  0  0  0  0  0  0  0  # atno 10764 bound_to 10752
  154.3167  135.6277  153.5542 H   0  0  0  0  0  0  0  0  0  0  0  0  # atno 10765 bound_to 10752
  140.5398  134.5533  157.5097 H   0  0  0  0  0  0  0  0  0  0  0  0  # atno 11005 bound_to 11000
  144.6765  140.2136  143.7374 LP  0  0  0  0  0  0  0  0  0  0  0  0  # atno 17320 bound_to 7965
  145.8419  139.2134  143.1822 LP  0  0  0  0  0  0  0  0  0  0  0  0  # atno 17321 bound_to 7965
  139.4782  144.5447  151.8476 LP  0  0  0  0  0  0  0  0  0  0  0  0  # atno 17342 bound_to 10162
  140.4544  144.1810  150.5900 LP  0  0  0  0  0  0  0  0  0  0  0  0  # atno 17343 bound_to 10162
  156.8219  130.4987  149.5342 LP  0  0  0  0  0  0  0  0  0  0  0  0  # atno 17370 bound_to 10713
  156.1071  130.6012  150.9988 LP  0  0  0  0  0  0  0  0  0  0  0  0  # atno 17371 bound_to 10713
  139.9510  134.7618  156.0449 LP  0  0  0  0  0  0  0  0  0  0  0  0  # atno 17394 bound_to 11000
  141.1233  133.6606  156.3272 LP  0  0  0  0  0  0  0  0  0  0  0  0  # atno 17395 bound_to 11000

$$$$
