AV-unprocessed.smi:197|AV-procd|sdf|1544|dock6
  -GOLD-   2262019403D 1   1.00000     0.00000
 Structure written by MMmdl.
 54 57  0  0  0  0  0  0  0  0  1 V2000
  142.3480  134.9715  163.1736 C   0  0  0  0  0  0  0  0  0  0  0  0
  143.7498  135.1626  163.2350 O   0  0  0  0  0  0  0  0  0  0  0  0
  144.2099  136.1289  162.3045 C   0  0  0  0  0  0  0  0  0  0  0  0
  145.7289  135.9801  162.1335 C   0  0  0  0  0  0  0  0  0  0  0  0
  146.1672  134.6628  161.4399 C   0  0  2  0  0  0  0  0  0  0  0  0
  146.5557  133.5850  162.4798 C   0  0  0  0  0  0  0  0  0  0  0  0
  146.9808  132.3931  161.8290 O   0  0  0  0  0  0  0  0  0  0  0  0
  148.1335  132.6094  161.0267 C   0  0  0  0  0  0  0  0  0  0  0  0
  147.7940  133.6258  159.9288 C   0  0  0  0  0  0  0  0  0  0  0  0
  147.2950  134.8622  160.5197 N   0  0  0  0  0  0  0  0  0  0  0  0
  147.1626  135.8188  159.5718 C   0  0  0  0  0  0  0  0  0  0  0  0
  145.9270  135.9861  159.0396 N   0  0  0  0  0  0  0  0  0  0  0  0
  145.7256  136.9076  158.0930 C   0  0  0  0  0  0  0  0  0  0  0  0
  146.6042  137.7532  157.5504 N   0  0  0  0  0  0  0  0  0  0  0  0
  147.8449  137.5991  158.0958 C   0  0  0  0  0  0  0  0  0  0  0  0
  148.2107  136.6634  159.1044 C   0  0  0  0  0  0  0  0  0  0  0  0
  149.5603  136.7997  159.4072 N   0  0  0  0  0  0  0  0  0  0  0  0
  149.9715  137.7498  158.6134 C   0  0  0  0  0  0  0  0  0  0  0  0
  149.0044  138.2950  157.7999 N   0  0  0  0  0  0  0  0  0  0  0  0
  149.1871  139.3588  156.8246 C   0  0  0  0  0  0  0  0  0  0  0  0
  150.5283  140.1308  156.9666 C   0  0  1  0  0  0  0  0  0  0  0  0
  150.6326  140.6721  158.2697 O   0  0  0  0  0  0  0  0  0  0  0  0
  151.7633  139.2843  156.6815 C   0  0  0  0  0  0  0  0  0  0  0  0
  151.8584  139.3345  155.1594 C   0  0  0  0  0  0  0  0  0  0  0  0
  151.2827  140.5806  154.7760 O   0  0  0  0  0  0  0  0  0  0  0  0
  150.7273  141.2366  155.9129 C   0  0  1  0  0  0  0  0  0  0  0  0
  149.4855  142.0517  155.5220 C   0  0  0  0  0  0  0  0  0  0  0  0
  142.0512  134.2100  163.8947 H   0  0  0  0  0  0  0  0  0  0  0  0
  142.0372  134.6370  162.1831 H   0  0  0  0  0  0  0  0  0  0  0  0
  141.8148  135.8915  163.4165 H   0  0  0  0  0  0  0  0  0  0  0  0
  143.7206  135.9678  161.3429 H   0  0  0  0  0  0  0  0  0  0  0  0
  143.9452  137.1353  162.6289 H   0  0  0  0  0  0  0  0  0  0  0  0
  146.0691  136.8475  161.5683 H   0  0  0  0  0  0  0  0  0  0  0  0
  146.2124  136.0544  163.1082 H   0  0  0  0  0  0  0  0  0  0  0  0
  145.3285  134.2720  160.8645 H   0  0  0  0  0  0  0  0  0  0  0  0
  147.3434  133.9464  163.1432 H   0  0  0  0  0  0  0  0  0  0  0  0
  145.7045  133.3280  163.1086 H   0  0  0  0  0  0  0  0  0  0  0  0
  148.9631  132.9605  161.6426 H   0  0  0  0  0  0  0  0  0  0  0  0
  148.4418  131.6630  160.5823 H   0  0  0  0  0  0  0  0  0  0  0  0
  148.6819  133.8270  159.3274 H   0  0  0  0  0  0  0  0  0  0  0  0
  147.0386  133.2113  159.2593 H   0  0  0  0  0  0  0  0  0  0  0  0
  144.7161  136.9774  157.7158 H   0  0  0  0  0  0  0  0  0  0  0  0
  150.9978  138.0873  158.6050 H   0  0  0  0  0  0  0  0  0  0  0  0
  149.1089  138.9168  155.8305 H   0  0  0  0  0  0  0  0  0  0  0  0
  148.3435  140.0440  156.9171 H   0  0  0  0  0  0  0  0  0  0  0  0
  150.7606  139.9630  158.8810 H   0  0  0  0  0  0  0  0  0  0  0  0
  152.6510  139.7589  157.1035 H   0  0  0  0  0  0  0  0  0  0  0  0
  151.7259  138.2699  157.0762 H   0  0  0  0  0  0  0  0  0  0  0  0
  152.8864  139.2465  154.8068 H   0  0  0  0  0  0  0  0  0  0  0  0
  151.2771  138.5281  154.7110 H   0  0  0  0  0  0  0  0  0  0  0  0
  151.4948  141.9269  156.2687 H   0  0  0  0  0  0  0  0  0  0  0  0
  149.0379  142.5259  156.3957 H   0  0  0  0  0  0  0  0  0  0  0  0
  148.7258  141.4313  155.0469 H   0  0  0  0  0  0  0  0  0  0  0  0
  149.7496  142.8399  154.8168 H   0  0  0  0  0  0  0  0  0  0  0  0
  1  2  1  0  0  0  0
  1 28  1  0  0  0  0
  1 29  1  0  0  0  0
  1 30  1  0  0  0  0
  2  3  1  0  0  0  0
  3  4  1  0  0  0  0
  3 31  1  0  0  0  0
  3 32  1  0  0  0  0
  4  5  1  0  0  0  0
  4 33  1  0  0  0  0
  4 34  1  0  0  0  0
  5 10  1  0  0  0  0
  5  6  1  0  0  0  0
  5 35  1  0  0  0  0
  6  7  1  0  0  0  0
  6 36  1  0  0  0  0
  6 37  1  0  0  0  0
  7  8  1  0  0  0  0
  8  9  1  0  0  0  0
  8 38  1  0  0  0  0
  8 39  1  0  0  0  0
  9 10  1  0  0  0  0
  9 40  1  0  0  0  0
  9 41  1  0  0  0  0
 10 11  1  0  0  0  0
 11 16  1  0  0  0  0
 11 12  2  0  0  0  0
 12 13  1  0  0  0  0
 13 14  2  0  0  0  0
 13 42  1  0  0  0  0
 14 15  1  0  0  0  0
 15 19  1  0  0  0  0
 15 16  2  0  0  0  0
 16 17  1  0  0  0  0
 17 18  2  0  0  0  0
 18 19  1  0  0  0  0
 18 43  1  0  0  0  0
 19 20  1  0  0  0  0
 20 21  1  0  0  0  0
 20 44  1  0  0  0  0
 20 45  1  0  0  0  0
 21 26  1  0  0  0  0
 21 22  1  0  0  0  0
 21 23  1  0  0  0  0
 22 46  1  0  0  0  0
 23 24  1  0  0  0  0
 23 47  1  0  0  0  0
 23 48  1  0  0  0  0
 24 25  1  0  0  0  0
 24 49  1  0  0  0  0
 24 50  1  0  0  0  0
 25 26  1  0  0  0  0
 26 27  1  0  0  0  0
 26 51  1  0  0  0  0
 27 52  1  0  0  0  0
 27 53  1  0  0  0  0
 27 54  1  0  0  0  0
M  END
> <s_m_source_file>
AV-unprocessed.smi

> <i_m_source_file_index>
197

> <i_lp_mmshare_version>
43012

> <i_f3d_flags>
0

> <s_epik_input>
W0NIM11PW0NIMl1bQ0gyXVtDQEBIXTFbQ0gyXU9bQ0gyXVtDSDJdTjFjKG5bY0hdbjIpYyhjMjMpbltjSF1uM1tDSDJdW0NAQF00KFtPSF0pW0NIMl1bQ0gyXU9bQ0BIXTRbQ0gzXQ==

> <s_epik_cmdline>
J2VwaWtfcHl0aG9uJywgJy1waCcsICc3LjAnLCAnLXRuJywgJzgnLCAnLW1hJywgJzIwMCcsICctbWV0YWxfYmluZGluZycsICctaW1hZScsICc8aW5maWxlLm1hZT4nLCAnLW9tYWUnLCAnPG91dGZpbGUubWFlPic=

> <r_lp_tautomer_probability>
1

> <r_epik_Ionization_Penalty>
0.000106218

> <r_epik_Ionization_Penalty_Charging>
0

> <r_epik_Ionization_Penalty_Neutral>
0.000106218

> <r_epik_State_Penalty>
-0

> <r_epik_Charging_Adjusted_Penalty>
0

> <i_epik_Tot_Q>
0

> <i_epik_Tot_abs_Q>
0

> <r_epik_Metal_State_Penalty>
-0

> <b_epik_Metal_Only>
0

> <s_lp_Force_Field>
OPLS_2005

> <r_lp_Energy>
43.403

> <b_lp_Chiralities_Consistent>
1

> <s_lp_Variant>
AV-unprocessed.smi:197-1

> <Gold.Version>
5.8.1

> <Gold.Id.Protein>
6NUR|6NUR_protein|mol2

> <Gold.PLP.Fitness>
36.2938

> <Gold.PLP.PLP>
-33.2756

> <Gold.PLP.part.hbond>
-2.0000

> <Gold.PLP.part.metal>
0.0000

> <Gold.PLP.part.buried>
-6.1572

> <Gold.PLP.part.nonpolar>
-25.8975

> <Gold.PLP.part.repulsive>
0.1626

> <Gold.PLP.ligand.clash>
0.0000

> <Gold.PLP.ligand.torsion>
1.4404

> <Gold.PLP.Chemscore.Hbond>
1.8640

> <Gold.PLP.Chemscore.CHOScore>
0.0000

> <Gold.PLP.Chemscore.Metal>
0.0000

> <Gold.Chemscore.Hbonds>
donor molecule, donor type, donor heavy atom, donor atom, acceptor molecule, acceptor atom, score
      P1  H  6896  6908       L1    17  0.23
      P1  H  7989  7998       L1    25  0.53

> <Gold.PLP.Chemscore.Internal.Correction>
0.3069

> <Gold.Rescore>
     Score         DG    S(hbond)    S(metal)    S(lipo)     H(rot)  DE(clash)    DE(int)     intcor
     10.38     -13.10       1.67        0.00      79.37       2.84       0.02       2.70       ----

> <Gold.Chemscore.Fitness>
10.3785

> <Gold.Chemscore.DG>
-13.0976

> <Gold.Chemscore.ZeroCoef>
-5.4800

> <Gold.Chemscore.Hbond>
1.6738

> <Gold.Chemscore.Metal>
0.0000

> <Gold.Chemscore.Lipo>
79.3736

> <Gold.Chemscore.Internal_Hbond>
0.0000

> <Gold.Chemscore.DEClash>
0.0178

> <Gold.Chemscore.DEInternal>
2.7012

> <Gold.Chemscore.Rot>
2.8358

> <Gold.Chemscore.Internal.Correction>
   9.000000E+99

> <Gold.Chemscore.Hbonds>
donor molecule, donor type, donor heavy atom, donor atom, acceptor molecule, acceptor atom, score
      P1  H  6896  6908       L1    17  0.24
      P1  H  7989  7998       L1    25  0.37

> <Gold.Chemscore.Hbond.Weighted>
-5.5904

> <Gold.Chemscore.Metal.Weighted>
-0.0000

> <Gold.Chemscore.Lipo.Weighted>
-9.2867

> <Gold.Chemscore.Internal_Hbond.Weighted>
0.0000

> <Gold.Chemscore.DEClash.Weighted>
0.0178

> <Gold.Chemscore.DEInternal.Weighted>
2.7012

> <Gold.Chemscore.Rot.Weighted>
7.2596

> <Gold.Chemscore.Internal.Correction.Weighted>
   9.000000E+99

> <Gold.Protein.RotatedTorsions>
[ 6907 6896 6895 6894 ] final -152.26 input  -60.11 | X-H torsion
[ 7974 7965 7964 7962 ] final  126.64 input  175.53 | X-H torsion
[ 8008 7997 7996 7995 ] final  123.08 input   59.86 | X-H torsion
[ 10167 10162 10161 10158 ] final  -10.45 input  -65.29 | X-H torsion
[ 10718 10713 10712 10709 ] final  124.51 input   66.30 | X-H torsion
[ 10763 10752 10751 10750 ] final  -52.76 input  -60.55 | X-H torsion
[ 11005 11000 10999 10996 ] final   79.96 input  -57.11 | X-H torsion

> <Gold.Protein.ActiveResidues>
 VAL166  LYS551  ARG553  GLY616  TRP617  ASP618  TYR619  PRO620  LYS621  CYS622 
 ASP623  PHE694  ASN695  SER759  ASP760  ASP761  ALA762  ILE779  LEU786  VAL792 
 PHE793  MET794  SER795  GLU796  ALA797  LYS798  CYS799  TRP800  GLU811  SER814 

> <Gold.Protein.RotatedAtoms>
  151.2251  133.4481  159.2601 H   0  0  0  0  0  0  0  0  0  0  0  0  # atno 6907 bound_to 6896
  151.0848  134.9880  159.8384 H   0  0  0  0  0  0  0  0  0  0  0  0  # atno 6908 bound_to 6896
  152.5428  134.2188  159.8832 H   0  0  0  0  0  0  0  0  0  0  0  0  # atno 6909 bound_to 6896
  145.0594  139.3817  143.5013 H   0  0  0  0  0  0  0  0  0  0  0  0  # atno 7974 bound_to 7965
  156.2752  140.2771  156.1570 H   0  0  0  0  0  0  0  0  0  0  0  0  # atno 8008 bound_to 7997
  155.0793  140.0387  157.2652 H   0  0  0  0  0  0  0  0  0  0  0  0  # atno 8009 bound_to 7997
  154.6977  140.2642  155.6756 H   0  0  0  0  0  0  0  0  0  0  0  0  # atno 8010 bound_to 7997
  140.7114  143.5747  150.9055 H   0  0  0  0  0  0  0  0  0  0  0  0  # atno 10167 bound_to 10162
  157.5579  131.1091  150.8590 H   0  0  0  0  0  0  0  0  0  0  0  0  # atno 10718 bound_to 10713
  154.1479  135.6494  153.4957 H   0  0  0  0  0  0  0  0  0  0  0  0  # atno 10763 bound_to 10752
  153.0146  135.5331  154.6838 H   0  0  0  0  0  0  0  0  0  0  0  0  # atno 10764 bound_to 10752
  154.6117  135.2954  155.0396 H   0  0  0  0  0  0  0  0  0  0  0  0  # atno 10765 bound_to 10752
  139.9152  134.7884  156.1847 H   0  0  0  0  0  0  0  0  0  0  0  0  # atno 11005 bound_to 11000
  146.3523  140.0285  142.8652 LP  0  0  0  0  0  0  0  0  0  0  0  0  # atno 17320 bound_to 7965
  145.1427  140.9580  143.4479 LP  0  0  0  0  0  0  0  0  0  0  0  0  # atno 17321 bound_to 7965
  139.9473  143.6313  152.3038 LP  0  0  0  0  0  0  0  0  0  0  0  0  # atno 17342 bound_to 10162
  139.6819  144.7655  151.1594 LP  0  0  0  0  0  0  0  0  0  0  0  0  # atno 17343 bound_to 10162
  156.9096  130.5276  149.5280 LP  0  0  0  0  0  0  0  0  0  0  0  0  # atno 17370 bound_to 10713
  156.0635  130.5683  150.9241 LP  0  0  0  0  0  0  0  0  0  0  0  0  # atno 17371 bound_to 10713
  141.0620  133.6837  156.1972 LP  0  0  0  0  0  0  0  0  0  0  0  0  # atno 17394 bound_to 11000
  140.6645  134.4933  157.5585 LP  0  0  0  0  0  0  0  0  0  0  0  0  # atno 17395 bound_to 11000

$$$$
