AV-unprocessed.smi:1381|AV-procd|sdf|5611|dock2
  -GOLD-   22720 5223D 1   1.00000     0.00000
 Structure written by MMmdl.
 41 42  0  0  0  0  0  0  0  0  2 V2000
  143.1309  146.0796  154.1378 C   0  0  0  0  0  0  0  0  0  0  0  0
  144.0801  144.9552  154.3722 C   0  0  0  0  0  0  0  0  0  0  0  0
  145.0578  144.3877  153.6055 C   0  0  0  0  0  0  0  0  0  0  0  0
  145.5794  143.3675  154.4470 C   0  0  0  0  0  0  0  0  0  0  0  0
  146.5683  142.5164  154.1324 N   0  5  0  0  0  0  0  0  0  0  0  0
  147.1086  141.7203  155.0842 C   0  0  0  0  0  0  0  0  0  0  0  0
  146.7038  140.6047  155.4200 O   0  0  0  0  0  0  0  0  0  0  0  0
  148.1821  142.2514  155.6873 N   0  0  0  0  0  0  0  0  0  0  0  0
  148.9624  141.6254  156.7490 C   0  0  0  0  0  0  0  0  0  0  0  0
  150.4499  142.0151  156.6577 C   0  0  0  0  0  0  0  0  0  0  0  0
  150.9928  142.6649  157.8499 N   0  0  0  0  0  0  0  0  0  0  0  0
  151.6280  143.9326  157.5067 C   0  0  0  0  0  0  0  0  0  0  0  0
  152.2189  144.6573  158.7325 C   0  0  1  0  0  0  0  0  0  0  0  0
  151.1506  145.2872  159.6424 C   0  0  0  0  0  0  0  0  0  0  0  0
  153.0820  143.7784  159.4561 O   0  0  0  0  0  0  0  0  0  0  0  0
  152.5078  142.5227  159.8150 C   0  0  2  0  0  0  0  0  0  0  0  0
  153.5882  141.6861  160.5080 C   0  0  0  0  0  0  0  0  0  0  0  0
  151.9569  141.8277  158.5564 C   0  0  0  0  0  0  0  0  0  0  0  0
  144.9588  143.3080  155.6135 N   0  0  0  0  0  0  0  0  0  0  0  0
  144.0005  144.3280  155.5762 O   0  0  0  0  0  0  0  0  0  0  0  0
  142.1109  145.7092  154.0382 H   0  0  0  0  0  0  0  0  0  0  0  0
  143.3860  146.6202  153.2261 H   0  0  0  0  0  0  0  0  0  0  0  0
  143.1564  146.7864  154.9673 H   0  0  0  0  0  0  0  0  0  0  0  0
  145.3573  144.6604  152.6045 H   0  0  0  0  0  0  0  0  0  0  0  0
  148.4804  143.1655  155.3801 H   0  0  0  0  0  0  0  0  0  0  0  0
  148.5534  141.8972  157.7237 H   0  0  0  0  0  0  0  0  0  0  0  0
  148.8364  140.5484  156.6466 H   0  0  0  0  0  0  0  0  0  0  0  0
  151.0444  141.1332  156.4149 H   0  0  0  0  0  0  0  0  0  0  0  0
  150.5655  142.6939  155.8117 H   0  0  0  0  0  0  0  0  0  0  0  0
  152.4284  143.7514  156.7876 H   0  0  0  0  0  0  0  0  0  0  0  0
  150.9117  144.5869  157.0081 H   0  0  0  0  0  0  0  0  0  0  0  0
  152.8462  145.4718  158.3692 H   0  0  0  0  0  0  0  0  0  0  0  0
  150.5728  146.0359  159.1001 H   0  0  0  0  0  0  0  0  0  0  0  0
  151.6106  145.7813  160.4981 H   0  0  0  0  0  0  0  0  0  0  0  0
  150.4469  144.5466  160.0219 H   0  0  0  0  0  0  0  0  0  0  0  0
  151.6954  142.6866  160.5236 H   0  0  0  0  0  0  0  0  0  0  0  0
  153.1965  140.7162  160.8156 H   0  0  0  0  0  0  0  0  0  0  0  0
  153.9598  142.1921  161.3995 H   0  0  0  0  0  0  0  0  0  0  0  0
  154.4370  141.5107  159.8463 H   0  0  0  0  0  0  0  0  0  0  0  0
  151.4930  140.8888  158.8561 H   0  0  0  0  0  0  0  0  0  0  0  0
  152.7810  141.5705  157.8890 H   0  0  0  0  0  0  0  0  0  0  0  0
  1  2  1  0  0  0  0
  1 21  1  0  0  0  0
  1 22  1  0  0  0  0
  1 23  1  0  0  0  0
  2 20  1  0  0  0  0
  2  3  2  0  0  0  0
  3  4  1  0  0  0  0
  3 24  1  0  0  0  0
  4  5  1  0  0  0  0
  4 19  2  0  0  0  0
  5  6  1  0  0  0  0
  6  7  2  0  0  0  0
  6  8  1  0  0  0  0
  8  9  1  0  0  0  0
  8 25  1  0  0  0  0
  9 10  1  0  0  0  0
  9 26  1  0  0  0  0
  9 27  1  0  0  0  0
 10 11  1  0  0  0  0
 10 28  1  0  0  0  0
 10 29  1  0  0  0  0
 11 18  1  0  0  0  0
 11 12  1  0  0  0  0
 12 13  1  0  0  0  0
 12 30  1  0  0  0  0
 12 31  1  0  0  0  0
 13 14  1  0  0  0  0
 13 15  1  0  0  0  0
 13 32  1  0  0  0  0
 14 33  1  0  0  0  0
 14 34  1  0  0  0  0
 14 35  1  0  0  0  0
 15 16  1  0  0  0  0
 16 17  1  0  0  0  0
 16 18  1  0  0  0  0
 16 36  1  0  0  0  0
 17 37  1  0  0  0  0
 17 38  1  0  0  0  0
 17 39  1  0  0  0  0
 18 40  1  0  0  0  0
 18 41  1  0  0  0  0
 19 20  1  0  0  0  0
M  CHG  1   5  -1
M  END
> <s_m_source_file>
AV-unprocessed.smi

> <i_m_source_file_index>
1381

> <i_lp_mmshare_version>
43012

> <i_f3d_flags>
0

> <s_epik_input>
W0NIM11jMVtjSF1jKG5vMSlbTkhdQyg9TylbTkhdW0NIMl1bQ0gyXU4yW0NIMl1bQ0BASF0oW0NIM10pT1tDQEBIXShbQ0gzXSlbQ0gyXTI=

> <s_epik_cmdline>
J2VwaWtfcHl0aG9uJywgJy1waCcsICc3LjAnLCAnLXRuJywgJzgnLCAnLW1hJywgJzIwMCcsICctbWV0YWxfYmluZGluZycsICctaW1hZScsICc8aW5maWxlLm1hZT4nLCAnLW9tYWUnLCAnPG91dGZpbGUubWFlPic=

> <r_epik_Ionization_Penalty>
6.88366

> <r_epik_Ionization_Penalty_Charging>
6.57198

> <r_epik_Ionization_Penalty_Neutral>
0.311678

> <r_epik_State_Penalty>
6.77619

> <r_epik_Charging_Adjusted_Penalty>
13.3482

> <i_epik_Tot_Q>
-1

> <i_epik_Tot_abs_Q>
1

> <r_epik_Metal_State_Penalty>
2.70524

> <b_epik_Metal_Only>
1

> <s_lp_Force_Field>
OPLS_2005

> <r_lp_Energy>
15.952

> <b_lp_Chiralities_Consistent>
1

> <s_lp_Variant>
AV-unprocessed.smi:1381-10

> <Gold.Version>
5.8.1

> <Gold.Id.Protein>
6NUR|6NUR_protein|mol2

> <Gold.PLP.Fitness>
41.6674

> <Gold.PLP.PLP>
-42.7377

> <Gold.PLP.part.hbond>
-1.0000

> <Gold.PLP.part.metal>
0.0000

> <Gold.PLP.part.buried>
-7.6325

> <Gold.PLP.part.nonpolar>
-35.6449

> <Gold.PLP.part.repulsive>
0.6573

> <Gold.PLP.ligand.clash>
0.0000

> <Gold.PLP.ligand.torsion>
2.0495

> <Gold.PLP.Chemscore.Hbond>
1.0000

> <Gold.PLP.Chemscore.CHOScore>
0.0000

> <Gold.PLP.Chemscore.Metal>
0.0000

> <Gold.Chemscore.Hbonds>
donor molecule, donor type, donor heavy atom, donor atom, acceptor molecule, acceptor atom, score
      L1  H     8    25       P1  8028  1.00

> <Gold.PLP.Chemscore.Internal.Correction>
0.0286

> <Gold.Rescore>
     Score         DG    S(hbond)    S(metal)    S(lipo)     H(rot)  DE(clash)    DE(int)     intcor
     14.90     -16.99       0.96        0.00     104.59       1.54       0.06       2.02       ----

> <Gold.Chemscore.Fitness>
14.9047

> <Gold.Chemscore.DG>
-16.9895

> <Gold.Chemscore.ZeroCoef>
-5.4800

> <Gold.Chemscore.Hbond>
0.9632

> <Gold.Chemscore.Metal>
0.0000

> <Gold.Chemscore.Lipo>
104.5885

> <Gold.Chemscore.Internal_Hbond>
0.0000

> <Gold.Chemscore.DEClash>
0.0622

> <Gold.Chemscore.DEInternal>
2.0226

> <Gold.Chemscore.Rot>
1.5409

> <Gold.Chemscore.Internal.Correction>
   9.000000E+99

> <Gold.Chemscore.Hbonds>
donor molecule, donor type, donor heavy atom, donor atom, acceptor molecule, acceptor atom, score
      L1  H     8    25       P1  8028  0.96

> <Gold.Chemscore.Hbond.Weighted>
-3.2172

> <Gold.Chemscore.Metal.Weighted>
-0.0000

> <Gold.Chemscore.Lipo.Weighted>
-12.2369

> <Gold.Chemscore.Internal_Hbond.Weighted>
0.0000

> <Gold.Chemscore.DEClash.Weighted>
0.0622

> <Gold.Chemscore.DEInternal.Weighted>
2.0226

> <Gold.Chemscore.Rot.Weighted>
3.9446

> <Gold.Chemscore.Internal.Correction.Weighted>
   9.000000E+99

> <Gold.Protein.RotatedTorsions>
[ 6907 6896 6895 6894 ] final  -51.36 input  -60.11 | X-H torsion
[ 7974 7965 7964 7962 ] final  125.23 input  175.53 | X-H torsion
[ 8008 7997 7996 7995 ] final  -69.57 input   59.86 | X-H torsion
[ 10167 10162 10161 10158 ] final -174.61 input  -65.29 | X-H torsion
[ 10718 10713 10712 10709 ] final  166.93 input   66.30 | X-H torsion
[ 10763 10752 10751 10750 ] final   32.50 input  -60.55 | X-H torsion
[ 11005 11000 10999 10996 ] final  -81.12 input  -57.11 | X-H torsion

> <Gold.Protein.ActiveResidues>
 VAL166  LYS551  ARG553  GLY616  TRP617  ASP618  TYR619  PRO620  LYS621  CYS622 
 ASP623  PHE694  ASN695  SER759  ASP760  ASP761  ALA762  ILE779  LEU786  VAL792 
 PHE793  MET794  SER795  GLU796  ALA797  LYS798  CYS799  TRP800  GLU811  SER814 

> <Gold.Protein.RotatedAtoms>
  150.8619  134.7973  159.7088 H   0  0  0  0  0  0  0  0  0  0  0  0  # atno 6907 bound_to 6896
  152.4653  134.5086  159.9757 H   0  0  0  0  0  0  0  0  0  0  0  0  # atno 6908 bound_to 6896
  151.5189  133.3432  159.2933 H   0  0  0  0  0  0  0  0  0  0  0  0  # atno 6909 bound_to 6896
  145.0754  139.3698  143.4936 H   0  0  0  0  0  0  0  0  0  0  0  0  # atno 7974 bound_to 7965
  154.4948  140.0851  156.7673 H   0  0  0  0  0  0  0  0  0  0  0  0  # atno 8008 bound_to 7997
  155.4143  140.3443  155.4248 H   0  0  0  0  0  0  0  0  0  0  0  0  # atno 8009 bound_to 7997
  156.1379  140.1520  156.8954 H   0  0  0  0  0  0  0  0  0  0  0  0  # atno 8010 bound_to 7997
  139.5624  144.1837  152.1260 H   0  0  0  0  0  0  0  0  0  0  0  0  # atno 10167 bound_to 10162
  157.0588  131.0334  151.2654 H   0  0  0  0  0  0  0  0  0  0  0  0  # atno 10718 bound_to 10713
  153.0259  135.6411  154.1364 H   0  0  0  0  0  0  0  0  0  0  0  0  # atno 10763 bound_to 10752
  154.1093  135.2854  155.3236 H   0  0  0  0  0  0  0  0  0  0  0  0  # atno 10764 bound_to 10752
  154.6343  135.5482  153.7778 H   0  0  0  0  0  0  0  0  0  0  0  0  # atno 10765 bound_to 10752
  141.1667  133.7181  156.8374 H   0  0  0  0  0  0  0  0  0  0  0  0  # atno 11005 bound_to 11000
  146.3530  140.0518  142.8635 LP  0  0  0  0  0  0  0  0  0  0  0  0  # atno 17320 bound_to 7965
  145.1242  140.9480  143.4582 LP  0  0  0  0  0  0  0  0  0  0  0  0  # atno 17321 bound_to 7965
  140.1353  144.5251  150.6777 LP  0  0  0  0  0  0  0  0  0  0  0  0  # atno 17342 bound_to 10162
  140.6905  143.2373  151.5143 LP  0  0  0  0  0  0  0  0  0  0  0  0  # atno 17343 bound_to 10162
  157.4971  130.7857  149.7567 LP  0  0  0  0  0  0  0  0  0  0  0  0  # atno 17370 bound_to 10713
  155.9985  130.3894  150.2700 LP  0  0  0  0  0  0  0  0  0  0  0  0  # atno 17371 bound_to 10713
  140.2007  134.8899  157.3166 LP  0  0  0  0  0  0  0  0  0  0  0  0  # atno 17394 bound_to 11000
  140.2190  134.4046  155.7575 LP  0  0  0  0  0  0  0  0  0  0  0  0  # atno 17395 bound_to 11000

$$$$
