AV-unprocessed.smi:47|AV-procd|sdf|437|dock3
  -GOLD-   2262016303D 1   1.00000     0.00000
 Structure written by MMmdl.
 31 33  0  0  0  0  0  0  0  0  1 V2000
  145.7820  139.8632  153.9016 O   0  0  0  0  0  0  0  0  0  0  0  0
  146.8305  140.7850  153.6923 C   0  0  1  0  0  0  0  0  0  0  0  0
  146.6811  142.0427  154.5434 C   0  0  0  0  0  0  0  0  0  0  0  0
  148.0257  142.6017  154.6651 N   0  0  0  0  0  0  0  0  0  0  0  0
  148.9938  141.5448  154.3436 C   0  0  1  0  0  0  0  0  0  0  0  0
  150.0791  141.3878  155.3634 C   0  0  0  0  0  0  0  0  0  0  0  0
  150.9880  140.4254  155.2444 N   0  0  0  0  0  0  0  0  0  0  0  0
  151.7305  140.6069  156.3556 N   0  0  0  0  0  0  0  0  0  0  0  0
  151.2443  141.6229  157.0799 C   0  0  0  0  0  0  0  0  0  0  0  0
  151.8099  142.0891  158.3478 C   0  0  0  0  0  0  0  0  0  0  0  0
  151.6645  143.4389  158.7439 C   0  0  0  0  0  0  0  0  0  0  0  0
  152.2083  143.8882  159.9631 C   0  0  0  0  0  0  0  0  0  0  0  0
  152.9045  142.9939  160.7975 C   0  0  0  0  0  0  0  0  0  0  0  0
  153.0562  141.6491  160.4115 C   0  0  0  0  0  0  0  0  0  0  0  0
  152.5118  141.1984  159.1931 C   0  0  0  0  0  0  0  0  0  0  0  0
  150.1725  142.1546  156.4918 N   0  0  0  0  0  0  0  0  0  0  0  0
  148.1843  140.2568  154.1427 C   0  0  0  0  0  0  0  0  0  0  0  0
  146.8699  141.0537  152.6357 H   0  0  0  0  0  0  0  0  0  0  0  0
  149.4595  141.7983  153.3900 H   0  0  0  0  0  0  0  0  0  0  0  0
  152.5292  140.0308  156.5794 H   0  0  0  0  0  0  0  0  0  0  0  0
  145.1240  140.0008  153.2373 H   0  0  0  0  0  0  0  0  0  0  0  0
  145.9792  142.7590  154.1155 H   0  0  0  0  0  0  0  0  0  0  0  0
  146.3146  141.7736  155.5352 H   0  0  0  0  0  0  0  0  0  0  0  0
  148.1280  143.3469  153.9840 H   0  0  0  0  0  0  0  0  0  0  0  0
  151.1336  144.1424  158.1197 H   0  0  0  0  0  0  0  0  0  0  0  0
  152.0908  144.9205  160.2582 H   0  0  0  0  0  0  0  0  0  0  0  0
  153.3214  143.3387  161.7324 H   0  0  0  0  0  0  0  0  0  0  0  0
  153.5911  140.9616  161.0498 H   0  0  0  0  0  0  0  0  0  0  0  0
  152.6402  140.1624  158.9155 H   0  0  0  0  0  0  0  0  0  0  0  0
  148.0714  139.7329  155.0939 H   0  0  0  0  0  0  0  0  0  0  0  0
  148.6441  139.5685  153.4330 H   0  0  0  0  0  0  0  0  0  0  0  0
  1  2  1  0  0  0  0
  1 21  1  0  0  0  0
  2 18  1  0  0  0  0
  2 17  1  0  0  0  0
  2  3  1  0  0  0  0
  3  4  1  0  0  0  0
  3 22  1  0  0  0  0
  3 23  1  0  0  0  0
  4  5  1  0  0  0  0
  4 24  1  0  0  0  0
  5 19  1  0  0  0  0
  5  6  1  0  0  0  0
  5 17  1  0  0  0  0
  6 16  1  0  0  0  0
  6  7  2  0  0  0  0
  7  8  1  0  0  0  0
  8 20  1  0  0  0  0
  8  9  1  0  0  0  0
  9 10  1  0  0  0  0
  9 16  2  0  0  0  0
 10 15  1  0  0  0  0
 10 11  2  0  0  0  0
 11 12  1  0  0  0  0
 11 25  1  0  0  0  0
 12 13  2  0  0  0  0
 12 26  1  0  0  0  0
 13 14  1  0  0  0  0
 13 27  1  0  0  0  0
 14 15  2  0  0  0  0
 14 28  1  0  0  0  0
 15 29  1  0  0  0  0
 17 30  1  0  0  0  0
 17 31  1  0  0  0  0
M  END
> <s_m_source_file>
AV-unprocessed.smi

> <i_m_source_file_index>
47

> <i_lp_mmshare_version>
43012

> <i_f3d_flags>
0

> <s_epik_input>
W09IXVtDQEhdMVtDSDJdW05IXVtDQEBIXShbQ0gyXTEpYzJuW25IXWMobjIpLWMzW2NIXVtjSF1bY0hdW2NIXVtjSF0z

> <s_epik_cmdline>
J2VwaWtfcHl0aG9uJywgJy1waCcsICc3LjAnLCAnLXRuJywgJzgnLCAnLW1hJywgJzIwMCcsICctbWV0YWxfYmluZGluZycsICctaW1hZScsICc8aW5maWxlLm1hZT4nLCAnLW9tYWUnLCAnPG91dGZpbGUubWFlPic=

> <r_epik_Ionization_Penalty>
1.65981

> <r_epik_Ionization_Penalty_Charging>
0

> <r_epik_Ionization_Penalty_Neutral>
1.65981

> <r_epik_State_Penalty>
2.0492

> <r_epik_Charging_Adjusted_Penalty>
2.0492

> <i_epik_Tot_Q>
0

> <i_epik_Tot_abs_Q>
0

> <r_epik_Metal_State_Penalty>
2.54641

> <b_epik_Metal_Only>
0

> <s_lp_Force_Field>
OPLS_2005

> <r_lp_Energy>
26.3826

> <b_lp_Chiralities_Consistent>
1

> <s_lp_Variant>
AV-unprocessed.smi:47-15

> <Gold.Version>
5.8.1

> <Gold.Id.Protein>
6NUR|6NUR_protein|mol2

> <Gold.PLP.Fitness>
41.9953

> <Gold.PLP.PLP>
-36.6914

> <Gold.PLP.part.hbond>
-2.8411

> <Gold.PLP.part.metal>
0.0000

> <Gold.PLP.part.buried>
-3.9080

> <Gold.PLP.part.nonpolar>
-30.2727

> <Gold.PLP.part.repulsive>
1.1995

> <Gold.PLP.ligand.clash>
0.0000

> <Gold.PLP.ligand.torsion>
0.3549

> <Gold.PLP.Chemscore.Hbond>
2.0000

> <Gold.PLP.Chemscore.CHOScore>
0.0000

> <Gold.PLP.Chemscore.Metal>
0.0000

> <Gold.Chemscore.Hbonds>
donor molecule, donor type, donor heavy atom, donor atom, acceptor molecule, acceptor atom, score
      L1  H     1    21       P1 10175  1.00
      P1  H  7989  7998       L1     7  0.90

> <Gold.PLP.Chemscore.Internal.Correction>
0.0138

> <Gold.Rescore>
     Score         DG    S(hbond)    S(metal)    S(lipo)     H(rot)  DE(clash)    DE(int)     intcor
     17.13     -17.42       1.75        0.00      84.37       1.48       0.08       0.21       ----

> <Gold.Chemscore.Fitness>
17.1262

> <Gold.Chemscore.DG>
-17.4171

> <Gold.Chemscore.ZeroCoef>
-5.4800

> <Gold.Chemscore.Hbond>
1.7518

> <Gold.Chemscore.Metal>
0.0000

> <Gold.Chemscore.Lipo>
84.3715

> <Gold.Chemscore.Internal_Hbond>
0.0000

> <Gold.Chemscore.DEClash>
0.0844

> <Gold.Chemscore.DEInternal>
0.2065

> <Gold.Chemscore.Rot>
1.4786

> <Gold.Chemscore.Internal.Correction>
   9.000000E+99

> <Gold.Chemscore.Hbonds>
donor molecule, donor type, donor heavy atom, donor atom, acceptor molecule, acceptor atom, score
      L1  H     1    21       P1 10175  1.00
      P1  H  7989  7998       L1     7  0.17

> <Gold.Chemscore.Hbond.Weighted>
-5.8509

> <Gold.Chemscore.Metal.Weighted>
-0.0000

> <Gold.Chemscore.Lipo.Weighted>
-9.8715

> <Gold.Chemscore.Internal_Hbond.Weighted>
0.0000

> <Gold.Chemscore.DEClash.Weighted>
0.0844

> <Gold.Chemscore.DEInternal.Weighted>
0.2065

> <Gold.Chemscore.Rot.Weighted>
3.7853

> <Gold.Chemscore.Internal.Correction.Weighted>
   9.000000E+99

> <Gold.Protein.RotatedTorsions>
[ 6907 6896 6895 6894 ] final   -9.61 input  -60.11 | X-H torsion
[ 7974 7965 7964 7962 ] final  -23.20 input  175.53 | X-H torsion
[ 8008 7997 7996 7995 ] final  126.57 input   59.86 | X-H torsion
[ 10167 10162 10161 10158 ] final  -22.16 input  -65.29 | X-H torsion
[ 10718 10713 10712 10709 ] final -151.14 input   66.30 | X-H torsion
[ 10763 10752 10751 10750 ] final   55.22 input  -60.55 | X-H torsion
[ 11005 11000 10999 10996 ] final  122.95 input  -57.11 | X-H torsion

> <Gold.Protein.ActiveResidues>
 VAL166  LYS551  ARG553  GLY616  TRP617  ASP618  TYR619  PRO620  LYS621  CYS622 
 ASP623  PHE694  ASN695  SER759  ASP760  ASP761  ALA762  ILE779  LEU786  VAL792 
 PHE793  MET794  SER795  GLU796  ALA797  LYS798  CYS799  TRP800  GLU811  SER814 

> <Gold.Protein.RotatedAtoms>
  151.4150  135.0990  159.9596 H   0  0  0  0  0  0  0  0  0  0  0  0  # atno 6907 bound_to 6896
  152.5007  133.8761  159.7333 H   0  0  0  0  0  0  0  0  0  0  0  0  # atno 6908 bound_to 6896
  150.9264  133.6761  159.2848 H   0  0  0  0  0  0  0  0  0  0  0  0  # atno 6909 bound_to 6896
  146.1630  140.4584  142.8563 H   0  0  0  0  0  0  0  0  0  0  0  0  # atno 7974 bound_to 7965
  156.2867  140.2689  156.2133 H   0  0  0  0  0  0  0  0  0  0  0  0  # atno 8008 bound_to 7997
  155.0243  140.0386  157.2467 H   0  0  0  0  0  0  0  0  0  0  0  0  # atno 8009 bound_to 7997
  154.7409  140.2725  155.6379 H   0  0  0  0  0  0  0  0  0  0  0  0  # atno 8010 bound_to 7997
  140.7285  143.4561  151.0447 H   0  0  0  0  0  0  0  0  0  0  0  0  # atno 10167 bound_to 10162
  156.4553  130.8187  151.2418 H   0  0  0  0  0  0  0  0  0  0  0  0  # atno 10718 bound_to 10713
  152.9814  135.5718  154.5031 H   0  0  0  0  0  0  0  0  0  0  0  0  # atno 10763 bound_to 10752
  154.4547  135.2779  155.1758 H   0  0  0  0  0  0  0  0  0  0  0  0  # atno 10764 bound_to 10752
  154.3371  135.6237  153.5632 H   0  0  0  0  0  0  0  0  0  0  0  0  # atno 10765 bound_to 10752
  139.9291  134.9641  156.8186 H   0  0  0  0  0  0  0  0  0  0  0  0  # atno 11005 bound_to 11000
  144.8053  140.6288  143.6451 LP  0  0  0  0  0  0  0  0  0  0  0  0  # atno 17320 bound_to 7965
  145.4540  139.1520  143.3903 LP  0  0  0  0  0  0  0  0  0  0  0  0  # atno 17321 bound_to 7965
  139.8241  143.7780  152.3178 LP  0  0  0  0  0  0  0  0  0  0  0  0  # atno 17342 bound_to 10162
  139.7873  144.7423  151.0004 LP  0  0  0  0  0  0  0  0  0  0  0  0  # atno 17343 bound_to 10162
  157.7501  131.0124  150.3385 LP  0  0  0  0  0  0  0  0  0  0  0  0  # atno 17370 bound_to 10713
  156.3773  130.3874  149.7129 LP  0  0  0  0  0  0  0  0  0  0  0  0  # atno 17371 bound_to 10713
  140.6253  133.9956  155.7637 LP  0  0  0  0  0  0  0  0  0  0  0  0  # atno 17394 bound_to 11000
  141.0868  133.9979  157.3301 LP  0  0  0  0  0  0  0  0  0  0  0  0  # atno 17395 bound_to 11000

$$$$
