AV-unprocessed.smi:112|AV-procd|sdf|1085|dock3
  -GOLD-   2262018183D 1   1.00000     0.00000
 Structure written by MMmdl.
 54 57  0  0  0  0  0  0  0  0  3 V2000
  144.0078  137.5413  155.4560 C   0  0  0  0  0  0  0  0  0  0  0  0
  144.8716  137.7474  154.2214 C   0  0  0  0  0  0  0  0  0  0  0  0
  144.9986  136.7974  153.2663 C   0  0  0  0  0  0  0  0  0  0  0  0
  145.7737  136.9550  152.1313 N   0  0  0  0  0  0  0  0  0  0  0  0
  145.8676  135.8836  151.0671 C   0  0  2  0  0  0  0  0  0  0  0  0
  144.4827  135.6129  150.4584 C   0  0  0  0  0  0  0  0  0  0  0  0
  144.4656  134.1012  150.3494 C   0  0  2  0  0  0  0  0  0  0  0  0
  143.1446  133.6037  150.4085 O   0  0  0  0  0  0  0  0  0  0  0  0
  145.2943  133.7083  151.5742 C   0  0  1  0  0  0  0  0  0  0  0  0
  145.8884  132.2895  151.5944 C   0  0  0  0  0  0  0  0  0  0  0  0
  146.4826  131.9487  150.3596 O   0  0  0  0  0  0  0  0  0  0  0  0
  146.3237  134.6893  151.6365 O   0  0  0  0  0  0  0  0  0  0  0  0
  146.4657  138.1639  151.9221 C   0  0  0  0  0  0  0  0  0  0  0  0
  147.1348  138.3377  150.9007 O   0  0  0  0  0  0  0  0  0  0  0  0
  146.3619  139.1732  152.9052 N   0  0  0  0  0  0  0  0  0  0  0  0
  147.0754  140.4509  152.6809 C   0  0  0  0  0  0  0  0  0  0  0  0
  147.8515  140.9550  153.9181 C   0  0  0  0  0  0  0  0  0  0  0  0
  147.4932  142.0022  154.4581 O   0  0  0  0  0  0  0  0  0  0  0  0
  148.8955  140.2099  154.3594 N   0  0  0  0  0  0  0  0  0  0  0  0
  149.3203  138.9496  153.7255 C   0  0  0  0  0  0  0  0  0  0  0  0
  150.5059  138.4208  154.5617 C   0  0  0  0  0  0  0  0  0  0  0  0
  150.6778  139.4777  155.6118 C   0  0  0  0  0  0  0  0  0  0  0  0
  151.6437  139.4969  156.6319 C   0  0  0  0  0  0  0  0  0  0  0  0
  151.6558  140.5817  157.5432 C   0  0  0  0  0  0  0  0  0  0  0  0
  152.6553  140.6347  158.6285 N   0  3  0  0  0  0  0  0  0  0  0  0
  152.7085  141.6451  159.3222 O   0  0  0  0  0  0  0  0  0  0  0  0
  153.3894  139.6649  158.7895 O   0  5  0  0  0  0  0  0  0  0  0  0
  150.6932  141.6159  157.3978 C   0  0  0  0  0  0  0  0  0  0  0  0
  149.7299  141.5812  156.3657 C   0  0  0  0  0  0  0  0  0  0  0  0
  149.7361  140.4901  155.4696 C   0  0  0  0  0  0  0  0  0  0  0  0
  145.5742  139.0244  154.0730 C   0  0  0  0  0  0  0  0  0  0  0  0
  145.4933  139.9378  154.8966 O   0  0  0  0  0  0  0  0  0  0  0  0
  143.5482  136.5526  155.4701 H   0  0  0  0  0  0  0  0  0  0  0  0
  143.2076  138.2814  155.4878 H   0  0  0  0  0  0  0  0  0  0  0  0
  144.6055  137.6423  156.3626 H   0  0  0  0  0  0  0  0  0  0  0  0
  144.4561  135.8754  153.4087 H   0  0  0  0  0  0  0  0  0  0  0  0
  146.6109  136.2255  150.3449 H   0  0  0  0  0  0  0  0  0  0  0  0
  143.7089  135.9601  151.1462 H   0  0  0  0  0  0  0  0  0  0  0  0
  144.3626  136.1250  149.5033 H   0  0  0  0  0  0  0  0  0  0  0  0
  144.9462  133.7945  149.4199 H   0  0  0  0  0  0  0  0  0  0  0  0
  142.5597  134.2638  150.0687 H   0  0  0  0  0  0  0  0  0  0  0  0
  144.6852  133.8395  152.4706 H   0  0  0  0  0  0  0  0  0  0  0  0
  146.6229  132.1922  152.3943 H   0  0  0  0  0  0  0  0  0  0  0  0
  145.0997  131.5642  151.7958 H   0  0  0  0  0  0  0  0  0  0  0  0
  147.2487  131.4224  150.5316 H   0  0  0  0  0  0  0  0  0  0  0  0
  147.7713  140.3665  151.8452 H   0  0  0  0  0  0  0  0  0  0  0  0
  146.3664  141.2154  152.3610 H   0  0  0  0  0  0  0  0  0  0  0  0
  148.5068  138.2231  153.7126 H   0  0  0  0  0  0  0  0  0  0  0  0
  149.6386  139.1274  152.6974 H   0  0  0  0  0  0  0  0  0  0  0  0
  150.2790  137.4598  155.0244 H   0  0  0  0  0  0  0  0  0  0  0  0
  151.4133  138.3207  153.9651 H   0  0  0  0  0  0  0  0  0  0  0  0
  152.3584  138.6904  156.7071 H   0  0  0  0  0  0  0  0  0  0  0  0
  150.6840  142.4527  158.0807 H   0  0  0  0  0  0  0  0  0  0  0  0
  149.0180  142.3878  156.2897 H   0  0  0  0  0  0  0  0  0  0  0  0
  1  2  1  0  0  0  0
  1 33  1  0  0  0  0
  1 34  1  0  0  0  0
  1 35  1  0  0  0  0
  2 31  1  0  0  0  0
  2  3  2  0  0  0  0
  3  4  1  0  0  0  0
  3 36  1  0  0  0  0
  4  5  1  0  0  0  0
  4 13  1  0  0  0  0
  5 12  1  0  0  0  0
  5  6  1  0  0  0  0
  5 37  1  0  0  0  0
  6  7  1  0  0  0  0
  6 38  1  0  0  0  0
  6 39  1  0  0  0  0
  7  8  1  0  0  0  0
  7  9  1  0  0  0  0
  7 40  1  0  0  0  0
  8 41  1  0  0  0  0
  9 10  1  0  0  0  0
  9 12  1  0  0  0  0
  9 42  1  0  0  0  0
 10 11  1  0  0  0  0
 10 43  1  0  0  0  0
 10 44  1  0  0  0  0
 11 45  1  0  0  0  0
 13 14  2  0  0  0  0
 13 15  1  0  0  0  0
 15 16  1  0  0  0  0
 15 31  1  0  0  0  0
 16 17  1  0  0  0  0
 16 46  1  0  0  0  0
 16 47  1  0  0  0  0
 17 18  2  0  0  0  0
 17 19  1  0  0  0  0
 19 30  1  0  0  0  0
 19 20  1  0  0  0  0
 20 21  1  0  0  0  0
 20 48  1  0  0  0  0
 20 49  1  0  0  0  0
 21 22  1  0  0  0  0
 21 50  1  0  0  0  0
 21 51  1  0  0  0  0
 22 30  2  0  0  0  0
 22 23  1  0  0  0  0
 23 24  2  0  0  0  0
 23 52  1  0  0  0  0
 24 25  1  0  0  0  0
 24 28  1  0  0  0  0
 25 26  2  0  0  0  0
 25 27  1  0  0  0  0
 28 29  2  0  0  0  0
 28 53  1  0  0  0  0
 29 30  1  0  0  0  0
 29 54  1  0  0  0  0
 31 32  2  0  0  0  0
M  CHG  1  25   1
M  CHG  1  27  -1
M  END
> <s_m_source_file>
AV-unprocessed.smi

> <i_m_source_file_index>
112

> <i_lp_mmshare_version>
43012

> <i_f3d_flags>
0

> <s_epik_input>
W09IXVtDSDJdW0NAQEhdKE8xKVtDQEhdKFtPSF0pW0NIMl1bQ0BIXTFuKFtjSF1jMltDSDNdKWMoPU8pbihjMj1PKVtDSDJdQyg9TylOKFtDSDJdW0NIMl0zKWMoYzM0KVtjSF1bY0hdYyhbY0hdNClbTitdKD1PKVtPLV0=

> <s_epik_cmdline>
J2VwaWtfcHl0aG9uJywgJy1waCcsICc3LjAnLCAnLXRuJywgJzgnLCAnLW1hJywgJzIwMCcsICctbWV0YWxfYmluZGluZycsICctaW1hZScsICc8aW5maWxlLm1hZT4nLCAnLW9tYWUnLCAnPG91dGZpbGUubWFlPic=

> <r_lp_tautomer_probability>
1

> <r_epik_Ionization_Penalty>
2.5696e-07

> <r_epik_Ionization_Penalty_Charging>
1.04886e-08

> <r_epik_Ionization_Penalty_Neutral>
2.46472e-07

> <r_epik_State_Penalty>
-0

> <r_epik_Charging_Adjusted_Penalty>
1.04886e-08

> <i_epik_Tot_Q>
0

> <i_epik_Tot_abs_Q>
2

> <r_epik_Metal_State_Penalty>
-0

> <b_epik_Metal_Only>
0

> <s_epik_Chemistry_Notes>
This compound contains an acetal/aminal-like group ( X-CH(R)-Y where X, Y are N, S, or O) that may be acid/base labile, releasing an aldehyde.

> <s_lp_Force_Field>
OPLS_2005

> <r_lp_Energy>
57.8842

> <b_lp_Chiralities_Consistent>
1

> <s_lp_Variant>
AV-unprocessed.smi:112-3

> <Gold.Version>
5.8.1

> <Gold.Id.Protein>
6NUR|6NUR_protein|mol2

> <Gold.PLP.Fitness>
54.0844

> <Gold.PLP.PLP>
-42.7635

> <Gold.PLP.part.hbond>
-3.9338

> <Gold.PLP.part.metal>
0.0000

> <Gold.PLP.part.buried>
-1.6822

> <Gold.PLP.part.nonpolar>
-41.2517

> <Gold.PLP.part.repulsive>
3.4333

> <Gold.PLP.ligand.clash>
0.0589

> <Gold.PLP.ligand.torsion>
0.3272

> <Gold.PLP.Chemscore.Hbond>
4.0000

> <Gold.PLP.Chemscore.CHOScore>
0.0000

> <Gold.PLP.Chemscore.Metal>
0.0000

> <Gold.Chemscore.Hbonds>
donor molecule, donor type, donor heavy atom, donor atom, acceptor molecule, acceptor atom, score
      L1  H     8    41       P1 10186  0.82
      L1  H    11    45       P1 10747  1.00
      P1  H  7954  7966       L1    14  0.96
      P1  H  7997  8010       L1    27  0.65

> <Gold.PLP.Chemscore.Internal.Correction>
0.0341

> <Gold.Rescore>
     Score         DG    S(hbond)    S(metal)    S(lipo)     H(rot)  DE(clash)    DE(int)     intcor
     13.53     -19.91       3.85        0.00      85.30       3.29       1.95       4.43       ----

> <Gold.Chemscore.Fitness>
13.5264

> <Gold.Chemscore.DG>
-19.9084

> <Gold.Chemscore.ZeroCoef>
-5.4800

> <Gold.Chemscore.Hbond>
3.8549

> <Gold.Chemscore.Metal>
0.0000

> <Gold.Chemscore.Lipo>
85.2951

> <Gold.Chemscore.Internal_Hbond>
0.0000

> <Gold.Chemscore.DEClash>
1.9540

> <Gold.Chemscore.DEInternal>
4.4280

> <Gold.Chemscore.Rot>
3.2916

> <Gold.Chemscore.Internal.Correction>
   9.000000E+99

> <Gold.Chemscore.Hbonds>
donor molecule, donor type, donor heavy atom, donor atom, acceptor molecule, acceptor atom, score
      L1  H     8    41       P1 10186  0.75
      L1  H    11    45       P1 10747  0.98
      P1  H  7954  7966       L1    14  0.89
      P1  H  7997  8010       L1    27  0.19

> <Gold.Chemscore.Hbond.Weighted>
-12.8754

> <Gold.Chemscore.Metal.Weighted>
-0.0000

> <Gold.Chemscore.Lipo.Weighted>
-9.9795

> <Gold.Chemscore.Internal_Hbond.Weighted>
0.0000

> <Gold.Chemscore.DEClash.Weighted>
1.9540

> <Gold.Chemscore.DEInternal.Weighted>
4.4280

> <Gold.Chemscore.Rot.Weighted>
8.4265

> <Gold.Chemscore.Internal.Correction.Weighted>
   9.000000E+99

> <Gold.Protein.RotatedTorsions>
[ 6907 6896 6895 6894 ] final -118.66 input  -60.11 | X-H torsion
[ 7974 7965 7964 7962 ] final -142.00 input  175.53 | X-H torsion
[ 8008 7997 7996 7995 ] final   13.19 input   59.86 | X-H torsion
[ 10167 10162 10161 10158 ] final  -59.40 input  -65.29 | X-H torsion
[ 10718 10713 10712 10709 ] final  -36.20 input   66.30 | X-H torsion
[ 10763 10752 10751 10750 ] final   17.90 input  -60.55 | X-H torsion
[ 11005 11000 10999 10996 ] final  -81.68 input  -57.11 | X-H torsion

> <Gold.Protein.ActiveResidues>
 VAL166  LYS551  ARG553  GLY616  TRP617  ASP618  TYR619  PRO620  LYS621  CYS622 
 ASP623  PHE694  ASN695  SER759  ASP760  ASP761  ALA762  ILE779  LEU786  VAL792 
 PHE793  MET794  SER795  GLU796  ALA797  LYS798  CYS799  TRP800  GLU811  SER814 

> <Gold.Protein.RotatedAtoms>
  150.8239  133.8206  159.3126 H   0  0  0  0  0  0  0  0  0  0  0  0  # atno 6907 bound_to 6896
  151.5956  135.1049  160.0058 H   0  0  0  0  0  0  0  0  0  0  0  0  # atno 6908 bound_to 6896
  152.4325  133.7262  159.6618 H   0  0  0  0  0  0  0  0  0  0  0  0  # atno 6909 bound_to 6896
  144.8477  140.6011  143.5411 H   0  0  0  0  0  0  0  0  0  0  0  0  # atno 7974 bound_to 7965
  154.8310  140.2899  155.5722 H   0  0  0  0  0  0  0  0  0  0  0  0  # atno 8008 bound_to 7997
  156.3005  140.2532  156.3166 H   0  0  0  0  0  0  0  0  0  0  0  0  # atno 8009 bound_to 7997
  154.9231  140.0385  157.1998 H   0  0  0  0  0  0  0  0  0  0  0  0  # atno 8010 bound_to 7997
  140.6137  143.2395  151.5648 H   0  0  0  0  0  0  0  0  0  0  0  0  # atno 10167 bound_to 10162
  156.3297  130.4277  149.7884 H   0  0  0  0  0  0  0  0  0  0  0  0  # atno 10718 bound_to 10713
  153.1297  135.6737  153.9198 H   0  0  0  0  0  0  0  0  0  0  0  0  # atno 10763 bound_to 10752
  153.8688  135.3072  155.3442 H   0  0  0  0  0  0  0  0  0  0  0  0  # atno 10764 bound_to 10752
  154.7696  135.4946  153.9704 H   0  0  0  0  0  0  0  0  0  0  0  0  # atno 10765 bound_to 10752
  141.1666  133.7208  156.8459 H   0  0  0  0  0  0  0  0  0  0  0  0  # atno 11005 bound_to 11000
  145.4564  139.1517  143.3890 LP  0  0  0  0  0  0  0  0  0  0  0  0  # atno 17320 bound_to 7965
  146.2758  140.4692  142.8796 LP  0  0  0  0  0  0  0  0  0  0  0  0  # atno 17321 bound_to 7965
  139.5381  144.2723  152.1295 LP  0  0  0  0  0  0  0  0  0  0  0  0  # atno 17342 bound_to 10162
  140.1927  144.4735  150.6471 LP  0  0  0  0  0  0  0  0  0  0  0  0  # atno 17343 bound_to 10162
  156.5161  130.8194  151.3187 LP  0  0  0  0  0  0  0  0  0  0  0  0  # atno 17370 bound_to 10713
  157.7428  130.9898  150.2543 LP  0  0  0  0  0  0  0  0  0  0  0  0  # atno 17371 bound_to 10713
  140.1950  134.8938  157.3104 LP  0  0  0  0  0  0  0  0  0  0  0  0  # atno 17394 bound_to 11000
  140.2249  134.3979  155.7548 LP  0  0  0  0  0  0  0  0  0  0  0  0  # atno 17395 bound_to 11000

$$$$
