AV-unprocessed.smi:537|AV-procd|sdf|2865|dock2
  -GOLD-   2262023353D 1   1.00000     0.00000
 Structure written by MMmdl.
 32 33  0  0  0  0  0  0  0  0  2 V2000
  150.0593  145.1297  160.0146 C   0  0  0  0  0  0  0  0  0  0  0  0
  150.9209  143.9649  159.9792 N   0  0  0  0  0  0  0  0  0  0  0  0
  151.0953  142.9737  159.0208 C   0  0  0  0  0  0  0  0  0  0  0  0
  150.4385  142.9236  157.8611 N   0  0  0  0  0  0  0  0  0  0  0  0
  150.9600  141.7812  157.2702 C   0  0  0  0  0  0  0  0  0  0  0  0
  151.8915  141.1893  158.0659 C   0  0  0  0  0  0  0  0  0  0  0  0
  152.6274  139.9610  157.6950 C   0  0  0  0  0  0  0  0  0  0  0  0
  153.4675  139.4700  158.4464 O   0  0  0  0  0  0  0  0  0  0  0  0
  152.2527  139.4876  156.4642 N   0  5  0  0  0  0  0  0  0  0  0  0
  151.3119  140.0517  155.6285 C   0  0  0  0  0  0  0  0  0  0  0  0
  151.0391  139.5519  154.5369 O   0  0  0  0  0  0  0  0  0  0  0  0
  150.6586  141.1953  156.0125 N   0  0  0  0  0  0  0  0  0  0  0  0
  149.6464  141.8561  155.1829 C   0  0  0  0  0  0  0  0  0  0  0  0
  151.9812  141.9671  159.2246 N   0  0  0  0  0  0  0  0  0  0  0  0
  152.8312  141.7688  160.3958 C   0  0  0  0  0  0  0  0  0  0  0  0
  154.3149  141.6396  160.0202 C   0  0  0  0  0  0  0  0  0  0  0  0
  155.0499  141.1074  161.1097 O   0  0  0  0  0  0  0  0  0  0  0  0
  154.7007  139.7662  161.4002 C   0  0  0  0  0  0  0  0  0  0  0  0
  150.1921  145.6698  160.9519 H   0  0  0  0  0  0  0  0  0  0  0  0
  149.0145  144.8302  159.9308 H   0  0  0  0  0  0  0  0  0  0  0  0
  150.2952  145.8014  159.1892 H   0  0  0  0  0  0  0  0  0  0  0  0
  151.4948  143.8571  160.8028 H   0  0  0  0  0  0  0  0  0  0  0  0
  149.4445  141.3587  154.2340 H   0  0  0  0  0  0  0  0  0  0  0  0
  149.9621  142.8745  154.9548 H   0  0  0  0  0  0  0  0  0  0  0  0
  148.7025  141.9120  155.7257 H   0  0  0  0  0  0  0  0  0  0  0  0
  152.6939  142.6071  161.0792 H   0  0  0  0  0  0  0  0  0  0  0  0
  152.4967  140.8932  160.9488 H   0  0  0  0  0  0  0  0  0  0  0  0
  154.4216  140.9892  159.1506 H   0  0  0  0  0  0  0  0  0  0  0  0
  154.7111  142.6181  159.7454 H   0  0  0  0  0  0  0  0  0  0  0  0
  155.2952  139.4076  162.2404 H   0  0  0  0  0  0  0  0  0  0  0  0
  154.8950  139.1150  160.5472 H   0  0  0  0  0  0  0  0  0  0  0  0
  153.6478  139.6831  161.6726 H   0  0  0  0  0  0  0  0  0  0  0  0
  1  2  1  0  0  0  0
  1 19  1  0  0  0  0
  1 20  1  0  0  0  0
  1 21  1  0  0  0  0
  2  3  1  0  0  0  0
  2 22  1  0  0  0  0
  3 14  1  0  0  0  0
  3  4  2  0  0  0  0
  4  5  1  0  0  0  0
  5 12  1  0  0  0  0
  5  6  2  0  0  0  0
  6  7  1  0  0  0  0
  6 14  1  0  0  0  0
  7  8  2  0  0  0  0
  7  9  1  0  0  0  0
  9 10  1  0  0  0  0
 10 11  2  0  0  0  0
 10 12  1  0  0  0  0
 12 13  1  0  0  0  0
 13 23  1  0  0  0  0
 13 24  1  0  0  0  0
 13 25  1  0  0  0  0
 14 15  1  0  0  0  0
 15 16  1  0  0  0  0
 15 26  1  0  0  0  0
 15 27  1  0  0  0  0
 16 17  1  0  0  0  0
 16 28  1  0  0  0  0
 16 29  1  0  0  0  0
 17 18  1  0  0  0  0
 18 30  1  0  0  0  0
 18 31  1  0  0  0  0
 18 32  1  0  0  0  0
M  CHG  1   9  -1
M  END
> <s_m_source_file>
AV-unprocessed.smi

> <i_m_source_file_index>
537

> <i_lp_mmshare_version>
43012

> <i_f3d_flags>
0

> <s_epik_input>
W0NIM11PW0NIMl1bQ0gyXW4oYyhuMSlbTkhdW0NIM10pYyhjMTIpYyg9TylbbkhdYyg9TyluMltDSDNd

> <s_epik_cmdline>
J2VwaWtfcHl0aG9uJywgJy1waCcsICc3LjAnLCAnLXRuJywgJzgnLCAnLW1hJywgJzIwMCcsICctbWV0YWxfYmluZGluZycsICctaW1hZScsICc8aW5maWxlLm1hZT4nLCAnLW9tYWUnLCAnPG91dGZpbGUubWFlPic=

> <r_lp_tautomer_probability>
1

> <r_epik_Ionization_Penalty>
6.3083

> <r_epik_Ionization_Penalty_Charging>
1.44173e-08

> <r_epik_Ionization_Penalty_Neutral>
6.3083

> <r_epik_State_Penalty>
6.30819

> <r_epik_Charging_Adjusted_Penalty>
6.30819

> <i_epik_Tot_Q>
-1

> <i_epik_Tot_abs_Q>
1

> <r_epik_Metal_State_Penalty>
2.24297

> <b_epik_Metal_Only>
1

> <s_lp_Force_Field>
OPLS_2005

> <r_lp_Energy>
24.4874

> <b_lp_Chiralities_Consistent>
1

> <s_lp_Variant>
AV-unprocessed.smi:537-2

> <Gold.Version>
5.8.1

> <Gold.Id.Protein>
6NUR|6NUR_protein|mol2

> <Gold.PLP.Fitness>
36.0289

> <Gold.PLP.PLP>
-31.4624

> <Gold.PLP.part.hbond>
-3.4943

> <Gold.PLP.part.metal>
0.0000

> <Gold.PLP.part.buried>
-1.2818

> <Gold.PLP.part.nonpolar>
-26.7084

> <Gold.PLP.part.repulsive>
0.3587

> <Gold.PLP.ligand.clash>
0.0000

> <Gold.PLP.ligand.torsion>
0.1010

> <Gold.PLP.Chemscore.Hbond>
1.5884

> <Gold.PLP.Chemscore.CHOScore>
0.0000

> <Gold.PLP.Chemscore.Metal>
0.0000

> <Gold.Chemscore.Hbonds>
donor molecule, donor type, donor heavy atom, donor atom, acceptor molecule, acceptor atom, score
      P1  H  7989  7998       L1    11  0.95
      P1  H  7997  8008       L1     8  0.64

> <Gold.PLP.Chemscore.Internal.Correction>
0.0032

> <Gold.Rescore>
     Score         DG    S(hbond)    S(metal)    S(lipo)     H(rot)  DE(clash)    DE(int)     intcor
      7.29     -10.22       0.88        0.00      51.29       1.64       1.47       1.46       ----

> <Gold.Chemscore.Fitness>
7.2883

> <Gold.Chemscore.DG>
-10.2194

> <Gold.Chemscore.ZeroCoef>
-5.4800

> <Gold.Chemscore.Hbond>
0.8824

> <Gold.Chemscore.Metal>
0.0000

> <Gold.Chemscore.Lipo>
51.2864

> <Gold.Chemscore.Internal_Hbond>
0.0000

> <Gold.Chemscore.DEClash>
1.4670

> <Gold.Chemscore.DEInternal>
1.4641

> <Gold.Chemscore.Rot>
1.6439

> <Gold.Chemscore.Internal.Correction>
   9.000000E+99

> <Gold.Chemscore.Hbonds>
donor molecule, donor type, donor heavy atom, donor atom, acceptor molecule, acceptor atom, score
      P1  H  7989  7998       L1    11  0.22
      P1  H  7997  8008       L1     8  0.06

> <Gold.Chemscore.Hbond.Weighted>
-2.9474

> <Gold.Chemscore.Metal.Weighted>
-0.0000

> <Gold.Chemscore.Lipo.Weighted>
-6.0005

> <Gold.Chemscore.Internal_Hbond.Weighted>
0.0000

> <Gold.Chemscore.DEClash.Weighted>
1.4670

> <Gold.Chemscore.DEInternal.Weighted>
1.4641

> <Gold.Chemscore.Rot.Weighted>
4.2085

> <Gold.Chemscore.Internal.Correction.Weighted>
   9.000000E+99

> <Gold.Protein.RotatedTorsions>
[ 6907 6896 6895 6894 ] final   40.27 input  -60.11 | X-H torsion
[ 7974 7965 7964 7962 ] final  -42.03 input  175.53 | X-H torsion
[ 8008 7997 7996 7995 ] final -115.77 input   59.86 | X-H torsion
[ 10167 10162 10161 10158 ] final -107.60 input  -65.29 | X-H torsion
[ 10718 10713 10712 10709 ] final  115.11 input   66.30 | X-H torsion
[ 10763 10752 10751 10750 ] final  165.46 input  -60.55 | X-H torsion
[ 11005 11000 10999 10996 ] final -117.10 input  -57.11 | X-H torsion

> <Gold.Protein.ActiveResidues>
 VAL166  LYS551  ARG553  GLY616  TRP617  ASP618  TYR619  PRO620  LYS621  CYS622 
 ASP623  PHE694  ASN695  SER759  ASP760  ASP761  ALA762  ILE779  LEU786  VAL792 
 PHE793  MET794  SER795  GLU796  ALA797  LYS798  CYS799  TRP800  GLU811  SER814 

> <Gold.Protein.RotatedAtoms>
  152.1803  134.8760  160.0526 H   0  0  0  0  0  0  0  0  0  0  0  0  # atno 6907 bound_to 6896
  151.9687  133.3713  159.4071 H   0  0  0  0  0  0  0  0  0  0  0  0  # atno 6908 bound_to 6896
  150.6916  134.4087  159.5195 H   0  0  0  0  0  0  0  0  0  0  0  0  # atno 6909 bound_to 6896
  146.0154  140.6914  142.9204 H   0  0  0  0  0  0  0  0  0  0  0  0  # atno 7974 bound_to 7965
  155.0573  140.0393  157.2564 H   0  0  0  0  0  0  0  0  0  0  0  0  # atno 8008 bound_to 7997
  154.7088  140.2688  155.6624 H   0  0  0  0  0  0  0  0  0  0  0  0  # atno 8009 bound_to 7997
  156.2783  140.2726  156.1723 H   0  0  0  0  0  0  0  0  0  0  0  0  # atno 8010 bound_to 7997
  140.1752  143.4011  152.1324 H   0  0  0  0  0  0  0  0  0  0  0  0  # atno 10167 bound_to 10162
  157.6241  131.1008  150.7283 H   0  0  0  0  0  0  0  0  0  0  0  0  # atno 10718 bound_to 10713
  154.3243  135.2755  155.2504 H   0  0  0  0  0  0  0  0  0  0  0  0  # atno 10763 bound_to 10752
  154.4844  135.5850  153.6416 H   0  0  0  0  0  0  0  0  0  0  0  0  # atno 10764 bound_to 10752
  152.9873  135.6119  154.3430 H   0  0  0  0  0  0  0  0  0  0  0  0  # atno 10765 bound_to 10752
  141.0377  133.9884  157.3044 H   0  0  0  0  0  0  0  0  0  0  0  0  # atno 11005 bound_to 11000
  144.6969  140.3473  143.7188 LP  0  0  0  0  0  0  0  0  0  0  0  0  # atno 17320 bound_to 7965
  145.7276  139.1727  143.2449 LP  0  0  0  0  0  0  0  0  0  0  0  0  # atno 17321 bound_to 7965
  139.5320  144.7169  151.5022 LP  0  0  0  0  0  0  0  0  0  0  0  0  # atno 17342 bound_to 10162
  140.6556  143.8606  150.6831 LP  0  0  0  0  0  0  0  0  0  0  0  0  # atno 17343 bound_to 10162
  156.7634  130.4806  149.5432 LP  0  0  0  0  0  0  0  0  0  0  0  0  # atno 17370 bound_to 10713
  156.1403  130.6240  151.0458 LP  0  0  0  0  0  0  0  0  0  0  0  0  # atno 17371 bound_to 10713
  139.9253  135.0201  156.8211 LP  0  0  0  0  0  0  0  0  0  0  0  0  # atno 17394 bound_to 11000
  140.6291  133.9922  155.7654 LP  0  0  0  0  0  0  0  0  0  0  0  0  # atno 17395 bound_to 11000

$$$$
