AV-unprocessed.smi:1945|AV-procd|sdf|7859|dock4
  -GOLD-   2272010 03D 1   1.00000     0.00000
 Structure written by MMmdl.
 47 48  0  0  0  0  0  0  0  0  1 V2000
  143.8683  132.0380  149.9091 C   0  0  0  0  0  0  0  0  0  0  0  0
  144.5076  133.1076  150.7442 C   0  0  0  0  0  0  0  0  0  0  0  0
  145.8403  133.1500  151.2465 C   0  0  0  0  0  0  0  0  0  0  0  0
  145.8674  134.3351  151.9299 C   0  0  0  0  0  0  0  0  0  0  0  0
  146.8973  134.8967  152.6168 N   0  0  0  0  0  0  0  0  0  0  0  0
  146.9521  135.2222  153.9195 C   0  0  0  0  0  0  0  0  0  0  0  0
  146.0961  134.9458  154.7603 O   0  0  0  0  0  0  0  0  0  0  0  0
  148.0607  135.9244  154.1957 N   0  0  0  0  0  0  0  0  0  0  0  0
  148.3350  136.5835  155.4686 C   0  0  0  0  0  0  0  0  0  0  0  0
  149.6173  137.4252  155.3829 C   0  0  0  0  0  0  0  0  0  0  0  0
  149.2722  138.7994  155.4682 O   0  0  0  0  0  0  0  0  0  0  0  0
  150.1485  139.6859  154.7841 C   0  0  2  0  0  0  0  0  0  0  0  0
  151.5590  139.4805  155.3671 C   0  0  0  0  0  0  0  0  0  0  0  0
  151.6399  139.9141  156.8410 C   0  0  0  0  0  0  0  0  0  0  0  0
  151.1740  141.3665  157.0224 C   0  0  0  0  0  0  0  0  0  0  0  0
  149.7620  141.5755  156.4528 C   0  0  0  0  0  0  0  0  0  0  0  0
  149.6816  141.1508  154.9725 C   0  0  2  0  0  0  0  0  0  0  0  0
  148.2892  141.4183  154.3811 C   0  0  0  0  0  0  0  0  0  0  0  0
  144.6325  134.9385  151.8234 N   0  0  0  0  0  0  0  0  0  0  0  0
  144.1541  136.1966  152.3641 C   0  0  0  0  0  0  0  0  0  0  0  0
  143.7954  134.1738  151.0901 N   0  0  0  0  0  0  0  0  0  0  0  0
  144.5591  131.2145  149.7273 H   0  0  0  0  0  0  0  0  0  0  0  0
  143.5577  132.4299  148.9403 H   0  0  0  0  0  0  0  0  0  0  0  0
  142.9870  131.6283  150.4029 H   0  0  0  0  0  0  0  0  0  0  0  0
  146.6279  132.4233  151.1149 H   0  0  0  0  0  0  0  0  0  0  0  0
  147.6802  135.1912  152.0525 H   0  0  0  0  0  0  0  0  0  0  0  0
  148.7179  136.0910  153.4479 H   0  0  0  0  0  0  0  0  0  0  0  0
  147.4899  137.1968  155.7852 H   0  0  0  0  0  0  0  0  0  0  0  0
  148.4575  135.8094  156.2261 H   0  0  0  0  0  0  0  0  0  0  0  0
  150.2917  137.1739  156.2024 H   0  0  0  0  0  0  0  0  0  0  0  0
  150.1422  137.2068  154.4519 H   0  0  0  0  0  0  0  0  0  0  0  0
  150.1858  139.4473  153.7193 H   0  0  0  0  0  0  0  0  0  0  0  0
  151.8530  138.4349  155.2706 H   0  0  0  0  0  0  0  0  0  0  0  0
  152.2784  140.0555  154.7830 H   0  0  0  0  0  0  0  0  0  0  0  0
  151.0230  139.2545  157.4528 H   0  0  0  0  0  0  0  0  0  0  0  0
  152.6617  139.8039  157.2044 H   0  0  0  0  0  0  0  0  0  0  0  0
  151.1910  141.6328  158.0798 H   0  0  0  0  0  0  0  0  0  0  0  0
  151.8724  142.0393  156.5231 H   0  0  0  0  0  0  0  0  0  0  0  0
  149.0423  141.0079  157.0436 H   0  0  0  0  0  0  0  0  0  0  0  0
  149.4810  142.6241  156.5562 H   0  0  0  0  0  0  0  0  0  0  0  0
  150.3789  141.7811  154.4185 H   0  0  0  0  0  0  0  0  0  0  0  0
  147.5157  140.8610  154.9085 H   0  0  0  0  0  0  0  0  0  0  0  0
  148.2482  141.1361  153.3288 H   0  0  0  0  0  0  0  0  0  0  0  0
  148.0335  142.4759  154.4483 H   0  0  0  0  0  0  0  0  0  0  0  0
  144.9016  136.6453  153.0183 H   0  0  0  0  0  0  0  0  0  0  0  0
  143.2433  136.0271  152.9393 H   0  0  0  0  0  0  0  0  0  0  0  0
  143.9378  136.8870  151.5486 H   0  0  0  0  0  0  0  0  0  0  0  0
  1  2  1  0  0  0  0
  1 22  1  0  0  0  0
  1 23  1  0  0  0  0
  1 24  1  0  0  0  0
  2 21  2  0  0  0  0
  2  3  1  0  0  0  0
  3  4  2  0  0  0  0
  3 25  1  0  0  0  0
  4  5  1  0  0  0  0
  4 19  1  0  0  0  0
  5  6  1  0  0  0  0
  5 26  1  0  0  0  0
  6  7  2  0  0  0  0
  6  8  1  0  0  0  0
  8  9  1  0  0  0  0
  8 27  1  0  0  0  0
  9 10  1  0  0  0  0
  9 28  1  0  0  0  0
  9 29  1  0  0  0  0
 10 11  1  0  0  0  0
 10 30  1  0  0  0  0
 10 31  1  0  0  0  0
 11 12  1  0  0  0  0
 12 17  1  0  0  0  0
 12 13  1  0  0  0  0
 12 32  1  0  0  0  0
 13 14  1  0  0  0  0
 13 33  1  0  0  0  0
 13 34  1  0  0  0  0
 14 15  1  0  0  0  0
 14 35  1  0  0  0  0
 14 36  1  0  0  0  0
 15 16  1  0  0  0  0
 15 37  1  0  0  0  0
 15 38  1  0  0  0  0
 16 17  1  0  0  0  0
 16 39  1  0  0  0  0
 16 40  1  0  0  0  0
 17 18  1  0  0  0  0
 17 41  1  0  0  0  0
 18 42  1  0  0  0  0
 18 43  1  0  0  0  0
 18 44  1  0  0  0  0
 19 20  1  0  0  0  0
 19 21  1  0  0  0  0
 20 45  1  0  0  0  0
 20 46  1  0  0  0  0
 20 47  1  0  0  0  0
M  END
> <s_m_source_file>
AV-unprocessed.smi

> <i_m_source_file_index>
1945

> <i_lp_mmshare_version>
43012

> <i_f3d_flags>
0

> <s_epik_input>
W0NIM11jMVtjSF1jKG4objEpW0NIM10pW05IXUMoPU8pW05IXVtDSDJdW0NIMl1PW0NAQEhdMltDSDJdW0NIMl1bQ0gyXVtDSDJdW0NASF0yW0NIM10=

> <s_epik_cmdline>
J2VwaWtfcHl0aG9uJywgJy1waCcsICc3LjAnLCAnLXRuJywgJzgnLCAnLW1hJywgJzIwMCcsICctbWV0YWxfYmluZGluZycsICctaW1hZScsICc8aW5maWxlLm1hZT4nLCAnLW9tYWUnLCAnPG91dGZpbGUubWFlPic=

> <r_lp_tautomer_probability>
1

> <r_epik_Ionization_Penalty>
9.47735e-05

> <r_epik_Ionization_Penalty_Charging>
0

> <r_epik_Ionization_Penalty_Neutral>
9.47735e-05

> <r_epik_State_Penalty>
-0

> <r_epik_Charging_Adjusted_Penalty>
0

> <i_epik_Tot_Q>
0

> <i_epik_Tot_abs_Q>
0

> <r_epik_Metal_State_Penalty>
-0

> <b_epik_Metal_Only>
0

> <s_lp_Force_Field>
OPLS_2005

> <r_lp_Energy>
12.3815

> <b_lp_Chiralities_Consistent>
1

> <s_lp_Variant>
AV-unprocessed.smi:1945-3

> <Gold.Version>
5.8.1

> <Gold.Id.Protein>
6NUR|6NUR_protein|mol2

> <Gold.PLP.Fitness>
37.6062

> <Gold.PLP.PLP>
-33.9894

> <Gold.PLP.part.hbond>
-1.9259

> <Gold.PLP.part.metal>
0.0000

> <Gold.PLP.part.buried>
-2.3834

> <Gold.PLP.part.nonpolar>
-29.8628

> <Gold.PLP.part.repulsive>
0.3011

> <Gold.PLP.ligand.clash>
0.0000

> <Gold.PLP.ligand.torsion>
1.1254

> <Gold.PLP.Chemscore.Hbond>
1.9520

> <Gold.PLP.Chemscore.CHOScore>
0.0000

> <Gold.PLP.Chemscore.Metal>
0.0000

> <Gold.Chemscore.Hbonds>
donor molecule, donor type, donor heavy atom, donor atom, acceptor molecule, acceptor atom, score
      L1  H     5    26       P1  7948  0.99
      L1  H     8    27       P1  7948  0.96

> <Gold.PLP.Chemscore.Internal.Correction>
0.0115

> <Gold.Rescore>
     Score         DG    S(hbond)    S(metal)    S(lipo)     H(rot)  DE(clash)    DE(int)     intcor
     15.78     -16.87       1.92        0.00      78.17       1.63       0.07       1.02       ----

> <Gold.Chemscore.Fitness>
15.7811

> <Gold.Chemscore.DG>
-16.8663

> <Gold.Chemscore.ZeroCoef>
-5.4800

> <Gold.Chemscore.Hbond>
1.9213

> <Gold.Chemscore.Metal>
0.0000

> <Gold.Chemscore.Lipo>
78.1713

> <Gold.Chemscore.Internal_Hbond>
0.0000

> <Gold.Chemscore.DEClash>
0.0656

> <Gold.Chemscore.DEInternal>
1.0197

> <Gold.Chemscore.Rot>
1.6316

> <Gold.Chemscore.Internal.Correction>
   9.000000E+99

> <Gold.Chemscore.Hbonds>
donor molecule, donor type, donor heavy atom, donor atom, acceptor molecule, acceptor atom, score
      L1  H     5    26       P1  7948  0.88
      L1  H     8    27       P1  7948  0.91

> <Gold.Chemscore.Hbond.Weighted>
-6.4171

> <Gold.Chemscore.Metal.Weighted>
-0.0000

> <Gold.Chemscore.Lipo.Weighted>
-9.1460

> <Gold.Chemscore.Internal_Hbond.Weighted>
0.0000

> <Gold.Chemscore.DEClash.Weighted>
0.0656

> <Gold.Chemscore.DEInternal.Weighted>
1.0197

> <Gold.Chemscore.Rot.Weighted>
4.1768

> <Gold.Chemscore.Internal.Correction.Weighted>
   9.000000E+99

> <Gold.Protein.RotatedTorsions>
[ 6907 6896 6895 6894 ] final -110.54 input  -60.11 | X-H torsion
[ 7974 7965 7964 7962 ] final  -44.34 input  175.53 | X-H torsion
[ 8008 7997 7996 7995 ] final -154.22 input   59.86 | X-H torsion
[ 10167 10162 10161 10158 ] final   64.58 input  -65.29 | X-H torsion
[ 10718 10713 10712 10709 ] final -117.04 input   66.30 | X-H torsion
[ 10763 10752 10751 10750 ] final  -65.66 input  -60.55 | X-H torsion
[ 11005 11000 10999 10996 ] final  -78.65 input  -57.11 | X-H torsion

> <Gold.Protein.ActiveResidues>
 VAL166  LYS551  ARG553  GLY616  TRP617  ASP618  TYR619  PRO620  LYS621  CYS622 
 ASP623  PHE694  ASN695  SER759  ASP760  ASP761  ALA762  ILE779  LEU786  VAL792 
 PHE793  MET794  SER795  GLU796  ALA797  LYS798  CYS799  TRP800  GLU811  SER814 

> <Gold.Protein.RotatedAtoms>
  150.7631  133.9367  159.3443 H   0  0  0  0  0  0  0  0  0  0  0  0  # atno 6907 bound_to 6896
  151.7271  135.0880  160.0303 H   0  0  0  0  0  0  0  0  0  0  0  0  # atno 6908 bound_to 6896
  152.3613  133.6263  159.6053 H   0  0  0  0  0  0  0  0  0  0  0  0  # atno 6909 bound_to 6896
  145.9930  140.7159  142.9307 H   0  0  0  0  0  0  0  0  0  0  0  0  # atno 7974 bound_to 7965
  155.6830  140.0746  157.2477 H   0  0  0  0  0  0  0  0  0  0  0  0  # atno 8008 bound_to 7997
  154.4102  140.1678  156.2055 H   0  0  0  0  0  0  0  0  0  0  0  0  # atno 8009 bound_to 7997
  155.9518  140.3376  155.6417 H   0  0  0  0  0  0  0  0  0  0  0  0  # atno 8010 bound_to 7997
  140.1207  144.4734  150.6922 H   0  0  0  0  0  0  0  0  0  0  0  0  # atno 10167 bound_to 10162
  156.1006  130.6168  150.9113 H   0  0  0  0  0  0  0  0  0  0  0  0  # atno 10718 bound_to 10713
  154.3482  135.6142  153.5630 H   0  0  0  0  0  0  0  0  0  0  0  0  # atno 10763 bound_to 10752
  152.9800  135.5786  154.4773 H   0  0  0  0  0  0  0  0  0  0  0  0  # atno 10764 bound_to 10752
  154.4490  135.2852  155.1772 H   0  0  0  0  0  0  0  0  0  0  0  0  # atno 10765 bound_to 10752
  141.1665  133.7072  156.8004 H   0  0  0  0  0  0  0  0  0  0  0  0  # atno 11005 bound_to 11000
  144.6895  140.3102  143.7249 LP  0  0  0  0  0  0  0  0  0  0  0  0  # atno 17320 bound_to 7965
  145.7601  139.1822  143.2272 LP  0  0  0  0  0  0  0  0  0  0  0  0  # atno 17321 bound_to 7965
  140.6874  143.2357  151.5224 LP  0  0  0  0  0  0  0  0  0  0  0  0  # atno 17342 bound_to 10162
  139.5570  144.2250  152.1629 LP  0  0  0  0  0  0  0  0  0  0  0  0  # atno 17343 bound_to 10162
  157.6175  131.0932  150.8683 LP  0  0  0  0  0  0  0  0  0  0  0  0  # atno 17370 bound_to 10713
  156.8812  130.5180  149.5291 LP  0  0  0  0  0  0  0  0  0  0  0  0  # atno 17371 bound_to 10713
  140.2260  134.8721  157.3427 LP  0  0  0  0  0  0  0  0  0  0  0  0  # atno 17394 bound_to 11000
  140.1939  134.4338  155.7700 LP  0  0  0  0  0  0  0  0  0  0  0  0  # atno 17395 bound_to 11000

$$$$
