AV-unprocessed.smi:2969|AV-procd|sdf|11329|dock1
  -GOLD-   2272016233D 1   1.00000     0.00000
 Structure written by MMmdl.
 40 40  0  0  0  0  0  0  0  0  1 V2000
  146.3789  133.1231  152.1098 C   0  0  0  0  0  0  0  0  0  0  0  0
  147.3871  132.4172  153.0255 C   0  0  0  0  0  0  0  0  0  0  0  0
  148.8240  132.9711  152.9419 C   0  0  0  0  0  0  0  0  0  0  0  0
  149.5711  132.8653  154.1827 N   0  0  0  0  0  0  0  0  0  0  0  0
  150.0386  133.9782  154.8879 C   0  0  0  0  0  0  0  0  0  0  0  0
  149.7808  135.2348  154.3588 N   0  0  0  0  0  0  0  0  0  0  0  0
  150.7524  133.8497  156.0466 C   0  0  0  0  0  0  0  0  0  0  0  0
  151.1843  134.9738  156.7754 N   0  0  0  0  0  0  0  0  0  0  0  0
  152.5821  135.3950  156.5780 C   0  0  0  0  0  0  0  0  0  0  0  0
  152.6857  136.8325  156.0434 C   0  0  0  0  0  0  0  0  0  0  0  0
  152.3735  136.8388  154.6605 O   0  0  0  0  0  0  0  0  0  0  0  0
  152.6273  138.0908  154.0497 C   0  0  0  0  0  0  0  0  0  0  0  0
  150.3788  135.6380  157.6489 C   0  0  0  0  0  0  0  0  0  0  0  0
  150.7401  136.6853  158.1898 O   0  0  0  0  0  0  0  0  0  0  0  0
  148.9959  135.0676  158.0314 C   0  0  0  0  0  0  0  0  0  0  0  0
  149.1181  133.8375  158.5317 F   0  0  0  0  0  0  0  0  0  0  0  0
  148.4352  135.8425  158.9610 F   0  0  0  0  0  0  0  0  0  0  0  0
  148.1971  135.0467  156.9658 F   0  0  0  0  0  0  0  0  0  0  0  0
  151.0135  132.5201  156.6160 C   0  0  0  0  0  0  0  0  0  0  0  0
  151.6022  132.2929  157.6723 O   0  0  0  0  0  0  0  0  0  0  0  0
  150.5310  131.4541  155.8621 N   0  0  0  0  0  0  0  0  0  0  0  0
  149.8316  131.5591  154.6656 C   0  0  0  0  0  0  0  0  0  0  0  0
  149.4767  130.5319  154.0867 O   0  0  0  0  0  0  0  0  0  0  0  0
  150.7046  130.5240  156.2143 H   0  0  0  0  0  0  0  0  0  0  0  0
  145.4028  132.6412  152.1660 H   0  0  0  0  0  0  0  0  0  0  0  0
  146.7046  133.0943  151.0696 H   0  0  0  0  0  0  0  0  0  0  0  0
  146.2455  134.1672  152.3935 H   0  0  0  0  0  0  0  0  0  0  0  0
  147.0296  132.4652  154.0542 H   0  0  0  0  0  0  0  0  0  0  0  0
  147.4098  131.3584  152.7669 H   0  0  0  0  0  0  0  0  0  0  0  0
  149.4054  132.4274  152.1971 H   0  0  0  0  0  0  0  0  0  0  0  0
  148.8386  134.0068  152.6006 H   0  0  0  0  0  0  0  0  0  0  0  0
  149.2734  135.3557  153.4939 H   0  0  0  0  0  0  0  0  0  0  0  0
  150.0611  136.0798  154.8357 H   0  0  0  0  0  0  0  0  0  0  0  0
  153.1310  135.3134  157.5177 H   0  0  0  0  0  0  0  0  0  0  0  0
  153.0948  134.7220  155.8894 H   0  0  0  0  0  0  0  0  0  0  0  0
  152.0227  137.5010  156.5947 H   0  0  0  0  0  0  0  0  0  0  0  0
  153.7034  137.2004  156.1805 H   0  0  0  0  0  0  0  0  0  0  0  0
  152.3756  138.0385  152.9906 H   0  0  0  0  0  0  0  0  0  0  0  0
  153.6794  138.3653  154.1339 H   0  0  0  0  0  0  0  0  0  0  0  0
  152.0214  138.8781  154.5001 H   0  0  0  0  0  0  0  0  0  0  0  0
  1  2  1  0  0  0  0
  1 25  1  0  0  0  0
  1 26  1  0  0  0  0
  1 27  1  0  0  0  0
  2  3  1  0  0  0  0
  2 28  1  0  0  0  0
  2 29  1  0  0  0  0
  3  4  1  0  0  0  0
  3 30  1  0  0  0  0
  3 31  1  0  0  0  0
  4 22  1  0  0  0  0
  4  5  1  0  0  0  0
  5  6  1  0  0  0  0
  5  7  2  0  0  0  0
  6 32  1  0  0  0  0
  6 33  1  0  0  0  0
  7  8  1  0  0  0  0
  7 19  1  0  0  0  0
  8  9  1  0  0  0  0
  8 13  1  0  0  0  0
  9 10  1  0  0  0  0
  9 34  1  0  0  0  0
  9 35  1  0  0  0  0
 10 11  1  0  0  0  0
 10 36  1  0  0  0  0
 10 37  1  0  0  0  0
 11 12  1  0  0  0  0
 12 38  1  0  0  0  0
 12 39  1  0  0  0  0
 12 40  1  0  0  0  0
 13 14  2  0  0  0  0
 13 15  1  0  0  0  0
 15 16  1  0  0  0  0
 15 17  1  0  0  0  0
 15 18  1  0  0  0  0
 19 20  2  0  0  0  0
 19 21  1  0  0  0  0
 21 24  1  0  0  0  0
 21 22  1  0  0  0  0
 22 23  2  0  0  0  0
M  END
> <s_m_source_file>
AV-unprocessed.smi

> <i_m_source_file_index>
2969

> <i_lp_mmshare_version>
43012

> <i_f3d_flags>
0

> <s_epik_input>
W0NIM11bQ0gyXVtDSDJdbjFjKFtOSDJdKWMoYyg9TylbbkhdYzE9TylOKEMoPU8pQyhGKShGKUYpW0NIMl1bQ0gyXU9bQ0gzXQ==

> <s_epik_cmdline>
J2VwaWtfcHl0aG9uJywgJy1waCcsICc3LjAnLCAnLXRuJywgJzgnLCAnLW1hJywgJzIwMCcsICctbWV0YWxfYmluZGluZycsICctaW1hZScsICc8aW5maWxlLm1hZT4nLCAnLW9tYWUnLCAnPG91dGZpbGUubWFlPic=

> <r_lp_tautomer_probability>
1

> <r_epik_Ionization_Penalty>
0.000513649

> <r_epik_Ionization_Penalty_Charging>
0.000443136

> <r_epik_Ionization_Penalty_Neutral>
7.05129e-05

> <r_epik_State_Penalty>
-0

> <r_epik_Charging_Adjusted_Penalty>
0.000443136

> <i_epik_Tot_Q>
0

> <i_epik_Tot_abs_Q>
0

> <r_epik_Metal_State_Penalty>
0.330936

> <b_epik_Metal_Only>
0

> <s_epik_Chemistry_Notes>
This compound has an imine and may undergo hydrolysis.

> <s_lp_Force_Field>
OPLS_2005

> <r_lp_Energy>
31.7287

> <b_lp_Chiralities_Consistent>
1

> <s_lp_Variant>
AV-unprocessed.smi:2969-1

> <Gold.Version>
5.8.1

> <Gold.Id.Protein>
6NUR|6NUR_protein|mol2

> <Gold.PLP.Fitness>
37.0122

> <Gold.PLP.PLP>
-29.5347

> <Gold.PLP.part.hbond>
-3.0000

> <Gold.PLP.part.metal>
0.0000

> <Gold.PLP.part.buried>
-4.6104

> <Gold.PLP.part.nonpolar>
-23.2906

> <Gold.PLP.part.repulsive>
0.2228

> <Gold.PLP.ligand.clash>
2.7625

> <Gold.PLP.ligand.torsion>
1.8368

> <Gold.PLP.Chemscore.Hbond>
2.9440

> <Gold.PLP.Chemscore.CHOScore>
0.0000

> <Gold.PLP.Chemscore.Metal>
0.0000

> <Gold.Chemscore.Hbonds>
donor molecule, donor type, donor heavy atom, donor atom, acceptor molecule, acceptor atom, score
      L1  H     6    32       P1  7948  1.00
      P1  H  6896  6909       L1    20  1.00
      P1  H 10752 10763       L1    11  0.34

> <Gold.PLP.Chemscore.Internal.Correction>
5.0817

> <Gold.Rescore>
     Score         DG    S(hbond)    S(metal)    S(lipo)     H(rot)  DE(clash)    DE(int)     intcor
      7.76     -13.66       2.74        0.00      41.19       2.27       0.09       5.81       ----

> <Gold.Chemscore.Fitness>
7.7593

> <Gold.Chemscore.DG>
-13.6581

> <Gold.Chemscore.ZeroCoef>
-5.4800

> <Gold.Chemscore.Hbond>
2.7422

> <Gold.Chemscore.Metal>
0.0000

> <Gold.Chemscore.Lipo>
41.1917

> <Gold.Chemscore.Internal_Hbond>
0.0000

> <Gold.Chemscore.DEClash>
0.0876

> <Gold.Chemscore.DEInternal>
5.8112

> <Gold.Chemscore.Rot>
2.2658

> <Gold.Chemscore.Internal.Correction>
   9.000000E+99

> <Gold.Chemscore.Hbonds>
donor molecule, donor type, donor heavy atom, donor atom, acceptor molecule, acceptor atom, score
      L1  H     6    32       P1  7948  0.25
      P1  H  6896  6909       L1    20  0.99
      P1  H 10752 10763       L1    11  0.05

> <Gold.Chemscore.Hbond.Weighted>
-9.1591

> <Gold.Chemscore.Metal.Weighted>
-0.0000

> <Gold.Chemscore.Lipo.Weighted>
-4.8194

> <Gold.Chemscore.Internal_Hbond.Weighted>
0.0000

> <Gold.Chemscore.DEClash.Weighted>
0.0876

> <Gold.Chemscore.DEInternal.Weighted>
5.8112

> <Gold.Chemscore.Rot.Weighted>
5.8005

> <Gold.Chemscore.Internal.Correction.Weighted>
   9.000000E+99

> <Gold.Protein.RotatedTorsions>
[ 6907 6896 6895 6894 ] final  -43.97 input  -60.11 | X-H torsion
[ 7974 7965 7964 7962 ] final   24.56 input  175.53 | X-H torsion
[ 8008 7997 7996 7995 ] final  152.48 input   59.86 | X-H torsion
[ 10167 10162 10161 10158 ] final    9.52 input  -65.29 | X-H torsion
[ 10718 10713 10712 10709 ] final -143.57 input   66.30 | X-H torsion
[ 10763 10752 10751 10750 ] final   46.95 input  -60.55 | X-H torsion
[ 11005 11000 10999 10996 ] final  169.71 input  -57.11 | X-H torsion

> <Gold.Protein.ActiveResidues>
 VAL166  LYS551  ARG553  GLY616  TRP617  ASP618  TYR619  PRO620  LYS621  CYS622 
 ASP623  PHE694  ASN695  SER759  ASP760  ASP761  ALA762  ILE779  LEU786  VAL792 
 PHE793  MET794  SER795  GLU796  ALA797  LYS798  CYS799  TRP800  GLU811  SER814 

> <Gold.Protein.RotatedAtoms>
  150.9380  134.8791  159.7593 H   0  0  0  0  0  0  0  0  0  0  0  0  # atno 6907 bound_to 6896
  152.5067  134.3983  159.9417 H   0  0  0  0  0  0  0  0  0  0  0  0  # atno 6908 bound_to 6896
  151.4006  133.3719  159.2766 H   0  0  0  0  0  0  0  0  0  0  0  0  # atno 6909 bound_to 6896
  146.1931  139.7587  142.8817 H   0  0  0  0  0  0  0  0  0  0  0  0  # atno 7974 bound_to 7965
  156.2627  140.2019  156.6339 H   0  0  0  0  0  0  0  0  0  0  0  0  # atno 8008 bound_to 7997
  154.6661  140.0555  157.0140 H   0  0  0  0  0  0  0  0  0  0  0  0  # atno 8009 bound_to 7997
  155.1205  140.3224  155.4501 H   0  0  0  0  0  0  0  0  0  0  0  0  # atno 8010 bound_to 7997
  140.6250  143.8121  150.7222 H   0  0  0  0  0  0  0  0  0  0  0  0  # atno 10167 bound_to 10162
  156.3595  130.7731  151.1896 H   0  0  0  0  0  0  0  0  0  0  0  0  # atno 10718 bound_to 10713
  152.9805  135.5992  154.3683 H   0  0  0  0  0  0  0  0  0  0  0  0  # atno 10763 bound_to 10752
  154.3359  135.2768  155.2450 H   0  0  0  0  0  0  0  0  0  0  0  0  # atno 10764 bound_to 10752
  154.4553  135.5979  153.6274 H   0  0  0  0  0  0  0  0  0  0  0  0  # atno 10765 bound_to 10752
  140.3006  134.7598  157.3913 H   0  0  0  0  0  0  0  0  0  0  0  0  # atno 11005 bound_to 11000
  145.3729  141.0345  143.3221 LP  0  0  0  0  0  0  0  0  0  0  0  0  # atno 17320 bound_to 7965
  144.8526  139.5298  143.6849 LP  0  0  0  0  0  0  0  0  0  0  0  0  # atno 17321 bound_to 7965
  140.1719  143.4187  152.1994 LP  0  0  0  0  0  0  0  0  0  0  0  0  # atno 17342 bound_to 10162
  139.5472  144.7308  151.4547 LP  0  0  0  0  0  0  0  0  0  0  0  0  # atno 17343 bound_to 10162
  157.7472  131.0404  150.4596 LP  0  0  0  0  0  0  0  0  0  0  0  0  # atno 17370 bound_to 10713
  156.4805  130.4072  149.6464 LP  0  0  0  0  0  0  0  0  0  0  0  0  # atno 17371 bound_to 10713
  140.1112  134.5342  155.8264 LP  0  0  0  0  0  0  0  0  0  0  0  0  # atno 17394 bound_to 11000
  141.2129  133.6725  156.6693 LP  0  0  0  0  0  0  0  0  0  0  0  0  # atno 17395 bound_to 11000

$$$$
