AV-unprocessed.smi:332|AV-procd|sdf|2352|dock6
  -GOLD-   2262022263D 1   1.00000     0.00000
 Structure written by MMmdl.
 42 44  0  0  0  0  0  0  0  0  1 V2000
  146.7837  131.1652  153.2775 C   0  0  0  0  0  0  0  0  0  0  0  0
  146.2099  130.2446  152.1877 C   0  0  2  0  0  0  0  0  0  0  0  0
  147.3062  129.4501  151.6362 N   0  0  0  0  0  0  0  0  0  0  0  0
  147.4416  128.1182  151.7340 C   0  0  0  0  0  0  0  0  0  0  0  0
  146.6524  127.3975  152.3456 O   0  0  0  0  0  0  0  0  0  0  0  0
  148.6663  127.5132  151.0350 C   0  0  0  0  0  0  0  0  0  0  0  0
  148.6877  126.0424  151.0962 N   0  0  0  0  0  0  0  0  0  0  0  0
  148.8299  125.3495  149.8776 C   0  0  0  0  0  0  0  0  0  0  0  0
  148.8658  124.0087  149.8231 C   0  0  0  0  0  0  0  0  0  0  0  0
  148.7540  123.2719  151.0597 C   0  0  0  0  0  0  0  0  0  0  0  0
  148.6207  123.9247  152.2314 C   0  0  0  0  0  0  0  0  0  0  0  0
  148.5828  125.3905  152.2959 C   0  0  0  0  0  0  0  0  0  0  0  0
  148.4637  125.9950  153.3624 O   0  0  0  0  0  0  0  0  0  0  0  0
  145.4986  131.0394  151.0627 C   0  0  2  0  0  0  0  0  0  0  0  0
  146.4136  132.0842  150.3775 C   0  0  0  0  0  0  0  0  0  0  0  0
  145.6104  133.3917  150.4927 C   0  0  1  0  0  0  0  0  0  0  0  0
  144.3798  133.3229  149.5708 C   0  0  0  0  0  0  0  0  0  0  0  0
  143.4675  132.3217  150.3026 C   0  0  0  0  0  0  0  0  0  0  0  0
  144.3118  131.9244  151.5287 C   0  0  2  0  0  0  0  0  0  0  0  0
  144.9856  133.2478  151.8739 C   0  0  0  0  0  0  0  0  0  0  0  0
  146.0030  131.7514  153.7616 H   0  0  0  0  0  0  0  0  0  0  0  0
  147.5127  131.8630  152.8638 H   0  0  0  0  0  0  0  0  0  0  0  0
  147.2824  130.5866  154.0559 H   0  0  0  0  0  0  0  0  0  0  0  0
  145.4814  129.5883  152.6661 H   0  0  0  0  0  0  0  0  0  0  0  0
  148.0094  129.9546  151.1162 H   0  0  0  0  0  0  0  0  0  0  0  0
  148.7002  127.8417  149.9944 H   0  0  0  0  0  0  0  0  0  0  0  0
  149.5607  127.9332  151.4970 H   0  0  0  0  0  0  0  0  0  0  0  0
  148.9148  125.9730  148.9994 H   0  0  0  0  0  0  0  0  0  0  0  0
  148.9799  123.4953  148.8799 H   0  0  0  0  0  0  0  0  0  0  0  0
  148.7794  122.1923  151.0457 H   0  0  0  0  0  0  0  0  0  0  0  0
  148.5404  123.3566  153.1467 H   0  0  0  0  0  0  0  0  0  0  0  0
  145.1392  130.3228  150.3221 H   0  0  0  0  0  0  0  0  0  0  0  0
  147.3637  132.1915  150.9026 H   0  0  0  0  0  0  0  0  0  0  0  0
  146.6376  131.8231  149.3426 H   0  0  0  0  0  0  0  0  0  0  0  0
  146.2141  134.2887  150.3512 H   0  0  0  0  0  0  0  0  0  0  0  0
  143.8951  134.2968  149.4929 H   0  0  0  0  0  0  0  0  0  0  0  0
  144.6371  132.9938  148.5633 H   0  0  0  0  0  0  0  0  0  0  0  0
  142.5408  132.8064  150.6130 H   0  0  0  0  0  0  0  0  0  0  0  0
  143.2017  131.4655  149.6815 H   0  0  0  0  0  0  0  0  0  0  0  0
  143.7061  131.5003  152.3290 H   0  0  0  0  0  0  0  0  0  0  0  0
  145.7186  133.1677  152.6781 H   0  0  0  0  0  0  0  0  0  0  0  0
  144.2780  134.0433  152.1143 H   0  0  0  0  0  0  0  0  0  0  0  0
  1  2  1  0  0  0  0
  1 21  1  0  0  0  0
  1 22  1  0  0  0  0
  1 23  1  0  0  0  0
  2  3  1  0  0  0  0
  2 14  1  0  0  0  0
  2 24  1  0  0  0  0
  3  4  1  0  0  0  0
  3 25  1  0  0  0  0
  4  5  2  0  0  0  0
  4  6  1  0  0  0  0
  6  7  1  0  0  0  0
  6 26  1  0  0  0  0
  6 27  1  0  0  0  0
  7 12  1  0  0  0  0
  7  8  1  0  0  0  0
  8  9  2  0  0  0  0
  8 28  1  0  0  0  0
  9 10  1  0  0  0  0
  9 29  1  0  0  0  0
 10 11  2  0  0  0  0
 10 30  1  0  0  0  0
 11 12  1  0  0  0  0
 11 31  1  0  0  0  0
 12 13  2  0  0  0  0
 14 19  1  0  0  0  0
 14 15  1  0  0  0  0
 14 32  1  0  0  0  0
 15 16  1  0  0  0  0
 15 33  1  0  0  0  0
 15 34  1  0  0  0  0
 16 20  1  0  0  0  0
 16 17  1  0  0  0  0
 16 35  1  0  0  0  0
 17 18  1  0  0  0  0
 17 36  1  0  0  0  0
 17 37  1  0  0  0  0
 18 19  1  0  0  0  0
 18 38  1  0  0  0  0
 18 39  1  0  0  0  0
 19 20  1  0  0  0  0
 19 40  1  0  0  0  0
 20 41  1  0  0  0  0
 20 42  1  0  0  0  0
M  END
> <s_m_source_file>
AV-unprocessed.smi

> <i_m_source_file_index>
332

> <i_lp_mmshare_version>
43012

> <i_f3d_flags>
0

> <s_epik_input>
W0NIMl0xW0NIMl1bQ0BIXShbQ0gyXTIpW0NAQEhdKFtDSDJdW0NAQEhdMTIpW0NASF0oW0NIM10pW05IXUMoPU8pW0NIMl1uM1tjSF1bY0hdW2NIXVtjSF1jMz1P

> <s_epik_cmdline>
J2VwaWtfcHl0aG9uJywgJy1waCcsICc3LjAnLCAnLXRuJywgJzgnLCAnLW1hJywgJzIwMCcsICctbWV0YWxfYmluZGluZycsICctaW1hZScsICc8aW5maWxlLm1hZT4nLCAnLW9tYWUnLCAnPG91dGZpbGUubWFlPic=

> <r_lp_tautomer_probability>
1

> <r_epik_Ionization_Penalty>
4.05802e-07

> <r_epik_Ionization_Penalty_Charging>
3.84175e-07

> <r_epik_Ionization_Penalty_Neutral>
2.16269e-08

> <r_epik_State_Penalty>
-0

> <r_epik_Charging_Adjusted_Penalty>
3.84175e-07

> <i_epik_Tot_Q>
0

> <i_epik_Tot_abs_Q>
0

> <r_epik_Metal_State_Penalty>
-0

> <b_epik_Metal_Only>
0

> <s_lp_Force_Field>
OPLS_2005

> <r_lp_Energy>
59.6993

> <b_lp_Chiralities_Consistent>
1

> <s_lp_Variant>
AV-unprocessed.smi:332-1

> <Gold.Version>
5.8.1

> <Gold.Id.Protein>
6NUR|6NUR_protein|mol2

> <Gold.PLP.Fitness>
42.7074

> <Gold.PLP.PLP>
-37.8643

> <Gold.PLP.part.hbond>
-1.6188

> <Gold.PLP.part.metal>
0.0000

> <Gold.PLP.part.buried>
-0.3705

> <Gold.PLP.part.nonpolar>
-36.3295

> <Gold.PLP.part.repulsive>
0.1313

> <Gold.PLP.ligand.clash>
0.0000

> <Gold.PLP.ligand.torsion>
0.0868

> <Gold.PLP.Chemscore.Hbond>
0.9913

> <Gold.PLP.Chemscore.CHOScore>
0.6717

> <Gold.PLP.Chemscore.Metal>
0.0000

> <Gold.Chemscore.Hbonds>
donor molecule, donor type, donor heavy atom, donor atom, acceptor molecule, acceptor atom, score
      L1  H     3    25       P1 10747  1.00
      L1  C     8    28       P1 10769  0.68

> <Gold.PLP.Chemscore.Internal.Correction>
0.0277

> <Gold.Rescore>
     Score         DG    S(hbond)    S(metal)    S(lipo)     H(rot)  DE(clash)    DE(int)     intcor
     13.41     -17.10       0.93        0.00     106.39       1.54       0.50       3.20       ----

> <Gold.Chemscore.Fitness>
13.4079

> <Gold.Chemscore.DG>
-17.1022

> <Gold.Chemscore.ZeroCoef>
-5.4800

> <Gold.Chemscore.Hbond>
0.9332

> <Gold.Chemscore.Metal>
0.0000

> <Gold.Chemscore.Lipo>
106.3870

> <Gold.Chemscore.Internal_Hbond>
0.0000

> <Gold.Chemscore.DEClash>
0.4974

> <Gold.Chemscore.DEInternal>
3.1969

> <Gold.Chemscore.Rot>
1.5398

> <Gold.Chemscore.Internal.Correction>
   9.000000E+99

> <Gold.Chemscore.Hbonds>
donor molecule, donor type, donor heavy atom, donor atom, acceptor molecule, acceptor atom, score
      L1  H     3    25       P1 10747  0.91

> <Gold.Chemscore.Hbond.Weighted>
-3.1168

> <Gold.Chemscore.Metal.Weighted>
-0.0000

> <Gold.Chemscore.Lipo.Weighted>
-12.4473

> <Gold.Chemscore.Internal_Hbond.Weighted>
0.0000

> <Gold.Chemscore.DEClash.Weighted>
0.4974

> <Gold.Chemscore.DEInternal.Weighted>
3.1969

> <Gold.Chemscore.Rot.Weighted>
3.9419

> <Gold.Chemscore.Internal.Correction.Weighted>
   9.000000E+99

> <Gold.Protein.RotatedTorsions>
[ 6907 6896 6895 6894 ] final  -17.00 input  -60.11 | X-H torsion
[ 7974 7965 7964 7962 ] final  143.97 input  175.53 | X-H torsion
[ 8008 7997 7996 7995 ] final    3.50 input   59.86 | X-H torsion
[ 10167 10162 10161 10158 ] final  154.50 input  -65.29 | X-H torsion
[ 10718 10713 10712 10709 ] final    3.15 input   66.30 | X-H torsion
[ 10763 10752 10751 10750 ] final -164.37 input  -60.55 | X-H torsion
[ 11005 11000 10999 10996 ] final  -32.31 input  -57.11 | X-H torsion

> <Gold.Protein.ActiveResidues>
 VAL166  LYS551  ARG553  GLY616  TRP617  ASP618  TYR619  PRO620  LYS621  CYS622 
 ASP623  PHE694  ASN695  SER759  ASP760  ASP761  ALA762  ILE779  LEU786  VAL792 
 PHE793  MET794  SER795  GLU796  ALA797  LYS798  CYS799  TRP800  GLU811  SER814 

> <Gold.Protein.RotatedAtoms>
  151.3001  135.0766  159.9235 H   0  0  0  0  0  0  0  0  0  0  0  0  # atno 6907 bound_to 6896
  152.5299  133.9843  159.7831 H   0  0  0  0  0  0  0  0  0  0  0  0  # atno 6908 bound_to 6896
  151.0128  133.5898  159.2711 H   0  0  0  0  0  0  0  0  0  0  0  0  # atno 6909 bound_to 6896
  144.8875  139.5607  143.5814 H   0  0  0  0  0  0  0  0  0  0  0  0  # atno 7974 bound_to 7965
  154.7044  140.2680  155.6688 H   0  0  0  0  0  0  0  0  0  0  0  0  # atno 8008 bound_to 7997
  156.2775  140.2765  156.1589 H   0  0  0  0  0  0  0  0  0  0  0  0  # atno 8009 bound_to 7997
  155.0720  140.0372  157.2601 H   0  0  0  0  0  0  0  0  0  0  0  0  # atno 8010 bound_to 7997
  139.4823  144.5181  151.7919 H   0  0  0  0  0  0  0  0  0  0  0  0  # atno 10167 bound_to 10162
  156.8736  130.5629  149.5656 H   0  0  0  0  0  0  0  0  0  0  0  0  # atno 10718 bound_to 10713
  154.7035  135.2992  154.9306 H   0  0  0  0  0  0  0  0  0  0  0  0  # atno 10763 bound_to 10752
  154.0230  135.6680  153.4778 H   0  0  0  0  0  0  0  0  0  0  0  0  # atno 10764 bound_to 10752
  153.0699  135.5067  154.8192 H   0  0  0  0  0  0  0  0  0  0  0  0  # atno 10765 bound_to 10752
  140.9542  133.7203  156.1267 H   0  0  0  0  0  0  0  0  0  0  0  0  # atno 11005 bound_to 11000
  146.3033  139.7498  142.9075 LP  0  0  0  0  0  0  0  0  0  0  0  0  # atno 17320 bound_to 7965
  145.3842  141.0363  143.3160 LP  0  0  0  0  0  0  0  0  0  0  0  0  # atno 17321 bound_to 7965
  140.4692  144.1611  150.5915 LP  0  0  0  0  0  0  0  0  0  0  0  0  # atno 17342 bound_to 10162
  140.4401  143.2530  151.9484 LP  0  0  0  0  0  0  0  0  0  0  0  0  # atno 17343 bound_to 10162
  156.0713  130.5746  150.9389 LP  0  0  0  0  0  0  0  0  0  0  0  0  # atno 17370 bound_to 10713
  157.6181  131.0932  150.8672 LP  0  0  0  0  0  0  0  0  0  0  0  0  # atno 17371 bound_to 10713
  140.7560  134.3992  157.5534 LP  0  0  0  0  0  0  0  0  0  0  0  0  # atno 17394 bound_to 11000
  139.8857  134.8930  156.2629 LP  0  0  0  0  0  0  0  0  0  0  0  0  # atno 17395 bound_to 11000

$$$$
