AV-unprocessed.smi:2221|AV-procd|sdf|8983|dock2
  -GOLD-   2272012193D 1   1.00000     0.00000
 Structure written by MMmdl.
 53 54  0  0  0  0  0  0  0  0  2 V2000
  151.9075  145.8522  160.1685 C   0  0  0  0  0  0  0  0  0  0  0  0
  151.9177  144.4922  159.5030 C   0  0  0  0  0  0  0  0  0  0  0  0
  152.7574  143.4642  159.9729 C   0  0  0  0  0  0  0  0  0  0  0  0
  152.7229  142.2223  159.3097 C   0  0  0  0  0  0  0  0  0  0  0  0
  153.5985  141.0744  159.7673 C   0  0  0  0  0  0  0  0  0  0  0  0
  151.9228  141.9748  158.2504 N   0  0  0  0  0  0  0  0  0  0  0  0
  151.1103  142.9575  157.7889 C   0  0  0  0  0  0  0  0  0  0  0  0
  150.2390  142.8009  156.6781 N   0  0  0  0  0  0  0  0  0  0  0  0
  149.8450  141.6583  156.0890 C   0  0  0  0  0  0  0  0  0  0  0  0
  150.1568  140.5234  156.4514 O   0  0  0  0  0  0  0  0  0  0  0  0
  149.0518  141.9003  155.0352 N   0  0  0  0  0  0  0  0  0  0  0  0
  148.4515  140.8713  154.1939 C   0  0  0  0  0  0  0  0  0  0  0  0
  146.9157  140.9969  154.1495 C   0  0  0  0  0  0  0  0  0  0  0  0
  146.2662  139.7910  153.5773 N   0  3  2  0  0  0  0  0  0  0  0  0
  146.0691  138.7246  154.5880 C   0  0  0  0  0  0  0  0  0  0  0  0
  145.2525  137.5564  154.0130 C   0  0  0  0  0  0  0  0  0  0  0  0
  145.9010  136.9522  152.7420 C   0  0  1  0  0  0  0  0  0  0  0  0
  145.0396  135.9152  152.1427 N   0  0  0  0  0  0  0  0  0  0  0  0
  143.6408  136.3342  152.0777 C   0  0  0  0  0  0  0  0  0  0  0  0
  145.4381  135.5936  150.7737 C   0  0  0  0  0  0  0  0  0  0  0  0
  146.1662  138.1071  151.7438 C   0  0  0  0  0  0  0  0  0  0  0  0
  146.9613  139.2586  152.3794 C   0  0  0  0  0  0  0  0  0  0  0  0
  151.0852  144.2334  158.3953 C   0  0  0  0  0  0  0  0  0  0  0  0
  152.4418  145.8310  161.1188 H   0  0  0  0  0  0  0  0  0  0  0  0
  150.8839  146.1738  160.3618 H   0  0  0  0  0  0  0  0  0  0  0  0
  152.3844  146.5902  159.5235 H   0  0  0  0  0  0  0  0  0  0  0  0
  153.4111  143.6220  160.8186 H   0  0  0  0  0  0  0  0  0  0  0  0
  154.4840  141.4432  160.2857 H   0  0  0  0  0  0  0  0  0  0  0  0
  153.9297  140.4750  158.9184 H   0  0  0  0  0  0  0  0  0  0  0  0
  153.0452  140.4288  160.4494 H   0  0  0  0  0  0  0  0  0  0  0  0
  149.8833  143.6585  156.2828 H   0  0  0  0  0  0  0  0  0  0  0  0
  148.8415  142.8608  154.8056 H   0  0  0  0  0  0  0  0  0  0  0  0
  148.8695  140.9266  153.1872 H   0  0  0  0  0  0  0  0  0  0  0  0
  148.7520  139.9072  154.6021 H   0  0  0  0  0  0  0  0  0  0  0  0
  146.5126  141.2004  155.1427 H   0  0  0  0  0  0  0  0  0  0  0  0
  146.6591  141.8589  153.5323 H   0  0  0  0  0  0  0  0  0  0  0  0
  147.0387  138.3700  154.9414 H   0  0  0  0  0  0  0  0  0  0  0  0
  145.5444  139.1289  155.4546 H   0  0  0  0  0  0  0  0  0  0  0  0
  145.1597  136.8090  154.8001 H   0  0  0  0  0  0  0  0  0  0  0  0
  144.2416  137.8994  153.7866 H   0  0  0  0  0  0  0  0  0  0  0  0
  146.8554  136.4999  153.0171 H   0  0  0  0  0  0  0  0  0  0  0  0
  143.0386  135.5913  151.5532 H   0  0  0  0  0  0  0  0  0  0  0  0
  143.5346  137.2854  151.5542 H   0  0  0  0  0  0  0  0  0  0  0  0
  143.2015  136.4321  153.0693 H   0  0  0  0  0  0  0  0  0  0  0  0
  144.7365  134.8915  150.3207 H   0  0  0  0  0  0  0  0  0  0  0  0
  146.4128  135.1093  150.7398 H   0  0  0  0  0  0  0  0  0  0  0  0
  145.4716  136.4877  150.1492 H   0  0  0  0  0  0  0  0  0  0  0  0
  146.7339  137.7594  150.8816 H   0  0  0  0  0  0  0  0  0  0  0  0
  145.2194  138.4911  151.3605 H   0  0  0  0  0  0  0  0  0  0  0  0
  147.0932  140.0435  151.6357 H   0  0  0  0  0  0  0  0  0  0  0  0
  147.9599  138.9168  152.6563 H   0  0  0  0  0  0  0  0  0  0  0  0
  150.4343  145.0087  158.0175 H   0  0  0  0  0  0  0  0  0  0  0  0
  145.3422  140.0766  153.2854 H   0  0  0  0  0  0  0  0  0  0  0  0
  1  2  1  0  0  0  0
  1 24  1  0  0  0  0
  1 25  1  0  0  0  0
  1 26  1  0  0  0  0
  2 23  1  0  0  0  0
  2  3  2  0  0  0  0
  3  4  1  0  0  0  0
  3 27  1  0  0  0  0
  4  5  1  0  0  0  0
  4  6  2  0  0  0  0
  5 28  1  0  0  0  0
  5 29  1  0  0  0  0
  5 30  1  0  0  0  0
  6  7  1  0  0  0  0
  7  8  1  0  0  0  0
  7 23  2  0  0  0  0
  8  9  1  0  0  0  0
  8 31  1  0  0  0  0
  9 10  2  0  0  0  0
  9 11  1  0  0  0  0
 11 12  1  0  0  0  0
 11 32  1  0  0  0  0
 12 13  1  0  0  0  0
 12 33  1  0  0  0  0
 12 34  1  0  0  0  0
 13 14  1  0  0  0  0
 13 35  1  0  0  0  0
 13 36  1  0  0  0  0
 14 22  1  0  0  0  0
 14 15  1  0  0  0  0
 14 53  1  0  0  0  0
 15 16  1  0  0  0  0
 15 37  1  0  0  0  0
 15 38  1  0  0  0  0
 16 17  1  0  0  0  0
 16 39  1  0  0  0  0
 16 40  1  0  0  0  0
 17 18  1  0  0  0  0
 17 21  1  0  0  0  0
 17 41  1  0  0  0  0
 18 19  1  0  0  0  0
 18 20  1  0  0  0  0
 19 42  1  0  0  0  0
 19 43  1  0  0  0  0
 19 44  1  0  0  0  0
 20 45  1  0  0  0  0
 20 46  1  0  0  0  0
 20 47  1  0  0  0  0
 21 22  1  0  0  0  0
 21 48  1  0  0  0  0
 21 49  1  0  0  0  0
 22 50  1  0  0  0  0
 22 51  1  0  0  0  0
 23 52  1  0  0  0  0
M  CHG  1  14   1
M  END
> <s_m_source_file>
AV-unprocessed.smi

> <i_m_source_file_index>
2221

> <i_lp_mmshare_version>
43012

> <i_f3d_flags>
0

> <s_epik_input>
W0NIM11jMVtjSF1jKFtDSDNdKW5jKFtjSF0xKVtOSF1DKD1PKVtOSF1bQ0gyXVtDSDJdTjJbQ0gyXVtDSDJdW0NIXShOKFtDSDNdKVtDSDNdKVtDSDJdW0NIMl0y

> <s_epik_cmdline>
J2VwaWtfcHl0aG9uJywgJy1waCcsICc3LjAnLCAnLXRuJywgJzgnLCAnLW1hJywgJzIwMCcsICctbWV0YWxfYmluZGluZycsICctaW1hZScsICc8aW5maWxlLm1hZT4nLCAnLW9tYWUnLCAnPG91dGZpbGUubWFlPic=

> <r_epik_Ionization_Penalty>
1.32168

> <r_epik_Ionization_Penalty_Charging>
0.00219175

> <r_epik_Ionization_Penalty_Neutral>
1.31949

> <r_epik_State_Penalty>
1.51166

> <r_epik_Charging_Adjusted_Penalty>
1.51385

> <i_epik_Tot_Q>
1

> <i_epik_Tot_abs_Q>
1

> <r_epik_Metal_State_Penalty>
1.51167

> <b_epik_Metal_Only>
0

> <s_lp_Force_Field>
OPLS_2005

> <r_lp_Energy>
22.6933

> <b_lp_Chiralities_Consistent>
1

> <s_lp_Variant>
AV-unprocessed.smi:2221-4

> <Gold.Version>
5.8.1

> <Gold.Id.Protein>
6NUR|6NUR_protein|mol2

> <Gold.PLP.Fitness>
58.2896

> <Gold.PLP.PLP>
-47.8466

> <Gold.PLP.part.hbond>
-3.0000

> <Gold.PLP.part.metal>
0.0000

> <Gold.PLP.part.buried>
-2.9494

> <Gold.PLP.part.nonpolar>
-43.1411

> <Gold.PLP.part.repulsive>
0.4191

> <Gold.PLP.ligand.clash>
0.0000

> <Gold.PLP.ligand.torsion>
0.5423

> <Gold.PLP.Chemscore.Hbond>
3.8160

> <Gold.PLP.Chemscore.CHOScore>
0.0000

> <Gold.PLP.Chemscore.Metal>
0.0000

> <Gold.Chemscore.Hbonds>
donor molecule, donor type, donor heavy atom, donor atom, acceptor molecule, acceptor atom, score
      L1  H     8    31       P1  8028  1.00
      L1  H    11    32       P1  8028  0.82
      L1  H    14    53       P1 10175  2.00

> <Gold.PLP.Chemscore.Internal.Correction>
0.0796

> <Gold.Rescore>
     Score         DG    S(hbond)    S(metal)    S(lipo)     H(rot)  DE(clash)    DE(int)     intcor
     22.65     -24.70       2.88        0.00     117.49       1.61       0.39       1.66       ----

> <Gold.Chemscore.Fitness>
22.6543

> <Gold.Chemscore.DG>
-24.7025

> <Gold.Chemscore.ZeroCoef>
-5.4800

> <Gold.Chemscore.Hbond>
2.8752

> <Gold.Chemscore.Metal>
0.0000

> <Gold.Chemscore.Lipo>
117.4860

> <Gold.Chemscore.Internal_Hbond>
0.0000

> <Gold.Chemscore.DEClash>
0.3875

> <Gold.Chemscore.DEInternal>
1.6608

> <Gold.Chemscore.Rot>
1.6119

> <Gold.Chemscore.Internal.Correction>
   9.000000E+99

> <Gold.Chemscore.Hbonds>
donor molecule, donor type, donor heavy atom, donor atom, acceptor molecule, acceptor atom, score
      L1  H     8    31       P1  8028  0.97
      L1  H    11    32       P1  8028  0.76
      L1  H    14    53       P1 10175  1.00

> <Gold.Chemscore.Hbond.Weighted>
-9.6031

> <Gold.Chemscore.Metal.Weighted>
-0.0000

> <Gold.Chemscore.Lipo.Weighted>
-13.7459

> <Gold.Chemscore.Internal_Hbond.Weighted>
0.0000

> <Gold.Chemscore.DEClash.Weighted>
0.3875

> <Gold.Chemscore.DEInternal.Weighted>
1.6608

> <Gold.Chemscore.Rot.Weighted>
4.1264

> <Gold.Chemscore.Internal.Correction.Weighted>
   9.000000E+99

> <Gold.Protein.RotatedTorsions>
[ 6907 6896 6895 6894 ] final  126.87 input  -60.11 | X-H torsion
[ 7974 7965 7964 7962 ] final    8.50 input  175.53 | X-H torsion
[ 8008 7997 7996 7995 ] final  -10.47 input   59.86 | X-H torsion
[ 10167 10162 10161 10158 ] final -133.61 input  -65.29 | X-H torsion
[ 10718 10713 10712 10709 ] final   28.88 input   66.30 | X-H torsion
[ 10763 10752 10751 10750 ] final  -68.21 input  -60.55 | X-H torsion
[ 11005 11000 10999 10996 ] final  154.40 input  -57.11 | X-H torsion

> <Gold.Protein.ActiveResidues>
 VAL166  LYS551  ARG553  GLY616  TRP617  ASP618  TYR619  PRO620  LYS621  CYS622 
 ASP623  PHE694  ASN695  SER759  ASP760  ASP761  ALA762  ILE779  LEU786  VAL792 
 PHE793  MET794  SER795  GLU796  ALA797  LYS798  CYS799  TRP800  GLU811  SER814 

> <Gold.Protein.RotatedAtoms>
  152.3864  133.6618  159.6202 H   0  0  0  0  0  0  0  0  0  0  0  0  # atno 6907 bound_to 6896
  150.7782  133.9027  159.3355 H   0  0  0  0  0  0  0  0  0  0  0  0  # atno 6908 bound_to 6896
  151.6823  135.0961  160.0269 H   0  0  0  0  0  0  0  0  0  0  0  0  # atno 6909 bound_to 6896
  146.2415  139.9924  142.8424 H   0  0  0  0  0  0  0  0  0  0  0  0  # atno 7974 bound_to 7965
  154.5551  140.2328  155.8422 H   0  0  0  0  0  0  0  0  0  0  0  0  # atno 8008 bound_to 7997
  156.1981  140.3059  155.9430 H   0  0  0  0  0  0  0  0  0  0  0  0  # atno 8009 bound_to 7997
  155.2995  140.0430  157.3019 H   0  0  0  0  0  0  0  0  0  0  0  0  # atno 8010 bound_to 7997
  139.8965  143.6658  152.2603 H   0  0  0  0  0  0  0  0  0  0  0  0  # atno 10167 bound_to 10162
  157.2392  130.7061  149.6350 H   0  0  0  0  0  0  0  0  0  0  0  0  # atno 10718 bound_to 10713
  154.3857  135.6064  153.5815 H   0  0  0  0  0  0  0  0  0  0  0  0  # atno 10763 bound_to 10752
  152.9787  135.5871  154.4357 H   0  0  0  0  0  0  0  0  0  0  0  0  # atno 10764 bound_to 10752
  154.4133  135.2844  155.2000 H   0  0  0  0  0  0  0  0  0  0  0  0  # atno 10765 bound_to 10752
  140.1486  134.8690  157.2425 H   0  0  0  0  0  0  0  0  0  0  0  0  # atno 11005 bound_to 11000
  145.1491  140.9613  143.4443 LP  0  0  0  0  0  0  0  0  0  0  0  0  # atno 17320 bound_to 7965
  145.0222  139.3414  143.6066 LP  0  0  0  0  0  0  0  0  0  0  0  0  # atno 17321 bound_to 7965
  139.7063  144.7627  151.1188 LP  0  0  0  0  0  0  0  0  0  0  0  0  # atno 17342 bound_to 10162
  140.7716  143.5391  150.9334 LP  0  0  0  0  0  0  0  0  0  0  0  0  # atno 17343 bound_to 10162
  155.9671  130.4463  150.5537 LP  0  0  0  0  0  0  0  0  0  0  0  0  # atno 17370 bound_to 10713
  157.3396  131.0714  151.1798 LP  0  0  0  0  0  0  0  0  0  0  0  0  # atno 17371 bound_to 10713
  140.2633  134.3545  155.7399 LP  0  0  0  0  0  0  0  0  0  0  0  0  # atno 17394 bound_to 11000
  141.2196  133.7382  156.9113 LP  0  0  0  0  0  0  0  0  0  0  0  0  # atno 17395 bound_to 11000

$$$$
