AV-unprocessed.smi:2171|AV-procd|sdf|8832|dock8
  -GOLD-   2272012 23D 1   1.00000     0.00000
 Structure written by MMmdl.
 39 41  0  0  0  0  0  0  0  0  2 V2000
  153.2408  138.7658  156.2791 O   0  0  0  0  0  0  0  0  0  0  0  0
  152.0950  139.2169  156.2861 C   0  0  0  0  0  0  0  0  0  0  0  0
  151.0555  138.7269  155.2731 C   0  0  0  0  0  0  0  0  0  0  0  0
  150.0439  139.7336  154.9994 N   0  0  0  0  0  0  0  0  0  0  0  0
  148.6936  139.5550  154.7796 C   0  0  0  0  0  0  0  0  0  0  0  0
  148.1489  140.7894  154.5698 C   0  0  0  0  0  0  0  0  0  0  0  0
  149.2593  141.6721  154.6820 C   0  0  0  0  0  0  0  0  0  0  0  0
  150.3915  141.0379  154.9410 N   0  0  0  0  0  0  0  0  0  0  0  0
  151.6860  140.1590  157.1497 N   0  0  0  0  0  0  0  0  0  0  0  0
  152.5238  140.7580  158.1854 C   0  0  2  0  0  0  0  0  0  0  0  0
  152.1103  140.3687  159.5989 C   0  0  0  0  0  0  0  0  0  0  0  0
  152.7828  141.4411  160.4628 C   0  0  0  0  0  0  0  0  0  0  0  0
  152.9388  142.6454  159.6099 N   0  3  2  0  0  0  0  0  0  0  0  0
  152.3318  143.8766  160.1835 C   0  0  0  0  0  0  0  0  0  0  0  0
  152.1642  144.9601  159.1079 C   0  0  0  0  0  0  0  0  0  0  0  0
  151.2142  144.4979  157.9866 C   0  0  0  0  0  0  0  0  0  0  0  0
  151.1497  142.9632  157.8643 C   0  0  0  0  0  0  0  0  0  0  0  0
  152.5006  142.2985  158.2278 C   0  0  2  0  0  0  0  0  0  0  0  0
  151.5366  138.4598  154.3310 H   0  0  0  0  0  0  0  0  0  0  0  0
  150.5769  137.8247  155.6570 H   0  0  0  0  0  0  0  0  0  0  0  0
  148.2384  138.5756  154.7908 H   0  0  0  0  0  0  0  0  0  0  0  0
  147.1149  141.0260  154.3674 H   0  0  0  0  0  0  0  0  0  0  0  0
  149.2761  142.7477  154.5851 H   0  0  0  0  0  0  0  0  0  0  0  0
  150.7302  140.4794  157.0878 H   0  0  0  0  0  0  0  0  0  0  0  0
  153.5543  140.4270  158.0389 H   0  0  0  0  0  0  0  0  0  0  0  0
  151.0266  140.4330  159.7084 H   0  0  0  0  0  0  0  0  0  0  0  0
  152.4162  139.3573  159.8689 H   0  0  0  0  0  0  0  0  0  0  0  0
  152.2183  141.6309  161.3767 H   0  0  0  0  0  0  0  0  0  0  0  0
  153.7786  141.1110  160.7604 H   0  0  0  0  0  0  0  0  0  0  0  0
  151.3558  143.6497  160.6159 H   0  0  0  0  0  0  0  0  0  0  0  0
  152.9618  144.2366  160.9975 H   0  0  0  0  0  0  0  0  0  0  0  0
  151.7962  145.8864  159.5499 H   0  0  0  0  0  0  0  0  0  0  0  0
  153.1425  145.1924  158.6845 H   0  0  0  0  0  0  0  0  0  0  0  0
  150.2086  144.8800  158.1655 H   0  0  0  0  0  0  0  0  0  0  0  0
  151.5400  144.9361  157.0423 H   0  0  0  0  0  0  0  0  0  0  0  0
  150.3711  142.5809  158.5259 H   0  0  0  0  0  0  0  0  0  0  0  0
  150.8407  142.7029  156.8519 H   0  0  0  0  0  0  0  0  0  0  0  0
  153.2502  142.6797  157.5327 H   0  0  0  0  0  0  0  0  0  0  0  0
  153.9320  142.8180  159.5447 H   0  0  0  0  0  0  0  0  0  0  0  0
  1  2  2  0  0  0  0
  2  3  1  0  0  0  0
  2  9  1  0  0  0  0
  3  4  1  0  0  0  0
  3 19  1  0  0  0  0
  3 20  1  0  0  0  0
  4  8  1  0  0  0  0
  4  5  1  0  0  0  0
  5  6  2  0  0  0  0
  5 21  1  0  0  0  0
  6  7  1  0  0  0  0
  6 22  1  0  0  0  0
  7  8  2  0  0  0  0
  7 23  1  0  0  0  0
  9 10  1  0  0  0  0
  9 24  1  0  0  0  0
 10 18  1  0  0  0  0
 10 11  1  0  0  0  0
 10 25  1  0  0  0  0
 11 12  1  0  0  0  0
 11 26  1  0  0  0  0
 11 27  1  0  0  0  0
 12 13  1  0  0  0  0
 12 28  1  0  0  0  0
 12 29  1  0  0  0  0
 13 18  1  0  0  0  0
 13 14  1  0  0  0  0
 13 39  1  0  0  0  0
 14 15  1  0  0  0  0
 14 30  1  0  0  0  0
 14 31  1  0  0  0  0
 15 16  1  0  0  0  0
 15 32  1  0  0  0  0
 15 33  1  0  0  0  0
 16 17  1  0  0  0  0
 16 34  1  0  0  0  0
 16 35  1  0  0  0  0
 17 18  1  0  0  0  0
 17 36  1  0  0  0  0
 17 37  1  0  0  0  0
 18 38  1  0  0  0  0
M  CHG  1  13   1
M  END
> <s_m_source_file>
AV-unprocessed.smi

> <i_m_source_file_index>
2171

> <i_lp_mmshare_version>
43012

> <i_f3d_flags>
0

> <s_epik_input>
bjFbY0hdW2NIXVtjSF1uMVtDSDJdQyg9TylbTkhdW0NASF0oW0NIMl1bQ0gyXTIpW0NAQEhdKE4yMylbQ0gyXVtDSDJdW0NIMl1bQ0gyXTM=

> <s_epik_cmdline>
J2VwaWtfcHl0aG9uJywgJy1waCcsICc3LjAnLCAnLXRuJywgJzgnLCAnLW1hJywgJzIwMCcsICctbWV0YWxfYmluZGluZycsICctaW1hZScsICc8aW5maWxlLm1hZT4nLCAnLW9tYWUnLCAnPG91dGZpbGUubWFlPic=

> <r_lp_tautomer_probability>
1

> <r_epik_Ionization_Penalty>
0.00204179

> <r_epik_Ionization_Penalty_Charging>
0.00203239

> <r_epik_Ionization_Penalty_Neutral>
9.40205e-06

> <r_epik_State_Penalty>
0.00138983

> <r_epik_Charging_Adjusted_Penalty>
0.00342221

> <i_epik_Tot_Q>
1

> <i_epik_Tot_abs_Q>
1

> <r_epik_Metal_State_Penalty>
-0

> <b_epik_Metal_Only>
0

> <s_lp_Force_Field>
OPLS_2005

> <r_lp_Energy>
41.0306

> <b_lp_Chiralities_Consistent>
1

> <s_lp_Variant>
AV-unprocessed.smi:2171-7

> <Gold.Version>
5.8.1

> <Gold.Id.Protein>
6NUR|6NUR_protein|mol2

> <Gold.PLP.Fitness>
40.6783

> <Gold.PLP.PLP>
-34.5180

> <Gold.PLP.part.hbond>
-2.0000

> <Gold.PLP.part.metal>
0.0000

> <Gold.PLP.part.buried>
-2.9081

> <Gold.PLP.part.nonpolar>
-29.1096

> <Gold.PLP.part.repulsive>
0.2548

> <Gold.PLP.ligand.clash>
0.0000

> <Gold.PLP.ligand.torsion>
0.7782

> <Gold.PLP.Chemscore.Hbond>
1.5712

> <Gold.PLP.Chemscore.CHOScore>
1.0000

> <Gold.PLP.Chemscore.Metal>
0.0000

> <Gold.Chemscore.Hbonds>
donor molecule, donor type, donor heavy atom, donor atom, acceptor molecule, acceptor atom, score
      P1  H  7989  7998       L1     8  0.62
      P1  H  7997  8009       L1     1  1.00
      L1  C     7    23       P1  8028  1.00

> <Gold.PLP.Chemscore.Internal.Correction>
0.0031

> <Gold.Rescore>
     Score         DG    S(hbond)    S(metal)    S(lipo)     H(rot)  DE(clash)    DE(int)     intcor
     16.78     -17.38       1.12        0.00     101.38       1.44       0.01       0.59       ----

> <Gold.Chemscore.Fitness>
16.7823

> <Gold.Chemscore.DG>
-17.3827

> <Gold.Chemscore.ZeroCoef>
-5.4800

> <Gold.Chemscore.Hbond>
1.1169

> <Gold.Chemscore.Metal>
0.0000

> <Gold.Chemscore.Lipo>
101.3793

> <Gold.Chemscore.Internal_Hbond>
0.0000

> <Gold.Chemscore.DEClash>
0.0130

> <Gold.Chemscore.DEInternal>
0.5873

> <Gold.Chemscore.Rot>
1.4410

> <Gold.Chemscore.Internal.Correction>
   9.000000E+99

> <Gold.Chemscore.Hbonds>
donor molecule, donor type, donor heavy atom, donor atom, acceptor molecule, acceptor atom, score
      P1  H  7989  7998       L1     8  0.11
      P1  H  7997  8009       L1     1  0.68

> <Gold.Chemscore.Hbond.Weighted>
-3.7303

> <Gold.Chemscore.Metal.Weighted>
-0.0000

> <Gold.Chemscore.Lipo.Weighted>
-11.8614

> <Gold.Chemscore.Internal_Hbond.Weighted>
0.0000

> <Gold.Chemscore.DEClash.Weighted>
0.0130

> <Gold.Chemscore.DEInternal.Weighted>
0.5873

> <Gold.Chemscore.Rot.Weighted>
3.6889

> <Gold.Chemscore.Internal.Correction.Weighted>
   9.000000E+99

> <Gold.Protein.RotatedTorsions>
[ 6907 6896 6895 6894 ] final  172.16 input  -60.11 | X-H torsion
[ 7974 7965 7964 7962 ] final -125.67 input  175.53 | X-H torsion
[ 8008 7997 7996 7995 ] final -169.00 input   59.86 | X-H torsion
[ 10167 10162 10161 10158 ] final -174.21 input  -65.29 | X-H torsion
[ 10718 10713 10712 10709 ] final   47.42 input   66.30 | X-H torsion
[ 10763 10752 10751 10750 ] final -161.17 input  -60.55 | X-H torsion
[ 11005 11000 10999 10996 ] final  -43.28 input  -57.11 | X-H torsion

> <Gold.Protein.ActiveResidues>
 VAL166  LYS551  ARG553  GLY616  TRP617  ASP618  TYR619  PRO620  LYS621  CYS622 
 ASP623  PHE694  ASN695  SER759  ASP760  ASP761  ALA762  ILE779  LEU786  VAL792 
 PHE793  MET794  SER795  GLU796  ALA797  LYS798  CYS799  TRP800  GLU811  SER814 

> <Gold.Protein.RotatedAtoms>
  151.7888  133.3357  159.3492 H   0  0  0  0  0  0  0  0  0  0  0  0  # atno 6907 bound_to 6896
  150.7399  134.5862  159.5973 H   0  0  0  0  0  0  0  0  0  0  0  0  # atno 6908 bound_to 6896
  152.3225  134.7364  160.0361 H   0  0  0  0  0  0  0  0  0  0  0  0  # atno 6909 bound_to 6896
  144.9952  140.7769  143.4530 H   0  0  0  0  0  0  0  0  0  0  0  0  # atno 7974 bound_to 7965
  155.8990  140.1037  157.1364 H   0  0  0  0  0  0  0  0  0  0  0  0  # atno 8008 bound_to 7997
  154.4024  140.1296  156.4476 H   0  0  0  0  0  0  0  0  0  0  0  0  # atno 8009 bound_to 7997
  155.7445  140.3466  155.5122 H   0  0  0  0  0  0  0  0  0  0  0  0  # atno 8010 bound_to 7997
  139.5646  144.1786  152.1293 H   0  0  0  0  0  0  0  0  0  0  0  0  # atno 10167 bound_to 10162
  157.4582  130.8180  149.7859 H   0  0  0  0  0  0  0  0  0  0  0  0  # atno 10718 bound_to 10713
  154.7327  135.3050  154.8864 H   0  0  0  0  0  0  0  0  0  0  0  0  # atno 10763 bound_to 10752
  153.9702  135.6742  153.4751 H   0  0  0  0  0  0  0  0  0  0  0  0  # atno 10764 bound_to 10752
  153.0933  135.4948  154.8653 H   0  0  0  0  0  0  0  0  0  0  0  0  # atno 10765 bound_to 10752
  141.0373  133.6794  156.2711 H   0  0  0  0  0  0  0  0  0  0  0  0  # atno 11005 bound_to 11000
  145.2230  139.2150  143.5083 LP  0  0  0  0  0  0  0  0  0  0  0  0  # atno 17320 bound_to 7965
  146.3440  140.2092  142.8590 LP  0  0  0  0  0  0  0  0  0  0  0  0  # atno 17321 bound_to 7965
  140.1307  144.5291  150.6805 LP  0  0  0  0  0  0  0  0  0  0  0  0  # atno 17342 bound_to 10162
  140.6929  143.2386  151.5082 LP  0  0  0  0  0  0  0  0  0  0  0  0  # atno 17343 bound_to 10162
  156.0017  130.3877  150.2581 LP  0  0  0  0  0  0  0  0  0  0  0  0  # atno 17370 bound_to 10713
  157.0757  131.0129  151.3174 LP  0  0  0  0  0  0  0  0  0  0  0  0  # atno 17371 bound_to 10713
  140.6299  134.5275  157.5558 LP  0  0  0  0  0  0  0  0  0  0  0  0  # atno 17394 bound_to 11000
  139.9250  134.8074  156.1096 LP  0  0  0  0  0  0  0  0  0  0  0  0  # atno 17395 bound_to 11000

$$$$
