AV-unprocessed.smi:34|AV-procd|sdf|218|dock10
  -GOLD-   2262015533D 1   1.00000     0.00000
 Structure written by MMmdl.
 55 59  0  0  0  0  0  0  0  0  1 V2000
  153.7712  140.2714  158.9386 O   0  0  0  0  0  0  0  0  0  0  0  0
  152.8256  140.9834  158.5997 C   0  0  0  0  0  0  0  0  0  0  0  0
  152.0165  140.6918  157.4296 N   0  0  0  0  0  0  0  0  0  0  0  0
  152.1027  139.6285  156.5961 C   0  0  0  0  0  0  0  0  0  0  0  0
  152.6707  139.7114  155.3646 N   0  0  0  0  0  0  0  0  0  0  0  0
  152.7307  138.6329  154.5786 C   0  0  0  0  0  0  0  0  0  0  0  0
  152.2925  137.3972  154.8253 N   0  0  0  0  0  0  0  0  0  0  0  0
  151.7223  137.3019  156.0613 C   0  0  0  0  0  0  0  0  0  0  0  0
  151.5942  138.3659  156.9981 C   0  0  0  0  0  0  0  0  0  0  0  0
  150.9696  137.9067  158.1499 N   0  0  0  0  0  0  0  0  0  0  0  0
  150.7418  136.6451  157.9038 C   0  0  0  0  0  0  0  0  0  0  0  0
  151.1625  136.1951  156.6718 N   0  0  0  0  0  0  0  0  0  0  0  0
  151.0334  134.8017  156.1300 C   0  0  1  0  0  0  0  0  0  0  0  0
  150.2894  134.0169  157.0190 O   0  0  0  0  0  0  0  0  0  0  0  0
  149.1053  133.5431  156.3804 C   0  0  2  0  0  0  0  0  0  0  0  0
  148.6817  132.1969  156.9778 C   0  0  0  0  0  0  0  0  0  0  0  0
  148.2252  131.3460  155.9391 O   0  0  0  0  0  0  0  0  0  0  0  0
  149.0887  130.5301  155.3042 C   0  0  0  0  0  0  0  0  0  0  0  0
  150.2647  130.3843  155.6439 O   0  0  0  0  0  0  0  0  0  0  0  0
  148.4703  129.8185  154.1483 C   0  0  0  0  0  0  0  0  0  0  0  0
  147.1339  130.1106  153.7883 C   0  0  0  0  0  0  0  0  0  0  0  0
  146.5252  129.4575  152.6988 C   0  0  0  0  0  0  0  0  0  0  0  0
  147.2450  128.5034  151.9565 C   0  0  0  0  0  0  0  0  0  0  0  0
  148.5744  128.2023  152.3058 C   0  0  0  0  0  0  0  0  0  0  0  0
  149.1851  128.8546  153.3948 C   0  0  0  0  0  0  0  0  0  0  0  0
  149.5052  133.4874  154.9090 C   0  0  1  0  0  0  0  0  0  0  0  0
  148.4751  133.4276  154.0630 F   0  0  0  0  0  0  0  0  0  0  0  0
  150.3348  134.7490  154.7552 C   0  0  1  0  0  0  0  0  0  0  0  0
  149.5242  135.8812  154.4855 O   0  0  0  0  0  0  0  0  0  0  0  0
  152.4968  142.2561  159.3232 C   0  0  0  0  0  0  0  0  0  0  0  0
  152.1334  143.4105  158.5938 C   0  0  0  0  0  0  0  0  0  0  0  0
  151.8315  144.6116  159.2646 C   0  0  0  0  0  0  0  0  0  0  0  0
  151.8999  144.6710  160.6693 C   0  0  0  0  0  0  0  0  0  0  0  0
  152.2749  143.5296  161.4029 C   0  0  0  0  0  0  0  0  0  0  0  0
  152.5763  142.3276  160.7333 C   0  0  0  0  0  0  0  0  0  0  0  0
  151.2997  141.3678  157.2098 H   0  0  0  0  0  0  0  0  0  0  0  0
  153.1962  138.7815  153.6156 H   0  0  0  0  0  0  0  0  0  0  0  0
  150.2576  136.0006  158.6230 H   0  0  0  0  0  0  0  0  0  0  0  0
  152.0559  134.4234  156.0993 H   0  0  0  0  0  0  0  0  0  0  0  0
  148.3150  134.2810  156.5238 H   0  0  0  0  0  0  0  0  0  0  0  0
  149.5124  131.7361  157.5142 H   0  0  0  0  0  0  0  0  0  0  0  0
  147.8730  132.3504  157.6935 H   0  0  0  0  0  0  0  0  0  0  0  0
  146.5613  130.8402  154.3427 H   0  0  0  0  0  0  0  0  0  0  0  0
  145.5046  129.6899  152.4326 H   0  0  0  0  0  0  0  0  0  0  0  0
  146.7783  128.0032  151.1207 H   0  0  0  0  0  0  0  0  0  0  0  0
  149.1283  127.4692  151.7381 H   0  0  0  0  0  0  0  0  0  0  0  0
  150.2065  128.5990  153.6361 H   0  0  0  0  0  0  0  0  0  0  0  0
  150.1265  132.6104  154.7222 H   0  0  0  0  0  0  0  0  0  0  0  0
  151.0800  134.6556  153.9648 H   0  0  0  0  0  0  0  0  0  0  0  0
  149.1997  135.8138  153.6005 H   0  0  0  0  0  0  0  0  0  0  0  0
  152.0759  143.3803  157.5152 H   0  0  0  0  0  0  0  0  0  0  0  0
  151.5478  145.4878  158.7005 H   0  0  0  0  0  0  0  0  0  0  0  0
  151.6680  145.5921  161.1835 H   0  0  0  0  0  0  0  0  0  0  0  0
  152.3337  143.5763  162.4803 H   0  0  0  0  0  0  0  0  0  0  0  0
  152.8709  141.4652  161.3139 H   0  0  0  0  0  0  0  0  0  0  0  0
  1  2  2  0  0  0  0
  2  3  1  0  0  0  0
  2 30  1  0  0  0  0
  3  4  1  0  0  0  0
  3 36  1  0  0  0  0
  4  9  1  0  0  0  0
  4  5  2  0  0  0  0
  5  6  1  0  0  0  0
  6  7  2  0  0  0  0
  6 37  1  0  0  0  0
  7  8  1  0  0  0  0
  8 12  1  0  0  0  0
  8  9  2  0  0  0  0
  9 10  1  0  0  0  0
 10 11  2  0  0  0  0
 11 12  1  0  0  0  0
 11 38  1  0  0  0  0
 12 13  1  0  0  0  0
 13 28  1  0  0  0  0
 13 14  1  0  0  0  0
 13 39  1  0  0  0  0
 14 15  1  0  0  0  0
 15 16  1  0  0  0  0
 15 26  1  0  0  0  0
 15 40  1  0  0  0  0
 16 17  1  0  0  0  0
 16 41  1  0  0  0  0
 16 42  1  0  0  0  0
 17 18  1  0  0  0  0
 18 19  2  0  0  0  0
 18 20  1  0  0  0  0
 20 25  1  0  0  0  0
 20 21  2  0  0  0  0
 21 22  1  0  0  0  0
 21 43  1  0  0  0  0
 22 23  2  0  0  0  0
 22 44  1  0  0  0  0
 23 24  1  0  0  0  0
 23 45  1  0  0  0  0
 24 25  2  0  0  0  0
 24 46  1  0  0  0  0
 25 47  1  0  0  0  0
 26 27  1  0  0  0  0
 26 28  1  0  0  0  0
 26 48  1  0  0  0  0
 28 29  1  0  0  0  0
 28 49  1  0  0  0  0
 29 50  1  0  0  0  0
 30 35  1  0  0  0  0
 30 31  2  0  0  0  0
 31 32  1  0  0  0  0
 31 51  1  0  0  0  0
 32 33  2  0  0  0  0
 32 52  1  0  0  0  0
 33 34  1  0  0  0  0
 33 53  1  0  0  0  0
 34 35  2  0  0  0  0
 34 54  1  0  0  0  0
 35 55  1  0  0  0  0
M  END
> <s_m_source_file>
AV-unprocessed.smi

> <i_m_source_file_index>
34

> <i_lp_mmshare_version>
43012

> <i_f3d_flags>
0

> <s_epik_input>
W2NIXTFbY0hdW2NIXVtjSF1bY0hdYzFDKD1PKVtOSF1jKG5bY0hdbjIpYyhjMjMpbltjSF1uM1tDQEBIXTRPW0NASF0oW0NAQEhdKEYpW0NASF00W09IXSlbQ0gyXU9DKD1PKWM1W2NIXVtjSF1bY0hdW2NIXVtjSF01

> <s_epik_cmdline>
J2VwaWtfcHl0aG9uJywgJy1waCcsICc3LjAnLCAnLXRuJywgJzgnLCAnLW1hJywgJzIwMCcsICctbWV0YWxfYmluZGluZycsICctaW1hZScsICc8aW5maWxlLm1hZT4nLCAnLW9tYWUnLCAnPG91dGZpbGUubWFlPic=

> <r_lp_tautomer_probability>
1

> <r_epik_Ionization_Penalty>
0.00257489

> <r_epik_Ionization_Penalty_Charging>
0

> <r_epik_Ionization_Penalty_Neutral>
0.00257489

> <r_epik_State_Penalty>
0.00519398

> <r_epik_Charging_Adjusted_Penalty>
0.00519398

> <i_epik_Tot_Q>
0

> <i_epik_Tot_abs_Q>
0

> <r_epik_Metal_State_Penalty>
0.335891

> <b_epik_Metal_Only>
0

> <s_epik_Chemistry_Notes>
This compound has an ester and may undergo hydrolysis at high or low pH. This compound contains an acetal/aminal-like group ( X-CH(R)-Y where X, Y are N, S, or O) that may be acid/base labile, releasing an aldehyde.

> <s_lp_Force_Field>
OPLS_2005

> <r_lp_Energy>
55.7216

> <b_lp_Chiralities_Consistent>
1

> <s_lp_Variant>
AV-unprocessed.smi:34-4

> <Gold.Version>
5.8.1

> <Gold.Id.Protein>
6NUR|6NUR_protein|mol2

> <Gold.PLP.Fitness>
67.0476

> <Gold.PLP.PLP>
-60.4250

> <Gold.PLP.part.hbond>
-5.2961

> <Gold.PLP.part.metal>
0.0000

> <Gold.PLP.part.buried>
-7.5026

> <Gold.PLP.part.nonpolar>
-48.6159

> <Gold.PLP.part.repulsive>
0.1875

> <Gold.PLP.ligand.clash>
0.0000

> <Gold.PLP.ligand.torsion>
2.1357

> <Gold.PLP.Chemscore.Hbond>
3.5504

> <Gold.PLP.Chemscore.CHOScore>
0.0000

> <Gold.PLP.Chemscore.Metal>
0.0000

> <Gold.Chemscore.Hbonds>
donor molecule, donor type, donor heavy atom, donor atom, acceptor molecule, acceptor atom, score
      L1  H    29    50       P1  7948  1.00
      P1  H  6896  6907       L1    14  0.27
      P1  H  7989  7998       L1     5  0.01
      P1  H  7997  8008       L1     5  0.96
      P1  H  7997  8010       L1     1  0.55
      P1  H 10752 10763       L1     7  0.70

> <Gold.PLP.Chemscore.Internal.Correction>
0.2428

> <Gold.Rescore>
     Score         DG    S(hbond)    S(metal)    S(lipo)     H(rot)  DE(clash)    DE(int)     intcor
     18.15     -22.50       2.89        0.00     122.56       2.72       0.14       4.21       ----

> <Gold.Chemscore.Fitness>
18.1464

> <Gold.Chemscore.DG>
-22.4963

> <Gold.Chemscore.ZeroCoef>
-5.4800

> <Gold.Chemscore.Hbond>
2.8875

> <Gold.Chemscore.Metal>
0.0000

> <Gold.Chemscore.Lipo>
122.5581

> <Gold.Chemscore.Internal_Hbond>
0.0000

> <Gold.Chemscore.DEClash>
0.1352

> <Gold.Chemscore.DEInternal>
4.2148

> <Gold.Chemscore.Rot>
2.7215

> <Gold.Chemscore.Internal.Correction>
   9.000000E+99

> <Gold.Chemscore.Hbonds>
donor molecule, donor type, donor heavy atom, donor atom, acceptor molecule, acceptor atom, score
      L1  H    29    50       P1  7948  0.74
      P1  H  6896  6907       L1    14  0.28
      P1  H  7997  8008       L1     5  0.22
      P1  H  7997  8010       L1     1  0.41
      P1  H 10752 10763       L1     7  0.28

> <Gold.Chemscore.Hbond.Weighted>
-9.6441

> <Gold.Chemscore.Metal.Weighted>
-0.0000

> <Gold.Chemscore.Lipo.Weighted>
-14.3393

> <Gold.Chemscore.Internal_Hbond.Weighted>
0.0000

> <Gold.Chemscore.DEClash.Weighted>
0.1352

> <Gold.Chemscore.DEInternal.Weighted>
4.2148

> <Gold.Chemscore.Rot.Weighted>
6.9670

> <Gold.Chemscore.Internal.Correction.Weighted>
   9.000000E+99

> <Gold.Protein.RotatedTorsions>
[ 6907 6896 6895 6894 ] final -122.64 input  -60.11 | X-H torsion
[ 7974 7965 7964 7962 ] final  103.00 input  175.53 | X-H torsion
[ 8008 7997 7996 7995 ] final   -2.85 input   59.86 | X-H torsion
[ 10167 10162 10161 10158 ] final  161.45 input  -65.29 | X-H torsion
[ 10718 10713 10712 10709 ] final  -64.76 input   66.30 | X-H torsion
[ 10763 10752 10751 10750 ] final   55.13 input  -60.55 | X-H torsion
[ 11005 11000 10999 10996 ] final   78.27 input  -57.11 | X-H torsion

> <Gold.Protein.ActiveResidues>
 VAL166  LYS551  ARG553  GLY616  TRP617  ASP618  TYR619  PRO620  LYS621  CYS622 
 ASP623  PHE694  ASN695  SER759  ASP760  ASP761  ALA762  ILE779  LEU786  VAL792 
 PHE793  MET794  SER795  GLU796  ALA797  LYS798  CYS799  TRP800  GLU811  SER814 

> <Gold.Protein.RotatedAtoms>
  150.8595  133.7665  159.2997 H   0  0  0  0  0  0  0  0  0  0  0  0  # atno 6907 bound_to 6896
  151.5312  135.1067  159.9912 H   0  0  0  0  0  0  0  0  0  0  0  0  # atno 6908 bound_to 6896
  152.4615  133.7789  159.6895 H   0  0  0  0  0  0  0  0  0  0  0  0  # atno 6909 bound_to 6896
  145.3516  139.2438  143.3555 H   0  0  0  0  0  0  0  0  0  0  0  0  # atno 7974 bound_to 7965
  154.6312  140.2524  155.7431 H   0  0  0  0  0  0  0  0  0  0  0  0  # atno 8008 bound_to 7997
  156.2480  140.2906  156.0585 H   0  0  0  0  0  0  0  0  0  0  0  0  # atno 8009 bound_to 7997
  155.1741  140.0387  157.2859 H   0  0  0  0  0  0  0  0  0  0  0  0  # atno 8010 bound_to 7997
  139.4849  144.4535  151.8798 H   0  0  0  0  0  0  0  0  0  0  0  0  # atno 10167 bound_to 10162
  156.0710  130.4238  150.1466 H   0  0  0  0  0  0  0  0  0  0  0  0  # atno 10718 bound_to 10713
  152.9813  135.5721  154.5017 H   0  0  0  0  0  0  0  0  0  0  0  0  # atno 10763 bound_to 10752
  154.4535  135.2779  155.1766 H   0  0  0  0  0  0  0  0  0  0  0  0  # atno 10764 bound_to 10752
  154.3383  135.6234  153.5638 H   0  0  0  0  0  0  0  0  0  0  0  0  # atno 10765 bound_to 10752
  139.9220  134.7750  156.1628 H   0  0  0  0  0  0  0  0  0  0  0  0  # atno 11005 bound_to 11000
  146.2965  140.4133  142.8720 LP  0  0  0  0  0  0  0  0  0  0  0  0  # atno 17320 bound_to 7965
  144.8713  140.7276  143.6045 LP  0  0  0  0  0  0  0  0  0  0  0  0  # atno 17321 bound_to 7965
  140.3993  144.2513  150.5894 LP  0  0  0  0  0  0  0  0  0  0  0  0  # atno 17342 bound_to 10162
  140.5072  143.2301  151.8590 LP  0  0  0  0  0  0  0  0  0  0  0  0  # atno 17343 bound_to 10162
  156.9516  130.9777  151.3497 LP  0  0  0  0  0  0  0  0  0  0  0  0  # atno 17370 bound_to 10713
  157.5780  130.8357  149.8483 LP  0  0  0  0  0  0  0  0  0  0  0  0  # atno 17371 bound_to 10713
  141.0748  133.6780  156.2213 LP  0  0  0  0  0  0  0  0  0  0  0  0  # atno 17394 bound_to 11000
  140.6447  134.5129  157.5572 LP  0  0  0  0  0  0  0  0  0  0  0  0  # atno 17395 bound_to 11000

$$$$
