AV-unprocessed.smi:783|AV-procd|sdf|3716|dock8
  -GOLD-   22720 1143D 1   1.00000     0.00000
 Structure written by MMmdl.
 45 46  0  0  0  0  0  0  0  0  1 V2000
  151.3960  139.9885  159.2408 C   0  0  0  0  0  0  0  0  0  0  0  0
  150.7659  139.0248  158.2143 C   0  0  2  0  0  0  0  0  0  0  0  0
  150.5266  137.6221  158.7935 C   0  0  0  0  0  0  0  0  0  0  0  0
  151.4551  136.9805  159.2856 O   0  0  0  0  0  0  0  0  0  0  0  0
  149.2658  137.1642  158.7337 N   0  0  0  0  0  0  0  0  0  0  0  0
  148.7906  135.8809  159.2519 C   0  0  0  0  0  0  0  0  0  0  0  0
  147.7641  136.0423  160.4156 C   0  0  0  0  0  0  0  0  0  0  0  0
  146.4524  136.7653  159.9573 C   0  0  0  0  0  0  0  0  0  0  0  0
  146.1184  137.7916  160.5549 O   0  0  0  0  0  0  0  0  0  0  0  0
  145.6719  136.2878  158.9496 N   0  0  0  0  0  0  0  0  0  0  0  0
  145.9107  135.1176  158.0986 C   0  0  0  0  0  0  0  0  0  0  0  0
  144.4122  136.9675  158.6306 C   0  0  0  0  0  0  0  0  0  0  0  0
  147.4575  134.6270  160.9824 C   0  0  0  0  0  0  0  0  0  0  0  0
  146.9835  134.8073  162.4281 C   0  0  0  0  0  0  0  0  0  0  0  0
  147.5818  136.1376  162.8896 C   0  0  0  0  0  0  0  0  0  0  0  0
  148.3535  136.7011  161.6883 C   0  0  0  0  0  0  0  0  0  0  0  0
  151.5423  138.9386  156.9826 N   0  0  0  0  0  0  0  0  0  0  0  0
  152.7317  139.5732  156.6851 C   0  0  0  0  0  0  0  0  0  0  0  0
  153.0718  139.2322  155.4073 C   0  0  0  0  0  0  0  0  0  0  0  0
  152.0087  138.3843  154.9901 C   0  0  0  0  0  0  0  0  0  0  0  0
  151.0924  138.2172  155.9292 N   0  0  0  0  0  0  0  0  0  0  0  0
  150.7694  140.0783  160.1288 H   0  0  0  0  0  0  0  0  0  0  0  0
  151.5074  140.9873  158.8181 H   0  0  0  0  0  0  0  0  0  0  0  0
  152.3829  139.6568  159.5667 H   0  0  0  0  0  0  0  0  0  0  0  0
  149.7912  139.4377  157.9484 H   0  0  0  0  0  0  0  0  0  0  0  0
  148.5712  137.7623  158.3107 H   0  0  0  0  0  0  0  0  0  0  0  0
  148.3139  135.3664  158.4172 H   0  0  0  0  0  0  0  0  0  0  0  0
  149.6298  135.2401  159.5114 H   0  0  0  0  0  0  0  0  0  0  0  0
  146.9088  134.6967  158.1461 H   0  0  0  0  0  0  0  0  0  0  0  0
  145.7425  135.3759  157.0525 H   0  0  0  0  0  0  0  0  0  0  0  0
  145.2097  134.3238  158.3573 H   0  0  0  0  0  0  0  0  0  0  0  0
  144.6035  137.9750  158.2586 H   0  0  0  0  0  0  0  0  0  0  0  0
  143.7776  137.0429  159.5152 H   0  0  0  0  0  0  0  0  0  0  0  0
  143.8356  136.4403  157.8695 H   0  0  0  0  0  0  0  0  0  0  0  0
  146.7449  134.0550  160.3863 H   0  0  0  0  0  0  0  0  0  0  0  0
  148.3718  134.0317  161.0012 H   0  0  0  0  0  0  0  0  0  0  0  0
  145.8947  134.8545  162.4695 H   0  0  0  0  0  0  0  0  0  0  0  0
  147.2980  133.9751  163.0587 H   0  0  0  0  0  0  0  0  0  0  0  0
  146.7813  136.8197  163.1786 H   0  0  0  0  0  0  0  0  0  0  0  0
  148.2329  136.0143  163.7556 H   0  0  0  0  0  0  0  0  0  0  0  0
  149.4069  136.4339  161.7833 H   0  0  0  0  0  0  0  0  0  0  0  0
  148.3067  137.7877  161.7073 H   0  0  0  0  0  0  0  0  0  0  0  0
  153.2327  140.2083  157.4008 H   0  0  0  0  0  0  0  0  0  0  0  0
  153.9442  139.5452  154.8530 H   0  0  0  0  0  0  0  0  0  0  0  0
  151.8741  137.8921  154.0379 H   0  0  0  0  0  0  0  0  0  0  0  0
  1  2  1  0  0  0  0
  1 22  1  0  0  0  0
  1 23  1  0  0  0  0
  1 24  1  0  0  0  0
  2  3  1  0  0  0  0
  2 17  1  0  0  0  0
  2 25  1  0  0  0  0
  3  4  2  0  0  0  0
  3  5  1  0  0  0  0
  5  6  1  0  0  0  0
  5 26  1  0  0  0  0
  6  7  1  0  0  0  0
  6 27  1  0  0  0  0
  6 28  1  0  0  0  0
  7 16  1  0  0  0  0
  7  8  1  0  0  0  0
  7 13  1  0  0  0  0
  8  9  2  0  0  0  0
  8 10  1  0  0  0  0
 10 11  1  0  0  0  0
 10 12  1  0  0  0  0
 11 29  1  0  0  0  0
 11 30  1  0  0  0  0
 11 31  1  0  0  0  0
 12 32  1  0  0  0  0
 12 33  1  0  0  0  0
 12 34  1  0  0  0  0
 13 14  1  0  0  0  0
 13 35  1  0  0  0  0
 13 36  1  0  0  0  0
 14 15  1  0  0  0  0
 14 37  1  0  0  0  0
 14 38  1  0  0  0  0
 15 16  1  0  0  0  0
 15 39  1  0  0  0  0
 15 40  1  0  0  0  0
 16 41  1  0  0  0  0
 16 42  1  0  0  0  0
 17 21  1  0  0  0  0
 17 18  1  0  0  0  0
 18 19  2  0  0  0  0
 18 43  1  0  0  0  0
 19 20  1  0  0  0  0
 19 44  1  0  0  0  0
 20 21  2  0  0  0  0
 20 45  1  0  0  0  0
M  END
> <s_m_source_file>
AV-unprocessed.smi

> <i_m_source_file_index>
783

> <i_lp_mmshare_version>
43012

> <i_f3d_flags>
0

> <s_epik_input>
bjFbY0hdW2NIXVtjSF1uMVtDQEhdKFtDSDNdKUMoPU8pW05IXVtDSDJdQzIoQyg9TylOKFtDSDNdKVtDSDNdKVtDSDJdW0NIMl1bQ0gyXVtDSDJdMg==

> <s_epik_cmdline>
J2VwaWtfcHl0aG9uJywgJy1waCcsICc3LjAnLCAnLXRuJywgJzgnLCAnLW1hJywgJzIwMCcsICctbWV0YWxfYmluZGluZycsICctaW1hZScsICc8aW5maWxlLm1hZT4nLCAnLW9tYWUnLCAnPG91dGZpbGUubWFlPic=

> <r_lp_tautomer_probability>
1

> <r_epik_Ionization_Penalty>
3.31274e-05

> <r_epik_Ionization_Penalty_Charging>
0

> <r_epik_Ionization_Penalty_Neutral>
3.31274e-05

> <r_epik_State_Penalty>
-0

> <r_epik_Charging_Adjusted_Penalty>
0

> <i_epik_Tot_Q>
0

> <i_epik_Tot_abs_Q>
0

> <r_epik_Metal_State_Penalty>
-0

> <b_epik_Metal_Only>
0

> <s_lp_Force_Field>
OPLS_2005

> <r_lp_Energy>
39.8422

> <b_lp_Chiralities_Consistent>
1

> <s_lp_Variant>
AV-unprocessed.smi:783-1

> <Gold.Version>
5.8.1

> <Gold.Id.Protein>
6NUR|6NUR_protein|mol2

> <Gold.PLP.Fitness>
40.6588

> <Gold.PLP.PLP>
-31.5771

> <Gold.PLP.part.hbond>
-2.0000

> <Gold.PLP.part.metal>
0.0000

> <Gold.PLP.part.buried>
-2.3903

> <Gold.PLP.part.nonpolar>
-27.5906

> <Gold.PLP.part.repulsive>
0.2012

> <Gold.PLP.ligand.clash>
0.0000

> <Gold.PLP.ligand.torsion>
0.2329

> <Gold.PLP.Chemscore.Hbond>
1.9600

> <Gold.PLP.Chemscore.CHOScore>
1.1221

> <Gold.PLP.Chemscore.Metal>
0.0000

> <Gold.Chemscore.Hbonds>
donor molecule, donor type, donor heavy atom, donor atom, acceptor molecule, acceptor atom, score
      P1  H  6896  6907       L1     4  0.99
      P1  H  6934  6947       L1     9  1.00

> <Gold.PLP.Chemscore.Internal.Correction>
0.3013

> <Gold.Rescore>
     Score         DG    S(hbond)    S(metal)    S(lipo)     H(rot)  DE(clash)    DE(int)     intcor
     15.32     -15.59       1.91        0.00      72.23       1.84       0.02       0.25       ----

> <Gold.Chemscore.Fitness>
15.3227

> <Gold.Chemscore.DG>
-15.5922

> <Gold.Chemscore.ZeroCoef>
-5.4800

> <Gold.Chemscore.Hbond>
1.9115

> <Gold.Chemscore.Metal>
0.0000

> <Gold.Chemscore.Lipo>
72.2285

> <Gold.Chemscore.Internal_Hbond>
0.0000

> <Gold.Chemscore.DEClash>
0.0171

> <Gold.Chemscore.DEInternal>
0.2524

> <Gold.Chemscore.Rot>
1.8449

> <Gold.Chemscore.Internal.Correction>
   9.000000E+99

> <Gold.Chemscore.Hbonds>
donor molecule, donor type, donor heavy atom, donor atom, acceptor molecule, acceptor atom, score
      P1  H  6896  6907       L1     4  0.91
      P1  H  6934  6947       L1     9  0.99

> <Gold.Chemscore.Hbond.Weighted>
-6.3843

> <Gold.Chemscore.Metal.Weighted>
-0.0000

> <Gold.Chemscore.Lipo.Weighted>
-8.4507

> <Gold.Chemscore.Internal_Hbond.Weighted>
0.0000

> <Gold.Chemscore.DEClash.Weighted>
0.0171

> <Gold.Chemscore.DEInternal.Weighted>
0.2524

> <Gold.Chemscore.Rot.Weighted>
4.7229

> <Gold.Chemscore.Internal.Correction.Weighted>
   9.000000E+99

> <Gold.Protein.RotatedTorsions>
[ 6907 6896 6895 6894 ] final  -24.12 input  -60.11 | X-H torsion
[ 7974 7965 7964 7962 ] final  -96.03 input  175.53 | X-H torsion
[ 8008 7997 7996 7995 ] final  173.03 input   59.86 | X-H torsion
[ 10167 10162 10161 10158 ] final -119.63 input  -65.29 | X-H torsion
[ 10718 10713 10712 10709 ] final -157.76 input   66.30 | X-H torsion
[ 10763 10752 10751 10750 ] final -170.88 input  -60.55 | X-H torsion
[ 11005 11000 10999 10996 ] final  -96.54 input  -57.11 | X-H torsion

> <Gold.Protein.ActiveResidues>
 VAL166  LYS551  ARG553  GLY616  TRP617  ASP618  TYR619  PRO620  LYS621  CYS622 
 ASP623  PHE694  ASN695  SER759  ASP760  ASP761  ALA762  ILE779  LEU786  VAL792 
 PHE793  MET794  SER795  GLU796  ALA797  LYS798  CYS799  TRP800  GLU811  SER814 

> <Gold.Protein.RotatedAtoms>
  151.1941  135.0415  159.8844 H   0  0  0  0  0  0  0  0  0  0  0  0  # atno 6907 bound_to 6896
  152.5437  134.0923  159.8292 H   0  0  0  0  0  0  0  0  0  0  0  0  # atno 6908 bound_to 6896
  151.1055  133.5164  159.2640 H   0  0  0  0  0  0  0  0  0  0  0  0  # atno 6909 bound_to 6896
  145.3523  140.9478  143.2547 H   0  0  0  0  0  0  0  0  0  0  0  0  # atno 7974 bound_to 7965
  156.1115  140.1470  156.9331 H   0  0  0  0  0  0  0  0  0  0  0  0  # atno 8008 bound_to 7997
  154.4771  140.0891  156.7330 H   0  0  0  0  0  0  0  0  0  0  0  0  # atno 8009 bound_to 7997
  155.4587  140.3437  155.4312 H   0  0  0  0  0  0  0  0  0  0  0  0  # atno 8010 bound_to 7997
  140.0446  143.5120  152.2113 H   0  0  0  0  0  0  0  0  0  0  0  0  # atno 10167 bound_to 10162
  156.5447  130.8579  151.2760 H   0  0  0  0  0  0  0  0  0  0  0  0  # atno 10718 bound_to 10713
  154.6367  135.2893  155.0153 H   0  0  0  0  0  0  0  0  0  0  0  0  # atno 10763 bound_to 10752
  154.1294  135.6536  153.4923 H   0  0  0  0  0  0  0  0  0  0  0  0  # atno 10764 bound_to 10752
  153.0306  135.5307  154.7216 H   0  0  0  0  0  0  0  0  0  0  0  0  # atno 10765 bound_to 10752
  141.1408  133.8105  157.0584 H   0  0  0  0  0  0  0  0  0  0  0  0  # atno 11005 bound_to 11000
  144.8709  139.5040  143.6768 LP  0  0  0  0  0  0  0  0  0  0  0  0  # atno 17320 bound_to 7965
  146.2963  139.7287  142.9124 LP  0  0  0  0  0  0  0  0  0  0  0  0  # atno 17321 bound_to 7965
  139.5992  144.7577  151.3213 LP  0  0  0  0  0  0  0  0  0  0  0  0  # atno 17342 bound_to 10162
  140.7245  143.7043  150.7819 LP  0  0  0  0  0  0  0  0  0  0  0  0  # atno 17343 bound_to 10162
  157.7399  130.9840  150.2341 LP  0  0  0  0  0  0  0  0  0  0  0  0  # atno 17370 bound_to 10713
  156.2939  130.3749  149.7815 LP  0  0  0  0  0  0  0  0  0  0  0  0  # atno 17371 bound_to 10713
  140.0587  134.9767  157.1266 LP  0  0  0  0  0  0  0  0  0  0  0  0  # atno 17394 bound_to 11000
  140.3881  134.2214  155.7167 LP  0  0  0  0  0  0  0  0  0  0  0  0  # atno 17395 bound_to 11000

$$$$
