AV-unprocessed.smi:72|AV-procd|sdf|703|dock3
  -GOLD-   2262017 23D 1   1.00000     0.00000
 Structure written by MMmdl.
 30 31  0  0  0  0  0  0  0  0  2 V2000
  145.8905  138.7792  151.9579 N   0  0  0  0  0  0  0  0  0  0  0  0
  146.8538  139.3363  152.7733 C   0  0  0  0  0  0  0  0  0  0  0  0
  148.0668  138.6806  152.8764 N   0  3  0  0  0  0  0  0  0  0  0  0
  149.0923  139.0788  153.6408 C   0  0  0  0  0  0  0  0  0  0  0  0
  148.9542  140.1477  154.3978 N   0  0  0  0  0  0  0  0  0  0  0  0
  150.1155  140.6235  155.2358 C   0  0  2  0  0  0  0  0  0  0  0  0
  151.2446  139.9542  154.7751 O   0  0  0  0  0  0  0  0  0  0  0  0
  152.0706  139.6181  155.8811 C   0  0  2  0  0  0  0  0  0  0  0  0
  152.9820  138.4357  155.5165 C   0  0  0  0  0  0  0  0  0  0  0  0
  152.2014  137.3373  155.0969 O   0  0  0  0  0  0  0  0  0  0  0  0
  151.0556  139.2948  156.9834 C   0  0  1  0  0  0  0  0  0  0  0  0
  151.6371  139.4803  158.2582 O   0  0  0  0  0  0  0  0  0  0  0  0
  149.9511  140.3167  156.7396 C   0  0  2  0  0  0  0  0  0  0  0  0
  148.6792  139.8112  157.1053 O   0  0  0  0  0  0  0  0  0  0  0  0
  147.7792  140.9370  154.2891 C   0  0  0  0  0  0  0  0  0  0  0  0
  147.6682  141.9954  154.9057 O   0  0  0  0  0  0  0  0  0  0  0  0
  146.7596  140.4381  153.4647 N   0  0  0  0  0  0  0  0  0  0  0  0
  150.2319  141.6945  155.0727 H   0  0  0  0  0  0  0  0  0  0  0  0
  152.6559  140.4960  156.1647 H   0  0  0  0  0  0  0  0  0  0  0  0
  150.6828  138.2751  156.8740 H   0  0  0  0  0  0  0  0  0  0  0  0
  150.1480  141.2392  157.2885 H   0  0  0  0  0  0  0  0  0  0  0  0
  144.9801  139.1937  151.8149 H   0  0  0  0  0  0  0  0  0  0  0  0
  146.0142  137.9186  151.4440 H   0  0  0  0  0  0  0  0  0  0  0  0
  150.0255  138.5305  153.6127 H   0  0  0  0  0  0  0  0  0  0  0  0
  153.6353  138.7069  154.6868 H   0  0  0  0  0  0  0  0  0  0  0  0
  153.6208  138.1525  156.3534 H   0  0  0  0  0  0  0  0  0  0  0  0
  151.2921  137.5956  155.0971 H   0  0  0  0  0  0  0  0  0  0  0  0
  151.4824  138.7054  158.7767 H   0  0  0  0  0  0  0  0  0  0  0  0
  148.2034  140.4908  157.5589 H   0  0  0  0  0  0  0  0  0  0  0  0
  148.1875  137.8416  152.3273 H   0  0  0  0  0  0  0  0  0  0  0  0
  1  2  1  0  0  0  0
  1 22  1  0  0  0  0
  1 23  1  0  0  0  0
  2 17  2  0  0  0  0
  2  3  1  0  0  0  0
  3  4  2  0  0  0  0
  3 30  1  0  0  0  0
  4  5  1  0  0  0  0
  4 24  1  0  0  0  0
  5  6  1  0  0  0  0
  5 15  1  0  0  0  0
  6 18  1  0  0  0  0
  6 13  1  0  0  0  0
  6  7  1  0  0  0  0
  7  8  1  0  0  0  0
  8 19  1  0  0  0  0
  8  9  1  0  0  0  0
  8 11  1  0  0  0  0
  9 10  1  0  0  0  0
  9 25  1  0  0  0  0
  9 26  1  0  0  0  0
 10 27  1  0  0  0  0
 11 20  1  0  0  0  0
 11 12  1  0  0  0  0
 11 13  1  0  0  0  0
 12 28  1  0  0  0  0
 13 21  1  0  0  0  0
 13 14  1  0  0  0  0
 14 29  1  0  0  0  0
 15 16  2  0  0  0  0
 15 17  1  0  0  0  0
M  CHG  1   3   1
M  END
> <s_m_source_file>
AV-unprocessed.smi

> <i_m_source_file_index>
72

> <i_lp_mmshare_version>
43012

> <i_f3d_flags>
0

> <s_epik_input>
W05IMl1jMW5bY0hdbihjKD1PKW4xKVtDQEBIXTJPW0NASF0oW0NIMl1bT0hdKVtDQEBIXShbT0hdKVtDQEhdMltPSF0=

> <s_epik_cmdline>
J2VwaWtfcHl0aG9uJywgJy1waCcsICc3LjAnLCAnLXRuJywgJzgnLCAnLW1hJywgJzIwMCcsICctbWV0YWxfYmluZGluZycsICctaW1hZScsICc8aW5maWxlLm1hZT4nLCAnLW9tYWUnLCAnPG91dGZpbGUubWFlPic=

> <r_lp_tautomer_probability>
4.77166e-05

> <r_epik_Ionization_Penalty>
0.104979

> <r_epik_Ionization_Penalty_Charging>
0.0999619

> <r_epik_Ionization_Penalty_Neutral>
0.00501745

> <r_epik_State_Penalty>
2.51541

> <r_epik_Charging_Adjusted_Penalty>
2.61537

> <i_epik_Tot_Q>
1

> <i_epik_Tot_abs_Q>
1

> <r_epik_Metal_State_Penalty>
3.53763

> <b_epik_Metal_Only>
0

> <s_epik_Chemistry_Notes>
This compound contains an acetal/aminal-like group ( X-CH(R)-Y where X, Y are N, S, or O) that may be acid/base labile, releasing an aldehyde.

> <s_lp_Force_Field>
OPLS_2005

> <r_lp_Energy>
34.5598

> <b_lp_Chiralities_Consistent>
1

> <s_lp_Variant>
AV-unprocessed.smi:72-41

> <Gold.Version>
5.8.1

> <Gold.Id.Protein>
6NUR|6NUR_protein|mol2

> <Gold.PLP.Fitness>
38.9680

> <Gold.PLP.PLP>
-25.5363

> <Gold.PLP.part.hbond>
-6.0000

> <Gold.PLP.part.metal>
0.0000

> <Gold.PLP.part.buried>
-1.9461

> <Gold.PLP.part.nonpolar>
-19.1120

> <Gold.PLP.part.repulsive>
1.0973

> <Gold.PLP.ligand.clash>
0.0000

> <Gold.PLP.ligand.torsion>
0.4877

> <Gold.PLP.Chemscore.Hbond>
4.7600

> <Gold.PLP.Chemscore.CHOScore>
0.0000

> <Gold.PLP.Chemscore.Metal>
0.0000

> <Gold.Chemscore.Hbonds>
donor molecule, donor type, donor heavy atom, donor atom, acceptor molecule, acceptor atom, score
      L1  H     1    22       P1 10175  0.94
      L1  H     3    30       P1  7948  2.00
      P1  H  7989  7998       L1     7  1.00
      P1  H 10752 10765       L1    10  0.78

> <Gold.PLP.Chemscore.Internal.Correction>
0.1271

> <Gold.Rescore>
     Score         DG    S(hbond)    S(metal)    S(lipo)     H(rot)  DE(clash)    DE(int)     intcor
      6.93      -8.75       3.29        0.00      23.18       4.08       1.35       0.47       ----

> <Gold.Chemscore.Fitness>
6.9286

> <Gold.Chemscore.DG>
-8.7496

> <Gold.Chemscore.ZeroCoef>
-5.4800

> <Gold.Chemscore.Hbond>
3.2928

> <Gold.Chemscore.Metal>
0.0000

> <Gold.Chemscore.Lipo>
23.1795

> <Gold.Chemscore.Internal_Hbond>
0.0000

> <Gold.Chemscore.DEClash>
1.3512

> <Gold.Chemscore.DEInternal>
0.4697

> <Gold.Chemscore.Rot>
4.0783

> <Gold.Chemscore.Internal.Correction>
   9.000000E+99

> <Gold.Chemscore.Hbonds>
donor molecule, donor type, donor heavy atom, donor atom, acceptor molecule, acceptor atom, score
      L1  H     1    22       P1 10175  0.89
      L1  H     3    30       P1  7948  0.99
      P1  H  7989  7998       L1     7  0.30
      P1  H 10752 10765       L1    10  0.76

> <Gold.Chemscore.Hbond.Weighted>
-10.9980

> <Gold.Chemscore.Metal.Weighted>
-0.0000

> <Gold.Chemscore.Lipo.Weighted>
-2.7120

> <Gold.Chemscore.Internal_Hbond.Weighted>
0.0000

> <Gold.Chemscore.DEClash.Weighted>
1.3512

> <Gold.Chemscore.DEInternal.Weighted>
0.4697

> <Gold.Chemscore.Rot.Weighted>
10.4404

> <Gold.Chemscore.Internal.Correction.Weighted>
   9.000000E+99

> <Gold.Protein.RotatedTorsions>
[ 6907 6896 6895 6894 ] final -126.96 input  -60.11 | X-H torsion
[ 7974 7965 7964 7962 ] final  148.05 input  175.53 | X-H torsion
[ 8008 7997 7996 7995 ] final  106.50 input   59.86 | X-H torsion
[ 10167 10162 10161 10158 ] final -138.68 input  -65.29 | X-H torsion
[ 10718 10713 10712 10709 ] final   -9.31 input   66.30 | X-H torsion
[ 10763 10752 10751 10750 ] final  177.76 input  -60.55 | X-H torsion
[ 11005 11000 10999 10996 ] final  173.69 input  -57.11 | X-H torsion

> <Gold.Protein.ActiveResidues>
 VAL166  LYS551  ARG553  GLY616  TRP617  ASP618  TYR619  PRO620  LYS621  CYS622 
 ASP623  PHE694  ASN695  SER759  ASP760  ASP761  ALA762  ILE779  LEU786  VAL792 
 PHE793  MET794  SER795  GLU796  ALA797  LYS798  CYS799  TRP800  GLU811  SER814 

> <Gold.Protein.RotatedAtoms>
  150.9023  133.7102  159.2875 H   0  0  0  0  0  0  0  0  0  0  0  0  # atno 6907 bound_to 6896
  151.4616  135.1037  159.9736 H   0  0  0  0  0  0  0  0  0  0  0  0  # atno 6908 bound_to 6896
  152.4884  133.8385  159.7195 H   0  0  0  0  0  0  0  0  0  0  0  0  # atno 6909 bound_to 6896
  144.8543  139.6106  143.5959 H   0  0  0  0  0  0  0  0  0  0  0  0  # atno 7974 bound_to 7965
  156.1748  140.3112  155.9038 H   0  0  0  0  0  0  0  0  0  0  0  0  # atno 8008 bound_to 7997
  155.3511  140.0471  157.3063 H   0  0  0  0  0  0  0  0  0  0  0  0  # atno 8009 bound_to 7997
  154.5278  140.2220  155.8868 H   0  0  0  0  0  0  0  0  0  0  0  0  # atno 8010 bound_to 7997
  139.8454  143.7268  152.2661 H   0  0  0  0  0  0  0  0  0  0  0  0  # atno 10167 bound_to 10162
  156.6898  130.5062  149.5947 H   0  0  0  0  0  0  0  0  0  0  0  0  # atno 10718 bound_to 10713
  154.4987  135.2782  155.1438 H   0  0  0  0  0  0  0  0  0  0  0  0  # atno 10763 bound_to 10752
  154.3080  135.6234  153.5457 H   0  0  0  0  0  0  0  0  0  0  0  0  # atno 10764 bound_to 10752
  152.9899  135.5713  154.5425 H   0  0  0  0  0  0  0  0  0  0  0  0  # atno 10765 bound_to 10752
  140.3432  134.7258  157.4217 H   0  0  0  0  0  0  0  0  0  0  0  0  # atno 11005 bound_to 11000
  146.2810  139.6879  142.9229 LP  0  0  0  0  0  0  0  0  0  0  0  0  # atno 17320 bound_to 7965
  145.4437  141.0424  143.2843 LP  0  0  0  0  0  0  0  0  0  0  0  0  # atno 17321 bound_to 7965
  139.7518  144.7532  151.0495 LP  0  0  0  0  0  0  0  0  0  0  0  0  # atno 17342 bound_to 10162
  140.7793  143.4852  150.9966 LP  0  0  0  0  0  0  0  0  0  0  0  0  # atno 17343 bound_to 10162
  156.1806  130.6496  151.0946 LP  0  0  0  0  0  0  0  0  0  0  0  0  # atno 17370 bound_to 10713
  157.7013  131.0775  150.6811 LP  0  0  0  0  0  0  0  0  0  0  0  0  # atno 17371 bound_to 10713
  140.0763  134.5792  155.8587 LP  0  0  0  0  0  0  0  0  0  0  0  0  # atno 17394 bound_to 11000
  141.2033  133.6630  156.6053 LP  0  0  0  0  0  0  0  0  0  0  0  0  # atno 17395 bound_to 11000

$$$$
