AV-unprocessed.smi:646|AV-procd|sdf|3166|dock6
  -GOLD-   22720 0 83D 1   1.00000     0.00000
 Structure written by MMmdl.
 44 45  0  0  0  0  0  0  0  0  1 V2000
  144.6862  133.5470  162.7635 C   0  0  0  0  0  0  0  0  0  0  0  0
  144.9267  134.3227  161.5961 O   0  0  0  0  0  0  0  0  0  0  0  0
  145.1801  135.7226  161.7771 C   0  0  2  0  0  0  0  0  0  0  0  0
  144.1673  136.3337  162.7538 C   0  0  0  0  0  0  0  0  0  0  0  0
  145.4167  136.3996  160.4131 C   0  0  0  0  0  0  0  0  0  0  0  0
  146.8639  135.9204  160.5090 C   0  0  1  0  0  0  0  0  0  0  0  0
  147.8170  136.9000  160.0034 N   0  0  0  0  0  0  0  0  0  0  0  0
  148.8801  136.6009  159.2428 C   0  0  0  0  0  0  0  0  0  0  0  0
  149.1064  135.4744  158.8020 O   0  0  0  0  0  0  0  0  0  0  0  0
  149.8592  137.7416  158.9721 C   0  0  0  0  0  0  0  0  0  0  0  0
  151.0658  137.1928  158.2541 C   0  0  0  0  0  0  0  0  0  0  0  0
  152.4349  137.3115  158.6290 C   0  0  0  0  0  0  0  0  0  0  0  0
  153.0168  138.0039  159.8277 C   0  0  0  0  0  0  0  0  0  0  0  0
  153.2386  136.7244  157.7584 N   0  0  0  0  0  0  0  0  0  0  0  0
  152.4076  136.1952  156.7665 O   0  0  0  0  0  0  0  0  0  0  0  0
  151.1208  136.4894  157.0819 C   0  0  0  0  0  0  0  0  0  0  0  0
  150.0772  136.0166  156.1275 C   0  0  0  0  0  0  0  0  0  0  0  0
  146.7071  135.9161  162.0517 C   0  0  0  0  0  0  0  0  0  0  0  0
  147.1000  137.2101  162.7920 C   0  0  0  0  0  0  0  0  0  0  0  0
  147.4218  134.7809  162.7929 C   0  0  0  0  0  0  0  0  0  0  0  0
  144.3414  132.5563  162.4673 H   0  0  0  0  0  0  0  0  0  0  0  0
  143.9220  133.9851  163.4047 H   0  0  0  0  0  0  0  0  0  0  0  0
  145.5968  133.4092  163.3462 H   0  0  0  0  0  0  0  0  0  0  0  0
  144.3991  137.3739  162.9801 H   0  0  0  0  0  0  0  0  0  0  0  0
  144.1507  135.7897  163.6985 H   0  0  0  0  0  0  0  0  0  0  0  0
  143.1560  136.3323  162.3478 H   0  0  0  0  0  0  0  0  0  0  0  0
  144.8638  135.9862  159.5703 H   0  0  0  0  0  0  0  0  0  0  0  0
  145.3115  137.4853  160.4551 H   0  0  0  0  0  0  0  0  0  0  0  0
  146.9872  134.9198  160.0881 H   0  0  0  0  0  0  0  0  0  0  0  0
  147.7087  137.8526  160.3194 H   0  0  0  0  0  0  0  0  0  0  0  0
  149.3600  138.5106  158.3814 H   0  0  0  0  0  0  0  0  0  0  0  0
  150.1324  138.2139  159.9164 H   0  0  0  0  0  0  0  0  0  0  0  0
  152.4717  137.7405  160.7341 H   0  0  0  0  0  0  0  0  0  0  0  0
  152.9648  139.0868  159.7123 H   0  0  0  0  0  0  0  0  0  0  0  0
  154.0625  137.7349  159.9823 H   0  0  0  0  0  0  0  0  0  0  0  0
  149.1784  136.6292  156.1954 H   0  0  0  0  0  0  0  0  0  0  0  0
  149.8006  134.9844  156.3408 H   0  0  0  0  0  0  0  0  0  0  0  0
  150.4388  136.0663  155.1002 H   0  0  0  0  0  0  0  0  0  0  0  0
  148.1803  137.3590  162.8003 H   0  0  0  0  0  0  0  0  0  0  0  0
  146.7720  137.1906  163.8318 H   0  0  0  0  0  0  0  0  0  0  0  0
  146.6624  138.0973  162.3337 H   0  0  0  0  0  0  0  0  0  0  0  0
  148.4924  134.9701  162.8795 H   0  0  0  0  0  0  0  0  0  0  0  0
  147.3154  133.8262  162.2776 H   0  0  0  0  0  0  0  0  0  0  0  0
  147.0262  134.6523  163.8006 H   0  0  0  0  0  0  0  0  0  0  0  0
  1  2  1  0  0  0  0
  1 21  1  0  0  0  0
  1 22  1  0  0  0  0
  1 23  1  0  0  0  0
  2  3  1  0  0  0  0
  3 18  1  0  0  0  0
  3  4  1  0  0  0  0
  3  5  1  0  0  0  0
  4 24  1  0  0  0  0
  4 25  1  0  0  0  0
  4 26  1  0  0  0  0
  5  6  1  0  0  0  0
  5 27  1  0  0  0  0
  5 28  1  0  0  0  0
  6  7  1  0  0  0  0
  6 18  1  0  0  0  0
  6 29  1  0  0  0  0
  7  8  1  0  0  0  0
  7 30  1  0  0  0  0
  8  9  2  0  0  0  0
  8 10  1  0  0  0  0
 10 11  1  0  0  0  0
 10 31  1  0  0  0  0
 10 32  1  0  0  0  0
 11 16  2  0  0  0  0
 11 12  1  0  0  0  0
 12 13  1  0  0  0  0
 12 14  2  0  0  0  0
 13 33  1  0  0  0  0
 13 34  1  0  0  0  0
 13 35  1  0  0  0  0
 14 15  1  0  0  0  0
 15 16  1  0  0  0  0
 16 17  1  0  0  0  0
 17 36  1  0  0  0  0
 17 37  1  0  0  0  0
 17 38  1  0  0  0  0
 18 19  1  0  0  0  0
 18 20  1  0  0  0  0
 19 39  1  0  0  0  0
 19 40  1  0  0  0  0
 19 41  1  0  0  0  0
 20 42  1  0  0  0  0
 20 43  1  0  0  0  0
 20 44  1  0  0  0  0
M  END
> <s_m_source_file>
AV-unprocessed.smi

> <i_m_source_file_index>
646

> <i_lp_mmshare_version>
43012

> <i_f3d_flags>
0

> <s_epik_input>
W0NIM11PW0NAQF0xKFtDSDNdKVtDSDJdW0NASF0oQzEoW0NIM10pW0NIM10pW05IXUMoPU8pW0NIMl1jMmMoW0NIM10pbm9jMltDSDNd

> <s_epik_cmdline>
J2VwaWtfcHl0aG9uJywgJy1waCcsICc3LjAnLCAnLXRuJywgJzgnLCAnLW1hJywgJzIwMCcsICctbWV0YWxfYmluZGluZycsICctaW1hZScsICc8aW5maWxlLm1hZT4nLCAnLW9tYWUnLCAnPG91dGZpbGUubWFlPic=

> <r_lp_tautomer_probability>
1

> <r_epik_Ionization_Penalty>
2.13169e-08

> <r_epik_Ionization_Penalty_Charging>
0

> <r_epik_Ionization_Penalty_Neutral>
2.13169e-08

> <r_epik_State_Penalty>
-0

> <r_epik_Charging_Adjusted_Penalty>
0

> <i_epik_Tot_Q>
0

> <i_epik_Tot_abs_Q>
0

> <r_epik_Metal_State_Penalty>
-0

> <b_epik_Metal_Only>
0

> <s_lp_Force_Field>
OPLS_2005

> <r_lp_Energy>
15.8314

> <b_lp_Chiralities_Consistent>
1

> <s_lp_Variant>
AV-unprocessed.smi:646-2

> <Gold.Version>
5.8.1

> <Gold.Id.Protein>
6NUR|6NUR_protein|mol2

> <Gold.PLP.Fitness>
35.0876

> <Gold.PLP.PLP>
-29.4806

> <Gold.PLP.part.hbond>
-2.0000

> <Gold.PLP.part.metal>
0.0000

> <Gold.PLP.part.buried>
-3.9360

> <Gold.PLP.part.nonpolar>
-23.7975

> <Gold.PLP.part.repulsive>
0.2121

> <Gold.PLP.ligand.clash>
0.0000

> <Gold.PLP.ligand.torsion>
0.3887

> <Gold.PLP.Chemscore.Hbond>
2.0000

> <Gold.PLP.Chemscore.CHOScore>
0.0000

> <Gold.PLP.Chemscore.Metal>
0.0000

> <Gold.Chemscore.Hbonds>
donor molecule, donor type, donor heavy atom, donor atom, acceptor molecule, acceptor atom, score
      P1  H  6896  6907       L1     9  1.00
      P1  H 10752 10763       L1    15  1.00

> <Gold.PLP.Chemscore.Internal.Correction>
0.3844

> <Gold.Rescore>
     Score         DG    S(hbond)    S(metal)    S(lipo)     H(rot)  DE(clash)    DE(int)     intcor
     15.72     -16.41       1.94        0.00      70.77       1.49       0.00       0.68       ----

> <Gold.Chemscore.Fitness>
15.7227

> <Gold.Chemscore.DG>
-16.4070

> <Gold.Chemscore.ZeroCoef>
-5.4800

> <Gold.Chemscore.Hbond>
1.9367

> <Gold.Chemscore.Metal>
0.0000

> <Gold.Chemscore.Lipo>
70.7699

> <Gold.Chemscore.Internal_Hbond>
0.0000

> <Gold.Chemscore.DEClash>
0.0000

> <Gold.Chemscore.DEInternal>
0.6844

> <Gold.Chemscore.Rot>
1.4928

> <Gold.Chemscore.Internal.Correction>
   9.000000E+99

> <Gold.Chemscore.Hbonds>
donor molecule, donor type, donor heavy atom, donor atom, acceptor molecule, acceptor atom, score
      P1  H  6896  6907       L1     9  0.90
      P1  H 10752 10763       L1    15  0.84

> <Gold.Chemscore.Hbond.Weighted>
-6.4686

> <Gold.Chemscore.Metal.Weighted>
-0.0000

> <Gold.Chemscore.Lipo.Weighted>
-8.2801

> <Gold.Chemscore.Internal_Hbond.Weighted>
0.0000

> <Gold.Chemscore.DEClash.Weighted>
0.0000

> <Gold.Chemscore.DEInternal.Weighted>
0.6844

> <Gold.Chemscore.Rot.Weighted>
3.8217

> <Gold.Chemscore.Internal.Correction.Weighted>
   9.000000E+99

> <Gold.Protein.RotatedTorsions>
[ 6907 6896 6895 6894 ] final  -89.63 input  -60.11 | X-H torsion
[ 7974 7965 7964 7962 ] final  158.63 input  175.53 | X-H torsion
[ 8008 7997 7996 7995 ] final   66.82 input   59.86 | X-H torsion
[ 10167 10162 10161 10158 ] final  -97.19 input  -65.29 | X-H torsion
[ 10718 10713 10712 10709 ] final  136.29 input   66.30 | X-H torsion
[ 10763 10752 10751 10750 ] final  109.98 input  -60.55 | X-H torsion
[ 11005 11000 10999 10996 ] final   34.20 input  -57.11 | X-H torsion

> <Gold.Protein.ActiveResidues>
 VAL166  LYS551  ARG553  GLY616  TRP617  ASP618  TYR619  PRO620  LYS621  CYS622 
 ASP623  PHE694  ASN695  SER759  ASP760  ASP761  ALA762  ILE779  LEU786  VAL792 
 PHE793  MET794  SER795  GLU796  ALA797  LYS798  CYS799  TRP800  GLU811  SER814 

> <Gold.Protein.RotatedAtoms>
  150.6875  134.2557  159.4528 H   0  0  0  0  0  0  0  0  0  0  0  0  # atno 6907 bound_to 6896
  152.0491  134.9662  160.0584 H   0  0  0  0  0  0  0  0  0  0  0  0  # atno 6908 bound_to 6896
  152.1133  133.4278  159.4678 H   0  0  0  0  0  0  0  0  0  0  0  0  # atno 6909 bound_to 6896
  144.7835  139.7505  143.6250 H   0  0  0  0  0  0  0  0  0  0  0  0  # atno 7974 bound_to 7965
  155.6833  140.3496  155.4864 H   0  0  0  0  0  0  0  0  0  0  0  0  # atno 8008 bound_to 7997
  155.9588  140.1133  157.0936 H   0  0  0  0  0  0  0  0  0  0  0  0  # atno 8009 bound_to 7997
  154.4138  140.1179  156.5137 H   0  0  0  0  0  0  0  0  0  0  0  0  # atno 8010 bound_to 7997
  140.2860  143.3252  152.0394 H   0  0  0  0  0  0  0  0  0  0  0  0  # atno 10167 bound_to 10162
  157.4482  131.1063  151.0064 H   0  0  0  0  0  0  0  0  0  0  0  0  # atno 10718 bound_to 10713
  153.4425  135.3763  155.2236 H   0  0  0  0  0  0  0  0  0  0  0  0  # atno 10763 bound_to 10752
  154.8754  135.3866  154.4136 H   0  0  0  0  0  0  0  0  0  0  0  0  # atno 10764 bound_to 10752
  153.4683  135.7087  153.6072 H   0  0  0  0  0  0  0  0  0  0  0  0  # atno 10765 bound_to 10752
  140.2553  134.3255  155.7876 H   0  0  0  0  0  0  0  0  0  0  0  0  # atno 11005 bound_to 11000
  146.2055  139.5377  142.9715 LP  0  0  0  0  0  0  0  0  0  0  0  0  # atno 17320 bound_to 7965
  145.5985  141.0359  143.2031 LP  0  0  0  0  0  0  0  0  0  0  0  0  # atno 17321 bound_to 7965
  139.4950  144.6558  151.6574 LP  0  0  0  0  0  0  0  0  0  0  0  0  # atno 17342 bound_to 10162
  140.5772  144.0008  150.6248 LP  0  0  0  0  0  0  0  0  0  0  0  0  # atno 17343 bound_to 10162
  157.0904  130.5940  149.5438 LP  0  0  0  0  0  0  0  0  0  0  0  0  # atno 17370 bound_to 10713
  155.9976  130.5048  150.7540 LP  0  0  0  0  0  0  0  0  0  0  0  0  # atno 17371 bound_to 10713
  141.2197  133.7377  156.9102 LP  0  0  0  0  0  0  0  0  0  0  0  0  # atno 17394 bound_to 11000
  140.1517  134.9225  157.2601 LP  0  0  0  0  0  0  0  0  0  0  0  0  # atno 17395 bound_to 11000

$$$$
