AV-unprocessed.smi:3112|AV-procd|sdf|11847|dock8
  -GOLD-   2272017233D 1   1.00000     0.00000
 Structure written by MMmdl.
 36 36  0  0  0  0  0  0  0  0  1 V2000
  147.3771  140.8254  153.5324 C   0  0  0  0  0  0  0  0  0  0  0  0
  148.4895  141.5343  154.3220 C   0  0  0  0  0  0  0  0  0  0  0  0
  149.5413  140.5928  154.9419 C   0  0  1  0  0  0  0  0  0  0  0  0
  150.2511  139.9512  153.9018 O   0  0  0  0  0  0  0  0  0  0  0  0
  150.5430  141.3195  155.8557 C   0  0  0  0  0  0  0  0  0  0  0  0
  149.9102  141.7225  157.1112 N   0  0  0  0  0  0  0  0  0  0  0  0
  150.5324  141.2043  158.3353 C   0  0  1  0  0  0  0  0  0  0  0  0
  150.6665  139.6776  158.2028 C   0  0  0  0  0  0  0  0  0  0  0  0
  151.9048  141.8645  158.6708 C   0  0  2  0  0  0  0  0  0  0  0  0
  152.8227  141.0546  159.6059 C   0  0  0  0  0  0  0  0  0  0  0  0
  151.7866  143.2577  159.0941 N   0  0  0  0  0  0  0  0  0  0  0  0
  151.1629  144.2963  158.4323 C   0  0  0  0  0  0  0  0  0  0  0  0
  151.2795  145.4109  159.2120 C   0  0  0  0  0  0  0  0  0  0  0  0
  151.9947  144.9512  160.3521 C   0  0  0  0  0  0  0  0  0  0  0  0
  152.2917  143.6645  160.2819 N   0  0  0  0  0  0  0  0  0  0  0  0
  146.6654  141.5503  153.1373 H   0  0  0  0  0  0  0  0  0  0  0  0
  146.8215  140.1296  154.1611 H   0  0  0  0  0  0  0  0  0  0  0  0
  147.7784  140.2673  152.6865 H   0  0  0  0  0  0  0  0  0  0  0  0
  148.9911  142.2432  153.6623 H   0  0  0  0  0  0  0  0  0  0  0  0
  148.0358  142.1346  155.1117 H   0  0  0  0  0  0  0  0  0  0  0  0
  149.0118  139.8282  155.5125 H   0  0  0  0  0  0  0  0  0  0  0  0
  149.7504  140.0365  153.1043 H   0  0  0  0  0  0  0  0  0  0  0  0
  151.4198  140.6980  156.0163 H   0  0  0  0  0  0  0  0  0  0  0  0
  150.8979  142.2156  155.3454 H   0  0  0  0  0  0  0  0  0  0  0  0
  149.8734  142.7359  157.1535 H   0  0  0  0  0  0  0  0  0  0  0  0
  149.8596  141.3796  159.1757 H   0  0  0  0  0  0  0  0  0  0  0  0
  151.1195  139.2427  159.0941 H   0  0  0  0  0  0  0  0  0  0  0  0
  151.2796  139.3959  157.3461 H   0  0  0  0  0  0  0  0  0  0  0  0
  149.6901  139.2098  158.0742 H   0  0  0  0  0  0  0  0  0  0  0  0
  152.4466  141.8930  157.7240 H   0  0  0  0  0  0  0  0  0  0  0  0
  152.8849  140.0123  159.2927 H   0  0  0  0  0  0  0  0  0  0  0  0
  152.4877  141.0785  160.6421 H   0  0  0  0  0  0  0  0  0  0  0  0
  153.8343  141.4609  159.5934 H   0  0  0  0  0  0  0  0  0  0  0  0
  150.6899  144.1557  157.4715 H   0  0  0  0  0  0  0  0  0  0  0  0
  150.9078  146.4025  159.0017 H   0  0  0  0  0  0  0  0  0  0  0  0
  152.3027  145.5096  161.2236 H   0  0  0  0  0  0  0  0  0  0  0  0
  1  2  1  0  0  0  0
  1 16  1  0  0  0  0
  1 17  1  0  0  0  0
  1 18  1  0  0  0  0
  2  3  1  0  0  0  0
  2 19  1  0  0  0  0
  2 20  1  0  0  0  0
  3  4  1  0  0  0  0
  3  5  1  0  0  0  0
  3 21  1  0  0  0  0
  4 22  1  0  0  0  0
  5  6  1  0  0  0  0
  5 23  1  0  0  0  0
  5 24  1  0  0  0  0
  6  7  1  0  0  0  0
  6 25  1  0  0  0  0
  7  8  1  0  0  0  0
  7  9  1  0  0  0  0
  7 26  1  0  0  0  0
  8 27  1  0  0  0  0
  8 28  1  0  0  0  0
  8 29  1  0  0  0  0
  9 10  1  0  0  0  0
  9 11  1  0  0  0  0
  9 30  1  0  0  0  0
 10 31  1  0  0  0  0
 10 32  1  0  0  0  0
 10 33  1  0  0  0  0
 11 15  1  0  0  0  0
 11 12  1  0  0  0  0
 12 13  2  0  0  0  0
 12 34  1  0  0  0  0
 13 14  1  0  0  0  0
 13 35  1  0  0  0  0
 14 15  2  0  0  0  0
 14 36  1  0  0  0  0
M  END
> <s_m_source_file>
AV-unprocessed.smi

> <i_m_source_file_index>
3112

> <i_lp_mmshare_version>
43012

> <i_f3d_flags>
0

> <s_epik_input>
W0NIM11bQ0gyXVtDQEhdKFtPSF0pW0NIMl1bTkhdW0NASF0oW0NIM10pW0NASF0oW0NIM10pbjFbY0hdW2NIXVtjSF1uMQ==

> <s_epik_cmdline>
J2VwaWtfcHl0aG9uJywgJy1waCcsICc3LjAnLCAnLXRuJywgJzgnLCAnLW1hJywgJzIwMCcsICctbWV0YWxfYmluZGluZycsICctaW1hZScsICc8aW5maWxlLm1hZT4nLCAnLW9tYWUnLCAnPG91dGZpbGUubWFlPic=

> <r_lp_tautomer_probability>
1

> <r_epik_Ionization_Penalty>
2.16876

> <r_epik_Ionization_Penalty_Charging>
0

> <r_epik_Ionization_Penalty_Neutral>
2.16876

> <r_epik_State_Penalty>
2.30854

> <r_epik_Charging_Adjusted_Penalty>
2.30854

> <i_epik_Tot_Q>
0

> <i_epik_Tot_abs_Q>
0

> <r_epik_Metal_State_Penalty>
2.3073

> <b_epik_Metal_Only>
0

> <s_lp_Force_Field>
OPLS_2005

> <r_lp_Energy>
21.8482

> <b_lp_Chiralities_Consistent>
1

> <s_lp_Variant>
AV-unprocessed.smi:3112-12

> <Gold.Version>
5.8.1

> <Gold.Id.Protein>
6NUR|6NUR_protein|mol2

> <Gold.PLP.Fitness>
42.8352

> <Gold.PLP.PLP>
-35.4699

> <Gold.PLP.part.hbond>
-2.0000

> <Gold.PLP.part.metal>
0.0000

> <Gold.PLP.part.buried>
-4.4013

> <Gold.PLP.part.nonpolar>
-29.3145

> <Gold.PLP.part.repulsive>
0.0310

> <Gold.PLP.ligand.clash>
0.0000

> <Gold.PLP.ligand.torsion>
0.9078

> <Gold.PLP.Chemscore.Hbond>
1.9440

> <Gold.PLP.Chemscore.CHOScore>
1.0000

> <Gold.PLP.Chemscore.Metal>
0.0000

> <Gold.Chemscore.Hbonds>
donor molecule, donor type, donor heavy atom, donor atom, acceptor molecule, acceptor atom, score
      L1  H     4    22       P1  7957  1.00
      P1  H  7989  7998       L1     4  0.91
      L1  C    12    34       P1  8028  0.85

> <Gold.PLP.Chemscore.Internal.Correction>
0.3490

> <Gold.Rescore>
     Score         DG    S(hbond)    S(metal)    S(lipo)     H(rot)  DE(clash)    DE(int)     intcor
     14.19     -15.17       1.45        0.00      91.98       2.31       0.03       0.95       ----

> <Gold.Chemscore.Fitness>
14.1934

> <Gold.Chemscore.DG>
-15.1719

> <Gold.Chemscore.ZeroCoef>
-5.4800

> <Gold.Chemscore.Hbond>
1.4508

> <Gold.Chemscore.Metal>
0.0000

> <Gold.Chemscore.Lipo>
91.9825

> <Gold.Chemscore.Internal_Hbond>
0.0000

> <Gold.Chemscore.DEClash>
0.0322

> <Gold.Chemscore.DEInternal>
0.9464

> <Gold.Chemscore.Rot>
2.3108

> <Gold.Chemscore.Internal.Correction>
   9.000000E+99

> <Gold.Chemscore.Hbonds>
donor molecule, donor type, donor heavy atom, donor atom, acceptor molecule, acceptor atom, score
      L1  H     4    22       P1  7957  0.94
      P1  H  7989  7998       L1     4  0.15

> <Gold.Chemscore.Hbond.Weighted>
-4.8456

> <Gold.Chemscore.Metal.Weighted>
-0.0000

> <Gold.Chemscore.Lipo.Weighted>
-10.7620

> <Gold.Chemscore.Internal_Hbond.Weighted>
0.0000

> <Gold.Chemscore.DEClash.Weighted>
0.0322

> <Gold.Chemscore.DEInternal.Weighted>
0.9464

> <Gold.Chemscore.Rot.Weighted>
5.9157

> <Gold.Chemscore.Internal.Correction.Weighted>
   9.000000E+99

> <Gold.Protein.RotatedTorsions>
[ 6907 6896 6895 6894 ] final  -53.82 input  -60.11 | X-H torsion
[ 7974 7965 7964 7962 ] final    5.58 input  175.53 | X-H torsion
[ 8008 7997 7996 7995 ] final -156.85 input   59.86 | X-H torsion
[ 10167 10162 10161 10158 ] final   19.70 input  -65.29 | X-H torsion
[ 10718 10713 10712 10709 ] final  -79.60 input   66.30 | X-H torsion
[ 10763 10752 10751 10750 ] final  140.10 input  -60.55 | X-H torsion
[ 11005 11000 10999 10996 ] final  119.67 input  -57.11 | X-H torsion

> <Gold.Protein.ActiveResidues>
 VAL166  LYS551  ARG553  GLY616  TRP617  ASP618  TYR619  PRO620  LYS621  CYS622 
 ASP623  PHE694  ASN695  SER759  ASP760  ASP761  ALA762  ILE779  LEU786  VAL792 
 PHE793  MET794  SER795  GLU796  ALA797  LYS798  CYS799  TRP800  GLU811  SER814 

> <Gold.Protein.RotatedAtoms>
  150.8393  134.7678  159.6918 H   0  0  0  0  0  0  0  0  0  0  0  0  # atno 6907 bound_to 6896
  152.4483  134.5444  159.9858 H   0  0  0  0  0  0  0  0  0  0  0  0  # atno 6908 bound_to 6896
  151.5587  133.3368  159.3003 H   0  0  0  0  0  0  0  0  0  0  0  0  # atno 6909 bound_to 6896
  146.2440  140.0362  142.8386 H   0  0  0  0  0  0  0  0  0  0  0  0  # atno 7974 bound_to 7965
  155.7234  140.0793  157.2320 H   0  0  0  0  0  0  0  0  0  0  0  0  # atno 8008 bound_to 7997
  154.4042  140.1608  156.2482 H   0  0  0  0  0  0  0  0  0  0  0  0  # atno 8009 bound_to 7997
  155.9175  140.3400  155.6150 H   0  0  0  0  0  0  0  0  0  0  0  0  # atno 8010 bound_to 7997
  140.5559  143.9425  150.6609 H   0  0  0  0  0  0  0  0  0  0  0  0  # atno 10167 bound_to 10162
  156.0089  130.4550  150.3673 H   0  0  0  0  0  0  0  0  0  0  0  0  # atno 10718 bound_to 10713
  153.9171  135.3004  155.3448 H   0  0  0  0  0  0  0  0  0  0  0  0  # atno 10763 bound_to 10752
  154.7594  135.4941  153.9439 H   0  0  0  0  0  0  0  0  0  0  0  0  # atno 10764 bound_to 10752
  153.1161  135.6771  153.9517 H   0  0  0  0  0  0  0  0  0  0  0  0  # atno 10765 bound_to 10752
  139.9155  134.9630  156.7690 H   0  0  0  0  0  0  0  0  0  0  0  0  # atno 11005 bound_to 11000
  145.1110  140.9405  143.4656 LP  0  0  0  0  0  0  0  0  0  0  0  0  # atno 17320 bound_to 7965
  145.0576  139.3131  143.5897 LP  0  0  0  0  0  0  0  0  0  0  0  0  # atno 17321 bound_to 7965
  140.2863  143.3355  152.1104 LP  0  0  0  0  0  0  0  0  0  0  0  0  # atno 17342 bound_to 10162
  139.5048  144.6782  151.6075 LP  0  0  0  0  0  0  0  0  0  0  0  0  # atno 17343 bound_to 10162
  157.1759  131.0380  151.2772 LP  0  0  0  0  0  0  0  0  0  0  0  0  # atno 17370 bound_to 10713
  157.4188  130.7426  149.6897 LP  0  0  0  0  0  0  0  0  0  0  0  0  # atno 17371 bound_to 10713
  140.6636  133.9622  155.7818 LP  0  0  0  0  0  0  0  0  0  0  0  0  # atno 17394 bound_to 11000
  141.0626  134.0324  157.3637 LP  0  0  0  0  0  0  0  0  0  0  0  0  # atno 17395 bound_to 11000

$$$$
