AV-unprocessed.smi:3167|AV-procd|sdf|12097|dock2
  -GOLD-   2272017533D 1   1.00000     0.00000
 Structure written by MMmdl.
 37 38  0  0  0  0  0  0  0  0  2 V2000
  146.7735  139.5116  151.4299 C   0  0  0  0  0  0  0  0  0  0  0  0
  146.7943  139.2845  152.9583 C   0  0  2  0  0  0  0  0  0  0  0  0
  145.9691  138.0268  153.3379 C   0  0  0  0  0  0  0  0  0  0  0  0
  146.4158  136.8209  152.6470 N   0  0  0  0  0  0  0  0  0  0  0  0
  145.6040  135.9395  152.0458 C   0  0  0  0  0  0  0  0  0  0  0  0
  144.3790  136.0584  152.0162 O   0  0  0  0  0  0  0  0  0  0  0  0
  146.2978  134.9316  151.4935 N   0  0  0  0  0  0  0  0  0  0  0  0
  145.7759  133.8090  150.8037 C   0  0  0  0  0  0  0  0  0  0  0  0
  144.4352  133.5414  150.3986 C   0  0  0  0  0  0  0  0  0  0  0  0
  144.3461  132.3742  149.7766 N   0  0  0  0  0  0  0  0  0  0  0  0
  145.6106  131.8960  149.7808 N   0  0  0  0  0  0  0  0  0  0  0  0
  146.5117  132.7367  150.3960 C   0  0  0  0  0  0  0  0  0  0  0  0
  146.2956  140.4826  153.6936 N   0  3  0  0  0  0  0  0  0  0  0  0
  146.2156  140.3279  155.1690 C   0  0  0  0  0  0  0  0  0  0  0  0
  146.6289  141.6678  155.7932 C   0  0  0  0  0  0  0  0  0  0  0  0
  146.6868  142.6430  154.6235 C   0  0  0  0  0  0  0  0  0  0  0  0
  147.0290  141.7427  153.4422 C   0  0  0  0  0  0  0  0  0  0  0  0
  145.8393  131.0045  149.3644 H   0  0  0  0  0  0  0  0  0  0  0  0
  147.1319  138.6361  150.8884 H   0  0  0  0  0  0  0  0  0  0  0  0
  147.4185  140.3370  151.1294 H   0  0  0  0  0  0  0  0  0  0  0  0
  145.7653  139.7280  151.0755 H   0  0  0  0  0  0  0  0  0  0  0  0
  147.8323  139.1294  153.2573 H   0  0  0  0  0  0  0  0  0  0  0  0
  146.0002  137.8351  154.4112 H   0  0  0  0  0  0  0  0  0  0  0  0
  144.9192  138.1850  153.0896 H   0  0  0  0  0  0  0  0  0  0  0  0
  147.4106  136.6481  152.6229 H   0  0  0  0  0  0  0  0  0  0  0  0
  147.3029  134.9670  151.5790 H   0  0  0  0  0  0  0  0  0  0  0  0
  143.5405  134.1318  150.5279 H   0  0  0  0  0  0  0  0  0  0  0  0
  147.5626  132.5042  150.4853 H   0  0  0  0  0  0  0  0  0  0  0  0
  145.1961  140.0584  155.4471 H   0  0  0  0  0  0  0  0  0  0  0  0
  146.8773  139.5380  155.5284 H   0  0  0  0  0  0  0  0  0  0  0  0
  145.9421  141.9966  156.5739 H   0  0  0  0  0  0  0  0  0  0  0  0
  147.6189  141.5732  156.2419 H   0  0  0  0  0  0  0  0  0  0  0  0
  145.7076  143.0989  154.4710 H   0  0  0  0  0  0  0  0  0  0  0  0
  147.4126  143.4430  154.7725 H   0  0  0  0  0  0  0  0  0  0  0  0
  148.1030  141.5485  153.4275 H   0  0  0  0  0  0  0  0  0  0  0  0
  146.7491  142.1961  152.4909 H   0  0  0  0  0  0  0  0  0  0  0  0
  145.3503  140.6505  153.3805 H   0  0  0  0  0  0  0  0  0  0  0  0
  1  2  1  0  0  0  0
  1 19  1  0  0  0  0
  1 20  1  0  0  0  0
  1 21  1  0  0  0  0
  2  3  1  0  0  0  0
  2 13  1  0  0  0  0
  2 22  1  0  0  0  0
  3  4  1  0  0  0  0
  3 23  1  0  0  0  0
  3 24  1  0  0  0  0
  4  5  1  0  0  0  0
  4 25  1  0  0  0  0
  5  6  2  0  0  0  0
  5  7  1  0  0  0  0
  7  8  1  0  0  0  0
  7 26  1  0  0  0  0
  8 12  2  0  0  0  0
  8  9  1  0  0  0  0
  9 10  2  0  0  0  0
  9 27  1  0  0  0  0
 10 11  1  0  0  0  0
 11 18  1  0  0  0  0
 11 12  1  0  0  0  0
 12 28  1  0  0  0  0
 13 17  1  0  0  0  0
 13 14  1  0  0  0  0
 13 37  1  0  0  0  0
 14 15  1  0  0  0  0
 14 29  1  0  0  0  0
 14 30  1  0  0  0  0
 15 16  1  0  0  0  0
 15 31  1  0  0  0  0
 15 32  1  0  0  0  0
 16 17  1  0  0  0  0
 16 33  1  0  0  0  0
 16 34  1  0  0  0  0
 17 35  1  0  0  0  0
 17 36  1  0  0  0  0
M  CHG  1  13   1
M  END
> <s_m_source_file>
AV-unprocessed.smi

> <i_m_source_file_index>
3167

> <i_lp_mmshare_version>
43012

> <i_f3d_flags>
0

> <s_epik_input>
W0NIMl0xW0NIMl1bQ0gyXVtDSDJdTjFbQ0BIXShbQ0gzXSlbQ0gyXVtOSF1DKD1PKVtOSF1jMltjSF1uW25IXVtjSF0y

> <s_epik_cmdline>
J2VwaWtfcHl0aG9uJywgJy1waCcsICc3LjAnLCAnLXRuJywgJzgnLCAnLW1hJywgJzIwMCcsICctbWV0YWxfYmluZGluZycsICctaW1hZScsICc8aW5maWxlLm1hZT4nLCAnLW9tYWUnLCAnPG91dGZpbGUubWFlPic=

> <r_lp_tautomer_probability>
0.5

> <r_epik_Ionization_Penalty>
0.000801258

> <r_epik_Ionization_Penalty_Charging>
0.000761583

> <r_epik_Ionization_Penalty_Neutral>
3.96747e-05

> <r_epik_State_Penalty>
0.000487427

> <r_epik_Charging_Adjusted_Penalty>
0.00124901

> <i_epik_Tot_Q>
1

> <i_epik_Tot_abs_Q>
1

> <r_epik_Metal_State_Penalty>
-0

> <b_epik_Metal_Only>
0

> <s_lp_Force_Field>
OPLS_2005

> <r_lp_Energy>
32.1126

> <b_lp_Chiralities_Consistent>
1

> <s_lp_Variant>
AV-unprocessed.smi:3167-1

> <Gold.Version>
5.8.1

> <Gold.Id.Protein>
6NUR|6NUR_protein|mol2

> <Gold.PLP.Fitness>
43.0978

> <Gold.PLP.PLP>
-26.3682

> <Gold.PLP.part.hbond>
-3.0000

> <Gold.PLP.part.metal>
0.0000

> <Gold.PLP.part.buried>
-1.5302

> <Gold.PLP.part.nonpolar>
-21.7303

> <Gold.PLP.part.repulsive>
0.6671

> <Gold.PLP.ligand.clash>
0.0000

> <Gold.PLP.ligand.torsion>
0.1146

> <Gold.PLP.Chemscore.Hbond>
3.6937

> <Gold.PLP.Chemscore.CHOScore>
1.9485

> <Gold.PLP.Chemscore.Metal>
0.0000

> <Gold.Chemscore.Hbonds>
donor molecule, donor type, donor heavy atom, donor atom, acceptor molecule, acceptor atom, score
      L1  H     4    25       P1  7948  1.00
      L1  H     7    26       P1  7948  0.87
      L1  H    13    37       P1 10175  2.00
      L1  C     9    27       P1 10186  0.51
      L1  C    12    28       P1 10747  1.00

> <Gold.PLP.Chemscore.Internal.Correction>
0.0322

> <Gold.Rescore>
     Score         DG    S(hbond)    S(metal)    S(lipo)     H(rot)  DE(clash)    DE(int)     intcor
     15.75     -17.70       2.74        0.00      61.80       1.63       0.80       1.14       ----

> <Gold.Chemscore.Fitness>
15.7530

> <Gold.Chemscore.DG>
-17.6985

> <Gold.Chemscore.ZeroCoef>
-5.4800

> <Gold.Chemscore.Hbond>
2.7435

> <Gold.Chemscore.Metal>
0.0000

> <Gold.Chemscore.Lipo>
61.8017

> <Gold.Chemscore.Internal_Hbond>
0.0000

> <Gold.Chemscore.DEClash>
0.8031

> <Gold.Chemscore.DEInternal>
1.1424

> <Gold.Chemscore.Rot>
1.6311

> <Gold.Chemscore.Internal.Correction>
   9.000000E+99

> <Gold.Chemscore.Hbonds>
donor molecule, donor type, donor heavy atom, donor atom, acceptor molecule, acceptor atom, score
      L1  H     4    25       P1  7948  0.98
      L1  H     7    26       P1  7948  0.61
      L1  H    13    37       P1 10175  0.90

> <Gold.Chemscore.Hbond.Weighted>
-9.1634

> <Gold.Chemscore.Metal.Weighted>
-0.0000

> <Gold.Chemscore.Lipo.Weighted>
-7.2308

> <Gold.Chemscore.Internal_Hbond.Weighted>
0.0000

> <Gold.Chemscore.DEClash.Weighted>
0.8031

> <Gold.Chemscore.DEInternal.Weighted>
1.1424

> <Gold.Chemscore.Rot.Weighted>
4.1757

> <Gold.Chemscore.Internal.Correction.Weighted>
   9.000000E+99

> <Gold.Protein.RotatedTorsions>
[ 6907 6896 6895 6894 ] final  160.32 input  -60.11 | X-H torsion
[ 7974 7965 7964 7962 ] final  -54.10 input  175.53 | X-H torsion
[ 8008 7997 7996 7995 ] final  -22.32 input   59.86 | X-H torsion
[ 10167 10162 10161 10158 ] final  125.94 input  -65.29 | X-H torsion
[ 10718 10713 10712 10709 ] final  177.95 input   66.30 | X-H torsion
[ 10763 10752 10751 10750 ] final  -25.17 input  -60.55 | X-H torsion
[ 11005 11000 10999 10996 ] final -165.78 input  -57.11 | X-H torsion

> <Gold.Protein.ActiveResidues>
 VAL166  LYS551  ARG553  GLY616  TRP617  ASP618  TYR619  PRO620  LYS621  CYS622 
 ASP623  PHE694  ASN695  SER759  ASP760  ASP761  ALA762  ILE779  LEU786  VAL792 
 PHE793  MET794  SER795  GLU796  ALA797  LYS798  CYS799  TRP800  GLU811  SER814 

> <Gold.Protein.RotatedAtoms>
  151.9724  133.3730  159.4076 H   0  0  0  0  0  0  0  0  0  0  0  0  # atno 6907 bound_to 6896
  150.6947  134.4125  159.5178 H   0  0  0  0  0  0  0  0  0  0  0  0  # atno 6908 bound_to 6896
  152.1832  134.8736  160.0575 H   0  0  0  0  0  0  0  0  0  0  0  0  # atno 6909 bound_to 6896
  145.8894  140.8083  142.9799 H   0  0  0  0  0  0  0  0  0  0  0  0  # atno 7974 bound_to 7965
  154.4651  140.2011  156.0140 H   0  0  0  0  0  0  0  0  0  0  0  0  # atno 8008 bound_to 7997
  156.0912  140.3258  155.7789 H   0  0  0  0  0  0  0  0  0  0  0  0  # atno 8009 bound_to 7997
  155.4953  140.0549  157.2938 H   0  0  0  0  0  0  0  0  0  0  0  0  # atno 8010 bound_to 7997
  139.5658  144.6910  151.3914 H   0  0  0  0  0  0  0  0  0  0  0  0  # atno 10167 bound_to 10162
  156.8977  130.9868  151.3040 H   0  0  0  0  0  0  0  0  0  0  0  0  # atno 10718 bound_to 10713
  153.6955  135.6959  153.5078 H   0  0  0  0  0  0  0  0  0  0  0  0  # atno 10763 bound_to 10752
  153.2381  135.4315  155.0668 H   0  0  0  0  0  0  0  0  0  0  0  0  # atno 10764 bound_to 10752
  154.8360  135.3501  154.6495 H   0  0  0  0  0  0  0  0  0  0  0  0  # atno 10765 bound_to 10752
  140.5719  134.5229  157.5163 H   0  0  0  0  0  0  0  0  0  0  0  0  # atno 11005 bound_to 11000
  144.6730  140.1506  143.7430 LP  0  0  0  0  0  0  0  0  0  0  0  0  # atno 17320 bound_to 7965
  145.8927  139.2385  143.1540 LP  0  0  0  0  0  0  0  0  0  0  0  0  # atno 17321 bound_to 7965
  140.6941  143.7791  150.7300 LP  0  0  0  0  0  0  0  0  0  0  0  0  # atno 17342 bound_to 10162
  140.1282  143.4550  152.2271 LP  0  0  0  0  0  0  0  0  0  0  0  0  # atno 17343 bound_to 10162
  157.6045  130.8537  149.8853 LP  0  0  0  0  0  0  0  0  0  0  0  0  # atno 17370 bound_to 10713
  156.0597  130.3702  150.1010 LP  0  0  0  0  0  0  0  0  0  0  0  0  # atno 17371 bound_to 10713
  139.9358  134.7879  156.0808 LP  0  0  0  0  0  0  0  0  0  0  0  0  # atno 17394 bound_to 11000
  141.1051  133.6663  156.2844 LP  0  0  0  0  0  0  0  0  0  0  0  0  # atno 17395 bound_to 11000

$$$$
