AV-unprocessed.smi:1072|AV-procd|sdf|4686|dock2
  -GOLD-   22720 3203D 1   1.00000     0.00000
 Structure written by MMmdl.
 46 47  0  0  0  0  0  0  0  0  1 V2000
  151.1491  143.3694  157.5681 C   0  0  0  0  0  0  0  0  0  0  0  0
  151.0572  142.0500  156.8330 C   0  0  0  0  0  0  0  0  0  0  0  0
  150.0498  142.0111  155.8831 N   0  0  0  0  0  0  0  0  0  0  0  0
  149.8879  140.8434  155.1589 C   0  0  0  0  0  0  0  0  0  0  0  0
  148.7620  140.8835  154.1401 C   0  0  0  0  0  0  0  0  0  0  0  0
  150.6924  139.7703  155.3669 C   0  0  0  0  0  0  0  0  0  0  0  0
  150.5467  138.4658  154.5846 C   0  0  0  0  0  0  0  0  0  0  0  0
  150.3007  137.2099  155.4244 C   0  0  0  0  0  0  0  0  0  0  0  0
  150.5919  137.2027  156.6202 O   0  0  0  0  0  0  0  0  0  0  0  0
  149.7707  136.1608  154.7696 N   0  0  0  0  0  0  0  0  0  0  0  0
  149.4422  134.8183  155.2699 C   0  0  1  0  0  0  0  0  0  0  0  0
  148.2356  135.0186  156.2123 C   0  0  0  0  0  0  0  0  0  0  0  0
  149.0525  133.8833  154.0915 C   0  0  0  0  0  0  0  0  0  0  0  0
  148.8535  132.4184  154.5204 C   0  0  0  0  0  0  0  0  0  0  0  0
  150.0884  131.8679  155.2557 C   0  0  2  0  0  0  0  0  0  0  0  0
  149.8882  130.4031  155.6700 C   0  0  0  0  0  0  0  0  0  0  0  0
  150.4297  132.7546  156.4668 C   0  0  0  0  0  0  0  0  0  0  0  0
  150.6432  134.2225  156.0556 C   0  0  0  0  0  0  0  0  0  0  0  0
  151.7588  139.8752  156.3907 C   0  0  0  0  0  0  0  0  0  0  0  0
  152.5303  138.9436  156.6156 O   0  0  0  0  0  0  0  0  0  0  0  0
  151.8755  141.0791  157.1042 N   0  0  0  0  0  0  0  0  0  0  0  0
  149.4325  142.7875  155.6932 H   0  0  0  0  0  0  0  0  0  0  0  0
  151.8266  143.2948  158.4197 H   0  0  0  0  0  0  0  0  0  0  0  0
  150.1690  143.6702  157.9397 H   0  0  0  0  0  0  0  0  0  0  0  0
  151.5221  144.1473  156.9013 H   0  0  0  0  0  0  0  0  0  0  0  0
  148.0133  140.1251  154.3692 H   0  0  0  0  0  0  0  0  0  0  0  0
  149.1479  140.6966  153.1375 H   0  0  0  0  0  0  0  0  0  0  0  0
  148.2631  141.8533  154.1303 H   0  0  0  0  0  0  0  0  0  0  0  0
  151.4540  138.3203  153.9972 H   0  0  0  0  0  0  0  0  0  0  0  0
  149.7484  138.5433  153.8461 H   0  0  0  0  0  0  0  0  0  0  0  0
  149.5776  136.3067  153.7893 H   0  0  0  0  0  0  0  0  0  0  0  0
  147.8906  134.0857  156.6558 H   0  0  0  0  0  0  0  0  0  0  0  0
  147.3878  135.4529  155.6808 H   0  0  0  0  0  0  0  0  0  0  0  0
  148.4836  135.6912  157.0343 H   0  0  0  0  0  0  0  0  0  0  0  0
  148.1485  134.2492  153.6035 H   0  0  0  0  0  0  0  0  0  0  0  0
  149.8263  133.8922  153.3245 H   0  0  0  0  0  0  0  0  0  0  0  0
  147.9717  132.3297  155.1553 H   0  0  0  0  0  0  0  0  0  0  0  0
  148.6495  131.8112  153.6379 H   0  0  0  0  0  0  0  0  0  0  0  0
  150.9333  131.9014  154.5661 H   0  0  0  0  0  0  0  0  0  0  0  0
  149.0533  130.2980  156.3637 H   0  0  0  0  0  0  0  0  0  0  0  0
  150.7791  130.0075  156.1583 H   0  0  0  0  0  0  0  0  0  0  0  0
  149.6820  129.7751  154.8030 H   0  0  0  0  0  0  0  0  0  0  0  0
  149.6380  132.6861  157.2130 H   0  0  0  0  0  0  0  0  0  0  0  0
  151.3328  132.3835  156.9526 H   0  0  0  0  0  0  0  0  0  0  0  0
  151.5503  134.2597  155.4535 H   0  0  0  0  0  0  0  0  0  0  0  0
  150.8512  134.8256  156.9403 H   0  0  0  0  0  0  0  0  0  0  0  0
  1 23  1  0  0  0  0
  1 24  1  0  0  0  0
  1 25  1  0  0  0  0
  1  2  1  0  0  0  0
  2  3  1  0  0  0  0
  2 21  2  0  0  0  0
  3  4  1  0  0  0  0
  3 22  1  0  0  0  0
  4  6  2  0  0  0  0
  4  5  1  0  0  0  0
  5 26  1  0  0  0  0
  5 27  1  0  0  0  0
  5 28  1  0  0  0  0
  6 19  1  0  0  0  0
  6  7  1  0  0  0  0
  7  8  1  0  0  0  0
  7 29  1  0  0  0  0
  7 30  1  0  0  0  0
  8  9  2  0  0  0  0
  8 10  1  0  0  0  0
 10 11  1  0  0  0  0
 10 31  1  0  0  0  0
 11 18  1  0  0  0  0
 11 12  1  0  0  0  0
 11 13  1  0  0  0  0
 12 32  1  0  0  0  0
 12 33  1  0  0  0  0
 12 34  1  0  0  0  0
 13 14  1  0  0  0  0
 13 35  1  0  0  0  0
 13 36  1  0  0  0  0
 14 15  1  0  0  0  0
 14 37  1  0  0  0  0
 14 38  1  0  0  0  0
 15 16  1  0  0  0  0
 15 17  1  0  0  0  0
 15 39  1  0  0  0  0
 16 40  1  0  0  0  0
 16 41  1  0  0  0  0
 16 42  1  0  0  0  0
 17 18  1  0  0  0  0
 17 43  1  0  0  0  0
 17 44  1  0  0  0  0
 18 45  1  0  0  0  0
 18 46  1  0  0  0  0
 19 20  2  0  0  0  0
 19 21  1  0  0  0  0
M  END
> <s_m_source_file>
AV-unprocessed.smi

> <i_m_source_file_index>
1072

> <i_lp_mmshare_version>
43012

> <i_f3d_flags>
0

> <s_epik_input>
W0NIM11jMW5jKFtDSDNdKWMoYyg9TylbbkhdMSlbQ0gyXUMoPU8pW05IXVtDQEBdMihbQ0gzXSlbQ0gyXVtDSDJdW0NAQEhdKFtDSDNdKVtDSDJdW0NIMl0y

> <s_epik_cmdline>
J2VwaWtfcHl0aG9uJywgJy1waCcsICc3LjAnLCAnLXRuJywgJzgnLCAnLW1hJywgJzIwMCcsICctbWV0YWxfYmluZGluZycsICctaW1hZScsICc8aW5maWxlLm1hZT4nLCAnLW9tYWUnLCAnPG91dGZpbGUubWFlPic=

> <r_lp_tautomer_probability>
0.156392

> <r_epik_Ionization_Penalty>
0.0131066

> <r_epik_Ionization_Penalty_Charging>
0.0129643

> <r_epik_Ionization_Penalty_Neutral>
0.000142248

> <r_epik_State_Penalty>
1.15342

> <r_epik_Charging_Adjusted_Penalty>
1.16638

> <i_epik_Tot_Q>
0

> <i_epik_Tot_abs_Q>
0

> <r_epik_Metal_State_Penalty>
1.30766

> <b_epik_Metal_Only>
0

> <s_lp_Force_Field>
OPLS_2005

> <r_lp_Energy>
18.066

> <b_lp_Chiralities_Consistent>
1

> <s_lp_Variant>
AV-unprocessed.smi:1072-4

> <Gold.Version>
5.8.1

> <Gold.Id.Protein>
6NUR|6NUR_protein|mol2

> <Gold.PLP.Fitness>
43.5220

> <Gold.PLP.PLP>
-35.3480

> <Gold.PLP.part.hbond>
-3.0000

> <Gold.PLP.part.metal>
0.0000

> <Gold.PLP.part.buried>
-0.3129

> <Gold.PLP.part.nonpolar>
-31.8724

> <Gold.PLP.part.repulsive>
0.1825

> <Gold.PLP.ligand.clash>
0.0000

> <Gold.PLP.ligand.torsion>
0.4165

> <Gold.PLP.Chemscore.Hbond>
3.0000

> <Gold.PLP.Chemscore.CHOScore>
0.0000

> <Gold.PLP.Chemscore.Metal>
0.0000

> <Gold.Chemscore.Hbonds>
donor molecule, donor type, donor heavy atom, donor atom, acceptor molecule, acceptor atom, score
      L1  H     3    22       P1  8028  1.00
      L1  H    10    31       P1  7948  1.00
      P1  H  7997  8008       L1    20  0.53

> <Gold.PLP.Chemscore.Internal.Correction>
0.0071

> <Gold.Rescore>
     Score         DG    S(hbond)    S(metal)    S(lipo)     H(rot)  DE(clash)    DE(int)     intcor
     13.82     -18.75       2.42        0.00      76.50       1.47       1.39       3.54       ----

> <Gold.Chemscore.Fitness>
13.8186

> <Gold.Chemscore.DG>
-18.7493

> <Gold.Chemscore.ZeroCoef>
-5.4800

> <Gold.Chemscore.Hbond>
2.4190

> <Gold.Chemscore.Metal>
0.0000

> <Gold.Chemscore.Lipo>
76.5016

> <Gold.Chemscore.Internal_Hbond>
0.0000

> <Gold.Chemscore.DEClash>
1.3860

> <Gold.Chemscore.DEInternal>
3.5447

> <Gold.Chemscore.Rot>
1.4690

> <Gold.Chemscore.Internal.Correction>
   9.000000E+99

> <Gold.Chemscore.Hbonds>
donor molecule, donor type, donor heavy atom, donor atom, acceptor molecule, acceptor atom, score
      L1  H     3    22       P1  8028  0.94
      L1  H    10    31       P1  7948  0.58
      P1  H  7997  8008       L1    20  0.08

> <Gold.Chemscore.Hbond.Weighted>
-8.0793

> <Gold.Chemscore.Metal.Weighted>
-0.0000

> <Gold.Chemscore.Lipo.Weighted>
-8.9507

> <Gold.Chemscore.Internal_Hbond.Weighted>
0.0000

> <Gold.Chemscore.DEClash.Weighted>
1.3860

> <Gold.Chemscore.DEInternal.Weighted>
3.5447

> <Gold.Chemscore.Rot.Weighted>
3.7607

> <Gold.Chemscore.Internal.Correction.Weighted>
   9.000000E+99

> <Gold.Protein.RotatedTorsions>
[ 6907 6896 6895 6894 ] final   27.21 input  -60.11 | X-H torsion
[ 7974 7965 7964 7962 ] final  -86.62 input  175.53 | X-H torsion
[ 8008 7997 7996 7995 ] final  -43.84 input   59.86 | X-H torsion
[ 10167 10162 10161 10158 ] final   34.93 input  -65.29 | X-H torsion
[ 10718 10713 10712 10709 ] final   25.77 input   66.30 | X-H torsion
[ 10763 10752 10751 10750 ] final  -88.00 input  -60.55 | X-H torsion
[ 11005 11000 10999 10996 ] final  -46.53 input  -57.11 | X-H torsion

> <Gold.Protein.ActiveResidues>
 VAL166  LYS551  ARG553  GLY616  TRP617  ASP618  TYR619  PRO620  LYS621  CYS622 
 ASP623  PHE694  ASN695  SER759  ASP760  ASP761  ALA762  ILE779  LEU786  VAL792 
 PHE793  MET794  SER795  GLU796  ALA797  LYS798  CYS799  TRP800  GLU811  SER814 

> <Gold.Protein.RotatedAtoms>
  151.9989  134.9939  160.0564 H   0  0  0  0  0  0  0  0  0  0  0  0  # atno 6907 bound_to 6896
  152.1538  133.4533  159.4835 H   0  0  0  0  0  0  0  0  0  0  0  0  # atno 6908 bound_to 6896
  150.6879  134.2074  159.4389 H   0  0  0  0  0  0  0  0  0  0  0  0  # atno 6909 bound_to 6896
  145.4775  140.9558  143.1883 H   0  0  0  0  0  0  0  0  0  0  0  0  # atno 7974 bound_to 7965
  154.3997  140.1437  156.3585 H   0  0  0  0  0  0  0  0  0  0  0  0  # atno 8008 bound_to 7997
  155.8203  140.3469  155.5489 H   0  0  0  0  0  0  0  0  0  0  0  0  # atno 8009 bound_to 7997
  155.8294  140.0910  157.1792 H   0  0  0  0  0  0  0  0  0  0  0  0  # atno 8010 bound_to 7997
  140.4269  144.1380  150.6154 H   0  0  0  0  0  0  0  0  0  0  0  0  # atno 10167 bound_to 10162
  157.1978  130.6876  149.6176 H   0  0  0  0  0  0  0  0  0  0  0  0  # atno 10718 bound_to 10713
  154.6398  135.5393  153.7776 H   0  0  0  0  0  0  0  0  0  0  0  0  # atno 10763 bound_to 10752
  153.0328  135.6456  154.1176 H   0  0  0  0  0  0  0  0  0  0  0  0  # atno 10764 bound_to 10752
  154.1101  135.2927  155.3212 H   0  0  0  0  0  0  0  0  0  0  0  0  # atno 10765 bound_to 10752
  141.0584  133.6717  156.3168 H   0  0  0  0  0  0  0  0  0  0  0  0  # atno 11005 bound_to 11000
  144.7909  139.6331  143.7114 LP  0  0  0  0  0  0  0  0  0  0  0  0  # atno 17320 bound_to 7965
  146.2361  139.5907  142.9523 LP  0  0  0  0  0  0  0  0  0  0  0  0  # atno 17321 bound_to 7965
  140.4471  143.2502  151.9397 LP  0  0  0  0  0  0  0  0  0  0  0  0  # atno 17342 bound_to 10162
  139.4784  144.5598  151.8256 LP  0  0  0  0  0  0  0  0  0  0  0  0  # atno 17343 bound_to 10162
  155.9704  130.4593  150.6030 LP  0  0  0  0  0  0  0  0  0  0  0  0  # atno 17370 bound_to 10713
  157.3797  131.0779  151.1487 LP  0  0  0  0  0  0  0  0  0  0  0  0  # atno 17371 bound_to 10713
  140.5917  134.5644  157.5501 LP  0  0  0  0  0  0  0  0  0  0  0  0  # atno 17394 bound_to 11000
  139.9411  134.7786  156.0677 LP  0  0  0  0  0  0  0  0  0  0  0  0  # atno 17395 bound_to 11000

$$$$
