AV-unprocessed.smi:16|AV-procd|sdf|93|dock1
  -GOLD-   2262015233D 1   1.00000     0.00000
 Structure written by MMmdl.
 60 64  0  0  0  0  0  0  0  0  2 V2000
  150.6424  136.3371  156.0421 C   0  0  0  0  0  0  0  0  0  0  0  0
  151.3649  137.6921  155.9514 C   0  0  0  0  0  0  0  0  0  0  0  0
  150.4970  138.8194  155.5251 N   0  3  1  0  0  0  0  0  0  0  0  0
  151.0695  140.1641  155.7839 C   0  0  0  0  0  0  0  0  0  0  0  0
  150.0004  141.2477  155.5761 C   0  0  0  0  0  0  0  0  0  0  0  0
  149.3788  141.1521  154.1646 C   0  0  2  0  0  0  0  0  0  0  0  0
  148.3556  142.1258  153.9475 O   0  0  0  0  0  0  0  0  0  0  0  0
  147.1519  141.9004  154.6787 C   0  0  0  0  0  0  0  0  0  0  0  0
  146.6025  140.5008  154.3689 C   0  0  0  0  0  0  0  0  0  0  0  0
  147.6203  139.4892  154.6304 N   0  0  0  0  0  0  0  0  0  0  0  0
  147.1375  138.2282  154.5719 C   0  0  0  0  0  0  0  0  0  0  0  0
  147.0938  137.4592  155.6910 N   0  0  0  0  0  0  0  0  0  0  0  0
  146.5801  136.2266  155.6301 C   0  0  0  0  0  0  0  0  0  0  0  0
  146.0629  135.5885  154.5772 N   0  0  0  0  0  0  0  0  0  0  0  0
  146.1082  136.3616  153.4538 C   0  0  0  0  0  0  0  0  0  0  0  0
  146.6223  137.6845  153.3670 C   0  0  0  0  0  0  0  0  0  0  0  0
  146.4799  138.1726  152.0747 N   0  0  0  0  0  0  0  0  0  0  0  0
  145.9133  137.1889  151.4298 C   0  0  0  0  0  0  0  0  0  0  0  0
  145.6770  136.0549  152.1748 N   0  0  0  0  0  0  0  0  0  0  0  0
  145.0248  134.8601  151.7258 C   0  0  0  0  0  0  0  0  0  0  0  0
  145.6110  133.4752  152.0099 C   0  0  0  0  0  0  0  0  0  0  0  0
  145.0313  132.9641  150.6719 C   0  0  0  0  0  0  0  0  0  0  0  0
  145.9652  132.0193  149.8958 C   0  0  0  0  0  0  0  0  0  0  0  0
  146.4718  130.9853  150.7141 O   0  0  0  0  0  0  0  0  0  0  0  0
  143.6399  132.3092  150.8049 C   0  0  0  0  0  0  0  0  0  0  0  0
  143.0551  132.0357  149.5485 O   0  0  0  0  0  0  0  0  0  0  0  0
  145.0560  134.4519  150.2519 C   0  0  0  0  0  0  0  0  0  0  0  0
  148.8517  139.7272  153.8695 C   0  0  2  0  0  0  0  0  0  0  0  0
  149.9761  138.6950  154.1399 C   0  0  0  0  0  0  0  0  0  0  0  0
  150.1675  141.3757  153.4452 H   0  0  0  0  0  0  0  0  0  0  0  0
  148.5911  139.6723  152.8112 H   0  0  0  0  0  0  0  0  0  0  0  0
  151.3386  135.5570  156.3507 H   0  0  0  0  0  0  0  0  0  0  0  0
  150.2239  136.0339  155.0827 H   0  0  0  0  0  0  0  0  0  0  0  0
  149.8355  136.3551  156.7744 H   0  0  0  0  0  0  0  0  0  0  0  0
  151.8001  137.9378  156.9210 H   0  0  0  0  0  0  0  0  0  0  0  0
  152.2030  137.6138  155.2580 H   0  0  0  0  0  0  0  0  0  0  0  0
  151.4453  140.2150  156.8065 H   0  0  0  0  0  0  0  0  0  0  0  0
  151.9166  140.3459  155.1216 H   0  0  0  0  0  0  0  0  0  0  0  0
  149.2403  141.1270  156.3471 H   0  0  0  0  0  0  0  0  0  0  0  0
  150.4364  142.2358  155.7250 H   0  0  0  0  0  0  0  0  0  0  0  0
  147.3169  142.0261  155.7484 H   0  0  0  0  0  0  0  0  0  0  0  0
  146.4222  142.6573  154.3911 H   0  0  0  0  0  0  0  0  0  0  0  0
  145.7170  140.3070  154.9759 H   0  0  0  0  0  0  0  0  0  0  0  0
  146.2940  140.4526  153.3235 H   0  0  0  0  0  0  0  0  0  0  0  0
  146.5805  135.6733  156.5577 H   0  0  0  0  0  0  0  0  0  0  0  0
  145.6524  137.2629  150.3839 H   0  0  0  0  0  0  0  0  0  0  0  0
  143.9964  134.9262  152.0851 H   0  0  0  0  0  0  0  0  0  0  0  0
  146.7025  133.4844  152.0324 H   0  0  0  0  0  0  0  0  0  0  0  0
  145.2095  132.9908  152.9008 H   0  0  0  0  0  0  0  0  0  0  0  0
  145.4359  131.5468  149.0679 H   0  0  0  0  0  0  0  0  0  0  0  0
  146.8009  132.5624  149.4535 H   0  0  0  0  0  0  0  0  0  0  0  0
  147.4156  131.0069  150.6758 H   0  0  0  0  0  0  0  0  0  0  0  0
  143.6955  131.3806  151.3738 H   0  0  0  0  0  0  0  0  0  0  0  0
  142.9517  132.9546  151.3507 H   0  0  0  0  0  0  0  0  0  0  0  0
  142.4582  132.7366  149.3349 H   0  0  0  0  0  0  0  0  0  0  0  0
  144.1942  134.7859  149.6736 H   0  0  0  0  0  0  0  0  0  0  0  0
  145.9880  134.7358  149.7592 H   0  0  0  0  0  0  0  0  0  0  0  0
  150.7907  138.8651  153.4349 H   0  0  0  0  0  0  0  0  0  0  0  0
  149.6315  137.6770  153.9556 H   0  0  0  0  0  0  0  0  0  0  0  0
  149.6840  138.7549  156.1220 H   0  0  0  0  0  0  0  0  0  0  0  0
  1  2  1  0  0  0  0
  1 32  1  0  0  0  0
  1 33  1  0  0  0  0
  1 34  1  0  0  0  0
  2  3  1  0  0  0  0
  2 35  1  0  0  0  0
  2 36  1  0  0  0  0
  3 29  1  0  0  0  0
  3  4  1  0  0  0  0
  3 60  1  0  0  0  0
  4  5  1  0  0  0  0
  4 37  1  0  0  0  0
  4 38  1  0  0  0  0
  5  6  1  0  0  0  0
  5 39  1  0  0  0  0
  5 40  1  0  0  0  0
  6 30  1  0  0  0  0
  6 28  1  0  0  0  0
  6  7  1  0  0  0  0
  7  8  1  0  0  0  0
  8  9  1  0  0  0  0
  8 41  1  0  0  0  0
  8 42  1  0  0  0  0
  9 10  1  0  0  0  0
  9 43  1  0  0  0  0
  9 44  1  0  0  0  0
 10 11  1  0  0  0  0
 10 28  1  0  0  0  0
 11 16  1  0  0  0  0
 11 12  2  0  0  0  0
 12 13  1  0  0  0  0
 13 14  2  0  0  0  0
 13 45  1  0  0  0  0
 14 15  1  0  0  0  0
 15 19  1  0  0  0  0
 15 16  2  0  0  0  0
 16 17  1  0  0  0  0
 17 18  2  0  0  0  0
 18 19  1  0  0  0  0
 18 46  1  0  0  0  0
 19 20  1  0  0  0  0
 20 27  1  0  0  0  0
 20 21  1  0  0  0  0
 20 47  1  0  0  0  0
 21 22  1  0  0  0  0
 21 48  1  0  0  0  0
 21 49  1  0  0  0  0
 22 23  1  0  0  0  0
 22 25  1  0  0  0  0
 22 27  1  0  0  0  0
 23 24  1  0  0  0  0
 23 50  1  0  0  0  0
 23 51  1  0  0  0  0
 24 52  1  0  0  0  0
 25 26  1  0  0  0  0
 25 53  1  0  0  0  0
 25 54  1  0  0  0  0
 26 55  1  0  0  0  0
 27 56  1  0  0  0  0
 27 57  1  0  0  0  0
 28 31  1  0  0  0  0
 28 29  1  0  0  0  0
 29 58  1  0  0  0  0
 29 59  1  0  0  0  0
M  CHG  1   3   1
M  END
> <s_m_source_file>
AV-unprocessed.smi

> <i_m_source_file_index>
16

> <i_lp_mmshare_version>
43012

> <i_f3d_flags>
0

> <s_epik_input>
W0NIM11bQ0gyXU4oW0NIMl1bQ0gyXTEpW0NIMl1bQ0BASF0oW0NAQEhdMTIpTihbQ0gyXVtDSDJdTzIpYyhuW2NIXW4zKWMoYzM0KW5bY0hdbjRbQ0hdKFtDSDJdNSlbQ0gyXUM1KFtDSDJdW09IXSlbQ0gyXVtPSF0=

> <s_epik_cmdline>
J2VwaWtfcHl0aG9uJywgJy1waCcsICc3LjAnLCAnLXRuJywgJzgnLCAnLW1hJywgJzIwMCcsICctbWV0YWxfYmluZGluZycsICctaW1hZScsICc8aW5maWxlLm1hZT4nLCAnLW9tYWUnLCAnPG91dGZpbGUubWFlPic=

> <r_lp_tautomer_probability>
1

> <r_epik_Ionization_Penalty>
0.0135603

> <r_epik_Ionization_Penalty_Charging>
0.0131385

> <r_epik_Ionization_Penalty_Neutral>
0.000421734

> <r_epik_State_Penalty>
0.0102091

> <r_epik_Charging_Adjusted_Penalty>
0.0233476

> <i_epik_Tot_Q>
1

> <i_epik_Tot_abs_Q>
1

> <r_epik_Metal_State_Penalty>
0.0103746

> <b_epik_Metal_Only>
0

> <s_lp_Force_Field>
OPLS_2005

> <r_lp_Energy>
64.3007

> <b_lp_Chiralities_Consistent>
1

> <s_lp_Variant>
AV-unprocessed.smi:16-7

> <Gold.Version>
5.8.1

> <Gold.Id.Protein>
6NUR|6NUR_protein|mol2

> <Gold.PLP.Fitness>
51.9622

> <Gold.PLP.PLP>
-41.9913

> <Gold.PLP.part.hbond>
-4.1281

> <Gold.PLP.part.metal>
0.0000

> <Gold.PLP.part.buried>
-2.3982

> <Gold.PLP.part.nonpolar>
-37.3161

> <Gold.PLP.part.repulsive>
1.1108

> <Gold.PLP.ligand.clash>
0.0000

> <Gold.PLP.ligand.torsion>
0.9912

> <Gold.PLP.Chemscore.Hbond>
2.7225

> <Gold.PLP.Chemscore.CHOScore>
1.0000

> <Gold.PLP.Chemscore.Metal>
0.0000

> <Gold.Chemscore.Hbonds>
donor molecule, donor type, donor heavy atom, donor atom, acceptor molecule, acceptor atom, score
      L1  H    24    52       P1 10747  1.00
      L1  H    26    55       P1 10186  0.52
      P1  H 10785 10796       L1    26  0.91
      L1  C    18    46       P1 10171  0.78

> <Gold.PLP.Chemscore.Internal.Correction>
0.7858

> <Gold.Rescore>
     Score         DG    S(hbond)    S(metal)    S(lipo)     H(rot)  DE(clash)    DE(int)     intcor
     14.32     -17.04       2.60        0.00      97.24       3.33       1.52       1.20       ----

> <Gold.Chemscore.Fitness>
14.3214

> <Gold.Chemscore.DG>
-17.0419

> <Gold.Chemscore.ZeroCoef>
-5.4800

> <Gold.Chemscore.Hbond>
2.6039

> <Gold.Chemscore.Metal>
0.0000

> <Gold.Chemscore.Lipo>
97.2400

> <Gold.Chemscore.Internal_Hbond>
0.0000

> <Gold.Chemscore.DEClash>
1.5157

> <Gold.Chemscore.DEInternal>
1.2048

> <Gold.Chemscore.Rot>
3.3251

> <Gold.Chemscore.Internal.Correction>
   9.000000E+99

> <Gold.Chemscore.Hbonds>
donor molecule, donor type, donor heavy atom, donor atom, acceptor molecule, acceptor atom, score
      L1  H    24    52       P1 10747  0.99
      L1  H    26    55       P1 10186  0.52
      P1  H 10785 10796       L1    26  0.86

> <Gold.Chemscore.Hbond.Weighted>
-8.6970

> <Gold.Chemscore.Metal.Weighted>
-0.0000

> <Gold.Chemscore.Lipo.Weighted>
-11.3771

> <Gold.Chemscore.Internal_Hbond.Weighted>
0.0000

> <Gold.Chemscore.DEClash.Weighted>
1.5157

> <Gold.Chemscore.DEInternal.Weighted>
1.2048

> <Gold.Chemscore.Rot.Weighted>
8.5122

> <Gold.Chemscore.Internal.Correction.Weighted>
   9.000000E+99

> <Gold.Protein.RotatedTorsions>
[ 6907 6896 6895 6894 ] final  -38.00 input  -60.11 | X-H torsion
[ 7974 7965 7964 7962 ] final   22.53 input  175.53 | X-H torsion
[ 8008 7997 7996 7995 ] final   50.38 input   59.86 | X-H torsion
[ 10167 10162 10161 10158 ] final   53.13 input  -65.29 | X-H torsion
[ 10718 10713 10712 10709 ] final -130.68 input   66.30 | X-H torsion
[ 10763 10752 10751 10750 ] final  -45.02 input  -60.55 | X-H torsion
[ 11005 11000 10999 10996 ] final   56.52 input  -57.11 | X-H torsion

> <Gold.Protein.ActiveResidues>
 VAL166  LYS551  ARG553  GLY616  TRP617  ASP618  TYR619  PRO620  LYS621  CYS622 
 ASP623  PHE694  ASN695  SER759  ASP760  ASP761  ALA762  ILE779  LEU786  VAL792 
 PHE793  MET794  SER795  GLU796  ALA797  LYS798  CYS799  TRP800  GLU811  SER814 

> <Gold.Protein.RotatedAtoms>
  151.0078  134.9373  159.7989 H   0  0  0  0  0  0  0  0  0  0  0  0  # atno 6907 bound_to 6896
  152.5294  134.3069  159.9109 H   0  0  0  0  0  0  0  0  0  0  0  0  # atno 6908 bound_to 6896
  151.3075  133.4053  159.2678 H   0  0  0  0  0  0  0  0  0  0  0  0  # atno 6909 bound_to 6896
  146.2025  139.7872  142.8751 H   0  0  0  0  0  0  0  0  0  0  0  0  # atno 7974 bound_to 7965
  155.4177  140.3445  155.4269 H   0  0  0  0  0  0  0  0  0  0  0  0  # atno 8008 bound_to 7997
  156.1411  140.1542  156.8950 H   0  0  0  0  0  0  0  0  0  0  0  0  # atno 8009 bound_to 7997
  154.4972  140.0824  156.7702 H   0  0  0  0  0  0  0  0  0  0  0  0  # atno 8010 bound_to 7997
  140.2440  144.3552  150.6370 H   0  0  0  0  0  0  0  0  0  0  0  0  # atno 10167 bound_to 10162
  156.2169  130.6953  151.0712 H   0  0  0  0  0  0  0  0  0  0  0  0  # atno 10718 bound_to 10713
  154.0217  135.6668  153.4773 H   0  0  0  0  0  0  0  0  0  0  0  0  # atno 10763 bound_to 10752
  153.0577  135.5046  154.8017 H   0  0  0  0  0  0  0  0  0  0  0  0  # atno 10764 bound_to 10752
  154.6933  135.3065  154.9412 H   0  0  0  0  0  0  0  0  0  0  0  0  # atno 10765 bound_to 10752
  140.0523  134.5719  155.9249 H   0  0  0  0  0  0  0  0  0  0  0  0  # atno 11005 bound_to 11000
  145.3436  141.0293  143.3378 LP  0  0  0  0  0  0  0  0  0  0  0  0  # atno 17320 bound_to 7965
  144.8715  139.5031  143.6765 LP  0  0  0  0  0  0  0  0  0  0  0  0  # atno 17321 bound_to 7965
  140.6092  143.2169  151.6920 LP  0  0  0  0  0  0  0  0  0  0  0  0  # atno 17342 bound_to 10162
  139.5068  144.3669  152.0508 LP  0  0  0  0  0  0  0  0  0  0  0  0  # atno 17343 bound_to 10162
  157.7067  131.0753  150.6641 LP  0  0  0  0  0  0  0  0  0  0  0  0  # atno 17370 bound_to 10713
  156.6703  130.4537  149.5659 LP  0  0  0  0  0  0  0  0  0  0  0  0  # atno 17371 bound_to 10713
  141.1936  133.6579  156.5555 LP  0  0  0  0  0  0  0  0  0  0  0  0  # atno 17394 bound_to 11000
  140.3898  134.7450  157.4714 LP  0  0  0  0  0  0  0  0  0  0  0  0  # atno 17395 bound_to 11000

$$$$
