AV-unprocessed.smi:1703|AV-procd|sdf|6878|dock7
  -GOLD-   22720 8 83D 1   1.00000     0.00000
 Structure written by MMmdl.
 50 52  0  0  0  0  0  0  0  0  3 V2000
  143.1000  130.2228  157.8171 C   0  0  0  0  0  0  0  0  0  0  0  0
  144.2818  131.0116  158.4095 C   0  0  1  0  0  0  0  0  0  0  0  0
  145.3724  131.3536  157.3753 C   0  0  0  0  0  0  0  0  0  0  0  0
  144.9192  132.4272  156.4602 N   0  3  2  0  0  0  0  0  0  0  0  0
  145.9073  132.7250  155.3921 C   0  0  0  0  0  0  0  0  0  0  0  0
  145.6223  134.0646  154.6848 C   0  0  2  0  0  0  0  0  0  0  0  0
  144.2758  134.0749  154.2500 O   0  0  0  0  0  0  0  0  0  0  0  0
  146.5534  134.2875  153.4768 C   0  0  0  0  0  0  0  0  0  0  0  0
  145.8354  134.7897  152.2929 N   0  0  0  0  0  0  0  0  0  0  0  0
  145.5246  136.0703  151.9375 C   0  0  0  0  0  0  0  0  0  0  0  0
  145.8549  137.3136  152.7012 C   0  0  0  0  0  0  0  0  0  0  0  0
  146.6982  138.1956  151.9911 O   0  0  0  0  0  0  0  0  0  0  0  0
  144.8388  136.0061  150.7604 N   0  3  0  0  0  0  0  0  0  0  0  0
  144.7138  134.6772  150.3560 C   0  0  0  0  0  0  0  0  0  0  0  0
  144.1030  134.1217  149.2359 C   0  0  0  0  0  0  0  0  0  0  0  0
  144.1505  132.7173  149.1205 C   0  0  0  0  0  0  0  0  0  0  0  0
  144.7856  131.9223  150.0964 C   0  0  0  0  0  0  0  0  0  0  0  0
  145.4005  132.4972  151.2285 C   0  0  0  0  0  0  0  0  0  0  0  0
  145.3519  133.8879  151.3350 C   0  0  0  0  0  0  0  0  0  0  0  0
  144.4981  133.6188  157.2353 C   0  0  0  0  0  0  0  0  0  0  0  0
  143.3907  133.2392  158.2353 C   0  0  2  0  0  0  0  0  0  0  0  0
  142.9842  134.4220  159.1210 C   0  0  0  0  0  0  0  0  0  0  0  0
  143.8575  132.1952  159.0863 O   0  0  0  0  0  0  0  0  0  0  0  0
  143.4338  129.2593  157.4308 H   0  0  0  0  0  0  0  0  0  0  0  0
  142.6191  130.7513  156.9943 H   0  0  0  0  0  0  0  0  0  0  0  0
  142.3431  130.0267  158.5767 H   0  0  0  0  0  0  0  0  0  0  0  0
  144.7344  130.3753  159.1710 H   0  0  0  0  0  0  0  0  0  0  0  0
  146.2778  131.6822  157.8882 H   0  0  0  0  0  0  0  0  0  0  0  0
  145.6368  130.4603  156.8077 H   0  0  0  0  0  0  0  0  0  0  0  0
  146.9115  132.7212  155.8192 H   0  0  0  0  0  0  0  0  0  0  0  0
  145.8930  131.9300  154.6447 H   0  0  0  0  0  0  0  0  0  0  0  0
  145.7568  134.8923  155.3804 H   0  0  0  0  0  0  0  0  0  0  0  0
  143.8201  133.3531  154.6557 H   0  0  0  0  0  0  0  0  0  0  0  0
  147.3172  135.0237  153.7280 H   0  0  0  0  0  0  0  0  0  0  0  0
  147.0929  133.3764  153.2181 H   0  0  0  0  0  0  0  0  0  0  0  0
  144.9288  137.8327  152.9487 H   0  0  0  0  0  0  0  0  0  0  0  0
  146.3407  137.0492  153.6403 H   0  0  0  0  0  0  0  0  0  0  0  0
  147.4850  137.7309  151.7482 H   0  0  0  0  0  0  0  0  0  0  0  0
  143.6140  134.7291  148.4882 H   0  0  0  0  0  0  0  0  0  0  0  0
  143.6897  132.2409  148.2670 H   0  0  0  0  0  0  0  0  0  0  0  0
  144.8008  130.8487  149.9747 H   0  0  0  0  0  0  0  0  0  0  0  0
  145.8795  131.8736  151.9679 H   0  0  0  0  0  0  0  0  0  0  0  0
  145.3585  134.0339  157.7629 H   0  0  0  0  0  0  0  0  0  0  0  0
  144.1293  134.3973  156.5681 H   0  0  0  0  0  0  0  0  0  0  0  0
  142.5056  132.9056  157.6928 H   0  0  0  0  0  0  0  0  0  0  0  0
  142.6086  135.2515  158.5212 H   0  0  0  0  0  0  0  0  0  0  0  0
  143.8288  134.7869  159.7061 H   0  0  0  0  0  0  0  0  0  0  0  0
  142.1965  134.1337  159.8177 H   0  0  0  0  0  0  0  0  0  0  0  0
  144.0972  132.0704  155.9933 H   0  0  0  0  0  0  0  0  0  0  0  0
  144.4801  136.8182  150.2740 H   0  0  0  0  0  0  0  0  0  0  0  0
  1  2  1  0  0  0  0
  1 24  1  0  0  0  0
  1 25  1  0  0  0  0
  1 26  1  0  0  0  0
  2 23  1  0  0  0  0
  2  3  1  0  0  0  0
  2 27  1  0  0  0  0
  3  4  1  0  0  0  0
  3 28  1  0  0  0  0
  3 29  1  0  0  0  0
  4  5  1  0  0  0  0
  4 20  1  0  0  0  0
  4 49  1  0  0  0  0
  5  6  1  0  0  0  0
  5 30  1  0  0  0  0
  5 31  1  0  0  0  0
  6  7  1  0  0  0  0
  6  8  1  0  0  0  0
  6 32  1  0  0  0  0
  7 33  1  0  0  0  0
  8  9  1  0  0  0  0
  8 34  1  0  0  0  0
  8 35  1  0  0  0  0
  9 19  1  0  0  0  0
  9 10  1  0  0  0  0
 10 11  1  0  0  0  0
 10 13  2  0  0  0  0
 11 12  1  0  0  0  0
 11 36  1  0  0  0  0
 11 37  1  0  0  0  0
 12 38  1  0  0  0  0
 13 14  1  0  0  0  0
 13 50  1  0  0  0  0
 14 19  2  0  0  0  0
 14 15  1  0  0  0  0
 15 16  2  0  0  0  0
 15 39  1  0  0  0  0
 16 17  1  0  0  0  0
 16 40  1  0  0  0  0
 17 18  2  0  0  0  0
 17 41  1  0  0  0  0
 18 19  1  0  0  0  0
 18 42  1  0  0  0  0
 20 21  1  0  0  0  0
 20 43  1  0  0  0  0
 20 44  1  0  0  0  0
 21 22  1  0  0  0  0
 21 23  1  0  0  0  0
 21 45  1  0  0  0  0
 22 46  1  0  0  0  0
 22 47  1  0  0  0  0
 22 48  1  0  0  0  0
M  CHG  1   4   1
M  CHG  1  13   1
M  END
> <s_m_source_file>
AV-unprocessed.smi

> <i_m_source_file_index>
1703

> <i_lp_mmshare_version>
43012

> <i_f3d_flags>
0

> <s_epik_input>
W0NIM11bQ0BASF0xW0NIMl1OKFtDSDJdW0NASF0oTzEpW0NIM10pW0NIMl1bQ0BIXShbT0hdKVtDSDJdbihjKG4yKVtDSDJdW09IXSljKGMyMylbY0hdW2NIXVtjSF1bY0hdMw==

> <s_epik_cmdline>
J2VwaWtfcHl0aG9uJywgJy1waCcsICc3LjAnLCAnLXRuJywgJzgnLCAnLW1hJywgJzIwMCcsICctbWV0YWxfYmluZGluZycsICctaW1hZScsICc8aW5maWxlLm1hZT4nLCAnLW9tYWUnLCAnPG91dGZpbGUubWFlPic=

> <r_epik_Ionization_Penalty>
2.22579

> <r_epik_Ionization_Penalty_Charging>
2.22492

> <r_epik_Ionization_Penalty_Neutral>
0.000870007

> <r_epik_State_Penalty>
2.3141

> <r_epik_Charging_Adjusted_Penalty>
4.53902

> <i_epik_Tot_Q>
2

> <i_epik_Tot_abs_Q>
2

> <r_epik_Metal_State_Penalty>
6.36517

> <b_epik_Metal_Only>
0

> <s_lp_Force_Field>
OPLS_2005

> <r_lp_Energy>
31.039

> <b_lp_Chiralities_Consistent>
1

> <s_lp_Variant>
AV-unprocessed.smi:1703-26

> <Gold.Version>
5.8.1

> <Gold.Id.Protein>
6NUR|6NUR_protein|mol2

> <Gold.PLP.Fitness>
42.8949

> <Gold.PLP.PLP>
-30.2661

> <Gold.PLP.part.hbond>
-4.0000

> <Gold.PLP.part.metal>
0.0000

> <Gold.PLP.part.buried>
-1.5176

> <Gold.PLP.part.nonpolar>
-25.1881

> <Gold.PLP.part.repulsive>
0.0741

> <Gold.PLP.ligand.clash>
0.0000

> <Gold.PLP.ligand.torsion>
1.2018

> <Gold.PLP.Chemscore.Hbond>
4.9913

> <Gold.PLP.Chemscore.CHOScore>
0.0000

> <Gold.PLP.Chemscore.Metal>
0.0000

> <Gold.Chemscore.Hbonds>
donor molecule, donor type, donor heavy atom, donor atom, acceptor molecule, acceptor atom, score
      L1  H     4    49       P1 10957  2.00
      L1  H     7    33       P1 10957  1.00
      L1  H    12    38       P1  7948  0.89
      L1  H    13    50       P1 10171  1.00

> <Gold.PLP.Chemscore.Internal.Correction>
0.0587

> <Gold.Rescore>
     Score         DG    S(hbond)    S(metal)    S(lipo)     H(rot)  DE(clash)    DE(int)     intcor
     15.53     -18.09       3.65        0.00      70.04       3.04       1.47       1.09       ----

> <Gold.Chemscore.Fitness>
15.5319

> <Gold.Chemscore.DG>
-18.0887

> <Gold.Chemscore.ZeroCoef>
-5.4800

> <Gold.Chemscore.Hbond>
3.6499

> <Gold.Chemscore.Metal>
0.0000

> <Gold.Chemscore.Lipo>
70.0394

> <Gold.Chemscore.Internal_Hbond>
0.0000

> <Gold.Chemscore.DEClash>
1.4669

> <Gold.Chemscore.DEInternal>
1.0899

> <Gold.Chemscore.Rot>
3.0378

> <Gold.Chemscore.Internal.Correction>
   9.000000E+99

> <Gold.Chemscore.Hbonds>
donor molecule, donor type, donor heavy atom, donor atom, acceptor molecule, acceptor atom, score
      L1  H     4    49       P1 10957  0.93
      L1  H     7    33       P1 10957  0.97
      L1  H    12    38       P1  7948  0.86
      L1  H    13    50       P1 10171  1.00

> <Gold.Chemscore.Hbond.Weighted>
-12.1908

> <Gold.Chemscore.Metal.Weighted>
-0.0000

> <Gold.Chemscore.Lipo.Weighted>
-8.1946

> <Gold.Chemscore.Internal_Hbond.Weighted>
0.0000

> <Gold.Chemscore.DEClash.Weighted>
1.4669

> <Gold.Chemscore.DEInternal.Weighted>
1.0899

> <Gold.Chemscore.Rot.Weighted>
7.7767

> <Gold.Chemscore.Internal.Correction.Weighted>
   9.000000E+99

> <Gold.Protein.RotatedTorsions>
[ 6907 6896 6895 6894 ] final  145.39 input  -60.11 | X-H torsion
[ 7974 7965 7964 7962 ] final   75.79 input  175.53 | X-H torsion
[ 8008 7997 7996 7995 ] final  166.04 input   59.86 | X-H torsion
[ 10167 10162 10161 10158 ] final  100.54 input  -65.29 | X-H torsion
[ 10718 10713 10712 10709 ] final   27.19 input   66.30 | X-H torsion
[ 10763 10752 10751 10750 ] final -136.28 input  -60.55 | X-H torsion
[ 11005 11000 10999 10996 ] final -119.34 input  -57.11 | X-H torsion

> <Gold.Protein.ActiveResidues>
 VAL166  LYS551  ARG553  GLY616  TRP617  ASP618  TYR619  PRO620  LYS621  CYS622 
 ASP623  PHE694  ASN695  SER759  ASP760  ASP761  ALA762  ILE779  LEU786  VAL792 
 PHE793  MET794  SER795  GLU796  ALA797  LYS798  CYS799  TRP800  GLU811  SER814 

> <Gold.Protein.RotatedAtoms>
  152.1815  133.4710  159.4960 H   0  0  0  0  0  0  0  0  0  0  0  0  # atno 6907 bound_to 6896
  150.6935  134.1827  159.4264 H   0  0  0  0  0  0  0  0  0  0  0  0  # atno 6908 bound_to 6896
  151.9739  135.0063  160.0605 H   0  0  0  0  0  0  0  0  0  0  0  0  # atno 6909 bound_to 6896
  145.7110  139.2615  143.1650 H   0  0  0  0  0  0  0  0  0  0  0  0  # atno 7974 bound_to 7965
  156.1751  140.1654  156.8377 H   0  0  0  0  0  0  0  0  0  0  0  0  # atno 8008 bound_to 7997
  154.5298  140.0759  156.8359 H   0  0  0  0  0  0  0  0  0  0  0  0  # atno 8009 bound_to 7997
  155.3430  140.3385  155.4241 H   0  0  0  0  0  0  0  0  0  0  0  0  # atno 8010 bound_to 7997
  139.7518  144.6981  151.0420 H   0  0  0  0  0  0  0  0  0  0  0  0  # atno 10167 bound_to 10162
  157.2169  130.6960  149.6253 H   0  0  0  0  0  0  0  0  0  0  0  0  # atno 10718 bound_to 10713
  154.8687  135.3677  154.5035 H   0  0  0  0  0  0  0  0  0  0  0  0  # atno 10763 bound_to 10752
  153.5675  135.7021  153.5524 H   0  0  0  0  0  0  0  0  0  0  0  0  # atno 10764 bound_to 10752
  153.3572  135.4056  155.1654 H   0  0  0  0  0  0  0  0  0  0  0  0  # atno 10765 bound_to 10752
  141.0222  134.0107  157.3266 H   0  0  0  0  0  0  0  0  0  0  0  0  # atno 11005 bound_to 11000
  146.0712  140.7867  142.9687 LP  0  0  0  0  0  0  0  0  0  0  0  0  # atno 17320 bound_to 7965
  144.6942  140.3345  143.7210 LP  0  0  0  0  0  0  0  0  0  0  0  0  # atno 17321 bound_to 7965
  140.7798  143.4799  151.0031 LP  0  0  0  0  0  0  0  0  0  0  0  0  # atno 17342 bound_to 10162
  139.8487  143.7467  152.3178 LP  0  0  0  0  0  0  0  0  0  0  0  0  # atno 17343 bound_to 10162
  155.9685  130.4532  150.5805 LP  0  0  0  0  0  0  0  0  0  0  0  0  # atno 17370 bound_to 10713
  157.3615  131.0750  151.1632 LP  0  0  0  0  0  0  0  0  0  0  0  0  # atno 17371 bound_to 10713
  139.9153  135.0196  156.7857 LP  0  0  0  0  0  0  0  0  0  0  0  0  # atno 17394 bound_to 11000
  140.6553  133.9694  155.7776 LP  0  0  0  0  0  0  0  0  0  0  0  0  # atno 17395 bound_to 11000

$$$$
