AV-unprocessed.smi:1255|AV-procd|sdf|5281|dock9
  -GOLD-   22720 4403D 1   1.00000     0.00000
 Structure written by MMmdl.
 40 41  0  0  0  0  0  0  0  0  1 V2000
  146.8589  139.8058  151.1715 C   0  0  0  0  0  0  0  0  0  0  0  0
  146.7237  138.7642  152.2951 C   0  0  2  0  0  0  0  0  0  0  0  0
  145.3017  138.4722  152.4726 N   0  0  0  0  0  0  0  0  0  0  0  0
  144.7660  137.2430  152.4959 C   0  0  0  0  0  0  0  0  0  0  0  0
  143.4493  137.2672  152.7042 N   0  0  0  0  0  0  0  0  0  0  0  0
  145.4026  136.2017  152.3464 O   0  0  0  0  0  0  0  0  0  0  0  0
  147.3170  139.3682  153.5791 C   0  0  0  0  0  0  0  0  0  0  0  0
  146.5988  139.5483  154.5634 O   0  0  0  0  0  0  0  0  0  0  0  0
  148.6285  139.6651  153.5265 N   0  0  0  0  0  0  0  0  0  0  0  0
  149.4520  140.2302  154.5374 C   0  0  0  0  0  0  0  0  0  0  0  0
  150.7771  139.8188  154.8101 C   0  0  0  0  0  0  0  0  0  0  0  0
  151.4850  140.4450  155.8536 C   0  0  0  0  0  0  0  0  0  0  0  0
  150.8526  141.4608  156.6088 C   0  0  0  0  0  0  0  0  0  0  0  0
  151.5457  142.1020  157.6587 N   0  0  0  0  0  0  0  0  0  0  0  0
  152.0477  141.2289  158.7170 C   0  0  0  0  0  0  0  0  0  0  0  0
  153.0390  141.9905  159.6140 C   0  0  0  0  0  0  0  0  0  0  0  0
  152.4272  143.1746  160.1151 O   0  0  0  0  0  0  0  0  0  0  0  0
  152.0484  144.0595  159.0663 C   0  0  0  0  0  0  0  0  0  0  0  0
  151.0177  143.3714  158.1560 C   0  0  0  0  0  0  0  0  0  0  0  0
  149.5791  141.8467  156.3494 N   0  0  0  0  0  0  0  0  0  0  0  0
  148.9037  141.2431  155.3492 C   0  0  0  0  0  0  0  0  0  0  0  0
  147.9042  140.0602  150.9910 H   0  0  0  0  0  0  0  0  0  0  0  0
  146.3271  140.7294  151.4057 H   0  0  0  0  0  0  0  0  0  0  0  0
  146.4535  139.4219  150.2347 H   0  0  0  0  0  0  0  0  0  0  0  0
  147.2599  137.8542  152.0176 H   0  0  0  0  0  0  0  0  0  0  0  0
  144.6902  139.2630  152.6125 H   0  0  0  0  0  0  0  0  0  0  0  0
  142.9233  136.4063  152.7381 H   0  0  0  0  0  0  0  0  0  0  0  0
  142.9812  138.1543  152.8218 H   0  0  0  0  0  0  0  0  0  0  0  0
  149.1080  139.3899  152.6815 H   0  0  0  0  0  0  0  0  0  0  0  0
  151.2609  139.0327  154.2519 H   0  0  0  0  0  0  0  0  0  0  0  0
  152.5033  140.1467  156.0530 H   0  0  0  0  0  0  0  0  0  0  0  0
  151.2034  140.8761  159.3108 H   0  0  0  0  0  0  0  0  0  0  0  0
  152.5415  140.3459  158.3139 H   0  0  0  0  0  0  0  0  0  0  0  0
  153.3408  141.3649  160.4540 H   0  0  0  0  0  0  0  0  0  0  0  0
  153.9466  142.2423  159.0629 H   0  0  0  0  0  0  0  0  0  0  0  0
  151.6210  144.9636  159.5002 H   0  0  0  0  0  0  0  0  0  0  0  0
  152.9280  144.3644  158.4969 H   0  0  0  0  0  0  0  0  0  0  0  0
  150.7744  144.0323  157.3230 H   0  0  0  0  0  0  0  0  0  0  0  0
  150.0951  143.1877  158.7086 H   0  0  0  0  0  0  0  0  0  0  0  0
  147.8915  141.5857  155.1903 H   0  0  0  0  0  0  0  0  0  0  0  0
  1  2  1  0  0  0  0
  1 22  1  0  0  0  0
  1 23  1  0  0  0  0
  1 24  1  0  0  0  0
  2  3  1  0  0  0  0
  2  7  1  0  0  0  0
  2 25  1  0  0  0  0
  3  4  1  0  0  0  0
  3 26  1  0  0  0  0
  4  5  1  0  0  0  0
  4  6  2  0  0  0  0
  5 27  1  0  0  0  0
  5 28  1  0  0  0  0
  7  8  2  0  0  0  0
  7  9  1  0  0  0  0
  9 10  1  0  0  0  0
  9 29  1  0  0  0  0
 10 21  1  0  0  0  0
 10 11  2  0  0  0  0
 11 12  1  0  0  0  0
 11 30  1  0  0  0  0
 12 13  2  0  0  0  0
 12 31  1  0  0  0  0
 13 14  1  0  0  0  0
 13 20  1  0  0  0  0
 14 19  1  0  0  0  0
 14 15  1  0  0  0  0
 15 16  1  0  0  0  0
 15 32  1  0  0  0  0
 15 33  1  0  0  0  0
 16 17  1  0  0  0  0
 16 34  1  0  0  0  0
 16 35  1  0  0  0  0
 17 18  1  0  0  0  0
 18 19  1  0  0  0  0
 18 36  1  0  0  0  0
 18 37  1  0  0  0  0
 19 38  1  0  0  0  0
 19 39  1  0  0  0  0
 20 21  2  0  0  0  0
 21 40  1  0  0  0  0
M  END
> <s_m_source_file>
AV-unprocessed.smi

> <i_m_source_file_index>
1255

> <i_lp_mmshare_version>
43012

> <i_f3d_flags>
0

> <s_epik_input>
W05IMl1DKD1PKVtOSF1bQ0BASF0oW0NIM10pQyg9TylbTkhdYzFbY0hdW2NIXWMobltjSF0xKU4yW0NIMl1bQ0gyXU9bQ0gyXVtDSDJdMg==

> <s_epik_cmdline>
J2VwaWtfcHl0aG9uJywgJy1waCcsICc3LjAnLCAnLXRuJywgJzgnLCAnLW1hJywgJzIwMCcsICctbWV0YWxfYmluZGluZycsICctaW1hZScsICc8aW5maWxlLm1hZT4nLCAnLW9tYWUnLCAnPG91dGZpbGUubWFlPic=

> <r_lp_tautomer_probability>
1

> <r_epik_Ionization_Penalty>
0.00069351

> <r_epik_Ionization_Penalty_Charging>
0

> <r_epik_Ionization_Penalty_Neutral>
0.00069351

> <r_epik_State_Penalty>
0.000408291

> <r_epik_Charging_Adjusted_Penalty>
0.000408291

> <i_epik_Tot_Q>
0

> <i_epik_Tot_abs_Q>
0

> <r_epik_Metal_State_Penalty>
-0

> <b_epik_Metal_Only>
0

> <s_lp_Force_Field>
OPLS_2005

> <r_lp_Energy>
17.9712

> <b_lp_Chiralities_Consistent>
1

> <s_lp_Variant>
AV-unprocessed.smi:1255-1

> <Gold.Version>
5.8.1

> <Gold.Id.Protein>
6NUR|6NUR_protein|mol2

> <Gold.PLP.Fitness>
41.7102

> <Gold.PLP.PLP>
-36.9596

> <Gold.PLP.part.hbond>
-3.1314

> <Gold.PLP.part.metal>
0.0000

> <Gold.PLP.part.buried>
-1.1210

> <Gold.PLP.part.nonpolar>
-33.6777

> <Gold.PLP.part.repulsive>
1.0445

> <Gold.PLP.ligand.clash>
0.0000

> <Gold.PLP.ligand.torsion>
0.6054

> <Gold.PLP.Chemscore.Hbond>
1.8640

> <Gold.PLP.Chemscore.CHOScore>
0.0000

> <Gold.PLP.Chemscore.Metal>
0.0000

> <Gold.Chemscore.Hbonds>
donor molecule, donor type, donor heavy atom, donor atom, acceptor molecule, acceptor atom, score
      L1  H     3    26       P1 10175  1.00
      L1  H     5    28       P1 10175  0.07
      L1  H     9    29       P1  7957  0.82

> <Gold.PLP.Chemscore.Internal.Correction>
0.3694

> <Gold.Rescore>
     Score         DG    S(hbond)    S(metal)    S(lipo)     H(rot)  DE(clash)    DE(int)     intcor
     15.49     -19.50       2.52        0.00      89.72       1.91       2.18       1.83       ----

> <Gold.Chemscore.Fitness>
15.4911

> <Gold.Chemscore.DG>
-19.5030

> <Gold.Chemscore.ZeroCoef>
-5.4800

> <Gold.Chemscore.Hbond>
2.5171

> <Gold.Chemscore.Metal>
0.0000

> <Gold.Chemscore.Lipo>
89.7177

> <Gold.Chemscore.Internal_Hbond>
0.0000

> <Gold.Chemscore.DEClash>
2.1820

> <Gold.Chemscore.DEInternal>
1.8299

> <Gold.Chemscore.Rot>
1.9067

> <Gold.Chemscore.Internal.Correction>
   9.000000E+99

> <Gold.Chemscore.Hbonds>
donor molecule, donor type, donor heavy atom, donor atom, acceptor molecule, acceptor atom, score
      L1  H     3    26       P1 10175  0.97
      L1  H     5    28       P1 10175  0.09
      L1  H     9    29       P1  7957  0.81

> <Gold.Chemscore.Hbond.Weighted>
-8.4071

> <Gold.Chemscore.Metal.Weighted>
-0.0000

> <Gold.Chemscore.Lipo.Weighted>
-10.4970

> <Gold.Chemscore.Internal_Hbond.Weighted>
0.0000

> <Gold.Chemscore.DEClash.Weighted>
2.1820

> <Gold.Chemscore.DEInternal.Weighted>
1.8299

> <Gold.Chemscore.Rot.Weighted>
4.8811

> <Gold.Chemscore.Internal.Correction.Weighted>
   9.000000E+99

> <Gold.Protein.RotatedTorsions>
[ 6907 6896 6895 6894 ] final  166.12 input  -60.11 | X-H torsion
[ 7974 7965 7964 7962 ] final  170.71 input  175.53 | X-H torsion
[ 8008 7997 7996 7995 ] final   37.69 input   59.86 | X-H torsion
[ 10167 10162 10161 10158 ] final  -58.99 input  -65.29 | X-H torsion
[ 10718 10713 10712 10709 ] final -103.45 input   66.30 | X-H torsion
[ 10763 10752 10751 10750 ] final   73.38 input  -60.55 | X-H torsion
[ 11005 11000 10999 10996 ] final  160.82 input  -57.11 | X-H torsion

> <Gold.Protein.ActiveResidues>
 VAL166  LYS551  ARG553  GLY616  TRP617  ASP618  TYR619  PRO620  LYS621  CYS622 
 ASP623  PHE694  ASN695  SER759  ASP760  ASP761  ALA762  ILE779  LEU786  VAL792 
 PHE793  MET794  SER795  GLU796  ALA797  LYS798  CYS799  TRP800  GLU811  SER814 

> <Gold.Protein.RotatedAtoms>
  151.8838  133.3501  159.3775 H   0  0  0  0  0  0  0  0  0  0  0  0  # atno 6907 bound_to 6896
  150.7120  134.4992  159.5562 H   0  0  0  0  0  0  0  0  0  0  0  0  # atno 6908 bound_to 6896
  152.2549  134.8095  160.0491 H   0  0  0  0  0  0  0  0  0  0  0  0  # atno 6909 bound_to 6896
  144.7316  139.9243  143.6421 H   0  0  0  0  0  0  0  0  0  0  0  0  # atno 7974 bound_to 7965
  155.2079  140.3321  155.4333 H   0  0  0  0  0  0  0  0  0  0  0  0  # atno 8008 bound_to 7997
  156.2382  140.1882  156.7111 H   0  0  0  0  0  0  0  0  0  0  0  0  # atno 8009 bound_to 7997
  154.6097  140.0611  156.9463 H   0  0  0  0  0  0  0  0  0  0  0  0  # atno 8010 bound_to 7997
  140.6163  143.2403  151.5589 H   0  0  0  0  0  0  0  0  0  0  0  0  # atno 10167 bound_to 10162
  156.0266  130.5468  150.7255 H   0  0  0  0  0  0  0  0  0  0  0  0  # atno 10718 bound_to 10713
  153.0518  135.5065  154.7885 H   0  0  0  0  0  0  0  0  0  0  0  0  # atno 10763 bound_to 10752
  154.6742  135.2958  154.9704 H   0  0  0  0  0  0  0  0  0  0  0  0  # atno 10764 bound_to 10752
  154.0512  135.6704  153.4853 H   0  0  0  0  0  0  0  0  0  0  0  0  # atno 10765 bound_to 10752
  140.2097  134.8277  157.3107 H   0  0  0  0  0  0  0  0  0  0  0  0  # atno 11005 bound_to 11000
  146.0906  139.3896  143.0408 LP  0  0  0  0  0  0  0  0  0  0  0  0  # atno 17320 bound_to 7965
  145.7716  140.9894  143.1146 LP  0  0  0  0  0  0  0  0  0  0  0  0  # atno 17321 bound_to 7965
  139.5401  144.2671  152.1333 LP  0  0  0  0  0  0  0  0  0  0  0  0  # atno 17342 bound_to 10162
  140.1881  144.4779  150.6493 LP  0  0  0  0  0  0  0  0  0  0  0  0  # atno 17343 bound_to 10162
  157.4860  131.0906  151.0482 LP  0  0  0  0  0  0  0  0  0  0  0  0  # atno 17370 bound_to 10713
  157.0902  130.5939  149.5438 LP  0  0  0  0  0  0  0  0  0  0  0  0  # atno 17371 bound_to 10713
  140.1964  134.4308  155.7686 LP  0  0  0  0  0  0  0  0  0  0  0  0  # atno 17394 bound_to 11000
  141.2226  133.7051  156.8112 LP  0  0  0  0  0  0  0  0  0  0  0  0  # atno 17395 bound_to 11000

$$$$
