AV-unprocessed.smi:597|AV-procd|sdf|3020|dock2
  -GOLD-   2262023533D 1   1.00000     0.00000
 Structure written by MMmdl.
 37 38  0  0  0  0  0  0  0  0  3 V2000
  150.6189  141.0596  157.6186 O   0  0  0  0  0  0  0  0  0  0  0  0
  150.4718  142.1641  157.0934 C   0  0  0  0  0  0  0  0  0  0  0  0
  151.2515  143.3876  157.5963 C   0  0  0  0  0  0  0  0  0  0  0  0
  151.8764  143.1815  158.9140 N   0  0  0  0  0  0  0  0  0  0  0  0
  152.8549  142.1720  159.0072 C   0  0  0  0  0  0  0  0  0  0  0  0
  153.4865  141.8916  160.1640 C   0  0  0  0  0  0  0  0  0  0  0  0
  154.4849  140.8479  160.2425 N   0  3  0  0  0  0  0  0  0  0  0  0
  154.6242  140.0935  159.2850 O   0  0  0  0  0  0  0  0  0  0  0  0
  155.1612  140.7461  161.2619 O   0  5  0  0  0  0  0  0  0  0  0  0
  153.1291  142.6713  161.3333 C   0  0  0  0  0  0  0  0  0  0  0  0
  152.1909  143.6352  161.2515 C   0  0  0  0  0  0  0  0  0  0  0  0
  151.5010  143.9351  159.9927 C   0  0  0  0  0  0  0  0  0  0  0  0
  150.6386  144.8101  159.9130 O   0  0  0  0  0  0  0  0  0  0  0  0
  149.6529  142.3794  156.0527 N   0  0  0  0  0  0  0  0  0  0  0  0
  148.8200  141.3673  155.4099 C   0  0  0  0  0  0  0  0  0  0  0  0
  149.6888  140.2283  154.8353 C   0  0  0  0  0  0  0  0  0  0  0  0
  148.8349  139.1922  154.0863 C   0  0  0  0  0  0  0  0  0  0  0  0
  147.9929  139.8535  152.9840 C   0  0  0  0  0  0  0  0  0  0  0  0
  147.1225  140.9840  153.5547 C   0  0  0  0  0  0  0  0  0  0  0  0
  147.9765  142.0226  154.2997 C   0  0  0  0  0  0  0  0  0  0  0  0
  152.0079  143.6384  156.8511 H   0  0  0  0  0  0  0  0  0  0  0  0
  150.5848  144.2516  157.6256 H   0  0  0  0  0  0  0  0  0  0  0  0
  153.0441  141.6453  158.0829 H   0  0  0  0  0  0  0  0  0  0  0  0
  153.6102  142.4880  162.2829 H   0  0  0  0  0  0  0  0  0  0  0  0
  151.9393  144.2032  162.1350 H   0  0  0  0  0  0  0  0  0  0  0  0
  149.5974  143.3163  155.6802 H   0  0  0  0  0  0  0  0  0  0  0  0
  148.1362  140.9499  156.1517 H   0  0  0  0  0  0  0  0  0  0  0  0
  150.4351  140.6406  154.1545 H   0  0  0  0  0  0  0  0  0  0  0  0
  150.2409  139.7332  155.6350 H   0  0  0  0  0  0  0  0  0  0  0  0
  149.4773  138.4247  153.6535 H   0  0  0  0  0  0  0  0  0  0  0  0
  148.1776  138.6830  154.7926 H   0  0  0  0  0  0  0  0  0  0  0  0
  148.6511  140.2531  152.2114 H   0  0  0  0  0  0  0  0  0  0  0  0
  147.3631  139.1077  152.4984 H   0  0  0  0  0  0  0  0  0  0  0  0
  146.5671  141.4677  152.7509 H   0  0  0  0  0  0  0  0  0  0  0  0
  146.3800  140.5659  154.2357 H   0  0  0  0  0  0  0  0  0  0  0  0
  147.3297  142.7912  154.7246 H   0  0  0  0  0  0  0  0  0  0  0  0
  148.6304  142.5281  153.5874 H   0  0  0  0  0  0  0  0  0  0  0  0
  1  2  2  0  0  0  0
  2  3  1  0  0  0  0
  2 14  1  0  0  0  0
  3  4  1  0  0  0  0
  3 21  1  0  0  0  0
  3 22  1  0  0  0  0
  4 12  1  0  0  0  0
  4  5  1  0  0  0  0
  5  6  2  0  0  0  0
  5 23  1  0  0  0  0
  6  7  1  0  0  0  0
  6 10  1  0  0  0  0
  7  8  2  0  0  0  0
  7  9  1  0  0  0  0
 10 11  2  0  0  0  0
 10 24  1  0  0  0  0
 11 12  1  0  0  0  0
 11 25  1  0  0  0  0
 12 13  2  0  0  0  0
 14 15  1  0  0  0  0
 14 26  1  0  0  0  0
 15 20  1  0  0  0  0
 15 16  1  0  0  0  0
 15 27  1  0  0  0  0
 16 17  1  0  0  0  0
 16 28  1  0  0  0  0
 16 29  1  0  0  0  0
 17 18  1  0  0  0  0
 17 30  1  0  0  0  0
 17 31  1  0  0  0  0
 18 19  1  0  0  0  0
 18 32  1  0  0  0  0
 18 33  1  0  0  0  0
 19 20  1  0  0  0  0
 19 34  1  0  0  0  0
 19 35  1  0  0  0  0
 20 36  1  0  0  0  0
 20 37  1  0  0  0  0
M  CHG  1   7   1
M  CHG  1   9  -1
M  END
> <s_m_source_file>
AV-unprocessed.smi

> <i_m_source_file_index>
597

> <i_lp_mmshare_version>
43012

> <i_f3d_flags>
0

> <s_epik_input>
W0NIMl0xW0NIMl1bQ0gyXVtDSDJdW0NIMl1bQ0hdMVtOSF1DKD1PKVtDSDJdbjJbY0hdYyhbTitdKD1PKVtPLV0pW2NIXVtjSF1jMj1P

> <s_epik_cmdline>
J2VwaWtfcHl0aG9uJywgJy1waCcsICc3LjAnLCAnLXRuJywgJzgnLCAnLW1hJywgJzIwMCcsICctbWV0YWxfYmluZGluZycsICctaW1hZScsICc8aW5maWxlLm1hZT4nLCAnLW9tYWUnLCAnPG91dGZpbGUubWFlPic=

> <r_lp_tautomer_probability>
1

> <r_epik_Ionization_Penalty>
1.91289e-08

> <r_epik_Ionization_Penalty_Charging>
8.20451e-11

> <r_epik_Ionization_Penalty_Neutral>
1.90469e-08

> <r_epik_State_Penalty>
-0

> <r_epik_Charging_Adjusted_Penalty>
8.20451e-11

> <i_epik_Tot_Q>
0

> <i_epik_Tot_abs_Q>
2

> <r_epik_Metal_State_Penalty>
-0

> <b_epik_Metal_Only>
0

> <s_lp_Force_Field>
OPLS_2005

> <r_lp_Energy>
19.9817

> <b_lp_Chiralities_Consistent>
1

> <s_lp_Variant>
AV-unprocessed.smi:597-1

> <Gold.Version>
5.8.1

> <Gold.Id.Protein>
6NUR|6NUR_protein|mol2

> <Gold.PLP.Fitness>
49.0009

> <Gold.PLP.PLP>
-43.4898

> <Gold.PLP.part.hbond>
-2.9476

> <Gold.PLP.part.metal>
0.0000

> <Gold.PLP.part.buried>
0.5140

> <Gold.PLP.part.nonpolar>
-41.4500

> <Gold.PLP.part.repulsive>
0.2964

> <Gold.PLP.ligand.clash>
0.0000

> <Gold.PLP.ligand.torsion>
0.2295

> <Gold.PLP.Chemscore.Hbond>
1.9840

> <Gold.PLP.Chemscore.CHOScore>
0.0000

> <Gold.PLP.Chemscore.Metal>
0.0000

> <Gold.Chemscore.Hbonds>
donor molecule, donor type, donor heavy atom, donor atom, acceptor molecule, acceptor atom, score
      L1  H    14    26       P1  8028  0.99
      P1  H  7997  8008       L1     8  0.99

> <Gold.PLP.Chemscore.Internal.Correction>
0.0181

> <Gold.Rescore>
     Score         DG    S(hbond)    S(metal)    S(lipo)     H(rot)  DE(clash)    DE(int)     intcor
     15.86     -19.17       1.91        0.00      96.76       1.56       1.77       1.54       ----

> <Gold.Chemscore.Fitness>
15.8595

> <Gold.Chemscore.DG>
-19.1687

> <Gold.Chemscore.ZeroCoef>
-5.4800

> <Gold.Chemscore.Hbond>
1.9079

> <Gold.Chemscore.Metal>
0.0000

> <Gold.Chemscore.Lipo>
96.7647

> <Gold.Chemscore.Internal_Hbond>
0.0000

> <Gold.Chemscore.DEClash>
1.7707

> <Gold.Chemscore.DEInternal>
1.5384

> <Gold.Chemscore.Rot>
1.5646

> <Gold.Chemscore.Internal.Correction>
   9.000000E+99

> <Gold.Chemscore.Hbonds>
donor molecule, donor type, donor heavy atom, donor atom, acceptor molecule, acceptor atom, score
      L1  H    14    26       P1  8028  0.91
      P1  H  7997  8008       L1     8  0.91

> <Gold.Chemscore.Hbond.Weighted>
-6.3725

> <Gold.Chemscore.Metal.Weighted>
-0.0000

> <Gold.Chemscore.Lipo.Weighted>
-11.3215

> <Gold.Chemscore.Internal_Hbond.Weighted>
0.0000

> <Gold.Chemscore.DEClash.Weighted>
1.7707

> <Gold.Chemscore.DEInternal.Weighted>
1.5384

> <Gold.Chemscore.Rot.Weighted>
4.0053

> <Gold.Chemscore.Internal.Correction.Weighted>
   9.000000E+99

> <Gold.Protein.RotatedTorsions>
[ 6907 6896 6895 6894 ] final   43.63 input  -60.11 | X-H torsion
[ 7974 7965 7964 7962 ] final  -63.42 input  175.53 | X-H torsion
[ 8008 7997 7996 7995 ] final -121.65 input   59.86 | X-H torsion
[ 10167 10162 10161 10158 ] final   51.93 input  -65.29 | X-H torsion
[ 10718 10713 10712 10709 ] final   -2.24 input   66.30 | X-H torsion
[ 10763 10752 10751 10750 ] final -177.06 input  -60.55 | X-H torsion
[ 11005 11000 10999 10996 ] final   76.97 input  -57.11 | X-H torsion

> <Gold.Protein.ActiveResidues>
 VAL166  LYS551  ARG553  GLY616  TRP617  ASP618  TYR619  PRO620  LYS621  CYS622 
 ASP623  PHE694  ASN695  SER759  ASP760  ASP761  ALA762  ILE779  LEU786  VAL792 
 PHE793  MET794  SER795  GLU796  ALA797  LYS798  CYS799  TRP800  GLU811  SER814 

> <Gold.Protein.RotatedAtoms>
  152.2227  134.8397  160.0483 H   0  0  0  0  0  0  0  0  0  0  0  0  # atno 6907 bound_to 6896
  151.9175  133.3572  159.3893 H   0  0  0  0  0  0  0  0  0  0  0  0  # atno 6908 bound_to 6896
  150.7004  134.4594  159.5417 H   0  0  0  0  0  0  0  0  0  0  0  0  # atno 6909 bound_to 6896
  145.7793  140.8771  143.0339 H   0  0  0  0  0  0  0  0  0  0  0  0  # atno 7974 bound_to 7965
  155.1515  140.0404  157.2822 H   0  0  0  0  0  0  0  0  0  0  0  0  # atno 8008 bound_to 7997
  154.6401  140.2545  155.7306 H   0  0  0  0  0  0  0  0  0  0  0  0  # atno 8009 bound_to 7997
  156.2528  140.2857  156.0790 H   0  0  0  0  0  0  0  0  0  0  0  0  # atno 8010 bound_to 7997
  140.2567  144.3419  150.6331 H   0  0  0  0  0  0  0  0  0  0  0  0  # atno 10167 bound_to 10162
  156.7937  130.5370  149.5732 H   0  0  0  0  0  0  0  0  0  0  0  0  # atno 10718 bound_to 10713
  154.5647  135.2823  155.0885 H   0  0  0  0  0  0  0  0  0  0  0  0  # atno 10763 bound_to 10752
  154.2280  135.6379  153.5170 H   0  0  0  0  0  0  0  0  0  0  0  0  # atno 10764 bound_to 10752
  153.0039  135.5530  154.6252 H   0  0  0  0  0  0  0  0  0  0  0  0  # atno 10765 bound_to 10752
  139.9275  134.7645  156.1463 H   0  0  0  0  0  0  0  0  0  0  0  0  # atno 11005 bound_to 11000
  144.6799  139.9966  143.7484 LP  0  0  0  0  0  0  0  0  0  0  0  0  # atno 17320 bound_to 7965
  146.0091  139.3154  143.0881 LP  0  0  0  0  0  0  0  0  0  0  0  0  # atno 17321 bound_to 7965
  140.5998  143.2167  151.7094 LP  0  0  0  0  0  0  0  0  0  0  0  0  # atno 17342 bound_to 10162
  139.5029  144.3810  152.0376 LP  0  0  0  0  0  0  0  0  0  0  0  0  # atno 17343 bound_to 10162
  156.1143  130.6063  151.0097 LP  0  0  0  0  0  0  0  0  0  0  0  0  # atno 17370 bound_to 10713
  157.6588  131.0884  150.7886 LP  0  0  0  0  0  0  0  0  0  0  0  0  # atno 17371 bound_to 10713
  141.0842  133.6741  156.2400 LP  0  0  0  0  0  0  0  0  0  0  0  0  # atno 17394 bound_to 11000
  140.6296  134.5278  157.5558 LP  0  0  0  0  0  0  0  0  0  0  0  0  # atno 17395 bound_to 11000

$$$$
