AV-unprocessed.smi:1487|AV-procd|sdf|6021|dock8
  -GOLD-   22720 6123D 1   1.00000     0.00000
 Structure written by MMmdl.
 49 51  0  0  0  0  0  0  0  0  3 V2000
  151.5625  144.7154  160.5040 C   0  0  0  0  0  0  0  0  0  0  0  0
  151.5586  143.5735  159.5019 C   0  0  0  0  0  0  0  0  0  0  0  0
  150.8672  143.7493  158.2824 C   0  0  0  0  0  0  0  0  0  0  0  0
  150.8804  142.6869  157.3865 C   0  0  0  0  0  0  0  0  0  0  0  0
  150.3022  142.5514  156.1230 N   0  3  0  0  0  0  0  0  0  0  0  0
  150.5865  141.3176  155.6227 C   0  0  0  0  0  0  0  0  0  0  0  0
  151.3432  140.6635  156.5461 N   0  0  0  0  0  0  0  0  0  0  0  0
  151.8972  139.3025  156.5046 C   0  0  0  0  0  0  0  0  0  0  0  0
  150.8632  138.2372  156.0865 C   0  0  2  0  0  0  0  0  0  0  0  0
  151.0608  137.1174  156.9259 O   0  0  0  0  0  0  0  0  0  0  0  0
  150.9939  137.7961  154.6109 C   0  0  0  0  0  0  0  0  0  0  0  0
  150.0480  136.7138  154.2336 N   0  3  2  0  0  0  0  0  0  0  0  0
  148.6904  136.9409  154.7952 C   0  0  0  0  0  0  0  0  0  0  0  0
  147.6896  135.8943  154.2777 C   0  0  0  0  0  0  0  0  0  0  0  0
  148.1727  134.4724  154.5891 C   0  0  0  0  0  0  0  0  0  0  0  0
  149.5869  134.2685  154.0262 C   0  0  2  0  0  0  0  0  0  0  0  0
  150.0584  132.9915  154.3995 O   0  0  0  0  0  0  0  0  0  0  0  0
  150.5493  135.3494  154.5526 C   0  0  0  0  0  0  0  0  0  0  0  0
  151.5483  141.4786  157.6670 C   0  0  0  0  0  0  0  0  0  0  0  0
  152.2347  141.2897  158.8652 C   0  0  0  0  0  0  0  0  0  0  0  0
  152.2338  142.3591  159.7892 C   0  0  0  0  0  0  0  0  0  0  0  0
  152.9744  142.1812  161.1038 C   0  0  0  0  0  0  0  0  0  0  0  0
  151.0142  145.5790  160.1267 H   0  0  0  0  0  0  0  0  0  0  0  0
  152.5824  145.0363  160.7169 H   0  0  0  0  0  0  0  0  0  0  0  0
  151.0940  144.4059  161.4386 H   0  0  0  0  0  0  0  0  0  0  0  0
  150.3494  144.6707  158.0577 H   0  0  0  0  0  0  0  0  0  0  0  0
  150.2647  140.9268  154.6677 H   0  0  0  0  0  0  0  0  0  0  0  0
  152.7687  139.2852  155.8501 H   0  0  0  0  0  0  0  0  0  0  0  0
  152.2699  139.0834  157.5063 H   0  0  0  0  0  0  0  0  0  0  0  0
  149.8683  138.6352  156.2831 H   0  0  0  0  0  0  0  0  0  0  0  0
  150.3379  136.5185  156.8188 H   0  0  0  0  0  0  0  0  0  0  0  0
  150.8418  138.6398  153.9368 H   0  0  0  0  0  0  0  0  0  0  0  0
  152.0181  137.4569  154.4479 H   0  0  0  0  0  0  0  0  0  0  0  0
  148.7367  136.9116  155.8851 H   0  0  0  0  0  0  0  0  0  0  0  0
  148.3372  137.9356  154.5196 H   0  0  0  0  0  0  0  0  0  0  0  0
  146.7098  136.0611  154.7262 H   0  0  0  0  0  0  0  0  0  0  0  0
  147.5610  136.0110  153.2008 H   0  0  0  0  0  0  0  0  0  0  0  0
  148.1720  134.3146  155.6687 H   0  0  0  0  0  0  0  0  0  0  0  0
  147.4840  133.7409  154.1647 H   0  0  0  0  0  0  0  0  0  0  0  0
  149.5529  134.3098  152.9365 H   0  0  0  0  0  0  0  0  0  0  0  0
  150.6418  133.0841  155.1374 H   0  0  0  0  0  0  0  0  0  0  0  0
  151.5317  135.1924  154.1094 H   0  0  0  0  0  0  0  0  0  0  0  0
  150.6714  135.2538  155.6331 H   0  0  0  0  0  0  0  0  0  0  0  0
  152.7500  140.3678  159.0897 H   0  0  0  0  0  0  0  0  0  0  0  0
  153.4279  141.1924  161.1773 H   0  0  0  0  0  0  0  0  0  0  0  0
  152.2921  142.2975  161.9462 H   0  0  0  0  0  0  0  0  0  0  0  0
  153.7701  142.9206  161.1976 H   0  0  0  0  0  0  0  0  0  0  0  0
  149.9441  136.7634  153.2302 H   0  0  0  0  0  0  0  0  0  0  0  0
  149.7476  143.2463  155.6390 H   0  0  0  0  0  0  0  0  0  0  0  0
  1  2  1  0  0  0  0
  1 23  1  0  0  0  0
  1 24  1  0  0  0  0
  1 25  1  0  0  0  0
  2 21  1  0  0  0  0
  2  3  2  0  0  0  0
  3  4  1  0  0  0  0
  3 26  1  0  0  0  0
  4 19  2  0  0  0  0
  4  5  1  0  0  0  0
  5  6  2  0  0  0  0
  5 49  1  0  0  0  0
  6  7  1  0  0  0  0
  6 27  1  0  0  0  0
  7  8  1  0  0  0  0
  7 19  1  0  0  0  0
  8  9  1  0  0  0  0
  8 28  1  0  0  0  0
  8 29  1  0  0  0  0
  9 10  1  0  0  0  0
  9 11  1  0  0  0  0
  9 30  1  0  0  0  0
 10 31  1  0  0  0  0
 11 12  1  0  0  0  0
 11 32  1  0  0  0  0
 11 33  1  0  0  0  0
 12 18  1  0  0  0  0
 12 13  1  0  0  0  0
 12 48  1  0  0  0  0
 13 14  1  0  0  0  0
 13 34  1  0  0  0  0
 13 35  1  0  0  0  0
 14 15  1  0  0  0  0
 14 36  1  0  0  0  0
 14 37  1  0  0  0  0
 15 16  1  0  0  0  0
 15 38  1  0  0  0  0
 15 39  1  0  0  0  0
 16 17  1  0  0  0  0
 16 18  1  0  0  0  0
 16 40  1  0  0  0  0
 17 41  1  0  0  0  0
 18 42  1  0  0  0  0
 18 43  1  0  0  0  0
 19 20  1  0  0  0  0
 20 21  2  0  0  0  0
 20 44  1  0  0  0  0
 21 22  1  0  0  0  0
 22 45  1  0  0  0  0
 22 46  1  0  0  0  0
 22 47  1  0  0  0  0
M  CHG  1   5   1
M  CHG  1  12   1
M  END
> <s_m_source_file>
AV-unprocessed.smi

> <i_m_source_file_index>
1487

> <i_lp_mmshare_version>
43012

> <i_f3d_flags>
0

> <s_epik_input>
W0NIM11jKFtjSF0xKWMoW0NIM10pW2NIXWMoYzEyKW4oW2NIXW4yKVtDSDJdW0NASF0oW09IXSlbQ0gyXU4zW0NIMl1bQ0gyXVtDSDJdW0NAQEhdKFtPSF0pW0NIMl0z

> <s_epik_cmdline>
J2VwaWtfcHl0aG9uJywgJy1waCcsICc3LjAnLCAnLXRuJywgJzgnLCAnLW1hJywgJzIwMCcsICctbWV0YWxfYmluZGluZycsICctaW1hZScsICc8aW5maWxlLm1hZT4nLCAnLW9tYWUnLCAnPG91dGZpbGUubWFlPic=

> <r_epik_Ionization_Penalty>
1.1857

> <r_epik_Ionization_Penalty_Charging>
1.1857

> <r_epik_Ionization_Penalty_Neutral>
1.75578e-06

> <r_epik_State_Penalty>
1.26953

> <r_epik_Charging_Adjusted_Penalty>
2.45524

> <i_epik_Tot_Q>
2

> <i_epik_Tot_abs_Q>
2

> <r_epik_Metal_State_Penalty>
5.28243

> <b_epik_Metal_Only>
0

> <s_lp_Force_Field>
OPLS_2005

> <r_lp_Energy>
34.3912

> <b_lp_Chiralities_Consistent>
1

> <s_lp_Variant>
AV-unprocessed.smi:1487-15

> <Gold.Version>
5.8.1

> <Gold.Id.Protein>
6NUR|6NUR_protein|mol2

> <Gold.PLP.Fitness>
52.8927

> <Gold.PLP.PLP>
-42.7238

> <Gold.PLP.part.hbond>
-2.0000

> <Gold.PLP.part.metal>
0.0000

> <Gold.PLP.part.buried>
-5.2126

> <Gold.PLP.part.nonpolar>
-36.0196

> <Gold.PLP.part.repulsive>
0.1500

> <Gold.PLP.ligand.clash>
0.0000

> <Gold.PLP.ligand.torsion>
0.9290

> <Gold.PLP.Chemscore.Hbond>
4.0000

> <Gold.PLP.Chemscore.CHOScore>
0.0000

> <Gold.PLP.Chemscore.Metal>
0.0000

> <Gold.Chemscore.Hbonds>
donor molecule, donor type, donor heavy atom, donor atom, acceptor molecule, acceptor atom, score
      L1  H     5    49       P1  8028  2.00
      L1  H    12    48       P1  7948  1.46

> <Gold.PLP.Chemscore.Internal.Correction>
0.0269

> <Gold.Rescore>
     Score         DG    S(hbond)    S(metal)    S(lipo)     H(rot)  DE(clash)    DE(int)     intcor
     17.12     -18.08       1.94        0.00     112.15       2.74       0.05       0.92       ----

> <Gold.Chemscore.Fitness>
17.1160

> <Gold.Chemscore.DG>
-18.0828

> <Gold.Chemscore.ZeroCoef>
-5.4800

> <Gold.Chemscore.Hbond>
1.9436

> <Gold.Chemscore.Metal>
0.0000

> <Gold.Chemscore.Lipo>
112.1497

> <Gold.Chemscore.Internal_Hbond>
0.0000

> <Gold.Chemscore.DEClash>
0.0503

> <Gold.Chemscore.DEInternal>
0.9165

> <Gold.Chemscore.Rot>
2.7384

> <Gold.Chemscore.Internal.Correction>
   9.000000E+99

> <Gold.Chemscore.Hbonds>
donor molecule, donor type, donor heavy atom, donor atom, acceptor molecule, acceptor atom, score
      L1  H     5    49       P1  8028  0.94
      L1  H    12    48       P1  7948  0.11

> <Gold.Chemscore.Hbond.Weighted>
-6.4916

> <Gold.Chemscore.Metal.Weighted>
-0.0000

> <Gold.Chemscore.Lipo.Weighted>
-13.1215

> <Gold.Chemscore.Internal_Hbond.Weighted>
0.0000

> <Gold.Chemscore.DEClash.Weighted>
0.0503

> <Gold.Chemscore.DEInternal.Weighted>
0.9165

> <Gold.Chemscore.Rot.Weighted>
7.0103

> <Gold.Chemscore.Internal.Correction.Weighted>
   9.000000E+99

> <Gold.Protein.RotatedTorsions>
[ 6907 6896 6895 6894 ] final  146.48 input  -60.11 | X-H torsion
[ 7974 7965 7964 7962 ] final  175.50 input  175.53 | X-H torsion
[ 8008 7997 7996 7995 ] final  -83.72 input   59.86 | X-H torsion
[ 10167 10162 10161 10158 ] final -125.65 input  -65.29 | X-H torsion
[ 10718 10713 10712 10709 ] final  -65.27 input   66.30 | X-H torsion
[ 10763 10752 10751 10750 ] final  -21.06 input  -60.55 | X-H torsion
[ 11005 11000 10999 10996 ] final   78.12 input  -57.11 | X-H torsion

> <Gold.Protein.ActiveResidues>
 VAL166  LYS551  ARG553  GLY616  TRP617  ASP618  TYR619  PRO620  LYS621  CYS622 
 ASP623  PHE694  ASN695  SER759  ASP760  ASP761  ALA762  ILE779  LEU786  VAL792 
 PHE793  MET794  SER795  GLU796  ALA797  LYS798  CYS799  TRP800  GLU811  SER814 

> <Gold.Protein.RotatedAtoms>
  152.1674  133.4621  159.4891 H   0  0  0  0  0  0  0  0  0  0  0  0  # atno 6907 bound_to 6896
  150.6915  134.1996  159.4326 H   0  0  0  0  0  0  0  0  0  0  0  0  # atno 6908 bound_to 6896
  151.9901  134.9983  160.0612 H   0  0  0  0  0  0  0  0  0  0  0  0  # atno 6909 bound_to 6896
  144.7200  139.9957  143.6440 H   0  0  0  0  0  0  0  0  0  0  0  0  # atno 7974 bound_to 7965
  154.6221  140.0615  156.9628 H   0  0  0  0  0  0  0  0  0  0  0  0  # atno 8008 bound_to 7997
  155.1800  140.3298  155.4358 H   0  0  0  0  0  0  0  0  0  0  0  0  # atno 8009 bound_to 7997
  156.2437  140.1899  156.6897 H   0  0  0  0  0  0  0  0  0  0  0  0  # atno 8010 bound_to 7997
  139.9798  143.5755  152.2382 H   0  0  0  0  0  0  0  0  0  0  0  0  # atno 10167 bound_to 10162
  156.0679  130.4245  150.1539 H   0  0  0  0  0  0  0  0  0  0  0  0  # atno 10718 bound_to 10713
  153.6303  135.6989  153.5278 H   0  0  0  0  0  0  0  0  0  0  0  0  # atno 10763 bound_to 10752
  153.2865  135.4170  155.1127 H   0  0  0  0  0  0  0  0  0  0  0  0  # atno 10764 bound_to 10752
  154.8523  135.3615  154.5845 H   0  0  0  0  0  0  0  0  0  0  0  0  # atno 10765 bound_to 10752
  139.9226  134.7738  156.1609 H   0  0  0  0  0  0  0  0  0  0  0  0  # atno 11005 bound_to 11000
  146.0376  139.3392  143.0717 LP  0  0  0  0  0  0  0  0  0  0  0  0  # atno 17320 bound_to 7965
  145.8375  140.9598  143.0817 LP  0  0  0  0  0  0  0  0  0  0  0  0  # atno 17321 bound_to 7965
  139.6418  144.7655  151.2323 LP  0  0  0  0  0  0  0  0  0  0  0  0  # atno 17342 bound_to 10162
  140.7493  143.6304  150.8428 LP  0  0  0  0  0  0  0  0  0  0  0  0  # atno 17343 bound_to 10162
  156.9596  130.9800  151.3482 LP  0  0  0  0  0  0  0  0  0  0  0  0  # atno 17370 bound_to 10713
  157.5733  130.8325  149.8421 LP  0  0  0  0  0  0  0  0  0  0  0  0  # atno 17371 bound_to 10713
  141.0758  133.6776  156.2234 LP  0  0  0  0  0  0  0  0  0  0  0  0  # atno 17394 bound_to 11000
  140.6430  134.5146  157.5571 LP  0  0  0  0  0  0  0  0  0  0  0  0  # atno 17395 bound_to 11000

$$$$
