AV-unprocessed.smi:38|AV-procd|sdf|349|dock5
  -GOLD-   2262016183D 1   1.00000     0.00000
 Structure written by MMmdl.
 27 28  0  0  0  0  0  0  0  0  2 V2000
  152.9942  140.9881  158.7921 O   0  0  0  0  0  0  0  0  0  0  0  0
  152.2146  140.9900  157.8407 C   0  0  0  0  0  0  0  0  0  0  0  0
  152.3220  140.1192  156.7959 N   0  5  0  0  0  0  0  0  0  0  0  0
  151.4563  140.1244  155.7400 C   0  0  0  0  0  0  0  0  0  0  0  0
  151.5378  139.3339  154.7993 O   0  0  0  0  0  0  0  0  0  0  0  0
  150.4041  141.0801  155.7178 N   0  0  0  0  0  0  0  0  0  0  0  0
  149.4401  141.0814  154.5511 C   0  0  1  0  0  0  0  0  0  0  0  0
  148.7822  139.7001  154.3969 C   0  0  0  0  0  0  0  0  0  0  0  0
  147.3309  140.0559  154.1397 C   0  0  1  0  0  0  0  0  0  0  0  0
  146.4677  139.0249  154.5739 O   0  0  0  0  0  0  0  0  0  0  0  0
  147.1866  141.3303  154.9737 C   0  0  2  0  0  0  0  0  0  0  0  0
  145.9943  142.2505  154.6553 C   0  0  0  0  0  0  0  0  0  0  0  0
  144.7565  141.6543  154.9843 O   0  0  0  0  0  0  0  0  0  0  0  0
  148.4207  142.0125  154.7857 O   0  0  0  0  0  0  0  0  0  0  0  0
  150.2649  141.9700  156.7703 C   0  0  0  0  0  0  0  0  0  0  0  0
  151.1200  141.9582  157.8133 C   0  0  0  0  0  0  0  0  0  0  0  0
  150.9590  142.8339  158.8204 F   0  0  0  0  0  0  0  0  0  0  0  0
  150.0104  141.4037  153.6785 H   0  0  0  0  0  0  0  0  0  0  0  0
  147.1852  140.2505  153.0768 H   0  0  0  0  0  0  0  0  0  0  0  0
  147.1405  141.0603  156.0304 H   0  0  0  0  0  0  0  0  0  0  0  0
  149.2442  139.1300  153.5904 H   0  0  0  0  0  0  0  0  0  0  0  0
  148.8852  139.1405  155.3290 H   0  0  0  0  0  0  0  0  0  0  0  0
  145.6853  139.4194  154.9278 H   0  0  0  0  0  0  0  0  0  0  0  0
  146.0809  143.1726  155.2303 H   0  0  0  0  0  0  0  0  0  0  0  0
  145.9979  142.5306  153.6017 H   0  0  0  0  0  0  0  0  0  0  0  0
  144.2898  141.4689  154.1837 H   0  0  0  0  0  0  0  0  0  0  0  0
  149.4625  142.6914  156.7729 H   0  0  0  0  0  0  0  0  0  0  0  0
  1  2  2  0  0  0  0
  2 16  1  0  0  0  0
  2  3  1  0  0  0  0
  3  4  1  0  0  0  0
  4  5  2  0  0  0  0
  4  6  1  0  0  0  0
  6  7  1  0  0  0  0
  6 15  1  0  0  0  0
  7 18  1  0  0  0  0
  7 14  1  0  0  0  0
  7  8  1  0  0  0  0
  8  9  1  0  0  0  0
  8 21  1  0  0  0  0
  8 22  1  0  0  0  0
  9 19  1  0  0  0  0
  9 10  1  0  0  0  0
  9 11  1  0  0  0  0
 10 23  1  0  0  0  0
 11 20  1  0  0  0  0
 11 12  1  0  0  0  0
 11 14  1  0  0  0  0
 12 13  1  0  0  0  0
 12 24  1  0  0  0  0
 12 25  1  0  0  0  0
 13 26  1  0  0  0  0
 15 16  2  0  0  0  0
 15 27  1  0  0  0  0
 16 17  1  0  0  0  0
M  CHG  1   3  -1
M  END
> <s_m_source_file>
AV-unprocessed.smi

> <i_m_source_file_index>
38

> <i_lp_mmshare_version>
43012

> <i_f3d_flags>
0

> <s_epik_input>
Tz1jMVtuSF1jKD1PKW4oW2NIXWMxRilbQ0BIXTJbQ0gyXVtDQEhdKFtPSF0pW0NASF0oTzIpW0NIMl1bT0hd

> <s_epik_cmdline>
J2VwaWtfcHl0aG9uJywgJy1waCcsICc3LjAnLCAnLXRuJywgJzgnLCAnLW1hJywgJzIwMCcsICctbWV0YWxfYmluZGluZycsICctaW1hZScsICc8aW5maWxlLm1hZT4nLCAnLW9tYWUnLCAnPG91dGZpbGUubWFlPic=

> <r_epik_Ionization_Penalty>
1.68146

> <r_epik_Ionization_Penalty_Charging>
3.4211e-08

> <r_epik_Ionization_Penalty_Neutral>
1.68146

> <r_epik_State_Penalty>
1.78593

> <r_epik_Charging_Adjusted_Penalty>
1.78593

> <i_epik_Tot_Q>
-1

> <i_epik_Tot_abs_Q>
1

> <r_epik_Metal_State_Penalty>
0.0113696

> <b_epik_Metal_Only>
0

> <s_epik_Chemistry_Notes>
This compound contains an acetal/aminal-like group ( X-CH(R)-Y where X, Y are N, S, or O) that may be acid/base labile, releasing an aldehyde.

> <s_lp_Force_Field>
OPLS_2005

> <r_lp_Energy>
38.28

> <b_lp_Chiralities_Consistent>
1

> <s_lp_Variant>
AV-unprocessed.smi:38-15

> <Gold.Version>
5.8.1

> <Gold.Id.Protein>
6NUR|6NUR_protein|mol2

> <Gold.PLP.Fitness>
40.2682

> <Gold.PLP.PLP>
-26.1282

> <Gold.PLP.part.hbond>
-3.0070

> <Gold.PLP.part.metal>
0.0000

> <Gold.PLP.part.buried>
-2.6713

> <Gold.PLP.part.nonpolar>
-22.0930

> <Gold.PLP.part.repulsive>
2.1199

> <Gold.PLP.ligand.clash>
0.0000

> <Gold.PLP.ligand.torsion>
0.0573

> <Gold.PLP.Chemscore.Hbond>
3.7500

> <Gold.PLP.Chemscore.CHOScore>
1.0000

> <Gold.PLP.Chemscore.Metal>
0.0000

> <Gold.Chemscore.Hbonds>
donor molecule, donor type, donor heavy atom, donor atom, acceptor molecule, acceptor atom, score
      L1  H    13    26       P1 10175  0.99
      P1  H  7989  7998       L1     5  0.55
      P1  H  7997  8010       L1     3  1.95
      L1  C    15    27       P1  8028  1.00

> <Gold.PLP.Chemscore.Internal.Correction>
0.0045

> <Gold.Rescore>
     Score         DG    S(hbond)    S(metal)    S(lipo)     H(rot)  DE(clash)    DE(int)     intcor
      7.83     -10.01       2.44        0.00      32.07       2.88       0.76       1.42       ----

> <Gold.Chemscore.Fitness>
7.8319

> <Gold.Chemscore.DG>
-10.0141

> <Gold.Chemscore.ZeroCoef>
-5.4800

> <Gold.Chemscore.Hbond>
2.4426

> <Gold.Chemscore.Metal>
0.0000

> <Gold.Chemscore.Lipo>
32.0717

> <Gold.Chemscore.Internal_Hbond>
0.0000

> <Gold.Chemscore.DEClash>
0.7612

> <Gold.Chemscore.DEInternal>
1.4210

> <Gold.Chemscore.Rot>
2.8815

> <Gold.Chemscore.Internal.Correction>
   9.000000E+99

> <Gold.Chemscore.Hbonds>
donor molecule, donor type, donor heavy atom, donor atom, acceptor molecule, acceptor atom, score
      L1  H    13    26       P1 10175  0.28
      P1  H  7989  7998       L1     5  0.03
      P1  H  7997  8010       L1     3  0.26

> <Gold.Chemscore.Hbond.Weighted>
-8.1583

> <Gold.Chemscore.Metal.Weighted>
-0.0000

> <Gold.Chemscore.Lipo.Weighted>
-3.7524

> <Gold.Chemscore.Internal_Hbond.Weighted>
0.0000

> <Gold.Chemscore.DEClash.Weighted>
0.7612

> <Gold.Chemscore.DEInternal.Weighted>
1.4210

> <Gold.Chemscore.Rot.Weighted>
7.3765

> <Gold.Chemscore.Internal.Correction.Weighted>
   9.000000E+99

> <Gold.Protein.RotatedTorsions>
[ 6907 6896 6895 6894 ] final   96.74 input  -60.11 | X-H torsion
[ 7974 7965 7964 7962 ] final  -95.13 input  175.53 | X-H torsion
[ 8008 7997 7996 7995 ] final   69.72 input   59.86 | X-H torsion
[ 10167 10162 10161 10158 ] final  -31.02 input  -65.29 | X-H torsion
[ 10718 10713 10712 10709 ] final    1.33 input   66.30 | X-H torsion
[ 10763 10752 10751 10750 ] final  -83.90 input  -60.55 | X-H torsion
[ 11005 11000 10999 10996 ] final   95.12 input  -57.11 | X-H torsion

> <Gold.Protein.ActiveResidues>
 VAL166  LYS551  ARG553  GLY616  TRP617  ASP618  TYR619  PRO620  LYS621  CYS622 
 ASP623  PHE694  ASN695  SER759  ASP760  ASP761  ALA762  ILE779  LEU786  VAL792 
 PHE793  MET794  SER795  GLU796  ALA797  LYS798  CYS799  TRP800  GLU811  SER814 

> <Gold.Protein.RotatedAtoms>
  152.5432  134.0841  159.8247 H   0  0  0  0  0  0  0  0  0  0  0  0  # atno 6907 bound_to 6896
  151.0938  133.5288  159.2621 H   0  0  0  0  0  0  0  0  0  0  0  0  # atno 6908 bound_to 6896
  151.2069  135.0474  159.8949 H   0  0  0  0  0  0  0  0  0  0  0  0  # atno 6909 bound_to 6896
  145.3641  140.9496  143.2484 H   0  0  0  0  0  0  0  0  0  0  0  0  # atno 7974 bound_to 7965
  155.7278  140.3492  155.5045 H   0  0  0  0  0  0  0  0  0  0  0  0  # atno 8008 bound_to 7997
  155.9210  140.1067  157.1228 H   0  0  0  0  0  0  0  0  0  0  0  0  # atno 8009 bound_to 7997
  154.4070  140.1249  156.4666 H   0  0  0  0  0  0  0  0  0  0  0  0  # atno 8010 bound_to 7997
  140.7242  143.3803  151.1612 H   0  0  0  0  0  0  0  0  0  0  0  0  # atno 10167 bound_to 10162
  156.8467  130.5539  149.5673 H   0  0  0  0  0  0  0  0  0  0  0  0  # atno 10718 bound_to 10713
  154.5932  135.5539  153.7299 H   0  0  0  0  0  0  0  0  0  0  0  0  # atno 10763 bound_to 10752
  153.0125  135.6348  154.1819 H   0  0  0  0  0  0  0  0  0  0  0  0  # atno 10764 bound_to 10752
  154.1760  135.2889  155.3046 H   0  0  0  0  0  0  0  0  0  0  0  0  # atno 10765 bound_to 10752
  139.8792  134.8882  156.3964 H   0  0  0  0  0  0  0  0  0  0  0  0  # atno 11005 bound_to 11000
  144.8624  139.5157  143.6806 LP  0  0  0  0  0  0  0  0  0  0  0  0  # atno 17320 bound_to 7965
  146.2914  139.7151  142.9158 LP  0  0  0  0  0  0  0  0  0  0  0  0  # atno 17321 bound_to 7965
  139.7391  143.8952  152.3044 LP  0  0  0  0  0  0  0  0  0  0  0  0  # atno 17342 bound_to 10162
  139.8767  144.7039  150.8924 LP  0  0  0  0  0  0  0  0  0  0  0  0  # atno 17343 bound_to 10162
  156.0851  130.5851  150.9633 LP  0  0  0  0  0  0  0  0  0  0  0  0  # atno 17370 bound_to 10713
  157.6326  131.0919  150.8411 LP  0  0  0  0  0  0  0  0  0  0  0  0  # atno 17371 bound_to 10713
  140.9297  133.7587  156.0009 LP  0  0  0  0  0  0  0  0  0  0  0  0  # atno 17394 bound_to 11000
  140.8344  134.3140  157.5337 LP  0  0  0  0  0  0  0  0  0  0  0  0  # atno 17395 bound_to 11000

$$$$
