AV-unprocessed.smi:1412|AV-procd|sdf|5741|dock3
  -GOLD-   22720 5373D 1   1.00000     0.00000
 Structure written by MMmdl.
 41 42  0  0  0  0  0  0  0  0  1 V2000
  146.3760  138.9248  156.7365 C   0  0  0  0  0  0  0  0  0  0  0  0
  146.3422  140.0807  155.7209 C   0  0  0  0  0  0  0  0  0  0  0  0
  147.2407  139.8884  154.4560 C   0  0  2  0  0  0  0  0  0  0  0  0
  147.1152  141.1879  153.6175 C   0  0  0  0  0  0  0  0  0  0  0  0
  146.6591  138.7057  153.6095 C   0  0  0  0  0  0  0  0  0  0  0  0
  145.2020  138.7117  153.4655 N   0  0  0  0  0  0  0  0  0  0  0  0
  144.3791  137.6895  153.7438 C   0  0  0  0  0  0  0  0  0  0  0  0
  144.7663  136.5983  154.1628 O   0  0  0  0  0  0  0  0  0  0  0  0
  143.0984  138.0176  153.4982 N   0  0  0  0  0  0  0  0  0  0  0  0
  141.9384  137.2123  153.6510 C   0  0  0  0  0  0  0  0  0  0  0  0
  141.9745  135.8880  153.8674 N   0  0  0  0  0  0  0  0  0  0  0  0
  140.7010  135.3444  153.9770 N   0  0  0  0  0  0  0  0  0  0  0  0
  139.7558  136.2787  153.8390 C   0  0  0  0  0  0  0  0  0  0  0  0
  140.3292  137.9146  153.5632 S   0  0  0  0  0  0  0  0  0  0  0  0
  148.6574  139.6052  154.8393 N   0  0  0  0  0  0  0  0  0  0  0  0
  149.3665  140.7165  155.4904 C   0  0  0  0  0  0  0  0  0  0  0  0
  150.7712  140.3128  155.9689 C   0  0  0  0  0  0  0  0  0  0  0  0
  151.5281  139.8230  154.8700 O   0  0  0  0  0  0  0  0  0  0  0  0
  150.9119  138.7016  154.2506 C   0  0  0  0  0  0  0  0  0  0  0  0
  149.5057  139.0849  153.7581 C   0  0  0  0  0  0  0  0  0  0  0  0
  145.7517  139.1564  157.5993 H   0  0  0  0  0  0  0  0  0  0  0  0
  147.3853  138.7407  157.1048 H   0  0  0  0  0  0  0  0  0  0  0  0
  146.0012  137.9965  156.3062 H   0  0  0  0  0  0  0  0  0  0  0  0
  145.3044  140.2429  155.4290 H   0  0  0  0  0  0  0  0  0  0  0  0
  146.6008  141.0056  156.2350 H   0  0  0  0  0  0  0  0  0  0  0  0
  146.0749  141.4205  153.3904 H   0  0  0  0  0  0  0  0  0  0  0  0
  147.6344  141.1106  152.6624 H   0  0  0  0  0  0  0  0  0  0  0  0
  147.5098  142.0585  154.1398 H   0  0  0  0  0  0  0  0  0  0  0  0
  147.1003  138.6853  152.6129 H   0  0  0  0  0  0  0  0  0  0  0  0
  146.9323  137.7535  154.0650 H   0  0  0  0  0  0  0  0  0  0  0  0
  144.7913  139.5675  153.1220 H   0  0  0  0  0  0  0  0  0  0  0  0
  142.9330  138.9529  153.1569 H   0  0  0  0  0  0  0  0  0  0  0  0
  138.7136  136.0023  153.9008 H   0  0  0  0  0  0  0  0  0  0  0  0
  149.4629  141.5585  154.8051 H   0  0  0  0  0  0  0  0  0  0  0  0
  148.8212  141.0754  156.3604 H   0  0  0  0  0  0  0  0  0  0  0  0
  151.2854  141.1723  156.3993 H   0  0  0  0  0  0  0  0  0  0  0  0
  150.7109  139.5521  156.7488 H   0  0  0  0  0  0  0  0  0  0  0  0
  151.5296  138.3734  153.4146 H   0  0  0  0  0  0  0  0  0  0  0  0
  150.8602  137.8702  154.9555 H   0  0  0  0  0  0  0  0  0  0  0  0
  149.0715  138.1932  153.3116 H   0  0  0  0  0  0  0  0  0  0  0  0
  149.6007  139.8254  152.9638 H   0  0  0  0  0  0  0  0  0  0  0  0
  1  2  1  0  0  0  0
  1 21  1  0  0  0  0
  1 22  1  0  0  0  0
  1 23  1  0  0  0  0
  2  3  1  0  0  0  0
  2 24  1  0  0  0  0
  2 25  1  0  0  0  0
  3  4  1  0  0  0  0
  3  5  1  0  0  0  0
  3 15  1  0  0  0  0
  4 26  1  0  0  0  0
  4 27  1  0  0  0  0
  4 28  1  0  0  0  0
  5  6  1  0  0  0  0
  5 29  1  0  0  0  0
  5 30  1  0  0  0  0
  6  7  1  0  0  0  0
  6 31  1  0  0  0  0
  7  8  2  0  0  0  0
  7  9  1  0  0  0  0
  9 10  1  0  0  0  0
  9 32  1  0  0  0  0
 10 14  1  0  0  0  0
 10 11  2  0  0  0  0
 11 12  1  0  0  0  0
 12 13  2  0  0  0  0
 13 14  1  0  0  0  0
 13 33  1  0  0  0  0
 15 20  1  0  0  0  0
 15 16  1  0  0  0  0
 16 17  1  0  0  0  0
 16 34  1  0  0  0  0
 16 35  1  0  0  0  0
 17 18  1  0  0  0  0
 17 36  1  0  0  0  0
 17 37  1  0  0  0  0
 18 19  1  0  0  0  0
 19 20  1  0  0  0  0
 19 38  1  0  0  0  0
 19 39  1  0  0  0  0
 20 40  1  0  0  0  0
 20 41  1  0  0  0  0
M  END
> <s_m_source_file>
AV-unprocessed.smi

> <i_m_source_file_index>
1412

> <i_lp_mmshare_version>
43012

> <i_f3d_flags>
0

> <s_epik_input>
W0NIMl0xW0NIMl1PW0NIMl1bQ0gyXU4xW0NAQF0oW0NIM10pKFtDSDJdW0NIM10pW0NIMl1bTkhdQyg9TylbTkhdYzJubltjSF1zMg==

> <s_epik_cmdline>
J2VwaWtfcHl0aG9uJywgJy1waCcsICc3LjAnLCAnLXRuJywgJzgnLCAnLW1hJywgJzIwMCcsICctbWV0YWxfYmluZGluZycsICctaW1hZScsICc8aW5maWxlLm1hZT4nLCAnLW9tYWUnLCAnPG91dGZpbGUubWFlPic=

> <r_lp_tautomer_probability>
1

> <r_epik_Ionization_Penalty>
0.295854

> <r_epik_Ionization_Penalty_Charging>
0

> <r_epik_Ionization_Penalty_Neutral>
0.295854

> <r_epik_State_Penalty>
0.288723

> <r_epik_Charging_Adjusted_Penalty>
0.288723

> <i_epik_Tot_Q>
0

> <i_epik_Tot_abs_Q>
0

> <r_epik_Metal_State_Penalty>
0.510549

> <b_epik_Metal_Only>
0

> <s_lp_Force_Field>
OPLS_2005

> <r_lp_Energy>
41.7733

> <b_lp_Chiralities_Consistent>
1

> <s_lp_Variant>
AV-unprocessed.smi:1412-2

> <Gold.Version>
5.8.1

> <Gold.Id.Protein>
6NUR|6NUR_protein|mol2

> <Gold.PLP.Fitness>
39.8422

> <Gold.PLP.PLP>
-28.6336

> <Gold.PLP.part.hbond>
-4.1066

> <Gold.PLP.part.metal>
0.0000

> <Gold.PLP.part.buried>
-3.8550

> <Gold.PLP.part.nonpolar>
-20.6307

> <Gold.PLP.part.repulsive>
0.4009

> <Gold.PLP.ligand.clash>
0.0000

> <Gold.PLP.ligand.torsion>
0.4379

> <Gold.PLP.Chemscore.Hbond>
3.9760

> <Gold.PLP.Chemscore.CHOScore>
0.0000

> <Gold.PLP.Chemscore.Metal>
0.0000

> <Gold.Chemscore.Hbonds>
donor molecule, donor type, donor heavy atom, donor atom, acceptor molecule, acceptor atom, score
      L1  H     6    31       P1 10175  1.00
      L1  H     9    32       P1 10175  0.96
      P1  H  7989  7998       L1    18  0.95
      P1  H 11000 11005       L1    12  0.93

> <Gold.PLP.Chemscore.Internal.Correction>
0.1565

> <Gold.Rescore>
     Score         DG    S(hbond)    S(metal)    S(lipo)     H(rot)  DE(clash)    DE(int)     intcor
     16.41     -18.52       3.24        0.00      59.58       1.86       0.16       1.95       ----

> <Gold.Chemscore.Fitness>
16.4125

> <Gold.Chemscore.DG>
-18.5238

> <Gold.Chemscore.ZeroCoef>
-5.4800

> <Gold.Chemscore.Hbond>
3.2445

> <Gold.Chemscore.Metal>
0.0000

> <Gold.Chemscore.Lipo>
59.5813

> <Gold.Chemscore.Internal_Hbond>
0.0000

> <Gold.Chemscore.DEClash>
0.1600

> <Gold.Chemscore.DEInternal>
1.9513

> <Gold.Chemscore.Rot>
1.8609

> <Gold.Chemscore.Internal.Correction>
   9.000000E+99

> <Gold.Chemscore.Hbonds>
donor molecule, donor type, donor heavy atom, donor atom, acceptor molecule, acceptor atom, score
      L1  H     6    31       P1 10175  0.95
      L1  H     9    32       P1 10175  0.92
      P1  H  7989  7998       L1    18  0.20
      P1  H 11000 11005       L1    12  0.37

> <Gold.Chemscore.Hbond.Weighted>
-10.8366

> <Gold.Chemscore.Metal.Weighted>
-0.0000

> <Gold.Chemscore.Lipo.Weighted>
-6.9710

> <Gold.Chemscore.Internal_Hbond.Weighted>
0.0000

> <Gold.Chemscore.DEClash.Weighted>
0.1600

> <Gold.Chemscore.DEInternal.Weighted>
1.9513

> <Gold.Chemscore.Rot.Weighted>
4.7638

> <Gold.Chemscore.Internal.Correction.Weighted>
   9.000000E+99

> <Gold.Protein.RotatedTorsions>
[ 6907 6896 6895 6894 ] final -127.40 input  -60.11 | X-H torsion
[ 7974 7965 7964 7962 ] final   37.39 input  175.53 | X-H torsion
[ 8008 7997 7996 7995 ] final   13.51 input   59.86 | X-H torsion
[ 10167 10162 10161 10158 ] final  -61.49 input  -65.29 | X-H torsion
[ 10718 10713 10712 10709 ] final -130.33 input   66.30 | X-H torsion
[ 10763 10752 10751 10750 ] final -139.21 input  -60.55 | X-H torsion
[ 11005 11000 10999 10996 ] final   39.01 input  -57.11 | X-H torsion

> <Gold.Protein.ActiveResidues>
 VAL166  LYS551  ARG553  GLY616  TRP617  ASP618  TYR619  PRO620  LYS621  CYS622 
 ASP623  PHE694  ASN695  SER759  ASP760  ASP761  ALA762  ILE779  LEU786  VAL792 
 PHE793  MET794  SER795  GLU796  ALA797  LYS798  CYS799  TRP800  GLU811  SER814 

> <Gold.Protein.RotatedAtoms>
  150.9070  133.7046  159.2864 H   0  0  0  0  0  0  0  0  0  0  0  0  # atno 6907 bound_to 6896
  151.4546  135.1031  159.9717 H   0  0  0  0  0  0  0  0  0  0  0  0  # atno 6908 bound_to 6896
  152.4909  133.8447  159.7226 H   0  0  0  0  0  0  0  0  0  0  0  0  # atno 6909 bound_to 6896
  146.1141  139.5900  142.9333 H   0  0  0  0  0  0  0  0  0  0  0  0  # atno 7974 bound_to 7965
  154.8355  140.2906  155.5694 H   0  0  0  0  0  0  0  0  0  0  0  0  # atno 8008 bound_to 7997
  156.3008  140.2524  156.3219 H   0  0  0  0  0  0  0  0  0  0  0  0  # atno 8009 bound_to 7997
  154.9184  140.0386  157.1974 H   0  0  0  0  0  0  0  0  0  0  0  0  # atno 8010 bound_to 7997
  140.6003  143.2360  151.5944 H   0  0  0  0  0  0  0  0  0  0  0  0  # atno 10167 bound_to 10162
  156.2134  130.6933  151.0675 H   0  0  0  0  0  0  0  0  0  0  0  0  # atno 10718 bound_to 10713
  154.8616  135.3589  154.5509 H   0  0  0  0  0  0  0  0  0  0  0  0  # atno 10763 bound_to 10752
  153.6127  135.7009  153.5345 H   0  0  0  0  0  0  0  0  0  0  0  0  # atno 10764 bound_to 10752
  153.3195  135.4155  155.1365 H   0  0  0  0  0  0  0  0  0  0  0  0  # atno 10765 bound_to 10752
  140.2070  134.3801  155.8068 H   0  0  0  0  0  0  0  0  0  0  0  0  # atno 11005 bound_to 11000
  145.5603  141.0405  143.2229 LP  0  0  0  0  0  0  0  0  0  0  0  0  # atno 17320 bound_to 7965
  144.7537  139.7128  143.7263 LP  0  0  0  0  0  0  0  0  0  0  0  0  # atno 17321 bound_to 7965
  139.5286  144.2983  152.1094 LP  0  0  0  0  0  0  0  0  0  0  0  0  # atno 17342 bound_to 10162
  140.2163  144.4512  150.6362 LP  0  0  0  0  0  0  0  0  0  0  0  0  # atno 17343 bound_to 10162
  157.7050  131.0760  150.6696 LP  0  0  0  0  0  0  0  0  0  0  0  0  # atno 17370 bound_to 10713
  156.6756  130.4552  149.5643 LP  0  0  0  0  0  0  0  0  0  0  0  0  # atno 17371 bound_to 10713
  141.2227  133.7123  156.8354 LP  0  0  0  0  0  0  0  0  0  0  0  0  # atno 17394 bound_to 11000
  140.1992  134.8909  157.3150 LP  0  0  0  0  0  0  0  0  0  0  0  0  # atno 17395 bound_to 11000

$$$$
