AV-unprocessed.smi:2698|AV-procd|sdf|10422|dock3
  -GOLD-   2272014463D 1   1.00000     0.00000
 Structure written by MMmdl.
 33 33  0  0  0  0  0  0  0  0  2 V2000
  152.0065  144.4868  158.7563 C   0  0  0  0  0  0  0  0  0  0  0  0
  151.7477  142.9750  158.6718 C   0  0  0  0  0  0  0  0  0  0  0  0
  152.9789  142.1935  159.1666 C   0  0  0  0  0  0  0  0  0  0  0  0
  151.3037  142.5792  157.2443 C   0  0  0  0  0  0  0  0  0  0  0  0
  151.1722  141.0668  157.0464 C   0  0  0  0  0  0  0  0  0  0  0  0
  151.3537  140.3018  157.9937 O   0  0  0  0  0  0  0  0  0  0  0  0
  150.8591  140.6541  155.8075 N   0  0  0  0  0  0  0  0  0  0  0  0
  150.6264  139.2718  155.3882 C   0  0  1  0  0  0  0  0  0  0  0  0
  149.7601  139.2089  154.1110 C   0  0  0  0  0  0  0  0  0  0  0  0
  148.3703  139.7803  154.2495 C   0  0  0  0  0  0  0  0  0  0  0  0
  147.3909  139.9053  153.2855 C   0  0  0  0  0  0  0  0  0  0  0  0
  146.2926  140.4597  153.9180 N   0  0  0  0  0  0  0  0  0  0  0  0
  146.6302  140.6470  155.1941 C   0  0  0  0  0  0  0  0  0  0  0  0
  147.8699  140.2621  155.4652 N   0  0  0  0  0  0  0  0  0  0  0  0
  151.9621  138.5351  155.2469 C   0  0  0  0  0  0  0  0  0  0  0  0
  151.9189  137.3193  154.9532 O   0  0  0  0  0  0  0  0  0  0  0  0
  153.0057  139.1968  155.4388 O   0  5  0  0  0  0  0  0  0  0  0  0
  145.4011  140.6747  153.4954 H   0  0  0  0  0  0  0  0  0  0  0  0
  152.8282  144.7846  158.1044 H   0  0  0  0  0  0  0  0  0  0  0  0
  152.2624  144.7858  159.7731 H   0  0  0  0  0  0  0  0  0  0  0  0
  151.1238  145.0549  158.4614 H   0  0  0  0  0  0  0  0  0  0  0  0
  150.9244  142.7541  159.3535 H   0  0  0  0  0  0  0  0  0  0  0  0
  153.8305  142.3344  158.5003 H   0  0  0  0  0  0  0  0  0  0  0  0
  152.7814  141.1241  159.2346 H   0  0  0  0  0  0  0  0  0  0  0  0
  153.2778  142.5244  160.1613 H   0  0  0  0  0  0  0  0  0  0  0  0
  150.3438  143.0440  157.0133 H   0  0  0  0  0  0  0  0  0  0  0  0
  152.0104  142.9692  156.5106 H   0  0  0  0  0  0  0  0  0  0  0  0
  150.7516  141.3559  155.0894 H   0  0  0  0  0  0  0  0  0  0  0  0
  150.0765  138.7580  156.1794 H   0  0  0  0  0  0  0  0  0  0  0  0
  150.2628  139.7177  153.2870 H   0  0  0  0  0  0  0  0  0  0  0  0
  149.6549  138.1682  153.8021 H   0  0  0  0  0  0  0  0  0  0  0  0
  147.3849  139.6415  152.2384 H   0  0  0  0  0  0  0  0  0  0  0  0
  145.9623  141.0657  155.9325 H   0  0  0  0  0  0  0  0  0  0  0  0
  1  2  1  0  0  0  0
  1 19  1  0  0  0  0
  1 20  1  0  0  0  0
  1 21  1  0  0  0  0
  2  3  1  0  0  0  0
  2  4  1  0  0  0  0
  2 22  1  0  0  0  0
  3 23  1  0  0  0  0
  3 24  1  0  0  0  0
  3 25  1  0  0  0  0
  4  5  1  0  0  0  0
  4 26  1  0  0  0  0
  4 27  1  0  0  0  0
  5  6  2  0  0  0  0
  5  7  1  0  0  0  0
  7  8  1  0  0  0  0
  7 28  1  0  0  0  0
  8  9  1  0  0  0  0
  8 15  1  0  0  0  0
  8 29  1  0  0  0  0
  9 10  1  0  0  0  0
  9 30  1  0  0  0  0
  9 31  1  0  0  0  0
 10 14  1  0  0  0  0
 10 11  2  0  0  0  0
 11 12  1  0  0  0  0
 11 32  1  0  0  0  0
 12 18  1  0  0  0  0
 12 13  1  0  0  0  0
 13 14  2  0  0  0  0
 13 33  1  0  0  0  0
 15 16  2  0  0  0  0
 15 17  1  0  0  0  0
M  CHG  1  17  -1
M  END
> <s_m_source_file>
AV-unprocessed.smi

> <i_m_source_file_index>
2698

> <i_lp_mmshare_version>
43012

> <i_f3d_flags>
0

> <s_epik_input>
W0NIM11bQ0hdKFtDSDNdKVtDSDJdQyg9TylbTkhdW0NAQEhdKEMoPU8pW09IXSlbQ0gyXWMxW2NIXVtuSF1bY0hdbjE=

> <s_epik_cmdline>
J2VwaWtfcHl0aG9uJywgJy1waCcsICc3LjAnLCAnLXRuJywgJzgnLCAnLW1hJywgJzIwMCcsICctbWV0YWxfYmluZGluZycsICctaW1hZScsICc8aW5maWxlLm1hZT4nLCAnLW9tYWUnLCAnPG91dGZpbGUubWFlPic=

> <r_lp_tautomer_probability>
0.5

> <r_epik_Ionization_Penalty>
0.818672

> <r_epik_Ionization_Penalty_Charging>
0.818672

> <r_epik_Ionization_Penalty_Neutral>
7.99661e-08

> <r_epik_State_Penalty>
0.927032

> <r_epik_Charging_Adjusted_Penalty>
1.7457

> <i_epik_Tot_Q>
-1

> <i_epik_Tot_abs_Q>
1

> <r_epik_Metal_State_Penalty>
0.525537

> <b_epik_Metal_Only>
0

> <s_lp_Force_Field>
OPLS_2005

> <r_lp_Energy>
1.97611

> <b_lp_Chiralities_Consistent>
1

> <s_lp_Variant>
AV-unprocessed.smi:2698-6

> <Gold.Version>
5.8.1

> <Gold.Id.Protein>
6NUR|6NUR_protein|mol2

> <Gold.PLP.Fitness>
46.3459

> <Gold.PLP.PLP>
-30.2821

> <Gold.PLP.part.hbond>
-3.0000

> <Gold.PLP.part.metal>
0.0000

> <Gold.PLP.part.buried>
-3.2737

> <Gold.PLP.part.nonpolar>
-24.9564

> <Gold.PLP.part.repulsive>
0.2679

> <Gold.PLP.ligand.clash>
0.0000

> <Gold.PLP.ligand.torsion>
0.3607

> <Gold.PLP.Chemscore.Hbond>
4.8715

> <Gold.PLP.Chemscore.CHOScore>
0.6743

> <Gold.PLP.Chemscore.Metal>
0.0000

> <Gold.Chemscore.Hbonds>
donor molecule, donor type, donor heavy atom, donor atom, acceptor molecule, acceptor atom, score
      L1  H    12    18       P1 10175  1.00
      P1  H  7997  8008       L1    17  2.00
      P1  H 10752 10765       L1    16  1.86
      L1  C    11    32       P1  7957  0.66

> <Gold.PLP.Chemscore.Internal.Correction>
0.1476

> <Gold.Rescore>
     Score         DG    S(hbond)    S(metal)    S(lipo)     H(rot)  DE(clash)    DE(int)     intcor
     14.00     -15.75       2.89        0.00      71.07       3.01       0.02       1.73       ----

> <Gold.Chemscore.Fitness>
13.9978

> <Gold.Chemscore.DG>
-15.7456

> <Gold.Chemscore.ZeroCoef>
-5.4800

> <Gold.Chemscore.Hbond>
2.8944

> <Gold.Chemscore.Metal>
0.0000

> <Gold.Chemscore.Lipo>
71.0714

> <Gold.Chemscore.Internal_Hbond>
0.0000

> <Gold.Chemscore.DEClash>
0.0210

> <Gold.Chemscore.DEInternal>
1.7269

> <Gold.Chemscore.Rot>
3.0145

> <Gold.Chemscore.Internal.Correction>
   9.000000E+99

> <Gold.Chemscore.Hbonds>
donor molecule, donor type, donor heavy atom, donor atom, acceptor molecule, acceptor atom, score
      L1  H    12    18       P1 10175  0.89
      P1  H  7997  8008       L1    17  1.00
      P1  H 10752 10765       L1    16  0.86

> <Gold.Chemscore.Hbond.Weighted>
-9.6674

> <Gold.Chemscore.Metal.Weighted>
-0.0000

> <Gold.Chemscore.Lipo.Weighted>
-8.3154

> <Gold.Chemscore.Internal_Hbond.Weighted>
0.0000

> <Gold.Chemscore.DEClash.Weighted>
0.0210

> <Gold.Chemscore.DEInternal.Weighted>
1.7269

> <Gold.Chemscore.Rot.Weighted>
7.7171

> <Gold.Chemscore.Internal.Correction.Weighted>
   9.000000E+99

> <Gold.Protein.RotatedTorsions>
[ 6907 6896 6895 6894 ] final   51.49 input  -60.11 | X-H torsion
[ 7974 7965 7964 7962 ] final  104.28 input  175.53 | X-H torsion
[ 8008 7997 7996 7995 ] final  -34.60 input   59.86 | X-H torsion
[ 10167 10162 10161 10158 ] final   60.43 input  -65.29 | X-H torsion
[ 10718 10713 10712 10709 ] final  -11.36 input   66.30 | X-H torsion
[ 10763 10752 10751 10750 ] final  175.81 input  -60.55 | X-H torsion
[ 11005 11000 10999 10996 ] final   94.77 input  -57.11 | X-H torsion

> <Gold.Protein.ActiveResidues>
 VAL166  LYS551  ARG553  GLY616  TRP617  ASP618  TYR619  PRO620  LYS621  CYS622 
 ASP623  PHE694  ASN695  SER759  ASP760  ASP761  ALA762  ILE779  LEU786  VAL792 
 PHE793  MET794  SER795  GLU796  ALA797  LYS798  CYS799  TRP800  GLU811  SER814 

> <Gold.Protein.RotatedAtoms>
  152.3132  134.7472  160.0331 H   0  0  0  0  0  0  0  0  0  0  0  0  # atno 6907 bound_to 6896
  151.7946  133.3358  159.3517 H   0  0  0  0  0  0  0  0  0  0  0  0  # atno 6908 bound_to 6896
  150.7331  134.5741  159.5950 H   0  0  0  0  0  0  0  0  0  0  0  0  # atno 6909 bound_to 6896
  145.3349  139.2477  143.3641 H   0  0  0  0  0  0  0  0  0  0  0  0  # atno 7974 bound_to 7965
  154.4117  140.1680  156.2075 H   0  0  0  0  0  0  0  0  0  0  0  0  # atno 8008 bound_to 7997
  155.9472  140.3403  155.6354 H   0  0  0  0  0  0  0  0  0  0  0  0  # atno 8009 bound_to 7997
  155.6915  140.0734  157.2437 H   0  0  0  0  0  0  0  0  0  0  0  0  # atno 8010 bound_to 7997
  140.1656  144.4327  150.6687 H   0  0  0  0  0  0  0  0  0  0  0  0  # atno 10167 bound_to 10162
  156.6602  130.4979  149.6033 H   0  0  0  0  0  0  0  0  0  0  0  0  # atno 10718 bound_to 10713
  154.4726  135.2771  155.1631 H   0  0  0  0  0  0  0  0  0  0  0  0  # atno 10763 bound_to 10752
  154.3373  135.6177  153.5583 H   0  0  0  0  0  0  0  0  0  0  0  0  # atno 10764 bound_to 10752
  152.9866  135.5780  154.5111 H   0  0  0  0  0  0  0  0  0  0  0  0  # atno 10765 bound_to 10752
  139.8795  134.8863  156.3913 H   0  0  0  0  0  0  0  0  0  0  0  0  # atno 11005 bound_to 11000
  146.3031  140.3934  142.8697 LP  0  0  0  0  0  0  0  0  0  0  0  0  # atno 17320 bound_to 7965
  144.8835  140.7432  143.5971 LP  0  0  0  0  0  0  0  0  0  0  0  0  # atno 17321 bound_to 7965
  140.6615  143.2253  151.5845 LP  0  0  0  0  0  0  0  0  0  0  0  0  # atno 17342 bound_to 10162
  139.5361  144.2778  152.1254 LP  0  0  0  0  0  0  0  0  0  0  0  0  # atno 17343 bound_to 10162
  156.2017  130.6624  151.1174 LP  0  0  0  0  0  0  0  0  0  0  0  0  # atno 17370 bound_to 10713
  157.7112  131.0733  150.6493 LP  0  0  0  0  0  0  0  0  0  0  0  0  # atno 17371 bound_to 10713
  140.9331  133.7566  156.0050 LP  0  0  0  0  0  0  0  0  0  0  0  0  # atno 17394 bound_to 11000
  140.8307  134.3181  157.5349 LP  0  0  0  0  0  0  0  0  0  0  0  0  # atno 17395 bound_to 11000

$$$$
