AV-unprocessed.smi:2134|AV-procd|sdf|8696|dock2
  -GOLD-   2272011453D 1   1.00000     0.00000
 Structure written by MMmdl.
 34 35  0  0  0  0  0  0  0  0  2 V2000
  155.0522  137.1084  157.4492 C   0  0  0  0  0  0  0  0  0  0  0  0
  153.7121  137.5798  157.7969 N   0  0  0  0  0  0  0  0  0  0  0  0
  153.1895  138.4708  156.8839 N   0  0  0  0  0  0  0  0  0  0  0  0
  151.9388  138.8134  156.8818 C   0  0  0  0  0  0  0  0  0  0  0  0
  151.4353  139.7538  155.8374 C   0  0  0  0  0  0  0  0  0  0  0  0
  151.9476  139.6267  154.7187 O   0  0  0  0  0  0  0  0  0  0  0  0
  150.4809  140.6655  156.1895 N   0  5  0  0  0  0  0  0  0  0  0  0
  150.4728  141.4512  157.4231 C   0  0  0  0  0  0  0  0  0  0  0  0
  151.6949  142.3958  157.4518 C   0  0  0  0  0  0  0  0  0  0  0  0
  151.6651  143.4388  158.5656 C   0  0  0  0  0  0  0  0  0  0  0  0
  152.1354  143.1360  159.8619 C   0  0  0  0  0  0  0  0  0  0  0  0
  152.0869  144.1338  160.8543 C   0  0  0  0  0  0  0  0  0  0  0  0
  151.5725  145.3990  160.5082 C   0  0  0  0  0  0  0  0  0  0  0  0
  151.1268  145.7065  159.2716 N   0  0  0  0  0  0  0  0  0  0  0  0
  151.1746  144.7429  158.3264 C   0  0  0  0  0  0  0  0  0  0  0  0
  150.9843  138.2274  157.9053 C   0  0  0  0  0  0  0  0  0  0  0  0
  151.7085  137.8112  159.2005 C   0  0  0  0  0  0  0  0  0  0  0  0
  153.0739  137.1749  158.9246 C   0  0  0  0  0  0  0  0  0  0  0  0
  153.5347  136.3617  159.7258 O   0  0  0  0  0  0  0  0  0  0  0  0
  155.4925  136.4430  158.1926 H   0  0  0  0  0  0  0  0  0  0  0  0
  155.7288  137.9554  157.3292 H   0  0  0  0  0  0  0  0  0  0  0  0
  155.0222  136.5686  156.5020 H   0  0  0  0  0  0  0  0  0  0  0  0
  149.5652  142.0476  157.5274 H   0  0  0  0  0  0  0  0  0  0  0  0
  150.5077  140.8060  158.3014 H   0  0  0  0  0  0  0  0  0  0  0  0
  152.6017  141.8004  157.5638 H   0  0  0  0  0  0  0  0  0  0  0  0
  151.7917  142.9057  156.4922 H   0  0  0  0  0  0  0  0  0  0  0  0
  152.5230  142.1546  160.0933 H   0  0  0  0  0  0  0  0  0  0  0  0
  152.4338  143.9335  161.8569 H   0  0  0  0  0  0  0  0  0  0  0  0
  151.5204  146.1869  161.2448 H   0  0  0  0  0  0  0  0  0  0  0  0
  150.8046  145.0196  157.3499 H   0  0  0  0  0  0  0  0  0  0  0  0
  150.2082  138.9475  158.1665 H   0  0  0  0  0  0  0  0  0  0  0  0
  150.4742  137.3674  157.4700 H   0  0  0  0  0  0  0  0  0  0  0  0
  151.8762  138.6896  159.8248 H   0  0  0  0  0  0  0  0  0  0  0  0
  151.0859  137.1282  159.7793 H   0  0  0  0  0  0  0  0  0  0  0  0
  1  2  1  0  0  0  0
  1 20  1  0  0  0  0
  1 21  1  0  0  0  0
  1 22  1  0  0  0  0
  2 18  1  0  0  0  0
  2  3  1  0  0  0  0
  3  4  2  0  0  0  0
  4  5  1  0  0  0  0
  4 16  1  0  0  0  0
  5  6  2  0  0  0  0
  5  7  1  0  0  0  0
  7  8  1  0  0  0  0
  8  9  1  0  0  0  0
  8 23  1  0  0  0  0
  8 24  1  0  0  0  0
  9 10  1  0  0  0  0
  9 25  1  0  0  0  0
  9 26  1  0  0  0  0
 10 15  1  0  0  0  0
 10 11  2  0  0  0  0
 11 12  1  0  0  0  0
 11 27  1  0  0  0  0
 12 13  2  0  0  0  0
 12 28  1  0  0  0  0
 13 14  1  0  0  0  0
 13 29  1  0  0  0  0
 14 15  2  0  0  0  0
 15 30  1  0  0  0  0
 16 17  1  0  0  0  0
 16 31  1  0  0  0  0
 16 32  1  0  0  0  0
 17 18  1  0  0  0  0
 17 33  1  0  0  0  0
 17 34  1  0  0  0  0
 18 19  2  0  0  0  0
M  CHG  1   7  -1
M  END
> <s_m_source_file>
AV-unprocessed.smi

> <i_m_source_file_index>
2134

> <i_lp_mmshare_version>
43012

> <i_f3d_flags>
0

> <s_epik_input>
Tz1DMVtDSDJdW0NIMl1DKD1OTjFbQ0gzXSlDKD1PKVtOSF1bQ0gyXVtDSDJdYzJbY0hdW2NIXVtjSF1uW2NIXTI=

> <s_epik_cmdline>
J2VwaWtfcHl0aG9uJywgJy1waCcsICc3LjAnLCAnLXRuJywgJzgnLCAnLW1hJywgJzIwMCcsICctbWV0YWxfYmluZGluZycsICctaW1hZScsICc8aW5maWxlLm1hZT4nLCAnLW9tYWUnLCAnPG91dGZpbGUubWFlPic=

> <r_epik_Ionization_Penalty>
5.39184

> <r_epik_Ionization_Penalty_Charging>
5.3715

> <r_epik_Ionization_Penalty_Neutral>
0.0203369

> <r_epik_State_Penalty>
5.3785

> <r_epik_Charging_Adjusted_Penalty>
10.75

> <i_epik_Tot_Q>
-1

> <i_epik_Tot_abs_Q>
1

> <r_epik_Metal_State_Penalty>
1.41656

> <b_epik_Metal_Only>
1

> <s_epik_Chemistry_Notes>
This compound has an imine and may undergo hydrolysis.

> <s_lp_Force_Field>
OPLS_2005

> <r_lp_Energy>
21.6515

> <b_lp_Chiralities_Consistent>
1

> <s_lp_Variant>
AV-unprocessed.smi:2134-3

> <Gold.Version>
5.8.1

> <Gold.Id.Protein>
6NUR|6NUR_protein|mol2

> <Gold.PLP.Fitness>
43.3740

> <Gold.PLP.PLP>
-33.9669

> <Gold.PLP.part.hbond>
-4.2514

> <Gold.PLP.part.metal>
0.0000

> <Gold.PLP.part.buried>
-5.3480

> <Gold.PLP.part.nonpolar>
-25.2792

> <Gold.PLP.part.repulsive>
0.2689

> <Gold.PLP.ligand.clash>
0.0000

> <Gold.PLP.ligand.torsion>
1.2820

> <Gold.PLP.Chemscore.Hbond>
2.9673

> <Gold.PLP.Chemscore.CHOScore>
0.9998

> <Gold.PLP.Chemscore.Metal>
0.0000

> <Gold.Chemscore.Hbonds>
donor molecule, donor type, donor heavy atom, donor atom, acceptor molecule, acceptor atom, score
      P1  H  6896  6908       L1    19  1.00
      P1  H  7989  7998       L1     6  0.94
      P1  H  7997  8008       L1     3  1.00
      L1  C    15    30       P1  8028  1.00

> <Gold.PLP.Chemscore.Internal.Correction>
0.0698

> <Gold.Rescore>
     Score         DG    S(hbond)    S(metal)    S(lipo)     H(rot)  DE(clash)    DE(int)     intcor
     19.14     -20.64       2.49        0.00      89.45       1.42       0.12       1.37       ----

> <Gold.Chemscore.Fitness>
19.1392

> <Gold.Chemscore.DG>
-20.6357

> <Gold.Chemscore.ZeroCoef>
-5.4800

> <Gold.Chemscore.Hbond>
2.4908

> <Gold.Chemscore.Metal>
0.0000

> <Gold.Chemscore.Lipo>
89.4531

> <Gold.Chemscore.Internal_Hbond>
0.0000

> <Gold.Chemscore.DEClash>
0.1218

> <Gold.Chemscore.DEInternal>
1.3748

> <Gold.Chemscore.Rot>
1.4178

> <Gold.Chemscore.Internal.Correction>
   9.000000E+99

> <Gold.Chemscore.Hbonds>
donor molecule, donor type, donor heavy atom, donor atom, acceptor molecule, acceptor atom, score
      P1  H  6896  6908       L1    19  0.85
      P1  H  7989  7998       L1     6  0.89
      P1  H  7997  8008       L1     3  0.57

> <Gold.Chemscore.Hbond.Weighted>
-8.3192

> <Gold.Chemscore.Metal.Weighted>
-0.0000

> <Gold.Chemscore.Lipo.Weighted>
-10.4660

> <Gold.Chemscore.Internal_Hbond.Weighted>
0.0000

> <Gold.Chemscore.DEClash.Weighted>
0.1218

> <Gold.Chemscore.DEInternal.Weighted>
1.3748

> <Gold.Chemscore.Rot.Weighted>
3.6295

> <Gold.Chemscore.Internal.Correction.Weighted>
   9.000000E+99

> <Gold.Protein.RotatedTorsions>
[ 6907 6896 6895 6894 ] final  -59.78 input  -60.11 | X-H torsion
[ 7974 7965 7964 7962 ] final   64.08 input  175.53 | X-H torsion
[ 8008 7997 7996 7995 ] final  -63.28 input   59.86 | X-H torsion
[ 10167 10162 10161 10158 ] final   29.94 input  -65.29 | X-H torsion
[ 10718 10713 10712 10709 ] final -127.39 input   66.30 | X-H torsion
[ 10763 10752 10751 10750 ] final  -56.97 input  -60.55 | X-H torsion
[ 11005 11000 10999 10996 ] final  -65.60 input  -57.11 | X-H torsion

> <Gold.Protein.ActiveResidues>
 VAL166  LYS551  ARG553  GLY616  TRP617  ASP618  TYR619  PRO620  LYS621  CYS622 
 ASP623  PHE694  ASN695  SER759  ASP760  ASP761  ALA762  ILE779  LEU786  VAL792 
 PHE793  MET794  SER795  GLU796  ALA797  LYS798  CYS799  TRP800  GLU811  SER814 

> <Gold.Protein.RotatedAtoms>
  150.7905  134.6924  159.6503 H   0  0  0  0  0  0  0  0  0  0  0  0  # atno 6907 bound_to 6896
  152.4009  134.6284  160.0079 H   0  0  0  0  0  0  0  0  0  0  0  0  # atno 6908 bound_to 6896
  151.6555  133.3282  159.3198 H   0  0  0  0  0  0  0  0  0  0  0  0  # atno 6909 bound_to 6896
  145.8544  139.3274  143.0856 H   0  0  0  0  0  0  0  0  0  0  0  0  # atno 7974 bound_to 7965
  154.4545  140.0978  156.6718 H   0  0  0  0  0  0  0  0  0  0  0  0  # atno 8008 bound_to 7997
  155.5180  140.3478  155.4382 H   0  0  0  0  0  0  0  0  0  0  0  0  # atno 8009 bound_to 7997
  156.0750  140.1359  156.9771 H   0  0  0  0  0  0  0  0  0  0  0  0  # atno 8010 bound_to 7997
  140.4722  144.0746  150.6240 H   0  0  0  0  0  0  0  0  0  0  0  0  # atno 10167 bound_to 10162
  156.1853  130.6759  151.0356 H   0  0  0  0  0  0  0  0  0  0  0  0  # atno 10718 bound_to 10713
  154.2150  135.6388  153.5127 H   0  0  0  0  0  0  0  0  0  0  0  0  # atno 10763 bound_to 10752
  152.9981  135.5483  154.6174 H   0  0  0  0  0  0  0  0  0  0  0  0  # atno 10764 bound_to 10752
  154.5620  135.2910  155.0883 H   0  0  0  0  0  0  0  0  0  0  0  0  # atno 10765 bound_to 10752
  141.1459  133.6684  156.6012 H   0  0  0  0  0  0  0  0  0  0  0  0  # atno 11005 bound_to 11000
  145.9320  140.9041  143.0351 LP  0  0  0  0  0  0  0  0  0  0  0  0  # atno 17320 bound_to 7965
  144.6728  140.1432  143.7435 LP  0  0  0  0  0  0  0  0  0  0  0  0  # atno 17321 bound_to 7965
  140.3963  143.2726  152.0000 LP  0  0  0  0  0  0  0  0  0  0  0  0  # atno 17342 bound_to 10162
  139.4820  144.6035  151.7563 LP  0  0  0  0  0  0  0  0  0  0  0  0  # atno 17343 bound_to 10162
  157.6894  131.0814  150.7150 LP  0  0  0  0  0  0  0  0  0  0  0  0  # atno 17370 bound_to 10713
  156.7206  130.4679  149.5524 LP  0  0  0  0  0  0  0  0  0  0  0  0  # atno 17371 bound_to 10713
  140.3687  134.7624  157.4584 LP  0  0  0  0  0  0  0  0  0  0  0  0  # atno 17394 bound_to 11000
  140.0727  134.5840  155.8624 LP  0  0  0  0  0  0  0  0  0  0  0  0  # atno 17395 bound_to 11000

$$$$
