AV-unprocessed.smi:1665|AV-procd|sdf|6669|dock2
  -GOLD-   22720 7383D 1   1.00000     0.00000
 Structure written by MMmdl.
 37 38  0  0  0  0  0  0  0  0  1 V2000
  152.1858  139.9741  158.9213 C   0  0  0  0  0  0  0  0  0  0  0  0
  151.9470  140.5610  157.5211 C   0  0  2  0  0  0  0  0  0  0  0  0
  150.9523  141.7366  157.5671 C   0  0  0  0  0  0  0  0  0  0  0  0
  151.5156  142.9160  158.2008 N   0  0  0  0  0  0  0  0  0  0  0  0
  151.5688  144.2058  157.7165 C   0  0  0  0  0  0  0  0  0  0  0  0
  152.1908  144.9689  158.6625 C   0  0  0  0  0  0  0  0  0  0  0  0
  152.4842  144.0441  159.7035 C   0  0  0  0  0  0  0  0  0  0  0  0
  152.0761  142.8171  159.4257 N   0  0  0  0  0  0  0  0  0  0  0  0
  151.4552  139.5247  156.6160 N   0  0  0  0  0  0  0  0  0  0  0  0
  152.0541  139.1366  155.4807 C   0  0  0  0  0  0  0  0  0  0  0  0
  153.1412  139.5741  155.1036 O   0  0  0  0  0  0  0  0  0  0  0  0
  151.3024  138.1058  154.6329 C   0  0  0  0  0  0  0  0  0  0  0  0
  150.0050  138.6603  154.0048 C   0  0  0  0  0  0  0  0  0  0  0  0
  149.1457  139.3501  154.9703 N   0  0  0  0  0  0  0  0  0  0  0  0
  148.6323  138.6273  156.1259 C   0  0  0  0  0  0  0  0  0  0  0  0
  147.5102  139.4714  156.7318 C   0  0  0  0  0  0  0  0  0  0  0  0
  147.8254  141.1894  156.2806 S   0  0  0  0  0  0  0  0  0  0  0  0
  148.8831  140.7119  154.9095 C   0  0  0  0  0  0  0  0  0  0  0  0
  149.2857  141.5218  154.0765 O   0  0  0  0  0  0  0  0  0  0  0  0
  152.5760  140.7318  159.6010 H   0  0  0  0  0  0  0  0  0  0  0  0
  152.9090  139.1584  158.8927 H   0  0  0  0  0  0  0  0  0  0  0  0
  151.2621  139.5850  159.3513 H   0  0  0  0  0  0  0  0  0  0  0  0
  152.8987  140.9397  157.1429 H   0  0  0  0  0  0  0  0  0  0  0  0
  150.6161  141.9961  156.5617 H   0  0  0  0  0  0  0  0  0  0  0  0
  150.0613  141.4507  158.1274 H   0  0  0  0  0  0  0  0  0  0  0  0
  151.1635  144.4696  156.7508 H   0  0  0  0  0  0  0  0  0  0  0  0
  152.4015  146.0272  158.6201 H   0  0  0  0  0  0  0  0  0  0  0  0
  152.9721  144.2284  160.6493 H   0  0  0  0  0  0  0  0  0  0  0  0
  150.5619  139.1118  156.8435 H   0  0  0  0  0  0  0  0  0  0  0  0
  151.9713  137.7653  153.8420 H   0  0  0  0  0  0  0  0  0  0  0  0
  151.0758  137.2259  155.2367 H   0  0  0  0  0  0  0  0  0  0  0  0
  150.2510  139.3386  153.1863 H   0  0  0  0  0  0  0  0  0  0  0  0
  149.4421  137.8435  153.5508 H   0  0  0  0  0  0  0  0  0  0  0  0
  148.2754  137.6334  155.8541 H   0  0  0  0  0  0  0  0  0  0  0  0
  149.4445  138.5038  156.8435 H   0  0  0  0  0  0  0  0  0  0  0  0
  146.5528  139.1815  156.2977 H   0  0  0  0  0  0  0  0  0  0  0  0
  147.4371  139.3512  157.8127 H   0  0  0  0  0  0  0  0  0  0  0  0
  1  2  1  0  0  0  0
  1 20  1  0  0  0  0
  1 21  1  0  0  0  0
  1 22  1  0  0  0  0
  2  3  1  0  0  0  0
  2  9  1  0  0  0  0
  2 23  1  0  0  0  0
  3  4  1  0  0  0  0
  3 24  1  0  0  0  0
  3 25  1  0  0  0  0
  4  8  1  0  0  0  0
  4  5  1  0  0  0  0
  5  6  2  0  0  0  0
  5 26  1  0  0  0  0
  6  7  1  0  0  0  0
  6 27  1  0  0  0  0
  7  8  2  0  0  0  0
  7 28  1  0  0  0  0
  9 10  1  0  0  0  0
  9 29  1  0  0  0  0
 10 11  2  0  0  0  0
 10 12  1  0  0  0  0
 12 13  1  0  0  0  0
 12 30  1  0  0  0  0
 12 31  1  0  0  0  0
 13 14  1  0  0  0  0
 13 32  1  0  0  0  0
 13 33  1  0  0  0  0
 14 18  1  0  0  0  0
 14 15  1  0  0  0  0
 15 16  1  0  0  0  0
 15 34  1  0  0  0  0
 15 35  1  0  0  0  0
 16 17  1  0  0  0  0
 16 36  1  0  0  0  0
 16 37  1  0  0  0  0
 17 18  1  0  0  0  0
 18 19  2  0  0  0  0
M  END
> <s_m_source_file>
AV-unprocessed.smi

> <i_m_source_file_index>
1665

> <i_lp_mmshare_version>
43012

> <i_f3d_flags>
0

> <s_epik_input>
bjFbY0hdW2NIXVtjSF1uMVtDSDJdW0NAQEhdKFtDSDNdKVtOSF1DKD1PKVtDSDJdW0NIMl1OMltDSDJdW0NIMl1TQzI9Tw==

> <s_epik_cmdline>
J2VwaWtfcHl0aG9uJywgJy1waCcsICc3LjAnLCAnLXRuJywgJzgnLCAnLW1hJywgJzIwMCcsICctbWV0YWxfYmluZGluZycsICctaW1hZScsICc8aW5maWxlLm1hZT4nLCAnLW9tYWUnLCAnPG91dGZpbGUubWFlPic=

> <r_lp_tautomer_probability>
1

> <r_epik_Ionization_Penalty>
0.000300775

> <r_epik_Ionization_Penalty_Charging>
0

> <r_epik_Ionization_Penalty_Neutral>
0.000300775

> <r_epik_State_Penalty>
-0

> <r_epik_Charging_Adjusted_Penalty>
0

> <i_epik_Tot_Q>
0

> <i_epik_Tot_abs_Q>
0

> <r_epik_Metal_State_Penalty>
-0

> <b_epik_Metal_Only>
0

> <s_lp_Force_Field>
OPLS_2005

> <r_lp_Energy>
0.465271

> <b_lp_Chiralities_Consistent>
1

> <s_lp_Variant>
AV-unprocessed.smi:1665-1

> <Gold.Version>
5.8.1

> <Gold.Id.Protein>
6NUR|6NUR_protein|mol2

> <Gold.PLP.Fitness>
46.5933

> <Gold.PLP.PLP>
-38.8557

> <Gold.PLP.part.hbond>
-3.6725

> <Gold.PLP.part.metal>
0.0000

> <Gold.PLP.part.buried>
-3.9861

> <Gold.PLP.part.nonpolar>
-32.4911

> <Gold.PLP.part.repulsive>
0.3096

> <Gold.PLP.ligand.clash>
0.0000

> <Gold.PLP.ligand.torsion>
0.2395

> <Gold.PLP.Chemscore.Hbond>
1.6957

> <Gold.PLP.Chemscore.CHOScore>
1.0000

> <Gold.PLP.Chemscore.Metal>
0.0000

> <Gold.Chemscore.Hbonds>
donor molecule, donor type, donor heavy atom, donor atom, acceptor molecule, acceptor atom, score
      P1  H  7997  8009       L1    11  1.00
      P1  H  8011  8017       L1    19  0.66
      L1  C     5    26       P1  8028  1.00

> <Gold.PLP.Chemscore.Internal.Correction>
0.1295

> <Gold.Rescore>
     Score         DG    S(hbond)    S(metal)    S(lipo)     H(rot)  DE(clash)    DE(int)     intcor
     12.54     -16.10       2.03        0.00      80.90       2.20       0.52       3.04       ----

> <Gold.Chemscore.Fitness>
12.5356

> <Gold.Chemscore.DG>
-16.0965

> <Gold.Chemscore.ZeroCoef>
-5.4800

> <Gold.Chemscore.Hbond>
2.0330

> <Gold.Chemscore.Metal>
0.0000

> <Gold.Chemscore.Lipo>
80.8956

> <Gold.Chemscore.Internal_Hbond>
0.0000

> <Gold.Chemscore.DEClash>
0.5206

> <Gold.Chemscore.DEInternal>
3.0403

> <Gold.Chemscore.Rot>
2.2026

> <Gold.Chemscore.Internal.Correction>
   9.000000E+99

> <Gold.Chemscore.Hbonds>
donor molecule, donor type, donor heavy atom, donor atom, acceptor molecule, acceptor atom, score
      P1  H  7989  7998       L1    19  0.01
      P1  H  7997  8009       L1    11  1.00
      P1  H  8011  8017       L1    19  0.62

> <Gold.Chemscore.Hbond.Weighted>
-6.7904

> <Gold.Chemscore.Metal.Weighted>
-0.0000

> <Gold.Chemscore.Lipo.Weighted>
-9.4648

> <Gold.Chemscore.Internal_Hbond.Weighted>
0.0000

> <Gold.Chemscore.DEClash.Weighted>
0.5206

> <Gold.Chemscore.DEInternal.Weighted>
3.0403

> <Gold.Chemscore.Rot.Weighted>
5.6387

> <Gold.Chemscore.Internal.Correction.Weighted>
   9.000000E+99

> <Gold.Protein.RotatedTorsions>
[ 6907 6896 6895 6894 ] final  -33.65 input  -60.11 | X-H torsion
[ 7974 7965 7964 7962 ] final -174.61 input  175.53 | X-H torsion
[ 8008 7997 7996 7995 ] final -130.83 input   59.86 | X-H torsion
[ 10167 10162 10161 10158 ] final   81.11 input  -65.29 | X-H torsion
[ 10718 10713 10712 10709 ] final -136.93 input   66.30 | X-H torsion
[ 10763 10752 10751 10750 ] final  -62.73 input  -60.55 | X-H torsion
[ 11005 11000 10999 10996 ] final   18.77 input  -57.11 | X-H torsion

> <Gold.Protein.ActiveResidues>
 VAL166  LYS551  ARG553  GLY616  TRP617  ASP618  TYR619  PRO620  LYS621  CYS622 
 ASP623  PHE694  ASN695  SER759  ASP760  ASP761  ALA762  ILE779  LEU786  VAL792 
 PHE793  MET794  SER795  GLU796  ALA797  LYS798  CYS799  TRP800  GLU811  SER814 

> <Gold.Protein.RotatedAtoms>
  151.0629  134.9748  159.8269 H   0  0  0  0  0  0  0  0  0  0  0  0  # atno 6907 bound_to 6896
  152.5398  134.2395  159.8866 H   0  0  0  0  0  0  0  0  0  0  0  0  # atno 6908 bound_to 6896
  151.2416  133.4353  159.2641 H   0  0  0  0  0  0  0  0  0  0  0  0  # atno 6909 bound_to 6896
  144.7131  140.1446  143.6389 H   0  0  0  0  0  0  0  0  0  0  0  0  # atno 7974 bound_to 7965
  155.3023  140.0453  157.3030 H   0  0  0  0  0  0  0  0  0  0  0  0  # atno 8008 bound_to 7997
  154.5480  140.2308  155.8499 H   0  0  0  0  0  0  0  0  0  0  0  0  # atno 8009 bound_to 7997
  156.1941  140.3043  155.9398 H   0  0  0  0  0  0  0  0  0  0  0  0  # atno 8010 bound_to 7997
  139.9427  144.6079  150.8236 H   0  0  0  0  0  0  0  0  0  0  0  0  # atno 10167 bound_to 10162
  156.2824  130.7328  151.1330 H   0  0  0  0  0  0  0  0  0  0  0  0  # atno 10718 bound_to 10713
  154.3044  135.6228  153.5438 H   0  0  0  0  0  0  0  0  0  0  0  0  # atno 10763 bound_to 10752
  152.9836  135.5686  154.5248 H   0  0  0  0  0  0  0  0  0  0  0  0  # atno 10764 bound_to 10752
  154.4885  135.2866  155.1492 H   0  0  0  0  0  0  0  0  0  0  0  0  # atno 10765 bound_to 10752
  140.4211  134.1518  155.7673 H   0  0  0  0  0  0  0  0  0  0  0  0  # atno 11005 bound_to 11000
  145.9171  139.2523  143.1403 LP  0  0  0  0  0  0  0  0  0  0  0  0  # atno 17320 bound_to 7965
  145.9657  140.8800  143.0188 LP  0  0  0  0  0  0  0  0  0  0  0  0  # atno 17321 bound_to 7965
  140.7606  143.3155  151.2743 LP  0  0  0  0  0  0  0  0  0  0  0  0  # atno 17342 bound_to 10162
  139.6691  144.0052  152.2742 LP  0  0  0  0  0  0  0  0  0  0  0  0  # atno 17343 bound_to 10162
  157.7318  131.0605  150.5657 LP  0  0  0  0  0  0  0  0  0  0  0  0  # atno 17370 bound_to 10713
  156.5765  130.4293  149.5996 LP  0  0  0  0  0  0  0  0  0  0  0  0  # atno 17371 bound_to 10713
  141.1784  133.8466  157.1344 LP  0  0  0  0  0  0  0  0  0  0  0  0  # atno 17394 bound_to 11000
  140.0199  134.9950  157.0571 LP  0  0  0  0  0  0  0  0  0  0  0  0  # atno 17395 bound_to 11000

$$$$
