AV-unprocessed.smi:3232|AV-procd|sdf|12340|dock9
  -GOLD-   2272018203D 1   1.00000     0.00000
 Structure written by MMmdl.
 40 41  0  0  0  0  0  0  0  0  2 V2000
  141.8047  134.8411  153.0749 C   0  0  0  0  0  0  0  0  0  0  0  0
  143.3085  134.8006  152.7661 C   0  0  0  0  0  0  0  0  0  0  0  0
  143.7837  133.4280  152.4471 N   0  3  1  0  0  0  0  0  0  0  0  0
  143.2801  132.8933  151.1601 C   0  0  0  0  0  0  0  0  0  0  0  0
  144.3034  131.8566  150.7123 C   0  0  0  0  0  0  0  0  0  0  0  0
  145.6122  132.4821  151.1672 C   0  0  0  0  0  0  0  0  0  0  0  0
  145.2555  133.1646  152.4995 C   0  0  1  0  0  0  0  0  0  0  0  0
  146.1618  134.3750  152.8409 C   0  0  0  0  0  0  0  0  0  0  0  0
  147.5412  133.9564  153.0695 N   0  0  0  0  0  0  0  0  0  0  0  0
  147.9321  132.9691  153.8921 C   0  0  0  0  0  0  0  0  0  0  0  0
  147.1405  132.2413  154.4924 O   0  0  0  0  0  0  0  0  0  0  0  0
  149.4489  132.8069  154.0797 C   0  0  2  0  0  0  0  0  0  0  0  0
  149.8473  131.4070  154.5892 C   0  0  0  0  0  0  0  0  0  0  0  0
  149.9587  133.8670  154.9414 N   0  0  0  0  0  0  0  0  0  0  0  0
  149.8345  135.1918  154.8373 C   0  0  0  0  0  0  0  0  0  0  0  0
  150.3799  135.8646  155.8406 N   0  0  0  0  0  0  0  0  0  0  0  0
  150.8553  134.8215  156.5833 C   0  0  0  0  0  0  0  0  0  0  0  0
  150.6186  133.6034  156.0971 N   0  0  0  0  0  0  0  0  0  0  0  0
  141.5025  135.8437  153.3782 H   0  0  0  0  0  0  0  0  0  0  0  0
  141.5496  134.1599  153.8872 H   0  0  0  0  0  0  0  0  0  0  0  0
  141.2039  134.5710  152.2060 H   0  0  0  0  0  0  0  0  0  0  0  0
  143.5376  135.4803  151.9442 H   0  0  0  0  0  0  0  0  0  0  0  0
  143.8312  135.1698  153.6480 H   0  0  0  0  0  0  0  0  0  0  0  0
  142.2806  132.4696  151.2620 H   0  0  0  0  0  0  0  0  0  0  0  0
  143.2328  133.6951  150.4212 H   0  0  0  0  0  0  0  0  0  0  0  0
  144.1377  130.9123  151.2326 H   0  0  0  0  0  0  0  0  0  0  0  0
  144.2734  131.6652  149.6392 H   0  0  0  0  0  0  0  0  0  0  0  0
  146.4167  131.7522  151.2667 H   0  0  0  0  0  0  0  0  0  0  0  0
  145.9257  133.2251  150.4324 H   0  0  0  0  0  0  0  0  0  0  0  0
  145.3817  132.4238  153.2905 H   0  0  0  0  0  0  0  0  0  0  0  0
  146.1143  135.1328  152.0575 H   0  0  0  0  0  0  0  0  0  0  0  0
  145.8267  134.8533  153.7609 H   0  0  0  0  0  0  0  0  0  0  0  0
  148.2604  134.4949  152.6085 H   0  0  0  0  0  0  0  0  0  0  0  0
  149.9102  132.9387  153.0996 H   0  0  0  0  0  0  0  0  0  0  0  0
  149.5077  130.6281  153.9057 H   0  0  0  0  0  0  0  0  0  0  0  0
  149.4244  131.1923  155.5715 H   0  0  0  0  0  0  0  0  0  0  0  0
  150.9310  131.3181  154.6712 H   0  0  0  0  0  0  0  0  0  0  0  0
  149.3260  135.6744  154.0154 H   0  0  0  0  0  0  0  0  0  0  0  0
  151.3828  134.9635  157.5151 H   0  0  0  0  0  0  0  0  0  0  0  0
  143.3931  132.8301  153.1615 H   0  0  0  0  0  0  0  0  0  0  0  0
  1  2  1  0  0  0  0
  1 19  1  0  0  0  0
  1 20  1  0  0  0  0
  1 21  1  0  0  0  0
  2  3  1  0  0  0  0
  2 22  1  0  0  0  0
  2 23  1  0  0  0  0
  3  7  1  0  0  0  0
  3  4  1  0  0  0  0
  3 40  1  0  0  0  0
  4  5  1  0  0  0  0
  4 24  1  0  0  0  0
  4 25  1  0  0  0  0
  5  6  1  0  0  0  0
  5 26  1  0  0  0  0
  5 27  1  0  0  0  0
  6  7  1  0  0  0  0
  6 28  1  0  0  0  0
  6 29  1  0  0  0  0
  7  8  1  0  0  0  0
  7 30  1  0  0  0  0
  8  9  1  0  0  0  0
  8 31  1  0  0  0  0
  8 32  1  0  0  0  0
  9 10  1  0  0  0  0
  9 33  1  0  0  0  0
 10 11  2  0  0  0  0
 10 12  1  0  0  0  0
 12 13  1  0  0  0  0
 12 14  1  0  0  0  0
 12 34  1  0  0  0  0
 13 35  1  0  0  0  0
 13 36  1  0  0  0  0
 13 37  1  0  0  0  0
 14 18  1  0  0  0  0
 14 15  1  0  0  0  0
 15 16  2  0  0  0  0
 15 38  1  0  0  0  0
 16 17  1  0  0  0  0
 17 18  2  0  0  0  0
 17 39  1  0  0  0  0
M  CHG  1   3   1
M  END
> <s_m_source_file>
AV-unprocessed.smi

> <i_m_source_file_index>
3232

> <i_lp_mmshare_version>
43012

> <i_f3d_flags>
0

> <s_epik_input>
W0NIM11bQ0gyXU4xW0NIMl1bQ0gyXVtDSDJdW0NASF0xW0NIMl1bTkhdQyg9TylbQ0BIXShbQ0gzXSluMltjSF1uW2NIXW4y

> <s_epik_cmdline>
J2VwaWtfcHl0aG9uJywgJy1waCcsICc3LjAnLCAnLXRuJywgJzgnLCAnLW1hJywgJzIwMCcsICctbWV0YWxfYmluZGluZycsICctaW1hZScsICc8aW5maWxlLm1hZT4nLCAnLW9tYWUnLCAnPG91dGZpbGUubWFlPic=

> <r_lp_tautomer_probability>
1

> <r_epik_Ionization_Penalty>
0.00177695

> <r_epik_Ionization_Penalty_Charging>
0.00176881

> <r_epik_Ionization_Penalty_Neutral>
8.13528e-06

> <r_epik_State_Penalty>
0.00119827

> <r_epik_Charging_Adjusted_Penalty>
0.00296709

> <i_epik_Tot_Q>
1

> <i_epik_Tot_abs_Q>
1

> <r_epik_Metal_State_Penalty>
-0

> <b_epik_Metal_Only>
0

> <s_lp_Force_Field>
OPLS_2005

> <r_lp_Energy>
36.2264

> <b_lp_Chiralities_Consistent>
1

> <s_lp_Variant>
AV-unprocessed.smi:3232-2

> <Gold.Version>
5.8.1

> <Gold.Id.Protein>
6NUR|6NUR_protein|mol2

> <Gold.PLP.Fitness>
42.6133

> <Gold.PLP.PLP>
-31.8451

> <Gold.PLP.part.hbond>
-2.0000

> <Gold.PLP.part.metal>
0.0000

> <Gold.PLP.part.buried>
-4.6722

> <Gold.PLP.part.nonpolar>
-25.0223

> <Gold.PLP.part.repulsive>
0.1199

> <Gold.PLP.ligand.clash>
0.0000

> <Gold.PLP.ligand.torsion>
0.6884

> <Gold.PLP.Chemscore.Hbond>
3.0000

> <Gold.PLP.Chemscore.CHOScore>
1.0000

> <Gold.PLP.Chemscore.Metal>
0.0000

> <Gold.Chemscore.Hbonds>
donor molecule, donor type, donor heavy atom, donor atom, acceptor molecule, acceptor atom, score
      L1  H     3    40       P1 10957  1.85
      L1  H     9    33       P1  7948  1.00
      L1  C    15    38       P1  7948  1.00

> <Gold.PLP.Chemscore.Internal.Correction>
0.1451

> <Gold.Rescore>
     Score         DG    S(hbond)    S(metal)    S(lipo)     H(rot)  DE(clash)    DE(int)     intcor
     10.03     -11.53       1.97        0.00      50.01       2.49       0.03       1.48       ----

> <Gold.Chemscore.Fitness>
10.0308

> <Gold.Chemscore.DG>
-11.5319

> <Gold.Chemscore.ZeroCoef>
-5.4800

> <Gold.Chemscore.Hbond>
1.9671

> <Gold.Chemscore.Metal>
0.0000

> <Gold.Chemscore.Lipo>
50.0124

> <Gold.Chemscore.Internal_Hbond>
0.0000

> <Gold.Chemscore.DEClash>
0.0252

> <Gold.Chemscore.DEInternal>
1.4759

> <Gold.Chemscore.Rot>
2.4882

> <Gold.Chemscore.Internal.Correction>
   9.000000E+99

> <Gold.Chemscore.Hbonds>
donor molecule, donor type, donor heavy atom, donor atom, acceptor molecule, acceptor atom, score
      L1  H     3    40       P1 10957  0.40
      L1  H     9    33       P1  7948  0.24

> <Gold.Chemscore.Hbond.Weighted>
-6.5702

> <Gold.Chemscore.Metal.Weighted>
-0.0000

> <Gold.Chemscore.Lipo.Weighted>
-5.8515

> <Gold.Chemscore.Internal_Hbond.Weighted>
0.0000

> <Gold.Chemscore.DEClash.Weighted>
0.0252

> <Gold.Chemscore.DEInternal.Weighted>
1.4759

> <Gold.Chemscore.Rot.Weighted>
6.3697

> <Gold.Chemscore.Internal.Correction.Weighted>
   9.000000E+99

> <Gold.Protein.RotatedTorsions>
[ 6907 6896 6895 6894 ] final   49.66 input  -60.11 | X-H torsion
[ 7974 7965 7964 7962 ] final -129.95 input  175.53 | X-H torsion
[ 8008 7997 7996 7995 ] final  -88.07 input   59.86 | X-H torsion
[ 10167 10162 10161 10158 ] final -179.83 input  -65.29 | X-H torsion
[ 10718 10713 10712 10709 ] final  169.98 input   66.30 | X-H torsion
[ 10763 10752 10751 10750 ] final  -58.01 input  -60.55 | X-H torsion
[ 11005 11000 10999 10996 ] final  -13.90 input  -57.11 | X-H torsion

> <Gold.Protein.ActiveResidues>
 VAL166  LYS551  ARG553  GLY616  TRP617  ASP618  TYR619  PRO620  LYS621  CYS622 
 ASP623  PHE694  ASN695  SER759  ASP760  ASP761  ALA762  ILE779  LEU786  VAL792 
 PHE793  MET794  SER795  GLU796  ALA797  LYS798  CYS799  TRP800  GLU811  SER814 

> <Gold.Protein.RotatedAtoms>
  152.2932  134.7697  160.0373 H   0  0  0  0  0  0  0  0  0  0  0  0  # atno 6907 bound_to 6896
  151.8236  133.3393  159.3600 H   0  0  0  0  0  0  0  0  0  0  0  0  # atno 6908 bound_to 6896
  150.7240  134.5480  159.5824 H   0  0  0  0  0  0  0  0  0  0  0  0  # atno 6909 bound_to 6896
  144.9522  140.7357  143.4781 H   0  0  0  0  0  0  0  0  0  0  0  0  # atno 7974 bound_to 7965
  154.6705  140.0558  157.0160 H   0  0  0  0  0  0  0  0  0  0  0  0  # atno 8008 bound_to 7997
  155.1096  140.3237  155.4506 H   0  0  0  0  0  0  0  0  0  0  0  0  # atno 8009 bound_to 7997
  156.2655  140.2016  156.6220 H   0  0  0  0  0  0  0  0  0  0  0  0  # atno 8010 bound_to 7997
  139.5368  144.2474  152.0812 H   0  0  0  0  0  0  0  0  0  0  0  0  # atno 10167 bound_to 10162
  157.0148  131.0215  151.2792 H   0  0  0  0  0  0  0  0  0  0  0  0  # atno 10718 bound_to 10713
  154.2314  135.6360  153.5176 H   0  0  0  0  0  0  0  0  0  0  0  0  # atno 10763 bound_to 10752
  152.9948  135.5520  154.6009 H   0  0  0  0  0  0  0  0  0  0  0  0  # atno 10764 bound_to 10752
  154.5492  135.2900  155.0998 H   0  0  0  0  0  0  0  0  0  0  0  0  # atno 10765 bound_to 10752
  140.7808  133.8364  155.9290 H   0  0  0  0  0  0  0  0  0  0  0  0  # atno 11005 bound_to 11000
  145.2827  139.1912  143.4782 LP  0  0  0  0  0  0  0  0  0  0  0  0  # atno 17320 bound_to 7965
  146.3325  140.2791  142.8609 LP  0  0  0  0  0  0  0  0  0  0  0  0  # atno 17321 bound_to 7965
  140.1946  144.4718  150.6462 LP  0  0  0  0  0  0  0  0  0  0  0  0  # atno 17342 bound_to 10162
  140.6579  143.2243  151.5925 LP  0  0  0  0  0  0  0  0  0  0  0  0  # atno 17343 bound_to 10162
  157.5294  130.8048  149.7899 LP  0  0  0  0  0  0  0  0  0  0  0  0  # atno 17370 bound_to 10713
  156.0123  130.3828  150.2224 LP  0  0  0  0  0  0  0  0  0  0  0  0  # atno 17371 bound_to 10713
  140.9484  134.1811  157.4746 LP  0  0  0  0  0  0  0  0  0  0  0  0  # atno 17394 bound_to 11000
  139.8743  134.9899  156.5480 LP  0  0  0  0  0  0  0  0  0  0  0  0  # atno 17395 bound_to 11000

$$$$
