AV-unprocessed.smi:1703|AV-procd|sdf|6856|dock9
  -GOLD-   22720 8 43D 1   1.00000     0.00000
 Structure written by MMmdl.
 48 50  0  0  0  0  0  0  0  0  1 V2000
  144.6768  139.4188  158.9778 C   0  0  0  0  0  0  0  0  0  0  0  0
  145.2117  140.8317  158.7233 C   0  0  2  0  0  0  0  0  0  0  0  0
  146.6470  140.8204  158.1624 C   0  0  0  0  0  0  0  0  0  0  0  0
  147.1778  142.1718  157.9950 N   0  0  0  0  0  0  0  0  0  0  0  0
  148.5473  142.1862  157.4771 C   0  0  0  0  0  0  0  0  0  0  0  0
  148.7346  141.5700  156.0764 C   0  0  1  0  0  0  0  0  0  0  0  0
  147.8752  142.2391  155.1746 O   0  0  0  0  0  0  0  0  0  0  0  0
  150.1895  141.7085  155.5881 C   0  0  0  0  0  0  0  0  0  0  0  0
  151.1653  141.3964  156.6252 N   0  0  0  0  0  0  0  0  0  0  0  0
  151.8889  140.2586  156.7803 C   0  0  0  0  0  0  0  0  0  0  0  0
  151.7582  139.1056  155.8254 C   0  0  0  0  0  0  0  0  0  0  0  0
  152.9634  138.7713  155.1676 O   0  0  0  0  0  0  0  0  0  0  0  0
  152.7241  140.2440  157.8220 N   0  0  0  0  0  0  0  0  0  0  0  0
  152.5177  141.4818  158.3983 C   0  0  0  0  0  0  0  0  0  0  0  0
  153.1049  142.0723  159.5402 C   0  0  0  0  0  0  0  0  0  0  0  0
  152.7330  143.3716  159.9427 C   0  0  0  0  0  0  0  0  0  0  0  0
  151.7718  144.0979  159.2102 C   0  0  0  0  0  0  0  0  0  0  0  0
  151.1746  143.5276  158.0696 C   0  0  0  0  0  0  0  0  0  0  0  0
  151.5478  142.2293  157.6729 C   0  0  0  0  0  0  0  0  0  0  0  0
  147.0978  142.8693  159.2736 C   0  0  0  0  0  0  0  0  0  0  0  0
  145.6628  142.8869  159.8339 C   0  0  2  0  0  0  0  0  0  0  0  0
  145.5844  143.5501  161.2129 C   0  0  0  0  0  0  0  0  0  0  0  0
  145.1971  141.5460  159.9558 O   0  0  0  0  0  0  0  0  0  0  0  0
  144.6479  138.8385  158.0553 H   0  0  0  0  0  0  0  0  0  0  0  0
  143.6643  139.4525  159.3809 H   0  0  0  0  0  0  0  0  0  0  0  0
  145.3021  138.8824  159.6921 H   0  0  0  0  0  0  0  0  0  0  0  0
  144.5487  141.3342  158.0168 H   0  0  0  0  0  0  0  0  0  0  0  0
  147.2949  140.2499  158.8302 H   0  0  0  0  0  0  0  0  0  0  0  0
  146.6391  140.2933  157.2096 H   0  0  0  0  0  0  0  0  0  0  0  0
  148.9069  143.2160  157.4406 H   0  0  0  0  0  0  0  0  0  0  0  0
  149.1999  141.6726  158.1850 H   0  0  0  0  0  0  0  0  0  0  0  0
  148.4704  140.5140  156.0821 H   0  0  0  0  0  0  0  0  0  0  0  0
  148.0088  143.1698  155.2725 H   0  0  0  0  0  0  0  0  0  0  0  0
  150.3650  141.0495  154.7370 H   0  0  0  0  0  0  0  0  0  0  0  0
  150.3720  142.7185  155.2222 H   0  0  0  0  0  0  0  0  0  0  0  0
  151.4165  138.2218  156.3635 H   0  0  0  0  0  0  0  0  0  0  0  0
  151.0054  139.3468  155.0752 H   0  0  0  0  0  0  0  0  0  0  0  0
  153.2087  139.4952  154.6118 H   0  0  0  0  0  0  0  0  0  0  0  0
  153.8433  141.5245  160.1070 H   0  0  0  0  0  0  0  0  0  0  0  0
  153.1885  143.8138  160.8167 H   0  0  0  0  0  0  0  0  0  0  0  0
  151.4940  145.0935  159.5235 H   0  0  0  0  0  0  0  0  0  0  0  0
  150.4416  144.0834  157.5038 H   0  0  0  0  0  0  0  0  0  0  0  0
  147.7646  142.3938  159.9952 H   0  0  0  0  0  0  0  0  0  0  0  0
  147.4492  143.8950  159.1552 H   0  0  0  0  0  0  0  0  0  0  0  0
  145.0093  143.4277  159.1473 H   0  0  0  0  0  0  0  0  0  0  0  0
  145.9260  144.5844  161.1714 H   0  0  0  0  0  0  0  0  0  0  0  0
  146.2011  143.0220  161.9406 H   0  0  0  0  0  0  0  0  0  0  0  0
  144.5595  143.5535  161.5846 H   0  0  0  0  0  0  0  0  0  0  0  0
  1  2  1  0  0  0  0
  1 24  1  0  0  0  0
  1 25  1  0  0  0  0
  1 26  1  0  0  0  0
  2 23  1  0  0  0  0
  2  3  1  0  0  0  0
  2 27  1  0  0  0  0
  3  4  1  0  0  0  0
  3 28  1  0  0  0  0
  3 29  1  0  0  0  0
  4  5  1  0  0  0  0
  4 20  1  0  0  0  0
  5  6  1  0  0  0  0
  5 30  1  0  0  0  0
  5 31  1  0  0  0  0
  6  7  1  0  0  0  0
  6  8  1  0  0  0  0
  6 32  1  0  0  0  0
  7 33  1  0  0  0  0
  8  9  1  0  0  0  0
  8 34  1  0  0  0  0
  8 35  1  0  0  0  0
  9 19  1  0  0  0  0
  9 10  1  0  0  0  0
 10 11  1  0  0  0  0
 10 13  2  0  0  0  0
 11 12  1  0  0  0  0
 11 36  1  0  0  0  0
 11 37  1  0  0  0  0
 12 38  1  0  0  0  0
 13 14  1  0  0  0  0
 14 19  2  0  0  0  0
 14 15  1  0  0  0  0
 15 16  2  0  0  0  0
 15 39  1  0  0  0  0
 16 17  1  0  0  0  0
 16 40  1  0  0  0  0
 17 18  2  0  0  0  0
 17 41  1  0  0  0  0
 18 19  1  0  0  0  0
 18 42  1  0  0  0  0
 20 21  1  0  0  0  0
 20 43  1  0  0  0  0
 20 44  1  0  0  0  0
 21 22  1  0  0  0  0
 21 23  1  0  0  0  0
 21 45  1  0  0  0  0
 22 46  1  0  0  0  0
 22 47  1  0  0  0  0
 22 48  1  0  0  0  0
M  END
> <s_m_source_file>
AV-unprocessed.smi

> <i_m_source_file_index>
1703

> <i_lp_mmshare_version>
43012

> <i_f3d_flags>
0

> <s_epik_input>
W0NIM11bQ0BASF0xW0NIMl1OKFtDSDJdW0NASF0oTzEpW0NIM10pW0NIMl1bQ0BIXShbT0hdKVtDSDJdbihjKG4yKVtDSDJdW09IXSljKGMyMylbY0hdW2NIXVtjSF1bY0hdMw==

> <s_epik_cmdline>
J2VwaWtfcHl0aG9uJywgJy1waCcsICc3LjAnLCAnLXRuJywgJzgnLCAnLW1hJywgJzIwMCcsICctbWV0YWxfYmluZGluZycsICctaW1hZScsICc8aW5maWxlLm1hZT4nLCAnLW9tYWUnLCAnPG91dGZpbGUubWFlPic=

> <r_epik_Ionization_Penalty>
0.307685

> <r_epik_Ionization_Penalty_Charging>
0

> <r_epik_Ionization_Penalty_Neutral>
0.307685

> <r_epik_State_Penalty>
0.277856

> <r_epik_Charging_Adjusted_Penalty>
0.277856

> <i_epik_Tot_Q>
0

> <i_epik_Tot_abs_Q>
0

> <r_epik_Metal_State_Penalty>
0.238959

> <b_epik_Metal_Only>
0

> <s_lp_Force_Field>
OPLS_2005

> <r_lp_Energy>
30.3815

> <b_lp_Chiralities_Consistent>
1

> <s_lp_Variant>
AV-unprocessed.smi:1703-4

> <Gold.Version>
5.8.1

> <Gold.Id.Protein>
6NUR|6NUR_protein|mol2

> <Gold.PLP.Fitness>
43.4404

> <Gold.PLP.PLP>
-35.8893

> <Gold.PLP.part.hbond>
-3.6131

> <Gold.PLP.part.metal>
0.0000

> <Gold.PLP.part.buried>
-2.5684

> <Gold.PLP.part.nonpolar>
-28.5304

> <Gold.PLP.part.repulsive>
0.1247

> <Gold.PLP.ligand.clash>
0.0000

> <Gold.PLP.ligand.torsion>
0.3901

> <Gold.PLP.Chemscore.Hbond>
2.7590

> <Gold.PLP.Chemscore.CHOScore>
0.0000

> <Gold.PLP.Chemscore.Metal>
0.0000

> <Gold.Chemscore.Hbonds>
donor molecule, donor type, donor heavy atom, donor atom, acceptor molecule, acceptor atom, score
      L1  H     7    33       P1  8028  1.00
      P1  H  6934  6946       L1    23  0.72
      P1  H  7997  8009       L1    13  0.98

> <Gold.PLP.Chemscore.Internal.Correction>
0.0544

> <Gold.Rescore>
     Score         DG    S(hbond)    S(metal)    S(lipo)     H(rot)  DE(clash)    DE(int)     intcor
     12.63     -13.23       1.10        0.00      97.91       2.88       0.07       0.53       ----

> <Gold.Chemscore.Fitness>
12.6307

> <Gold.Chemscore.DG>
-13.2319

> <Gold.Chemscore.ZeroCoef>
-5.4800

> <Gold.Chemscore.Hbond>
1.0967

> <Gold.Chemscore.Metal>
0.0000

> <Gold.Chemscore.Lipo>
97.9144

> <Gold.Chemscore.Internal_Hbond>
0.0000

> <Gold.Chemscore.DEClash>
0.0705

> <Gold.Chemscore.DEInternal>
0.5306

> <Gold.Chemscore.Rot>
2.8778

> <Gold.Chemscore.Internal.Correction>
   9.000000E+99

> <Gold.Chemscore.Hbonds>
donor molecule, donor type, donor heavy atom, donor atom, acceptor molecule, acceptor atom, score
      L1  H     7    33       P1  8028  0.82
      P1  H  6934  6946       L1    23  0.02
      P1  H  7997  8009       L1    13  0.20

> <Gold.Chemscore.Hbond.Weighted>
-3.6629

> <Gold.Chemscore.Metal.Weighted>
-0.0000

> <Gold.Chemscore.Lipo.Weighted>
-11.4560

> <Gold.Chemscore.Internal_Hbond.Weighted>
0.0000

> <Gold.Chemscore.DEClash.Weighted>
0.0705

> <Gold.Chemscore.DEInternal.Weighted>
0.5306

> <Gold.Chemscore.Rot.Weighted>
7.3671

> <Gold.Chemscore.Internal.Correction.Weighted>
   9.000000E+99

> <Gold.Protein.RotatedTorsions>
[ 6907 6896 6895 6894 ] final -163.94 input  -60.11 | X-H torsion
[ 7974 7965 7964 7962 ] final -163.36 input  175.53 | X-H torsion
[ 8008 7997 7996 7995 ] final  165.40 input   59.86 | X-H torsion
[ 10167 10162 10161 10158 ] final  152.32 input  -65.29 | X-H torsion
[ 10718 10713 10712 10709 ] final  137.66 input   66.30 | X-H torsion
[ 10763 10752 10751 10750 ] final   -4.57 input  -60.55 | X-H torsion
[ 11005 11000 10999 10996 ] final  -66.23 input  -57.11 | X-H torsion

> <Gold.Protein.ActiveResidues>
 VAL166  LYS551  ARG553  GLY616  TRP617  ASP618  TYR619  PRO620  LYS621  CYS622 
 ASP623  PHE694  ASN695  SER759  ASP760  ASP761  ALA762  ILE779  LEU786  VAL792 
 PHE793  MET794  SER795  GLU796  ALA797  LYS798  CYS799  TRP800  GLU811  SER814 

> <Gold.Protein.RotatedAtoms>
  151.4039  133.3748  159.2735 H   0  0  0  0  0  0  0  0  0  0  0  0  # atno 6907 bound_to 6896
  150.9413  134.8823  159.7624 H   0  0  0  0  0  0  0  0  0  0  0  0  # atno 6908 bound_to 6896
  152.5072  134.3990  159.9462 H   0  0  0  0  0  0  0  0  0  0  0  0  # atno 6909 bound_to 6896
  144.7328  140.3118  143.6186 H   0  0  0  0  0  0  0  0  0  0  0  0  # atno 7974 bound_to 7965
  156.1803  140.1671  156.8286 H   0  0  0  0  0  0  0  0  0  0  0  0  # atno 8008 bound_to 7997
  154.5353  140.0748  156.8449 H   0  0  0  0  0  0  0  0  0  0  0  0  # atno 8009 bound_to 7997
  155.3324  140.3380  155.4242 H   0  0  0  0  0  0  0  0  0  0  0  0  # atno 8010 bound_to 7997
  139.4834  144.5367  151.7632 H   0  0  0  0  0  0  0  0  0  0  0  0  # atno 10167 bound_to 10162
  157.4337  131.1051  151.0221 H   0  0  0  0  0  0  0  0  0  0  0  0  # atno 10718 bound_to 10713
  153.3866  135.7000  153.6525 H   0  0  0  0  0  0  0  0  0  0  0  0  # atno 10763 bound_to 10752
  153.5115  135.3631  155.2589 H   0  0  0  0  0  0  0  0  0  0  0  0  # atno 10764 bound_to 10752
  154.8698  135.4136  154.3175 H   0  0  0  0  0  0  0  0  0  0  0  0  # atno 10765 bound_to 10752
  141.1476  133.6695  156.6107 H   0  0  0  0  0  0  0  0  0  0  0  0  # atno 11005 bound_to 11000
  145.7657  139.1840  143.2241 LP  0  0  0  0  0  0  0  0  0  0  0  0  # atno 17320 bound_to 7965
  146.0951  140.7610  142.9576 LP  0  0  0  0  0  0  0  0  0  0  0  0  # atno 17321 bound_to 7965
  140.4901  144.1323  150.5948 LP  0  0  0  0  0  0  0  0  0  0  0  0  # atno 17342 bound_to 10162
  140.4181  143.2625  151.9750 LP  0  0  0  0  0  0  0  0  0  0  0  0  # atno 17343 bound_to 10162
  157.1108  130.6021  149.5481 LP  0  0  0  0  0  0  0  0  0  0  0  0  # atno 17370 bound_to 10713
  155.9923  130.4980  150.7333 LP  0  0  0  0  0  0  0  0  0  0  0  0  # atno 17371 bound_to 10713
  140.3617  134.7682  157.4538 LP  0  0  0  0  0  0  0  0  0  0  0  0  # atno 17394 bound_to 11000
  140.0780  134.5770  155.8570 LP  0  0  0  0  0  0  0  0  0  0  0  0  # atno 17395 bound_to 11000

$$$$
