AV-unprocessed.smi:2445|AV-procd|sdf|9637|dock5
  -GOLD-   2272013273D 1   1.00000     0.00000
 Structure written by MMmdl.
 40 41  0  0  0  0  0  0  0  0  1 V2000
  145.5161  128.7847  151.9310 C   0  0  0  0  0  0  0  0  0  0  0  0
  146.2472  130.0338  152.2886 C   0  0  0  0  0  0  0  0  0  0  0  0
  145.9272  131.3232  151.9432 C   0  0  0  0  0  0  0  0  0  0  0  0
  146.8198  132.2779  152.4354 N   0  0  0  0  0  0  0  0  0  0  0  0
  147.8109  131.7349  153.1470 C   0  0  0  0  0  0  0  0  0  0  0  0
  148.9042  132.5366  153.7832 C   0  0  2  0  0  0  0  0  0  0  0  0
  149.9733  131.6252  154.4103 C   0  0  0  0  0  0  0  0  0  0  0  0
  148.3328  133.5849  154.7628 C   0  0  0  0  0  0  0  0  0  0  0  0
  148.7098  134.9517  154.4154 N   0  0  0  0  0  0  0  0  0  0  0  0
  148.7477  135.9807  155.2729 C   0  0  0  0  0  0  0  0  0  0  0  0
  148.4624  135.8946  156.4673 O   0  0  0  0  0  0  0  0  0  0  0  0
  149.1402  137.1128  154.6720 N   0  0  0  0  0  0  0  0  0  0  0  0
  149.2832  138.4132  155.3276 C   0  0  2  0  0  0  0  0  0  0  0  0
  148.2854  139.4169  154.7500 C   0  0  0  0  0  0  0  0  0  0  0  0
  149.1346  140.6382  154.4128 C   0  0  0  0  0  0  0  0  0  0  0  0
  150.4023  140.0816  154.1144 O   0  0  0  0  0  0  0  0  0  0  0  0
  150.6577  139.0820  155.0900 C   0  0  2  0  0  0  0  0  0  0  0  0
  151.8205  138.1852  154.6348 C   0  0  0  0  0  0  0  0  0  0  0  0
  147.6964  129.9797  153.2574 S   0  0  0  0  0  0  0  0  0  0  0  0
  144.6811  128.9962  151.2624 H   0  0  0  0  0  0  0  0  0  0  0  0
  145.1190  128.3003  152.8231 H   0  0  0  0  0  0  0  0  0  0  0  0
  146.1785  128.0792  151.4290 H   0  0  0  0  0  0  0  0  0  0  0  0
  145.0860  131.6512  151.3503 H   0  0  0  0  0  0  0  0  0  0  0  0
  149.3961  133.0826  152.9766 H   0  0  0  0  0  0  0  0  0  0  0  0
  150.3674  130.9239  153.6740 H   0  0  0  0  0  0  0  0  0  0  0  0
  149.5652  131.0442  155.2376 H   0  0  0  0  0  0  0  0  0  0  0  0
  150.8169  132.2001  154.7926 H   0  0  0  0  0  0  0  0  0  0  0  0
  147.2447  133.5088  154.8043 H   0  0  0  0  0  0  0  0  0  0  0  0
  148.6920  133.3878  155.7731 H   0  0  0  0  0  0  0  0  0  0  0  0
  148.9650  135.1233  153.4539 H   0  0  0  0  0  0  0  0  0  0  0  0
  149.3598  137.0764  153.6875 H   0  0  0  0  0  0  0  0  0  0  0  0
  149.1140  138.3111  156.4012 H   0  0  0  0  0  0  0  0  0  0  0  0
  147.8290  139.0337  153.8360 H   0  0  0  0  0  0  0  0  0  0  0  0
  147.4799  139.6568  155.4443 H   0  0  0  0  0  0  0  0  0  0  0  0
  148.7368  141.2109  153.5749 H   0  0  0  0  0  0  0  0  0  0  0  0
  149.2209  141.3029  155.2739 H   0  0  0  0  0  0  0  0  0  0  0  0
  150.9543  139.5938  156.0073 H   0  0  0  0  0  0  0  0  0  0  0  0
  152.0276  137.4072  155.3700 H   0  0  0  0  0  0  0  0  0  0  0  0
  152.7313  138.7706  154.5100 H   0  0  0  0  0  0  0  0  0  0  0  0
  151.6088  137.7032  153.6803 H   0  0  0  0  0  0  0  0  0  0  0  0
  1  2  1  0  0  0  0
  1 20  1  0  0  0  0
  1 21  1  0  0  0  0
  1 22  1  0  0  0  0
  2 19  1  0  0  0  0
  2  3  2  0  0  0  0
  3  4  1  0  0  0  0
  3 23  1  0  0  0  0
  4  5  2  0  0  0  0
  5  6  1  0  0  0  0
  5 19  1  0  0  0  0
  6  7  1  0  0  0  0
  6  8  1  0  0  0  0
  6 24  1  0  0  0  0
  7 25  1  0  0  0  0
  7 26  1  0  0  0  0
  7 27  1  0  0  0  0
  8  9  1  0  0  0  0
  8 28  1  0  0  0  0
  8 29  1  0  0  0  0
  9 10  1  0  0  0  0
  9 30  1  0  0  0  0
 10 11  2  0  0  0  0
 10 12  1  0  0  0  0
 12 13  1  0  0  0  0
 12 31  1  0  0  0  0
 13 17  1  0  0  0  0
 13 14  1  0  0  0  0
 13 32  1  0  0  0  0
 14 15  1  0  0  0  0
 14 33  1  0  0  0  0
 14 34  1  0  0  0  0
 15 16  1  0  0  0  0
 15 35  1  0  0  0  0
 15 36  1  0  0  0  0
 16 17  1  0  0  0  0
 17 18  1  0  0  0  0
 17 37  1  0  0  0  0
 18 38  1  0  0  0  0
 18 39  1  0  0  0  0
 18 40  1  0  0  0  0
M  END
> <s_m_source_file>
AV-unprocessed.smi

> <i_m_source_file_index>
2445

> <i_lp_mmshare_version>
43012

> <i_f3d_flags>
0

> <s_epik_input>
W0NIM11jMVtjSF1uYyhzMSlbQ0BIXShbQ0gzXSlbQ0gyXVtOSF1DKD1PKVtOSF1bQ0BASF0yW0NIMl1bQ0gyXU9bQ0BIXTJbQ0gzXQ==

> <s_epik_cmdline>
J2VwaWtfcHl0aG9uJywgJy1waCcsICc3LjAnLCAnLXRuJywgJzgnLCAnLW1hJywgJzIwMCcsICctbWV0YWxfYmluZGluZycsICctaW1hZScsICc8aW5maWxlLm1hZT4nLCAnLW9tYWUnLCAnPG91dGZpbGUubWFlPic=

> <r_epik_Ionization_Penalty>
0.000649483

> <r_epik_Ionization_Penalty_Charging>
0

> <r_epik_Ionization_Penalty_Neutral>
0.000649483

> <r_epik_State_Penalty>
0.000379895

> <r_epik_Charging_Adjusted_Penalty>
0.000379895

> <i_epik_Tot_Q>
0

> <i_epik_Tot_abs_Q>
0

> <r_epik_Metal_State_Penalty>
-0

> <b_epik_Metal_Only>
0

> <s_lp_Force_Field>
OPLS_2005

> <r_lp_Energy>
6.28074

> <b_lp_Chiralities_Consistent>
1

> <s_lp_Variant>
AV-unprocessed.smi:2445-5

> <Gold.Version>
5.8.1

> <Gold.Id.Protein>
6NUR|6NUR_protein|mol2

> <Gold.PLP.Fitness>
39.0230

> <Gold.PLP.PLP>
-31.9906

> <Gold.PLP.part.hbond>
-2.8668

> <Gold.PLP.part.metal>
0.0000

> <Gold.PLP.part.buried>
-4.9874

> <Gold.PLP.part.nonpolar>
-25.3160

> <Gold.PLP.part.repulsive>
0.7859

> <Gold.PLP.ligand.clash>
0.0000

> <Gold.PLP.ligand.torsion>
0.9784

> <Gold.PLP.Chemscore.Hbond>
2.9675

> <Gold.PLP.Chemscore.CHOScore>
0.0000

> <Gold.PLP.Chemscore.Metal>
0.0000

> <Gold.Chemscore.Hbonds>
donor molecule, donor type, donor heavy atom, donor atom, acceptor molecule, acceptor atom, score
      L1  H     9    30       P1  7948  1.00
      L1  H    12    31       P1  7948  0.96
      P1  H  7989  7998       L1    16  1.00

> <Gold.PLP.Chemscore.Internal.Correction>
0.0869

> <Gold.Rescore>
     Score         DG    S(hbond)    S(metal)    S(lipo)     H(rot)  DE(clash)    DE(int)     intcor
     18.54     -19.66       2.51        0.00      83.03       1.53       0.16       0.97       ----

> <Gold.Chemscore.Fitness>
18.5350

> <Gold.Chemscore.DG>
-19.6611

> <Gold.Chemscore.ZeroCoef>
-5.4800

> <Gold.Chemscore.Hbond>
2.5120

> <Gold.Chemscore.Metal>
0.0000

> <Gold.Chemscore.Lipo>
83.0287

> <Gold.Chemscore.Internal_Hbond>
0.0000

> <Gold.Chemscore.DEClash>
0.1573

> <Gold.Chemscore.DEInternal>
0.9688

> <Gold.Chemscore.Rot>
1.5325

> <Gold.Chemscore.Internal.Correction>
   9.000000E+99

> <Gold.Chemscore.Hbonds>
donor molecule, donor type, donor heavy atom, donor atom, acceptor molecule, acceptor atom, score
      L1  H     9    30       P1  7948  0.43
      L1  H    12    31       P1  7948  0.83
      P1  H  7989  7998       L1    16  0.92

> <Gold.Chemscore.Hbond.Weighted>
-8.3901

> <Gold.Chemscore.Metal.Weighted>
-0.0000

> <Gold.Chemscore.Lipo.Weighted>
-9.7144

> <Gold.Chemscore.Internal_Hbond.Weighted>
0.0000

> <Gold.Chemscore.DEClash.Weighted>
0.1573

> <Gold.Chemscore.DEInternal.Weighted>
0.9688

> <Gold.Chemscore.Rot.Weighted>
3.9233

> <Gold.Chemscore.Internal.Correction.Weighted>
   9.000000E+99

> <Gold.Protein.RotatedTorsions>
[ 6907 6896 6895 6894 ] final  -59.49 input  -60.11 | X-H torsion
[ 7974 7965 7964 7962 ] final -144.21 input  175.53 | X-H torsion
[ 8008 7997 7996 7995 ] final  -63.26 input   59.86 | X-H torsion
[ 10167 10162 10161 10158 ] final -146.08 input  -65.29 | X-H torsion
[ 10718 10713 10712 10709 ] final  -53.48 input   66.30 | X-H torsion
[ 10763 10752 10751 10750 ] final  -18.60 input  -60.55 | X-H torsion
[ 11005 11000 10999 10996 ] final   74.48 input  -57.11 | X-H torsion

> <Gold.Protein.ActiveResidues>
 VAL166  LYS551  ARG553  GLY616  TRP617  ASP618  TYR619  PRO620  LYS621  CYS622 
 ASP623  PHE694  ASN695  SER759  ASP760  ASP761  ALA762  ILE779  LEU786  VAL792 
 PHE793  MET794  SER795  GLU796  ALA797  LYS798  CYS799  TRP800  GLU811  SER814 

> <Gold.Protein.RotatedAtoms>
  150.7926  134.6962  159.6523 H   0  0  0  0  0  0  0  0  0  0  0  0  # atno 6907 bound_to 6896
  152.4034  134.6244  160.0069 H   0  0  0  0  0  0  0  0  0  0  0  0  # atno 6908 bound_to 6896
  151.6509  133.3284  159.3188 H   0  0  0  0  0  0  0  0  0  0  0  0  # atno 6909 bound_to 6896
  144.8314  140.5738  143.5513 H   0  0  0  0  0  0  0  0  0  0  0  0  # atno 7974 bound_to 7965
  154.4544  140.0978  156.6715 H   0  0  0  0  0  0  0  0  0  0  0  0  # atno 8008 bound_to 7997
  155.5183  140.3478  155.4383 H   0  0  0  0  0  0  0  0  0  0  0  0  # atno 8009 bound_to 7997
  156.0748  140.1358  156.9773 H   0  0  0  0  0  0  0  0  0  0  0  0  # atno 8010 bound_to 7997
  139.7747  143.8188  152.2630 H   0  0  0  0  0  0  0  0  0  0  0  0  # atno 10167 bound_to 10162
  156.1531  130.4151  149.9912 H   0  0  0  0  0  0  0  0  0  0  0  0  # atno 10718 bound_to 10713
  153.5919  135.7002  153.5420 H   0  0  0  0  0  0  0  0  0  0  0  0  # atno 10763 bound_to 10752
  153.3171  135.4084  155.1385 H   0  0  0  0  0  0  0  0  0  0  0  0  # atno 10764 bound_to 10752
  154.8599  135.3686  154.5451 H   0  0  0  0  0  0  0  0  0  0  0  0  # atno 10765 bound_to 10752
  139.9389  134.7437  156.1154 H   0  0  0  0  0  0  0  0  0  0  0  0  # atno 11005 bound_to 11000
  145.4888  139.1490  143.3721 LP  0  0  0  0  0  0  0  0  0  0  0  0  # atno 17320 bound_to 7965
  146.2616  140.5026  142.8851 LP  0  0  0  0  0  0  0  0  0  0  0  0  # atno 17321 bound_to 7965
  139.8232  144.7286  150.9545 LP  0  0  0  0  0  0  0  0  0  0  0  0  # atno 17342 bound_to 10162
  140.7816  143.4139  151.0948 LP  0  0  0  0  0  0  0  0  0  0  0  0  # atno 17343 bound_to 10162
  156.7764  130.9205  151.3645 LP  0  0  0  0  0  0  0  0  0  0  0  0  # atno 17370 bound_to 10713
  157.6673  130.9019  149.9961 LP  0  0  0  0  0  0  0  0  0  0  0  0  # atno 17371 bound_to 10713
  141.1015  133.6675  156.2764 LP  0  0  0  0  0  0  0  0  0  0  0  0  # atno 17394 bound_to 11000
  140.6004  134.5561  157.5516 LP  0  0  0  0  0  0  0  0  0  0  0  0  # atno 17395 bound_to 11000

$$$$
