AV-unprocessed.smi:68|AV-procd|sdf|642|dock1
  -GOLD-   2262016533D 1   1.00000     0.00000
 Structure written by MMmdl.
 22 23  0  0  0  0  0  0  0  0  2 V2000
  150.9550  139.5993  154.4388 O   0  0  0  0  0  0  0  0  0  0  0  0
  151.0945  140.2168  155.4935 C   0  0  0  0  0  0  0  0  0  0  0  0
  152.0183  139.8700  156.4361 N   0  5  0  0  0  0  0  0  0  0  0  0
  152.1746  140.5567  157.6064 C   0  0  0  0  0  0  0  0  0  0  0  0
  153.0193  140.2545  158.4489 O   0  0  0  0  0  0  0  0  0  0  0  0
  151.3355  141.6776  157.8597 N   0  0  0  0  0  0  0  0  0  0  0  0
  151.4581  142.4610  159.1470 C   0  0  1  0  0  0  0  0  0  0  0  0
  152.7685  143.2615  159.1808 C   0  0  0  0  0  0  0  0  0  0  0  0
  152.2852  144.6939  159.0578 C   0  0  0  0  0  0  0  0  0  0  0  0
  150.8917  144.6156  159.6685 C   0  0  0  0  0  0  0  0  0  0  0  0
  150.3950  143.3653  159.2137 O   0  0  0  0  0  0  0  0  0  0  0  0
  150.3918  142.0531  156.9199 C   0  0  0  0  0  0  0  0  0  0  0  0
  150.2442  141.3742  155.7643 C   0  0  0  0  0  0  0  0  0  0  0  0
  149.3184  141.7648  154.8716 F   0  0  0  0  0  0  0  0  0  0  0  0
  151.3698  141.7637  159.9796 H   0  0  0  0  0  0  0  0  0  0  0  0
  153.2510  143.0963  160.1447 H   0  0  0  0  0  0  0  0  0  0  0  0
  153.4562  142.9647  158.3877 H   0  0  0  0  0  0  0  0  0  0  0  0
  152.9334  145.4084  159.5655 H   0  0  0  0  0  0  0  0  0  0  0  0
  152.2185  144.9799  158.0076 H   0  0  0  0  0  0  0  0  0  0  0  0
  150.9472  144.6085  160.7581 H   0  0  0  0  0  0  0  0  0  0  0  0
  150.2481  145.4398  159.3609 H   0  0  0  0  0  0  0  0  0  0  0  0
  149.7583  142.9059  157.1124 H   0  0  0  0  0  0  0  0  0  0  0  0
  1  2  2  0  0  0  0
  2 13  1  0  0  0  0
  2  3  1  0  0  0  0
  3  4  1  0  0  0  0
  4  5  2  0  0  0  0
  4  6  1  0  0  0  0
  6  7  1  0  0  0  0
  6 12  1  0  0  0  0
  7 11  1  0  0  0  0
  7  8  1  0  0  0  0
  7 15  1  0  0  0  0
  8  9  1  0  0  0  0
  8 16  1  0  0  0  0
  8 17  1  0  0  0  0
  9 10  1  0  0  0  0
  9 18  1  0  0  0  0
  9 19  1  0  0  0  0
 10 11  1  0  0  0  0
 10 20  1  0  0  0  0
 10 21  1  0  0  0  0
 12 13  2  0  0  0  0
 12 22  1  0  0  0  0
 13 14  1  0  0  0  0
M  CHG  1   3  -1
M  END
> <s_m_source_file>
AV-unprocessed.smi

> <i_m_source_file_index>
68

> <i_lp_mmshare_version>
43012

> <i_f3d_flags>
0

> <s_epik_input>
Tz1jMVtuSF1jKD1PKW4oW2NIXWMxRilbQ0BASF0yW0NIMl1bQ0gyXVtDSDJdTzI=

> <s_epik_cmdline>
J2VwaWtfcHl0aG9uJywgJy1waCcsICc3LjAnLCAnLXRuJywgJzgnLCAnLW1hJywgJzIwMCcsICctbWV0YWxfYmluZGluZycsICctaW1hZScsICc8aW5maWxlLm1hZT4nLCAnLW9tYWUnLCAnPG91dGZpbGUubWFlPic=

> <r_epik_Ionization_Penalty>
1.69229

> <r_epik_Ionization_Penalty_Charging>
3.30034e-08

> <r_epik_Ionization_Penalty_Neutral>
1.69229

> <r_epik_State_Penalty>
1.7976

> <r_epik_Charging_Adjusted_Penalty>
1.7976

> <i_epik_Tot_Q>
-1

> <i_epik_Tot_abs_Q>
1

> <r_epik_Metal_State_Penalty>
0.0116051

> <b_epik_Metal_Only>
0

> <s_epik_Chemistry_Notes>
This compound contains an acetal/aminal-like group ( X-CH(R)-Y where X, Y are N, S, or O) that may be acid/base labile, releasing an aldehyde.

> <s_lp_Force_Field>
OPLS_2005

> <r_lp_Energy>
34.1498

> <b_lp_Chiralities_Consistent>
1

> <s_lp_Variant>
AV-unprocessed.smi:68-4

> <Gold.Version>
5.8.1

> <Gold.Id.Protein>
6NUR|6NUR_protein|mol2

> <Gold.PLP.Fitness>
37.8344

> <Gold.PLP.PLP>
-31.1456

> <Gold.PLP.part.hbond>
-2.3910

> <Gold.PLP.part.metal>
0.0000

> <Gold.PLP.part.buried>
-1.6192

> <Gold.PLP.part.nonpolar>
-26.4819

> <Gold.PLP.part.repulsive>
0.1993

> <Gold.PLP.ligand.clash>
0.0000

> <Gold.PLP.ligand.torsion>
0.1645

> <Gold.PLP.Chemscore.Hbond>
1.4046

> <Gold.PLP.Chemscore.CHOScore>
0.9339

> <Gold.PLP.Chemscore.Metal>
0.0000

> <Gold.Chemscore.Hbonds>
donor molecule, donor type, donor heavy atom, donor atom, acceptor molecule, acceptor atom, score
      P1  H  7989  7998       L1     1  0.70
      P1  H  7997  8010       L1     5  0.55
      L1  C    12    22       P1  8028  1.00

> <Gold.PLP.Chemscore.Internal.Correction>
0.0023

> <Gold.Rescore>
     Score         DG    S(hbond)    S(metal)    S(lipo)     H(rot)  DE(clash)    DE(int)     intcor
     10.93     -11.18       0.68        0.00      51.15       1.00       0.04       0.20       ----

> <Gold.Chemscore.Fitness>
10.9316

> <Gold.Chemscore.DG>
-11.1763

> <Gold.Chemscore.ZeroCoef>
-5.4800

> <Gold.Chemscore.Hbond>
0.6803

> <Gold.Chemscore.Metal>
0.0000

> <Gold.Chemscore.Lipo>
51.1450

> <Gold.Chemscore.Internal_Hbond>
0.0000

> <Gold.Chemscore.DEClash>
0.0398

> <Gold.Chemscore.DEInternal>
0.2049

> <Gold.Chemscore.Rot>
1.0000

> <Gold.Chemscore.Internal.Correction>
   9.000000E+99

> <Gold.Chemscore.Hbonds>
donor molecule, donor type, donor heavy atom, donor atom, acceptor molecule, acceptor atom, score
      P1  H  7989  7998       L1     1  0.07
      P1  H  7997  8010       L1     5  0.14

> <Gold.Chemscore.Hbond.Weighted>
-2.2723

> <Gold.Chemscore.Metal.Weighted>
-0.0000

> <Gold.Chemscore.Lipo.Weighted>
-5.9840

> <Gold.Chemscore.Internal_Hbond.Weighted>
0.0000

> <Gold.Chemscore.DEClash.Weighted>
0.0398

> <Gold.Chemscore.DEInternal.Weighted>
0.2049

> <Gold.Chemscore.Rot.Weighted>
2.5600

> <Gold.Chemscore.Internal.Correction.Weighted>
   9.000000E+99

> <Gold.Protein.RotatedTorsions>
[ 6907 6896 6895 6894 ] final  -12.06 input  -60.11 | X-H torsion
[ 7974 7965 7964 7962 ] final   22.97 input  175.53 | X-H torsion
[ 8008 7997 7996 7995 ] final   20.73 input   59.86 | X-H torsion
[ 10167 10162 10161 10158 ] final  -35.25 input  -65.29 | X-H torsion
[ 10718 10713 10712 10709 ] final  -43.83 input   66.30 | X-H torsion
[ 10763 10752 10751 10750 ] final  -43.71 input  -60.55 | X-H torsion
[ 11005 11000 10999 10996 ] final  133.74 input  -57.11 | X-H torsion

> <Gold.Protein.ActiveResidues>
 VAL166  LYS551  ARG553  GLY616  TRP617  ASP618  TYR619  PRO620  LYS621  CYS622 
 ASP623  PHE694  ASN695  SER759  ASP760  ASP761  ALA762  ILE779  LEU786  VAL792 
 PHE793  MET794  SER795  GLU796  ALA797  LYS798  CYS799  TRP800  GLU811  SER814 

> <Gold.Protein.RotatedAtoms>
  151.3765  135.0932  159.9481 H   0  0  0  0  0  0  0  0  0  0  0  0  # atno 6907 bound_to 6896
  152.5121  133.9114  159.7500 H   0  0  0  0  0  0  0  0  0  0  0  0  # atno 6908 bound_to 6896
  150.9538  133.6464  159.2796 H   0  0  0  0  0  0  0  0  0  0  0  0  # atno 6909 bound_to 6896
  146.2005  139.7810  142.8765 H   0  0  0  0  0  0  0  0  0  0  0  0  # atno 7974 bound_to 7965
  154.9400  140.3052  155.5125 H   0  0  0  0  0  0  0  0  0  0  0  0  # atno 8008 bound_to 7997
  156.2996  140.2338  156.4406 H   0  0  0  0  0  0  0  0  0  0  0  0  # atno 8009 bound_to 7997
  154.8154  140.0426  157.1361 H   0  0  0  0  0  0  0  0  0  0  0  0  # atno 8010 bound_to 7997
  140.7169  143.3491  151.2194 H   0  0  0  0  0  0  0  0  0  0  0  0  # atno 10167 bound_to 10162
  156.2449  130.4183  149.8717 H   0  0  0  0  0  0  0  0  0  0  0  0  # atno 10718 bound_to 10713
  154.0000  135.6694  153.4758 H   0  0  0  0  0  0  0  0  0  0  0  0  # atno 10763 bound_to 10752
  153.0667  135.4997  154.8211 H   0  0  0  0  0  0  0  0  0  0  0  0  # atno 10764 bound_to 10752
  154.7058  135.3087  154.9235 H   0  0  0  0  0  0  0  0  0  0  0  0  # atno 10765 bound_to 10752
  139.9871  134.9528  156.9768 H   0  0  0  0  0  0  0  0  0  0  0  0  # atno 11005 bound_to 11000
  145.3500  141.0305  143.3344 LP  0  0  0  0  0  0  0  0  0  0  0  0  # atno 17320 bound_to 7965
  144.8673  139.5089  143.6784 LP  0  0  0  0  0  0  0  0  0  0  0  0  # atno 17321 bound_to 7965
  139.7017  143.9522  152.2908 LP  0  0  0  0  0  0  0  0  0  0  0  0  # atno 17342 bound_to 10162
  139.9217  144.6795  150.8454 LP  0  0  0  0  0  0  0  0  0  0  0  0  # atno 17343 bound_to 10162
  156.6286  130.8656  151.3490 LP  0  0  0  0  0  0  0  0  0  0  0  0  # atno 17370 bound_to 10713
  157.7191  130.9535  150.1367 LP  0  0  0  0  0  0  0  0  0  0  0  0  # atno 17371 bound_to 10713
  140.4981  134.1125  155.7245 LP  0  0  0  0  0  0  0  0  0  0  0  0  # atno 17394 bound_to 11000
  141.1534  133.8928  157.2040 LP  0  0  0  0  0  0  0  0  0  0  0  0  # atno 17395 bound_to 11000

$$$$
