AV-unprocessed.smi:1202|AV-procd|sdf|5030|dock2
  -GOLD-   22720 4 53D 1   1.00000     0.00000
 Structure written by MMmdl.
 45 46  0  0  0  0  0  0  0  0  2 V2000
  144.1003  137.4869  151.4141 C   0  0  0  0  0  0  0  0  0  0  0  0
  145.0462  137.6173  152.5122 N   0  0  0  0  0  0  0  0  0  0  0  0
  144.7179  138.0285  153.7450 C   0  0  0  0  0  0  0  0  0  0  0  0
  143.5731  138.3476  154.0680 O   0  0  0  0  0  0  0  0  0  0  0  0
  145.8630  138.1059  154.7604 C   0  0  0  0  0  0  0  0  0  0  0  0
  147.0116  138.9188  154.2835 N   0  3  2  0  0  0  0  0  0  0  0  0
  148.1855  138.8243  155.1887 C   0  0  0  0  0  0  0  0  0  0  0  0
  149.4054  139.5581  154.6015 C   0  0  0  0  0  0  0  0  0  0  0  0
  149.0918  141.0259  154.2638 C   0  0  2  0  0  0  0  0  0  0  0  0
  148.9433  141.8120  155.4880 N   0  0  0  0  0  0  0  0  0  0  0  0
  149.8718  141.9339  156.4490 C   0  0  0  0  0  0  0  0  0  0  0  0
  150.9796  141.3997  156.3863 O   0  0  0  0  0  0  0  0  0  0  0  0
  149.4888  142.8144  157.6469 C   0  0  0  0  0  0  0  0  0  0  0  0
  150.6307  143.1359  158.5193 N   0  0  0  0  0  0  0  0  0  0  0  0
  151.0264  144.4866  158.5880 C   0  0  0  0  0  0  0  0  0  0  0  0
  152.0574  144.8864  159.3489 C   0  0  0  0  0  0  0  0  0  0  0  0
  152.7695  143.8892  160.1127 C   0  0  0  0  0  0  0  0  0  0  0  0
  152.4006  142.5941  160.0523 C   0  0  0  0  0  0  0  0  0  0  0  0
  151.2755  142.1523  159.2199 C   0  0  0  0  0  0  0  0  0  0  0  0
  150.9329  140.9711  159.1554 O   0  0  0  0  0  0  0  0  0  0  0  0
  147.8304  141.0966  153.3805 C   0  0  0  0  0  0  0  0  0  0  0  0
  146.6487  140.3341  154.0042 C   0  0  0  0  0  0  0  0  0  0  0  0
  144.6246  137.1919  150.5052 H   0  0  0  0  0  0  0  0  0  0  0  0
  143.5921  138.4327  151.2213 H   0  0  0  0  0  0  0  0  0  0  0  0
  143.3504  136.7269  151.6365 H   0  0  0  0  0  0  0  0  0  0  0  0
  146.0092  137.3803  152.3202 H   0  0  0  0  0  0  0  0  0  0  0  0
  145.5032  138.4915  155.7160 H   0  0  0  0  0  0  0  0  0  0  0  0
  146.1882  137.0801  154.9389 H   0  0  0  0  0  0  0  0  0  0  0  0
  147.9269  139.2350  156.1659 H   0  0  0  0  0  0  0  0  0  0  0  0
  148.4443  137.7765  155.3457 H   0  0  0  0  0  0  0  0  0  0  0  0
  150.2470  139.5000  155.2931 H   0  0  0  0  0  0  0  0  0  0  0  0
  149.7246  139.0441  153.6936 H   0  0  0  0  0  0  0  0  0  0  0  0
  149.9372  141.4314  153.7047 H   0  0  0  0  0  0  0  0  0  0  0  0
  148.0609  142.2833  155.6253 H   0  0  0  0  0  0  0  0  0  0  0  0
  149.0308  143.7269  157.2634 H   0  0  0  0  0  0  0  0  0  0  0  0
  148.7034  142.3228  158.2246 H   0  0  0  0  0  0  0  0  0  0  0  0
  150.4474  145.1682  157.9819 H   0  0  0  0  0  0  0  0  0  0  0  0
  152.3489  145.9257  159.3857 H   0  0  0  0  0  0  0  0  0  0  0  0
  153.6024  144.1828  160.7347 H   0  0  0  0  0  0  0  0  0  0  0  0
  152.9457  141.8621  160.6299 H   0  0  0  0  0  0  0  0  0  0  0  0
  147.5491  142.1332  153.1914 H   0  0  0  0  0  0  0  0  0  0  0  0
  148.0547  140.6652  152.4040 H   0  0  0  0  0  0  0  0  0  0  0  0
  145.8001  140.3770  153.3211 H   0  0  0  0  0  0  0  0  0  0  0  0
  146.3304  140.8199  154.9278 H   0  0  0  0  0  0  0  0  0  0  0  0
  147.2965  138.5093  153.4047 H   0  0  0  0  0  0  0  0  0  0  0  0
  1  2  1  0  0  0  0
  1 23  1  0  0  0  0
  1 24  1  0  0  0  0
  1 25  1  0  0  0  0
  2  3  1  0  0  0  0
  2 26  1  0  0  0  0
  3  4  2  0  0  0  0
  3  5  1  0  0  0  0
  5  6  1  0  0  0  0
  5 27  1  0  0  0  0
  5 28  1  0  0  0  0
  6 22  1  0  0  0  0
  6  7  1  0  0  0  0
  6 45  1  0  0  0  0
  7  8  1  0  0  0  0
  7 29  1  0  0  0  0
  7 30  1  0  0  0  0
  8  9  1  0  0  0  0
  8 31  1  0  0  0  0
  8 32  1  0  0  0  0
  9 10  1  0  0  0  0
  9 21  1  0  0  0  0
  9 33  1  0  0  0  0
 10 11  1  0  0  0  0
 10 34  1  0  0  0  0
 11 12  2  0  0  0  0
 11 13  1  0  0  0  0
 13 14  1  0  0  0  0
 13 35  1  0  0  0  0
 13 36  1  0  0  0  0
 14 19  1  0  0  0  0
 14 15  1  0  0  0  0
 15 16  2  0  0  0  0
 15 37  1  0  0  0  0
 16 17  1  0  0  0  0
 16 38  1  0  0  0  0
 17 18  2  0  0  0  0
 17 39  1  0  0  0  0
 18 19  1  0  0  0  0
 18 40  1  0  0  0  0
 19 20  2  0  0  0  0
 21 22  1  0  0  0  0
 21 41  1  0  0  0  0
 21 42  1  0  0  0  0
 22 43  1  0  0  0  0
 22 44  1  0  0  0  0
M  CHG  1   6   1
M  END
> <s_m_source_file>
AV-unprocessed.smi

> <i_m_source_file_index>
1202

> <i_lp_mmshare_version>
43012

> <i_f3d_flags>
0

> <s_epik_input>
W0NIM11bTkhdQyg9TylbQ0gyXU4xW0NIMl1bQ0gyXVtDSF0oW0NIMl1bQ0gyXTEpW05IXUMoPU8pW0NIMl1uMltjSF1bY0hdW2NIXVtjSF1jMj1P

> <s_epik_cmdline>
J2VwaWtfcHl0aG9uJywgJy1waCcsICc3LjAnLCAnLXRuJywgJzgnLCAnLW1hJywgJzIwMCcsICctbWV0YWxfYmluZGluZycsICctaW1hZScsICc8aW5maWxlLm1hZT4nLCAnLW9tYWUnLCAnPG91dGZpbGUubWFlPic=

> <r_lp_tautomer_probability>
1

> <r_epik_Ionization_Penalty>
0.983979

> <r_epik_Ionization_Penalty_Charging>
0.983957

> <r_epik_Ionization_Penalty_Neutral>
2.18432e-05

> <r_epik_State_Penalty>
1.03106

> <r_epik_Charging_Adjusted_Penalty>
2.01502

> <i_epik_Tot_Q>
1

> <i_epik_Tot_abs_Q>
1

> <r_epik_Metal_State_Penalty>
1.03477

> <b_epik_Metal_Only>
0

> <s_lp_Force_Field>
OPLS_2005

> <r_lp_Energy>
22.4374

> <b_lp_Chiralities_Consistent>
1

> <s_lp_Variant>
AV-unprocessed.smi:1202-3

> <Gold.Version>
5.8.1

> <Gold.Id.Protein>
6NUR|6NUR_protein|mol2

> <Gold.PLP.Fitness>
46.8534

> <Gold.PLP.PLP>
-34.8644

> <Gold.PLP.part.hbond>
-2.0000

> <Gold.PLP.part.metal>
0.0000

> <Gold.PLP.part.buried>
-2.2436

> <Gold.PLP.part.nonpolar>
-31.2762

> <Gold.PLP.part.repulsive>
0.1708

> <Gold.PLP.ligand.clash>
0.0000

> <Gold.PLP.ligand.torsion>
0.2046

> <Gold.PLP.Chemscore.Hbond>
2.9840

> <Gold.PLP.Chemscore.CHOScore>
1.1282

> <Gold.PLP.Chemscore.Metal>
0.0000

> <Gold.Chemscore.Hbonds>
donor molecule, donor type, donor heavy atom, donor atom, acceptor molecule, acceptor atom, score
      L1  C    15    37       P1  8028  0.20
      L1  C    15    37       P1  8029  0.31

> <Gold.PLP.Chemscore.Internal.Correction>
0.0615

> <Gold.Rescore>
     Score         DG    S(hbond)    S(metal)    S(lipo)     H(rot)  DE(clash)    DE(int)     intcor
     15.58     -16.68       1.92        0.00      89.70       2.23       0.73       0.37       ----

> <Gold.Chemscore.Fitness>
15.5799

> <Gold.Chemscore.DG>
-16.6780

> <Gold.Chemscore.ZeroCoef>
-5.4800

> <Gold.Chemscore.Hbond>
1.9233

> <Gold.Chemscore.Metal>
0.0000

> <Gold.Chemscore.Lipo>
89.6972

> <Gold.Chemscore.Internal_Hbond>
0.0000

> <Gold.Chemscore.DEClash>
0.7309

> <Gold.Chemscore.DEInternal>
0.3673

> <Gold.Chemscore.Rot>
2.2346

> <Gold.Chemscore.Internal.Correction>
   9.000000E+99

> <Gold.Chemscore.Hbond.Weighted>
-6.4240

> <Gold.Chemscore.Metal.Weighted>
-0.0000

> <Gold.Chemscore.Lipo.Weighted>
-10.4946

> <Gold.Chemscore.Internal_Hbond.Weighted>
0.0000

> <Gold.Chemscore.DEClash.Weighted>
0.7309

> <Gold.Chemscore.DEInternal.Weighted>
0.3673

> <Gold.Chemscore.Rot.Weighted>
5.7205

> <Gold.Chemscore.Internal.Correction.Weighted>
   9.000000E+99

> <Gold.Protein.RotatedTorsions>
[ 6907 6896 6895 6894 ] final   62.80 input  -60.11 | X-H torsion
[ 7974 7965 7964 7962 ] final  110.67 input  175.53 | X-H torsion
[ 8008 7997 7996 7995 ] final -141.15 input   59.86 | X-H torsion
[ 10167 10162 10161 10158 ] final -136.92 input  -65.29 | X-H torsion
[ 10718 10713 10712 10709 ] final  -32.67 input   66.30 | X-H torsion
[ 10763 10752 10751 10750 ] final  -13.61 input  -60.55 | X-H torsion
[ 11005 11000 10999 10996 ] final   34.33 input  -57.11 | X-H torsion

> <Gold.Protein.ActiveResidues>
 VAL166  LYS551  ARG553  GLY616  TRP617  ASP618  TYR619  PRO620  LYS621  CYS622 
 ASP623  PHE694  ASN695  SER759  ASP760  ASP761  ALA762  ILE779  LEU786  VAL792 
 PHE793  MET794  SER795  GLU796  ALA797  LYS798  CYS799  TRP800  GLU811  SER814 

> <Gold.Protein.RotatedAtoms>
  152.4201  134.5970  159.9989 H   0  0  0  0  0  0  0  0  0  0  0  0  # atno 6907 bound_to 6896
  151.6122  133.3340  159.3078 H   0  0  0  0  0  0  0  0  0  0  0  0  # atno 6908 bound_to 6896
  150.8090  134.7271  159.6736 H   0  0  0  0  0  0  0  0  0  0  0  0  # atno 6909 bound_to 6896
  145.2520  139.2736  143.4062 H   0  0  0  0  0  0  0  0  0  0  0  0  # atno 7974 bound_to 7965
  155.4731  140.0554  157.2977 H   0  0  0  0  0  0  0  0  0  0  0  0  # atno 8008 bound_to 7997
  154.4690  140.2032  155.9996 H   0  0  0  0  0  0  0  0  0  0  0  0  # atno 8009 bound_to 7997
  156.1024  140.3217  155.7964 H   0  0  0  0  0  0  0  0  0  0  0  0  # atno 8010 bound_to 7997
  139.8629  143.7054  152.2648 H   0  0  0  0  0  0  0  0  0  0  0  0  # atno 10167 bound_to 10162
  156.3720  130.4341  149.7537 H   0  0  0  0  0  0  0  0  0  0  0  0  # atno 10718 bound_to 10713
  153.5159  135.7016  153.5756 H   0  0  0  0  0  0  0  0  0  0  0  0  # atno 10763 bound_to 10752
  153.3827  135.3916  155.1868 H   0  0  0  0  0  0  0  0  0  0  0  0  # atno 10764 bound_to 10752
  154.8699  135.3839  154.4643 H   0  0  0  0  0  0  0  0  0  0  0  0  # atno 10765 bound_to 10752
  140.2539  134.3271  155.7880 H   0  0  0  0  0  0  0  0  0  0  0  0  # atno 11005 bound_to 11000
  146.3300  140.2913  142.8615 LP  0  0  0  0  0  0  0  0  0  0  0  0  # atno 17320 bound_to 7965
  144.9495  140.8163  143.5581 LP  0  0  0  0  0  0  0  0  0  0  0  0  # atno 17321 bound_to 7965
  139.7356  144.7572  151.0732 LP  0  0  0  0  0  0  0  0  0  0  0  0  # atno 17342 bound_to 10162
  140.7772  143.5034  150.9742 LP  0  0  0  0  0  0  0  0  0  0  0  0  # atno 17343 bound_to 10162
  156.4661  130.7975  151.2994 LP  0  0  0  0  0  0  0  0  0  0  0  0  # atno 17370 bound_to 10713
  157.7485  131.0050  150.3099 LP  0  0  0  0  0  0  0  0  0  0  0  0  # atno 17371 bound_to 10713
  141.2198  133.7370  156.9081 LP  0  0  0  0  0  0  0  0  0  0  0  0  # atno 17394 bound_to 11000
  140.1531  134.9217  157.2618 LP  0  0  0  0  0  0  0  0  0  0  0  0  # atno 17395 bound_to 11000

$$$$
