AV-unprocessed.smi:1640|AV-procd|sdf|6555|dock10
  -GOLD-   22720 7243D 1   1.00000     0.00000
 Structure written by MMmdl.
 46 47  0  0  0  0  0  0  0  0  2 V2000
  145.0185  133.6757  162.4476 C   0  0  0  0  0  0  0  0  0  0  0  0
  145.5840  135.0105  161.9338 C   0  0  0  0  0  0  0  0  0  0  0  0
  144.8151  136.1896  162.5490 C   0  0  0  0  0  0  0  0  0  0  0  0
  145.5759  135.0979  160.3943 C   0  0  0  0  0  0  0  0  0  0  0  0
  146.9699  134.9706  159.7554 C   0  0  0  0  0  0  0  0  0  0  0  0
  148.0329  136.4330  160.1240 S   0  0  0  0  0  0  0  0  0  0  0  0
  147.4085  137.5884  159.4591 O   0  0  0  0  0  0  0  0  0  0  0  0
  148.1449  136.4788  161.5910 O   0  0  0  0  0  0  0  0  0  0  0  0
  149.4175  135.9811  159.4138 N   0  5  0  0  0  0  0  0  0  0  0  0
  149.8512  136.6598  158.2059 C   0  0  0  0  0  0  0  0  0  0  0  0
  151.2538  137.2650  158.3701 C   0  0  0  0  0  0  0  0  0  0  0  0
  152.0210  136.8788  159.4959 C   0  0  0  0  0  0  0  0  0  0  0  0
  153.3158  137.3990  159.6700 C   0  0  0  0  0  0  0  0  0  0  0  0
  153.8077  138.2954  158.7077 C   0  0  0  0  0  0  0  0  0  0  0  0
  153.0979  138.6818  157.6300 N   0  0  0  0  0  0  0  0  0  0  0  0
  151.8464  138.1895  157.4476 C   0  0  0  0  0  0  0  0  0  0  0  0
  151.1689  138.6726  156.3069 N   0  0  0  0  0  0  0  0  0  0  0  0
  151.1581  140.1265  156.2092 C   0  0  0  0  0  0  0  0  0  0  0  0
  150.2023  140.5650  155.0871 C   0  0  0  0  0  0  0  0  0  0  0  0
  150.5817  139.9386  153.8639 O   0  0  0  0  0  0  0  0  0  0  0  0
  150.5218  138.5169  153.9490 C   0  0  0  0  0  0  0  0  0  0  0  0
  151.4874  138.0239  155.0406 C   0  0  0  0  0  0  0  0  0  0  0  0
  143.9994  133.5159  162.0943 H   0  0  0  0  0  0  0  0  0  0  0  0
  144.9991  133.6528  163.5375 H   0  0  0  0  0  0  0  0  0  0  0  0
  145.6219  132.8292  162.1211 H   0  0  0  0  0  0  0  0  0  0  0  0
  146.6183  135.0890  162.2712 H   0  0  0  0  0  0  0  0  0  0  0  0
  143.7637  136.1705  162.2600 H   0  0  0  0  0  0  0  0  0  0  0  0
  145.2318  137.1438  162.2257 H   0  0  0  0  0  0  0  0  0  0  0  0
  144.8620  136.1653  163.6381 H   0  0  0  0  0  0  0  0  0  0  0  0
  144.9127  134.3344  159.9860 H   0  0  0  0  0  0  0  0  0  0  0  0
  145.1475  136.0568  160.1014 H   0  0  0  0  0  0  0  0  0  0  0  0
  147.4784  134.0922  160.1521 H   0  0  0  0  0  0  0  0  0  0  0  0
  146.9196  134.8588  158.6729 H   0  0  0  0  0  0  0  0  0  0  0  0
  149.8534  135.9867  157.3480 H   0  0  0  0  0  0  0  0  0  0  0  0
  149.1779  137.4719  157.9291 H   0  0  0  0  0  0  0  0  0  0  0  0
  151.6398  136.1867  160.2351 H   0  0  0  0  0  0  0  0  0  0  0  0
  153.9163  137.1158  160.5216 H   0  0  0  0  0  0  0  0  0  0  0  0
  154.7977  138.7156  158.8058 H   0  0  0  0  0  0  0  0  0  0  0  0
  150.8500  140.5689  157.1567 H   0  0  0  0  0  0  0  0  0  0  0  0
  152.1679  140.4832  156.0022 H   0  0  0  0  0  0  0  0  0  0  0  0
  149.1708  140.3091  155.3343 H   0  0  0  0  0  0  0  0  0  0  0  0
  150.2409  141.6471  154.9617 H   0  0  0  0  0  0  0  0  0  0  0  0
  149.5000  138.1981  154.1611 H   0  0  0  0  0  0  0  0  0  0  0  0
  150.7958  138.0904  152.9841 H   0  0  0  0  0  0  0  0  0  0  0  0
  152.5147  138.2524  154.7534 H   0  0  0  0  0  0  0  0  0  0  0  0
  151.4120  136.9415  155.1505 H   0  0  0  0  0  0  0  0  0  0  0  0
  1  2  1  0  0  0  0
  1 23  1  0  0  0  0
  1 24  1  0  0  0  0
  1 25  1  0  0  0  0
  2  3  1  0  0  0  0
  2  4  1  0  0  0  0
  2 26  1  0  0  0  0
  3 27  1  0  0  0  0
  3 28  1  0  0  0  0
  3 29  1  0  0  0  0
  4  5  1  0  0  0  0
  4 30  1  0  0  0  0
  4 31  1  0  0  0  0
  5  6  1  0  0  0  0
  5 32  1  0  0  0  0
  5 33  1  0  0  0  0
  6  7  2  0  0  0  0
  6  8  2  0  0  0  0
  6  9  1  0  0  0  0
  9 10  1  0  0  0  0
 10 11  1  0  0  0  0
 10 34  1  0  0  0  0
 10 35  1  0  0  0  0
 11 16  1  0  0  0  0
 11 12  2  0  0  0  0
 12 13  1  0  0  0  0
 12 36  1  0  0  0  0
 13 14  2  0  0  0  0
 13 37  1  0  0  0  0
 14 15  1  0  0  0  0
 14 38  1  0  0  0  0
 15 16  2  0  0  0  0
 16 17  1  0  0  0  0
 17 22  1  0  0  0  0
 17 18  1  0  0  0  0
 18 19  1  0  0  0  0
 18 39  1  0  0  0  0
 18 40  1  0  0  0  0
 19 20  1  0  0  0  0
 19 41  1  0  0  0  0
 19 42  1  0  0  0  0
 20 21  1  0  0  0  0
 21 22  1  0  0  0  0
 21 43  1  0  0  0  0
 21 44  1  0  0  0  0
 22 45  1  0  0  0  0
 22 46  1  0  0  0  0
M  CHG  1   9  -1
M  END
> <s_m_source_file>
AV-unprocessed.smi

> <i_m_source_file_index>
1640

> <i_lp_mmshare_version>
43012

> <i_f3d_flags>
0

> <s_epik_input>
W0NIM11bQ0hdKFtDSDNdKVtDSDJdW0NIMl1TKD1PKSg9TylbTkhdW0NIMl1jMVtjSF1bY0hdW2NIXW5jMU4yW0NIMl1bQ0gyXU9bQ0gyXVtDSDJdMg==

> <s_epik_cmdline>
J2VwaWtfcHl0aG9uJywgJy1waCcsICc3LjAnLCAnLXRuJywgJzgnLCAnLW1hJywgJzIwMCcsICctbWV0YWxfYmluZGluZycsICctaW1hZScsICc8aW5maWxlLm1hZT4nLCAnLW9tYWUnLCAnPG91dGZpbGUubWFlPic=

> <r_lp_tautomer_probability>
1

> <r_epik_Ionization_Penalty>
6.15599

> <r_epik_Ionization_Penalty_Charging>
6.0779

> <r_epik_Ionization_Penalty_Neutral>
0.078089

> <r_epik_State_Penalty>
6.0833

> <r_epik_Charging_Adjusted_Penalty>
12.1612

> <i_epik_Tot_Q>
-1

> <i_epik_Tot_abs_Q>
1

> <r_epik_Metal_State_Penalty>
2.0323

> <b_epik_Metal_Only>
1

> <s_lp_Force_Field>
OPLS_2005

> <r_lp_Energy>
20.5141

> <b_lp_Chiralities_Consistent>
1

> <s_lp_Variant>
AV-unprocessed.smi:1640-2

> <Gold.Version>
5.8.1

> <Gold.Id.Protein>
6NUR|6NUR_protein|mol2

> <Gold.PLP.Fitness>
47.6195

> <Gold.PLP.PLP>
-33.5051

> <Gold.PLP.part.hbond>
-4.5091

> <Gold.PLP.part.metal>
0.0000

> <Gold.PLP.part.buried>
-4.4591

> <Gold.PLP.part.nonpolar>
-25.4121

> <Gold.PLP.part.repulsive>
0.9895

> <Gold.PLP.ligand.clash>
0.0000

> <Gold.PLP.ligand.torsion>
1.7188

> <Gold.PLP.Chemscore.Hbond>
5.4348

> <Gold.PLP.Chemscore.CHOScore>
0.0000

> <Gold.PLP.Chemscore.Metal>
0.0000

> <Gold.Chemscore.Hbonds>
donor molecule, donor type, donor heavy atom, donor atom, acceptor molecule, acceptor atom, score
      P1  H  6896  6907       L1     9  2.00
      P1  H  6931  6943       L1     8  1.00
      P1  H  6934  6947       L1     7  0.69
      P1  H  7989  7998       L1    20  0.70
      P1  H  7997  8009       L1    15  0.81

> <Gold.PLP.Chemscore.Internal.Correction>
1.2476

> <Gold.Rescore>
     Score         DG    S(hbond)    S(metal)    S(lipo)     H(rot)  DE(clash)    DE(int)     intcor
     16.27     -18.36       2.26        0.00      83.55       1.73       0.27       1.82       ----

> <Gold.Chemscore.Fitness>
16.2694

> <Gold.Chemscore.DG>
-18.3642

> <Gold.Chemscore.ZeroCoef>
-5.4800

> <Gold.Chemscore.Hbond>
2.2605

> <Gold.Chemscore.Metal>
0.0000

> <Gold.Chemscore.Lipo>
83.5484

> <Gold.Chemscore.Internal_Hbond>
0.0000

> <Gold.Chemscore.DEClash>
0.2699

> <Gold.Chemscore.DEInternal>
1.8250

> <Gold.Chemscore.Rot>
1.7347

> <Gold.Chemscore.Internal.Correction>
   9.000000E+99

> <Gold.Chemscore.Hbonds>
donor molecule, donor type, donor heavy atom, donor atom, acceptor molecule, acceptor atom, score
      P1  H  6896  6907       L1     9  0.35
      P1  H  6931  6943       L1     8  0.38
      P1  H  6934  6947       L1     7  0.40
      P1  H  7989  7998       L1    20  0.13
      P1  H  7997  8009       L1    15  0.24

> <Gold.Chemscore.Hbond.Weighted>
-7.5500

> <Gold.Chemscore.Metal.Weighted>
-0.0000

> <Gold.Chemscore.Lipo.Weighted>
-9.7752

> <Gold.Chemscore.Internal_Hbond.Weighted>
0.0000

> <Gold.Chemscore.DEClash.Weighted>
0.2699

> <Gold.Chemscore.DEInternal.Weighted>
1.8250

> <Gold.Chemscore.Rot.Weighted>
4.4409

> <Gold.Chemscore.Internal.Correction.Weighted>
   9.000000E+99

> <Gold.Protein.RotatedTorsions>
[ 6907 6896 6895 6894 ] final  -56.91 input  -60.11 | X-H torsion
[ 7974 7965 7964 7962 ] final   -6.53 input  175.53 | X-H torsion
[ 8008 7997 7996 7995 ] final  174.97 input   59.86 | X-H torsion
[ 10167 10162 10161 10158 ] final  -52.10 input  -65.29 | X-H torsion
[ 10718 10713 10712 10709 ] final  121.40 input   66.30 | X-H torsion
[ 10763 10752 10751 10750 ] final  177.89 input  -60.55 | X-H torsion
[ 11005 11000 10999 10996 ] final   18.34 input  -57.11 | X-H torsion

> <Gold.Protein.ActiveResidues>
 VAL166  LYS551  ARG553  GLY616  TRP617  ASP618  TYR619  PRO620  LYS621  CYS622 
 ASP623  PHE694  ASN695  SER759  ASP760  ASP761  ALA762  ILE779  LEU786  VAL792 
 PHE793  MET794  SER795  GLU796  ALA797  LYS798  CYS799  TRP800  GLU811  SER814 

> <Gold.Protein.RotatedAtoms>
  150.8129  134.7294  159.6703 H   0  0  0  0  0  0  0  0  0  0  0  0  # atno 6907 bound_to 6896
  152.4248  134.5885  159.9977 H   0  0  0  0  0  0  0  0  0  0  0  0  # atno 6908 bound_to 6896
  151.6089  133.3312  159.3099 H   0  0  0  0  0  0  0  0  0  0  0  0  # atno 6909 bound_to 6896
  146.2329  140.2184  142.8337 H   0  0  0  0  0  0  0  0  0  0  0  0  # atno 7974 bound_to 7965
  156.0919  140.1421  156.9581 H   0  0  0  0  0  0  0  0  0  0  0  0  # atno 8008 bound_to 7997
  154.4647  140.0930  156.7035 H   0  0  0  0  0  0  0  0  0  0  0  0  # atno 8009 bound_to 7997
  155.4905  140.3448  155.4356 H   0  0  0  0  0  0  0  0  0  0  0  0  # atno 8010 bound_to 7997
  140.6555  143.2596  151.4599 H   0  0  0  0  0  0  0  0  0  0  0  0  # atno 10167 bound_to 10162
  157.5820  131.1074  150.8168 H   0  0  0  0  0  0  0  0  0  0  0  0  # atno 10718 bound_to 10713
  154.5004  135.2783  155.1425 H   0  0  0  0  0  0  0  0  0  0  0  0  # atno 10763 bound_to 10752
  154.3061  135.6238  153.5449 H   0  0  0  0  0  0  0  0  0  0  0  0  # atno 10764 bound_to 10752
  152.9901  135.5708  154.5446 H   0  0  0  0  0  0  0  0  0  0  0  0  # atno 10765 bound_to 10752
  140.4258  134.1471  155.7676 H   0  0  0  0  0  0  0  0  0  0  0  0  # atno 11005 bound_to 11000
  144.9651  140.8314  143.5489 LP  0  0  0  0  0  0  0  0  0  0  0  0  # atno 17320 bound_to 7965
  145.2159  139.2182  143.5118 LP  0  0  0  0  0  0  0  0  0  0  0  0  # atno 17321 bound_to 7965
  139.5776  144.1782  152.1925 LP  0  0  0  0  0  0  0  0  0  0  0  0  # atno 17342 bound_to 10162
  140.1098  144.5467  150.6933 LP  0  0  0  0  0  0  0  0  0  0  0  0  # atno 17343 bound_to 10162
  156.8612  130.5113  149.5303 LP  0  0  0  0  0  0  0  0  0  0  0  0  # atno 17370 bound_to 10713
  156.0867  130.5863  150.9660 LP  0  0  0  0  0  0  0  0  0  0  0  0  # atno 17371 bound_to 10713
  141.1765  133.8502  157.1402 LP  0  0  0  0  0  0  0  0  0  0  0  0  # atno 17394 bound_to 11000
  140.0168  134.9964  157.0510 LP  0  0  0  0  0  0  0  0  0  0  0  0  # atno 17395 bound_to 11000

$$$$
