AV-unprocessed.smi:2345|AV-procd|sdf|9361|dock8
  -GOLD-   2272012583D 1   1.00000     0.00000
 Structure written by MMmdl.
 37 38  0  0  0  0  0  0  0  0  1 V2000
  150.8506  135.9877  154.7909 C   0  0  0  0  0  0  0  0  0  0  0  0
  149.8949  137.1353  155.1262 C   0  0  0  0  0  0  0  0  0  0  0  0
  150.3367  138.6508  154.2321 S   0  0  0  0  0  0  0  0  0  0  0  0
  148.9637  139.7380  154.7184 C   0  0  2  0  0  0  0  0  0  0  0  0
  147.6189  139.2479  154.1756 C   0  0  0  0  0  0  0  0  0  0  0  0
  146.7583  140.5054  154.1212 C   0  0  0  0  0  0  0  0  0  0  0  0
  147.7266  141.6014  153.6753 C   0  0  0  0  0  0  0  0  0  0  0  0
  149.1154  141.1845  154.2001 C   0  0  1  0  0  0  0  0  0  0  0  0
  149.5655  142.0700  155.2713 N   0  0  0  0  0  0  0  0  0  0  0  0
  150.4876  141.7579  156.1922 C   0  0  0  0  0  0  0  0  0  0  0  0
  151.0839  140.6816  156.2170 O   0  0  0  0  0  0  0  0  0  0  0  0
  150.6463  142.7577  157.0758 N   0  0  0  0  0  0  0  0  0  0  0  0
  151.5044  142.8135  158.2075 C   0  0  0  0  0  0  0  0  0  0  0  0
  152.2362  141.7073  158.7031 C   0  0  0  0  0  0  0  0  0  0  0  0
  153.0676  141.8967  159.8252 C   0  0  0  0  0  0  0  0  0  0  0  0
  153.2123  143.0833  160.4524 N   0  0  0  0  0  0  0  0  0  0  0  0
  152.5246  144.1389  159.9680 C   0  0  0  0  0  0  0  0  0  0  0  0
  151.6672  144.0578  158.8525 C   0  0  0  0  0  0  0  0  0  0  0  0
  151.0088  145.1584  158.4144 F   0  0  0  0  0  0  0  0  0  0  0  0
  150.5820  135.0855  155.3404 H   0  0  0  0  0  0  0  0  0  0  0  0
  151.8780  136.2432  155.0512 H   0  0  0  0  0  0  0  0  0  0  0  0
  150.8219  135.7514  153.7270 H   0  0  0  0  0  0  0  0  0  0  0  0
  148.8734  136.8553  154.8688 H   0  0  0  0  0  0  0  0  0  0  0  0
  149.9152  137.3333  156.1978 H   0  0  0  0  0  0  0  0  0  0  0  0
  148.8999  139.7363  155.8081 H   0  0  0  0  0  0  0  0  0  0  0  0
  147.7413  138.8493  153.1673 H   0  0  0  0  0  0  0  0  0  0  0  0
  147.1785  138.4640  154.7925 H   0  0  0  0  0  0  0  0  0  0  0  0
  145.9038  140.4025  153.4518 H   0  0  0  0  0  0  0  0  0  0  0  0
  146.3775  140.7331  155.1177 H   0  0  0  0  0  0  0  0  0  0  0  0
  147.7526  141.6371  152.5854 H   0  0  0  0  0  0  0  0  0  0  0  0
  147.4094  142.5875  154.0181 H   0  0  0  0  0  0  0  0  0  0  0  0
  149.8277  141.2113  153.3730 H   0  0  0  0  0  0  0  0  0  0  0  0
  149.1244  142.9764  155.3262 H   0  0  0  0  0  0  0  0  0  0  0  0
  150.0253  143.5466  156.9694 H   0  0  0  0  0  0  0  0  0  0  0  0
  152.1874  140.7320  158.2440 H   0  0  0  0  0  0  0  0  0  0  0  0
  153.6379  141.0719  160.2259 H   0  0  0  0  0  0  0  0  0  0  0  0
  152.6629  145.0775  160.4841 H   0  0  0  0  0  0  0  0  0  0  0  0
  1  2  1  0  0  0  0
  1 20  1  0  0  0  0
  1 21  1  0  0  0  0
  1 22  1  0  0  0  0
  2  3  1  0  0  0  0
  2 23  1  0  0  0  0
  2 24  1  0  0  0  0
  3  4  1  0  0  0  0
  4  8  1  0  0  0  0
  4  5  1  0  0  0  0
  4 25  1  0  0  0  0
  5  6  1  0  0  0  0
  5 26  1  0  0  0  0
  5 27  1  0  0  0  0
  6  7  1  0  0  0  0
  6 28  1  0  0  0  0
  6 29  1  0  0  0  0
  7  8  1  0  0  0  0
  7 30  1  0  0  0  0
  7 31  1  0  0  0  0
  8  9  1  0  0  0  0
  8 32  1  0  0  0  0
  9 10  1  0  0  0  0
  9 33  1  0  0  0  0
 10 11  2  0  0  0  0
 10 12  1  0  0  0  0
 12 13  1  0  0  0  0
 12 34  1  0  0  0  0
 13 18  1  0  0  0  0
 13 14  2  0  0  0  0
 14 15  1  0  0  0  0
 14 35  1  0  0  0  0
 15 16  2  0  0  0  0
 15 36  1  0  0  0  0
 16 17  1  0  0  0  0
 17 18  2  0  0  0  0
 17 37  1  0  0  0  0
 18 19  1  0  0  0  0
M  END
> <s_m_source_file>
AV-unprocessed.smi

> <i_m_source_file_index>
2345

> <i_lp_mmshare_version>
43012

> <i_f3d_flags>
0

> <s_epik_input>
W0NIM11bQ0gyXVNbQ0BASF0xW0NIMl1bQ0gyXVtDSDJdW0NASF0xW05IXUMoPU8pW05IXWMyW2NIXVtjSF1uW2NIXWMyRg==

> <s_epik_cmdline>
J2VwaWtfcHl0aG9uJywgJy1waCcsICc3LjAnLCAnLXRuJywgJzgnLCAnLW1hJywgJzIwMCcsICctbWV0YWxfYmluZGluZycsICctaW1hZScsICc8aW5maWxlLm1hZT4nLCAnLW9tYWUnLCAnPG91dGZpbGUubWFlPic=

> <r_epik_Ionization_Penalty>
0.00333745

> <r_epik_Ionization_Penalty_Charging>
0

> <r_epik_Ionization_Penalty_Neutral>
0.00333745

> <r_epik_State_Penalty>
0.00233401

> <r_epik_Charging_Adjusted_Penalty>
0.00233401

> <i_epik_Tot_Q>
0

> <i_epik_Tot_abs_Q>
0

> <r_epik_Metal_State_Penalty>
-0

> <b_epik_Metal_Only>
0

> <s_lp_Force_Field>
OPLS_2005

> <r_lp_Energy>
20.2563

> <b_lp_Chiralities_Consistent>
1

> <s_lp_Variant>
AV-unprocessed.smi:2345-1

> <Gold.Version>
5.8.1

> <Gold.Id.Protein>
6NUR|6NUR_protein|mol2

> <Gold.PLP.Fitness>
43.9257

> <Gold.PLP.PLP>
-39.0265

> <Gold.PLP.part.hbond>
-2.0000

> <Gold.PLP.part.metal>
0.0000

> <Gold.PLP.part.buried>
-5.6077

> <Gold.PLP.part.nonpolar>
-31.8589

> <Gold.PLP.part.repulsive>
0.2314

> <Gold.PLP.ligand.clash>
0.0000

> <Gold.PLP.ligand.torsion>
0.3353

> <Gold.PLP.Chemscore.Hbond>
1.8544

> <Gold.PLP.Chemscore.CHOScore>
0.0000

> <Gold.PLP.Chemscore.Metal>
0.0000

> <Gold.Chemscore.Hbonds>
donor molecule, donor type, donor heavy atom, donor atom, acceptor molecule, acceptor atom, score
      L1  H     9    33       P1  8028  1.00
      L1  H    12    34       P1  8028  0.83

> <Gold.PLP.Chemscore.Internal.Correction>
0.0069

> <Gold.Rescore>
     Score         DG    S(hbond)    S(metal)    S(lipo)     H(rot)  DE(clash)    DE(int)     intcor
     16.52     -20.56       1.89        0.00     104.35       1.35       0.09       3.95       ----

> <Gold.Chemscore.Fitness>
16.5190

> <Gold.Chemscore.DG>
-20.5578

> <Gold.Chemscore.ZeroCoef>
-5.4800

> <Gold.Chemscore.Hbond>
1.8917

> <Gold.Chemscore.Metal>
0.0000

> <Gold.Chemscore.Lipo>
104.3526

> <Gold.Chemscore.Internal_Hbond>
0.0000

> <Gold.Chemscore.DEClash>
0.0855

> <Gold.Chemscore.DEInternal>
3.9533

> <Gold.Chemscore.Rot>
1.3475

> <Gold.Chemscore.Internal.Correction>
   9.000000E+99

> <Gold.Chemscore.Hbonds>
donor molecule, donor type, donor heavy atom, donor atom, acceptor molecule, acceptor atom, score
      L1  H     9    33       P1  8028  1.00
      L1  H    12    34       P1  8028  0.77

> <Gold.Chemscore.Hbond.Weighted>
-6.3182

> <Gold.Chemscore.Metal.Weighted>
-0.0000

> <Gold.Chemscore.Lipo.Weighted>
-12.2093

> <Gold.Chemscore.Internal_Hbond.Weighted>
0.0000

> <Gold.Chemscore.DEClash.Weighted>
0.0855

> <Gold.Chemscore.DEInternal.Weighted>
3.9533

> <Gold.Chemscore.Rot.Weighted>
3.4496

> <Gold.Chemscore.Internal.Correction.Weighted>
   9.000000E+99

> <Gold.Protein.RotatedTorsions>
[ 6907 6896 6895 6894 ] final  146.07 input  -60.11 | X-H torsion
[ 7974 7965 7964 7962 ] final   61.26 input  175.53 | X-H torsion
[ 8008 7997 7996 7995 ] final -128.24 input   59.86 | X-H torsion
[ 10167 10162 10161 10158 ] final -174.60 input  -65.29 | X-H torsion
[ 10718 10713 10712 10709 ] final   44.95 input   66.30 | X-H torsion
[ 10763 10752 10751 10750 ] final -144.68 input  -60.55 | X-H torsion
[ 11005 11000 10999 10996 ] final -100.96 input  -57.11 | X-H torsion

> <Gold.Protein.ActiveResidues>
 VAL166  LYS551  ARG553  GLY616  TRP617  ASP618  TYR619  PRO620  LYS621  CYS622 
 ASP623  PHE694  ASN695  SER759  ASP760  ASP761  ALA762  ILE779  LEU786  VAL792 
 PHE793  MET794  SER795  GLU796  ALA797  LYS798  CYS799  TRP800  GLU811  SER814 

> <Gold.Protein.RotatedAtoms>
  152.1727  133.4654  159.4917 H   0  0  0  0  0  0  0  0  0  0  0  0  # atno 6907 bound_to 6896
  150.6922  134.1933  159.4302 H   0  0  0  0  0  0  0  0  0  0  0  0  # atno 6908 bound_to 6896
  151.9840  135.0013  160.0609 H   0  0  0  0  0  0  0  0  0  0  0  0  # atno 6909 bound_to 6896
  145.8868  139.3482  143.0673 H   0  0  0  0  0  0  0  0  0  0  0  0  # atno 7974 bound_to 7965
  155.2595  140.0435  157.2996 H   0  0  0  0  0  0  0  0  0  0  0  0  # atno 8008 bound_to 7997
  154.5719  140.2376  155.8148 H   0  0  0  0  0  0  0  0  0  0  0  0  # atno 8009 bound_to 7997
  156.2129  140.2993  155.9781 H   0  0  0  0  0  0  0  0  0  0  0  0  # atno 8010 bound_to 7997
  139.5625  144.1835  152.1261 H   0  0  0  0  0  0  0  0  0  0  0  0  # atno 10167 bound_to 10162
  157.4323  130.8032  149.7615 H   0  0  0  0  0  0  0  0  0  0  0  0  # atno 10718 bound_to 10713
  154.8417  135.3434  154.6384 H   0  0  0  0  0  0  0  0  0  0  0  0  # atno 10763 bound_to 10752
  153.6995  135.6970  153.5071 H   0  0  0  0  0  0  0  0  0  0  0  0  # atno 10764 bound_to 10752
  153.2534  135.4346  155.0775 H   0  0  0  0  0  0  0  0  0  0  0  0  # atno 10765 bound_to 10752
  141.1250  133.8440  157.1170 H   0  0  0  0  0  0  0  0  0  0  0  0  # atno 11005 bound_to 11000
  145.8957  140.9275  143.0529 LP  0  0  0  0  0  0  0  0  0  0  0  0  # atno 17320 bound_to 7965
  144.6729  140.0966  143.7462 LP  0  0  0  0  0  0  0  0  0  0  0  0  # atno 17321 bound_to 7965
  140.1351  144.5253  150.6778 LP  0  0  0  0  0  0  0  0  0  0  0  0  # atno 17342 bound_to 10162
  140.6906  143.2374  151.5141 LP  0  0  0  0  0  0  0  0  0  0  0  0  # atno 17343 bound_to 10162
  155.9918  130.3935  150.2970 LP  0  0  0  0  0  0  0  0  0  0  0  0  # atno 17370 bound_to 10713
  157.1128  131.0226  151.3041 LP  0  0  0  0  0  0  0  0  0  0  0  0  # atno 17371 bound_to 10713
  140.0240  134.9932  157.0649 LP  0  0  0  0  0  0  0  0  0  0  0  0  # atno 17394 bound_to 11000
  140.4393  134.1698  155.7173 LP  0  0  0  0  0  0  0  0  0  0  0  0  # atno 17395 bound_to 11000

$$$$
