AV-unprocessed.smi:1216|AV-procd|sdf|5098|dock8
  -GOLD-   22720 4153D 1   1.00000     0.00000
 Structure written by MMmdl.
 43 44  0  0  0  0  0  0  0  0  2 V2000
  151.7675  137.0057  155.9745 C   0  0  0  0  0  0  0  0  0  0  0  0
  150.6364  138.0408  155.9133 C   0  0  2  0  0  0  0  0  0  0  0  0
  150.6809  138.8432  154.5950 C   0  0  0  0  0  0  0  0  0  0  0  0
  149.3863  139.4384  154.2446 N   0  0  0  0  0  0  0  0  0  0  0  0
  148.9670  140.7207  154.4896 C   0  0  0  0  0  0  0  0  0  0  0  0
  147.7044  140.8263  153.9655 C   0  0  0  0  0  0  0  0  0  0  0  0
  147.4041  139.6032  153.4287 N   0  3  0  0  0  0  0  0  0  0  0  0
  148.4252  138.7589  153.6053 C   0  0  0  0  0  0  0  0  0  0  0  0
  150.7437  138.9310  157.0686 N   0  0  0  0  0  0  0  0  0  0  0  0
  151.7567  139.7773  157.3127 C   0  0  0  0  0  0  0  0  0  0  0  0
  152.7118  139.9272  156.5492 O   0  0  0  0  0  0  0  0  0  0  0  0
  151.6742  140.5661  158.6256 C   0  0  0  0  0  0  0  0  0  0  0  0
  151.4157  141.9989  158.4151 N   0  0  0  0  0  0  0  0  0  0  0  0
  150.1921  142.3493  157.6764 C   0  0  0  0  0  0  0  0  0  0  0  0
  149.1102  143.0267  158.5488 C   0  0  0  0  0  0  0  0  0  0  0  0
  149.6217  143.8755  159.7296 C   0  0  0  0  0  0  0  0  0  0  0  0
  150.6836  144.9327  159.3622 C   0  0  0  0  0  0  0  0  0  0  0  0
  151.9353  144.4233  158.6081 C   0  0  0  0  0  0  0  0  0  0  0  0
  152.2768  142.9465  158.8652 C   0  0  0  0  0  0  0  0  0  0  0  0
  153.3185  142.6760  159.4644 O   0  0  0  0  0  0  0  0  0  0  0  0
  151.7058  136.3072  155.1395 H   0  0  0  0  0  0  0  0  0  0  0  0
  151.7159  136.4217  156.8941 H   0  0  0  0  0  0  0  0  0  0  0  0
  152.7473  137.4831  155.9370 H   0  0  0  0  0  0  0  0  0  0  0  0
  149.6948  137.4902  155.9565 H   0  0  0  0  0  0  0  0  0  0  0  0
  151.4273  139.6375  154.6483 H   0  0  0  0  0  0  0  0  0  0  0  0
  150.9695  138.1945  153.7669 H   0  0  0  0  0  0  0  0  0  0  0  0
  149.5861  141.4466  154.9964 H   0  0  0  0  0  0  0  0  0  0  0  0
  147.0165  141.6586  153.9335 H   0  0  0  0  0  0  0  0  0  0  0  0
  148.4698  137.7354  153.2778 H   0  0  0  0  0  0  0  0  0  0  0  0
  149.9971  138.8844  157.7472 H   0  0  0  0  0  0  0  0  0  0  0  0
  150.8942  140.1229  159.2457 H   0  0  0  0  0  0  0  0  0  0  0  0
  152.5996  140.4377  159.1905 H   0  0  0  0  0  0  0  0  0  0  0  0
  150.4516  142.9975  156.8395 H   0  0  0  0  0  0  0  0  0  0  0  0
  149.7632  141.4677  157.1986 H   0  0  0  0  0  0  0  0  0  0  0  0
  148.4735  143.6376  157.9081 H   0  0  0  0  0  0  0  0  0  0  0  0
  148.4590  142.2522  158.9558 H   0  0  0  0  0  0  0  0  0  0  0  0
  148.7722  144.3767  160.1948 H   0  0  0  0  0  0  0  0  0  0  0  0
  150.0177  143.2168  160.5038 H   0  0  0  0  0  0  0  0  0  0  0  0
  150.2124  145.7125  158.7630 H   0  0  0  0  0  0  0  0  0  0  0  0
  151.0047  145.4253  160.2807 H   0  0  0  0  0  0  0  0  0  0  0  0
  151.8150  144.5765  157.5358 H   0  0  0  0  0  0  0  0  0  0  0  0
  152.7919  145.0409  158.8808 H   0  0  0  0  0  0  0  0  0  0  0  0
  146.5377  139.3692  152.9604 H   0  0  0  0  0  0  0  0  0  0  0  0
  1  2  1  0  0  0  0
  1 21  1  0  0  0  0
  1 22  1  0  0  0  0
  1 23  1  0  0  0  0
  2  3  1  0  0  0  0
  2  9  1  0  0  0  0
  2 24  1  0  0  0  0
  3  4  1  0  0  0  0
  3 25  1  0  0  0  0
  3 26  1  0  0  0  0
  4  8  1  0  0  0  0
  4  5  1  0  0  0  0
  5  6  2  0  0  0  0
  5 27  1  0  0  0  0
  6  7  1  0  0  0  0
  6 28  1  0  0  0  0
  7  8  2  0  0  0  0
  7 43  1  0  0  0  0
  8 29  1  0  0  0  0
  9 10  1  0  0  0  0
  9 30  1  0  0  0  0
 10 11  2  0  0  0  0
 10 12  1  0  0  0  0
 12 13  1  0  0  0  0
 12 31  1  0  0  0  0
 12 32  1  0  0  0  0
 13 19  1  0  0  0  0
 13 14  1  0  0  0  0
 14 15  1  0  0  0  0
 14 33  1  0  0  0  0
 14 34  1  0  0  0  0
 15 16  1  0  0  0  0
 15 35  1  0  0  0  0
 15 36  1  0  0  0  0
 16 17  1  0  0  0  0
 16 37  1  0  0  0  0
 16 38  1  0  0  0  0
 17 18  1  0  0  0  0
 17 39  1  0  0  0  0
 17 40  1  0  0  0  0
 18 19  1  0  0  0  0
 18 41  1  0  0  0  0
 18 42  1  0  0  0  0
 19 20  2  0  0  0  0
M  CHG  1   7   1
M  END
> <s_m_source_file>
AV-unprocessed.smi

> <i_m_source_file_index>
1216

> <i_lp_mmshare_version>
43012

> <i_f3d_flags>
0

> <s_epik_input>
W2NIXTFuW2NIXVtjSF1uMVtDSDJdW0NAQEhdKFtDSDNdKVtOSF1DKD1PKVtDSDJdTjJbQ0gyXVtDSDJdW0NIMl1bQ0gyXVtDSDJdQzI9Tw==

> <s_epik_cmdline>
J2VwaWtfcHl0aG9uJywgJy1waCcsICc3LjAnLCAnLXRuJywgJzgnLCAnLW1hJywgJzIwMCcsICctbWV0YWxfYmluZGluZycsICctaW1hZScsICc8aW5maWxlLm1hZT4nLCAnLW9tYWUnLCAnPG91dGZpbGUubWFlPic=

> <r_lp_tautomer_probability>
1

> <r_epik_Ionization_Penalty>
0.254232

> <r_epik_Ionization_Penalty_Charging>
0

> <r_epik_Ionization_Penalty_Neutral>
0.254232

> <r_epik_State_Penalty>
0.245698

> <r_epik_Charging_Adjusted_Penalty>
0.245698

> <i_epik_Tot_Q>
1

> <i_epik_Tot_abs_Q>
1

> <r_epik_Metal_State_Penalty>
0.535799

> <b_epik_Metal_Only>
0

> <s_lp_Force_Field>
OPLS_2005

> <r_lp_Energy>
19.3608

> <b_lp_Chiralities_Consistent>
1

> <s_lp_Variant>
AV-unprocessed.smi:1216-1

> <Gold.Version>
5.8.1

> <Gold.Id.Protein>
6NUR|6NUR_protein|mol2

> <Gold.PLP.Fitness>
44.6638

> <Gold.PLP.PLP>
-39.9504

> <Gold.PLP.part.hbond>
-2.0000

> <Gold.PLP.part.metal>
0.0000

> <Gold.PLP.part.buried>
-2.9720

> <Gold.PLP.part.nonpolar>
-34.7950

> <Gold.PLP.part.repulsive>
0.0944

> <Gold.PLP.ligand.clash>
0.0000

> <Gold.PLP.ligand.torsion>
0.6652

> <Gold.PLP.Chemscore.Hbond>
1.0000

> <Gold.PLP.Chemscore.CHOScore>
0.9990

> <Gold.PLP.Chemscore.Metal>
0.0000

> <Gold.Chemscore.Hbonds>
donor molecule, donor type, donor heavy atom, donor atom, acceptor molecule, acceptor atom, score
      P1  H  7997  8008       L1    11  1.00
      L1  C     8    29       P1  7948  1.00

> <Gold.PLP.Chemscore.Internal.Correction>
0.0468

> <Gold.Rescore>
     Score         DG    S(hbond)    S(metal)    S(lipo)     H(rot)  DE(clash)    DE(int)     intcor
     11.88     -13.70       0.99        0.00      90.44       2.22       0.37       1.45       ----

> <Gold.Chemscore.Fitness>
11.8772

> <Gold.Chemscore.DG>
-13.7014

> <Gold.Chemscore.ZeroCoef>
-5.4800

> <Gold.Chemscore.Hbond>
0.9921

> <Gold.Chemscore.Metal>
0.0000

> <Gold.Chemscore.Lipo>
90.4373

> <Gold.Chemscore.Internal_Hbond>
0.0000

> <Gold.Chemscore.DEClash>
0.3745

> <Gold.Chemscore.DEInternal>
1.4497

> <Gold.Chemscore.Rot>
2.2161

> <Gold.Chemscore.Internal.Correction>
   9.000000E+99

> <Gold.Chemscore.Hbonds>
donor molecule, donor type, donor heavy atom, donor atom, acceptor molecule, acceptor atom, score
      P1  H  7997  8008       L1    11  0.99

> <Gold.Chemscore.Hbond.Weighted>
-3.3135

> <Gold.Chemscore.Metal.Weighted>
-0.0000

> <Gold.Chemscore.Lipo.Weighted>
-10.5812

> <Gold.Chemscore.Internal_Hbond.Weighted>
0.0000

> <Gold.Chemscore.DEClash.Weighted>
0.3745

> <Gold.Chemscore.DEInternal.Weighted>
1.4497

> <Gold.Chemscore.Rot.Weighted>
5.6733

> <Gold.Chemscore.Internal.Correction.Weighted>
   9.000000E+99

> <Gold.Protein.RotatedTorsions>
[ 6907 6896 6895 6894 ] final  -54.70 input  -60.11 | X-H torsion
[ 7974 7965 7964 7962 ] final  101.51 input  175.53 | X-H torsion
[ 8008 7997 7996 7995 ] final  -56.69 input   59.86 | X-H torsion
[ 10167 10162 10161 10158 ] final   53.47 input  -65.29 | X-H torsion
[ 10718 10713 10712 10709 ] final  -14.87 input   66.30 | X-H torsion
[ 10763 10752 10751 10750 ] final   75.76 input  -60.55 | X-H torsion
[ 11005 11000 10999 10996 ] final  -63.91 input  -57.11 | X-H torsion

> <Gold.Protein.ActiveResidues>
 VAL166  LYS551  ARG553  GLY616  TRP617  ASP618  TYR619  PRO620  LYS621  CYS622 
 ASP623  PHE694  ASN695  SER759  ASP760  ASP761  ALA762  ILE779  LEU786  VAL792 
 PHE793  MET794  SER795  GLU796  ALA797  LYS798  CYS799  TRP800  GLU811  SER814 

> <Gold.Protein.RotatedAtoms>
  150.8315  134.7571  159.6857 H   0  0  0  0  0  0  0  0  0  0  0  0  # atno 6907 bound_to 6896
  152.4419  134.5570  159.9893 H   0  0  0  0  0  0  0  0  0  0  0  0  # atno 6908 bound_to 6896
  151.5730  133.3350  159.3029 H   0  0  0  0  0  0  0  0  0  0  0  0  # atno 6909 bound_to 6896
  145.3713  139.2397  143.3453 H   0  0  0  0  0  0  0  0  0  0  0  0  # atno 7974 bound_to 7965
  154.4240  140.1124  156.5679 H   0  0  0  0  0  0  0  0  0  0  0  0  # atno 8008 bound_to 7997
  155.6243  140.3495  155.4643 H   0  0  0  0  0  0  0  0  0  0  0  0  # atno 8009 bound_to 7997
  155.9999  140.1197  157.0547 H   0  0  0  0  0  0  0  0  0  0  0  0  # atno 8010 bound_to 7997
  140.2404  144.3590  150.6382 H   0  0  0  0  0  0  0  0  0  0  0  0  # atno 10167 bound_to 10162
  156.6097  130.4846  149.6206 H   0  0  0  0  0  0  0  0  0  0  0  0  # atno 10718 bound_to 10713
  153.0677  135.4977  154.8236 H   0  0  0  0  0  0  0  0  0  0  0  0  # atno 10763 bound_to 10752
  154.6977  135.2996  154.9389 H   0  0  0  0  0  0  0  0  0  0  0  0  # atno 10764 bound_to 10752
  154.0123  135.6752  153.4819 H   0  0  0  0  0  0  0  0  0  0  0  0  # atno 10765 bound_to 10752
  141.1408  133.6658  156.5752 H   0  0  0  0  0  0  0  0  0  0  0  0  # atno 11005 bound_to 11000
  146.2884  140.4365  142.8749 LP  0  0  0  0  0  0  0  0  0  0  0  0  # atno 17320 bound_to 7965
  144.8574  140.7090  143.6129 LP  0  0  0  0  0  0  0  0  0  0  0  0  # atno 17321 bound_to 7965
  140.6118  143.2170  151.6871 LP  0  0  0  0  0  0  0  0  0  0  0  0  # atno 17342 bound_to 10162
  139.5079  144.3629  152.0545 LP  0  0  0  0  0  0  0  0  0  0  0  0  # atno 17343 bound_to 10162
  156.2400  130.6845  151.1546 LP  0  0  0  0  0  0  0  0  0  0  0  0  # atno 17370 bound_to 10713
  157.7257  131.0651  150.5940 LP  0  0  0  0  0  0  0  0  0  0  0  0  # atno 17371 bound_to 10713
  140.3881  134.7464  157.4704 LP  0  0  0  0  0  0  0  0  0  0  0  0  # atno 17394 bound_to 11000
  140.0587  134.6027  155.8775 LP  0  0  0  0  0  0  0  0  0  0  0  0  # atno 17395 bound_to 11000

$$$$
