AV-unprocessed.smi:2823|AV-procd|sdf|10884|dock10
  -GOLD-   2272015323D 1   1.00000     0.00000
 Structure written by MMmdl.
 42 43  0  0  0  0  0  0  0  0  1 V2000
  143.9529  132.2175  150.1684 C   0  0  0  0  0  0  0  0  0  0  0  0
  144.3403  133.1942  151.2251 C   0  0  0  0  0  0  0  0  0  0  0  0
  143.5184  133.4772  152.2295 N   0  0  0  0  0  0  0  0  0  0  0  0
  144.2390  134.4139  152.9853 O   0  0  0  0  0  0  0  0  0  0  0  0
  145.4160  134.5772  152.3324 C   0  0  0  0  0  0  0  0  0  0  0  0
  146.4371  135.4506  152.7777 N   0  0  0  0  0  0  0  0  0  0  0  0
  146.5158  136.0542  153.9741 C   0  0  0  0  0  0  0  0  0  0  0  0
  145.6910  135.9357  154.8805 O   0  0  0  0  0  0  0  0  0  0  0  0
  147.6209  136.8077  154.0677 N   0  0  0  0  0  0  0  0  0  0  0  0
  148.0356  137.5753  155.2431 C   0  0  0  0  0  0  0  0  0  0  0  0
  149.5828  137.7340  155.3624 C   0  0  0  0  0  0  0  0  0  0  0  0
  150.3058  136.3438  155.4018 C   0  0  0  0  0  0  0  0  0  0  0  0
  151.1514  136.1116  154.5342 O   0  0  0  0  0  0  0  0  0  0  0  0
  150.0402  135.4029  156.3488 N   0  0  0  0  0  0  0  0  0  0  0  0
  150.7159  134.1026  156.2817 C   0  0  0  0  0  0  0  0  0  0  0  0
  149.1404  135.5070  157.5011 C   0  0  0  0  0  0  0  0  0  0  0  0
  150.1954  138.6948  154.3105 C   0  0  0  0  0  0  0  0  0  0  0  0
  151.4784  139.2691  154.9255 C   0  0  0  0  0  0  0  0  0  0  0  0
  151.2937  139.1732  156.4415 C   0  0  0  0  0  0  0  0  0  0  0  0
  149.9036  138.5601  156.6398 C   0  0  0  0  0  0  0  0  0  0  0  0
  145.5368  133.8456  151.2292 N   0  0  0  0  0  0  0  0  0  0  0  0
  143.0630  132.5639  149.6423 H   0  0  0  0  0  0  0  0  0  0  0  0
  143.7381  131.2454  150.6131 H   0  0  0  0  0  0  0  0  0  0  0  0
  144.7567  132.0943  149.4418 H   0  0  0  0  0  0  0  0  0  0  0  0
  147.1836  135.6266  152.1219 H   0  0  0  0  0  0  0  0  0  0  0  0
  148.2368  136.8422  153.2686 H   0  0  0  0  0  0  0  0  0  0  0  0
  147.5283  138.5336  155.1833 H   0  0  0  0  0  0  0  0  0  0  0  0
  147.6357  137.1172  156.1494 H   0  0  0  0  0  0  0  0  0  0  0  0
  150.5687  133.6360  155.3063 H   0  0  0  0  0  0  0  0  0  0  0  0
  150.3436  133.4007  157.0294 H   0  0  0  0  0  0  0  0  0  0  0  0
  151.7878  134.2199  156.4469 H   0  0  0  0  0  0  0  0  0  0  0  0
  148.7699  136.5022  157.7172 H   0  0  0  0  0  0  0  0  0  0  0  0
  149.6476  135.1686  158.4053 H   0  0  0  0  0  0  0  0  0  0  0  0
  148.2732  134.8638  157.3482 H   0  0  0  0  0  0  0  0  0  0  0  0
  150.4123  138.2568  153.3404 H   0  0  0  0  0  0  0  0  0  0  0  0
  149.4982  139.5127  154.1229 H   0  0  0  0  0  0  0  0  0  0  0  0
  152.3417  138.6762  154.6206 H   0  0  0  0  0  0  0  0  0  0  0  0
  151.6530  140.2942  154.5975 H   0  0  0  0  0  0  0  0  0  0  0  0
  152.0600  138.5265  156.8708 H   0  0  0  0  0  0  0  0  0  0  0  0
  151.3743  140.1455  156.9285 H   0  0  0  0  0  0  0  0  0  0  0  0
  149.1858  139.3762  156.7368 H   0  0  0  0  0  0  0  0  0  0  0  0
  149.8338  137.9966  157.5712 H   0  0  0  0  0  0  0  0  0  0  0  0
  1  2  1  0  0  0  0
  1 22  1  0  0  0  0
  1 23  1  0  0  0  0
  1 24  1  0  0  0  0
  2 21  1  0  0  0  0
  2  3  2  0  0  0  0
  3  4  1  0  0  0  0
  4  5  1  0  0  0  0
  5  6  1  0  0  0  0
  5 21  2  0  0  0  0
  6  7  1  0  0  0  0
  6 25  1  0  0  0  0
  7  8  2  0  0  0  0
  7  9  1  0  0  0  0
  9 10  1  0  0  0  0
  9 26  1  0  0  0  0
 10 11  1  0  0  0  0
 10 27  1  0  0  0  0
 10 28  1  0  0  0  0
 11 20  1  0  0  0  0
 11 12  1  0  0  0  0
 11 17  1  0  0  0  0
 12 13  2  0  0  0  0
 12 14  1  0  0  0  0
 14 15  1  0  0  0  0
 14 16  1  0  0  0  0
 15 29  1  0  0  0  0
 15 30  1  0  0  0  0
 15 31  1  0  0  0  0
 16 32  1  0  0  0  0
 16 33  1  0  0  0  0
 16 34  1  0  0  0  0
 17 18  1  0  0  0  0
 17 35  1  0  0  0  0
 17 36  1  0  0  0  0
 18 19  1  0  0  0  0
 18 37  1  0  0  0  0
 18 38  1  0  0  0  0
 19 20  1  0  0  0  0
 19 39  1  0  0  0  0
 19 40  1  0  0  0  0
 20 41  1  0  0  0  0
 20 42  1  0  0  0  0
M  END
> <s_m_source_file>
AV-unprocessed.smi

> <i_m_source_file_index>
2823

> <i_lp_mmshare_version>
43012

> <i_f3d_flags>
0

> <s_epik_input>
W0NIM11jMW5vYyhuMSlbTkhdQyg9TylbTkhdW0NIMl1DMihDKD1PKU4oW0NIM10pW0NIM10pW0NIMl1bQ0gyXVtDSDJdW0NIMl0y

> <s_epik_cmdline>
J2VwaWtfcHl0aG9uJywgJy1waCcsICc3LjAnLCAnLXRuJywgJzgnLCAnLW1hJywgJzIwMCcsICctbWV0YWxfYmluZGluZycsICctaW1hZScsICc8aW5maWxlLm1hZT4nLCAnLW9tYWUnLCAnPG91dGZpbGUubWFlPic=

> <r_lp_tautomer_probability>
1

> <r_epik_Ionization_Penalty>
4.1201e-05

> <r_epik_Ionization_Penalty_Charging>
0

> <r_epik_Ionization_Penalty_Neutral>
4.1201e-05

> <r_epik_State_Penalty>
-0

> <r_epik_Charging_Adjusted_Penalty>
0

> <i_epik_Tot_Q>
0

> <i_epik_Tot_abs_Q>
0

> <r_epik_Metal_State_Penalty>
0.0212056

> <b_epik_Metal_Only>
0

> <s_lp_Force_Field>
OPLS_2005

> <r_lp_Energy>
33.0432

> <b_lp_Chiralities_Consistent>
1

> <s_lp_Variant>
AV-unprocessed.smi:2823-1

> <Gold.Version>
5.8.1

> <Gold.Id.Protein>
6NUR|6NUR_protein|mol2

> <Gold.PLP.Fitness>
32.8189

> <Gold.PLP.PLP>
-24.3167

> <Gold.PLP.part.hbond>
-3.0000

> <Gold.PLP.part.metal>
0.0000

> <Gold.PLP.part.buried>
-4.3592

> <Gold.PLP.part.nonpolar>
-17.9171

> <Gold.PLP.part.repulsive>
0.6102

> <Gold.PLP.ligand.clash>
0.0000

> <Gold.PLP.ligand.torsion>
0.3312

> <Gold.PLP.Chemscore.Hbond>
2.9920

> <Gold.PLP.Chemscore.CHOScore>
0.0000

> <Gold.PLP.Chemscore.Metal>
0.0000

> <Gold.Chemscore.Hbonds>
donor molecule, donor type, donor heavy atom, donor atom, acceptor molecule, acceptor atom, score
      L1  H     6    25       P1  7948  0.98
      L1  H     9    26       P1  7948  1.00
      P1  H 10752 10765       L1    13  1.00

> <Gold.PLP.Chemscore.Internal.Correction>
0.1885

> <Gold.Rescore>
     Score         DG    S(hbond)    S(metal)    S(lipo)     H(rot)  DE(clash)    DE(int)     intcor
     14.38     -16.10       2.90        0.00      45.98       1.74       0.02       1.69       ----

> <Gold.Chemscore.Fitness>
14.3845

> <Gold.Chemscore.DG>
-16.0965

> <Gold.Chemscore.ZeroCoef>
-5.4800

> <Gold.Chemscore.Hbond>
2.8985

> <Gold.Chemscore.Metal>
0.0000

> <Gold.Chemscore.Lipo>
45.9809

> <Gold.Chemscore.Internal_Hbond>
0.0000

> <Gold.Chemscore.DEClash>
0.0178

> <Gold.Chemscore.DEInternal>
1.6942

> <Gold.Chemscore.Rot>
1.7360

> <Gold.Chemscore.Internal.Correction>
   9.000000E+99

> <Gold.Chemscore.Hbonds>
donor molecule, donor type, donor heavy atom, donor atom, acceptor molecule, acceptor atom, score
      L1  H     6    25       P1  7948  0.93
      L1  H     9    26       P1  7948  0.98
      P1  H 10752 10765       L1    13  1.00

> <Gold.Chemscore.Hbond.Weighted>
-9.6810

> <Gold.Chemscore.Metal.Weighted>
-0.0000

> <Gold.Chemscore.Lipo.Weighted>
-5.3798

> <Gold.Chemscore.Internal_Hbond.Weighted>
0.0000

> <Gold.Chemscore.DEClash.Weighted>
0.0178

> <Gold.Chemscore.DEInternal.Weighted>
1.6942

> <Gold.Chemscore.Rot.Weighted>
4.4443

> <Gold.Chemscore.Internal.Correction.Weighted>
   9.000000E+99

> <Gold.Protein.RotatedTorsions>
[ 6907 6896 6895 6894 ] final   57.82 input  -60.11 | X-H torsion
[ 7974 7965 7964 7962 ] final -174.47 input  175.53 | X-H torsion
[ 8008 7997 7996 7995 ] final    3.03 input   59.86 | X-H torsion
[ 10167 10162 10161 10158 ] final  -65.77 input  -65.29 | X-H torsion
[ 10718 10713 10712 10709 ] final  -67.51 input   66.30 | X-H torsion
[ 10763 10752 10751 10750 ] final  169.02 input  -60.55 | X-H torsion
[ 11005 11000 10999 10996 ] final -122.08 input  -57.11 | X-H torsion

> <Gold.Protein.ActiveResidues>
 VAL166  LYS551  ARG553  GLY616  TRP617  ASP618  TYR619  PRO620  LYS621  CYS622 
 ASP623  PHE694  ASN695  SER759  ASP760  ASP761  ALA762  ILE779  LEU786  VAL792 
 PHE793  MET794  SER795  GLU796  ALA797  LYS798  CYS799  TRP800  GLU811  SER814 

> <Gold.Protein.RotatedAtoms>
  152.3767  134.6653  160.0157 H   0  0  0  0  0  0  0  0  0  0  0  0  # atno 6907 bound_to 6896
  151.6929  133.3305  159.3255 H   0  0  0  0  0  0  0  0  0  0  0  0  # atno 6908 bound_to 6896
  150.7715  134.6618  159.6388 H   0  0  0  0  0  0  0  0  0  0  0  0  # atno 6909 bound_to 6896
  144.7132  140.1466  143.6387 H   0  0  0  0  0  0  0  0  0  0  0  0  # atno 7974 bound_to 7965
  154.6988  140.2668  155.6740 H   0  0  0  0  0  0  0  0  0  0  0  0  # atno 8008 bound_to 7997
  156.2758  140.2776  156.1515 H   0  0  0  0  0  0  0  0  0  0  0  0  # atno 8009 bound_to 7997
  155.0794  140.0372  157.2624 H   0  0  0  0  0  0  0  0  0  0  0  0  # atno 8010 bound_to 7997
  140.5706  143.2317  151.6546 H   0  0  0  0  0  0  0  0  0  0  0  0  # atno 10167 bound_to 10162
  156.0554  130.4279  150.1864 H   0  0  0  0  0  0  0  0  0  0  0  0  # atno 10718 bound_to 10713
  154.3770  135.2753  155.2233 H   0  0  0  0  0  0  0  0  0  0  0  0  # atno 10763 bound_to 10752
  154.4356  135.5967  153.6100 H   0  0  0  0  0  0  0  0  0  0  0  0  # atno 10764 bound_to 10752
  152.9836  135.6006  154.4008 H   0  0  0  0  0  0  0  0  0  0  0  0  # atno 10765 bound_to 10752
  141.0022  134.0387  157.3523 H   0  0  0  0  0  0  0  0  0  0  0  0  # atno 11005 bound_to 11000
  145.9154  139.2512  143.1413 LP  0  0  0  0  0  0  0  0  0  0  0  0  # atno 17320 bound_to 7965
  145.9674  140.8787  143.0180 LP  0  0  0  0  0  0  0  0  0  0  0  0  # atno 17321 bound_to 7965
  139.5115  144.3506  152.0656 LP  0  0  0  0  0  0  0  0  0  0  0  0  # atno 17342 bound_to 10162
  140.2643  144.4033  150.6174 LP  0  0  0  0  0  0  0  0  0  0  0  0  # atno 17343 bound_to 10162
  156.9941  130.9902  151.3407 LP  0  0  0  0  0  0  0  0  0  0  0  0  # atno 17370 bound_to 10713
  157.5519  130.8188  149.8155 LP  0  0  0  0  0  0  0  0  0  0  0  0  # atno 17371 bound_to 10713
  139.9044  135.0175  156.7420 LP  0  0  0  0  0  0  0  0  0  0  0  0  # atno 17394 bound_to 11000
  140.6871  133.9423  155.7944 LP  0  0  0  0  0  0  0  0  0  0  0  0  # atno 17395 bound_to 11000

$$$$
