AV-unprocessed.smi:1209|AV-procd|sdf|5073|dock6
  -GOLD-   22720 4123D 1   1.00000     0.00000
 Structure written by MMmdl.
 49 51  0  0  0  0  0  0  0  0  2 V2000
  149.8023  130.7744  154.1491 C   0  0  0  0  0  0  0  0  0  0  0  0
  149.4291  132.1505  154.5830 C   0  0  0  0  0  0  0  0  0  0  0  0
  148.4962  133.0455  154.1421 C   0  0  0  0  0  0  0  0  0  0  0  0
  148.6747  134.1662  154.9990 C   0  0  0  0  0  0  0  0  0  0  0  0
  147.9280  135.4724  154.9897 C   0  0  0  0  0  0  0  0  0  0  0  0
  148.7832  136.5982  154.5321 N   0  3  1  0  0  0  0  0  0  0  0  0
  148.1136  137.9164  154.6684 C   0  0  0  0  0  0  0  0  0  0  0  0
  150.1327  136.5726  155.1567 C   0  0  0  0  0  0  0  0  0  0  0  0
  151.0025  137.7738  154.7345 C   0  0  2  0  0  0  0  0  0  0  0  0
  152.0287  137.3112  153.8763 O   0  0  0  0  0  0  0  0  0  0  0  0
  151.6299  138.4833  155.9507 C   0  0  0  0  0  0  0  0  0  0  0  0
  151.1228  139.8324  156.1293 N   0  0  0  0  0  0  0  0  0  0  0  0
  150.2931  140.5001  155.3047 C   0  0  0  0  0  0  0  0  0  0  0  0
  149.9546  141.7379  155.6527 N   0  0  0  0  0  0  0  0  0  0  0  0
  150.6437  141.8915  156.8434 C   0  0  0  0  0  0  0  0  0  0  0  0
  150.7137  142.9911  157.7264 C   0  0  0  0  0  0  0  0  0  0  0  0
  151.4940  142.9276  158.9028 C   0  0  0  0  0  0  0  0  0  0  0  0
  151.5439  144.1358  159.8213 C   0  0  0  0  0  0  0  0  0  0  0  0
  152.2176  141.7480  159.2124 C   0  0  0  0  0  0  0  0  0  0  0  0
  153.0611  141.6568  160.4717 C   0  0  0  0  0  0  0  0  0  0  0  0
  152.1591  140.6401  158.3411 C   0  0  0  0  0  0  0  0  0  0  0  0
  151.3815  140.7165  157.1718 C   0  0  0  0  0  0  0  0  0  0  0  0
  149.6402  133.9615  155.8801 N   0  0  0  0  0  0  0  0  0  0  0  0
  150.1249  132.6740  155.6251 O   0  0  0  0  0  0  0  0  0  0  0  0
  149.3320  130.5249  153.1976 H   0  0  0  0  0  0  0  0  0  0  0  0
  149.4852  130.0372  154.8869 H   0  0  0  0  0  0  0  0  0  0  0  0
  150.8817  130.6867  154.0243 H   0  0  0  0  0  0  0  0  0  0  0  0
  147.7962  132.9176  153.3295 H   0  0  0  0  0  0  0  0  0  0  0  0
  147.0348  135.4126  154.3650 H   0  0  0  0  0  0  0  0  0  0  0  0
  147.5769  135.6681  156.0036 H   0  0  0  0  0  0  0  0  0  0  0  0
  147.8685  138.1229  155.7111 H   0  0  0  0  0  0  0  0  0  0  0  0
  147.1904  137.9526  154.0904 H   0  0  0  0  0  0  0  0  0  0  0  0
  148.7420  138.7278  154.3042 H   0  0  0  0  0  0  0  0  0  0  0  0
  150.0244  136.5390  156.2420 H   0  0  0  0  0  0  0  0  0  0  0  0
  150.6612  135.6594  154.8791 H   0  0  0  0  0  0  0  0  0  0  0  0
  150.4052  138.4997  154.1838 H   0  0  0  0  0  0  0  0  0  0  0  0
  151.6857  137.2479  152.9977 H   0  0  0  0  0  0  0  0  0  0  0  0
  151.4229  137.9201  156.8617 H   0  0  0  0  0  0  0  0  0  0  0  0
  152.7154  138.5276  155.8542 H   0  0  0  0  0  0  0  0  0  0  0  0
  149.9184  140.0529  154.3955 H   0  0  0  0  0  0  0  0  0  0  0  0
  150.1616  143.8890  157.4905 H   0  0  0  0  0  0  0  0  0  0  0  0
  151.1351  143.8879  160.8010 H   0  0  0  0  0  0  0  0  0  0  0  0
  150.9653  144.9670  159.4175 H   0  0  0  0  0  0  0  0  0  0  0  0
  152.5712  144.4765  159.9503 H   0  0  0  0  0  0  0  0  0  0  0  0
  153.5129  140.6702  160.5778 H   0  0  0  0  0  0  0  0  0  0  0  0
  152.4501  141.8405  161.3558 H   0  0  0  0  0  0  0  0  0  0  0  0
  153.8648  142.3928  160.4462 H   0  0  0  0  0  0  0  0  0  0  0  0
  152.7078  139.7376  158.5652 H   0  0  0  0  0  0  0  0  0  0  0  0
  148.9350  136.4448  153.5449 H   0  0  0  0  0  0  0  0  0  0  0  0
  1  2  1  0  0  0  0
  1 25  1  0  0  0  0
  1 26  1  0  0  0  0
  1 27  1  0  0  0  0
  2 24  1  0  0  0  0
  2  3  2  0  0  0  0
  3  4  1  0  0  0  0
  3 28  1  0  0  0  0
  4  5  1  0  0  0  0
  4 23  2  0  0  0  0
  5  6  1  0  0  0  0
  5 29  1  0  0  0  0
  5 30  1  0  0  0  0
  6  7  1  0  0  0  0
  6  8  1  0  0  0  0
  6 49  1  0  0  0  0
  7 31  1  0  0  0  0
  7 32  1  0  0  0  0
  7 33  1  0  0  0  0
  8  9  1  0  0  0  0
  8 34  1  0  0  0  0
  8 35  1  0  0  0  0
  9 10  1  0  0  0  0
  9 11  1  0  0  0  0
  9 36  1  0  0  0  0
 10 37  1  0  0  0  0
 11 12  1  0  0  0  0
 11 38  1  0  0  0  0
 11 39  1  0  0  0  0
 12 22  1  0  0  0  0
 12 13  1  0  0  0  0
 13 14  2  0  0  0  0
 13 40  1  0  0  0  0
 14 15  1  0  0  0  0
 15 22  2  0  0  0  0
 15 16  1  0  0  0  0
 16 17  2  0  0  0  0
 16 41  1  0  0  0  0
 17 18  1  0  0  0  0
 17 19  1  0  0  0  0
 18 42  1  0  0  0  0
 18 43  1  0  0  0  0
 18 44  1  0  0  0  0
 19 20  1  0  0  0  0
 19 21  2  0  0  0  0
 20 45  1  0  0  0  0
 20 46  1  0  0  0  0
 20 47  1  0  0  0  0
 21 22  1  0  0  0  0
 21 48  1  0  0  0  0
 23 24  1  0  0  0  0
M  CHG  1   6   1
M  END
> <s_m_source_file>
AV-unprocessed.smi

> <i_m_source_file_index>
1209

> <i_lp_mmshare_version>
43012

> <i_f3d_flags>
0

> <s_epik_input>
W0NIM11jMVtjSF1jKG5vMSlbQ0gyXU4oW0NIM10pW0NIMl1bQ0BIXShbT0hdKVtDSDJdbihbY0hdbjIpYyhjMjMpW2NIXWMoW0NIM10pYyhbY0hdMylbQ0gzXQ==

> <s_epik_cmdline>
J2VwaWtfcHl0aG9uJywgJy1waCcsICc3LjAnLCAnLXRuJywgJzgnLCAnLW1hJywgJzIwMCcsICctbWV0YWxfYmluZGluZycsICctaW1hZScsICc8aW5maWxlLm1hZT4nLCAnLW9tYWUnLCAnPG91dGZpbGUubWFlPic=

> <r_epik_Ionization_Penalty>
2.05249

> <r_epik_Ionization_Penalty_Charging>
1.96618

> <r_epik_Ionization_Penalty_Neutral>
0.0863156

> <r_epik_State_Penalty>
2.19215

> <r_epik_Charging_Adjusted_Penalty>
4.15833

> <i_epik_Tot_Q>
1

> <i_epik_Tot_abs_Q>
1

> <r_epik_Metal_State_Penalty>
2.17654

> <b_epik_Metal_Only>
0

> <s_lp_Force_Field>
OPLS_2005

> <r_lp_Energy>
10.2768

> <b_lp_Chiralities_Consistent>
1

> <s_lp_Variant>
AV-unprocessed.smi:1209-5

> <Gold.Version>
5.8.1

> <Gold.Id.Protein>
6NUR|6NUR_protein|mol2

> <Gold.PLP.Fitness>
55.0734

> <Gold.PLP.PLP>
-46.2324

> <Gold.PLP.part.hbond>
-3.3786

> <Gold.PLP.part.metal>
0.0000

> <Gold.PLP.part.buried>
-3.3762

> <Gold.PLP.part.nonpolar>
-39.3585

> <Gold.PLP.part.repulsive>
0.1179

> <Gold.PLP.ligand.clash>
0.0000

> <Gold.PLP.ligand.torsion>
1.6493

> <Gold.PLP.Chemscore.Hbond>
3.9600

> <Gold.PLP.Chemscore.CHOScore>
0.0000

> <Gold.PLP.Chemscore.Metal>
0.0000

> <Gold.Chemscore.Hbonds>
donor molecule, donor type, donor heavy atom, donor atom, acceptor molecule, acceptor atom, score
      L1  H     6    49       P1  7948  2.00
      L1  H    10    37       P1  7949  0.91
      P1  H 10752 10763       L1    10  1.00

> <Gold.PLP.Chemscore.Internal.Correction>
0.2597

> <Gold.Rescore>
     Score         DG    S(hbond)    S(metal)    S(lipo)     H(rot)  DE(clash)    DE(int)     intcor
     17.83     -21.50       2.82        0.00     111.75       2.53       0.35       3.32       ----

> <Gold.Chemscore.Fitness>
17.8314

> <Gold.Chemscore.DG>
-21.4986

> <Gold.Chemscore.ZeroCoef>
-5.4800

> <Gold.Chemscore.Hbond>
2.8230

> <Gold.Chemscore.Metal>
0.0000

> <Gold.Chemscore.Lipo>
111.7493

> <Gold.Chemscore.Internal_Hbond>
0.0000

> <Gold.Chemscore.DEClash>
0.3456

> <Gold.Chemscore.DEInternal>
3.3216

> <Gold.Chemscore.Rot>
2.5332

> <Gold.Chemscore.Internal.Correction>
   9.000000E+99

> <Gold.Chemscore.Hbonds>
donor molecule, donor type, donor heavy atom, donor atom, acceptor molecule, acceptor atom, score
      L1  H     6    49       P1  7948  1.00
      L1  H    10    37       P1  7949  0.82
      P1  H 10752 10763       L1    10  0.33

> <Gold.Chemscore.Hbond.Weighted>
-9.4290

> <Gold.Chemscore.Metal.Weighted>
-0.0000

> <Gold.Chemscore.Lipo.Weighted>
-13.0747

> <Gold.Chemscore.Internal_Hbond.Weighted>
0.0000

> <Gold.Chemscore.DEClash.Weighted>
0.3456

> <Gold.Chemscore.DEInternal.Weighted>
3.3216

> <Gold.Chemscore.Rot.Weighted>
6.4851

> <Gold.Chemscore.Internal.Correction.Weighted>
   9.000000E+99

> <Gold.Protein.RotatedTorsions>
[ 6907 6896 6895 6894 ] final  -32.48 input  -60.11 | X-H torsion
[ 7974 7965 7964 7962 ] final  174.79 input  175.53 | X-H torsion
[ 8008 7997 7996 7995 ] final -121.62 input   59.86 | X-H torsion
[ 10167 10162 10161 10158 ] final -166.81 input  -65.29 | X-H torsion
[ 10718 10713 10712 10709 ] final   63.72 input   66.30 | X-H torsion
[ 10763 10752 10751 10750 ] final   25.44 input  -60.55 | X-H torsion
[ 11005 11000 10999 10996 ] final   81.72 input  -57.11 | X-H torsion

> <Gold.Protein.ActiveResidues>
 VAL166  LYS551  ARG553  GLY616  TRP617  ASP618  TYR619  PRO620  LYS621  CYS622 
 ASP623  PHE694  ASN695  SER759  ASP760  ASP761  ALA762  ILE779  LEU786  VAL792 
 PHE793  MET794  SER795  GLU796  ALA797  LYS798  CYS799  TRP800  GLU811  SER814 

> <Gold.Protein.RotatedAtoms>
  151.0782  134.9841  159.8342 H   0  0  0  0  0  0  0  0  0  0  0  0  # atno 6907 bound_to 6896
  152.5416  134.2215  159.8799 H   0  0  0  0  0  0  0  0  0  0  0  0  # atno 6908 bound_to 6896
  151.2243  133.4441  159.2635 H   0  0  0  0  0  0  0  0  0  0  0  0  # atno 6909 bound_to 6896
  144.7214  139.9850  143.6439 H   0  0  0  0  0  0  0  0  0  0  0  0  # atno 7974 bound_to 7965
  155.1509  140.0404  157.2821 H   0  0  0  0  0  0  0  0  0  0  0  0  # atno 8008 bound_to 7997
  154.6405  140.2545  155.7301 H   0  0  0  0  0  0  0  0  0  0  0  0  # atno 8009 bound_to 7997
  156.2530  140.2857  156.0796 H   0  0  0  0  0  0  0  0  0  0  0  0  # atno 8010 bound_to 7997
  139.6091  144.0852  152.1823 H   0  0  0  0  0  0  0  0  0  0  0  0  # atno 10167 bound_to 10162
  157.5990  130.9120  149.9752 H   0  0  0  0  0  0  0  0  0  0  0  0  # atno 10718 bound_to 10713
  153.0692  135.6583  154.0286 H   0  0  0  0  0  0  0  0  0  0  0  0  # atno 10763 bound_to 10752
  153.9936  135.2943  155.3411 H   0  0  0  0  0  0  0  0  0  0  0  0  # atno 10764 bound_to 10752
  154.7060  135.5225  153.8666 H   0  0  0  0  0  0  0  0  0  0  0  0  # atno 10765 bound_to 10752
  139.9088  134.8017  156.2078 H   0  0  0  0  0  0  0  0  0  0  0  0  # atno 11005 bound_to 11000
  146.0457  139.3463  143.0670 LP  0  0  0  0  0  0  0  0  0  0  0  0  # atno 17320 bound_to 7965
  145.8278  140.9646  143.0865 LP  0  0  0  0  0  0  0  0  0  0  0  0  # atno 17321 bound_to 7965
  140.0467  144.5965  150.7368 LP  0  0  0  0  0  0  0  0  0  0  0  0  # atno 17342 bound_to 10162
  140.7306  143.2685  151.3966 LP  0  0  0  0  0  0  0  0  0  0  0  0  # atno 17343 bound_to 10162
  156.1059  130.3653  150.0134 LP  0  0  0  0  0  0  0  0  0  0  0  0  # atno 17370 bound_to 10713
  156.8241  130.9369  151.3640 LP  0  0  0  0  0  0  0  0  0  0  0  0  # atno 17371 bound_to 10713
  141.0484  133.6901  156.1726 LP  0  0  0  0  0  0  0  0  0  0  0  0  # atno 17394 bound_to 11000
  140.6848  134.4729  157.5589 LP  0  0  0  0  0  0  0  0  0  0  0  0  # atno 17395 bound_to 11000

$$$$
