AV-unprocessed.smi:2812|AV-procd|sdf|10835|dock6
  -GOLD-   2272015273D 1   1.00000     0.00000
 Structure written by MMmdl.
 55 56  0  0  0  0  0  0  0  0  2 V2000
  147.6108  132.8959  153.2007 C   0  0  0  0  0  0  0  0  0  0  0  0
  146.3866  132.9228  152.2991 C   0  0  0  0  0  0  0  0  0  0  0  0
  145.7273  131.6770  151.9667 C   0  0  0  0  0  0  0  0  0  0  0  0
  144.6578  131.6921  151.1600 C   0  0  0  0  0  0  0  0  0  0  0  0
  144.1467  132.8886  150.6366 N   0  0  0  0  0  0  0  0  0  0  0  0
  142.9622  132.8009  149.7783 C   0  0  0  0  0  0  0  0  0  0  0  0
  144.6928  134.1042  150.9281 C   0  0  0  0  0  0  0  0  0  0  0  0
  144.1784  135.1448  150.5114 O   0  0  0  0  0  0  0  0  0  0  0  0
  145.9085  134.0828  151.7772 C   0  0  0  0  0  0  0  0  0  0  0  0
  146.5417  135.2893  152.1130 N   0  0  0  0  0  0  0  0  0  0  0  0
  145.9298  136.4201  152.5061 C   0  0  0  0  0  0  0  0  0  0  0  0
  144.7155  136.5443  152.6716 O   0  0  0  0  0  0  0  0  0  0  0  0
  146.8056  137.4233  152.6599 N   0  0  0  0  0  0  0  0  0  0  0  0
  146.4547  138.7925  153.0286 C   0  0  0  0  0  0  0  0  0  0  0  0
  147.6835  139.6544  153.4434 C   0  0  2  0  0  0  0  0  0  0  0  0
  148.7461  138.7618  154.1377 C   0  0  0  0  0  0  0  0  0  0  0  0
  149.9881  139.5503  154.5555 C   0  0  0  0  0  0  0  0  0  0  0  0
  149.5687  140.7152  155.4472 C   0  0  0  0  0  0  0  0  0  0  0  0
  148.5381  141.5930  154.7276 C   0  0  0  0  0  0  0  0  0  0  0  0
  147.3256  140.8222  154.3216 N   0  3  1  0  0  0  0  0  0  0  0  0
  146.2665  141.7192  153.7656 C   0  0  0  0  0  0  0  0  0  0  0  0
  146.0455  143.0242  154.5685 C   0  0  0  0  0  0  0  0  0  0  0  0
  145.5102  142.7479  155.9839 C   0  0  0  0  0  0  0  0  0  0  0  0
  145.0921  143.9619  153.8123 C   0  0  0  0  0  0  0  0  0  0  0  0
  147.8508  131.8784  153.5102 H   0  0  0  0  0  0  0  0  0  0  0  0
  147.4388  133.4885  154.0996 H   0  0  0  0  0  0  0  0  0  0  0  0
  148.4781  133.3013  152.6787 H   0  0  0  0  0  0  0  0  0  0  0  0
  146.0940  130.7391  152.3575 H   0  0  0  0  0  0  0  0  0  0  0  0
  144.1261  130.7957  150.8758 H   0  0  0  0  0  0  0  0  0  0  0  0
  143.1246  133.3281  148.8369 H   0  0  0  0  0  0  0  0  0  0  0  0
  142.1000  133.2479  150.2751 H   0  0  0  0  0  0  0  0  0  0  0  0
  142.7006  131.7723  149.5272 H   0  0  0  0  0  0  0  0  0  0  0  0
  147.5271  135.3423  151.9003 H   0  0  0  0  0  0  0  0  0  0  0  0
  147.7836  137.2301  152.4989 H   0  0  0  0  0  0  0  0  0  0  0  0
  145.9315  139.2088  152.1691 H   0  0  0  0  0  0  0  0  0  0  0  0
  145.7344  138.7488  153.8460 H   0  0  0  0  0  0  0  0  0  0  0  0
  148.1297  140.0667  152.5369 H   0  0  0  0  0  0  0  0  0  0  0  0
  148.3066  138.2845  155.0148 H   0  0  0  0  0  0  0  0  0  0  0  0
  149.0680  137.9542  153.4802 H   0  0  0  0  0  0  0  0  0  0  0  0
  150.6883  138.9024  155.0836 H   0  0  0  0  0  0  0  0  0  0  0  0
  150.5079  139.9234  153.6719 H   0  0  0  0  0  0  0  0  0  0  0  0
  149.1484  140.3386  156.3808 H   0  0  0  0  0  0  0  0  0  0  0  0
  150.4421  141.3098  155.7168 H   0  0  0  0  0  0  0  0  0  0  0  0
  148.2800  142.4029  155.4060 H   0  0  0  0  0  0  0  0  0  0  0  0
  148.9882  142.0533  153.8464 H   0  0  0  0  0  0  0  0  0  0  0  0
  146.5041  141.9477  152.7254 H   0  0  0  0  0  0  0  0  0  0  0  0
  145.3011  141.2227  153.7549 H   0  0  0  0  0  0  0  0  0  0  0  0
  146.9843  143.5673  154.6611 H   0  0  0  0  0  0  0  0  0  0  0  0
  144.5642  142.2061  155.9518 H   0  0  0  0  0  0  0  0  0  0  0  0
  145.3408  143.6782  156.5271 H   0  0  0  0  0  0  0  0  0  0  0  0
  146.2136  142.1564  156.5701 H   0  0  0  0  0  0  0  0  0  0  0  0
  144.1064  143.5120  153.6874 H   0  0  0  0  0  0  0  0  0  0  0  0
  145.4777  144.1991  152.8202 H   0  0  0  0  0  0  0  0  0  0  0  0
  144.9605  144.9040  154.3458 H   0  0  0  0  0  0  0  0  0  0  0  0
  146.9397  140.4254  155.1662 H   0  0  0  0  0  0  0  0  0  0  0  0
  1  2  1  0  0  0  0
  1 25  1  0  0  0  0
  1 26  1  0  0  0  0
  1 27  1  0  0  0  0
  2  9  2  0  0  0  0
  2  3  1  0  0  0  0
  3  4  2  0  0  0  0
  3 28  1  0  0  0  0
  4  5  1  0  0  0  0
  4 29  1  0  0  0  0
  5  6  1  0  0  0  0
  5  7  1  0  0  0  0
  6 30  1  0  0  0  0
  6 31  1  0  0  0  0
  6 32  1  0  0  0  0
  7  8  2  0  0  0  0
  7  9  1  0  0  0  0
  9 10  1  0  0  0  0
 10 11  1  0  0  0  0
 10 33  1  0  0  0  0
 11 12  2  0  0  0  0
 11 13  1  0  0  0  0
 13 14  1  0  0  0  0
 13 34  1  0  0  0  0
 14 15  1  0  0  0  0
 14 35  1  0  0  0  0
 14 36  1  0  0  0  0
 15 20  1  0  0  0  0
 15 16  1  0  0  0  0
 15 37  1  0  0  0  0
 16 17  1  0  0  0  0
 16 38  1  0  0  0  0
 16 39  1  0  0  0  0
 17 18  1  0  0  0  0
 17 40  1  0  0  0  0
 17 41  1  0  0  0  0
 18 19  1  0  0  0  0
 18 42  1  0  0  0  0
 18 43  1  0  0  0  0
 19 20  1  0  0  0  0
 19 44  1  0  0  0  0
 19 45  1  0  0  0  0
 20 21  1  0  0  0  0
 20 55  1  0  0  0  0
 21 22  1  0  0  0  0
 21 46  1  0  0  0  0
 21 47  1  0  0  0  0
 22 23  1  0  0  0  0
 22 24  1  0  0  0  0
 22 48  1  0  0  0  0
 23 49  1  0  0  0  0
 23 50  1  0  0  0  0
 23 51  1  0  0  0  0
 24 52  1  0  0  0  0
 24 53  1  0  0  0  0
 24 54  1  0  0  0  0
M  CHG  1  20   1
M  END
> <s_m_source_file>
AV-unprocessed.smi

> <i_m_source_file_index>
2812

> <i_lp_mmshare_version>
43012

> <i_f3d_flags>
0

> <s_epik_input>
W0NIM11jMVtjSF1bY0hdbihbQ0gzXSljKD1PKWMxW05IXUMoPU8pW05IXVtDSDJdW0NAQEhdMltDSDJdW0NIMl1bQ0gyXVtDSDJdTjJbQ0gyXVtDSF0oW0NIM10pW0NIM10=

> <s_epik_cmdline>
J2VwaWtfcHl0aG9uJywgJy1waCcsICc3LjAnLCAnLXRuJywgJzgnLCAnLW1hJywgJzIwMCcsICctbWV0YWxfYmluZGluZycsICctaW1hZScsICc8aW5maWxlLm1hZT4nLCAnLW9tYWUnLCAnPG91dGZpbGUubWFlPic=

> <r_lp_tautomer_probability>
1

> <r_epik_Ionization_Penalty>
0.0010902

> <r_epik_Ionization_Penalty_Charging>
0.00107091

> <r_epik_Ionization_Penalty_Neutral>
1.92854e-05

> <r_epik_State_Penalty>
0.000697184

> <r_epik_Charging_Adjusted_Penalty>
0.0017681

> <i_epik_Tot_Q>
1

> <i_epik_Tot_abs_Q>
1

> <r_epik_Metal_State_Penalty>
-0

> <b_epik_Metal_Only>
0

> <s_lp_Force_Field>
OPLS_2005

> <r_lp_Energy>
39.8559

> <b_lp_Chiralities_Consistent>
1

> <s_lp_Variant>
AV-unprocessed.smi:2812-3

> <Gold.Version>
5.8.1

> <Gold.Id.Protein>
6NUR|6NUR_protein|mol2

> <Gold.PLP.Fitness>
46.7028

> <Gold.PLP.PLP>
-41.8332

> <Gold.PLP.part.hbond>
-1.5589

> <Gold.PLP.part.metal>
0.0000

> <Gold.PLP.part.buried>
0.7773

> <Gold.PLP.part.nonpolar>
-43.3803

> <Gold.PLP.part.repulsive>
1.2644

> <Gold.PLP.ligand.clash>
0.0000

> <Gold.PLP.ligand.torsion>
0.8414

> <Gold.PLP.Chemscore.Hbond>
1.9200

> <Gold.PLP.Chemscore.CHOScore>
0.0000

> <Gold.PLP.Chemscore.Metal>
0.0000

> <Gold.Chemscore.Hbonds>
donor molecule, donor type, donor heavy atom, donor atom, acceptor molecule, acceptor atom, score
      L1  H    10    33       P1  7948  1.00
      L1  H    13    34       P1  7948  0.98

> <Gold.PLP.Chemscore.Internal.Correction>
0.7925

> <Gold.Rescore>
     Score         DG    S(hbond)    S(metal)    S(lipo)     H(rot)  DE(clash)    DE(int)     intcor
     12.95     -20.18       1.88        0.00     105.04       1.52       2.68       4.56       ----

> <Gold.Chemscore.Fitness>
12.9469

> <Gold.Chemscore.DG>
-20.1833

> <Gold.Chemscore.ZeroCoef>
-5.4800

> <Gold.Chemscore.Hbond>
1.8843

> <Gold.Chemscore.Metal>
0.0000

> <Gold.Chemscore.Lipo>
105.0427

> <Gold.Chemscore.Internal_Hbond>
0.0000

> <Gold.Chemscore.DEClash>
2.6753

> <Gold.Chemscore.DEInternal>
4.5611

> <Gold.Chemscore.Rot>
1.5157

> <Gold.Chemscore.Internal.Correction>
   9.000000E+99

> <Gold.Chemscore.Hbonds>
donor molecule, donor type, donor heavy atom, donor atom, acceptor molecule, acceptor atom, score
      L1  H    10    33       P1  7948  0.93
      L1  H    13    34       P1  7948  0.93

> <Gold.Chemscore.Hbond.Weighted>
-6.2936

> <Gold.Chemscore.Metal.Weighted>
-0.0000

> <Gold.Chemscore.Lipo.Weighted>
-12.2900

> <Gold.Chemscore.Internal_Hbond.Weighted>
0.0000

> <Gold.Chemscore.DEClash.Weighted>
2.6753

> <Gold.Chemscore.DEInternal.Weighted>
4.5611

> <Gold.Chemscore.Rot.Weighted>
3.8803

> <Gold.Chemscore.Internal.Correction.Weighted>
   9.000000E+99

> <Gold.Protein.RotatedTorsions>
[ 6907 6896 6895 6894 ] final  -68.47 input  -60.11 | X-H torsion
[ 7974 7965 7964 7962 ] final  -22.65 input  175.53 | X-H torsion
[ 8008 7997 7996 7995 ] final -158.66 input   59.86 | X-H torsion
[ 10167 10162 10161 10158 ] final  160.53 input  -65.29 | X-H torsion
[ 10718 10713 10712 10709 ] final  -76.57 input   66.30 | X-H torsion
[ 10763 10752 10751 10750 ] final  118.54 input  -60.55 | X-H torsion
[ 11005 11000 10999 10996 ] final  112.48 input  -57.11 | X-H torsion

> <Gold.Protein.ActiveResidues>
 VAL166  LYS551  ARG553  GLY616  TRP617  ASP618  TYR619  PRO620  LYS621  CYS622 
 ASP623  PHE694  ASN695  SER759  ASP760  ASP761  ALA762  ILE779  LEU786  VAL792 
 PHE793  MET794  SER795  GLU796  ALA797  LYS798  CYS799  TRP800  GLU811  SER814 

> <Gold.Protein.RotatedAtoms>
  150.7354  134.5734  159.5901 H   0  0  0  0  0  0  0  0  0  0  0  0  # atno 6907 bound_to 6896
  152.3167  134.7428  160.0332 H   0  0  0  0  0  0  0  0  0  0  0  0  # atno 6908 bound_to 6896
  151.7958  133.3328  159.3549 H   0  0  0  0  0  0  0  0  0  0  0  0  # atno 6909 bound_to 6896
  146.1663  140.4509  142.8551 H   0  0  0  0  0  0  0  0  0  0  0  0  # atno 7974 bound_to 7965
  155.7509  140.0826  157.2201 H   0  0  0  0  0  0  0  0  0  0  0  0  # atno 8008 bound_to 7997
  154.4012  140.1560  156.2779 H   0  0  0  0  0  0  0  0  0  0  0  0  # atno 8009 bound_to 7997
  155.8931  140.3414  155.5974 H   0  0  0  0  0  0  0  0  0  0  0  0  # atno 8010 bound_to 7997
  139.4841  144.4625  151.8685 H   0  0  0  0  0  0  0  0  0  0  0  0  # atno 10167 bound_to 10162
  156.0171  130.4469  150.3213 H   0  0  0  0  0  0  0  0  0  0  0  0  # atno 10718 bound_to 10713
  153.5692  135.3505  155.2831 H   0  0  0  0  0  0  0  0  0  0  0  0  # atno 10763 bound_to 10752
  154.8684  135.4155  154.2744 H   0  0  0  0  0  0  0  0  0  0  0  0  # atno 10764 bound_to 10752
  153.3506  135.7055  153.6861 H   0  0  0  0  0  0  0  0  0  0  0  0  # atno 10765 bound_to 10752
  139.8928  134.9531  156.6592 H   0  0  0  0  0  0  0  0  0  0  0  0  # atno 11005 bound_to 11000
  144.8097  140.6363  143.6423 LP  0  0  0  0  0  0  0  0  0  0  0  0  # atno 17320 bound_to 7965
  145.4459  139.1529  143.3945 LP  0  0  0  0  0  0  0  0  0  0  0  0  # atno 17321 bound_to 7965
  140.4088  144.2396  150.5889 LP  0  0  0  0  0  0  0  0  0  0  0  0  # atno 17342 bound_to 10162
  140.4986  143.2325  151.8712 LP  0  0  0  0  0  0  0  0  0  0  0  0  # atno 17343 bound_to 10162
  157.1313  131.0272  151.2968 LP  0  0  0  0  0  0  0  0  0  0  0  0  # atno 17370 bound_to 10713
  157.4548  130.7619  149.7183 LP  0  0  0  0  0  0  0  0  0  0  0  0  # atno 17371 bound_to 10713
  140.7460  133.8937  155.8312 LP  0  0  0  0  0  0  0  0  0  0  0  0  # atno 17394 bound_to 11000
  141.0039  134.1112  157.4289 LP  0  0  0  0  0  0  0  0  0  0  0  0  # atno 17395 bound_to 11000

$$$$
