AV-unprocessed.smi:2439|AV-procd|sdf|9614|dock1
  -GOLD-   2272013243D 1   1.00000     0.00000
 Structure written by MMmdl.
 40 42  0  0  0  0  0  0  0  0  1 V2000
  149.6569  135.6878  158.6977 N   0  0  0  0  0  0  0  0  0  0  0  0
  150.2212  136.3239  157.9131 C   0  0  0  0  0  0  0  0  0  0  0  0
  150.9326  137.1255  156.9248 C   0  0  0  0  0  0  0  0  0  0  0  0
  150.3841  137.2599  155.6319 C   0  0  0  0  0  0  0  0  0  0  0  0
  151.0663  138.0321  154.6741 C   0  0  0  0  0  0  0  0  0  0  0  0
  152.2751  138.6444  155.0511 C   0  0  0  0  0  0  0  0  0  0  0  0
  152.8095  138.5257  156.2841 N   0  0  0  0  0  0  0  0  0  0  0  0
  152.1611  137.7794  157.2123 C   0  0  0  0  0  0  0  0  0  0  0  0
  152.7412  137.6742  158.4905 N   0  0  0  0  0  0  0  0  0  0  0  0
  153.3652  138.8155  159.1501 C   0  0  0  0  0  0  0  0  0  0  0  0
  152.4639  140.0611  159.1457 C   0  0  1  0  0  0  0  0  0  0  0  0
  153.0912  141.2178  159.9449 C   0  0  0  0  0  0  0  0  0  0  0  0
  152.2773  142.4250  159.8827 N   0  0  0  0  0  0  0  0  0  0  0  0
  152.8865  143.5169  160.6404 C   0  0  0  0  0  0  0  0  0  0  0  0
  152.0297  144.7927  160.6201 C   0  0  0  0  0  0  0  0  0  0  0  0
  151.7626  145.2327  159.1736 C   0  0  0  0  0  0  0  0  0  0  0  0
  151.1732  144.0649  158.3675 C   0  0  0  0  0  0  0  0  0  0  0  0
  152.0620  142.8093  158.4845 C   0  0  2  0  0  0  0  0  0  0  0  0
  151.4615  141.6395  157.6782 C   0  0  0  0  0  0  0  0  0  0  0  0
  152.2944  140.4907  157.7972 O   0  0  0  0  0  0  0  0  0  0  0  0
  149.4518  136.7789  155.3722 H   0  0  0  0  0  0  0  0  0  0  0  0
  150.6720  138.1528  153.6760 H   0  0  0  0  0  0  0  0  0  0  0  0
  152.8276  139.2464  154.3448 H   0  0  0  0  0  0  0  0  0  0  0  0
  152.9054  136.7559  158.8778 H   0  0  0  0  0  0  0  0  0  0  0  0
  153.6333  138.5431  160.1713 H   0  0  0  0  0  0  0  0  0  0  0  0
  154.3036  139.0369  158.6416 H   0  0  0  0  0  0  0  0  0  0  0  0
  151.4900  139.8180  159.5743 H   0  0  0  0  0  0  0  0  0  0  0  0
  153.2162  140.9135  160.9847 H   0  0  0  0  0  0  0  0  0  0  0  0
  154.0904  141.4258  159.5586 H   0  0  0  0  0  0  0  0  0  0  0  0
  153.0361  143.2056  161.6750 H   0  0  0  0  0  0  0  0  0  0  0  0
  153.8764  143.7391  160.2390 H   0  0  0  0  0  0  0  0  0  0  0  0
  151.0834  144.6062  161.1298 H   0  0  0  0  0  0  0  0  0  0  0  0
  152.5289  145.5907  161.1703 H   0  0  0  0  0  0  0  0  0  0  0  0
  151.0858  146.0872  159.1553 H   0  0  0  0  0  0  0  0  0  0  0  0
  152.6953  145.5609  158.7130 H   0  0  0  0  0  0  0  0  0  0  0  0
  150.1699  143.8414  158.7332 H   0  0  0  0  0  0  0  0  0  0  0  0
  151.0655  144.3559  157.3221 H   0  0  0  0  0  0  0  0  0  0  0  0
  153.0301  143.0471  158.0399 H   0  0  0  0  0  0  0  0  0  0  0  0
  150.4549  141.4008  158.0255 H   0  0  0  0  0  0  0  0  0  0  0  0
  151.3809  141.9051  156.6238 H   0  0  0  0  0  0  0  0  0  0  0  0
  1  2  3  0  0  0  0
  2  3  1  0  0  0  0
  3  8  1  0  0  0  0
  3  4  2  0  0  0  0
  4  5  1  0  0  0  0
  4 21  1  0  0  0  0
  5  6  2  0  0  0  0
  5 22  1  0  0  0  0
  6  7  1  0  0  0  0
  6 23  1  0  0  0  0
  7  8  2  0  0  0  0
  8  9  1  0  0  0  0
  9 10  1  0  0  0  0
  9 24  1  0  0  0  0
 10 11  1  0  0  0  0
 10 25  1  0  0  0  0
 10 26  1  0  0  0  0
 11 20  1  0  0  0  0
 11 12  1  0  0  0  0
 11 27  1  0  0  0  0
 12 13  1  0  0  0  0
 12 28  1  0  0  0  0
 12 29  1  0  0  0  0
 13 18  1  0  0  0  0
 13 14  1  0  0  0  0
 14 15  1  0  0  0  0
 14 30  1  0  0  0  0
 14 31  1  0  0  0  0
 15 16  1  0  0  0  0
 15 32  1  0  0  0  0
 15 33  1  0  0  0  0
 16 17  1  0  0  0  0
 16 34  1  0  0  0  0
 16 35  1  0  0  0  0
 17 18  1  0  0  0  0
 17 36  1  0  0  0  0
 17 37  1  0  0  0  0
 18 19  1  0  0  0  0
 18 38  1  0  0  0  0
 19 20  1  0  0  0  0
 19 39  1  0  0  0  0
 19 40  1  0  0  0  0
M  END
> <s_m_source_file>
AV-unprocessed.smi

> <i_m_source_file_index>
2439

> <i_lp_mmshare_version>
43012

> <i_f3d_flags>
0

> <s_epik_input>
TiNDYzFbY0hdW2NIXVtjSF1uYzFbTkhdW0NIMl1bQ0BIXShbQ0gyXTIpT1tDSDJdW0NAQEhdKE4yMylbQ0gyXVtDSDJdW0NIMl1bQ0gyXTM=

> <s_epik_cmdline>
J2VwaWtfcHl0aG9uJywgJy1waCcsICc3LjAnLCAnLXRuJywgJzgnLCAnLW1hJywgJzIwMCcsICctbWV0YWxfYmluZGluZycsICctaW1hZScsICc8aW5maWxlLm1hZT4nLCAnLW9tYWUnLCAnPG91dGZpbGUubWFlPic=

> <r_epik_Ionization_Penalty>
1.22355

> <r_epik_Ionization_Penalty_Charging>
0

> <r_epik_Ionization_Penalty_Neutral>
1.22355

> <r_epik_State_Penalty>
1.29103

> <r_epik_Charging_Adjusted_Penalty>
1.29103

> <i_epik_Tot_Q>
0

> <i_epik_Tot_abs_Q>
0

> <r_epik_Metal_State_Penalty>
1.29103

> <b_epik_Metal_Only>
0

> <s_lp_Force_Field>
OPLS_2005

> <r_lp_Energy>
37.4095

> <b_lp_Chiralities_Consistent>
1

> <s_lp_Variant>
AV-unprocessed.smi:2439-12

> <Gold.Version>
5.8.1

> <Gold.Id.Protein>
6NUR|6NUR_protein|mol2

> <Gold.PLP.Fitness>
44.9381

> <Gold.PLP.PLP>
-39.7419

> <Gold.PLP.part.hbond>
-2.9385

> <Gold.PLP.part.metal>
0.0000

> <Gold.PLP.part.buried>
-6.2072

> <Gold.PLP.part.nonpolar>
-30.3578

> <Gold.PLP.part.repulsive>
0.1006

> <Gold.PLP.ligand.clash>
0.0000

> <Gold.PLP.ligand.torsion>
0.3800

> <Gold.PLP.Chemscore.Hbond>
1.9840

> <Gold.PLP.Chemscore.CHOScore>
0.0000

> <Gold.PLP.Chemscore.Metal>
0.0000

> <Gold.Chemscore.Hbonds>
donor molecule, donor type, donor heavy atom, donor atom, acceptor molecule, acceptor atom, score
      P1  H  6896  6907       L1     1  1.00
      P1  H  7997  8009       L1     7  0.57

> <Gold.PLP.Chemscore.Internal.Correction>
0.0041

> <Gold.Rescore>
     Score         DG    S(hbond)    S(metal)    S(lipo)     H(rot)  DE(clash)    DE(int)     intcor
     17.69     -21.35       1.70        0.00     114.30       1.25       0.03       3.62       ----

> <Gold.Chemscore.Fitness>
17.6938

> <Gold.Chemscore.DG>
-21.3462

> <Gold.Chemscore.ZeroCoef>
-5.4800

> <Gold.Chemscore.Hbond>
1.7033

> <Gold.Chemscore.Metal>
0.0000

> <Gold.Chemscore.Lipo>
114.3015

> <Gold.Chemscore.Internal_Hbond>
0.0000

> <Gold.Chemscore.DEClash>
0.0316

> <Gold.Chemscore.DEInternal>
3.6208

> <Gold.Chemscore.Rot>
1.2485

> <Gold.Chemscore.Internal.Correction>
   9.000000E+99

> <Gold.Chemscore.Hbonds>
donor molecule, donor type, donor heavy atom, donor atom, acceptor molecule, acceptor atom, score
      P1  H  6896  6907       L1     1  0.78
      P1  H  7997  8009       L1     7  0.36

> <Gold.Chemscore.Hbond.Weighted>
-5.6890

> <Gold.Chemscore.Metal.Weighted>
-0.0000

> <Gold.Chemscore.Lipo.Weighted>
-13.3733

> <Gold.Chemscore.Internal_Hbond.Weighted>
0.0000

> <Gold.Chemscore.DEClash.Weighted>
0.0316

> <Gold.Chemscore.DEInternal.Weighted>
3.6208

> <Gold.Chemscore.Rot.Weighted>
3.1961

> <Gold.Chemscore.Internal.Correction.Weighted>
   9.000000E+99

> <Gold.Protein.RotatedTorsions>
[ 6907 6896 6895 6894 ] final  -59.51 input  -60.11 | X-H torsion
[ 7974 7965 7964 7962 ] final -112.57 input  175.53 | X-H torsion
[ 8008 7997 7996 7995 ] final -173.69 input   59.86 | X-H torsion
[ 10167 10162 10161 10158 ] final  168.05 input  -65.29 | X-H torsion
[ 10718 10713 10712 10709 ] final   64.70 input   66.30 | X-H torsion
[ 10763 10752 10751 10750 ] final   13.82 input  -60.55 | X-H torsion
[ 11005 11000 10999 10996 ] final    5.93 input  -57.11 | X-H torsion

> <Gold.Protein.ActiveResidues>
 VAL166  LYS551  ARG553  GLY616  TRP617  ASP618  TYR619  PRO620  LYS621  CYS622 
 ASP623  PHE694  ASN695  SER759  ASP760  ASP761  ALA762  ILE779  LEU786  VAL792 
 PHE793  MET794  SER795  GLU796  ALA797  LYS798  CYS799  TRP800  GLU811  SER814 

> <Gold.Protein.RotatedAtoms>
  150.7925  134.6959  159.6522 H   0  0  0  0  0  0  0  0  0  0  0  0  # atno 6907 bound_to 6896
  152.4032  134.6247  160.0070 H   0  0  0  0  0  0  0  0  0  0  0  0  # atno 6908 bound_to 6896
  151.6512  133.3284  159.3188 H   0  0  0  0  0  0  0  0  0  0  0  0  # atno 6909 bound_to 6896
  145.1424  140.8785  143.3694 H   0  0  0  0  0  0  0  0  0  0  0  0  # atno 7974 bound_to 7965
  155.9607  140.1144  157.0898 H   0  0  0  0  0  0  0  0  0  0  0  0  # atno 8008 bound_to 7997
  154.4131  140.1182  156.5241 H   0  0  0  0  0  0  0  0  0  0  0  0  # atno 8009 bound_to 7997
  155.6724  140.3473  155.4826 H   0  0  0  0  0  0  0  0  0  0  0  0  # atno 8010 bound_to 7997
  139.4959  144.3857  151.9573 H   0  0  0  0  0  0  0  0  0  0  0  0  # atno 10167 bound_to 10162
  157.6057  130.9174  149.9880 H   0  0  0  0  0  0  0  0  0  0  0  0  # atno 10718 bound_to 10713
  153.1683  135.6808  153.8644 H   0  0  0  0  0  0  0  0  0  0  0  0  # atno 10763 bound_to 10752
  153.8016  135.3155  155.3392 H   0  0  0  0  0  0  0  0  0  0  0  0  # atno 10764 bound_to 10752
  154.7980  135.4795  154.0299 H   0  0  0  0  0  0  0  0  0  0  0  0  # atno 10765 bound_to 10752
  140.5652  134.0155  155.7987 H   0  0  0  0  0  0  0  0  0  0  0  0  # atno 11005 bound_to 11000
  145.0518  139.3175  143.5925 LP  0  0  0  0  0  0  0  0  0  0  0  0  # atno 17320 bound_to 7965
  146.3503  139.9929  142.8684 LP  0  0  0  0  0  0  0  0  0  0  0  0  # atno 17321 bound_to 7965
  140.3293  144.3335  150.5991 LP  0  0  0  0  0  0  0  0  0  0  0  0  # atno 17342 bound_to 10162
  140.5658  143.2186  151.7686 LP  0  0  0  0  0  0  0  0  0  0  0  0  # atno 17343 bound_to 10162
  156.1143  130.3648  149.9996 LP  0  0  0  0  0  0  0  0  0  0  0  0  # atno 17370 bound_to 10713
  156.8088  130.9317  151.3644 LP  0  0  0  0  0  0  0  0  0  0  0  0  # atno 17371 bound_to 10713
  141.1090  133.9647  157.2944 LP  0  0  0  0  0  0  0  0  0  0  0  0  # atno 17394 bound_to 11000
  139.9388  135.0193  156.8643 LP  0  0  0  0  0  0  0  0  0  0  0  0  # atno 17395 bound_to 11000

$$$$
