AV-unprocessed.smi:3032|AV-procd|sdf|11571|dock10
  -GOLD-   2272016533D 1   1.00000     0.00000
 Structure written by MMmdl.
 36 37  0  0  0  0  0  0  0  0  2 V2000
  153.4088  142.4895  161.4681 C   0  0  0  0  0  0  0  0  0  0  0  0
  152.7456  143.1194  160.2347 C   0  0  2  0  0  0  0  0  0  0  0  0
  151.9455  144.3821  160.6086 C   0  0  0  0  0  0  0  0  0  0  0  0
  151.2745  145.0097  159.3766 C   0  0  0  0  0  0  0  0  0  0  0  0
  150.3792  143.9926  158.6522 C   0  0  0  0  0  0  0  0  0  0  0  0
  151.1734  142.7300  158.2586 C   0  0  2  0  0  0  0  0  0  0  0  0
  150.2656  141.7130  157.5541 C   0  0  0  0  0  0  0  0  0  0  0  0
  150.2037  140.5507  157.9576 O   0  0  0  0  0  0  0  0  0  0  0  0
  149.5633  142.1649  156.5046 N   0  0  0  0  0  0  0  0  0  0  0  0
  148.6009  141.3790  155.7393 C   0  0  0  0  0  0  0  0  0  0  0  0
  149.2730  140.5376  154.6387 C   0  0  0  0  0  0  0  0  0  0  0  0
  150.4921  139.7794  155.1258 C   0  0  0  0  0  0  0  0  0  0  0  0
  151.7748  140.1219  154.8865 N   0  5  0  0  0  0  0  0  0  0  0  0
  152.5894  139.2328  155.4202 N   0  0  0  0  0  0  0  0  0  0  0  0
  151.7713  138.3360  155.9832 C   0  0  0  0  0  0  0  0  0  0  0  0
  150.4802  138.6402  155.8146 N   0  0  0  0  0  0  0  0  0  0  0  0
  151.8425  142.1067  159.5029 C   0  0  0  0  0  0  0  0  0  0  0  0
  152.6642  142.1590  162.1932 H   0  0  0  0  0  0  0  0  0  0  0  0
  154.0673  143.2011  161.9670 H   0  0  0  0  0  0  0  0  0  0  0  0
  154.0105  141.6232  161.1906 H   0  0  0  0  0  0  0  0  0  0  0  0
  153.5412  143.4164  159.5499 H   0  0  0  0  0  0  0  0  0  0  0  0
  151.1835  144.1310  161.3479 H   0  0  0  0  0  0  0  0  0  0  0  0
  152.6017  145.1151  161.0790 H   0  0  0  0  0  0  0  0  0  0  0  0
  150.6843  145.8762  159.6758 H   0  0  0  0  0  0  0  0  0  0  0  0
  152.0386  145.3779  158.6908 H   0  0  0  0  0  0  0  0  0  0  0  0
  149.5426  143.7252  159.3002 H   0  0  0  0  0  0  0  0  0  0  0  0
  149.9459  144.4556  157.7642 H   0  0  0  0  0  0  0  0  0  0  0  0
  151.9604  143.0273  157.5626 H   0  0  0  0  0  0  0  0  0  0  0  0
  149.6612  143.1370  156.2496 H   0  0  0  0  0  0  0  0  0  0  0  0
  148.0835  140.7185  156.4357 H   0  0  0  0  0  0  0  0  0  0  0  0
  147.8385  142.0288  155.3073 H   0  0  0  0  0  0  0  0  0  0  0  0
  148.5573  139.8221  154.2329 H   0  0  0  0  0  0  0  0  0  0  0  0
  149.5715  141.1782  153.8081 H   0  0  0  0  0  0  0  0  0  0  0  0
  152.1177  137.4582  156.5144 H   0  0  0  0  0  0  0  0  0  0  0  0
  152.4332  141.2385  159.2065 H   0  0  0  0  0  0  0  0  0  0  0  0
  151.0808  141.7383  160.1925 H   0  0  0  0  0  0  0  0  0  0  0  0
  1  2  1  0  0  0  0
  1 18  1  0  0  0  0
  1 19  1  0  0  0  0
  1 20  1  0  0  0  0
  2 17  1  0  0  0  0
  2  3  1  0  0  0  0
  2 21  1  0  0  0  0
  3  4  1  0  0  0  0
  3 22  1  0  0  0  0
  3 23  1  0  0  0  0
  4  5  1  0  0  0  0
  4 24  1  0  0  0  0
  4 25  1  0  0  0  0
  5  6  1  0  0  0  0
  5 26  1  0  0  0  0
  5 27  1  0  0  0  0
  6  7  1  0  0  0  0
  6 17  1  0  0  0  0
  6 28  1  0  0  0  0
  7  8  2  0  0  0  0
  7  9  1  0  0  0  0
  9 10  1  0  0  0  0
  9 29  1  0  0  0  0
 10 11  1  0  0  0  0
 10 30  1  0  0  0  0
 10 31  1  0  0  0  0
 11 32  1  0  0  0  0
 11 33  1  0  0  0  0
 11 12  1  0  0  0  0
 12 16  2  0  0  0  0
 12 13  1  0  0  0  0
 13 14  1  0  0  0  0
 14 15  2  0  0  0  0
 15 16  1  0  0  0  0
 15 34  1  0  0  0  0
 17 35  1  0  0  0  0
 17 36  1  0  0  0  0
M  CHG  1  13  -1
M  END
> <s_m_source_file>
AV-unprocessed.smi

> <i_m_source_file_index>
3032

> <i_lp_mmshare_version>
43012

> <i_f3d_flags>
0

> <s_epik_input>
W0NIM11bQ0BASF0xW0NIMl1bQ0gyXVtDSDJdW0NASF0oW0NIMl0xKUMoPU8pW05IXVtDSDJdW0NIMl1jMm5uW2NIXVtuSF0y

> <s_epik_cmdline>
J2VwaWtfcHl0aG9uJywgJy1waCcsICc3LjAnLCAnLXRuJywgJzgnLCAnLW1hJywgJzIwMCcsICctbWV0YWxfYmluZGluZycsICctaW1hZScsICc8aW5maWxlLm1hZT4nLCAnLW9tYWUnLCAnPG91dGZpbGUubWFlPic=

> <r_lp_tautomer_probability>
0.948284

> <r_epik_Ionization_Penalty>
12.042

> <r_epik_Ionization_Penalty_Charging>
12.042

> <r_epik_Ionization_Penalty_Neutral>
4.36781e-08

> <r_epik_State_Penalty>
4.67286

> <r_epik_Charging_Adjusted_Penalty>
16.7149

> <i_epik_Tot_Q>
-1

> <i_epik_Tot_abs_Q>
1

> <r_epik_Metal_State_Penalty>
0.981637

> <b_epik_Metal_Only>
1

> <s_lp_Force_Field>
OPLS_2005

> <r_lp_Energy>
10.3443

> <b_lp_Chiralities_Consistent>
1

> <s_lp_Variant>
AV-unprocessed.smi:3032-15

> <Gold.Version>
5.8.1

> <Gold.Id.Protein>
6NUR|6NUR_protein|mol2

> <Gold.PLP.Fitness>
42.7937

> <Gold.PLP.PLP>
-35.1793

> <Gold.PLP.part.hbond>
-2.6776

> <Gold.PLP.part.metal>
0.0000

> <Gold.PLP.part.buried>
-5.4249

> <Gold.PLP.part.nonpolar>
-27.7495

> <Gold.PLP.part.repulsive>
0.1102

> <Gold.PLP.ligand.clash>
0.0000

> <Gold.PLP.ligand.torsion>
0.5213

> <Gold.PLP.Chemscore.Hbond>
2.8793

> <Gold.PLP.Chemscore.CHOScore>
0.0000

> <Gold.PLP.Chemscore.Metal>
0.0000

> <Gold.Chemscore.Hbonds>
donor molecule, donor type, donor heavy atom, donor atom, acceptor molecule, acceptor atom, score
      L1  H     9    29       P1  8028  0.99
      P1  H  7989  7998       L1    13  0.94
      P1  H  7997  8009       L1    14  0.80

> <Gold.PLP.Chemscore.Internal.Correction>
0.0193

> <Gold.Rescore>
     Score         DG    S(hbond)    S(metal)    S(lipo)     H(rot)  DE(clash)    DE(int)     intcor
     15.03     -16.65       2.15        0.00      82.68       2.21       0.01       1.61       ----

> <Gold.Chemscore.Fitness>
15.0278

> <Gold.Chemscore.DG>
-16.6492

> <Gold.Chemscore.ZeroCoef>
-5.4800

> <Gold.Chemscore.Hbond>
2.1455

> <Gold.Chemscore.Metal>
0.0000

> <Gold.Chemscore.Lipo>
82.6809

> <Gold.Chemscore.Internal_Hbond>
0.0000

> <Gold.Chemscore.DEClash>
0.0140

> <Gold.Chemscore.DEInternal>
1.6075

> <Gold.Chemscore.Rot>
2.2149

> <Gold.Chemscore.Internal.Correction>
   9.000000E+99

> <Gold.Chemscore.Hbonds>
donor molecule, donor type, donor heavy atom, donor atom, acceptor molecule, acceptor atom, score
      L1  H     9    29       P1  8028  0.94
      P1  H  7989  7998       L1    13  0.31
      P1  H  7997  8009       L1    14  0.62

> <Gold.Chemscore.Hbond.Weighted>
-7.1658

> <Gold.Chemscore.Metal.Weighted>
-0.0000

> <Gold.Chemscore.Lipo.Weighted>
-9.6737

> <Gold.Chemscore.Internal_Hbond.Weighted>
0.0000

> <Gold.Chemscore.DEClash.Weighted>
0.0140

> <Gold.Chemscore.DEInternal.Weighted>
1.6075

> <Gold.Chemscore.Rot.Weighted>
5.6702

> <Gold.Chemscore.Internal.Correction.Weighted>
   9.000000E+99

> <Gold.Protein.RotatedTorsions>
[ 6907 6896 6895 6894 ] final -156.31 input  -60.11 | X-H torsion
[ 7974 7965 7964 7962 ] final   92.61 input  175.53 | X-H torsion
[ 8008 7997 7996 7995 ] final -148.69 input   59.86 | X-H torsion
[ 10167 10162 10161 10158 ] final   67.28 input  -65.29 | X-H torsion
[ 10718 10713 10712 10709 ] final  158.91 input   66.30 | X-H torsion
[ 10763 10752 10751 10750 ] final  -23.93 input  -60.55 | X-H torsion
[ 11005 11000 10999 10996 ] final -157.64 input  -57.11 | X-H torsion

> <Gold.Protein.ActiveResidues>
 VAL166  LYS551  ARG553  GLY616  TRP617  ASP618  TYR619  PRO620  LYS621  CYS622 
 ASP623  PHE694  ASN695  SER759  ASP760  ASP761  ALA762  ILE779  LEU786  VAL792 
 PHE793  MET794  SER795  GLU796  ALA797  LYS798  CYS799  TRP800  GLU811  SER814 

> <Gold.Protein.RotatedAtoms>
  151.2857  133.4189  159.2629 H   0  0  0  0  0  0  0  0  0  0  0  0  # atno 6907 bound_to 6896
  151.0321  134.9547  159.8127 H   0  0  0  0  0  0  0  0  0  0  0  0  # atno 6908 bound_to 6896
  152.5348  134.2817  159.9062 H   0  0  0  0  0  0  0  0  0  0  0  0  # atno 6909 bound_to 6896
  145.4900  139.2276  143.2835 H   0  0  0  0  0  0  0  0  0  0  0  0  # atno 7974 bound_to 7965
  155.5957  140.0657  157.2747 H   0  0  0  0  0  0  0  0  0  0  0  0  # atno 8008 bound_to 7997
  154.4293  140.1827  156.1167 H   0  0  0  0  0  0  0  0  0  0  0  0  # atno 8009 bound_to 7997
  156.0198  140.3318  155.7031 H   0  0  0  0  0  0  0  0  0  0  0  0  # atno 8010 bound_to 7997
  140.0912  144.4986  150.7097 H   0  0  0  0  0  0  0  0  0  0  0  0  # atno 10167 bound_to 10162
  157.1714  131.0611  151.2180 H   0  0  0  0  0  0  0  0  0  0  0  0  # atno 10718 bound_to 10713
  153.6756  135.6969  153.5133 H   0  0  0  0  0  0  0  0  0  0  0  0  # atno 10763 bound_to 10752
  153.2524  135.4271  155.0810 H   0  0  0  0  0  0  0  0  0  0  0  0  # atno 10764 bound_to 10752
  154.8414  135.3534  154.6300 H   0  0  0  0  0  0  0  0  0  0  0  0  # atno 10765 bound_to 10752
  140.6623  134.4335  157.5234 H   0  0  0  0  0  0  0  0  0  0  0  0  # atno 11005 bound_to 11000
  146.2290  140.5693  142.8984 LP  0  0  0  0  0  0  0  0  0  0  0  0  # atno 17320 bound_to 7965
  144.7839  140.5897  143.6587 LP  0  0  0  0  0  0  0  0  0  0  0  0  # atno 17321 bound_to 7965
  140.7027  143.2446  151.4817 LP  0  0  0  0  0  0  0  0  0  0  0  0  # atno 17342 bound_to 10162
  139.5723  144.1899  152.1854 LP  0  0  0  0  0  0  0  0  0  0  0  0  # atno 17343 bound_to 10162
  157.4039  130.7348  149.6788 LP  0  0  0  0  0  0  0  0  0  0  0  0  # atno 17370 bound_to 10713
  155.9738  130.4113  150.3975 LP  0  0  0  0  0  0  0  0  0  0  0  0  # atno 17371 bound_to 10713
  139.9009  134.8559  156.1902 LP  0  0  0  0  0  0  0  0  0  0  0  0  # atno 17394 bound_to 11000
  141.0455  133.6915  156.1676 LP  0  0  0  0  0  0  0  0  0  0  0  0  # atno 17395 bound_to 11000

$$$$
