AV-unprocessed.smi:1692|AV-procd|sdf|6779|dock7
  -GOLD-   22720 7543D 1   1.00000     0.00000
 Structure written by MMmdl.
 46 47  0  0  0  0  0  0  0  0  2 V2000
  143.7856  137.7134  156.5695 C   0  0  0  0  0  0  0  0  0  0  0  0
  143.9926  138.0014  155.0784 C   0  0  1  0  0  0  0  0  0  0  0  0
  145.3947  138.5675  154.7847 C   0  0  0  0  0  0  0  0  0  0  0  0
  145.5829  138.7621  153.3276 N   0  3  1  0  0  0  0  0  0  0  0  0
  146.8984  139.3680  153.0020 C   0  0  0  0  0  0  0  0  0  0  0  0
  147.2719  140.5115  153.9602 C   0  0  0  0  0  0  0  0  0  0  0  0
  148.7206  140.9878  153.7618 C   0  0  0  0  0  0  0  0  0  0  0  0
  149.1256  141.9332  154.7961 N   0  0  0  0  0  0  0  0  0  0  0  0
  150.1701  141.7677  155.6209 C   0  0  0  0  0  0  0  0  0  0  0  0
  150.9158  140.7884  155.5790 O   0  0  0  0  0  0  0  0  0  0  0  0
  150.2854  142.7994  156.4757 N   0  0  0  0  0  0  0  0  0  0  0  0
  151.2523  142.9872  157.4992 C   0  0  0  0  0  0  0  0  0  0  0  0
  151.5480  144.3353  157.8035 C   0  0  0  0  0  0  0  0  0  0  0  0
  152.4931  144.6283  158.8058 C   0  0  0  0  0  0  0  0  0  0  0  0
  153.1179  143.5642  159.4801 C   0  0  0  0  0  0  0  0  0  0  0  0
  152.7665  142.2513  159.1161 C   0  0  0  0  0  0  0  0  0  0  0  0
  151.8624  141.9682  158.1547 N   0  0  0  0  0  0  0  0  0  0  0  0
  145.3160  137.4961  152.6015 C   0  0  0  0  0  0  0  0  0  0  0  0
  143.9161  136.9572  152.9530 C   0  0  1  0  0  0  0  0  0  0  0  0
  143.6304  135.6078  152.2846 C   0  0  0  0  0  0  0  0  0  0  0  0
  143.8248  136.7825  154.3629 O   0  0  0  0  0  0  0  0  0  0  0  0
  143.8970  138.6207  157.1637 H   0  0  0  0  0  0  0  0  0  0  0  0
  144.5075  136.9828  156.9350 H   0  0  0  0  0  0  0  0  0  0  0  0
  142.7875  137.3158  156.7548 H   0  0  0  0  0  0  0  0  0  0  0  0
  143.2326  138.7151  154.7549 H   0  0  0  0  0  0  0  0  0  0  0  0
  145.5207  139.5191  155.3026 H   0  0  0  0  0  0  0  0  0  0  0  0
  146.1634  137.8915  155.1634 H   0  0  0  0  0  0  0  0  0  0  0  0
  147.6703  138.6005  153.0765 H   0  0  0  0  0  0  0  0  0  0  0  0
  146.9045  139.7116  151.9664 H   0  0  0  0  0  0  0  0  0  0  0  0
  146.5970  141.3549  153.8162 H   0  0  0  0  0  0  0  0  0  0  0  0
  147.1375  140.1807  154.9909 H   0  0  0  0  0  0  0  0  0  0  0  0
  149.4007  140.1366  153.7985 H   0  0  0  0  0  0  0  0  0  0  0  0
  148.8434  141.4405  152.7763 H   0  0  0  0  0  0  0  0  0  0  0  0
  148.5632  142.7654  154.8997 H   0  0  0  0  0  0  0  0  0  0  0  0
  149.5994  143.5344  156.3879 H   0  0  0  0  0  0  0  0  0  0  0  0
  151.0573  145.1412  157.2772 H   0  0  0  0  0  0  0  0  0  0  0  0
  152.7334  145.6516  159.0529 H   0  0  0  0  0  0  0  0  0  0  0  0
  153.8466  143.7490  160.2555 H   0  0  0  0  0  0  0  0  0  0  0  0
  153.2225  141.4058  159.6095 H   0  0  0  0  0  0  0  0  0  0  0  0
  145.3793  137.6550  151.5257 H   0  0  0  0  0  0  0  0  0  0  0  0
  146.0790  136.7599  152.8609 H   0  0  0  0  0  0  0  0  0  0  0  0
  143.1560  137.6711  152.6302 H   0  0  0  0  0  0  0  0  0  0  0  0
  143.6794  135.6890  151.1984 H   0  0  0  0  0  0  0  0  0  0  0  0
  142.6352  135.2469  152.5453 H   0  0  0  0  0  0  0  0  0  0  0  0
  144.3509  134.8510  152.5965 H   0  0  0  0  0  0  0  0  0  0  0  0
  144.8788  139.4256  153.0374 H   0  0  0  0  0  0  0  0  0  0  0  0
  1  2  1  0  0  0  0
  1 22  1  0  0  0  0
  1 23  1  0  0  0  0
  1 24  1  0  0  0  0
  2 21  1  0  0  0  0
  2  3  1  0  0  0  0
  2 25  1  0  0  0  0
  3  4  1  0  0  0  0
  3 26  1  0  0  0  0
  3 27  1  0  0  0  0
  4  5  1  0  0  0  0
  4 18  1  0  0  0  0
  4 46  1  0  0  0  0
  5  6  1  0  0  0  0
  5 28  1  0  0  0  0
  5 29  1  0  0  0  0
  6  7  1  0  0  0  0
  6 30  1  0  0  0  0
  6 31  1  0  0  0  0
  7  8  1  0  0  0  0
  7 32  1  0  0  0  0
  7 33  1  0  0  0  0
  8  9  1  0  0  0  0
  8 34  1  0  0  0  0
  9 10  2  0  0  0  0
  9 11  1  0  0  0  0
 11 12  1  0  0  0  0
 11 35  1  0  0  0  0
 12 17  1  0  0  0  0
 12 13  2  0  0  0  0
 13 14  1  0  0  0  0
 13 36  1  0  0  0  0
 14 15  2  0  0  0  0
 14 37  1  0  0  0  0
 15 16  1  0  0  0  0
 15 38  1  0  0  0  0
 16 17  2  0  0  0  0
 16 39  1  0  0  0  0
 18 19  1  0  0  0  0
 18 40  1  0  0  0  0
 18 41  1  0  0  0  0
 19 20  1  0  0  0  0
 19 21  1  0  0  0  0
 19 42  1  0  0  0  0
 20 43  1  0  0  0  0
 20 44  1  0  0  0  0
 20 45  1  0  0  0  0
M  CHG  1   4   1
M  END
> <s_m_source_file>
AV-unprocessed.smi

> <i_m_source_file_index>
1692

> <i_lp_mmshare_version>
43012

> <i_f3d_flags>
0

> <s_epik_input>
W0NIM11bQ0BASF0xW0NIMl1OKFtDSDJdW0NASF0oTzEpW0NIM10pW0NIMl1bQ0gyXVtDSDJdW05IXUMoPU8pW05IXWMyW2NIXVtjSF1bY0hdW2NIXW4y

> <s_epik_cmdline>
J2VwaWtfcHl0aG9uJywgJy1waCcsICc3LjAnLCAnLXRuJywgJzgnLCAnLW1hJywgJzIwMCcsICctbWV0YWxfYmluZGluZycsICctaW1hZScsICc8aW5maWxlLm1hZT4nLCAnLW9tYWUnLCAnPG91dGZpbGUubWFlPic=

> <r_epik_Ionization_Penalty>
0.270538

> <r_epik_Ionization_Penalty_Charging>
0.270496

> <r_epik_Ionization_Penalty_Neutral>
4.22978e-05

> <r_epik_State_Penalty>
0.262618

> <r_epik_Charging_Adjusted_Penalty>
0.533114

> <i_epik_Tot_Q>
1

> <i_epik_Tot_abs_Q>
1

> <r_epik_Metal_State_Penalty>
0.262618

> <b_epik_Metal_Only>
0

> <s_lp_Force_Field>
OPLS_2005

> <r_lp_Energy>
16.7861

> <b_lp_Chiralities_Consistent>
1

> <s_lp_Variant>
AV-unprocessed.smi:1692-2

> <Gold.Version>
5.8.1

> <Gold.Id.Protein>
6NUR|6NUR_protein|mol2

> <Gold.PLP.Fitness>
50.2560

> <Gold.PLP.PLP>
-38.3957

> <Gold.PLP.part.hbond>
-4.0000

> <Gold.PLP.part.metal>
0.0000

> <Gold.PLP.part.buried>
-2.5416

> <Gold.PLP.part.nonpolar>
-32.3775

> <Gold.PLP.part.repulsive>
0.3999

> <Gold.PLP.ligand.clash>
0.0000

> <Gold.PLP.ligand.torsion>
0.3198

> <Gold.PLP.Chemscore.Hbond>
4.1557

> <Gold.PLP.Chemscore.CHOScore>
0.0000

> <Gold.PLP.Chemscore.Metal>
0.0000

> <Gold.Chemscore.Hbonds>
donor molecule, donor type, donor heavy atom, donor atom, acceptor molecule, acceptor atom, score
      L1  H     4    46       P1 10175  2.00
      L1  H     8    34       P1  8028  0.60
      L1  H    11    35       P1  8028  1.00
      P1  H  7989  7998       L1    10  0.48

> <Gold.PLP.Chemscore.Internal.Correction>
0.0328

> <Gold.Rescore>
     Score         DG    S(hbond)    S(metal)    S(lipo)     H(rot)  DE(clash)    DE(int)     intcor
     19.47     -20.99       2.89        0.00      88.91       1.78       0.16       1.36       ----

> <Gold.Chemscore.Fitness>
19.4667

> <Gold.Chemscore.DG>
-20.9911

> <Gold.Chemscore.ZeroCoef>
-5.4800

> <Gold.Chemscore.Hbond>
2.8949

> <Gold.Chemscore.Metal>
0.0000

> <Gold.Chemscore.Lipo>
88.9109

> <Gold.Chemscore.Internal_Hbond>
0.0000

> <Gold.Chemscore.DEClash>
0.1600

> <Gold.Chemscore.DEInternal>
1.3643

> <Gold.Chemscore.Rot>
1.7814

> <Gold.Chemscore.Internal.Correction>
   9.000000E+99

> <Gold.Chemscore.Hbonds>
donor molecule, donor type, donor heavy atom, donor atom, acceptor molecule, acceptor atom, score
      L1  H     4    46       P1 10175  1.00
      L1  H     8    34       P1  8028  0.58
      L1  H    11    35       P1  8028  0.94
      P1  H  7989  7998       L1    10  0.14

> <Gold.Chemscore.Hbond.Weighted>
-9.6688

> <Gold.Chemscore.Metal.Weighted>
-0.0000

> <Gold.Chemscore.Lipo.Weighted>
-10.4026

> <Gold.Chemscore.Internal_Hbond.Weighted>
0.0000

> <Gold.Chemscore.DEClash.Weighted>
0.1600

> <Gold.Chemscore.DEInternal.Weighted>
1.3643

> <Gold.Chemscore.Rot.Weighted>
4.5603

> <Gold.Chemscore.Internal.Correction.Weighted>
   9.000000E+99

> <Gold.Protein.RotatedTorsions>
[ 6907 6896 6895 6894 ] final -160.56 input  -60.11 | X-H torsion
[ 7974 7965 7964 7962 ] final  111.70 input  175.53 | X-H torsion
[ 8008 7997 7996 7995 ] final -102.08 input   59.86 | X-H torsion
[ 10167 10162 10161 10158 ] final -160.11 input  -65.29 | X-H torsion
[ 10718 10713 10712 10709 ] final   45.56 input   66.30 | X-H torsion
[ 10763 10752 10751 10750 ] final  -43.21 input  -60.55 | X-H torsion
[ 11005 11000 10999 10996 ] final   39.87 input  -57.11 | X-H torsion

> <Gold.Protein.ActiveResidues>
 VAL166  LYS551  ARG553  GLY616  TRP617  ASP618  TYR619  PRO620  LYS621  CYS622 
 ASP623  PHE694  ASN695  SER759  ASP760  ASP761  ALA762  ILE779  LEU786  VAL792 
 PHE793  MET794  SER795  GLU796  ALA797  LYS798  CYS799  TRP800  GLU811  SER814 

> <Gold.Protein.RotatedAtoms>
  151.3509  133.3926  159.2679 H   0  0  0  0  0  0  0  0  0  0  0  0  # atno 6907 bound_to 6896
  150.9802  134.9159  159.7850 H   0  0  0  0  0  0  0  0  0  0  0  0  # atno 6908 bound_to 6896
  152.5214  134.3473  159.9291 H   0  0  0  0  0  0  0  0  0  0  0  0  # atno 6909 bound_to 6896
  145.2389  139.2787  143.4128 H   0  0  0  0  0  0  0  0  0  0  0  0  # atno 7974 bound_to 7965
  154.8516  140.0430  157.1608 H   0  0  0  0  0  0  0  0  0  0  0  0  # atno 8008 bound_to 7997
  154.8936  140.2990  155.5336 H   0  0  0  0  0  0  0  0  0  0  0  0  # atno 8009 bound_to 7997
  156.2996  140.2389  156.3955 H   0  0  0  0  0  0  0  0  0  0  0  0  # atno 8010 bound_to 7997
  139.6564  143.9991  152.2197 H   0  0  0  0  0  0  0  0  0  0  0  0  # atno 10167 bound_to 10162
  157.4388  130.8069  149.7674 H   0  0  0  0  0  0  0  0  0  0  0  0  # atno 10718 bound_to 10713
  153.9918  135.6704  153.4754 H   0  0  0  0  0  0  0  0  0  0  0  0  # atno 10763 bound_to 10752
  153.0701  135.4979  154.8283 H   0  0  0  0  0  0  0  0  0  0  0  0  # atno 10764 bound_to 10752
  154.7104  135.3096  154.9167 H   0  0  0  0  0  0  0  0  0  0  0  0  # atno 10765 bound_to 10752
  140.1986  134.3898  155.8108 H   0  0  0  0  0  0  0  0  0  0  0  0  # atno 11005 bound_to 11000
  146.3333  140.2747  142.8607 LP  0  0  0  0  0  0  0  0  0  0  0  0  # atno 17320 bound_to 7965
  144.9607  140.8272  143.5515 LP  0  0  0  0  0  0  0  0  0  0  0  0  # atno 17321 bound_to 7965
  139.9718  144.6488  150.7982 LP  0  0  0  0  0  0  0  0  0  0  0  0  # atno 17342 bound_to 10162
  140.7561  143.3059  151.2963 LP  0  0  0  0  0  0  0  0  0  0  0  0  # atno 17343 bound_to 10162
  155.9941  130.3920  150.2874 LP  0  0  0  0  0  0  0  0  0  0  0  0  # atno 17370 bound_to 10713
  157.1037  131.0202  151.3075 LP  0  0  0  0  0  0  0  0  0  0  0  0  # atno 17371 bound_to 10713
  141.2227  133.7082  156.8218 LP  0  0  0  0  0  0  0  0  0  0  0  0  # atno 17394 bound_to 11000
  140.2079  134.8849  157.3242 LP  0  0  0  0  0  0  0  0  0  0  0  0  # atno 17395 bound_to 11000

$$$$
