AV-unprocessed.smi:3228|AV-procd|sdf|12326|dock3
  -GOLD-   2272018173D 1   1.00000     0.00000
 Structure written by MMmdl.
 30 31  0  0  0  0  0  0  0  0  2 V2000
  150.1697  139.3185  156.8385 O   0  0  0  0  0  0  0  0  0  0  0  0
  150.7044  140.2167  156.1841 C   0  0  0  0  0  0  0  0  0  0  0  0
  151.5720  141.0472  156.7770 N   0  0  0  0  0  0  0  0  0  0  0  0
  151.9616  140.9941  158.1808 C   0  0  0  0  0  0  0  0  0  0  0  0
  151.6312  142.3164  158.8956 C   0  0  1  0  0  0  0  0  0  0  0  0
  152.3950  142.5239  160.2119 C   0  0  0  0  0  0  0  0  0  0  0  0
  152.4863  144.0433  160.4213 C   0  0  0  0  0  0  0  0  0  0  0  0
  151.9931  144.6916  159.1206 C   0  0  0  0  0  0  0  0  0  0  0  0
  151.9851  143.5659  158.0837 C   0  0  2  0  0  0  0  0  0  0  0  0
  151.0520  143.8199  157.0539 O   0  0  0  0  0  0  0  0  0  0  0  0
  150.5111  140.4776  154.8709 N   0  5  0  0  0  0  0  0  0  0  0  0
  149.2673  140.4933  154.3653 C   0  0  0  0  0  0  0  0  0  0  0  0
  148.7027  141.5921  153.8514 N   0  0  0  0  0  0  0  0  0  0  0  0
  147.4073  141.3804  153.3760 C   0  0  0  0  0  0  0  0  0  0  0  0
  146.9788  140.0878  153.5230 C   0  0  0  0  0  0  0  0  0  0  0  0
  148.1966  139.0922  154.2683 S   0  0  0  0  0  0  0  0  0  0  0  0
  151.9886  141.7709  156.2100 H   0  0  0  0  0  0  0  0  0  0  0  0
  151.4496  140.1620  158.6669 H   0  0  0  0  0  0  0  0  0  0  0  0
  153.0320  140.7938  158.2476 H   0  0  0  0  0  0  0  0  0  0  0  0
  150.5629  142.3421  159.1199 H   0  0  0  0  0  0  0  0  0  0  0  0
  151.9095  142.0213  161.0493 H   0  0  0  0  0  0  0  0  0  0  0  0
  153.4023  142.1128  160.1284 H   0  0  0  0  0  0  0  0  0  0  0  0
  151.8754  144.3642  161.2656 H   0  0  0  0  0  0  0  0  0  0  0  0
  153.5156  144.3330  160.6357 H   0  0  0  0  0  0  0  0  0  0  0  0
  150.9800  145.0670  159.2739 H   0  0  0  0  0  0  0  0  0  0  0  0
  152.6116  145.5350  158.8121 H   0  0  0  0  0  0  0  0  0  0  0  0
  152.9810  143.4615  157.6504 H   0  0  0  0  0  0  0  0  0  0  0  0
  151.1185  143.1291  156.4126 H   0  0  0  0  0  0  0  0  0  0  0  0
  146.8626  142.2078  152.9460 H   0  0  0  0  0  0  0  0  0  0  0  0
  146.0282  139.6620  153.2399 H   0  0  0  0  0  0  0  0  0  0  0  0
  1  2  2  0  0  0  0
  2  3  1  0  0  0  0
  2 11  1  0  0  0  0
  3  4  1  0  0  0  0
  3 17  1  0  0  0  0
  4  5  1  0  0  0  0
  4 18  1  0  0  0  0
  4 19  1  0  0  0  0
  5  9  1  0  0  0  0
  5  6  1  0  0  0  0
  5 20  1  0  0  0  0
  6  7  1  0  0  0  0
  6 21  1  0  0  0  0
  6 22  1  0  0  0  0
  7  8  1  0  0  0  0
  7 23  1  0  0  0  0
  7 24  1  0  0  0  0
  8  9  1  0  0  0  0
  8 25  1  0  0  0  0
  8 26  1  0  0  0  0
  9 10  1  0  0  0  0
  9 27  1  0  0  0  0
 10 28  1  0  0  0  0
 11 12  1  0  0  0  0
 12 16  1  0  0  0  0
 12 13  2  0  0  0  0
 13 14  1  0  0  0  0
 14 15  2  0  0  0  0
 14 29  1  0  0  0  0
 15 16  1  0  0  0  0
 15 30  1  0  0  0  0
M  CHG  1  11  -1
M  END
> <s_m_source_file>
AV-unprocessed.smi

> <i_m_source_file_index>
3228

> <i_lp_mmshare_version>
43012

> <i_f3d_flags>
0

> <s_epik_input>
czFbY0hdW2NIXW5jMVtOSF1DKD1PKVtOSF1bQ0gyXVtDQEBIXTJbQ0gyXVtDSDJdW0NIMl1bQ0BIXTJbT0hd

> <s_epik_cmdline>
J2VwaWtfcHl0aG9uJywgJy1waCcsICc3LjAnLCAnLXRuJywgJzgnLCAnLW1hJywgJzIwMCcsICctbWV0YWxfYmluZGluZycsICctaW1hZScsICc8aW5maWxlLm1hZT4nLCAnLW9tYWUnLCAnPG91dGZpbGUubWFlPic=

> <r_lp_tautomer_probability>
0.999

> <r_epik_Ionization_Penalty>
8.49756

> <r_epik_Ionization_Penalty_Charging>
6.79645

> <r_epik_Ionization_Penalty_Neutral>
1.70111

> <r_epik_State_Penalty>
6.79662

> <r_epik_Charging_Adjusted_Penalty>
13.5931

> <i_epik_Tot_Q>
-1

> <i_epik_Tot_abs_Q>
1

> <r_epik_Metal_State_Penalty>
2.71629

> <b_epik_Metal_Only>
1

> <s_lp_Force_Field>
OPLS_2005

> <r_lp_Energy>
17.8369

> <b_lp_Chiralities_Consistent>
1

> <s_lp_Variant>
AV-unprocessed.smi:3228-8

> <Gold.Version>
5.8.1

> <Gold.Id.Protein>
6NUR|6NUR_protein|mol2

> <Gold.PLP.Fitness>
39.4155

> <Gold.PLP.PLP>
-33.8578

> <Gold.PLP.part.hbond>
-3.0000

> <Gold.PLP.part.metal>
0.0000

> <Gold.PLP.part.buried>
-5.5151

> <Gold.PLP.part.nonpolar>
-25.4789

> <Gold.PLP.part.repulsive>
0.3865

> <Gold.PLP.ligand.clash>
0.0000

> <Gold.PLP.ligand.torsion>
1.1410

> <Gold.PLP.Chemscore.Hbond>
1.6000

> <Gold.PLP.Chemscore.CHOScore>
1.0000

> <Gold.PLP.Chemscore.Metal>
0.0000

> <Gold.Chemscore.Hbonds>
donor molecule, donor type, donor heavy atom, donor atom, acceptor molecule, acceptor atom, score
      P1  H  7989  7998       L1    11  1.00
      P1  H  8011  8017       L1    13  0.64
      L1  C    15    30       P1 10175  0.83

> <Gold.PLP.Chemscore.Internal.Correction>
0.0398

> <Gold.Rescore>
     Score         DG    S(hbond)    S(metal)    S(lipo)     H(rot)  DE(clash)    DE(int)     intcor
     12.20     -14.68       1.26        0.00      83.01       1.85       0.13       2.35       ----

> <Gold.Chemscore.Fitness>
12.2000

> <Gold.Chemscore.DG>
-14.6796

> <Gold.Chemscore.ZeroCoef>
-5.4800

> <Gold.Chemscore.Hbond>
1.2632

> <Gold.Chemscore.Metal>
0.0000

> <Gold.Chemscore.Lipo>
83.0065

> <Gold.Chemscore.Internal_Hbond>
0.0000

> <Gold.Chemscore.DEClash>
0.1341

> <Gold.Chemscore.DEInternal>
2.3455

> <Gold.Chemscore.Rot>
1.8481

> <Gold.Chemscore.Internal.Correction>
   9.000000E+99

> <Gold.Chemscore.Hbonds>
donor molecule, donor type, donor heavy atom, donor atom, acceptor molecule, acceptor atom, score
      P1  H  7989  7998       L1    11  0.53
      P1  H  8011  8017       L1    13  0.32

> <Gold.Chemscore.Hbond.Weighted>
-4.2191

> <Gold.Chemscore.Metal.Weighted>
-0.0000

> <Gold.Chemscore.Lipo.Weighted>
-9.7118

> <Gold.Chemscore.Internal_Hbond.Weighted>
0.0000

> <Gold.Chemscore.DEClash.Weighted>
0.1341

> <Gold.Chemscore.DEInternal.Weighted>
2.3455

> <Gold.Chemscore.Rot.Weighted>
4.7313

> <Gold.Chemscore.Internal.Correction.Weighted>
   9.000000E+99

> <Gold.Protein.RotatedTorsions>
[ 6907 6896 6895 6894 ] final    5.35 input  -60.11 | X-H torsion
[ 7974 7965 7964 7962 ] final  -68.33 input  175.53 | X-H torsion
[ 8008 7997 7996 7995 ] final -139.67 input   59.86 | X-H torsion
[ 10167 10162 10161 10158 ] final  -55.77 input  -65.29 | X-H torsion
[ 10718 10713 10712 10709 ] final  159.13 input   66.30 | X-H torsion
[ 10763 10752 10751 10750 ] final  177.92 input  -60.55 | X-H torsion
[ 11005 11000 10999 10996 ] final -127.17 input  -57.11 | X-H torsion

> <Gold.Protein.ActiveResidues>
 VAL166  LYS551  ARG553  GLY616  TRP617  ASP618  TYR619  PRO620  LYS621  CYS622 
 ASP623  PHE694  ASN695  SER759  ASP760  ASP761  ALA762  ILE779  LEU786  VAL792 
 PHE793  MET794  SER795  GLU796  ALA797  LYS798  CYS799  TRP800  GLU811  SER814 

> <Gold.Protein.RotatedAtoms>
  151.6561  135.0995  160.0170 H   0  0  0  0  0  0  0  0  0  0  0  0  # atno 6907 bound_to 6896
  152.3973  133.6762  159.6295 H   0  0  0  0  0  0  0  0  0  0  0  0  # atno 6908 bound_to 6896
  150.7878  133.8768  159.3315 H   0  0  0  0  0  0  0  0  0  0  0  0  # atno 6909 bound_to 6896
  145.7179  140.9051  143.0646 H   0  0  0  0  0  0  0  0  0  0  0  0  # atno 7974 bound_to 7965
  155.4487  140.0537  157.3003 H   0  0  0  0  0  0  0  0  0  0  0  0  # atno 8008 bound_to 7997
  154.4786  140.2072  155.9773 H   0  0  0  0  0  0  0  0  0  0  0  0  # atno 8009 bound_to 7997
  156.1171  140.3194  155.8160 H   0  0  0  0  0  0  0  0  0  0  0  0  # atno 8010 bound_to 7997
  140.6356  143.2480  151.5127 H   0  0  0  0  0  0  0  0  0  0  0  0  # atno 10167 bound_to 10162
  157.1684  131.0604  151.2196 H   0  0  0  0  0  0  0  0  0  0  0  0  # atno 10718 bound_to 10713
  154.5009  135.2783  155.1421 H   0  0  0  0  0  0  0  0  0  0  0  0  # atno 10763 bound_to 10752
  154.3055  135.6239  153.5447 H   0  0  0  0  0  0  0  0  0  0  0  0  # atno 10764 bound_to 10752
  152.9902  135.5707  154.5452 H   0  0  0  0  0  0  0  0  0  0  0  0  # atno 10765 bound_to 10752
  140.9622  134.0921  157.3957 H   0  0  0  0  0  0  0  0  0  0  0  0  # atno 11005 bound_to 11000
  144.6924  139.9162  143.7466 LP  0  0  0  0  0  0  0  0  0  0  0  0  # atno 17320 bound_to 7965
  146.0653  139.3644  143.0556 LP  0  0  0  0  0  0  0  0  0  0  0  0  # atno 17321 bound_to 7965
  139.5566  144.2259  152.1623 LP  0  0  0  0  0  0  0  0  0  0  0  0  # atno 17342 bound_to 10162
  140.1515  144.5110  150.6685 LP  0  0  0  0  0  0  0  0  0  0  0  0  # atno 17343 bound_to 10162
  157.4066  130.7362  149.6807 LP  0  0  0  0  0  0  0  0  0  0  0  0  # atno 17370 bound_to 10713
  155.9742  130.4106  150.3940 LP  0  0  0  0  0  0  0  0  0  0  0  0  # atno 17371 bound_to 10713
  139.8882  135.0096  156.6605 LP  0  0  0  0  0  0  0  0  0  0  0  0  # atno 17394 bound_to 11000
  140.7451  133.8944  155.8306 LP  0  0  0  0  0  0  0  0  0  0  0  0  # atno 17395 bound_to 11000

$$$$
