AV-unprocessed.smi:1830|AV-procd|sdf|7446|dock6
  -GOLD-   22720 9133D 1   1.00000     0.00000
 Structure written by MMmdl.
 54 57  0  0  0  0  0  0  0  0  3 V2000
  146.7983  138.5955  155.0866 O   0  0  0  0  0  0  0  0  0  0  0  0
  147.2675  137.8602  154.2189 C   0  0  0  0  0  0  0  0  0  0  0  0
  148.1043  138.2884  153.2655 N   0  0  0  0  0  0  0  0  0  0  0  0
  148.5613  139.6676  153.1369 C   0  0  0  0  0  0  0  0  0  0  0  0
  149.0985  140.2265  154.4657 C   0  0  2  0  0  0  0  0  0  0  0  0
  148.6888  141.6910  154.7323 C   0  0  0  0  0  0  0  0  0  0  0  0
  149.3084  142.2194  155.9700 N   0  3  1  0  0  0  0  0  0  0  0  0
  148.6506  141.8574  157.2448 C   0  0  0  0  0  0  0  0  0  0  0  0
  149.7617  141.8118  158.3054 C   0  0  0  0  0  0  0  0  0  0  0  0
  151.0433  142.2266  157.5746 C   0  0  0  0  0  0  0  0  0  0  0  0
  150.7511  141.9289  156.1030 C   0  0  1  0  0  0  0  0  0  0  0  0
  151.0712  140.4633  155.7291 C   0  0  0  0  0  0  0  0  0  0  0  0
  150.5188  140.1412  154.4599 O   0  0  0  0  0  0  0  0  0  0  0  0
  147.0317  136.5422  154.1065 N   0  0  0  0  0  0  0  0  0  0  0  0
  146.2338  135.7121  154.9460 C   0  0  0  0  0  0  0  0  0  0  0  0
  146.1648  135.8808  156.3530 C   0  0  0  0  0  0  0  0  0  0  0  0
  145.3429  135.0309  157.1195 C   0  0  0  0  0  0  0  0  0  0  0  0
  144.5954  134.0319  156.4698 C   0  0  0  0  0  0  0  0  0  0  0  0
  144.6689  133.9078  155.1282 N   0  3  0  0  0  0  0  0  0  0  0  0
  145.4429  134.6992  154.3452 C   0  0  0  0  0  0  0  0  0  0  0  0
  145.4373  134.4940  152.9545 N   0  0  0  0  0  0  0  0  0  0  0  0
  145.9730  133.2217  152.4997 C   0  0  0  0  0  0  0  0  0  0  0  0
  145.5133  133.0862  151.0464 C   0  0  0  0  0  0  0  0  0  0  0  0
  144.2798  133.9909  150.9380 C   0  0  0  0  0  0  0  0  0  0  0  0
  144.1366  134.6337  152.3207 C   0  0  0  0  0  0  0  0  0  0  0  0
  148.4567  137.6222  152.5940 H   0  0  0  0  0  0  0  0  0  0  0  0
  149.3436  139.7190  152.3779 H   0  0  0  0  0  0  0  0  0  0  0  0
  147.7358  140.2864  152.7819 H   0  0  0  0  0  0  0  0  0  0  0  0
  148.7124  139.5889  155.2630 H   0  0  0  0  0  0  0  0  0  0  0  0
  149.0216  142.3254  153.9104 H   0  0  0  0  0  0  0  0  0  0  0  0
  147.6041  141.7925  154.7842 H   0  0  0  0  0  0  0  0  0  0  0  0
  147.8858  142.5953  157.4882 H   0  0  0  0  0  0  0  0  0  0  0  0
  148.1619  140.8849  157.1750 H   0  0  0  0  0  0  0  0  0  0  0  0
  149.5505  142.4655  159.1526 H   0  0  0  0  0  0  0  0  0  0  0  0
  149.8615  140.7968  158.6921 H   0  0  0  0  0  0  0  0  0  0  0  0
  151.2022  143.2981  157.7034 H   0  0  0  0  0  0  0  0  0  0  0  0
  151.9308  141.7157  157.9498 H   0  0  0  0  0  0  0  0  0  0  0  0
  151.3150  142.5955  155.4492 H   0  0  0  0  0  0  0  0  0  0  0  0
  152.1508  140.3169  155.6897 H   0  0  0  0  0  0  0  0  0  0  0  0
  150.6916  139.7670  156.4789 H   0  0  0  0  0  0  0  0  0  0  0  0
  147.5555  136.0581  153.3920 H   0  0  0  0  0  0  0  0  0  0  0  0
  146.7168  136.6567  156.8606 H   0  0  0  0  0  0  0  0  0  0  0  0
  145.2836  135.1480  158.1918 H   0  0  0  0  0  0  0  0  0  0  0  0
  143.9397  133.3390  156.9770 H   0  0  0  0  0  0  0  0  0  0  0  0
  147.0603  133.2017  152.5804 H   0  0  0  0  0  0  0  0  0  0  0  0
  145.5750  132.3992  153.0955 H   0  0  0  0  0  0  0  0  0  0  0  0
  146.2921  133.4404  150.3698 H   0  0  0  0  0  0  0  0  0  0  0  0
  145.2944  132.0499  150.7869 H   0  0  0  0  0  0  0  0  0  0  0  0
  144.4428  134.7544  150.1763 H   0  0  0  0  0  0  0  0  0  0  0  0
  143.3829  133.4347  150.6636 H   0  0  0  0  0  0  0  0  0  0  0  0
  143.3716  134.1132  152.8986 H   0  0  0  0  0  0  0  0  0  0  0  0
  143.8469  135.6823  152.2476 H   0  0  0  0  0  0  0  0  0  0  0  0
  149.2358  143.2258  155.9217 H   0  0  0  0  0  0  0  0  0  0  0  0
  144.1107  133.1810  154.6800 H   0  0  0  0  0  0  0  0  0  0  0  0
  1  2  2  0  0  0  0
  2  3  1  0  0  0  0
  2 14  1  0  0  0  0
  3  4  1  0  0  0  0
  3 26  1  0  0  0  0
  4  5  1  0  0  0  0
  4 27  1  0  0  0  0
  4 28  1  0  0  0  0
  5 13  1  0  0  0  0
  5  6  1  0  0  0  0
  5 29  1  0  0  0  0
  6  7  1  0  0  0  0
  6 30  1  0  0  0  0
  6 31  1  0  0  0  0
  7 11  1  0  0  0  0
  7  8  1  0  0  0  0
  7 53  1  0  0  0  0
  8  9  1  0  0  0  0
  8 32  1  0  0  0  0
  8 33  1  0  0  0  0
  9 10  1  0  0  0  0
  9 34  1  0  0  0  0
  9 35  1  0  0  0  0
 10 11  1  0  0  0  0
 10 36  1  0  0  0  0
 10 37  1  0  0  0  0
 11 12  1  0  0  0  0
 11 38  1  0  0  0  0
 12 13  1  0  0  0  0
 12 39  1  0  0  0  0
 12 40  1  0  0  0  0
 14 15  1  0  0  0  0
 14 41  1  0  0  0  0
 15 20  1  0  0  0  0
 15 16  2  0  0  0  0
 16 17  1  0  0  0  0
 16 42  1  0  0  0  0
 17 18  2  0  0  0  0
 17 43  1  0  0  0  0
 18 19  1  0  0  0  0
 18 44  1  0  0  0  0
 19 20  2  0  0  0  0
 19 54  1  0  0  0  0
 20 21  1  0  0  0  0
 21 25  1  0  0  0  0
 21 22  1  0  0  0  0
 22 23  1  0  0  0  0
 22 45  1  0  0  0  0
 22 46  1  0  0  0  0
 23 24  1  0  0  0  0
 23 47  1  0  0  0  0
 23 48  1  0  0  0  0
 24 25  1  0  0  0  0
 24 49  1  0  0  0  0
 24 50  1  0  0  0  0
 25 51  1  0  0  0  0
 25 52  1  0  0  0  0
M  CHG  1   7   1
M  CHG  1  19   1
M  END
> <s_m_source_file>
AV-unprocessed.smi

> <i_m_source_file_index>
1830

> <i_lp_mmshare_version>
43012

> <i_f3d_flags>
0

> <s_epik_input>
W0NIMl0xW0NIMl1bQ0gyXVtDQEhdKE4xMilbQ0gyXU9bQ0BASF0oW0NIMl0yKVtDSDJdW05IXUMoPU8pW05IXWMzW2NIXVtjSF1bY0hdbmMzTjRbQ0gyXVtDSDJdW0NIMl1bQ0gyXTQ=

> <s_epik_cmdline>
J2VwaWtfcHl0aG9uJywgJy1waCcsICc3LjAnLCAnLXRuJywgJzgnLCAnLW1hJywgJzIwMCcsICctbWV0YWxfYmluZGluZycsICctaW1hZScsICc8aW5maWxlLm1hZT4nLCAnLW9tYWUnLCAnPG91dGZpbGUubWFlPic=

> <r_lp_tautomer_probability>
0.999994

> <r_epik_Ionization_Penalty>
1.29113

> <r_epik_Ionization_Penalty_Charging>
1.29111

> <r_epik_Ionization_Penalty_Neutral>
1.88144e-05

> <r_epik_State_Penalty>
1.32676

> <r_epik_Charging_Adjusted_Penalty>
2.61787

> <i_epik_Tot_Q>
2

> <i_epik_Tot_abs_Q>
2

> <r_epik_Metal_State_Penalty>
1.40425

> <b_epik_Metal_Only>
0

> <s_lp_Force_Field>
OPLS_2005

> <r_lp_Energy>
78.9005

> <b_lp_Chiralities_Consistent>
1

> <s_lp_Variant>
AV-unprocessed.smi:1830-15

> <Gold.Version>
5.8.1

> <Gold.Id.Protein>
6NUR|6NUR_protein|mol2

> <Gold.PLP.Fitness>
48.6426

> <Gold.PLP.PLP>
-29.9172

> <Gold.PLP.part.hbond>
-5.7344

> <Gold.PLP.part.metal>
0.0000

> <Gold.PLP.part.buried>
0.2111

> <Gold.PLP.part.nonpolar>
-25.1130

> <Gold.PLP.part.repulsive>
0.3758

> <Gold.PLP.ligand.clash>
0.0000

> <Gold.PLP.ligand.torsion>
0.9112

> <Gold.PLP.Chemscore.Hbond>
6.8400

> <Gold.PLP.Chemscore.CHOScore>
0.0000

> <Gold.PLP.Chemscore.Metal>
0.0000

> <Gold.Chemscore.Hbonds>
donor molecule, donor type, donor heavy atom, donor atom, acceptor molecule, acceptor atom, score
      L1  H     3    26       P1  7948  1.00
      L1  H     7    53       P1  8028  2.00
      L1  H    14    41       P1  7948  0.81
      L1  H    19    54       P1 10957  1.98
      P1  H  7989  7998       L1    13  1.00

> <Gold.PLP.Chemscore.Internal.Correction>
0.0279

> <Gold.Rescore>
     Score         DG    S(hbond)    S(metal)    S(lipo)     H(rot)  DE(clash)    DE(int)     intcor
     20.07     -24.90       4.30        0.00      74.61       1.43       1.99       2.85       ----

> <Gold.Chemscore.Fitness>
20.0653

> <Gold.Chemscore.DG>
-24.9036

> <Gold.Chemscore.ZeroCoef>
-5.4800

> <Gold.Chemscore.Hbond>
4.2962

> <Gold.Chemscore.Metal>
0.0000

> <Gold.Chemscore.Lipo>
74.6097

> <Gold.Chemscore.Internal_Hbond>
0.0000

> <Gold.Chemscore.DEClash>
1.9920

> <Gold.Chemscore.DEInternal>
2.8463

> <Gold.Chemscore.Rot>
1.4278

> <Gold.Chemscore.Internal.Correction>
   9.000000E+99

> <Gold.Chemscore.Hbonds>
donor molecule, donor type, donor heavy atom, donor atom, acceptor molecule, acceptor atom, score
      L1  H     3    26       P1  7948  0.99
      L1  H     7    53       P1  8028  0.96
      L1  H    14    41       P1  7948  0.78
      L1  H    19    54       P1 10957  0.89
      P1  H  7989  7998       L1    13  0.25

> <Gold.Chemscore.Hbond.Weighted>
-14.3493

> <Gold.Chemscore.Metal.Weighted>
-0.0000

> <Gold.Chemscore.Lipo.Weighted>
-8.7293

> <Gold.Chemscore.Internal_Hbond.Weighted>
0.0000

> <Gold.Chemscore.DEClash.Weighted>
1.9920

> <Gold.Chemscore.DEInternal.Weighted>
2.8463

> <Gold.Chemscore.Rot.Weighted>
3.6551

> <Gold.Chemscore.Internal.Correction.Weighted>
   9.000000E+99

> <Gold.Protein.RotatedTorsions>
[ 6907 6896 6895 6894 ] final  167.79 input  -60.11 | X-H torsion
[ 7974 7965 7964 7962 ] final  174.65 input  175.53 | X-H torsion
[ 8008 7997 7996 7995 ] final -161.71 input   59.86 | X-H torsion
[ 10167 10162 10161 10158 ] final -143.54 input  -65.29 | X-H torsion
[ 10718 10713 10712 10709 ] final   42.93 input   66.30 | X-H torsion
[ 10763 10752 10751 10750 ] final   19.76 input  -60.55 | X-H torsion
[ 11005 11000 10999 10996 ] final   24.43 input  -57.11 | X-H torsion

> <Gold.Protein.ActiveResidues>
 VAL166  LYS551  ARG553  GLY616  TRP617  ASP618  TYR619  PRO620  LYS621  CYS622 
 ASP623  PHE694  ASN695  SER759  ASP760  ASP761  ALA762  ILE779  LEU786  VAL792 
 PHE793  MET794  SER795  GLU796  ALA797  LYS798  CYS799  TRP800  GLU811  SER814 

> <Gold.Protein.RotatedAtoms>
  151.8578  133.3451  159.3693 H   0  0  0  0  0  0  0  0  0  0  0  0  # atno 6907 bound_to 6896
  150.7187  134.5235  159.5675 H   0  0  0  0  0  0  0  0  0  0  0  0  # atno 6908 bound_to 6896
  152.2743  134.7899  160.0459 H   0  0  0  0  0  0  0  0  0  0  0  0  # atno 6909 bound_to 6896
  144.7217  139.9829  143.6439 H   0  0  0  0  0  0  0  0  0  0  0  0  # atno 7974 bound_to 7965
  155.7962  140.0885  157.1982 H   0  0  0  0  0  0  0  0  0  0  0  0  # atno 8008 bound_to 7997
  154.3983  140.1481  156.3279 H   0  0  0  0  0  0  0  0  0  0  0  0  # atno 8009 bound_to 7997
  155.8509  140.3434  155.5695 H   0  0  0  0  0  0  0  0  0  0  0  0  # atno 8010 bound_to 7997
  139.7983  143.7868  152.2656 H   0  0  0  0  0  0  0  0  0  0  0  0  # atno 10167 bound_to 10162
  157.4103  130.7910  149.7425 H   0  0  0  0  0  0  0  0  0  0  0  0  # atno 10718 bound_to 10713
  153.1134  135.6702  153.9460 H   0  0  0  0  0  0  0  0  0  0  0  0  # atno 10763 bound_to 10752
  153.8996  135.3037  155.3450 H   0  0  0  0  0  0  0  0  0  0  0  0  # atno 10764 bound_to 10752
  154.7552  135.5015  153.9440 H   0  0  0  0  0  0  0  0  0  0  0  0  # atno 10765 bound_to 10752
  140.3588  134.2148  155.7674 H   0  0  0  0  0  0  0  0  0  0  0  0  # atno 11005 bound_to 11000
  146.0473  139.3478  143.0661 LP  0  0  0  0  0  0  0  0  0  0  0  0  # atno 17320 bound_to 7965
  145.8259  140.9655  143.0874 LP  0  0  0  0  0  0  0  0  0  0  0  0  # atno 17321 bound_to 7965
  139.7981  144.7385  150.9862 LP  0  0  0  0  0  0  0  0  0  0  0  0  # atno 17342 bound_to 10162
  140.7820  143.4373  151.0604 LP  0  0  0  0  0  0  0  0  0  0  0  0  # atno 17343 bound_to 10162
  155.9849  130.3988  150.3290 LP  0  0  0  0  0  0  0  0  0  0  0  0  # atno 17370 bound_to 10713
  157.1427  131.0301  151.2920 LP  0  0  0  0  0  0  0  0  0  0  0  0  # atno 17371 bound_to 10713
  141.1990  133.8021  157.0555 LP  0  0  0  0  0  0  0  0  0  0  0  0  # atno 17394 bound_to 11000
  140.0643  134.9737  157.1359 LP  0  0  0  0  0  0  0  0  0  0  0  0  # atno 17395 bound_to 11000

$$$$
