AV-unprocessed.smi:2252|AV-procd|sdf|9105|dock2
  -GOLD-   2272012303D 1   1.00000     0.00000
 Structure written by MMmdl.
 45 47  0  0  0  0  0  0  0  0  2 V2000
  152.8501  142.2412  161.0804 C   0  0  0  0  0  0  0  0  0  0  0  0
  152.2836  143.3424  160.3256 N   0  0  0  0  0  0  0  0  0  0  0  0
  152.2016  144.6630  160.7468 C   0  0  0  0  0  0  0  0  0  0  0  0
  151.6042  145.3654  159.7281 C   0  0  0  0  0  0  0  0  0  0  0  0
  151.3141  144.4993  158.6795 N   0  0  0  0  0  0  0  0  0  0  0  0
  151.7358  143.3090  159.0954 C   0  0  0  0  0  0  0  0  0  0  0  0
  151.6417  142.0634  158.2707 C   0  0  0  0  0  0  0  0  0  0  0  0
  150.9932  142.3174  156.8996 C   0  0  0  0  0  0  0  0  0  0  0  0
  150.5220  141.0816  156.2859 N   0  0  0  0  0  0  0  0  0  0  0  0
  149.9002  140.9997  155.0994 C   0  0  0  0  0  0  0  0  0  0  0  0
  149.6650  141.9787  154.3906 O   0  0  0  0  0  0  0  0  0  0  0  0
  149.4901  139.5955  154.6314 C   0  0  2  0  0  0  0  0  0  0  0  0
  150.7676  138.7774  154.3459 C   0  0  0  0  0  0  0  0  0  0  0  0
  150.8839  137.3293  154.7700 C   0  0  0  0  0  0  0  0  0  0  0  0
  151.7041  138.3832  155.4685 C   0  0  0  0  0  0  0  0  0  0  0  0
  148.6006  139.6538  153.4365 N   0  3  0  0  0  0  0  0  0  0  0  0
  148.0202  138.3604  153.0170 C   0  0  0  0  0  0  0  0  0  0  0  0
  146.8071  138.6997  152.1449 C   0  0  0  0  0  0  0  0  0  0  0  0
  146.4767  140.1642  152.4496 C   0  0  0  0  0  0  0  0  0  0  0  0
  147.4508  140.5772  153.5539 C   0  0  0  0  0  0  0  0  0  0  0  0
  153.3149  142.6112  161.9947 H   0  0  0  0  0  0  0  0  0  0  0  0
  153.6061  141.7306  160.4833 H   0  0  0  0  0  0  0  0  0  0  0  0
  152.0634  141.5347  161.3464 H   0  0  0  0  0  0  0  0  0  0  0  0
  152.5670  144.9864  161.7104 H   0  0  0  0  0  0  0  0  0  0  0  0
  151.3637  146.4166  159.6686 H   0  0  0  0  0  0  0  0  0  0  0  0
  152.6338  141.6289  158.1469 H   0  0  0  0  0  0  0  0  0  0  0  0
  151.0596  141.3311  158.8315 H   0  0  0  0  0  0  0  0  0  0  0  0
  150.1680  143.0260  156.9909 H   0  0  0  0  0  0  0  0  0  0  0  0
  151.7190  142.7722  156.2248 H   0  0  0  0  0  0  0  0  0  0  0  0
  150.6870  140.2274  156.7988 H   0  0  0  0  0  0  0  0  0  0  0  0
  148.9367  139.1107  155.4383 H   0  0  0  0  0  0  0  0  0  0  0  0
  151.2546  139.0406  153.4081 H   0  0  0  0  0  0  0  0  0  0  0  0
  150.0561  136.8916  155.3246 H   0  0  0  0  0  0  0  0  0  0  0  0
  151.4032  136.6510  154.0962 H   0  0  0  0  0  0  0  0  0  0  0  0
  152.7724  138.4070  155.2634 H   0  0  0  0  0  0  0  0  0  0  0  0
  151.4198  138.6445  156.4860 H   0  0  0  0  0  0  0  0  0  0  0  0
  148.7464  137.7434  152.4868 H   0  0  0  0  0  0  0  0  0  0  0  0
  147.6882  137.8086  153.8978 H   0  0  0  0  0  0  0  0  0  0  0  0
  147.0494  138.5840  151.0878 H   0  0  0  0  0  0  0  0  0  0  0  0
  145.9678  138.0383  152.3636 H   0  0  0  0  0  0  0  0  0  0  0  0
  146.6427  140.7716  151.5591 H   0  0  0  0  0  0  0  0  0  0  0  0
  145.4382  140.3017  152.7525 H   0  0  0  0  0  0  0  0  0  0  0  0
  146.9753  140.4457  154.5274 H   0  0  0  0  0  0  0  0  0  0  0  0
  147.7493  141.6223  153.4645 H   0  0  0  0  0  0  0  0  0  0  0  0
  149.1580  139.9849  152.6617 H   0  0  0  0  0  0  0  0  0  0  0  0
  1  2  1  0  0  0  0
  1 21  1  0  0  0  0
  1 22  1  0  0  0  0
  1 23  1  0  0  0  0
  2  6  1  0  0  0  0
  2  3  1  0  0  0  0
  3  4  2  0  0  0  0
  3 24  1  0  0  0  0
  4  5  1  0  0  0  0
  4 25  1  0  0  0  0
  5  6  2  0  0  0  0
  6  7  1  0  0  0  0
  7  8  1  0  0  0  0
  7 26  1  0  0  0  0
  7 27  1  0  0  0  0
  8  9  1  0  0  0  0
  8 28  1  0  0  0  0
  8 29  1  0  0  0  0
  9 10  1  0  0  0  0
  9 30  1  0  0  0  0
 10 11  2  0  0  0  0
 10 12  1  0  0  0  0
 12 13  1  0  0  0  0
 12 16  1  0  0  0  0
 12 31  1  0  0  0  0
 13 15  1  0  0  0  0
 13 14  1  0  0  0  0
 13 32  1  0  0  0  0
 14 15  1  0  0  0  0
 14 33  1  0  0  0  0
 14 34  1  0  0  0  0
 15 35  1  0  0  0  0
 15 36  1  0  0  0  0
 16 20  1  0  0  0  0
 16 17  1  0  0  0  0
 16 45  1  0  0  0  0
 17 18  1  0  0  0  0
 17 37  1  0  0  0  0
 17 38  1  0  0  0  0
 18 19  1  0  0  0  0
 18 39  1  0  0  0  0
 18 40  1  0  0  0  0
 19 20  1  0  0  0  0
 19 41  1  0  0  0  0
 19 42  1  0  0  0  0
 20 43  1  0  0  0  0
 20 44  1  0  0  0  0
M  CHG  1  16   1
M  END
> <s_m_source_file>
AV-unprocessed.smi

> <i_m_source_file_index>
2252

> <i_lp_mmshare_version>
43012

> <i_f3d_flags>
0

> <s_epik_input>
W0NIM11uMVtjSF1bY0hdbmMxW0NIMl1bQ0gyXVtOSF1DKD1PKVtDQEhdKFtDSF0yW0NIMl1bQ0gyXTIpTjNbQ0gyXVtDSDJdW0NIMl1bQ0gyXTM=

> <s_epik_cmdline>
J2VwaWtfcHl0aG9uJywgJy1waCcsICc3LjAnLCAnLXRuJywgJzgnLCAnLW1hJywgJzIwMCcsICctbWV0YWxfYmluZGluZycsICctaW1hZScsICc8aW5maWxlLm1hZT4nLCAnLW9tYWUnLCAnPG91dGZpbGUubWFlPic=

> <r_lp_tautomer_probability>
1

> <r_epik_Ionization_Penalty>
1.07437

> <r_epik_Ionization_Penalty_Charging>
1.07435

> <r_epik_Ionization_Penalty_Neutral>
2.35578e-05

> <r_epik_State_Penalty>
1.18204

> <r_epik_Charging_Adjusted_Penalty>
2.25639

> <i_epik_Tot_Q>
1

> <i_epik_Tot_abs_Q>
1

> <r_epik_Metal_State_Penalty>
0.433434

> <b_epik_Metal_Only>
0

> <s_lp_Force_Field>
OPLS_2005

> <r_lp_Energy>
33.5931

> <b_lp_Chiralities_Consistent>
1

> <s_lp_Variant>
AV-unprocessed.smi:2252-3

> <Gold.Version>
5.8.1

> <Gold.Id.Protein>
6NUR|6NUR_protein|mol2

> <Gold.PLP.Fitness>
43.8784

> <Gold.PLP.PLP>
-40.6769

> <Gold.PLP.part.hbond>
-2.8982

> <Gold.PLP.part.metal>
0.0000

> <Gold.PLP.part.buried>
7.2700

> <Gold.PLP.part.nonpolar>
-44.6411

> <Gold.PLP.part.repulsive>
0.6780

> <Gold.PLP.ligand.clash>
0.0000

> <Gold.PLP.ligand.torsion>
0.9071

> <Gold.PLP.Chemscore.Hbond>
1.2894

> <Gold.PLP.Chemscore.CHOScore>
0.0000

> <Gold.PLP.Chemscore.Metal>
0.0000

> <Gold.Chemscore.Hbonds>
donor molecule, donor type, donor heavy atom, donor atom, acceptor molecule, acceptor atom, score
      L1  H    16    45       P1  7957  1.00
      P1  H  8011  8017       L1    11  0.28

> <Gold.PLP.Chemscore.Internal.Correction>
1.1475

> <Gold.Rescore>
     Score         DG    S(hbond)    S(metal)    S(lipo)     H(rot)  DE(clash)    DE(int)     intcor
     12.07     -17.79       1.36        0.00     109.02       1.95       3.43       2.29       ----

> <Gold.Chemscore.Fitness>
12.0685

> <Gold.Chemscore.DG>
-17.7874

> <Gold.Chemscore.ZeroCoef>
-5.4800

> <Gold.Chemscore.Hbond>
1.3593

> <Gold.Chemscore.Metal>
0.0000

> <Gold.Chemscore.Lipo>
109.0210

> <Gold.Chemscore.Internal_Hbond>
0.0000

> <Gold.Chemscore.DEClash>
3.4259

> <Gold.Chemscore.DEInternal>
2.2930

> <Gold.Chemscore.Rot>
1.9485

> <Gold.Chemscore.Internal.Correction>
   9.000000E+99

> <Gold.Chemscore.Hbonds>
donor molecule, donor type, donor heavy atom, donor atom, acceptor molecule, acceptor atom, score
      L1  H    16    45       P1  7957  0.95
      P1  H  8011  8017       L1    11  0.28

> <Gold.Chemscore.Hbond.Weighted>
-4.5401

> <Gold.Chemscore.Metal.Weighted>
-0.0000

> <Gold.Chemscore.Lipo.Weighted>
-12.7555

> <Gold.Chemscore.Internal_Hbond.Weighted>
0.0000

> <Gold.Chemscore.DEClash.Weighted>
3.4259

> <Gold.Chemscore.DEInternal.Weighted>
2.2930

> <Gold.Chemscore.Rot.Weighted>
4.9881

> <Gold.Chemscore.Internal.Correction.Weighted>
   9.000000E+99

> <Gold.Protein.RotatedTorsions>
[ 6907 6896 6895 6894 ] final -167.19 input  -60.11 | X-H torsion
[ 7974 7965 7964 7962 ] final   91.23 input  175.53 | X-H torsion
[ 8008 7997 7996 7995 ] final   22.16 input   59.86 | X-H torsion
[ 10167 10162 10161 10158 ] final   75.91 input  -65.29 | X-H torsion
[ 10718 10713 10712 10709 ] final   37.16 input   66.30 | X-H torsion
[ 10763 10752 10751 10750 ] final  136.10 input  -60.55 | X-H torsion
[ 11005 11000 10999 10996 ] final   48.09 input  -57.11 | X-H torsion

> <Gold.Protein.ActiveResidues>
 VAL166  LYS551  ARG553  GLY616  TRP617  ASP618  TYR619  PRO620  LYS621  CYS622 
 ASP623  PHE694  ASN695  SER759  ASP760  ASP761  ALA762  ILE779  LEU786  VAL792 
 PHE793  MET794  SER795  GLU796  ALA797  LYS798  CYS799  TRP800  GLU811  SER814 

> <Gold.Protein.RotatedAtoms>
  151.4556  133.3606  159.2801 H   0  0  0  0  0  0  0  0  0  0  0  0  # atno 6907 bound_to 6896
  150.9061  134.8478  159.7404 H   0  0  0  0  0  0  0  0  0  0  0  0  # atno 6908 bound_to 6896
  152.4906  134.4481  159.9617 H   0  0  0  0  0  0  0  0  0  0  0  0  # atno 6909 bound_to 6896
  145.5084  139.2276  143.2738 H   0  0  0  0  0  0  0  0  0  0  0  0  # atno 7974 bound_to 7965
  154.9614  140.3078  155.5029 H   0  0  0  0  0  0  0  0  0  0  0  0  # atno 8008 bound_to 7997
  156.2976  140.2300  156.4639 H   0  0  0  0  0  0  0  0  0  0  0  0  # atno 8009 bound_to 7997
  154.7961  140.0437  157.1226 H   0  0  0  0  0  0  0  0  0  0  0  0  # atno 8010 bound_to 7997
  139.9979  144.5708  150.7762 H   0  0  0  0  0  0  0  0  0  0  0  0  # atno 10167 bound_to 10162
  157.3436  130.7561  149.6929 H   0  0  0  0  0  0  0  0  0  0  0  0  # atno 10718 bound_to 10713
  153.8509  135.3079  155.3432 H   0  0  0  0  0  0  0  0  0  0  0  0  # atno 10763 bound_to 10752
  154.7891  135.4792  154.0016 H   0  0  0  0  0  0  0  0  0  0  0  0  # atno 10764 bound_to 10752
  153.1519  135.6844  153.8963 H   0  0  0  0  0  0  0  0  0  0  0  0  # atno 10765 bound_to 10752
  140.1221  134.4816  155.8589 H   0  0  0  0  0  0  0  0  0  0  0  0  # atno 11005 bound_to 11000
  146.2182  140.5890  142.9029 LP  0  0  0  0  0  0  0  0  0  0  0  0  # atno 17320 bound_to 7965
  144.7741  140.5701  143.6650 LP  0  0  0  0  0  0  0  0  0  0  0  0  # atno 17321 bound_to 7965
  140.7430  143.2840  151.3517 LP  0  0  0  0  0  0  0  0  0  0  0  0  # atno 17342 bound_to 10162
  139.6293  144.0752  152.2462 LP  0  0  0  0  0  0  0  0  0  0  0  0  # atno 17343 bound_to 10162
  155.9711  130.4161  150.4212 LP  0  0  0  0  0  0  0  0  0  0  0  0  # atno 17370 bound_to 10713
  157.2264  131.0494  151.2517 LP  0  0  0  0  0  0  0  0  0  0  0  0  # atno 17371 bound_to 10713
  141.2154  133.6764  156.6908 LP  0  0  0  0  0  0  0  0  0  0  0  0  # atno 17394 bound_to 11000
  140.2951  134.8209  157.4050 LP  0  0  0  0  0  0  0  0  0  0  0  0  # atno 17395 bound_to 11000

$$$$
