AV-unprocessed.smi:906|AV-procd|sdf|4102|dock10
  -GOLD-   22720 1593D 1   1.00000     0.00000
 Structure written by MMmdl.
 48 49  0  0  0  0  0  0  0  0  2 V2000
  151.3134  145.4394  158.7589 C   0  0  0  0  0  0  0  0  0  0  0  0
  151.4336  143.9502  158.5154 C   0  0  0  0  0  0  0  0  0  0  0  0
  152.2972  143.1294  159.2719 C   0  0  0  0  0  0  0  0  0  0  0  0
  152.3620  141.7502  158.9854 C   0  0  0  0  0  0  0  0  0  0  0  0
  151.5633  141.2194  157.9485 C   0  0  0  0  0  0  0  0  0  0  0  0
  151.6358  139.7456  157.5882 C   0  0  0  0  0  0  0  0  0  0  0  0
  150.6449  139.3308  156.4829 C   0  0  0  0  0  0  0  0  0  0  0  0
  149.6659  138.3521  156.9507 N   0  0  0  0  0  0  0  0  0  0  0  0
  148.5545  138.6247  157.6570 C   0  0  0  0  0  0  0  0  0  0  0  0
  148.2456  139.7732  157.9782 O   0  0  0  0  0  0  0  0  0  0  0  0
  147.7722  137.5481  157.9132 N   0  0  0  0  0  0  0  0  0  0  0  0
  148.2254  136.1645  158.1161 C   0  0  0  0  0  0  0  0  0  0  0  0
  148.0762  135.8061  159.6075 C   0  0  0  0  0  0  0  0  0  0  0  0
  146.6759  135.9591  160.0261 N   0  0  0  0  0  0  0  0  0  0  0  0
  146.3838  135.5252  161.4031 C   0  0  2  0  0  0  0  0  0  0  0  0
  147.1788  136.2934  162.4820 C   0  0  0  0  0  0  0  0  0  0  0  0
  146.5045  133.9905  161.5631 C   0  0  0  0  0  0  0  0  0  0  0  0
  146.1189  133.3776  160.4432 F   0  0  0  0  0  0  0  0  0  0  0  0
  147.7468  133.6095  161.8605 F   0  0  0  0  0  0  0  0  0  0  0  0
  145.7010  133.5908  162.5486 F   0  0  0  0  0  0  0  0  0  0  0  0
  146.2023  137.3257  159.7750 C   0  0  0  0  0  0  0  0  0  0  0  0
  146.3597  137.6716  158.2824 C   0  0  0  0  0  0  0  0  0  0  0  0
  150.7129  142.0877  157.2309 C   0  0  0  0  0  0  0  0  0  0  0  0
  150.6810  143.4033  157.5345 N   0  3  0  0  0  0  0  0  0  0  0  0
  152.0054  145.7676  159.5352 H   0  0  0  0  0  0  0  0  0  0  0  0
  150.3011  145.6921  159.0755 H   0  0  0  0  0  0  0  0  0  0  0  0
  151.5385  145.9934  157.8471 H   0  0  0  0  0  0  0  0  0  0  0  0
  152.9072  143.5491  160.0586 H   0  0  0  0  0  0  0  0  0  0  0  0
  153.0274  141.1117  159.5483 H   0  0  0  0  0  0  0  0  0  0  0  0
  152.6530  139.5008  157.2792 H   0  0  0  0  0  0  0  0  0  0  0  0
  151.4445  139.1596  158.4878 H   0  0  0  0  0  0  0  0  0  0  0  0
  150.1008  140.2095  156.1359 H   0  0  0  0  0  0  0  0  0  0  0  0
  151.1847  138.9492  155.6146 H   0  0  0  0  0  0  0  0  0  0  0  0
  149.8407  137.3869  156.7105 H   0  0  0  0  0  0  0  0  0  0  0  0
  147.6189  135.4933  157.5060 H   0  0  0  0  0  0  0  0  0  0  0  0
  149.2555  135.9890  157.8069 H   0  0  0  0  0  0  0  0  0  0  0  0
  148.4102  134.7812  159.7550 H   0  0  0  0  0  0  0  0  0  0  0  0
  148.7256  136.4481  160.2035 H   0  0  0  0  0  0  0  0  0  0  0  0
  145.3283  135.7470  161.5673 H   0  0  0  0  0  0  0  0  0  0  0  0
  146.8404  136.0112  163.4791 H   0  0  0  0  0  0  0  0  0  0  0  0
  147.0501  137.3719  162.3978 H   0  0  0  0  0  0  0  0  0  0  0  0
  148.2459  136.0767  162.4343 H   0  0  0  0  0  0  0  0  0  0  0  0
  145.1516  137.4108  160.0543 H   0  0  0  0  0  0  0  0  0  0  0  0
  146.7567  138.0425  160.3812 H   0  0  0  0  0  0  0  0  0  0  0  0
  145.9617  138.6685  158.0886 H   0  0  0  0  0  0  0  0  0  0  0  0
  145.7634  136.9921  157.6715 H   0  0  0  0  0  0  0  0  0  0  0  0
  150.0733  141.7748  156.4185 H   0  0  0  0  0  0  0  0  0  0  0  0
  150.0647  144.0122  156.9957 H   0  0  0  0  0  0  0  0  0  0  0  0
  1  2  1  0  0  0  0
  1 25  1  0  0  0  0
  1 26  1  0  0  0  0
  1 27  1  0  0  0  0
  2 24  1  0  0  0  0
  2  3  2  0  0  0  0
  3  4  1  0  0  0  0
  3 28  1  0  0  0  0
  4  5  2  0  0  0  0
  4 29  1  0  0  0  0
  5  6  1  0  0  0  0
  5 23  1  0  0  0  0
  6  7  1  0  0  0  0
  6 30  1  0  0  0  0
  6 31  1  0  0  0  0
  7  8  1  0  0  0  0
  7 32  1  0  0  0  0
  7 33  1  0  0  0  0
  8  9  1  0  0  0  0
  8 34  1  0  0  0  0
  9 10  2  0  0  0  0
  9 11  1  0  0  0  0
 11 22  1  0  0  0  0
 11 12  1  0  0  0  0
 12 13  1  0  0  0  0
 12 35  1  0  0  0  0
 12 36  1  0  0  0  0
 13 14  1  0  0  0  0
 13 37  1  0  0  0  0
 13 38  1  0  0  0  0
 14 15  1  0  0  0  0
 14 21  1  0  0  0  0
 15 16  1  0  0  0  0
 15 17  1  0  0  0  0
 15 39  1  0  0  0  0
 16 40  1  0  0  0  0
 16 41  1  0  0  0  0
 16 42  1  0  0  0  0
 17 18  1  0  0  0  0
 17 19  1  0  0  0  0
 17 20  1  0  0  0  0
 21 22  1  0  0  0  0
 21 43  1  0  0  0  0
 21 44  1  0  0  0  0
 22 45  1  0  0  0  0
 22 46  1  0  0  0  0
 23 24  2  0  0  0  0
 23 47  1  0  0  0  0
 24 48  1  0  0  0  0
M  CHG  1  24   1
M  END
> <s_m_source_file>
AV-unprocessed.smi

> <i_m_source_file_index>
906

> <i_lp_mmshare_version>
43012

> <i_f3d_flags>
0

> <s_epik_input>
W0NIM11jMVtjSF1bY0hdYyhbY0hdbjEpW0NIMl1bQ0gyXVtOSF1DKD1PKU4yW0NIMl1bQ0gyXU4oW0NASF0oW0NIM10pQyhGKShGKUYpW0NIMl1bQ0gyXTI=

> <s_epik_cmdline>
J2VwaWtfcHl0aG9uJywgJy1waCcsICc3LjAnLCAnLXRuJywgJzgnLCAnLW1hJywgJzIwMCcsICctbWV0YWxfYmluZGluZycsICctaW1hZScsICc8aW5maWxlLm1hZT4nLCAnLW9tYWUnLCAnPG91dGZpbGUubWFlPic=

> <r_epik_Ionization_Penalty>
1.4413

> <r_epik_Ionization_Penalty_Charging>
1.42075

> <r_epik_Ionization_Penalty_Neutral>
0.0205507

> <r_epik_State_Penalty>
1.52216

> <r_epik_Charging_Adjusted_Penalty>
2.94291

> <i_epik_Tot_Q>
1

> <i_epik_Tot_abs_Q>
1

> <r_epik_Metal_State_Penalty>
1.57308

> <b_epik_Metal_Only>
0

> <s_lp_Force_Field>
OPLS_2005

> <r_lp_Energy>
52.9553

> <b_lp_Chiralities_Consistent>
1

> <s_lp_Variant>
AV-unprocessed.smi:906-3

> <Gold.Version>
5.8.1

> <Gold.Id.Protein>
6NUR|6NUR_protein|mol2

> <Gold.PLP.Fitness>
42.8470

> <Gold.PLP.PLP>
-39.3031

> <Gold.PLP.part.hbond>
-1.7358

> <Gold.PLP.part.metal>
0.0000

> <Gold.PLP.part.buried>
-4.4149

> <Gold.PLP.part.nonpolar>
-32.6426

> <Gold.PLP.part.repulsive>
0.0139

> <Gold.PLP.ligand.clash>
0.0000

> <Gold.PLP.ligand.torsion>
1.5784

> <Gold.PLP.Chemscore.Hbond>
2.0000

> <Gold.PLP.Chemscore.CHOScore>
0.0000

> <Gold.PLP.Chemscore.Metal>
0.0000

> <Gold.Chemscore.Hbonds>
donor molecule, donor type, donor heavy atom, donor atom, acceptor molecule, acceptor atom, score
      L1  H    24    48       P1  8028  2.00

> <Gold.PLP.Chemscore.Internal.Correction>
0.7007

> <Gold.Rescore>
     Score         DG    S(hbond)    S(metal)    S(lipo)     H(rot)  DE(clash)    DE(int)     intcor
     14.69     -16.50       0.98        0.00     102.39       1.66       0.52       1.30       ----

> <Gold.Chemscore.Fitness>
14.6882

> <Gold.Chemscore.DG>
-16.5045

> <Gold.Chemscore.ZeroCoef>
-5.4800

> <Gold.Chemscore.Hbond>
0.9829

> <Gold.Chemscore.Metal>
0.0000

> <Gold.Chemscore.Lipo>
102.3852

> <Gold.Chemscore.Internal_Hbond>
0.0000

> <Gold.Chemscore.DEClash>
0.5176

> <Gold.Chemscore.DEInternal>
1.2987

> <Gold.Chemscore.Rot>
1.6553

> <Gold.Chemscore.Internal.Correction>
   9.000000E+99

> <Gold.Chemscore.Hbonds>
donor molecule, donor type, donor heavy atom, donor atom, acceptor molecule, acceptor atom, score
      L1  H    24    48       P1  8028  0.94

> <Gold.Chemscore.Hbond.Weighted>
-3.2830

> <Gold.Chemscore.Metal.Weighted>
-0.0000

> <Gold.Chemscore.Lipo.Weighted>
-11.9791

> <Gold.Chemscore.Internal_Hbond.Weighted>
0.0000

> <Gold.Chemscore.DEClash.Weighted>
0.5176

> <Gold.Chemscore.DEInternal.Weighted>
1.2987

> <Gold.Chemscore.Rot.Weighted>
4.2376

> <Gold.Chemscore.Internal.Correction.Weighted>
   9.000000E+99

> <Gold.Protein.RotatedTorsions>
[ 6907 6896 6895 6894 ] final   95.31 input  -60.11 | X-H torsion
[ 7974 7965 7964 7962 ] final   70.23 input  175.53 | X-H torsion
[ 8008 7997 7996 7995 ] final  -95.24 input   59.86 | X-H torsion
[ 10167 10162 10161 10158 ] final   15.26 input  -65.29 | X-H torsion
[ 10718 10713 10712 10709 ] final   62.11 input   66.30 | X-H torsion
[ 10763 10752 10751 10750 ] final -152.11 input  -60.55 | X-H torsion
[ 11005 11000 10999 10996 ] final  169.99 input  -57.11 | X-H torsion

> <Gold.Protein.ActiveResidues>
 VAL166  LYS551  ARG553  GLY616  TRP617  ASP618  TYR619  PRO620  LYS621  CYS622 
 ASP623  PHE694  ASN695  SER759  ASP760  ASP761  ALA762  ILE779  LEU786  VAL792 
 PHE793  MET794  SER795  GLU796  ALA797  LYS798  CYS799  TRP800  GLU811  SER814 

> <Gold.Protein.RotatedAtoms>
  152.5444  134.1059  159.8337 H   0  0  0  0  0  0  0  0  0  0  0  0  # atno 6907 bound_to 6896
  151.1131  133.5151  159.2612 H   0  0  0  0  0  0  0  0  0  0  0  0  # atno 6908 bound_to 6896
  151.1862  135.0392  159.8867 H   0  0  0  0  0  0  0  0  0  0  0  0  # atno 6909 bound_to 6896
  145.7808  139.2886  143.1267 H   0  0  0  0  0  0  0  0  0  0  0  0  # atno 7974 bound_to 7965
  154.7588  140.0482  157.0956 H   0  0  0  0  0  0  0  0  0  0  0  0  # atno 8008 bound_to 7997
  154.9964  140.3119  155.4865 H   0  0  0  0  0  0  0  0  0  0  0  0  # atno 8009 bound_to 7997
  156.2900  140.2209  156.5072 H   0  0  0  0  0  0  0  0  0  0  0  0  # atno 8010 bound_to 7997
  140.5879  143.8853  150.6847 H   0  0  0  0  0  0  0  0  0  0  0  0  # atno 10167 bound_to 10162
  157.5877  130.9032  149.9546 H   0  0  0  0  0  0  0  0  0  0  0  0  # atno 10718 bound_to 10713
  154.8015  135.3244  154.7538 H   0  0  0  0  0  0  0  0  0  0  0  0  # atno 10763 bound_to 10752
  153.8206  135.6888  153.4832 H   0  0  0  0  0  0  0  0  0  0  0  0  # atno 10764 bound_to 10752
  153.1734  135.4614  154.9876 H   0  0  0  0  0  0  0  0  0  0  0  0  # atno 10765 bound_to 10752
  140.3036  134.7575  157.3935 H   0  0  0  0  0  0  0  0  0  0  0  0  # atno 11005 bound_to 11000
  146.0076  140.8464  142.9987 LP  0  0  0  0  0  0  0  0  0  0  0  0  # atno 17320 bound_to 7965
  144.6797  140.2443  143.7339 LP  0  0  0  0  0  0  0  0  0  0  0  0  # atno 17321 bound_to 7965
  140.2369  143.3693  152.1519 LP  0  0  0  0  0  0  0  0  0  0  0  0  # atno 17342 bound_to 10162
  139.5209  144.7039  151.5413 LP  0  0  0  0  0  0  0  0  0  0  0  0  # atno 17343 bound_to 10162
  156.0928  130.3662  150.0363 LP  0  0  0  0  0  0  0  0  0  0  0  0  # atno 17370 bound_to 10713
  156.8491  130.9452  151.3627 LP  0  0  0  0  0  0  0  0  0  0  0  0  # atno 17371 bound_to 10713
  140.1087  134.5374  155.8285 LP  0  0  0  0  0  0  0  0  0  0  0  0  # atno 17394 bound_to 11000
  141.2123  133.6717  156.6649 LP  0  0  0  0  0  0  0  0  0  0  0  0  # atno 17395 bound_to 11000

$$$$
