AV-unprocessed.smi:1346|AV-procd|sdf|5513|dock9
  -GOLD-   22720 5 93D 1   1.00000     0.00000
 Structure written by MMmdl.
 47 48  0  0  0  0  0  0  0  0  1 V2000
  152.5885  139.6112  153.9457 C   0  0  0  0  0  0  0  0  0  0  0  0
  151.6770  138.4659  154.2810 C   0  0  0  0  0  0  0  0  0  0  0  0
  152.1971  137.3387  154.7364 N   0  0  0  0  0  0  0  0  0  0  0  0
  151.1167  136.4792  154.9559 O   0  0  0  0  0  0  0  0  0  0  0  0
  149.9747  137.1297  154.6182 C   0  0  0  0  0  0  0  0  0  0  0  0
  148.7020  136.3712  154.7885 C   0  0  0  0  0  0  0  0  0  0  0  0
  150.2574  138.3941  154.1786 C   0  0  0  0  0  0  0  0  0  0  0  0
  149.3023  139.4590  153.7040 C   0  0  0  0  0  0  0  0  0  0  0  0
  149.3841  140.6737  154.6286 C   0  0  0  0  0  0  0  0  0  0  0  0
  149.4570  141.8063  154.1516 O   0  0  0  0  0  0  0  0  0  0  0  0
  149.3726  140.4256  155.9471 N   0  0  0  0  0  0  0  0  0  0  0  0
  149.4576  141.4364  156.9951 C   0  0  0  0  0  0  0  0  0  0  0  0
  150.7916  142.1956  156.9494 C   0  0  0  0  0  0  0  0  0  0  0  0
  151.3679  142.2049  158.2466 O   0  0  0  0  0  0  0  0  0  0  0  0
  152.5123  143.0426  158.3695 C   0  0  1  0  0  0  0  0  0  0  0  0
  152.0459  144.5058  158.2601 C   0  0  0  0  0  0  0  0  0  0  0  0
  151.1633  144.9182  159.4499 C   0  0  0  0  0  0  0  0  0  0  0  0
  151.8747  144.6607  160.7865 C   0  0  0  0  0  0  0  0  0  0  0  0
  152.3210  143.1948  160.9067 C   0  0  0  0  0  0  0  0  0  0  0  0
  153.2141  142.7763  159.7217 C   0  0  1  0  0  0  0  0  0  0  0  0
  153.6934  141.3227  159.8568 C   0  0  0  0  0  0  0  0  0  0  0  0
  152.0495  140.5581  153.9329 H   0  0  0  0  0  0  0  0  0  0  0  0
  153.0419  139.4734  152.9638 H   0  0  0  0  0  0  0  0  0  0  0  0
  153.3937  139.7032  154.6754 H   0  0  0  0  0  0  0  0  0  0  0  0
  147.8409  137.0391  154.7621 H   0  0  0  0  0  0  0  0  0  0  0  0
  148.6890  135.8461  155.7437 H   0  0  0  0  0  0  0  0  0  0  0  0
  148.5829  135.6346  153.9941 H   0  0  0  0  0  0  0  0  0  0  0  0
  149.5165  139.7585  152.6772 H   0  0  0  0  0  0  0  0  0  0  0  0
  148.2738  139.0968  153.7002 H   0  0  0  0  0  0  0  0  0  0  0  0
  149.3117  139.4637  156.2480 H   0  0  0  0  0  0  0  0  0  0  0  0
  148.6238  142.1340  156.9021 H   0  0  0  0  0  0  0  0  0  0  0  0
  149.3438  140.9430  157.9606 H   0  0  0  0  0  0  0  0  0  0  0  0
  151.4694  141.7325  156.2308 H   0  0  0  0  0  0  0  0  0  0  0  0
  150.6225  143.2216  156.6196 H   0  0  0  0  0  0  0  0  0  0  0  0
  153.2222  142.8552  157.5610 H   0  0  0  0  0  0  0  0  0  0  0  0
  152.9183  145.1591  158.2181 H   0  0  0  0  0  0  0  0  0  0  0  0
  151.5057  144.6558  157.3247 H   0  0  0  0  0  0  0  0  0  0  0  0
  150.8980  145.9724  159.3674 H   0  0  0  0  0  0  0  0  0  0  0  0
  150.2257  144.3617  159.4222 H   0  0  0  0  0  0  0  0  0  0  0  0
  152.7432  145.3151  160.8703 H   0  0  0  0  0  0  0  0  0  0  0  0
  151.2135  144.9171  161.6147 H   0  0  0  0  0  0  0  0  0  0  0  0
  152.8590  143.0556  161.8450 H   0  0  0  0  0  0  0  0  0  0  0  0
  151.4435  142.5487  160.9568 H   0  0  0  0  0  0  0  0  0  0  0  0
  154.1052  143.4053  159.7499 H   0  0  0  0  0  0  0  0  0  0  0  0
  152.8548  140.6266  159.8798 H   0  0  0  0  0  0  0  0  0  0  0  0
  154.2628  141.1822  160.7758 H   0  0  0  0  0  0  0  0  0  0  0  0
  154.3377  141.0419  159.0233 H   0  0  0  0  0  0  0  0  0  0  0  0
  1  2  1  0  0  0  0
  1 22  1  0  0  0  0
  1 23  1  0  0  0  0
  1 24  1  0  0  0  0
  2  7  1  0  0  0  0
  2  3  2  0  0  0  0
  3  4  1  0  0  0  0
  4  5  1  0  0  0  0
  5  6  1  0  0  0  0
  5  7  2  0  0  0  0
  6 25  1  0  0  0  0
  6 26  1  0  0  0  0
  6 27  1  0  0  0  0
  7  8  1  0  0  0  0
  8  9  1  0  0  0  0
  8 28  1  0  0  0  0
  8 29  1  0  0  0  0
  9 10  2  0  0  0  0
  9 11  1  0  0  0  0
 11 12  1  0  0  0  0
 11 30  1  0  0  0  0
 12 13  1  0  0  0  0
 12 31  1  0  0  0  0
 12 32  1  0  0  0  0
 13 14  1  0  0  0  0
 13 33  1  0  0  0  0
 13 34  1  0  0  0  0
 14 15  1  0  0  0  0
 15 20  1  0  0  0  0
 15 16  1  0  0  0  0
 15 35  1  0  0  0  0
 16 17  1  0  0  0  0
 16 36  1  0  0  0  0
 16 37  1  0  0  0  0
 17 18  1  0  0  0  0
 17 38  1  0  0  0  0
 17 39  1  0  0  0  0
 18 19  1  0  0  0  0
 18 40  1  0  0  0  0
 18 41  1  0  0  0  0
 19 20  1  0  0  0  0
 19 42  1  0  0  0  0
 19 43  1  0  0  0  0
 20 21  1  0  0  0  0
 20 44  1  0  0  0  0
 21 45  1  0  0  0  0
 21 46  1  0  0  0  0
 21 47  1  0  0  0  0
M  END
> <s_m_source_file>
AV-unprocessed.smi

> <i_m_source_file_index>
1346

> <i_lp_mmshare_version>
43012

> <i_f3d_flags>
0

> <s_epik_input>
W0NIM11jMW5vYyhbQ0gzXSljMVtDSDJdQyg9TylbTkhdW0NIMl1bQ0gyXU9bQ0BASF0yW0NIMl1bQ0gyXVtDSDJdW0NIMl1bQ0BIXTJbQ0gzXQ==

> <s_epik_cmdline>
J2VwaWtfcHl0aG9uJywgJy1waCcsICc3LjAnLCAnLXRuJywgJzgnLCAnLW1hJywgJzIwMCcsICctbWV0YWxfYmluZGluZycsICctaW1hZScsICc8aW5maWxlLm1hZT4nLCAnLW9tYWUnLCAnPG91dGZpbGUubWFlPic=

> <r_lp_tautomer_probability>
1

> <r_epik_Ionization_Penalty>
3.26154e-08

> <r_epik_Ionization_Penalty_Charging>
0

> <r_epik_Ionization_Penalty_Neutral>
3.26154e-08

> <r_epik_State_Penalty>
-0

> <r_epik_Charging_Adjusted_Penalty>
0

> <i_epik_Tot_Q>
0

> <i_epik_Tot_abs_Q>
0

> <r_epik_Metal_State_Penalty>
-0

> <b_epik_Metal_Only>
0

> <s_lp_Force_Field>
OPLS_2005

> <r_lp_Energy>
6.45158

> <b_lp_Chiralities_Consistent>
1

> <s_lp_Variant>
AV-unprocessed.smi:1346-2

> <Gold.Version>
5.8.1

> <Gold.Id.Protein>
6NUR|6NUR_protein|mol2

> <Gold.PLP.Fitness>
52.4072

> <Gold.PLP.PLP>
-47.8305

> <Gold.PLP.part.hbond>
-3.0000

> <Gold.PLP.part.metal>
0.0000

> <Gold.PLP.part.buried>
-4.9689

> <Gold.PLP.part.nonpolar>
-40.2718

> <Gold.PLP.part.repulsive>
0.3138

> <Gold.PLP.ligand.clash>
0.0000

> <Gold.PLP.ligand.torsion>
0.5960

> <Gold.PLP.Chemscore.Hbond>
1.9023

> <Gold.PLP.Chemscore.CHOScore>
0.0000

> <Gold.PLP.Chemscore.Metal>
0.0000

> <Gold.Chemscore.Hbonds>
donor molecule, donor type, donor heavy atom, donor atom, acceptor molecule, acceptor atom, score
      P1  H  8011  8017       L1    10  0.48

> <Gold.PLP.Chemscore.Internal.Correction>
0.0617

> <Gold.Rescore>
     Score         DG    S(hbond)    S(metal)    S(lipo)     H(rot)  DE(clash)    DE(int)     intcor
     19.72     -20.87       1.46        0.00     127.73       1.74       0.27       0.88       ----

> <Gold.Chemscore.Fitness>
19.7174

> <Gold.Chemscore.DG>
-20.8701

> <Gold.Chemscore.ZeroCoef>
-5.4800

> <Gold.Chemscore.Hbond>
1.4635

> <Gold.Chemscore.Metal>
0.0000

> <Gold.Chemscore.Lipo>
127.7279

> <Gold.Chemscore.Internal_Hbond>
0.0000

> <Gold.Chemscore.DEClash>
0.2693

> <Gold.Chemscore.DEInternal>
0.8834

> <Gold.Chemscore.Rot>
1.7352

> <Gold.Chemscore.Internal.Correction>
   9.000000E+99

> <Gold.Chemscore.Hbonds>
donor molecule, donor type, donor heavy atom, donor atom, acceptor molecule, acceptor atom, score
      P1  H  8011  8017       L1    10  0.48

> <Gold.Chemscore.Hbond.Weighted>
-4.8880

> <Gold.Chemscore.Metal.Weighted>
-0.0000

> <Gold.Chemscore.Lipo.Weighted>
-14.9442

> <Gold.Chemscore.Internal_Hbond.Weighted>
0.0000

> <Gold.Chemscore.DEClash.Weighted>
0.2693

> <Gold.Chemscore.DEInternal.Weighted>
0.8834

> <Gold.Chemscore.Rot.Weighted>
4.4420

> <Gold.Chemscore.Internal.Correction.Weighted>
   9.000000E+99

> <Gold.Protein.RotatedTorsions>
[ 6907 6896 6895 6894 ] final  164.87 input  -60.11 | X-H torsion
[ 7974 7965 7964 7962 ] final   -6.16 input  175.53 | X-H torsion
[ 8008 7997 7996 7995 ] final  -52.90 input   59.86 | X-H torsion
[ 10167 10162 10161 10158 ] final -157.04 input  -65.29 | X-H torsion
[ 10718 10713 10712 10709 ] final  -51.26 input   66.30 | X-H torsion
[ 10763 10752 10751 10750 ] final -156.31 input  -60.55 | X-H torsion
[ 11005 11000 10999 10996 ] final   21.17 input  -57.11 | X-H torsion

> <Gold.Protein.ActiveResidues>
 VAL166  LYS551  ARG553  GLY616  TRP617  ASP618  TYR619  PRO620  LYS621  CYS622 
 ASP623  PHE694  ASN695  SER759  ASP760  ASP761  ALA762  ILE779  LEU786  VAL792 
 PHE793  MET794  SER795  GLU796  ALA797  LYS798  CYS799  TRP800  GLU811  SER814 

> <Gold.Protein.RotatedAtoms>
  151.9031  133.3543  159.3837 H   0  0  0  0  0  0  0  0  0  0  0  0  # atno 6907 bound_to 6896
  150.7075  134.4808  159.5478 H   0  0  0  0  0  0  0  0  0  0  0  0  # atno 6908 bound_to 6896
  152.2400  134.8238  160.0512 H   0  0  0  0  0  0  0  0  0  0  0  0  # atno 6909 bound_to 6896
  146.2337  140.2129  142.8335 H   0  0  0  0  0  0  0  0  0  0  0  0  # atno 7974 bound_to 7965
  154.4119  140.1213  156.5067 H   0  0  0  0  0  0  0  0  0  0  0  0  # atno 8008 bound_to 7997
  155.6840  140.3496  155.4847 H   0  0  0  0  0  0  0  0  0  0  0  0  # atno 8009 bound_to 7997
  155.9526  140.1108  157.0954 H   0  0  0  0  0  0  0  0  0  0  0  0  # atno 8010 bound_to 7997
  139.6802  143.9594  152.2333 H   0  0  0  0  0  0  0  0  0  0  0  0  # atno 10167 bound_to 10162
  156.1726  130.4149  149.9624 H   0  0  0  0  0  0  0  0  0  0  0  0  # atno 10718 bound_to 10713
  154.7722  135.3148  154.8166 H   0  0  0  0  0  0  0  0  0  0  0  0  # atno 10763 bound_to 10752
  153.8898  135.6826  153.4765 H   0  0  0  0  0  0  0  0  0  0  0  0  # atno 10764 bound_to 10752
  153.1338  135.4768  154.9325 H   0  0  0  0  0  0  0  0  0  0  0  0  # atno 10765 bound_to 10752
  140.3945  134.1783  155.7663 H   0  0  0  0  0  0  0  0  0  0  0  0  # atno 11005 bound_to 11000
  144.9692  140.8352  143.5465 LP  0  0  0  0  0  0  0  0  0  0  0  0  # atno 17320 bound_to 7965
  145.2109  139.2205  143.5143 LP  0  0  0  0  0  0  0  0  0  0  0  0  # atno 17321 bound_to 7965
  139.9382  144.6698  150.8293 LP  0  0  0  0  0  0  0  0  0  0  0  0  # atno 17342 bound_to 10162
  140.7649  143.3262  151.2510 LP  0  0  0  0  0  0  0  0  0  0  0  0  # atno 17343 bound_to 10162
  156.7420  130.9083  151.3632 LP  0  0  0  0  0  0  0  0  0  0  0  0  # atno 17370 bound_to 10713
  157.6813  130.9143  150.0275 LP  0  0  0  0  0  0  0  0  0  0  0  0  # atno 17371 bound_to 10713
  141.1879  133.8272  157.1015 LP  0  0  0  0  0  0  0  0  0  0  0  0  # atno 17394 bound_to 11000
  140.0382  134.9868  157.0911 LP  0  0  0  0  0  0  0  0  0  0  0  0  # atno 17395 bound_to 11000

$$$$
