AV-unprocessed.smi:3132|AV-procd|sdf|11934|dock8
  -GOLD-   2272017323D 1   1.00000     0.00000
 Structure written by MMmdl.
 33 34  0  0  0  0  0  0  0  0  1 V2000
  153.1481  139.5584  159.5357 C   0  0  0  0  0  0  0  0  0  0  0  0
  152.3816  140.8877  159.5209 C   0  0  1  0  0  0  0  0  0  0  0  0
  153.2509  142.0429  160.0619 C   0  0  0  0  0  0  0  0  0  0  0  0
  152.5753  143.3267  160.0079 N   0  0  0  0  0  0  0  0  0  0  0  0
  152.3329  144.1000  158.8800 C   0  0  0  0  0  0  0  0  0  0  0  0
  151.6602  145.2214  159.3096 C   0  0  0  0  0  0  0  0  0  0  0  0
  151.4845  145.1628  160.6899 N   0  0  0  0  0  0  0  0  0  0  0  0
  152.0532  144.0143  161.0328 C   0  0  0  0  0  0  0  0  0  0  0  0
  151.9391  141.1647  158.1547 N   0  0  0  0  0  0  0  0  0  0  0  0
  151.2852  140.3090  157.3529 C   0  0  0  0  0  0  0  0  0  0  0  0
  151.0060  139.1550  157.6808 O   0  0  0  0  0  0  0  0  0  0  0  0
  150.8807  140.8473  155.9724 C   0  0  2  0  0  0  0  0  0  0  0  0
  149.3595  140.8119  155.7234 C   0  0  0  0  0  0  0  0  0  0  0  0
  149.1987  139.9317  154.4957 C   0  0  0  0  0  0  0  0  0  0  0  0
  150.4693  139.0945  154.5075 C   0  0  0  0  0  0  0  0  0  0  0  0
  151.4503  140.0148  154.9632 O   0  0  0  0  0  0  0  0  0  0  0  0
  153.4687  139.3020  160.5457 H   0  0  0  0  0  0  0  0  0  0  0  0
  154.0373  139.6044  158.9060 H   0  0  0  0  0  0  0  0  0  0  0  0
  152.5239  138.7411  159.1728 H   0  0  0  0  0  0  0  0  0  0  0  0
  151.5155  140.7652  160.1739 H   0  0  0  0  0  0  0  0  0  0  0  0
  153.5218  141.8534  161.1015 H   0  0  0  0  0  0  0  0  0  0  0  0
  154.1861  142.1141  159.5045 H   0  0  0  0  0  0  0  0  0  0  0  0
  152.6439  143.7936  157.8922 H   0  0  0  0  0  0  0  0  0  0  0  0
  151.2926  146.0593  158.7362 H   0  0  0  0  0  0  0  0  0  0  0  0
  152.0849  143.6611  162.0531 H   0  0  0  0  0  0  0  0  0  0  0  0
  152.1309  142.0888  157.7958 H   0  0  0  0  0  0  0  0  0  0  0  0
  151.2659  141.8591  155.8389 H   0  0  0  0  0  0  0  0  0  0  0  0
  148.8135  140.3849  156.5664 H   0  0  0  0  0  0  0  0  0  0  0  0
  148.9541  141.8091  155.5508 H   0  0  0  0  0  0  0  0  0  0  0  0
  148.2914  139.3273  154.5176 H   0  0  0  0  0  0  0  0  0  0  0  0
  149.1737  140.5499  153.5975 H   0  0  0  0  0  0  0  0  0  0  0  0
  150.3834  138.2626  155.2076 H   0  0  0  0  0  0  0  0  0  0  0  0
  150.7195  138.6929  153.5255 H   0  0  0  0  0  0  0  0  0  0  0  0
  1  2  1  0  0  0  0
  1 17  1  0  0  0  0
  1 18  1  0  0  0  0
  1 19  1  0  0  0  0
  2  3  1  0  0  0  0
  2  9  1  0  0  0  0
  2 20  1  0  0  0  0
  3  4  1  0  0  0  0
  3 21  1  0  0  0  0
  3 22  1  0  0  0  0
  4  8  1  0  0  0  0
  4  5  1  0  0  0  0
  5  6  2  0  0  0  0
  5 23  1  0  0  0  0
  6  7  1  0  0  0  0
  6 24  1  0  0  0  0
  7  8  2  0  0  0  0
  8 25  1  0  0  0  0
  9 10  1  0  0  0  0
  9 26  1  0  0  0  0
 10 11  2  0  0  0  0
 10 12  1  0  0  0  0
 12 16  1  0  0  0  0
 12 13  1  0  0  0  0
 12 27  1  0  0  0  0
 13 14  1  0  0  0  0
 13 28  1  0  0  0  0
 13 29  1  0  0  0  0
 14 15  1  0  0  0  0
 14 30  1  0  0  0  0
 14 31  1  0  0  0  0
 15 16  1  0  0  0  0
 15 32  1  0  0  0  0
 15 33  1  0  0  0  0
M  END
> <s_m_source_file>
AV-unprocessed.smi

> <i_m_source_file_index>
3132

> <i_lp_mmshare_version>
43012

> <i_f3d_flags>
0

> <s_epik_input>
W2NIXTFuW2NIXVtjSF1uMVtDSDJdW0NAQEhdKFtDSDNdKVtOSF1DKD1PKVtDQEBIXTJbQ0gyXVtDSDJdW0NIMl1PMg==

> <s_epik_cmdline>
J2VwaWtfcHl0aG9uJywgJy1waCcsICc3LjAnLCAnLXRuJywgJzgnLCAnLW1hJywgJzIwMCcsICctbWV0YWxfYmluZGluZycsICctaW1hZScsICc8aW5maWxlLm1hZT4nLCAnLW9tYWUnLCAnPG91dGZpbGUubWFlPic=

> <r_lp_tautomer_probability>
1

> <r_epik_Ionization_Penalty>
0.630322

> <r_epik_Ionization_Penalty_Charging>
0.630322

> <r_epik_Ionization_Penalty_Neutral>
3.82652e-08

> <r_epik_State_Penalty>
0.647117

> <r_epik_Charging_Adjusted_Penalty>
1.27744

> <i_epik_Tot_Q>
0

> <i_epik_Tot_abs_Q>
0

> <r_epik_Metal_State_Penalty>
0.309095

> <b_epik_Metal_Only>
0

> <s_lp_Force_Field>
OPLS_2005

> <r_lp_Energy>
20.2845

> <b_lp_Chiralities_Consistent>
1

> <s_lp_Variant>
AV-unprocessed.smi:3132-6

> <Gold.Version>
5.8.1

> <Gold.Id.Protein>
6NUR|6NUR_protein|mol2

> <Gold.PLP.Fitness>
42.6340

> <Gold.PLP.PLP>
-40.1275

> <Gold.PLP.part.hbond>
-1.0000

> <Gold.PLP.part.metal>
0.0000

> <Gold.PLP.part.buried>
-6.0475

> <Gold.PLP.part.nonpolar>
-33.7637

> <Gold.PLP.part.repulsive>
0.3123

> <Gold.PLP.ligand.clash>
0.0000

> <Gold.PLP.ligand.torsion>
0.2551

> <Gold.PLP.Chemscore.Hbond>
1.0000

> <Gold.PLP.Chemscore.CHOScore>
0.0000

> <Gold.PLP.Chemscore.Metal>
0.0000

> <Gold.Chemscore.Hbonds>
donor molecule, donor type, donor heavy atom, donor atom, acceptor molecule, acceptor atom, score
      P1  H  7989  7998       L1    16  0.90

> <Gold.PLP.Chemscore.Internal.Correction>
0.0168

> <Gold.Rescore>
     Score         DG    S(hbond)    S(metal)    S(lipo)     H(rot)  DE(clash)    DE(int)     intcor
     10.80     -12.55       0.84        0.00      77.08       1.86       0.13       1.62       ----

> <Gold.Chemscore.Fitness>
10.7995

> <Gold.Chemscore.DG>
-12.5476

> <Gold.Chemscore.ZeroCoef>
-5.4800

> <Gold.Chemscore.Hbond>
0.8442

> <Gold.Chemscore.Metal>
0.0000

> <Gold.Chemscore.Lipo>
77.0827

> <Gold.Chemscore.Internal_Hbond>
0.0000

> <Gold.Chemscore.DEClash>
0.1252

> <Gold.Chemscore.DEInternal>
1.6229

> <Gold.Chemscore.Rot>
1.8636

> <Gold.Chemscore.Internal.Correction>
   9.000000E+99

> <Gold.Chemscore.Hbonds>
donor molecule, donor type, donor heavy atom, donor atom, acceptor molecule, acceptor atom, score
      P1  H  7989  7998       L1    16  0.14

> <Gold.Chemscore.Hbond.Weighted>
-2.8198

> <Gold.Chemscore.Metal.Weighted>
-0.0000

> <Gold.Chemscore.Lipo.Weighted>
-9.0187

> <Gold.Chemscore.Internal_Hbond.Weighted>
0.0000

> <Gold.Chemscore.DEClash.Weighted>
0.1252

> <Gold.Chemscore.DEInternal.Weighted>
1.6229

> <Gold.Chemscore.Rot.Weighted>
4.7709

> <Gold.Chemscore.Internal.Correction.Weighted>
   9.000000E+99

> <Gold.Protein.RotatedTorsions>
[ 6907 6896 6895 6894 ] final -136.11 input  -60.11 | X-H torsion
[ 7974 7965 7964 7962 ] final   46.68 input  175.53 | X-H torsion
[ 8008 7997 7996 7995 ] final -118.27 input   59.86 | X-H torsion
[ 10167 10162 10161 10158 ] final  107.87 input  -65.29 | X-H torsion
[ 10718 10713 10712 10709 ] final -177.90 input   66.30 | X-H torsion
[ 10763 10752 10751 10750 ] final -110.09 input  -60.55 | X-H torsion
[ 11005 11000 10999 10996 ] final  -95.38 input  -57.11 | X-H torsion

> <Gold.Protein.ActiveResidues>
 VAL166  LYS551  ARG553  GLY616  TRP617  ASP618  TYR619  PRO620  LYS621  CYS622 
 ASP623  PHE694  ASN695  SER759  ASP760  ASP761  ALA762  ILE779  LEU786  VAL792 
 PHE793  MET794  SER795  GLU796  ALA797  LYS798  CYS799  TRP800  GLU811  SER814 

> <Gold.Protein.RotatedAtoms>
  151.0060  133.6010  159.2688 H   0  0  0  0  0  0  0  0  0  0  0  0  # atno 6907 bound_to 6896
  151.3179  135.0810  159.9305 H   0  0  0  0  0  0  0  0  0  0  0  0  # atno 6908 bound_to 6896
  152.5287  133.9713  159.7817 H   0  0  0  0  0  0  0  0  0  0  0  0  # atno 6909 bound_to 6896
  146.0367  139.4829  142.9804 H   0  0  0  0  0  0  0  0  0  0  0  0  # atno 7974 bound_to 7965
  155.0970  140.0395  157.2685 H   0  0  0  0  0  0  0  0  0  0  0  0  # atno 8008 bound_to 7997
  154.6788  140.2628  155.6905 H   0  0  0  0  0  0  0  0  0  0  0  0  # atno 8009 bound_to 7997
  156.2687  140.2783  156.1324 H   0  0  0  0  0  0  0  0  0  0  0  0  # atno 8010 bound_to 7997
  139.6892  144.7110  151.1378 H   0  0  0  0  0  0  0  0  0  0  0  0  # atno 10167 bound_to 10162
  156.8364  130.9671  151.3103 H   0  0  0  0  0  0  0  0  0  0  0  0  # atno 10718 bound_to 10713
  154.8229  135.4577  154.0833 H   0  0  0  0  0  0  0  0  0  0  0  0  # atno 10763 bound_to 10752
  153.2171  135.6889  153.8051 H   0  0  0  0  0  0  0  0  0  0  0  0  # atno 10764 bound_to 10752
  153.7481  135.3302  155.3293 H   0  0  0  0  0  0  0  0  0  0  0  0  # atno 10765 bound_to 10752
  141.1443  133.8022  157.0428 H   0  0  0  0  0  0  0  0  0  0  0  0  # atno 11005 bound_to 11000
  145.6952  141.0152  143.1534 LP  0  0  0  0  0  0  0  0  0  0  0  0  # atno 17320 bound_to 7965
  144.7055  139.8579  143.7431 LP  0  0  0  0  0  0  0  0  0  0  0  0  # atno 17321 bound_to 7965
  140.7677  143.5584  150.9126 LP  0  0  0  0  0  0  0  0  0  0  0  0  # atno 17342 bound_to 10162
  139.9260  143.6549  152.3086 LP  0  0  0  0  0  0  0  0  0  0  0  0  # atno 17343 bound_to 10162
  157.6379  130.8782  149.9393 LP  0  0  0  0  0  0  0  0  0  0  0  0  # atno 17370 bound_to 10713
  156.0905  130.3664  150.0404 LP  0  0  0  0  0  0  0  0  0  0  0  0  # atno 17371 bound_to 10713
  140.0682  134.9717  157.1422 LP  0  0  0  0  0  0  0  0  0  0  0  0  # atno 17394 bound_to 11000
  140.3749  134.2350  155.7175 LP  0  0  0  0  0  0  0  0  0  0  0  0  # atno 17395 bound_to 11000

$$$$
