AV-unprocessed.smi:1827|AV-procd|sdf|7422|dock3
  -GOLD-   22720 9103D 1   1.00000     0.00000
 Structure written by MMmdl.
 43 44  0  0  0  0  0  0  0  0  3 V2000
  150.8266  139.2825  155.3398 C   0  0  0  0  0  0  0  0  0  0  0  0
  149.7776  140.3249  155.0683 C   0  0  0  0  0  0  0  0  0  0  0  0
  149.8717  141.4987  155.6798 N   0  0  0  0  0  0  0  0  0  0  0  0
  148.8443  142.2246  155.1892 N   0  0  0  0  0  0  0  0  0  0  0  0
  148.0813  141.5438  154.2674 C   0  0  0  0  0  0  0  0  0  0  0  0
  146.9053  142.1611  153.5868 C   0  0  0  0  0  0  0  0  0  0  0  0
  148.6463  140.3038  154.1938 C   0  0  0  0  0  0  0  0  0  0  0  0
  148.1970  139.2684  153.3364 N   0  0  0  0  0  0  0  0  0  0  0  0
  147.0067  138.6508  153.3777 C   0  0  0  0  0  0  0  0  0  0  0  0
  146.1017  138.9171  154.1680 O   0  0  0  0  0  0  0  0  0  0  0  0
  146.9093  137.7098  152.4277 N   0  0  0  0  0  0  0  0  0  0  0  0
  145.7385  136.8686  152.1969 C   0  0  2  0  0  0  0  0  0  0  0  0
  145.7331  135.6584  153.1492 C   0  0  0  0  0  0  0  0  0  0  0  0
  144.5578  134.7164  152.8422 C   0  0  0  0  0  0  0  0  0  0  0  0
  144.5877  134.2667  151.4248 N   0  3  1  0  0  0  0  0  0  0  0  0
  143.5557  133.2459  151.1096 C   0  0  0  0  0  0  0  0  0  0  0  0
  143.9368  132.4531  149.8545 C   0  0  0  0  0  0  0  0  0  0  0  0
  142.8631  132.1263  149.1071 N   0  5  0  0  0  0  0  0  0  0  0  0
  145.1172  132.1910  149.6359 O   0  0  0  0  0  0  0  0  0  0  0  0
  144.5554  135.4151  150.4844 C   0  0  0  0  0  0  0  0  0  0  0  0
  145.7289  136.3759  150.7409 C   0  0  0  0  0  0  0  0  0  0  0  0
  148.6834  143.1769  155.4847 H   0  0  0  0  0  0  0  0  0  0  0  0
  151.0212  138.6780  154.4539 H   0  0  0  0  0  0  0  0  0  0  0  0
  150.5158  138.6145  156.1428 H   0  0  0  0  0  0  0  0  0  0  0  0
  151.7728  139.7367  155.6361 H   0  0  0  0  0  0  0  0  0  0  0  0
  146.5990  141.5740  152.7209 H   0  0  0  0  0  0  0  0  0  0  0  0
  147.1400  143.1685  153.2423 H   0  0  0  0  0  0  0  0  0  0  0  0
  146.0565  142.2254  154.2675 H   0  0  0  0  0  0  0  0  0  0  0  0
  148.8016  139.0425  152.5605 H   0  0  0  0  0  0  0  0  0  0  0  0
  147.7025  137.5640  151.8202 H   0  0  0  0  0  0  0  0  0  0  0  0
  144.8360  137.4599  152.3651 H   0  0  0  0  0  0  0  0  0  0  0  0
  146.6709  135.1082  153.0569 H   0  0  0  0  0  0  0  0  0  0  0  0
  145.6717  135.9917  154.1859 H   0  0  0  0  0  0  0  0  0  0  0  0
  144.6066  133.8574  153.5121 H   0  0  0  0  0  0  0  0  0  0  0  0
  143.6114  135.2202  153.0451 H   0  0  0  0  0  0  0  0  0  0  0  0
  143.4101  132.5768  151.9593 H   0  0  0  0  0  0  0  0  0  0  0  0
  142.5925  133.7237  150.9215 H   0  0  0  0  0  0  0  0  0  0  0  0
  142.1574  132.8485  148.9180 H   0  0  0  0  0  0  0  0  0  0  0  0
  144.6108  135.0513  149.4578 H   0  0  0  0  0  0  0  0  0  0  0  0
  143.6054  135.9425  150.5846 H   0  0  0  0  0  0  0  0  0  0  0  0
  145.6654  137.2246  150.0587 H   0  0  0  0  0  0  0  0  0  0  0  0
  146.6670  135.8665  150.5149 H   0  0  0  0  0  0  0  0  0  0  0  0
  145.4733  133.8014  151.2797 H   0  0  0  0  0  0  0  0  0  0  0  0
  1  2  1  0  0  0  0
  1 23  1  0  0  0  0
  1 24  1  0  0  0  0
  1 25  1  0  0  0  0
  2  7  1  0  0  0  0
  2  3  2  0  0  0  0
  3  4  1  0  0  0  0
  4 22  1  0  0  0  0
  4  5  1  0  0  0  0
  5  6  1  0  0  0  0
  5  7  2  0  0  0  0
  6 26  1  0  0  0  0
  6 27  1  0  0  0  0
  6 28  1  0  0  0  0
  7  8  1  0  0  0  0
  8  9  1  0  0  0  0
  8 29  1  0  0  0  0
  9 10  2  0  0  0  0
  9 11  1  0  0  0  0
 11 12  1  0  0  0  0
 11 30  1  0  0  0  0
 12 21  1  0  0  0  0
 12 13  1  0  0  0  0
 12 31  1  0  0  0  0
 13 14  1  0  0  0  0
 13 32  1  0  0  0  0
 13 33  1  0  0  0  0
 14 15  1  0  0  0  0
 14 34  1  0  0  0  0
 14 35  1  0  0  0  0
 15 16  1  0  0  0  0
 15 20  1  0  0  0  0
 15 43  1  0  0  0  0
 16 17  1  0  0  0  0
 16 36  1  0  0  0  0
 16 37  1  0  0  0  0
 17 18  1  0  0  0  0
 17 19  2  0  0  0  0
 18 38  1  0  0  0  0
 20 21  1  0  0  0  0
 20 39  1  0  0  0  0
 20 40  1  0  0  0  0
 21 41  1  0  0  0  0
 21 42  1  0  0  0  0
M  CHG  1  15   1
M  CHG  1  18  -1
M  END
> <s_m_source_file>
AV-unprocessed.smi

> <i_m_source_file_index>
1827

> <i_lp_mmshare_version>
43012

> <i_f3d_flags>
0

> <s_epik_input>
W0NIM11jMW5bbkhdYyhbQ0gzXSljMVtOSF1DKD1PKVtOSF1bQ0hdMltDSDJdW0NIMl1OKFtDSDJdW0NIMl0yKVtDSDJdQyg9TylbTkgyXQ==

> <s_epik_cmdline>
J2VwaWtfcHl0aG9uJywgJy1waCcsICc3LjAnLCAnLXRuJywgJzgnLCAnLW1hJywgJzIwMCcsICctbWV0YWxfYmluZGluZycsICctaW1hZScsICc8aW5maWxlLm1hZT4nLCAnLW9tYWUnLCAnPG91dGZpbGUubWFlPic=

> <r_lp_tautomer_probability>
0.5

> <r_epik_Ionization_Penalty>
5.72915

> <r_epik_Ionization_Penalty_Charging>
5.7288

> <r_epik_Ionization_Penalty_Neutral>
0.000348152

> <r_epik_State_Penalty>
6.54882

> <r_epik_Charging_Adjusted_Penalty>
12.2776

> <i_epik_Tot_Q>
0

> <i_epik_Tot_abs_Q>
2

> <r_epik_Metal_State_Penalty>
2.51333

> <b_epik_Metal_Only>
1

> <s_lp_Force_Field>
OPLS_2005

> <r_lp_Energy>
10.1727

> <b_lp_Chiralities_Consistent>
1

> <s_lp_Variant>
AV-unprocessed.smi:1827-4

> <Gold.Version>
5.8.1

> <Gold.Id.Protein>
6NUR|6NUR_protein|mol2

> <Gold.PLP.Fitness>
50.9801

> <Gold.PLP.PLP>
-40.4449

> <Gold.PLP.part.hbond>
-5.8139

> <Gold.PLP.part.metal>
0.0000

> <Gold.PLP.part.buried>
-4.6149

> <Gold.PLP.part.nonpolar>
-30.5041

> <Gold.PLP.part.repulsive>
0.7006

> <Gold.PLP.ligand.clash>
0.0000

> <Gold.PLP.ligand.torsion>
1.4067

> <Gold.PLP.Chemscore.Hbond>
4.3120

> <Gold.PLP.Chemscore.CHOScore>
0.0000

> <Gold.PLP.Chemscore.Metal>
0.0000

> <Gold.Chemscore.Hbonds>
donor molecule, donor type, donor heavy atom, donor atom, acceptor molecule, acceptor atom, score
      L1  H     4    22       P1  8028  1.00
      L1  H     8    29       P1  7957  0.70
      L1  H    11    30       P1  7948  0.61
      L1  H    18    38       P1 10186  0.99
      P1  H 10785 10796       L1    18  0.98

> <Gold.PLP.Chemscore.Internal.Correction>
0.4126

> <Gold.Rescore>
     Score         DG    S(hbond)    S(metal)    S(lipo)     H(rot)  DE(clash)    DE(int)     intcor
     18.89     -20.40       3.80        0.00      61.76       1.96       0.01       1.50       ----

> <Gold.Chemscore.Fitness>
18.8855

> <Gold.Chemscore.DG>
-20.3985

> <Gold.Chemscore.ZeroCoef>
-5.4800

> <Gold.Chemscore.Hbond>
3.8028

> <Gold.Chemscore.Metal>
0.0000

> <Gold.Chemscore.Lipo>
61.7630

> <Gold.Chemscore.Internal_Hbond>
0.0000

> <Gold.Chemscore.DEClash>
0.0093

> <Gold.Chemscore.DEInternal>
1.5038

> <Gold.Chemscore.Rot>
1.9566

> <Gold.Chemscore.Internal.Correction>
   9.000000E+99

> <Gold.Chemscore.Hbonds>
donor molecule, donor type, donor heavy atom, donor atom, acceptor molecule, acceptor atom, score
      L1  H     4    22       P1  8028  0.96
      L1  H     8    29       P1  7957  0.72
      L1  H    11    30       P1  7948  0.62
      L1  H    18    38       P1 10186  0.88
      P1  H 10785 10796       L1    18  0.32

> <Gold.Chemscore.Hbond.Weighted>
-12.7013

> <Gold.Chemscore.Metal.Weighted>
-0.0000

> <Gold.Chemscore.Lipo.Weighted>
-7.2263

> <Gold.Chemscore.Internal_Hbond.Weighted>
0.0000

> <Gold.Chemscore.DEClash.Weighted>
0.0093

> <Gold.Chemscore.DEInternal.Weighted>
1.5038

> <Gold.Chemscore.Rot.Weighted>
5.0090

> <Gold.Chemscore.Internal.Correction.Weighted>
   9.000000E+99

> <Gold.Protein.RotatedTorsions>
[ 6907 6896 6895 6894 ] final -127.90 input  -60.11 | X-H torsion
[ 7974 7965 7964 7962 ] final  -35.24 input  175.53 | X-H torsion
[ 8008 7997 7996 7995 ] final  -52.53 input   59.86 | X-H torsion
[ 10167 10162 10161 10158 ] final    7.07 input  -65.29 | X-H torsion
[ 10718 10713 10712 10709 ] final  177.96 input   66.30 | X-H torsion
[ 10763 10752 10751 10750 ] final  145.81 input  -60.55 | X-H torsion
[ 11005 11000 10999 10996 ] final  108.63 input  -57.11 | X-H torsion

> <Gold.Protein.ActiveResidues>
 VAL166  LYS551  ARG553  GLY616  TRP617  ASP618  TYR619  PRO620  LYS621  CYS622 
 ASP623  PHE694  ASN695  SER759  ASP760  ASP761  ALA762  ILE779  LEU786  VAL792 
 PHE793  MET794  SER795  GLU796  ALA797  LYS798  CYS799  TRP800  GLU811  SER814 

> <Gold.Protein.RotatedAtoms>
  150.9122  133.6984  159.2851 H   0  0  0  0  0  0  0  0  0  0  0  0  # atno 6907 bound_to 6896
  151.4467  135.1024  159.9695 H   0  0  0  0  0  0  0  0  0  0  0  0  # atno 6908 bound_to 6896
  152.4936  133.8517  159.7260 H   0  0  0  0  0  0  0  0  0  0  0  0  # atno 6909 bound_to 6896
  146.0763  140.6135  142.8929 H   0  0  0  0  0  0  0  0  0  0  0  0  # atno 7974 bound_to 7965
  154.4109  140.1221  156.5006 H   0  0  0  0  0  0  0  0  0  0  0  0  # atno 8008 bound_to 7997
  155.6899  140.3495  155.4869 H   0  0  0  0  0  0  0  0  0  0  0  0  # atno 8009 bound_to 7997
  155.9478  140.1099  157.0992 H   0  0  0  0  0  0  0  0  0  0  0  0  # atno 8010 bound_to 7997
  140.6392  143.7814  150.7404 H   0  0  0  0  0  0  0  0  0  0  0  0  # atno 10167 bound_to 10162
  156.8976  130.9868  151.3040 H   0  0  0  0  0  0  0  0  0  0  0  0  # atno 10718 bound_to 10713
  154.0115  135.2914  155.3392 H   0  0  0  0  0  0  0  0  0  0  0  0  # atno 10763 bound_to 10752
  154.7100  135.5153  153.8656 H   0  0  0  0  0  0  0  0  0  0  0  0  # atno 10764 bound_to 10752
  153.0721  135.6651  154.0346 H   0  0  0  0  0  0  0  0  0  0  0  0  # atno 10765 bound_to 10752
  139.8847  134.9436  156.6003 H   0  0  0  0  0  0  0  0  0  0  0  0  # atno 11005 bound_to 11000
  144.7264  140.4537  143.6970 LP  0  0  0  0  0  0  0  0  0  0  0  0  # atno 17320 bound_to 7965
  145.6300  139.1535  143.2974 LP  0  0  0  0  0  0  0  0  0  0  0  0  # atno 17321 bound_to 7965
  140.1441  143.4415  152.2174 LP  0  0  0  0  0  0  0  0  0  0  0  0  # atno 17342 bound_to 10162
  139.5602  144.7400  151.4178 LP  0  0  0  0  0  0  0  0  0  0  0  0  # atno 17343 bound_to 10162
  157.6046  130.8537  149.8854 LP  0  0  0  0  0  0  0  0  0  0  0  0  # atno 17370 bound_to 10713
  156.0598  130.3702  150.1009 LP  0  0  0  0  0  0  0  0  0  0  0  0  # atno 17371 bound_to 10713
  140.7889  133.8599  155.8629 LP  0  0  0  0  0  0  0  0  0  0  0  0  # atno 17394 bound_to 11000
  140.9695  134.1550  157.4588 LP  0  0  0  0  0  0  0  0  0  0  0  0  # atno 17395 bound_to 11000

$$$$
