AV-unprocessed.smi:1417|AV-procd|sdf|5772|dock6
  -GOLD-   22720 5413D 1   1.00000     0.00000
 Structure written by MMmdl.
 39 40  0  0  0  0  0  0  0  0  3 V2000
  150.7552  141.9543  156.2181 C   0  0  0  0  0  0  0  0  0  0  0  0
  150.3170  140.7762  155.4177 C   0  0  0  0  0  0  0  0  0  0  0  0
  149.0870  140.2834  155.0848 C   0  0  0  0  0  0  0  0  0  0  0  0
  149.4046  139.1366  154.3004 C   0  0  0  0  0  0  0  0  0  0  0  0
  148.4773  138.2454  153.7012 N   0  0  0  0  0  0  0  0  0  0  0  0
  147.1406  138.2191  153.8338 C   0  0  0  0  0  0  0  0  0  0  0  0
  146.4753  139.0003  154.5133 O   0  0  0  0  0  0  0  0  0  0  0  0
  146.6024  137.2198  153.1191 N   0  0  0  0  0  0  0  0  0  0  0  0
  145.1740  136.9182  153.0268 C   0  0  2  0  0  0  0  0  0  0  0  0
  144.8263  135.5639  153.6770 C   0  0  0  0  0  0  0  0  0  0  0  0
  145.3617  134.3770  152.8576 C   0  0  0  0  0  0  0  0  0  0  0  0
  144.8664  134.4287  151.4563 N   0  3  2  0  0  0  0  0  0  0  0  0
  145.2333  133.2307  150.6588 C   0  0  0  0  0  0  0  0  0  0  0  0
  144.1110  132.8718  149.6792 C   0  0  0  0  0  0  0  0  0  0  0  0
  143.8027  133.8937  148.8552 N   0  5  0  0  0  0  0  0  0  0  0  0
  143.6055  131.7525  149.7175 O   0  0  0  0  0  0  0  0  0  0  0  0
  145.2484  135.6965  150.7847 C   0  0  0  0  0  0  0  0  0  0  0  0
  144.7185  136.9188  151.5572 C   0  0  0  0  0  0  0  0  0  0  0  0
  150.7054  138.9479  154.1778 N   0  0  0  0  0  0  0  0  0  0  0  0
  151.2987  139.9979  154.8881 O   0  0  0  0  0  0  0  0  0  0  0  0
  149.8979  142.4806  156.6384 H   0  0  0  0  0  0  0  0  0  0  0  0
  151.3122  142.6568  155.5980 H   0  0  0  0  0  0  0  0  0  0  0  0
  151.3988  141.6448  157.0417 H   0  0  0  0  0  0  0  0  0  0  0  0
  148.1275  140.6903  155.3662 H   0  0  0  0  0  0  0  0  0  0  0  0
  148.8822  137.5519  153.0899 H   0  0  0  0  0  0  0  0  0  0  0  0
  147.2264  136.6323  152.5856 H   0  0  0  0  0  0  0  0  0  0  0  0
  144.6316  137.7085  153.5491 H   0  0  0  0  0  0  0  0  0  0  0  0
  145.2064  135.5152  154.6978 H   0  0  0  0  0  0  0  0  0  0  0  0
  143.7420  135.4761  153.7579 H   0  0  0  0  0  0  0  0  0  0  0  0
  146.4529  134.3759  152.8608 H   0  0  0  0  0  0  0  0  0  0  0  0
  145.0468  133.4484  153.3341 H   0  0  0  0  0  0  0  0  0  0  0  0
  146.1392  133.4194  150.0800 H   0  0  0  0  0  0  0  0  0  0  0  0
  145.4549  132.3882  151.3160 H   0  0  0  0  0  0  0  0  0  0  0  0
  142.8514  134.2801  148.8729 H   0  0  0  0  0  0  0  0  0  0  0  0
  146.3341  135.7460  150.6883 H   0  0  0  0  0  0  0  0  0  0  0  0
  144.8407  135.7122  149.7732 H   0  0  0  0  0  0  0  0  0  0  0  0
  143.6279  136.9126  151.5224 H   0  0  0  0  0  0  0  0  0  0  0  0
  145.0309  137.8398  151.0633 H   0  0  0  0  0  0  0  0  0  0  0  0
  143.8566  134.4213  151.5005 H   0  0  0  0  0  0  0  0  0  0  0  0
  1  2  1  0  0  0  0
  1 21  1  0  0  0  0
  1 22  1  0  0  0  0
  1 23  1  0  0  0  0
  2 20  1  0  0  0  0
  2  3  2  0  0  0  0
  3  4  1  0  0  0  0
  3 24  1  0  0  0  0
  4  5  1  0  0  0  0
  4 19  2  0  0  0  0
  5  6  1  0  0  0  0
  5 25  1  0  0  0  0
  6  7  2  0  0  0  0
  6  8  1  0  0  0  0
  8  9  1  0  0  0  0
  8 26  1  0  0  0  0
  9 18  1  0  0  0  0
  9 10  1  0  0  0  0
  9 27  1  0  0  0  0
 10 11  1  0  0  0  0
 10 28  1  0  0  0  0
 10 29  1  0  0  0  0
 11 12  1  0  0  0  0
 11 30  1  0  0  0  0
 11 31  1  0  0  0  0
 12 13  1  0  0  0  0
 12 17  1  0  0  0  0
 12 39  1  0  0  0  0
 13 14  1  0  0  0  0
 13 32  1  0  0  0  0
 13 33  1  0  0  0  0
 14 15  1  0  0  0  0
 14 16  2  0  0  0  0
 15 34  1  0  0  0  0
 17 18  1  0  0  0  0
 17 35  1  0  0  0  0
 17 36  1  0  0  0  0
 18 37  1  0  0  0  0
 18 38  1  0  0  0  0
 19 20  1  0  0  0  0
M  CHG  1  12   1
M  CHG  1  15  -1
M  END
> <s_m_source_file>
AV-unprocessed.smi

> <i_m_source_file_index>
1417

> <i_lp_mmshare_version>
43012

> <i_f3d_flags>
0

> <s_epik_input>
W0NIM11jMVtjSF1jKG5vMSlbTkhdQyg9TylbTkhdW0NIXTJbQ0gyXVtDSDJdTihbQ0gyXVtDSDJdMilbQ0gyXUMoPU8pW05IMl0=

> <s_epik_cmdline>
J2VwaWtfcHl0aG9uJywgJy1waCcsICc3LjAnLCAnLXRuJywgJzgnLCAnLW1hJywgJzIwMCcsICctbWV0YWxfYmluZGluZycsICctaW1hZScsICc8aW5maWxlLm1hZT4nLCAnLW9tYWUnLCAnPG91dGZpbGUubWFlPic=

> <r_epik_Ionization_Penalty>
5.73218

> <r_epik_Ionization_Penalty_Charging>
5.73215

> <r_epik_Ionization_Penalty_Neutral>
3.37968e-05

> <r_epik_State_Penalty>
6.58009

> <r_epik_Charging_Adjusted_Penalty>
12.3122

> <i_epik_Tot_Q>
0

> <i_epik_Tot_abs_Q>
2

> <r_epik_Metal_State_Penalty>
2.55295

> <b_epik_Metal_Only>
1

> <s_lp_Force_Field>
OPLS_2005

> <r_lp_Energy>
7.04924

> <b_lp_Chiralities_Consistent>
1

> <s_lp_Variant>
AV-unprocessed.smi:1417-8

> <Gold.Version>
5.8.1

> <Gold.Id.Protein>
6NUR|6NUR_protein|mol2

> <Gold.PLP.Fitness>
41.7442

> <Gold.PLP.PLP>
-28.6466

> <Gold.PLP.part.hbond>
-6.5901

> <Gold.PLP.part.metal>
0.0000

> <Gold.PLP.part.buried>
-2.9146

> <Gold.PLP.part.nonpolar>
-20.7172

> <Gold.PLP.part.repulsive>
0.6450

> <Gold.PLP.ligand.clash>
0.0000

> <Gold.PLP.ligand.torsion>
0.4541

> <Gold.PLP.Chemscore.Hbond>
4.6600

> <Gold.PLP.Chemscore.CHOScore>
0.0000

> <Gold.PLP.Chemscore.Metal>
0.0000

> <Gold.Chemscore.Hbonds>
donor molecule, donor type, donor heavy atom, donor atom, acceptor molecule, acceptor atom, score
      L1  H     5    25       P1  7948  1.00
      L1  H     8    26       P1  7948  1.00
      L1  H    15    34       P1 10186  1.00
      P1  H  7989  7998       L1    20  0.65
      P1  H 10785 10796       L1    16  0.94

> <Gold.PLP.Chemscore.Internal.Correction>
0.0258

> <Gold.Rescore>
     Score         DG    S(hbond)    S(metal)    S(lipo)     H(rot)  DE(clash)    DE(int)     intcor
     15.81     -18.96       3.84        0.00      49.89       2.02       1.44       1.71       ----

> <Gold.Chemscore.Fitness>
15.8124

> <Gold.Chemscore.DG>
-18.9617

> <Gold.Chemscore.ZeroCoef>
-5.4800

> <Gold.Chemscore.Hbond>
3.8353

> <Gold.Chemscore.Metal>
0.0000

> <Gold.Chemscore.Lipo>
49.8871

> <Gold.Chemscore.Internal_Hbond>
0.0000

> <Gold.Chemscore.DEClash>
1.4366

> <Gold.Chemscore.DEInternal>
1.7128

> <Gold.Chemscore.Rot>
2.0176

> <Gold.Chemscore.Internal.Correction>
   9.000000E+99

> <Gold.Chemscore.Hbonds>
donor molecule, donor type, donor heavy atom, donor atom, acceptor molecule, acceptor atom, score
      L1  H     5    25       P1  7948  1.00
      L1  H     8    26       P1  7948  0.96
      L1  H    15    34       P1 10186  0.97
      P1  H  7989  7998       L1    20  0.01
      P1  H 10785 10796       L1    16  0.92

> <Gold.Chemscore.Hbond.Weighted>
-12.8100

> <Gold.Chemscore.Metal.Weighted>
-0.0000

> <Gold.Chemscore.Lipo.Weighted>
-5.8368

> <Gold.Chemscore.Internal_Hbond.Weighted>
0.0000

> <Gold.Chemscore.DEClash.Weighted>
1.4366

> <Gold.Chemscore.DEInternal.Weighted>
1.7128

> <Gold.Chemscore.Rot.Weighted>
5.1651

> <Gold.Chemscore.Internal.Correction.Weighted>
   9.000000E+99

> <Gold.Protein.RotatedTorsions>
[ 6907 6896 6895 6894 ] final  -55.19 input  -60.11 | X-H torsion
[ 7974 7965 7964 7962 ] final -152.77 input  175.53 | X-H torsion
[ 8008 7997 7996 7995 ] final   53.36 input   59.86 | X-H torsion
[ 10167 10162 10161 10158 ] final   60.42 input  -65.29 | X-H torsion
[ 10718 10713 10712 10709 ] final  134.21 input   66.30 | X-H torsion
[ 10763 10752 10751 10750 ] final  -96.49 input  -60.55 | X-H torsion
[ 11005 11000 10999 10996 ] final   85.48 input  -57.11 | X-H torsion

> <Gold.Protein.ActiveResidues>
 VAL166  LYS551  ARG553  GLY616  TRP617  ASP618  TYR619  PRO620  LYS621  CYS622 
 ASP623  PHE694  ASN695  SER759  ASP760  ASP761  ALA762  ILE779  LEU786  VAL792 
 PHE793  MET794  SER795  GLU796  ALA797  LYS798  CYS799  TRP800  GLU811  SER814 

> <Gold.Protein.RotatedAtoms>
  150.8272  134.7509  159.6822 H   0  0  0  0  0  0  0  0  0  0  0  0  # atno 6907 bound_to 6896
  152.4382  134.5641  159.9912 H   0  0  0  0  0  0  0  0  0  0  0  0  # atno 6908 bound_to 6896
  151.5811  133.3340  159.3044 H   0  0  0  0  0  0  0  0  0  0  0  0  # atno 6909 bound_to 6896
  144.7776  140.4617  143.5862 H   0  0  0  0  0  0  0  0  0  0  0  0  # atno 7974 bound_to 7965
  155.4670  140.3464  155.4320 H   0  0  0  0  0  0  0  0  0  0  0  0  # atno 8008 bound_to 7997
  156.1125  140.1464  156.9348 H   0  0  0  0  0  0  0  0  0  0  0  0  # atno 8009 bound_to 7997
  154.4766  140.0883  156.7255 H   0  0  0  0  0  0  0  0  0  0  0  0  # atno 8010 bound_to 7997
  140.1658  144.4325  150.6686 H   0  0  0  0  0  0  0  0  0  0  0  0  # atno 10167 bound_to 10162
  157.4696  131.1079  150.9819 H   0  0  0  0  0  0  0  0  0  0  0  0  # atno 10718 bound_to 10713
  154.7244  135.5081  153.8863 H   0  0  0  0  0  0  0  0  0  0  0  0  # atno 10763 bound_to 10752
  153.0892  135.6654  153.9897 H   0  0  0  0  0  0  0  0  0  0  0  0  # atno 10764 bound_to 10752
  153.9713  135.3038  155.3406 H   0  0  0  0  0  0  0  0  0  0  0  0  # atno 10765 bound_to 10752
  139.8970  134.8289  156.2587 H   0  0  0  0  0  0  0  0  0  0  0  0  # atno 11005 bound_to 11000
  145.6140  139.1516  143.3060 LP  0  0  0  0  0  0  0  0  0  0  0  0  # atno 17320 bound_to 7965
  146.1966  140.6255  142.9121 LP  0  0  0  0  0  0  0  0  0  0  0  0  # atno 17321 bound_to 7965
  140.6614  143.2253  151.5847 LP  0  0  0  0  0  0  0  0  0  0  0  0  # atno 17342 bound_to 10162
  139.5360  144.2779  152.1252 LP  0  0  0  0  0  0  0  0  0  0  0  0  # atno 17343 bound_to 10162
  157.0589  130.5817  149.5382 LP  0  0  0  0  0  0  0  0  0  0  0  0  # atno 17370 bound_to 10713
  156.0067  130.5154  150.7852 LP  0  0  0  0  0  0  0  0  0  0  0  0  # atno 17371 bound_to 10713
  141.0176  133.7059  156.1215 LP  0  0  0  0  0  0  0  0  0  0  0  0  # atno 17394 bound_to 11000
  140.7279  134.4287  157.5569 LP  0  0  0  0  0  0  0  0  0  0  0  0  # atno 17395 bound_to 11000

$$$$
