AV-unprocessed.smi:1579|AV-procd|sdf|6355|dock9
  -GOLD-   22720 6573D 1   1.00000     0.00000
 Structure written by MMmdl.
 47 48  0  0  0  0  0  0  0  0  2 V2000
  150.9389  141.5001  157.7085 C   0  0  0  0  0  0  0  0  0  0  0  0
  151.2082  140.2764  156.8750 C   0  0  0  0  0  0  0  0  0  0  0  0
  150.4400  140.0896  155.8521 N   0  0  0  0  0  0  0  0  0  0  0  0
  150.6031  139.0001  155.0201 N   0  0  0  0  0  0  0  0  0  0  0  0
  149.6438  138.9475  153.9102 C   0  0  0  0  0  0  0  0  0  0  0  0
  148.2164  139.3325  154.3576 C   0  0  1  0  0  0  0  0  0  0  0  0
  148.2423  140.6716  154.8121 O   0  0  0  0  0  0  0  0  0  0  0  0
  147.2158  139.2613  153.1861 C   0  0  0  0  0  0  0  0  0  0  0  0
  146.9648  137.8676  152.7368 N   0  3  2  0  0  0  0  0  0  0  0  0
  146.0564  137.7813  151.5624 C   0  0  0  0  0  0  0  0  0  0  0  0
  145.9471  136.3343  151.0535 C   0  0  0  0  0  0  0  0  0  0  0  0
  145.4748  135.3839  152.1666 C   0  0  1  0  0  0  0  0  0  0  0  0
  145.3967  133.9310  151.6774 C   0  0  0  0  0  0  0  0  0  0  0  0
  146.4057  135.5253  153.3827 C   0  0  0  0  0  0  0  0  0  0  0  0
  146.5064  136.9893  153.8432 C   0  0  0  0  0  0  0  0  0  0  0  0
  151.5532  138.0347  155.1809 C   0  0  0  0  0  0  0  0  0  0  0  0
  151.6528  137.0721  154.4182 O   0  0  0  0  0  0  0  0  0  0  0  0
  152.4205  138.2523  156.3406 C   0  0  0  0  0  0  0  0  0  0  0  0
  153.4331  137.2668  156.5436 C   0  0  0  0  0  0  0  0  0  0  0  0
  154.2479  136.4582  156.6925 N   0  0  0  0  0  0  0  0  0  0  0  0
  152.2697  139.3180  157.1663 C   0  0  0  0  0  0  0  0  0  0  0  0
  153.1434  139.5877  158.3838 C   0  0  0  0  0  0  0  0  0  0  0  0
  151.8416  142.1011  157.8194 H   0  0  0  0  0  0  0  0  0  0  0  0
  150.5941  141.2201  158.7042 H   0  0  0  0  0  0  0  0  0  0  0  0
  150.1744  142.1372  157.2612 H   0  0  0  0  0  0  0  0  0  0  0  0
  149.9687  139.5760  153.0782 H   0  0  0  0  0  0  0  0  0  0  0  0
  149.6447  137.9334  153.5064 H   0  0  0  0  0  0  0  0  0  0  0  0
  147.8905  138.6867  155.1721 H   0  0  0  0  0  0  0  0  0  0  0  0
  147.5115  140.8046  155.3973 H   0  0  0  0  0  0  0  0  0  0  0  0
  146.2801  139.7258  153.5022 H   0  0  0  0  0  0  0  0  0  0  0  0
  147.5727  139.8482  152.3383 H   0  0  0  0  0  0  0  0  0  0  0  0
  145.0692  138.1573  151.8357 H   0  0  0  0  0  0  0  0  0  0  0  0
  146.4184  138.4125  150.7517 H   0  0  0  0  0  0  0  0  0  0  0  0
  145.2566  136.2943  150.2101 H   0  0  0  0  0  0  0  0  0  0  0  0
  146.9170  136.0088  150.6742 H   0  0  0  0  0  0  0  0  0  0  0  0
  144.4712  135.6866  152.4696 H   0  0  0  0  0  0  0  0  0  0  0  0
  146.3729  133.5674  151.3544 H   0  0  0  0  0  0  0  0  0  0  0  0
  144.7111  133.8367  150.8350 H   0  0  0  0  0  0  0  0  0  0  0  0
  145.0401  133.2695  152.4675 H   0  0  0  0  0  0  0  0  0  0  0  0
  146.0439  134.9066  154.2047 H   0  0  0  0  0  0  0  0  0  0  0  0
  147.4008  135.1540  153.1327 H   0  0  0  0  0  0  0  0  0  0  0  0
  147.2062  137.0515  154.6776 H   0  0  0  0  0  0  0  0  0  0  0  0
  145.5403  137.3377  154.2118 H   0  0  0  0  0  0  0  0  0  0  0  0
  153.8235  138.7627  158.5937 H   0  0  0  0  0  0  0  0  0  0  0  0
  152.5322  139.7369  159.2745 H   0  0  0  0  0  0  0  0  0  0  0  0
  153.7470  140.4822  158.2266 H   0  0  0  0  0  0  0  0  0  0  0  0
  147.8615  137.5041  152.4459 H   0  0  0  0  0  0  0  0  0  0  0  0
  1  2  1  0  0  0  0
  1 23  1  0  0  0  0
  1 24  1  0  0  0  0
  1 25  1  0  0  0  0
  2 21  1  0  0  0  0
  2  3  2  0  0  0  0
  3  4  1  0  0  0  0
  4  5  1  0  0  0  0
  4 16  1  0  0  0  0
  5  6  1  0  0  0  0
  5 26  1  0  0  0  0
  5 27  1  0  0  0  0
  6  7  1  0  0  0  0
  6  8  1  0  0  0  0
  6 28  1  0  0  0  0
  7 29  1  0  0  0  0
  8  9  1  0  0  0  0
  8 30  1  0  0  0  0
  8 31  1  0  0  0  0
  9 15  1  0  0  0  0
  9 10  1  0  0  0  0
  9 47  1  0  0  0  0
 10 11  1  0  0  0  0
 10 32  1  0  0  0  0
 10 33  1  0  0  0  0
 11 12  1  0  0  0  0
 11 34  1  0  0  0  0
 11 35  1  0  0  0  0
 12 13  1  0  0  0  0
 12 14  1  0  0  0  0
 12 36  1  0  0  0  0
 13 37  1  0  0  0  0
 13 38  1  0  0  0  0
 13 39  1  0  0  0  0
 14 15  1  0  0  0  0
 14 40  1  0  0  0  0
 14 41  1  0  0  0  0
 15 42  1  0  0  0  0
 15 43  1  0  0  0  0
 16 17  2  0  0  0  0
 16 18  1  0  0  0  0
 18 19  1  0  0  0  0
 18 21  2  0  0  0  0
 19 20  3  0  0  0  0
 21 22  1  0  0  0  0
 22 44  1  0  0  0  0
 22 45  1  0  0  0  0
 22 46  1  0  0  0  0
M  CHG  1   9   1
M  END
> <s_m_source_file>
AV-unprocessed.smi

> <i_m_source_file_index>
1579

> <i_lp_mmshare_version>
43012

> <i_f3d_flags>
0

> <s_epik_input>
TiNDYyhjMVtDSDNdKWMoPU8pbihuYzFbQ0gzXSlbQ0gyXVtDQEhdKFtPSF0pW0NIMl1OMltDSDJdW0NIMl1bQ0hdKFtDSDNdKVtDSDJdW0NIMl0y

> <s_epik_cmdline>
J2VwaWtfcHl0aG9uJywgJy1waCcsICc3LjAnLCAnLXRuJywgJzgnLCAnLW1hJywgJzIwMCcsICctbWV0YWxfYmluZGluZycsICctaW1hZScsICc8aW5maWxlLm1hZT4nLCAnLW9tYWUnLCAnPG91dGZpbGUubWFlPic=

> <r_epik_Ionization_Penalty>
0.00136816

> <r_epik_Ionization_Penalty_Charging>
0.00136813

> <r_epik_Ionization_Penalty_Neutral>
3.19884e-08

> <r_epik_State_Penalty>
0.000910892

> <r_epik_Charging_Adjusted_Penalty>
0.00227902

> <i_epik_Tot_Q>
1

> <i_epik_Tot_abs_Q>
1

> <r_epik_Metal_State_Penalty>
-0

> <b_epik_Metal_Only>
0

> <s_lp_Force_Field>
OPLS_2005

> <r_lp_Energy>
37.5904

> <b_lp_Chiralities_Consistent>
1

> <s_lp_Variant>
AV-unprocessed.smi:1579-2

> <Gold.Version>
5.8.1

> <Gold.Id.Protein>
6NUR|6NUR_protein|mol2

> <Gold.PLP.Fitness>
38.6300

> <Gold.PLP.PLP>
-27.2268

> <Gold.PLP.part.hbond>
-3.0000

> <Gold.PLP.part.metal>
0.0000

> <Gold.PLP.part.buried>
0.6209

> <Gold.PLP.part.nonpolar>
-25.8510

> <Gold.PLP.part.repulsive>
0.2068

> <Gold.PLP.ligand.clash>
0.0000

> <Gold.PLP.ligand.torsion>
0.2973

> <Gold.PLP.Chemscore.Hbond>
3.9913

> <Gold.PLP.Chemscore.CHOScore>
0.0000

> <Gold.PLP.Chemscore.Metal>
0.0000

> <Gold.Chemscore.Hbonds>
donor molecule, donor type, donor heavy atom, donor atom, acceptor molecule, acceptor atom, score
      L1  H     9    47       P1  7948  2.00
      P1  H 10752 10764       L1    17  1.00
      P1  H 10752 10765       L1    20  0.93

> <Gold.PLP.Chemscore.Internal.Correction>
0.0242

> <Gold.Rescore>
     Score         DG    S(hbond)    S(metal)    S(lipo)     H(rot)  DE(clash)    DE(int)     intcor
     15.90     -16.74       2.52        0.00      71.85       2.17       0.54       0.30       ----

> <Gold.Chemscore.Fitness>
15.8971

> <Gold.Chemscore.DG>
-16.7391

> <Gold.Chemscore.ZeroCoef>
-5.4800

> <Gold.Chemscore.Hbond>
2.5183

> <Gold.Chemscore.Metal>
0.0000

> <Gold.Chemscore.Lipo>
71.8546

> <Gold.Chemscore.Internal_Hbond>
0.0000

> <Gold.Chemscore.DEClash>
0.5382

> <Gold.Chemscore.DEInternal>
0.3038

> <Gold.Chemscore.Rot>
2.1715

> <Gold.Chemscore.Internal.Correction>
   9.000000E+99

> <Gold.Chemscore.Hbonds>
donor molecule, donor type, donor heavy atom, donor atom, acceptor molecule, acceptor atom, score
      L1  H     9    47       P1  7948  0.98
      P1  H 10752 10764       L1    17  0.96
      P1  H 10752 10765       L1    20  0.58

> <Gold.Chemscore.Hbond.Weighted>
-8.4112

> <Gold.Chemscore.Metal.Weighted>
-0.0000

> <Gold.Chemscore.Lipo.Weighted>
-8.4070

> <Gold.Chemscore.Internal_Hbond.Weighted>
0.0000

> <Gold.Chemscore.DEClash.Weighted>
0.5382

> <Gold.Chemscore.DEInternal.Weighted>
0.3038

> <Gold.Chemscore.Rot.Weighted>
5.5591

> <Gold.Chemscore.Internal.Correction.Weighted>
   9.000000E+99

> <Gold.Protein.RotatedTorsions>
[ 6907 6896 6895 6894 ] final  116.69 input  -60.11 | X-H torsion
[ 7974 7965 7964 7962 ] final   43.26 input  175.53 | X-H torsion
[ 8008 7997 7996 7995 ] final  -44.36 input   59.86 | X-H torsion
[ 10167 10162 10161 10158 ] final   39.02 input  -65.29 | X-H torsion
[ 10718 10713 10712 10709 ] final -121.52 input   66.30 | X-H torsion
[ 10763 10752 10751 10750 ] final  -87.26 input  -60.55 | X-H torsion
[ 11005 11000 10999 10996 ] final  134.59 input  -57.11 | X-H torsion

> <Gold.Protein.ActiveResidues>
 VAL166  LYS551  ARG553  GLY616  TRP617  ASP618  TYR619  PRO620  LYS621  CYS622 
 ASP623  PHE694  ASN695  SER759  ASP760  ASP761  ALA762  ILE779  LEU786  VAL792 
 PHE793  MET794  SER795  GLU796  ALA797  LYS798  CYS799  TRP800  GLU811  SER814 

> <Gold.Protein.RotatedAtoms>
  152.4661  133.7926  159.6910 H   0  0  0  0  0  0  0  0  0  0  0  0  # atno 6907 bound_to 6896
  150.8627  133.7611  159.2993 H   0  0  0  0  0  0  0  0  0  0  0  0  # atno 6908 bound_to 6896
  151.5171  135.1069  159.9921 H   0  0  0  0  0  0  0  0  0  0  0  0  # atno 6909 bound_to 6896
  146.0670  139.5206  142.9622 H   0  0  0  0  0  0  0  0  0  0  0  0  # atno 7974 bound_to 7965
  154.3997  140.1424  156.3670 H   0  0  0  0  0  0  0  0  0  0  0  0  # atno 8008 bound_to 7997
  155.8128  140.3472  155.5447 H   0  0  0  0  0  0  0  0  0  0  0  0  # atno 8009 bound_to 7997
  155.8369  140.0921  157.1749 H   0  0  0  0  0  0  0  0  0  0  0  0  # atno 8010 bound_to 7997
  140.3880  144.1891  150.6130 H   0  0  0  0  0  0  0  0  0  0  0  0  # atno 10167 bound_to 10162
  156.1344  130.6419  150.9673 H   0  0  0  0  0  0  0  0  0  0  0  0  # atno 10718 bound_to 10713
  154.6317  135.5419  153.7688 H   0  0  0  0  0  0  0  0  0  0  0  0  # atno 10763 bound_to 10752
  153.0288  135.6437  154.1291 H   0  0  0  0  0  0  0  0  0  0  0  0  # atno 10764 bound_to 10752
  154.1221  135.2919  155.3186 H   0  0  0  0  0  0  0  0  0  0  0  0  # atno 10765 bound_to 10752
  139.9925  134.9510  156.9888 H   0  0  0  0  0  0  0  0  0  0  0  0  # atno 11005 bound_to 11000
  145.6459  141.0274  143.1786 LP  0  0  0  0  0  0  0  0  0  0  0  0  # atno 17320 bound_to 7965
  144.7208  139.8036  143.7382 LP  0  0  0  0  0  0  0  0  0  0  0  0  # atno 17321 bound_to 7965
  140.4869  143.2360  151.8874 LP  0  0  0  0  0  0  0  0  0  0  0  0  # atno 17342 bound_to 10162
  139.4791  144.5208  151.8803 LP  0  0  0  0  0  0  0  0  0  0  0  0  # atno 17343 bound_to 10162
  157.6518  131.0895  150.8033 LP  0  0  0  0  0  0  0  0  0  0  0  0  # atno 17370 bound_to 10713
  156.8115  130.4954  149.5355 LP  0  0  0  0  0  0  0  0  0  0  0  0  # atno 17371 bound_to 10713
  140.4881  134.1221  155.7228 LP  0  0  0  0  0  0  0  0  0  0  0  0  # atno 17394 bound_to 11000
  141.1577  133.8851  157.1932 LP  0  0  0  0  0  0  0  0  0  0  0  0  # atno 17395 bound_to 11000

$$$$
