AV-unprocessed.smi:1555|AV-procd|sdf|6266|dock4
  -GOLD-   22720 6453D 1   1.00000     0.00000
 Structure written by MMmdl.
 41 42  0  0  0  0  0  0  0  0  1 V2000
  152.1244  140.0059  156.3750 C   0  0  0  0  0  0  0  0  0  0  0  0
  151.2498  141.1679  156.8736 C   0  0  2  0  0  0  0  0  0  0  0  0
  151.2403  141.3002  158.4124 C   0  0  0  0  0  0  0  0  0  0  0  0
  151.4673  142.6619  158.8576 N   0  0  0  0  0  0  0  0  0  0  0  0
  151.0335  143.8259  158.2375 C   0  0  0  0  0  0  0  0  0  0  0  0
  151.4777  144.8734  159.0125 C   0  0  0  0  0  0  0  0  0  0  0  0
  152.1801  144.3798  160.1095 N   0  0  0  0  0  0  0  0  0  0  0  0
  152.1287  143.0633  159.9519 C   0  0  0  0  0  0  0  0  0  0  0  0
  149.8907  140.9891  156.3711 N   0  0  0  0  0  0  0  0  0  0  0  0
  149.5473  140.8028  155.0847 C   0  0  0  0  0  0  0  0  0  0  0  0
  150.3853  140.7725  154.1822 O   0  0  0  0  0  0  0  0  0  0  0  0
  148.2154  140.6548  154.8679 N   0  0  0  0  0  0  0  0  0  0  0  0
  147.1503  140.7221  155.8828 C   0  0  0  0  0  0  0  0  0  0  0  0
  146.3766  142.0402  155.7020 C   0  0  0  0  0  0  0  0  0  0  0  0
  145.8008  142.1629  154.2714 C   0  0  0  0  0  0  0  0  0  0  0  0
  145.1248  143.5246  154.0288 C   0  0  0  0  0  0  0  0  0  0  0  0
  143.8231  143.5429  154.5765 O   0  0  0  0  0  0  0  0  0  0  0  0
  146.8987  141.8901  153.2190 C   0  0  0  0  0  0  0  0  0  0  0  0
  147.6502  140.5790  153.5153 C   0  0  0  0  0  0  0  0  0  0  0  0
  153.1706  140.1458  156.6478 H   0  0  0  0  0  0  0  0  0  0  0  0
  152.0832  139.9224  155.2885 H   0  0  0  0  0  0  0  0  0  0  0  0
  151.7948  139.0549  156.7949 H   0  0  0  0  0  0  0  0  0  0  0  0
  151.6547  142.0874  156.4464 H   0  0  0  0  0  0  0  0  0  0  0  0
  150.2838  140.9712  158.8205 H   0  0  0  0  0  0  0  0  0  0  0  0
  152.0040  140.6577  158.8536 H   0  0  0  0  0  0  0  0  0  0  0  0
  150.4617  143.8125  157.3211 H   0  0  0  0  0  0  0  0  0  0  0  0
  151.3450  145.9352  158.8669 H   0  0  0  0  0  0  0  0  0  0  0  0
  152.5878  142.3751  160.6465 H   0  0  0  0  0  0  0  0  0  0  0  0
  149.1489  141.0041  157.0557 H   0  0  0  0  0  0  0  0  0  0  0  0
  146.4753  139.8755  155.7489 H   0  0  0  0  0  0  0  0  0  0  0  0
  147.5086  140.6409  156.9088 H   0  0  0  0  0  0  0  0  0  0  0  0
  145.5728  142.0939  156.4368 H   0  0  0  0  0  0  0  0  0  0  0  0
  147.0410  142.8805  155.9085 H   0  0  0  0  0  0  0  0  0  0  0  0
  145.0434  141.3866  154.1505 H   0  0  0  0  0  0  0  0  0  0  0  0
  145.7117  144.3340  154.4642 H   0  0  0  0  0  0  0  0  0  0  0  0
  145.0451  143.7239  152.9598 H   0  0  0  0  0  0  0  0  0  0  0  0
  143.2376  143.1093  153.9744 H   0  0  0  0  0  0  0  0  0  0  0  0
  146.4575  141.8443  152.2228 H   0  0  0  0  0  0  0  0  0  0  0  0
  147.6096  142.7175  153.2040 H   0  0  0  0  0  0  0  0  0  0  0  0
  148.4068  140.4038  152.7492 H   0  0  0  0  0  0  0  0  0  0  0  0
  146.9665  139.7311  153.4538 H   0  0  0  0  0  0  0  0  0  0  0  0
  1  2  1  0  0  0  0
  1 20  1  0  0  0  0
  1 21  1  0  0  0  0
  1 22  1  0  0  0  0
  2  3  1  0  0  0  0
  2  9  1  0  0  0  0
  2 23  1  0  0  0  0
  3  4  1  0  0  0  0
  3 24  1  0  0  0  0
  3 25  1  0  0  0  0
  4  8  1  0  0  0  0
  4  5  1  0  0  0  0
  5  6  2  0  0  0  0
  5 26  1  0  0  0  0
  6  7  1  0  0  0  0
  6 27  1  0  0  0  0
  7  8  2  0  0  0  0
  8 28  1  0  0  0  0
  9 10  1  0  0  0  0
  9 29  1  0  0  0  0
 10 11  2  0  0  0  0
 10 12  1  0  0  0  0
 12 19  1  0  0  0  0
 12 13  1  0  0  0  0
 13 14  1  0  0  0  0
 13 30  1  0  0  0  0
 13 31  1  0  0  0  0
 14 15  1  0  0  0  0
 14 32  1  0  0  0  0
 14 33  1  0  0  0  0
 15 16  1  0  0  0  0
 15 18  1  0  0  0  0
 15 34  1  0  0  0  0
 16 17  1  0  0  0  0
 16 35  1  0  0  0  0
 16 36  1  0  0  0  0
 17 37  1  0  0  0  0
 18 19  1  0  0  0  0
 18 38  1  0  0  0  0
 18 39  1  0  0  0  0
 19 40  1  0  0  0  0
 19 41  1  0  0  0  0
M  END
> <s_m_source_file>
AV-unprocessed.smi

> <i_m_source_file_index>
1555

> <i_lp_mmshare_version>
43012

> <i_f3d_flags>
0

> <s_epik_input>
W2NIXTFuW2NIXVtjSF1uMVtDSDJdW0NAQEhdKFtDSDNdKVtOSF1DKD1PKU4yW0NIMl1bQ0gyXVtDSF0oW0NIMl1bT0hdKVtDSDJdW0NIMl0y

> <s_epik_cmdline>
J2VwaWtfcHl0aG9uJywgJy1waCcsICc3LjAnLCAnLXRuJywgJzgnLCAnLW1hJywgJzIwMCcsICctbWV0YWxfYmluZGluZycsICctaW1hZScsICc8aW5maWxlLm1hZT4nLCAnLW9tYWUnLCAnPG91dGZpbGUubWFlPic=

> <r_lp_tautomer_probability>
1

> <r_epik_Ionization_Penalty>
0.625883

> <r_epik_Ionization_Penalty_Charging>
0.625812

> <r_epik_Ionization_Penalty_Neutral>
7.07114e-05

> <r_epik_State_Penalty>
0.642234

> <r_epik_Charging_Adjusted_Penalty>
1.26805

> <i_epik_Tot_Q>
0

> <i_epik_Tot_abs_Q>
0

> <r_epik_Metal_State_Penalty>
0.307949

> <b_epik_Metal_Only>
0

> <s_lp_Force_Field>
OPLS_2005

> <r_lp_Energy>
32.8415

> <b_lp_Chiralities_Consistent>
1

> <s_lp_Variant>
AV-unprocessed.smi:1555-3

> <Gold.Version>
5.8.1

> <Gold.Id.Protein>
6NUR|6NUR_protein|mol2

> <Gold.PLP.Fitness>
43.9314

> <Gold.PLP.PLP>
-37.4444

> <Gold.PLP.part.hbond>
-1.7879

> <Gold.PLP.part.metal>
0.0000

> <Gold.PLP.part.buried>
-4.3998

> <Gold.PLP.part.nonpolar>
-31.3698

> <Gold.PLP.part.repulsive>
0.1963

> <Gold.PLP.ligand.clash>
0.0000

> <Gold.PLP.ligand.torsion>
1.2797

> <Gold.PLP.Chemscore.Hbond>
1.9920

> <Gold.PLP.Chemscore.CHOScore>
1.0000

> <Gold.PLP.Chemscore.Metal>
0.0000

> <Gold.Chemscore.Hbonds>
donor molecule, donor type, donor heavy atom, donor atom, acceptor molecule, acceptor atom, score
      L1  H    17    37       P1 10174  1.00
      P1  H  7989  7998       L1    11  0.51
      L1  C     5    26       P1  8028  1.00

> <Gold.PLP.Chemscore.Internal.Correction>
0.0704

> <Gold.Rescore>
     Score         DG    S(hbond)    S(metal)    S(lipo)     H(rot)  DE(clash)    DE(int)     intcor
     11.16     -14.18       1.85        0.00      76.04       2.49       0.61       2.41       ----

> <Gold.Chemscore.Fitness>
11.1647

> <Gold.Chemscore.DG>
-14.1827

> <Gold.Chemscore.ZeroCoef>
-5.4800

> <Gold.Chemscore.Hbond>
1.8479

> <Gold.Chemscore.Metal>
0.0000

> <Gold.Chemscore.Lipo>
76.0411

> <Gold.Chemscore.Internal_Hbond>
0.0000

> <Gold.Chemscore.DEClash>
0.6099

> <Gold.Chemscore.DEInternal>
2.4081

> <Gold.Chemscore.Rot>
2.4867

> <Gold.Chemscore.Internal.Correction>
   9.000000E+99

> <Gold.Chemscore.Hbonds>
donor molecule, donor type, donor heavy atom, donor atom, acceptor molecule, acceptor atom, score
      L1  H    17    37       P1 10174  0.68
      P1  H  7989  7998       L1    11  0.51

> <Gold.Chemscore.Hbond.Weighted>
-6.1719

> <Gold.Chemscore.Metal.Weighted>
-0.0000

> <Gold.Chemscore.Lipo.Weighted>
-8.8968

> <Gold.Chemscore.Internal_Hbond.Weighted>
0.0000

> <Gold.Chemscore.DEClash.Weighted>
0.6099

> <Gold.Chemscore.DEInternal.Weighted>
2.4081

> <Gold.Chemscore.Rot.Weighted>
6.3660

> <Gold.Chemscore.Internal.Correction.Weighted>
   9.000000E+99

> <Gold.Protein.RotatedTorsions>
[ 6907 6896 6895 6894 ] final  -17.84 input  -60.11 | X-H torsion
[ 7974 7965 7964 7962 ] final  106.46 input  175.53 | X-H torsion
[ 8008 7997 7996 7995 ] final -121.73 input   59.86 | X-H torsion
[ 10167 10162 10161 10158 ] final -109.74 input  -65.29 | X-H torsion
[ 10718 10713 10712 10709 ] final  141.46 input   66.30 | X-H torsion
[ 10763 10752 10751 10750 ] final -129.37 input  -60.55 | X-H torsion
[ 11005 11000 10999 10996 ] final  -70.05 input  -57.11 | X-H torsion

> <Gold.Protein.ActiveResidues>
 VAL166  LYS551  ARG553  GLY616  TRP617  ASP618  TYR619  PRO620  LYS621  CYS622 
 ASP623  PHE694  ASN695  SER759  ASP760  ASP761  ALA762  ILE779  LEU786  VAL792 
 PHE793  MET794  SER795  GLU796  ALA797  LYS798  CYS799  TRP800  GLU811  SER814 

> <Gold.Protein.RotatedAtoms>
  151.2872  135.0731  159.9190 H   0  0  0  0  0  0  0  0  0  0  0  0  # atno 6907 bound_to 6896
  152.5323  133.9969  159.7887 H   0  0  0  0  0  0  0  0  0  0  0  0  # atno 6908 bound_to 6896
  151.0233  133.5806  159.2699 H   0  0  0  0  0  0  0  0  0  0  0  0  # atno 6909 bound_to 6896
  145.3063  139.2554  143.3787 H   0  0  0  0  0  0  0  0  0  0  0  0  # atno 7974 bound_to 7965
  155.1527  140.0404  157.2825 H   0  0  0  0  0  0  0  0  0  0  0  0  # atno 8008 bound_to 7997
  154.6392  140.2543  155.7315 H   0  0  0  0  0  0  0  0  0  0  0  0  # atno 8009 bound_to 7997
  156.2524  140.2859  156.0778 H   0  0  0  0  0  0  0  0  0  0  0  0  # atno 8010 bound_to 7997
  140.1520  143.4191  152.1487 H   0  0  0  0  0  0  0  0  0  0  0  0  # atno 10167 bound_to 10162
  157.3917  131.1005  151.0640 H   0  0  0  0  0  0  0  0  0  0  0  0  # atno 10718 bound_to 10713
  154.8757  135.3897  154.3909 H   0  0  0  0  0  0  0  0  0  0  0  0  # atno 10763 bound_to 10752
  153.4645  135.7029  153.6035 H   0  0  0  0  0  0  0  0  0  0  0  0  # atno 10764 bound_to 10752
  153.4520  135.3832  155.2257 H   0  0  0  0  0  0  0  0  0  0  0  0  # atno 10765 bound_to 10752
  141.1566  133.6780  156.6692 H   0  0  0  0  0  0  0  0  0  0  0  0  # atno 11005 bound_to 11000
  146.3134  140.3589  142.8663 LP  0  0  0  0  0  0  0  0  0  0  0  0  # atno 17320 bound_to 7965
  144.9052  140.7691  143.5842 LP  0  0  0  0  0  0  0  0  0  0  0  0  # atno 17321 bound_to 7965
  139.5421  144.7266  151.4700 LP  0  0  0  0  0  0  0  0  0  0  0  0  # atno 17342 bound_to 10162
  140.6696  143.8322  150.6983 LP  0  0  0  0  0  0  0  0  0  0  0  0  # atno 17343 bound_to 10162
  157.1671  130.6251  149.5629 LP  0  0  0  0  0  0  0  0  0  0  0  0  # atno 17370 bound_to 10713
  155.9800  130.4797  150.6747 LP  0  0  0  0  0  0  0  0  0  0  0  0  # atno 17371 bound_to 10713
  140.3187  134.8025  157.4235 LP  0  0  0  0  0  0  0  0  0  0  0  0  # atno 17394 bound_to 11000
  140.1115  134.5339  155.8262 LP  0  0  0  0  0  0  0  0  0  0  0  0  # atno 17395 bound_to 11000

$$$$
