AV-unprocessed.smi:3033|AV-procd|sdf|11575|dock9
  -GOLD-   2272016543D 1   1.00000     0.00000
 Structure written by MMmdl.
 32 33  0  0  0  0  0  0  0  0  2 V2000
  143.2936  132.6850  148.1092 C   0  0  0  0  0  0  0  0  0  0  0  0
  144.0740  132.1069  149.1453 O   0  0  0  0  0  0  0  0  0  0  0  0
  144.6686  132.9523  150.0574 C   0  0  0  0  0  0  0  0  0  0  0  0
  144.3279  134.3191  150.2160 C   0  0  0  0  0  0  0  0  0  0  0  0
  144.9833  135.1084  151.1804 C   0  0  0  0  0  0  0  0  0  0  0  0
  145.9839  134.5466  151.9941 C   0  0  0  0  0  0  0  0  0  0  0  0
  146.3388  133.1905  151.8439 C   0  0  0  0  0  0  0  0  0  0  0  0
  147.4129  132.5852  152.7350 C   0  0  2  0  0  0  0  0  0  0  0  0
  147.1234  132.7928  154.1038 O   0  0  0  0  0  0  0  0  0  0  0  0
  148.7969  133.1942  152.4243 C   0  0  0  0  0  0  0  0  0  0  0  0
  149.6948  133.1462  153.5871 N   0  0  0  0  0  0  0  0  0  0  0  0
  150.0420  134.3674  154.1884 C   0  0  0  0  0  0  0  0  0  0  0  0
  150.8531  134.4305  155.2621 C   0  0  0  0  0  0  0  0  0  0  0  0
  151.2607  135.9470  155.9828 Cl  0  0  0  0  0  0  0  0  0  0  0  0
  151.3759  133.1764  155.8014 C   0  0  0  0  0  0  0  0  0  0  0  0
  152.1220  133.1978  156.7792 O   0  0  0  0  0  0  0  0  0  0  0  0
  151.0043  132.0167  155.1838 N   0  5  0  0  0  0  0  0  0  0  0  0
  150.1759  131.9727  154.0950 C   0  0  0  0  0  0  0  0  0  0  0  0
  149.8468  130.9131  153.5604 O   0  0  0  0  0  0  0  0  0  0  0  0
  145.6761  132.4033  150.8769 C   0  0  0  0  0  0  0  0  0  0  0  0
  142.8776  131.8922  147.4874 H   0  0  0  0  0  0  0  0  0  0  0  0
  143.8970  133.3267  147.4659 H   0  0  0  0  0  0  0  0  0  0  0  0
  142.4587  133.2600  148.5122 H   0  0  0  0  0  0  0  0  0  0  0  0
  143.5653  134.7862  149.6115 H   0  0  0  0  0  0  0  0  0  0  0  0
  144.7156  136.1481  151.2978 H   0  0  0  0  0  0  0  0  0  0  0  0
  146.4752  135.1596  152.7357 H   0  0  0  0  0  0  0  0  0  0  0  0
  147.4298  131.5080  152.5636 H   0  0  0  0  0  0  0  0  0  0  0  0
  146.8485  133.6897  154.2167 H   0  0  0  0  0  0  0  0  0  0  0  0
  149.2649  132.6385  151.6095 H   0  0  0  0  0  0  0  0  0  0  0  0
  148.6936  134.2103  152.0401 H   0  0  0  0  0  0  0  0  0  0  0  0
  149.6064  135.2427  153.7288 H   0  0  0  0  0  0  0  0  0  0  0  0
  145.9384  131.3613  150.7640 H   0  0  0  0  0  0  0  0  0  0  0  0
  1  2  1  0  0  0  0
  1 21  1  0  0  0  0
  1 22  1  0  0  0  0
  1 23  1  0  0  0  0
  2  3  1  0  0  0  0
  3 20  1  0  0  0  0
  3  4  2  0  0  0  0
  4  5  1  0  0  0  0
  4 24  1  0  0  0  0
  5  6  2  0  0  0  0
  5 25  1  0  0  0  0
  6  7  1  0  0  0  0
  6 26  1  0  0  0  0
  7  8  1  0  0  0  0
  7 20  2  0  0  0  0
  8  9  1  0  0  0  0
  8 10  1  0  0  0  0
  8 27  1  0  0  0  0
  9 28  1  0  0  0  0
 10 11  1  0  0  0  0
 10 29  1  0  0  0  0
 10 30  1  0  0  0  0
 11 18  1  0  0  0  0
 11 12  1  0  0  0  0
 12 13  2  0  0  0  0
 12 31  1  0  0  0  0
 13 14  1  0  0  0  0
 13 15  1  0  0  0  0
 15 16  2  0  0  0  0
 15 17  1  0  0  0  0
 17 18  1  0  0  0  0
 18 19  2  0  0  0  0
 20 32  1  0  0  0  0
M  CHG  1  17  -1
M  END
> <s_m_source_file>
AV-unprocessed.smi

> <i_m_source_file_index>
3033

> <i_lp_mmshare_version>
43012

> <i_f3d_flags>
0

> <s_epik_input>
W0NIM11PYzFbY0hdW2NIXVtjSF1jKFtjSF0xKVtDQEhdKFtPSF0pW0NIMl1uMltjSF1jKENsKWMoPU8pW25IXWMyPU8=

> <s_epik_cmdline>
J2VwaWtfcHl0aG9uJywgJy1waCcsICc3LjAnLCAnLXRuJywgJzgnLCAnLW1hJywgJzIwMCcsICctbWV0YWxfYmluZGluZycsICctaW1hZScsICc8aW5maWxlLm1hZT4nLCAnLW9tYWUnLCAnPG91dGZpbGUubWFlPic=

> <r_lp_tautomer_probability>
1

> <r_epik_Ionization_Penalty>
1.7979

> <r_epik_Ionization_Penalty_Charging>
3.23819e-08

> <r_epik_Ionization_Penalty_Neutral>
1.7979

> <r_epik_State_Penalty>
1.91135

> <r_epik_Charging_Adjusted_Penalty>
1.91135

> <i_epik_Tot_Q>
-1

> <i_epik_Tot_abs_Q>
1

> <r_epik_Metal_State_Penalty>
0.014155

> <b_epik_Metal_Only>
0

> <s_lp_Force_Field>
OPLS_2005

> <r_lp_Energy>
24.094

> <b_lp_Chiralities_Consistent>
1

> <s_lp_Variant>
AV-unprocessed.smi:3033-3

> <Gold.Version>
5.8.1

> <Gold.Id.Protein>
6NUR|6NUR_protein|mol2

> <Gold.PLP.Fitness>
43.4531

> <Gold.PLP.PLP>
-38.3733

> <Gold.PLP.part.hbond>
-2.0000

> <Gold.PLP.part.metal>
0.0000

> <Gold.PLP.part.buried>
-4.1238

> <Gold.PLP.part.nonpolar>
-32.8944

> <Gold.PLP.part.repulsive>
0.3040

> <Gold.PLP.ligand.clash>
0.0000

> <Gold.PLP.ligand.torsion>
0.6543

> <Gold.PLP.Chemscore.Hbond>
1.1524

> <Gold.PLP.Chemscore.CHOScore>
0.9735

> <Gold.PLP.Chemscore.Metal>
0.0000

> <Gold.Chemscore.Hbonds>
donor molecule, donor type, donor heavy atom, donor atom, acceptor molecule, acceptor atom, score
      P1  H 10785 10796       L1     2  0.23
      L1  C    12    31       P1  7948  0.72

> <Gold.PLP.Chemscore.Internal.Correction>
0.0108

> <Gold.Rescore>
     Score         DG    S(hbond)    S(metal)    S(lipo)     H(rot)  DE(clash)    DE(int)     intcor
     11.43     -11.98       0.96        0.00      81.76       2.45       0.06       0.50       ----

> <Gold.Chemscore.Fitness>
11.4291

> <Gold.Chemscore.DG>
-11.9850

> <Gold.Chemscore.ZeroCoef>
-5.4800

> <Gold.Chemscore.Hbond>
0.9607

> <Gold.Chemscore.Metal>
0.0000

> <Gold.Chemscore.Lipo>
81.7593

> <Gold.Chemscore.Internal_Hbond>
0.0000

> <Gold.Chemscore.DEClash>
0.0580

> <Gold.Chemscore.DEInternal>
0.4979

> <Gold.Chemscore.Rot>
2.4491

> <Gold.Chemscore.Internal.Correction>
   9.000000E+99

> <Gold.Chemscore.Hbonds>
donor molecule, donor type, donor heavy atom, donor atom, acceptor molecule, acceptor atom, score
      P1  H 10785 10796       L1     2  0.01

> <Gold.Chemscore.Hbond.Weighted>
-3.2088

> <Gold.Chemscore.Metal.Weighted>
-0.0000

> <Gold.Chemscore.Lipo.Weighted>
-9.5658

> <Gold.Chemscore.Internal_Hbond.Weighted>
0.0000

> <Gold.Chemscore.DEClash.Weighted>
0.0580

> <Gold.Chemscore.DEInternal.Weighted>
0.4979

> <Gold.Chemscore.Rot.Weighted>
6.2696

> <Gold.Chemscore.Internal.Correction.Weighted>
   9.000000E+99

> <Gold.Protein.RotatedTorsions>
[ 6907 6896 6895 6894 ] final   76.21 input  -60.11 | X-H torsion
[ 7974 7965 7964 7962 ] final  -19.37 input  175.53 | X-H torsion
[ 8008 7997 7996 7995 ] final   67.52 input   59.86 | X-H torsion
[ 10167 10162 10161 10158 ] final  125.43 input  -65.29 | X-H torsion
[ 10718 10713 10712 10709 ] final -170.25 input   66.30 | X-H torsion
[ 10763 10752 10751 10750 ] final  -11.89 input  -60.55 | X-H torsion
[ 11005 11000 10999 10996 ] final  -17.52 input  -57.11 | X-H torsion

> <Gold.Protein.ActiveResidues>
 VAL166  LYS551  ARG553  GLY616  TRP617  ASP618  TYR619  PRO620  LYS621  CYS622 
 ASP623  PHE694  ASN695  SER759  ASP760  ASP761  ALA762  ILE779  LEU786  VAL792 
 PHE793  MET794  SER795  GLU796  ALA797  LYS798  CYS799  TRP800  GLU811  SER814 

> <Gold.Protein.RotatedAtoms>
  152.5062  134.4003  159.9414 H   0  0  0  0  0  0  0  0  0  0  0  0  # atno 6907 bound_to 6896
  151.3967  133.3764  159.2735 H   0  0  0  0  0  0  0  0  0  0  0  0  # atno 6908 bound_to 6896
  150.9392  134.8823  159.7660 H   0  0  0  0  0  0  0  0  0  0  0  0  # atno 6909 bound_to 6896
  146.1845  140.4052  142.8482 H   0  0  0  0  0  0  0  0  0  0  0  0  # atno 7974 bound_to 7965
  155.6942  140.3496  155.4906 H   0  0  0  0  0  0  0  0  0  0  0  0  # atno 8008 bound_to 7997
  155.9497  140.1117  157.1009 H   0  0  0  0  0  0  0  0  0  0  0  0  # atno 8009 bound_to 7997
  154.4119  140.1196  156.5023 H   0  0  0  0  0  0  0  0  0  0  0  0  # atno 8010 bound_to 7997
  139.5686  144.6926  151.3841 H   0  0  0  0  0  0  0  0  0  0  0  0  # atno 10167 bound_to 10162
  156.7234  130.9279  151.3099 H   0  0  0  0  0  0  0  0  0  0  0  0  # atno 10718 bound_to 10713
  153.4904  135.7017  153.5887 H   0  0  0  0  0  0  0  0  0  0  0  0  # atno 10763 bound_to 10752
  153.4062  135.3860  155.2020 H   0  0  0  0  0  0  0  0  0  0  0  0  # atno 10764 bound_to 10752
  154.8717  135.3893  154.4364 H   0  0  0  0  0  0  0  0  0  0  0  0  # atno 10765 bound_to 10752
  140.8176  133.8092  155.9627 H   0  0  0  0  0  0  0  0  0  0  0  0  # atno 11005 bound_to 11000
  144.8372  140.6800  143.6253 LP  0  0  0  0  0  0  0  0  0  0  0  0  # atno 17320 bound_to 7965
  145.3980  139.1603  143.4193 LP  0  0  0  0  0  0  0  0  0  0  0  0  # atno 17321 bound_to 7965
  140.6970  143.7724  150.7343 LP  0  0  0  0  0  0  0  0  0  0  0  0  # atno 17342 bound_to 10162
  140.1223  143.4600  152.2305 LP  0  0  0  0  0  0  0  0  0  0  0  0  # atno 17343 bound_to 10162
  157.6888  130.9213  150.0459 LP  0  0  0  0  0  0  0  0  0  0  0  0  # atno 17370 bound_to 10713
  156.1578  130.3643  149.9343 LP  0  0  0  0  0  0  0  0  0  0  0  0  # atno 17371 bound_to 10713
  140.9132  134.2234  157.4973 LP  0  0  0  0  0  0  0  0  0  0  0  0  # atno 17394 bound_to 11000
  139.8710  134.9759  156.4902 LP  0  0  0  0  0  0  0  0  0  0  0  0  # atno 17395 bound_to 11000

$$$$
