AV-unprocessed.smi:2005|AV-procd|sdf|8127|dock2
  -GOLD-   2272010363D 1   1.00000     0.00000
 Structure written by MMmdl.
 38 39  0  0  0  0  0  0  0  0  2 V2000
  152.1355  129.5776  157.2558 C   0  0  0  0  0  0  0  0  0  0  0  0
  151.3567  129.3988  155.9444 C   0  0  0  0  0  0  0  0  0  0  0  0
  152.1468  128.6333  154.8728 C   0  0  0  0  0  0  0  0  0  0  0  0
  150.8164  130.6964  155.4300 C   0  0  0  0  0  0  0  0  0  0  0  0
  151.0565  131.8725  156.0181 N   0  0  0  0  0  0  0  0  0  0  0  0
  150.4399  132.9248  155.3577 N   0  0  0  0  0  0  0  0  0  0  0  0
  149.7338  132.5328  154.2880 C   0  0  0  0  0  0  0  0  0  0  0  0
  149.0578  133.3981  153.5143 N   0  5  0  0  0  0  0  0  0  0  0  0
  147.9564  132.9867  152.8452 C   0  0  0  0  0  0  0  0  0  0  0  0
  147.4506  131.8629  152.8930 O   0  0  0  0  0  0  0  0  0  0  0  0
  147.4068  133.9367  152.0743 N   0  0  0  0  0  0  0  0  0  0  0  0
  146.2147  133.7890  151.2434 C   0  0  2  0  0  0  0  0  0  0  0  0
  145.0070  133.4368  152.1329 C   0  0  0  0  0  0  0  0  0  0  0  0
  143.7382  133.2081  151.2955 C   0  0  0  0  0  0  0  0  0  0  0  0
  143.9674  132.1227  150.2299 C   0  0  1  0  0  0  0  0  0  0  0  0
  142.8063  131.9855  149.4379 O   0  0  0  0  0  0  0  0  0  0  0  0
  145.1638  132.4768  149.3306 C   0  0  0  0  0  0  0  0  0  0  0  0
  146.4343  132.7075  150.1644 C   0  0  0  0  0  0  0  0  0  0  0  0
  149.8046  130.7954  153.9977 S   0  0  0  0  0  0  0  0  0  0  0  0
  151.5135  130.0460  158.0195 H   0  0  0  0  0  0  0  0  0  0  0  0
  153.0159  130.2048  157.1122 H   0  0  0  0  0  0  0  0  0  0  0  0
  152.4719  128.6172  157.6470 H   0  0  0  0  0  0  0  0  0  0  0  0
  150.4912  128.7804  156.1851 H   0  0  0  0  0  0  0  0  0  0  0  0
  151.5344  128.4524  153.9889 H   0  0  0  0  0  0  0  0  0  0  0  0
  152.4800  127.6653  155.2474 H   0  0  0  0  0  0  0  0  0  0  0  0
  153.0305  129.1894  154.5582 H   0  0  0  0  0  0  0  0  0  0  0  0
  147.8564  134.8404  152.0674 H   0  0  0  0  0  0  0  0  0  0  0  0
  146.0041  134.7411  150.7523 H   0  0  0  0  0  0  0  0  0  0  0  0
  145.2237  132.5377  152.7115 H   0  0  0  0  0  0  0  0  0  0  0  0
  144.8306  134.2342  152.8558 H   0  0  0  0  0  0  0  0  0  0  0  0
  142.9115  132.9254  151.9480 H   0  0  0  0  0  0  0  0  0  0  0  0
  143.4488  134.1445  150.8158 H   0  0  0  0  0  0  0  0  0  0  0  0
  144.1540  131.1670  150.7213 H   0  0  0  0  0  0  0  0  0  0  0  0
  142.3242  132.7978  149.4706 H   0  0  0  0  0  0  0  0  0  0  0  0
  145.3387  131.6803  148.6064 H   0  0  0  0  0  0  0  0  0  0  0  0
  144.9424  133.3769  148.7550 H   0  0  0  0  0  0  0  0  0  0  0  0
  147.2546  132.9933  149.5051 H   0  0  0  0  0  0  0  0  0  0  0  0
  146.7318  131.7702  150.6369 H   0  0  0  0  0  0  0  0  0  0  0  0
  1  2  1  0  0  0  0
  1 20  1  0  0  0  0
  1 21  1  0  0  0  0
  1 22  1  0  0  0  0
  2  3  1  0  0  0  0
  2  4  1  0  0  0  0
  2 23  1  0  0  0  0
  3 24  1  0  0  0  0
  3 25  1  0  0  0  0
  3 26  1  0  0  0  0
  4 19  1  0  0  0  0
  4  5  2  0  0  0  0
  5  6  1  0  0  0  0
  6  7  2  0  0  0  0
  7  8  1  0  0  0  0
  7 19  1  0  0  0  0
  8  9  1  0  0  0  0
  9 10  2  0  0  0  0
  9 11  1  0  0  0  0
 11 12  1  0  0  0  0
 11 27  1  0  0  0  0
 12 18  1  0  0  0  0
 12 13  1  0  0  0  0
 12 28  1  0  0  0  0
 13 14  1  0  0  0  0
 13 29  1  0  0  0  0
 13 30  1  0  0  0  0
 14 15  1  0  0  0  0
 14 31  1  0  0  0  0
 14 32  1  0  0  0  0
 15 16  1  0  0  0  0
 15 17  1  0  0  0  0
 15 33  1  0  0  0  0
 16 34  1  0  0  0  0
 17 18  1  0  0  0  0
 17 35  1  0  0  0  0
 17 36  1  0  0  0  0
 18 37  1  0  0  0  0
 18 38  1  0  0  0  0
M  CHG  1   8  -1
M  END
> <s_m_source_file>
AV-unprocessed.smi

> <i_m_source_file_index>
2005

> <i_lp_mmshare_version>
43012

> <i_f3d_flags>
0

> <s_epik_input>
W0NIM11bQ0hdKFtDSDNdKWMxbm5jKHMxKVtOSF1DKD1PKVtOSF1bQ0BASF0yW0NIMl1bQ0gyXVtDQEBIXShbT0hdKVtDSDJdW0NIMl0y

> <s_epik_cmdline>
J2VwaWtfcHl0aG9uJywgJy1waCcsICc3LjAnLCAnLXRuJywgJzgnLCAnLW1hJywgJzIwMCcsICctbWV0YWxfYmluZGluZycsICctaW1hZScsICc8aW5maWxlLm1hZT4nLCAnLW9tYWUnLCAnPG91dGZpbGUubWFlPic=

> <r_lp_tautomer_probability>
1

> <r_epik_Ionization_Penalty>
4.58298

> <r_epik_Ionization_Penalty_Charging>
4.41114

> <r_epik_Ionization_Penalty_Neutral>
0.171842

> <r_epik_State_Penalty>
4.41079

> <r_epik_Charging_Adjusted_Penalty>
8.82193

> <i_epik_Tot_Q>
-1

> <i_epik_Tot_abs_Q>
1

> <r_epik_Metal_State_Penalty>
0.7766

> <b_epik_Metal_Only>
1

> <s_lp_Force_Field>
OPLS_2005

> <r_lp_Energy>
-0.643196

> <b_lp_Chiralities_Consistent>
1

> <s_lp_Variant>
AV-unprocessed.smi:2005-3

> <Gold.Version>
5.8.1

> <Gold.Id.Protein>
6NUR|6NUR_protein|mol2

> <Gold.PLP.Fitness>
41.2912

> <Gold.PLP.PLP>
-33.1486

> <Gold.PLP.part.hbond>
-3.9918

> <Gold.PLP.part.metal>
0.0000

> <Gold.PLP.part.buried>
-3.3441

> <Gold.PLP.part.nonpolar>
-25.0225

> <Gold.PLP.part.repulsive>
0.3371

> <Gold.PLP.ligand.clash>
0.0000

> <Gold.PLP.ligand.torsion>
0.2134

> <Gold.PLP.Chemscore.Hbond>
2.8184

> <Gold.PLP.Chemscore.CHOScore>
0.0000

> <Gold.PLP.Chemscore.Metal>
0.0000

> <Gold.Chemscore.Hbonds>
donor molecule, donor type, donor heavy atom, donor atom, acceptor molecule, acceptor atom, score
      L1  H    11    27       P1  7948  1.00
      L1  H    16    34       P1 10186  0.86
      P1  H 10785 10796       L1    16  0.85

> <Gold.PLP.Chemscore.Internal.Correction>
0.1143

> <Gold.Rescore>
     Score         DG    S(hbond)    S(metal)    S(lipo)     H(rot)  DE(clash)    DE(int)     intcor
     13.09     -15.93       1.94        0.00      71.12       1.70       0.00       2.84       ----

> <Gold.Chemscore.Fitness>
13.0925

> <Gold.Chemscore.DG>
-15.9294

> <Gold.Chemscore.ZeroCoef>
-5.4800

> <Gold.Chemscore.Hbond>
1.9380

> <Gold.Chemscore.Metal>
0.0000

> <Gold.Chemscore.Lipo>
71.1151

> <Gold.Chemscore.Internal_Hbond>
0.0000

> <Gold.Chemscore.DEClash>
0.0000

> <Gold.Chemscore.DEInternal>
2.8369

> <Gold.Chemscore.Rot>
1.6968

> <Gold.Chemscore.Internal.Correction>
   9.000000E+99

> <Gold.Chemscore.Hbonds>
donor molecule, donor type, donor heavy atom, donor atom, acceptor molecule, acceptor atom, score
      L1  H    11    27       P1  7948  0.60
      L1  H    16    34       P1 10186  0.84
      P1  H 10785 10796       L1    16  0.14

> <Gold.Chemscore.Hbond.Weighted>
-6.4728

> <Gold.Chemscore.Metal.Weighted>
-0.0000

> <Gold.Chemscore.Lipo.Weighted>
-8.3205

> <Gold.Chemscore.Internal_Hbond.Weighted>
0.0000

> <Gold.Chemscore.DEClash.Weighted>
0.0000

> <Gold.Chemscore.DEInternal.Weighted>
2.8369

> <Gold.Chemscore.Rot.Weighted>
4.3439

> <Gold.Chemscore.Internal.Correction.Weighted>
   9.000000E+99

> <Gold.Protein.RotatedTorsions>
[ 6907 6896 6895 6894 ] final  -87.24 input  -60.11 | X-H torsion
[ 7974 7965 7964 7962 ] final  113.22 input  175.53 | X-H torsion
[ 8008 7997 7996 7995 ] final  -81.98 input   59.86 | X-H torsion
[ 10167 10162 10161 10158 ] final -178.36 input  -65.29 | X-H torsion
[ 10718 10713 10712 10709 ] final   47.86 input   66.30 | X-H torsion
[ 10763 10752 10751 10750 ] final  147.86 input  -60.55 | X-H torsion
[ 11005 11000 10999 10996 ] final   39.14 input  -57.11 | X-H torsion

> <Gold.Protein.ActiveResidues>
 VAL166  LYS551  ARG553  GLY616  TRP617  ASP618  TYR619  PRO620  LYS621  CYS622 
 ASP623  PHE694  ASN695  SER759  ASP760  ASP761  ALA762  ILE779  LEU786  VAL792 
 PHE793  MET794  SER795  GLU796  ALA797  LYS798  CYS799  TRP800  GLU811  SER814 

> <Gold.Protein.RotatedAtoms>
  150.6866  134.2926  159.4672 H   0  0  0  0  0  0  0  0  0  0  0  0  # atno 6907 bound_to 6896
  152.0830  134.9456  160.0582 H   0  0  0  0  0  0  0  0  0  0  0  0  # atno 6908 bound_to 6896
  152.0801  133.4114  159.4534 H   0  0  0  0  0  0  0  0  0  0  0  0  # atno 6909 bound_to 6896
  145.2197  139.2868  143.4225 H   0  0  0  0  0  0  0  0  0  0  0  0  # atno 7974 bound_to 7965
  154.6039  140.0640  156.9404 H   0  0  0  0  0  0  0  0  0  0  0  0  # atno 8008 bound_to 7997
  155.2086  140.3321  155.4314 H   0  0  0  0  0  0  0  0  0  0  0  0  # atno 8009 bound_to 7997
  156.2335  140.1852  156.7164 H   0  0  0  0  0  0  0  0  0  0  0  0  # atno 8010 bound_to 7997
  139.5436  144.2296  152.0944 H   0  0  0  0  0  0  0  0  0  0  0  0  # atno 10167 bound_to 10162
  157.4628  130.8207  149.7904 H   0  0  0  0  0  0  0  0  0  0  0  0  # atno 10718 bound_to 10713
  154.0452  135.2886  155.3349 H   0  0  0  0  0  0  0  0  0  0  0  0  # atno 10763 bound_to 10752
  154.6904  135.5229  153.8387 H   0  0  0  0  0  0  0  0  0  0  0  0  # atno 10764 bound_to 10752
  153.0583  135.6604  154.0653 H   0  0  0  0  0  0  0  0  0  0  0  0  # atno 10765 bound_to 10752
  140.2057  134.3816  155.8073 H   0  0  0  0  0  0  0  0  0  0  0  0  # atno 11005 bound_to 11000
  146.3379  140.2498  142.8598 LP  0  0  0  0  0  0  0  0  0  0  0  0  # atno 17320 bound_to 7965
  144.9777  140.8430  143.5416 LP  0  0  0  0  0  0  0  0  0  0  0  0  # atno 17321 bound_to 7965
  140.1779  144.4873  150.6544 LP  0  0  0  0  0  0  0  0  0  0  0  0  # atno 17342 bound_to 10162
  140.6676  143.2273  151.5705 LP  0  0  0  0  0  0  0  0  0  0  0  0  # atno 17343 bound_to 10162
  156.0036  130.3867  150.2512 LP  0  0  0  0  0  0  0  0  0  0  0  0  # atno 17370 bound_to 10713
  157.0690  131.0111  151.3196 LP  0  0  0  0  0  0  0  0  0  0  0  0  # atno 17371 bound_to 10713
  141.2227  133.7117  156.8333 LP  0  0  0  0  0  0  0  0  0  0  0  0  # atno 17394 bound_to 11000
  140.2005  134.8900  157.3164 LP  0  0  0  0  0  0  0  0  0  0  0  0  # atno 17395 bound_to 11000

$$$$
