AV-unprocessed.smi:3245|AV-procd|sdf|12409|dock1
  -GOLD-   2272018293D 1   1.00000     0.00000
 Structure written by MMmdl.
 34 35  0  0  0  0  0  0  0  0  2 V2000
  148.8753  132.6331  153.3968 C   0  0  0  0  0  0  0  0  0  0  0  0
  147.7209  133.1467  152.5123 C   0  0  1  0  0  0  0  0  0  0  0  0
  146.4521  132.2761  152.6248 C   0  0  0  0  0  0  0  0  0  0  0  0
  145.6089  132.3457  151.4448 N   0  0  0  0  0  0  0  0  0  0  0  0
  145.9433  132.0691  150.1356 C   0  0  0  0  0  0  0  0  0  0  0  0
  144.8238  132.2679  149.3796 C   0  0  0  0  0  0  0  0  0  0  0  0
  143.8408  132.6645  150.3292 C   0  0  0  0  0  0  0  0  0  0  0  0
  144.3127  132.7068  151.5648 N   0  0  0  0  0  0  0  0  0  0  0  0
  147.3512  134.5036  152.8962 N   0  0  0  0  0  0  0  0  0  0  0  0
  147.0716  134.6235  154.3206 C   0  0  0  0  0  0  0  0  0  0  0  0
  148.0165  135.6543  154.9640 C   0  0  0  0  0  0  0  0  0  0  0  0
  149.0419  135.0198  155.8022 N   0  0  0  0  0  0  0  0  0  0  0  0
  150.3571  135.1406  155.5961 C   0  0  0  0  0  0  0  0  0  0  0  0
  150.9288  135.7793  154.7123 O   0  0  0  0  0  0  0  0  0  0  0  0
  151.0622  134.3340  156.6614 C   0  0  0  0  0  0  0  0  0  0  0  0
  149.9579  133.7946  157.4218 N   0  5  0  0  0  0  0  0  0  0  0  0
  148.8021  134.2293  156.8668 C   0  0  0  0  0  0  0  0  0  0  0  0
  147.6615  133.9651  157.2468 O   0  0  0  0  0  0  0  0  0  0  0  0
  149.1583  131.6154  153.1280 H   0  0  0  0  0  0  0  0  0  0  0  0
  148.5935  132.6304  154.4502 H   0  0  0  0  0  0  0  0  0  0  0  0
  149.7727  133.2420  153.2949 H   0  0  0  0  0  0  0  0  0  0  0  0
  148.0389  133.1487  151.4687 H   0  0  0  0  0  0  0  0  0  0  0  0
  146.7234  131.2318  152.7889 H   0  0  0  0  0  0  0  0  0  0  0  0
  145.8562  132.5819  153.4863 H   0  0  0  0  0  0  0  0  0  0  0  0
  146.9395  131.7603  149.8546 H   0  0  0  0  0  0  0  0  0  0  0  0
  144.7220  132.1475  148.3114 H   0  0  0  0  0  0  0  0  0  0  0  0
  142.8053  132.9196  150.1586 H   0  0  0  0  0  0  0  0  0  0  0  0
  148.1001  135.1381  152.6580 H   0  0  0  0  0  0  0  0  0  0  0  0
  146.0336  134.9037  154.4965 H   0  0  0  0  0  0  0  0  0  0  0  0
  147.2264  133.6523  154.7917 H   0  0  0  0  0  0  0  0  0  0  0  0
  148.5144  136.2197  154.1748 H   0  0  0  0  0  0  0  0  0  0  0  0
  147.4466  136.3936  155.5295 H   0  0  0  0  0  0  0  0  0  0  0  0
  151.6808  133.5657  156.1964 H   0  0  0  0  0  0  0  0  0  0  0  0
  151.7134  134.9827  157.2481 H   0  0  0  0  0  0  0  0  0  0  0  0
  1  2  1  0  0  0  0
  1 19  1  0  0  0  0
  1 20  1  0  0  0  0
  1 21  1  0  0  0  0
  2  3  1  0  0  0  0
  2  9  1  0  0  0  0
  2 22  1  0  0  0  0
  3  4  1  0  0  0  0
  3 23  1  0  0  0  0
  3 24  1  0  0  0  0
  4  8  1  0  0  0  0
  4  5  1  0  0  0  0
  5  6  2  0  0  0  0
  5 25  1  0  0  0  0
  6  7  1  0  0  0  0
  6 26  1  0  0  0  0
  7  8  2  0  0  0  0
  7 27  1  0  0  0  0
  9 10  1  0  0  0  0
  9 28  1  0  0  0  0
 10 11  1  0  0  0  0
 10 29  1  0  0  0  0
 10 30  1  0  0  0  0
 11 12  1  0  0  0  0
 11 31  1  0  0  0  0
 11 32  1  0  0  0  0
 12 17  1  0  0  0  0
 12 13  1  0  0  0  0
 13 14  2  0  0  0  0
 13 15  1  0  0  0  0
 15 16  1  0  0  0  0
 15 33  1  0  0  0  0
 15 34  1  0  0  0  0
 16 17  1  0  0  0  0
 17 18  2  0  0  0  0
M  CHG  1  16  -1
M  END
> <s_m_source_file>
AV-unprocessed.smi

> <i_m_source_file_index>
3245

> <i_lp_mmshare_version>
43012

> <i_f3d_flags>
0

> <s_epik_input>
bjFbY0hdW2NIXVtjSF1uMVtDSDJdW0NAQEhdKFtDSDNdKVtOSF1bQ0gyXVtDSDJdTjJDKD1PKVtDSDJdW05IXUMyPU8=

> <s_epik_cmdline>
J2VwaWtfcHl0aG9uJywgJy1waCcsICc3LjAnLCAnLXRuJywgJzgnLCAnLW1hJywgJzIwMCcsICctbWV0YWxfYmluZGluZycsICctaW1hZScsICc8aW5maWxlLm1hZT4nLCAnLW9tYWUnLCAnPG91dGZpbGUubWFlPic=

> <r_lp_tautomer_probability>
1

> <r_epik_Ionization_Penalty>
8.62027

> <r_epik_Ionization_Penalty_Charging>
6.28132

> <r_epik_Ionization_Penalty_Neutral>
2.33895

> <r_epik_State_Penalty>
8.57043

> <r_epik_Charging_Adjusted_Penalty>
14.8517

> <i_epik_Tot_Q>
-1

> <i_epik_Tot_abs_Q>
1

> <r_epik_Metal_State_Penalty>
4.56785

> <b_epik_Metal_Only>
1

> <s_lp_Force_Field>
OPLS_2005

> <r_lp_Energy>
21.4513

> <b_lp_Chiralities_Consistent>
1

> <s_lp_Variant>
AV-unprocessed.smi:3245-8

> <Gold.Version>
5.8.1

> <Gold.Id.Protein>
6NUR|6NUR_protein|mol2

> <Gold.PLP.Fitness>
44.6741

> <Gold.PLP.PLP>
-28.5147

> <Gold.PLP.part.hbond>
-2.9961

> <Gold.PLP.part.metal>
0.0000

> <Gold.PLP.part.buried>
-4.2568

> <Gold.PLP.part.nonpolar>
-22.0519

> <Gold.PLP.part.repulsive>
0.3242

> <Gold.PLP.ligand.clash>
0.0000

> <Gold.PLP.ligand.torsion>
1.0385

> <Gold.PLP.Chemscore.Hbond>
4.0000

> <Gold.PLP.Chemscore.CHOScore>
2.0000

> <Gold.PLP.Chemscore.Metal>
0.0000

> <Gold.Chemscore.Hbonds>
donor molecule, donor type, donor heavy atom, donor atom, acceptor molecule, acceptor atom, score
      L1  H     9    28       P1  7948  1.00
      P1  H  6896  6908       L1    16  1.80
      P1  H 10752 10763       L1    14  1.00
      L1  C     5    25       P1 10747  1.00
      L1  C     7    27       P1 10186  1.00

> <Gold.PLP.Chemscore.Internal.Correction>
0.2365

> <Gold.Rescore>
     Score         DG    S(hbond)    S(metal)    S(lipo)     H(rot)  DE(clash)    DE(int)     intcor
     13.23     -14.46       2.60        0.00      58.86       2.58       0.11       1.12       ----

> <Gold.Chemscore.Fitness>
13.2316

> <Gold.Chemscore.DG>
-14.4553

> <Gold.Chemscore.ZeroCoef>
-5.4800

> <Gold.Chemscore.Hbond>
2.6037

> <Gold.Chemscore.Metal>
0.0000

> <Gold.Chemscore.Lipo>
58.8593

> <Gold.Chemscore.Internal_Hbond>
0.0000

> <Gold.Chemscore.DEClash>
0.1081

> <Gold.Chemscore.DEInternal>
1.1156

> <Gold.Chemscore.Rot>
2.5811

> <Gold.Chemscore.Internal.Correction>
   9.000000E+99

> <Gold.Chemscore.Hbonds>
donor molecule, donor type, donor heavy atom, donor atom, acceptor molecule, acceptor atom, score
      L1  H     9    28       P1  7948  0.91
      P1  H  6896  6908       L1    16  0.16
      P1  H 10752 10763       L1    14  0.92

> <Gold.Chemscore.Hbond.Weighted>
-8.6963

> <Gold.Chemscore.Metal.Weighted>
-0.0000

> <Gold.Chemscore.Lipo.Weighted>
-6.8865

> <Gold.Chemscore.Internal_Hbond.Weighted>
0.0000

> <Gold.Chemscore.DEClash.Weighted>
0.1081

> <Gold.Chemscore.DEInternal.Weighted>
1.1156

> <Gold.Chemscore.Rot.Weighted>
6.6076

> <Gold.Chemscore.Internal.Correction.Weighted>
   9.000000E+99

> <Gold.Protein.RotatedTorsions>
[ 6907 6896 6895 6894 ] final  115.81 input  -60.11 | X-H torsion
[ 7974 7965 7964 7962 ] final  106.12 input  175.53 | X-H torsion
[ 8008 7997 7996 7995 ] final -157.86 input   59.86 | X-H torsion
[ 10167 10162 10161 10158 ] final  -51.11 input  -65.29 | X-H torsion
[ 10718 10713 10712 10709 ] final  -92.67 input   66.30 | X-H torsion
[ 10763 10752 10751 10750 ] final   56.43 input  -60.55 | X-H torsion
[ 11005 11000 10999 10996 ] final  114.85 input  -57.11 | X-H torsion

> <Gold.Protein.ActiveResidues>
 VAL166  LYS551  ARG553  GLY616  TRP617  ASP618  TYR619  PRO620  LYS621  CYS622 
 ASP623  PHE694  ASN695  SER759  ASP760  ASP761  ALA762  ILE779  LEU786  VAL792 
 PHE793  MET794  SER795  GLU796  ALA797  LYS798  CYS799  TRP800  GLU811  SER814 

> <Gold.Protein.RotatedAtoms>
  152.4718  133.8047  159.6971 H   0  0  0  0  0  0  0  0  0  0  0  0  # atno 6907 bound_to 6896
  150.8712  133.7494  159.2967 H   0  0  0  0  0  0  0  0  0  0  0  0  # atno 6908 bound_to 6896
  151.5028  135.1065  159.9885 H   0  0  0  0  0  0  0  0  0  0  0  0  # atno 6909 bound_to 6896
  145.3107  139.2541  143.3764 H   0  0  0  0  0  0  0  0  0  0  0  0  # atno 7974 bound_to 7965
  155.7388  140.0811  157.2255 H   0  0  0  0  0  0  0  0  0  0  0  0  # atno 8008 bound_to 7997
  154.4024  140.1582  156.2647 H   0  0  0  0  0  0  0  0  0  0  0  0  # atno 8009 bound_to 7997
  155.9040  140.3408  155.6050 H   0  0  0  0  0  0  0  0  0  0  0  0  # atno 8010 bound_to 7997
  140.6605  143.2632  151.4456 H   0  0  0  0  0  0  0  0  0  0  0  0  # atno 10167 bound_to 10162
  156.0004  130.4996  150.5660 H   0  0  0  0  0  0  0  0  0  0  0  0  # atno 10718 bound_to 10713
  152.9832  135.5676  154.5228 H   0  0  0  0  0  0  0  0  0  0  0  0  # atno 10763 bound_to 10752
  154.4713  135.2785  155.1642 H   0  0  0  0  0  0  0  0  0  0  0  0  # atno 10764 bound_to 10752
  154.3189  135.6273  153.5552 H   0  0  0  0  0  0  0  0  0  0  0  0  # atno 10765 bound_to 10752
  139.8992  134.9574  156.6955 H   0  0  0  0  0  0  0  0  0  0  0  0  # atno 11005 bound_to 11000
  146.3119  140.3643  142.8668 LP  0  0  0  0  0  0  0  0  0  0  0  0  # atno 17320 bound_to 7965
  144.9018  140.7651  143.5862 LP  0  0  0  0  0  0  0  0  0  0  0  0  # atno 17321 bound_to 7965
  139.5837  144.1652  152.2001 LP  0  0  0  0  0  0  0  0  0  0  0  0  # atno 17342 bound_to 10162
  140.0985  144.5560  150.7005 LP  0  0  0  0  0  0  0  0  0  0  0  0  # atno 17343 bound_to 10162
  157.3562  131.0742  151.1673 LP  0  0  0  0  0  0  0  0  0  0  0  0  # atno 17370 bound_to 10713
  157.2473  130.6597  149.5916 LP  0  0  0  0  0  0  0  0  0  0  0  0  # atno 17371 bound_to 10713
  140.7191  133.9156  155.8135 LP  0  0  0  0  0  0  0  0  0  0  0  0  # atno 17394 bound_to 11000
  141.0241  134.0848  157.4088 LP  0  0  0  0  0  0  0  0  0  0  0  0  # atno 17395 bound_to 11000

$$$$
