AV-unprocessed.smi:1235|AV-procd|sdf|5176|dock1
  -GOLD-   22720 4253D 1   1.00000     0.00000
 Structure written by MMmdl.
 50 51  0  0  0  0  0  0  0  0  2 V2000
  151.7301  143.1932  159.0580 C   0  0  0  0  0  0  0  0  0  0  0  0
  150.6260  142.3209  159.2243 O   0  0  0  0  0  0  0  0  0  0  0  0
  150.7038  141.1809  158.3855 C   0  0  0  0  0  0  0  0  0  0  0  0
  150.7793  141.6450  156.9231 C   0  0  0  0  0  0  0  0  0  0  0  0
  150.5946  140.5269  155.9927 N   0  0  0  0  0  0  0  0  0  0  0  0
  149.4933  140.6596  155.1638 N   0  0  0  0  0  0  0  0  0  0  0  0
  149.2169  139.7399  154.2967 C   0  0  0  0  0  0  0  0  0  0  0  0
  148.0427  139.8485  153.3865 C   0  0  0  0  0  0  0  0  0  0  0  0
  147.4501  140.9138  153.2088 O   0  0  0  0  0  0  0  0  0  0  0  0
  147.6798  138.7062  152.7781 N   0  0  0  0  0  0  0  0  0  0  0  0
  146.5608  138.5772  151.8557 C   0  0  0  0  0  0  0  0  0  0  0  0
  145.7670  137.2955  152.1602 C   0  0  0  0  0  0  0  0  0  0  0  0
  146.3789  136.0661  151.5867 N   0  3  1  0  0  0  0  0  0  0  0  0
  146.5058  134.9859  152.6026 C   0  0  0  0  0  0  0  0  0  0  0  0
  147.3303  133.8042  152.0682 C   0  0  0  0  0  0  0  0  0  0  0  0
  146.7316  133.2596  150.7672 C   0  0  0  0  0  0  0  0  0  0  0  0
  146.5954  134.3944  149.7430 C   0  0  0  0  0  0  0  0  0  0  0  0
  145.7877  135.5881  150.2964 C   0  0  1  0  0  0  0  0  0  0  0  0
  144.2772  135.2799  150.3825 C   0  0  0  0  0  0  0  0  0  0  0  0
  150.0498  138.5552  154.1774 C   0  0  0  0  0  0  0  0  0  0  0  0
  151.1172  138.4368  154.9972 C   0  0  0  0  0  0  0  0  0  0  0  0
  151.4507  139.4611  155.9885 C   0  0  0  0  0  0  0  0  0  0  0  0
  152.4118  139.3718  156.7519 O   0  0  0  0  0  0  0  0  0  0  0  0
  151.6260  144.0478  159.7267 H   0  0  0  0  0  0  0  0  0  0  0  0
  151.7847  143.5700  158.0358 H   0  0  0  0  0  0  0  0  0  0  0  0
  152.6689  142.6917  159.2972 H   0  0  0  0  0  0  0  0  0  0  0  0
  151.5838  140.5890  158.6425 H   0  0  0  0  0  0  0  0  0  0  0  0
  149.8259  140.5497  158.5342 H   0  0  0  0  0  0  0  0  0  0  0  0
  150.0158  142.4048  156.7453 H   0  0  0  0  0  0  0  0  0  0  0  0
  151.7322  142.1435  156.7369 H   0  0  0  0  0  0  0  0  0  0  0  0
  148.2161  137.8734  152.9764 H   0  0  0  0  0  0  0  0  0  0  0  0
  145.9366  139.4644  151.9629 H   0  0  0  0  0  0  0  0  0  0  0  0
  146.9275  138.5555  150.8279 H   0  0  0  0  0  0  0  0  0  0  0  0
  145.7246  137.1807  153.2443 H   0  0  0  0  0  0  0  0  0  0  0  0
  144.7324  137.3938  151.8305 H   0  0  0  0  0  0  0  0  0  0  0  0
  146.9952  135.3781  153.4948 H   0  0  0  0  0  0  0  0  0  0  0  0
  145.5172  134.6485  152.9158 H   0  0  0  0  0  0  0  0  0  0  0  0
  148.3583  134.1242  151.8929 H   0  0  0  0  0  0  0  0  0  0  0  0
  147.3764  133.0128  152.8170 H   0  0  0  0  0  0  0  0  0  0  0  0
  147.3628  132.4662  150.3662 H   0  0  0  0  0  0  0  0  0  0  0  0
  145.7577  132.8106  150.9644 H   0  0  0  0  0  0  0  0  0  0  0  0
  147.5920  134.7380  149.4619 H   0  0  0  0  0  0  0  0  0  0  0  0
  146.1379  134.0185  148.8272 H   0  0  0  0  0  0  0  0  0  0  0  0
  145.9054  136.3840  149.5623 H   0  0  0  0  0  0  0  0  0  0  0  0
  143.9050  134.9153  149.4247 H   0  0  0  0  0  0  0  0  0  0  0  0
  143.6951  136.1688  150.6236 H   0  0  0  0  0  0  0  0  0  0  0  0
  144.0495  134.5188  151.1281 H   0  0  0  0  0  0  0  0  0  0  0  0
  149.8271  137.7832  153.4550 H   0  0  0  0  0  0  0  0  0  0  0  0
  151.7449  137.5610  154.9206 H   0  0  0  0  0  0  0  0  0  0  0  0
  147.3293  136.3242  151.3619 H   0  0  0  0  0  0  0  0  0  0  0  0
  1  2  1  0  0  0  0
  1 24  1  0  0  0  0
  1 25  1  0  0  0  0
  1 26  1  0  0  0  0
  2  3  1  0  0  0  0
  3  4  1  0  0  0  0
  3 27  1  0  0  0  0
  3 28  1  0  0  0  0
  4  5  1  0  0  0  0
  4 29  1  0  0  0  0
  4 30  1  0  0  0  0
  5 22  1  0  0  0  0
  5  6  1  0  0  0  0
  6  7  2  0  0  0  0
  7  8  1  0  0  0  0
  7 20  1  0  0  0  0
  8  9  2  0  0  0  0
  8 10  1  0  0  0  0
 10 11  1  0  0  0  0
 10 31  1  0  0  0  0
 11 12  1  0  0  0  0
 11 32  1  0  0  0  0
 11 33  1  0  0  0  0
 12 13  1  0  0  0  0
 12 34  1  0  0  0  0
 12 35  1  0  0  0  0
 13 18  1  0  0  0  0
 13 14  1  0  0  0  0
 13 50  1  0  0  0  0
 14 15  1  0  0  0  0
 14 36  1  0  0  0  0
 14 37  1  0  0  0  0
 15 16  1  0  0  0  0
 15 38  1  0  0  0  0
 15 39  1  0  0  0  0
 16 17  1  0  0  0  0
 16 40  1  0  0  0  0
 16 41  1  0  0  0  0
 17 18  1  0  0  0  0
 17 42  1  0  0  0  0
 17 43  1  0  0  0  0
 18 19  1  0  0  0  0
 18 44  1  0  0  0  0
 19 45  1  0  0  0  0
 19 46  1  0  0  0  0
 19 47  1  0  0  0  0
 20 21  2  0  0  0  0
 20 48  1  0  0  0  0
 21 22  1  0  0  0  0
 21 49  1  0  0  0  0
 22 23  2  0  0  0  0
M  CHG  1  13   1
M  END
> <s_m_source_file>
AV-unprocessed.smi

> <i_m_source_file_index>
1235

> <i_lp_mmshare_version>
43012

> <i_f3d_flags>
0

> <s_epik_input>
W0NIM11PW0NIMl1bQ0gyXW4xbmMoW2NIXVtjSF1jMT1PKUMoPU8pW05IXVtDSDJdW0NIMl1OMltDSDJdW0NIMl1bQ0gyXVtDSDJdW0NASF0yW0NIM10=

> <s_epik_cmdline>
J2VwaWtfcHl0aG9uJywgJy1waCcsICc3LjAnLCAnLXRuJywgJzgnLCAnLW1hJywgJzIwMCcsICctbWV0YWxfYmluZGluZycsICctaW1hZScsICc8aW5maWxlLm1hZT4nLCAnLW9tYWUnLCAnPG91dGZpbGUubWFlPic=

> <r_lp_tautomer_probability>
1

> <r_epik_Ionization_Penalty>
0.00271975

> <r_epik_Ionization_Penalty_Charging>
0.00271407

> <r_epik_Ionization_Penalty_Neutral>
5.6803e-06

> <r_epik_State_Penalty>
0.00189271

> <r_epik_Charging_Adjusted_Penalty>
0.00460678

> <i_epik_Tot_Q>
1

> <i_epik_Tot_abs_Q>
1

> <r_epik_Metal_State_Penalty>
-0

> <b_epik_Metal_Only>
0

> <s_lp_Force_Field>
OPLS_2005

> <r_lp_Energy>
41.7034

> <b_lp_Chiralities_Consistent>
1

> <s_lp_Variant>
AV-unprocessed.smi:1235-2

> <Gold.Version>
5.8.1

> <Gold.Id.Protein>
6NUR|6NUR_protein|mol2

> <Gold.PLP.Fitness>
51.2553

> <Gold.PLP.PLP>
-43.0560

> <Gold.PLP.part.hbond>
-3.4135

> <Gold.PLP.part.metal>
0.0000

> <Gold.PLP.part.buried>
-2.2313

> <Gold.PLP.part.nonpolar>
-38.3967

> <Gold.PLP.part.repulsive>
0.4302

> <Gold.PLP.ligand.clash>
0.0000

> <Gold.PLP.ligand.torsion>
0.9771

> <Gold.PLP.Chemscore.Hbond>
3.2886

> <Gold.PLP.Chemscore.CHOScore>
0.0000

> <Gold.PLP.Chemscore.Metal>
0.0000

> <Gold.Chemscore.Hbonds>
donor molecule, donor type, donor heavy atom, donor atom, acceptor molecule, acceptor atom, score
      L1  H    10    31       P1  7948  0.57
      L1  H    13    50       P1  7948  1.86
      P1  H  7997  8008       L1    23  0.52

> <Gold.PLP.Chemscore.Internal.Correction>
0.2877

> <Gold.Rescore>
     Score         DG    S(hbond)    S(metal)    S(lipo)     H(rot)  DE(clash)    DE(int)     intcor
     16.10     -17.19       1.98        0.00      87.35       2.00       0.14       0.95       ----

> <Gold.Chemscore.Fitness>
16.0995

> <Gold.Chemscore.DG>
-17.1850

> <Gold.Chemscore.ZeroCoef>
-5.4800

> <Gold.Chemscore.Hbond>
1.9791

> <Gold.Chemscore.Metal>
0.0000

> <Gold.Chemscore.Lipo>
87.3515

> <Gold.Chemscore.Internal_Hbond>
0.0000

> <Gold.Chemscore.DEClash>
0.1393

> <Gold.Chemscore.DEInternal>
0.9461

> <Gold.Chemscore.Rot>
2.0020

> <Gold.Chemscore.Internal.Correction>
   9.000000E+99

> <Gold.Chemscore.Hbonds>
donor molecule, donor type, donor heavy atom, donor atom, acceptor molecule, acceptor atom, score
      L1  H    10    31       P1  7948  0.58
      L1  H    13    50       P1  7948  0.89
      P1  H  7997  8008       L1    23  0.48

> <Gold.Chemscore.Hbond.Weighted>
-6.6101

> <Gold.Chemscore.Metal.Weighted>
-0.0000

> <Gold.Chemscore.Lipo.Weighted>
-10.2201

> <Gold.Chemscore.Internal_Hbond.Weighted>
0.0000

> <Gold.Chemscore.DEClash.Weighted>
0.1393

> <Gold.Chemscore.DEInternal.Weighted>
0.9461

> <Gold.Chemscore.Rot.Weighted>
5.1252

> <Gold.Chemscore.Internal.Correction.Weighted>
   9.000000E+99

> <Gold.Protein.RotatedTorsions>
[ 6907 6896 6895 6894 ] final   41.81 input  -60.11 | X-H torsion
[ 7974 7965 7964 7962 ] final   88.21 input  175.53 | X-H torsion
[ 8008 7997 7996 7995 ] final  -28.06 input   59.86 | X-H torsion
[ 10167 10162 10161 10158 ] final  -99.47 input  -65.29 | X-H torsion
[ 10718 10713 10712 10709 ] final -142.54 input   66.30 | X-H torsion
[ 10763 10752 10751 10750 ] final  106.89 input  -60.55 | X-H torsion
[ 11005 11000 10999 10996 ] final  162.99 input  -57.11 | X-H torsion

> <Gold.Protein.ActiveResidues>
 VAL166  LYS551  ARG553  GLY616  TRP617  ASP618  TYR619  PRO620  LYS621  CYS622 
 ASP623  PHE694  ASN695  SER759  ASP760  ASP761  ALA762  ILE779  LEU786  VAL792 
 PHE793  MET794  SER795  GLU796  ALA797  LYS798  CYS799  TRP800  GLU811  SER814 

> <Gold.Protein.RotatedAtoms>
  152.2000  134.8596  160.0508 H   0  0  0  0  0  0  0  0  0  0  0  0  # atno 6907 bound_to 6896
  151.9453  133.3645  159.3988 H   0  0  0  0  0  0  0  0  0  0  0  0  # atno 6908 bound_to 6896
  150.6952  134.4320  159.5297 H   0  0  0  0  0  0  0  0  0  0  0  0  # atno 6909 bound_to 6896
  145.5486  139.2294  143.2525 H   0  0  0  0  0  0  0  0  0  0  0  0  # atno 7974 bound_to 7965
  154.4349  140.1855  156.1029 H   0  0  0  0  0  0  0  0  0  0  0  0  # atno 8008 bound_to 7997
  156.0278  140.3334  155.7081 H   0  0  0  0  0  0  0  0  0  0  0  0  # atno 8009 bound_to 7997
  155.5884  140.0628  157.2756 H   0  0  0  0  0  0  0  0  0  0  0  0  # atno 8010 bound_to 7997
  140.2621  143.3401  152.0616 H   0  0  0  0  0  0  0  0  0  0  0  0  # atno 10167 bound_to 10162
  156.3472  130.7668  151.1815 H   0  0  0  0  0  0  0  0  0  0  0  0  # atno 10718 bound_to 10713
  153.3991  135.3862  155.1975 H   0  0  0  0  0  0  0  0  0  0  0  0  # atno 10763 bound_to 10752
  154.8727  135.3767  154.4641 H   0  0  0  0  0  0  0  0  0  0  0  0  # atno 10764 bound_to 10752
  153.5136  135.7087  153.5829 H   0  0  0  0  0  0  0  0  0  0  0  0  # atno 10765 bound_to 10752
  140.2313  134.8122  157.3319 H   0  0  0  0  0  0  0  0  0  0  0  0  # atno 11005 bound_to 11000
  146.1932  140.6309  142.9136 LP  0  0  0  0  0  0  0  0  0  0  0  0  # atno 17320 bound_to 7965
  144.7540  140.5263  143.6781 LP  0  0  0  0  0  0  0  0  0  0  0  0  # atno 17321 bound_to 7965
  139.5014  144.6712  151.6238 LP  0  0  0  0  0  0  0  0  0  0  0  0  # atno 17342 bound_to 10162
  140.5958  143.9699  150.6353 LP  0  0  0  0  0  0  0  0  0  0  0  0  # atno 17343 bound_to 10162
  157.7456  131.0438  150.4761 LP  0  0  0  0  0  0  0  0  0  0  0  0  # atno 17370 bound_to 10713
  156.4950  130.4104  149.6385 LP  0  0  0  0  0  0  0  0  0  0  0  0  # atno 17371 bound_to 10713
  140.1748  134.4563  155.7809 LP  0  0  0  0  0  0  0  0  0  0  0  0  # atno 17394 bound_to 11000
  141.2217  133.6957  156.7768 LP  0  0  0  0  0  0  0  0  0  0  0  0  # atno 17395 bound_to 11000

$$$$
