AV-unprocessed.smi:2471|AV-procd|sdf|9737|dock3
  -GOLD-   2272013373D 1   1.00000     0.00000
 Structure written by MMmdl.
 40 41  0  0  0  0  0  0  0  0  1 V2000
  141.9816  134.0132  152.5709 C   0  0  0  0  0  0  0  0  0  0  0  0
  143.3701  134.0753  151.9703 C   0  0  0  0  0  0  0  0  0  0  0  0
  143.7966  133.1173  151.0294 C   0  0  0  0  0  0  0  0  0  0  0  0
  145.0964  133.2357  150.5058 C   0  0  0  0  0  0  0  0  0  0  0  0
  145.9108  134.2986  150.9423 C   0  0  0  0  0  0  0  0  0  0  0  0
  145.4074  135.2154  151.8924 C   0  0  0  0  0  0  0  0  0  0  0  0
  146.3080  136.2471  152.2682 N   0  0  0  0  0  0  0  0  0  0  0  0
  146.0310  137.4107  152.8830 C   0  0  0  0  0  0  0  0  0  0  0  0
  144.9120  137.7804  153.2402 O   0  0  0  0  0  0  0  0  0  0  0  0
  147.1428  138.1373  153.0669 N   0  0  0  0  0  0  0  0  0  0  0  0
  147.1927  139.4470  153.7101 C   0  0  0  0  0  0  0  0  0  0  0  0
  148.6375  139.9243  153.9962 C   0  0  2  0  0  0  0  0  0  0  0  0
  149.5507  138.7493  154.4186 C   0  0  0  0  0  0  0  0  0  0  0  0
  150.9812  139.2124  154.7336 C   0  0  0  0  0  0  0  0  0  0  0  0
  150.9846  140.3013  155.8147 C   0  0  0  0  0  0  0  0  0  0  0  0
  150.1051  141.4870  155.3953 C   0  0  0  0  0  0  0  0  0  0  0  0
  148.6680  141.0354  155.0749 C   0  0  1  0  0  0  0  0  0  0  0  0
  147.9455  142.1685  154.6360 O   0  0  0  0  0  0  0  0  0  0  0  0
  144.1511  135.0941  152.3895 N   0  0  0  0  0  0  0  0  0  0  0  0
  141.4645  133.0988  152.2784 H   0  0  0  0  0  0  0  0  0  0  0  0
  141.3877  134.8639  152.2360 H   0  0  0  0  0  0  0  0  0  0  0  0
  142.0359  134.0389  153.6595 H   0  0  0  0  0  0  0  0  0  0  0  0
  143.1471  132.3137  150.7145 H   0  0  0  0  0  0  0  0  0  0  0  0
  145.4635  132.5241  149.7813 H   0  0  0  0  0  0  0  0  0  0  0  0
  146.9118  134.4036  150.5497 H   0  0  0  0  0  0  0  0  0  0  0  0
  147.2775  136.0779  152.0453 H   0  0  0  0  0  0  0  0  0  0  0  0
  148.0196  137.7579  152.7409 H   0  0  0  0  0  0  0  0  0  0  0  0
  146.6627  140.1669  153.0845 H   0  0  0  0  0  0  0  0  0  0  0  0
  146.6313  139.3856  154.6428 H   0  0  0  0  0  0  0  0  0  0  0  0
  149.0463  140.3444  153.0758 H   0  0  0  0  0  0  0  0  0  0  0  0
  149.1301  138.2551  155.2955 H   0  0  0  0  0  0  0  0  0  0  0  0
  149.5920  137.9961  153.6315 H   0  0  0  0  0  0  0  0  0  0  0  0
  151.5830  138.3635  155.0592 H   0  0  0  0  0  0  0  0  0  0  0  0
  151.4502  139.5943  153.8259 H   0  0  0  0  0  0  0  0  0  0  0  0
  150.6195  139.8877  156.7556 H   0  0  0  0  0  0  0  0  0  0  0  0
  152.0045  140.6400  155.9994 H   0  0  0  0  0  0  0  0  0  0  0  0
  150.0944  142.2343  156.1896 H   0  0  0  0  0  0  0  0  0  0  0  0
  150.5460  141.9702  154.5219 H   0  0  0  0  0  0  0  0  0  0  0  0
  148.1968  140.6692  155.9881 H   0  0  0  0  0  0  0  0  0  0  0  0
  148.4311  142.9443  154.8716 H   0  0  0  0  0  0  0  0  0  0  0  0
  1  2  1  0  0  0  0
  1 20  1  0  0  0  0
  1 21  1  0  0  0  0
  1 22  1  0  0  0  0
  2 19  1  0  0  0  0
  2  3  2  0  0  0  0
  3  4  1  0  0  0  0
  3 23  1  0  0  0  0
  4  5  2  0  0  0  0
  4 24  1  0  0  0  0
  5  6  1  0  0  0  0
  5 25  1  0  0  0  0
  6  7  1  0  0  0  0
  6 19  2  0  0  0  0
  7  8  1  0  0  0  0
  7 26  1  0  0  0  0
  8  9  2  0  0  0  0
  8 10  1  0  0  0  0
 10 11  1  0  0  0  0
 10 27  1  0  0  0  0
 11 12  1  0  0  0  0
 11 28  1  0  0  0  0
 11 29  1  0  0  0  0
 12 17  1  0  0  0  0
 12 13  1  0  0  0  0
 12 30  1  0  0  0  0
 13 14  1  0  0  0  0
 13 31  1  0  0  0  0
 13 32  1  0  0  0  0
 14 15  1  0  0  0  0
 14 33  1  0  0  0  0
 14 34  1  0  0  0  0
 15 16  1  0  0  0  0
 15 35  1  0  0  0  0
 15 36  1  0  0  0  0
 16 17  1  0  0  0  0
 16 37  1  0  0  0  0
 16 38  1  0  0  0  0
 17 18  1  0  0  0  0
 17 39  1  0  0  0  0
 18 40  1  0  0  0  0
M  END
> <s_m_source_file>
AV-unprocessed.smi

> <i_m_source_file_index>
2471

> <i_lp_mmshare_version>
43012

> <i_f3d_flags>
0

> <s_epik_input>
W0NIM11jMVtjSF1bY0hdW2NIXWMobjEpW05IXUMoPU8pW05IXVtDSDJdW0NAQEhdMltDSDJdW0NIMl1bQ0gyXVtDSDJdW0NASF0yW09IXQ==

> <s_epik_cmdline>
J2VwaWtfcHl0aG9uJywgJy1waCcsICc3LjAnLCAnLXRuJywgJzgnLCAnLW1hJywgJzIwMCcsICctbWV0YWxfYmluZGluZycsICctaW1hZScsICc8aW5maWxlLm1hZT4nLCAnLW9tYWUnLCAnPG91dGZpbGUubWFlPic=

> <r_lp_tautomer_probability>
1

> <r_epik_Ionization_Penalty>
8.52237e-05

> <r_epik_Ionization_Penalty_Charging>
0

> <r_epik_Ionization_Penalty_Neutral>
8.52237e-05

> <r_epik_State_Penalty>
-0

> <r_epik_Charging_Adjusted_Penalty>
0

> <i_epik_Tot_Q>
0

> <i_epik_Tot_abs_Q>
0

> <r_epik_Metal_State_Penalty>
-0

> <b_epik_Metal_Only>
0

> <s_lp_Force_Field>
OPLS_2005

> <r_lp_Energy>
13.6744

> <b_lp_Chiralities_Consistent>
1

> <s_lp_Variant>
AV-unprocessed.smi:2471-1

> <Gold.Version>
5.8.1

> <Gold.Id.Protein>
6NUR|6NUR_protein|mol2

> <Gold.PLP.Fitness>
42.1361

> <Gold.PLP.PLP>
-33.9332

> <Gold.PLP.part.hbond>
-3.0000

> <Gold.PLP.part.metal>
0.0000

> <Gold.PLP.part.buried>
-1.9227

> <Gold.PLP.part.nonpolar>
-29.3009

> <Gold.PLP.part.repulsive>
0.8888

> <Gold.PLP.ligand.clash>
0.0000

> <Gold.PLP.ligand.torsion>
0.3180

> <Gold.PLP.Chemscore.Hbond>
2.9440

> <Gold.PLP.Chemscore.CHOScore>
0.0000

> <Gold.PLP.Chemscore.Metal>
0.0000

> <Gold.Chemscore.Hbonds>
donor molecule, donor type, donor heavy atom, donor atom, acceptor molecule, acceptor atom, score
      L1  H     7    26       P1  7948  1.00
      L1  H    10    27       P1  7948  0.94
      L1  H    18    40       P1  8028  1.00

> <Gold.PLP.Chemscore.Internal.Correction>
0.0069

> <Gold.Rescore>
     Score         DG    S(hbond)    S(metal)    S(lipo)     H(rot)  DE(clash)    DE(int)     intcor
     18.02     -19.78       2.87        0.00      78.14       1.73       0.15       1.61       ----

> <Gold.Chemscore.Fitness>
18.0189

> <Gold.Chemscore.DG>
-19.7769

> <Gold.Chemscore.ZeroCoef>
-5.4800

> <Gold.Chemscore.Hbond>
2.8724

> <Gold.Chemscore.Metal>
0.0000

> <Gold.Chemscore.Lipo>
78.1355

> <Gold.Chemscore.Internal_Hbond>
0.0000

> <Gold.Chemscore.DEClash>
0.1503

> <Gold.Chemscore.DEInternal>
1.6076

> <Gold.Chemscore.Rot>
1.7339

> <Gold.Chemscore.Internal.Correction>
   9.000000E+99

> <Gold.Chemscore.Hbonds>
donor molecule, donor type, donor heavy atom, donor atom, acceptor molecule, acceptor atom, score
      L1  H     7    26       P1  7948  1.00
      L1  H    10    27       P1  7948  0.90
      L1  H    18    40       P1  8028  0.98

> <Gold.Chemscore.Hbond.Weighted>
-9.5937

> <Gold.Chemscore.Metal.Weighted>
-0.0000

> <Gold.Chemscore.Lipo.Weighted>
-9.1419

> <Gold.Chemscore.Internal_Hbond.Weighted>
0.0000

> <Gold.Chemscore.DEClash.Weighted>
0.1503

> <Gold.Chemscore.DEInternal.Weighted>
1.6076

> <Gold.Chemscore.Rot.Weighted>
4.4387

> <Gold.Chemscore.Internal.Correction.Weighted>
   9.000000E+99

> <Gold.Protein.RotatedTorsions>
[ 6907 6896 6895 6894 ] final -127.84 input  -60.11 | X-H torsion
[ 7974 7965 7964 7962 ] final  -83.11 input  175.53 | X-H torsion
[ 8008 7997 7996 7995 ] final  120.27 input   59.86 | X-H torsion
[ 10167 10162 10161 10158 ] final  -79.17 input  -65.29 | X-H torsion
[ 10718 10713 10712 10709 ] final  164.87 input   66.30 | X-H torsion
[ 10763 10752 10751 10750 ] final  -55.64 input  -60.55 | X-H torsion
[ 11005 11000 10999 10996 ] final -117.07 input  -57.11 | X-H torsion

> <Gold.Protein.ActiveResidues>
 VAL166  LYS551  ARG553  GLY616  TRP617  ASP618  TYR619  PRO620  LYS621  CYS622 
 ASP623  PHE694  ASN695  SER759  ASP760  ASP761  ALA762  ILE779  LEU786  VAL792 
 PHE793  MET794  SER795  GLU796  ALA797  LYS798  CYS799  TRP800  GLU811  SER814 

> <Gold.Protein.RotatedAtoms>
  150.9116  133.6991  159.2853 H   0  0  0  0  0  0  0  0  0  0  0  0  # atno 6907 bound_to 6896
  151.4475  135.1025  159.9698 H   0  0  0  0  0  0  0  0  0  0  0  0  # atno 6908 bound_to 6896
  152.4933  133.8509  159.7256 H   0  0  0  0  0  0  0  0  0  0  0  0  # atno 6909 bound_to 6896
  145.5243  140.9528  143.1638 H   0  0  0  0  0  0  0  0  0  0  0  0  # atno 7974 bound_to 7965
  156.2635  140.2834  156.1124 H   0  0  0  0  0  0  0  0  0  0  0  0  # atno 8008 bound_to 7997
  155.1243  140.0393  157.2776 H   0  0  0  0  0  0  0  0  0  0  0  0  # atno 8009 bound_to 7997
  154.6647  140.2574  155.7077 H   0  0  0  0  0  0  0  0  0  0  0  0  # atno 8010 bound_to 7997
  140.4617  143.2452  151.8338 H   0  0  0  0  0  0  0  0  0  0  0  0  # atno 10167 bound_to 10162
  157.0882  131.0410  151.2548 H   0  0  0  0  0  0  0  0  0  0  0  0  # atno 10718 bound_to 10713
  154.1940  135.6422  153.5068 H   0  0  0  0  0  0  0  0  0  0  0  0  # atno 10763 bound_to 10752
  153.0028  135.5435  154.6385 H   0  0  0  0  0  0  0  0  0  0  0  0  # atno 10764 bound_to 10752
  154.5781  135.2923  155.0733 H   0  0  0  0  0  0  0  0  0  0  0  0  # atno 10765 bound_to 10752
  141.0380  133.9880  157.3040 H   0  0  0  0  0  0  0  0  0  0  0  0  # atno 11005 bound_to 11000
  144.7659  139.6846  143.7215 LP  0  0  0  0  0  0  0  0  0  0  0  0  # atno 17320 bound_to 7965
  146.2085  139.5426  142.9696 LP  0  0  0  0  0  0  0  0  0  0  0  0  # atno 17321 bound_to 7965
  139.4807  144.4999  151.9074 LP  0  0  0  0  0  0  0  0  0  0  0  0  # atno 17342 bound_to 10162
  140.4085  144.2400  150.5890 LP  0  0  0  0  0  0  0  0  0  0  0  0  # atno 17343 bound_to 10162
  157.4743  130.7727  149.7353 LP  0  0  0  0  0  0  0  0  0  0  0  0  # atno 17370 bound_to 10713
  155.9905  130.3944  150.3026 LP  0  0  0  0  0  0  0  0  0  0  0  0  # atno 17371 bound_to 10713
  139.9254  135.0201  156.8217 LP  0  0  0  0  0  0  0  0  0  0  0  0  # atno 17394 bound_to 11000
  140.6287  133.9926  155.7652 LP  0  0  0  0  0  0  0  0  0  0  0  0  # atno 17395 bound_to 11000

$$$$
