AV-unprocessed.smi:234|AV-procd|sdf|1799|dock5
  -GOLD-   2262020373D 1   1.00000     0.00000
 Structure written by MMmdl.
 59 62  0  0  0  0  0  0  0  0  1 V2000
  152.0038  144.7691  159.6782 C   0  0  0  0  0  0  0  0  0  0  0  0
  152.7057  143.5182  160.2239 C   0  0  0  0  0  0  0  0  0  0  0  0
  152.8280  142.5048  159.2351 O   0  0  0  0  0  0  0  0  0  0  0  0
  151.6532  141.7340  159.0180 C   0  0  2  0  0  0  0  0  0  0  0  0
  151.9161  140.5655  158.0711 C   0  0  0  0  0  0  0  0  0  0  0  0
  150.5016  140.8205  157.5330 C   0  0  2  0  0  0  0  0  0  0  0  0
  150.3616  140.6181  156.0878 N   0  0  0  0  0  0  0  0  0  0  0  0
  149.1417  141.0878  155.4415 C   0  0  0  0  0  0  0  0  0  0  0  0
  150.7787  139.4391  155.5654 C   0  0  0  0  0  0  0  0  0  0  0  0
  151.9176  139.4633  154.8276 N   0  0  0  0  0  0  0  0  0  0  0  0
  152.3849  138.3405  154.2751 C   0  0  0  0  0  0  0  0  0  0  0  0
  151.8753  137.1089  154.3302 N   0  0  0  0  0  0  0  0  0  0  0  0
  150.7245  137.0790  155.0618 C   0  0  0  0  0  0  0  0  0  0  0  0
  150.1052  138.1896  155.7029 C   0  0  0  0  0  0  0  0  0  0  0  0
  148.9326  137.7760  156.3237 N   0  0  0  0  0  0  0  0  0  0  0  0
  148.8730  136.4959  156.0799 C   0  0  0  0  0  0  0  0  0  0  0  0
  149.9167  135.9881  155.3392 N   0  0  0  0  0  0  0  0  0  0  0  0
  150.1155  134.6076  154.9138 C   0  0  0  0  0  0  0  0  0  0  0  0
  148.8168  133.8862  154.4617 C   0  0  2  0  0  0  0  0  0  0  0  0
  148.1229  134.7412  153.5683 O   0  0  0  0  0  0  0  0  0  0  0  0
  147.8867  133.5401  155.6120 C   0  0  0  0  0  0  0  0  0  0  0  0
  146.9964  132.4458  155.0253 C   0  0  0  0  0  0  0  0  0  0  0  0
  147.7155  131.8835  153.9291 O   0  0  0  0  0  0  0  0  0  0  0  0
  148.9807  132.5212  153.7615 C   0  0  2  0  0  0  0  0  0  0  0  0
  150.0066  131.5615  154.3936 C   0  0  0  0  0  0  0  0  0  0  0  0
  150.6540  142.3049  157.9762 C   0  0  0  0  0  0  0  0  0  0  0  0
  149.4022  142.9616  158.5630 C   0  0  0  0  0  0  0  0  0  0  0  0
  151.2492  143.2892  156.9532 C   0  0  0  0  0  0  0  0  0  0  0  0
  151.8283  145.4897  160.4771 H   0  0  0  0  0  0  0  0  0  0  0  0
  151.0378  144.5156  159.2411 H   0  0  0  0  0  0  0  0  0  0  0  0
  152.5984  145.2695  158.9144 H   0  0  0  0  0  0  0  0  0  0  0  0
  153.6749  143.7701  160.6532 H   0  0  0  0  0  0  0  0  0  0  0  0
  152.1075  143.1075  161.0373 H   0  0  0  0  0  0  0  0  0  0  0  0
  151.1711  141.3904  159.9353 H   0  0  0  0  0  0  0  0  0  0  0  0
  152.7095  140.7638  157.3483 H   0  0  0  0  0  0  0  0  0  0  0  0
  152.0547  139.6054  158.5683 H   0  0  0  0  0  0  0  0  0  0  0  0
  149.7444  140.3010  158.1233 H   0  0  0  0  0  0  0  0  0  0  0  0
  148.4126  140.2817  155.3482 H   0  0  0  0  0  0  0  0  0  0  0  0
  149.3634  141.4679  154.4438 H   0  0  0  0  0  0  0  0  0  0  0  0
  148.6747  141.8929  156.0059 H   0  0  0  0  0  0  0  0  0  0  0  0
  153.2975  138.4440  153.7067 H   0  0  0  0  0  0  0  0  0  0  0  0
  148.0505  135.8951  156.4338 H   0  0  0  0  0  0  0  0  0  0  0  0
  150.8728  134.5881  154.1301 H   0  0  0  0  0  0  0  0  0  0  0  0
  150.5521  134.0660  155.7541 H   0  0  0  0  0  0  0  0  0  0  0  0
  148.6225  135.5370  153.4683 H   0  0  0  0  0  0  0  0  0  0  0  0
  148.4590  133.1354  156.4477 H   0  0  0  0  0  0  0  0  0  0  0  0
  147.3205  134.3942  155.9860 H   0  0  0  0  0  0  0  0  0  0  0  0
  146.7480  131.6836  155.7644 H   0  0  0  0  0  0  0  0  0  0  0  0
  146.0636  132.8670  154.6492 H   0  0  0  0  0  0  0  0  0  0  0  0
  149.2096  132.6372  152.7012 H   0  0  0  0  0  0  0  0  0  0  0  0
  151.0253  131.9295  154.3064 H   0  0  0  0  0  0  0  0  0  0  0  0
  149.9749  130.5909  153.8983 H   0  0  0  0  0  0  0  0  0  0  0  0
  149.8058  131.3928  155.4516 H   0  0  0  0  0  0  0  0  0  0  0  0
  148.6735  143.2111  157.7922 H   0  0  0  0  0  0  0  0  0  0  0  0
  149.6409  143.8859  159.0885 H   0  0  0  0  0  0  0  0  0  0  0  0
  148.9039  142.3056  159.2773 H   0  0  0  0  0  0  0  0  0  0  0  0
  150.5410  143.5217  156.1578 H   0  0  0  0  0  0  0  0  0  0  0  0
  152.1471  142.8946  156.4773 H   0  0  0  0  0  0  0  0  0  0  0  0
  151.5264  144.2334  157.4222 H   0  0  0  0  0  0  0  0  0  0  0  0
  1  2  1  0  0  0  0
  1 29  1  0  0  0  0
  1 30  1  0  0  0  0
  1 31  1  0  0  0  0
  2  3  1  0  0  0  0
  2 32  1  0  0  0  0
  2 33  1  0  0  0  0
  3  4  1  0  0  0  0
  4 26  1  0  0  0  0
  4  5  1  0  0  0  0
  4 34  1  0  0  0  0
  5  6  1  0  0  0  0
  5 35  1  0  0  0  0
  5 36  1  0  0  0  0
  6  7  1  0  0  0  0
  6 26  1  0  0  0  0
  6 37  1  0  0  0  0
  7  8  1  0  0  0  0
  7  9  1  0  0  0  0
  8 38  1  0  0  0  0
  8 39  1  0  0  0  0
  8 40  1  0  0  0  0
  9 14  1  0  0  0  0
  9 10  2  0  0  0  0
 10 11  1  0  0  0  0
 11 12  2  0  0  0  0
 11 41  1  0  0  0  0
 12 13  1  0  0  0  0
 13 17  1  0  0  0  0
 13 14  2  0  0  0  0
 14 15  1  0  0  0  0
 15 16  2  0  0  0  0
 16 17  1  0  0  0  0
 16 42  1  0  0  0  0
 17 18  1  0  0  0  0
 18 19  1  0  0  0  0
 18 43  1  0  0  0  0
 18 44  1  0  0  0  0
 19 24  1  0  0  0  0
 19 20  1  0  0  0  0
 19 21  1  0  0  0  0
 20 45  1  0  0  0  0
 21 22  1  0  0  0  0
 21 46  1  0  0  0  0
 21 47  1  0  0  0  0
 22 23  1  0  0  0  0
 22 48  1  0  0  0  0
 22 49  1  0  0  0  0
 23 24  1  0  0  0  0
 24 25  1  0  0  0  0
 24 50  1  0  0  0  0
 25 51  1  0  0  0  0
 25 52  1  0  0  0  0
 25 53  1  0  0  0  0
 26 27  1  0  0  0  0
 26 28  1  0  0  0  0
 27 54  1  0  0  0  0
 27 55  1  0  0  0  0
 27 56  1  0  0  0  0
 28 57  1  0  0  0  0
 28 58  1  0  0  0  0
 28 59  1  0  0  0  0
M  END
> <s_m_source_file>
AV-unprocessed.smi

> <i_m_source_file_index>
234

> <i_lp_mmshare_version>
43012

> <i_f3d_flags>
0

> <s_epik_input>
W0NIM11bQ0gyXU9bQ0BASF0oQzEoW0NIM10pW0NIM10pW0NIMl1bQ0BIXTFOKFtDSDNdKWMobltjSF1uMiljKGMyMyluW2NIXW4zW0NIMl1bQ0BAXTQoW09IXSlbQ0gyXVtDSDJdT1tDQEhdNFtDSDNd

> <s_epik_cmdline>
J2VwaWtfcHl0aG9uJywgJy1waCcsICc3LjAnLCAnLXRuJywgJzgnLCAnLW1hJywgJzIwMCcsICctbWV0YWxfYmluZGluZycsICctaW1hZScsICc8aW5maWxlLm1hZT4nLCAnLW9tYWUnLCAnPG91dGZpbGUubWFlPic=

> <r_lp_tautomer_probability>
1

> <r_epik_Ionization_Penalty>
0.00349132

> <r_epik_Ionization_Penalty_Charging>
0

> <r_epik_Ionization_Penalty_Neutral>
0.00349132

> <r_epik_State_Penalty>
0.00242418

> <r_epik_Charging_Adjusted_Penalty>
0.00242418

> <i_epik_Tot_Q>
0

> <i_epik_Tot_abs_Q>
0

> <r_epik_Metal_State_Penalty>
-0

> <b_epik_Metal_Only>
0

> <s_lp_Force_Field>
OPLS_2005

> <r_lp_Energy>
51.2497

> <b_lp_Chiralities_Consistent>
1

> <s_lp_Variant>
AV-unprocessed.smi:234-15

> <Gold.Version>
5.8.1

> <Gold.Id.Protein>
6NUR|6NUR_protein|mol2

> <Gold.PLP.Fitness>
49.6609

> <Gold.PLP.PLP>
-43.6398

> <Gold.PLP.part.hbond>
-2.4274

> <Gold.PLP.part.metal>
0.0000

> <Gold.PLP.part.buried>
-7.7086

> <Gold.PLP.part.nonpolar>
-34.1336

> <Gold.PLP.part.repulsive>
0.2955

> <Gold.PLP.ligand.clash>
0.0000

> <Gold.PLP.ligand.torsion>
1.0990

> <Gold.PLP.Chemscore.Hbond>
2.3920

> <Gold.PLP.Chemscore.CHOScore>
0.0000

> <Gold.PLP.Chemscore.Metal>
0.0000

> <Gold.Chemscore.Hbonds>
donor molecule, donor type, donor heavy atom, donor atom, acceptor molecule, acceptor atom, score
      L1  H    20    45       P1  7948  0.42
      P1  H  7989  7998       L1    10  0.98
      P1  H 10752 10763       L1    12  1.00

> <Gold.PLP.Chemscore.Internal.Correction>
1.0432

> <Gold.Rescore>
     Score         DG    S(hbond)    S(metal)    S(lipo)     H(rot)  DE(clash)    DE(int)     intcor
     15.13     -16.54       1.80        0.00     100.61       2.62       0.38       1.04       ----

> <Gold.Chemscore.Fitness>
15.1263

> <Gold.Chemscore.DG>
-16.5417

> <Gold.Chemscore.ZeroCoef>
-5.4800

> <Gold.Chemscore.Hbond>
1.7971

> <Gold.Chemscore.Metal>
0.0000

> <Gold.Chemscore.Lipo>
100.6118

> <Gold.Chemscore.Internal_Hbond>
0.0000

> <Gold.Chemscore.DEClash>
0.3778

> <Gold.Chemscore.DEInternal>
1.0376

> <Gold.Chemscore.Rot>
2.6219

> <Gold.Chemscore.Internal.Correction>
   9.000000E+99

> <Gold.Chemscore.Hbonds>
donor molecule, donor type, donor heavy atom, donor atom, acceptor molecule, acceptor atom, score
      L1  H    20    45       P1  7948  0.41
      P1  H  7989  7998       L1    10  0.40
      P1  H 10752 10763       L1    12  0.93

> <Gold.Chemscore.Hbond.Weighted>
-6.0023

> <Gold.Chemscore.Metal.Weighted>
-0.0000

> <Gold.Chemscore.Lipo.Weighted>
-11.7716

> <Gold.Chemscore.Internal_Hbond.Weighted>
0.0000

> <Gold.Chemscore.DEClash.Weighted>
0.3778

> <Gold.Chemscore.DEInternal.Weighted>
1.0376

> <Gold.Chemscore.Rot.Weighted>
6.7121

> <Gold.Chemscore.Internal.Correction.Weighted>
   9.000000E+99

> <Gold.Protein.RotatedTorsions>
[ 6907 6896 6895 6894 ] final   74.33 input  -60.11 | X-H torsion
[ 7974 7965 7964 7962 ] final  -40.03 input  175.53 | X-H torsion
[ 8008 7997 7996 7995 ] final  -89.12 input   59.86 | X-H torsion
[ 10167 10162 10161 10158 ] final   82.02 input  -65.29 | X-H torsion
[ 10718 10713 10712 10709 ] final -107.26 input   66.30 | X-H torsion
[ 10763 10752 10751 10750 ] final   35.05 input  -60.55 | X-H torsion
[ 11005 11000 10999 10996 ] final  144.85 input  -57.11 | X-H torsion

> <Gold.Protein.ActiveResidues>
 VAL166  LYS551  ARG553  GLY616  TRP617  ASP618  TYR619  PRO620  LYS621  CYS622 
 ASP623  PHE694  ASN695  SER759  ASP760  ASP761  ALA762  ILE779  LEU786  VAL792 
 PHE793  MET794  SER795  GLU796  ALA797  LYS798  CYS799  TRP800  GLU811  SER814 

> <Gold.Protein.RotatedAtoms>
  152.4970  134.4287  159.9504 H   0  0  0  0  0  0  0  0  0  0  0  0  # atno 6907 bound_to 6896
  151.4264  133.3677  159.2770 H   0  0  0  0  0  0  0  0  0  0  0  0  # atno 6908 bound_to 6896
  150.9186  134.8626  159.7533 H   0  0  0  0  0  0  0  0  0  0  0  0  # atno 6909 bound_to 6896
  146.0342  140.6693  142.9118 H   0  0  0  0  0  0  0  0  0  0  0  0  # atno 7974 bound_to 7965
  154.6828  140.0545  157.0283 H   0  0  0  0  0  0  0  0  0  0  0  0  # atno 8008 bound_to 7997
  155.0927  140.3221  155.4550 H   0  0  0  0  0  0  0  0  0  0  0  0  # atno 8009 bound_to 7997
  156.2700  140.2045  156.6054 H   0  0  0  0  0  0  0  0  0  0  0  0  # atno 8010 bound_to 7997
  139.9331  144.6139  150.8325 H   0  0  0  0  0  0  0  0  0  0  0  0  # atno 10167 bound_to 10162
  156.0428  130.5653  150.7796 H   0  0  0  0  0  0  0  0  0  0  0  0  # atno 10718 bound_to 10713
  153.0136  135.6344  154.1765 H   0  0  0  0  0  0  0  0  0  0  0  0  # atno 10763 bound_to 10752
  154.1506  135.2829  155.3138 H   0  0  0  0  0  0  0  0  0  0  0  0  # atno 10764 bound_to 10752
  154.6056  135.5573  153.7480 H   0  0  0  0  0  0  0  0  0  0  0  0  # atno 10765 bound_to 10752
  140.0665  134.9176  157.1273 H   0  0  0  0  0  0  0  0  0  0  0  0  # atno 11005 bound_to 11000
  144.7044  140.3790  143.7130 LP  0  0  0  0  0  0  0  0  0  0  0  0  # atno 17320 bound_to 7965
  145.6991  139.1657  143.2603 LP  0  0  0  0  0  0  0  0  0  0  0  0  # atno 17321 bound_to 7965
  140.7632  143.3216  151.2608 LP  0  0  0  0  0  0  0  0  0  0  0  0  # atno 17342 bound_to 10162
  139.6765  143.9928  152.2784 LP  0  0  0  0  0  0  0  0  0  0  0  0  # atno 17343 bound_to 10162
  157.5267  131.0934  151.0008 LP  0  0  0  0  0  0  0  0  0  0  0  0  # atno 17370 bound_to 10713
  157.0325  130.5717  149.5345 LP  0  0  0  0  0  0  0  0  0  0  0  0  # atno 17371 bound_to 10713
  140.3691  134.2410  155.7179 LP  0  0  0  0  0  0  0  0  0  0  0  0  # atno 17394 bound_to 11000
  141.1995  133.8011  157.0534 LP  0  0  0  0  0  0  0  0  0  0  0  0  # atno 17395 bound_to 11000

$$$$
