AV-unprocessed.smi:3250|AV-procd|sdf|12425|dock2
  -GOLD-   2272018313D 1   1.00000     0.00000
 Structure written by MMmdl.
 39 40  0  0  0  0  0  0  0  0  2 V2000
  147.0586  129.0730  153.0714 C   0  0  0  0  0  0  0  0  0  0  0  0
  146.2799  129.4179  151.7938 C   0  0  0  0  0  0  0  0  0  0  0  0
  146.3385  130.8630  151.4603 N   0  3  1  0  0  0  0  0  0  0  0  0
  145.6662  131.1701  150.1754 C   0  0  0  0  0  0  0  0  0  0  0  0
  145.7851  132.6672  149.8467 C   0  0  0  0  0  0  0  0  0  0  0  0
  145.2485  133.4329  150.9181 O   0  0  0  0  0  0  0  0  0  0  0  0
  145.9584  133.2267  152.1339 C   0  0  1  0  0  0  0  0  0  0  0  0
  145.3758  134.1887  153.1853 C   0  0  0  0  0  0  0  0  0  0  0  0
  143.9232  134.1091  153.2797 N   0  0  0  0  0  0  0  0  0  0  0  0
  143.0601  135.1666  153.0548 C   0  0  0  0  0  0  0  0  0  0  0  0
  143.6022  136.2366  152.4702 N   0  0  0  0  0  0  0  0  0  0  0  0
  142.7838  137.2843  152.2292 C   0  0  0  0  0  0  0  0  0  0  0  0
  141.4177  137.2544  152.5736 C   0  0  0  0  0  0  0  0  0  0  0  0
  140.9495  136.0749  153.1865 C   0  0  0  0  0  0  0  0  0  0  0  0
  139.6222  135.9758  153.5486 O   0  0  0  0  0  0  0  0  0  0  0  0
  138.7331  137.0033  153.1238 C   0  0  0  0  0  0  0  0  0  0  0  0
  141.7816  135.0306  153.4241 N   0  0  0  0  0  0  0  0  0  0  0  0
  145.8237  131.7439  152.5377 C   0  0  0  0  0  0  0  0  0  0  0  0
  147.0842  127.9936  153.2231 H   0  0  0  0  0  0  0  0  0  0  0  0
  146.6040  129.5112  153.9595 H   0  0  0  0  0  0  0  0  0  0  0  0
  148.0899  129.4219  153.0118 H   0  0  0  0  0  0  0  0  0  0  0  0
  146.7171  128.8486  150.9725 H   0  0  0  0  0  0  0  0  0  0  0  0
  145.2416  129.0936  151.8767 H   0  0  0  0  0  0  0  0  0  0  0  0
  146.1147  130.5836  149.3726 H   0  0  0  0  0  0  0  0  0  0  0  0
  144.6150  130.8840  150.2355 H   0  0  0  0  0  0  0  0  0  0  0  0
  146.8244  132.9469  149.6661 H   0  0  0  0  0  0  0  0  0  0  0  0
  145.2316  132.8970  148.9361 H   0  0  0  0  0  0  0  0  0  0  0  0
  147.0094  133.4674  151.9656 H   0  0  0  0  0  0  0  0  0  0  0  0
  145.8044  133.9742  154.1652 H   0  0  0  0  0  0  0  0  0  0  0  0
  145.6536  135.2158  152.9483 H   0  0  0  0  0  0  0  0  0  0  0  0
  143.5133  133.2404  153.5911 H   0  0  0  0  0  0  0  0  0  0  0  0
  143.2212  138.1512  151.7562 H   0  0  0  0  0  0  0  0  0  0  0  0
  140.7647  138.0922  152.3784 H   0  0  0  0  0  0  0  0  0  0  0  0
  137.7286  136.7843  153.4857 H   0  0  0  0  0  0  0  0  0  0  0  0
  138.6860  137.0666  152.0355 H   0  0  0  0  0  0  0  0  0  0  0  0
  139.0256  137.9746  153.5255 H   0  0  0  0  0  0  0  0  0  0  0  0
  144.7795  131.5017  152.7426 H   0  0  0  0  0  0  0  0  0  0  0  0
  146.3793  131.5688  153.4584 H   0  0  0  0  0  0  0  0  0  0  0  0
  147.3140  131.0925  151.3320 H   0  0  0  0  0  0  0  0  0  0  0  0
  1  2  1  0  0  0  0
  1 19  1  0  0  0  0
  1 20  1  0  0  0  0
  1 21  1  0  0  0  0
  2  3  1  0  0  0  0
  2 22  1  0  0  0  0
  2 23  1  0  0  0  0
  3 18  1  0  0  0  0
  3  4  1  0  0  0  0
  3 39  1  0  0  0  0
  4  5  1  0  0  0  0
  4 24  1  0  0  0  0
  4 25  1  0  0  0  0
  5  6  1  0  0  0  0
  5 26  1  0  0  0  0
  5 27  1  0  0  0  0
  6  7  1  0  0  0  0
  7  8  1  0  0  0  0
  7 18  1  0  0  0  0
  7 28  1  0  0  0  0
  8  9  1  0  0  0  0
  8 29  1  0  0  0  0
  8 30  1  0  0  0  0
  9 10  1  0  0  0  0
  9 31  1  0  0  0  0
 10 17  1  0  0  0  0
 10 11  2  0  0  0  0
 11 12  1  0  0  0  0
 12 13  2  0  0  0  0
 12 32  1  0  0  0  0
 13 14  1  0  0  0  0
 13 33  1  0  0  0  0
 14 15  1  0  0  0  0
 14 17  2  0  0  0  0
 15 16  1  0  0  0  0
 16 34  1  0  0  0  0
 16 35  1  0  0  0  0
 16 36  1  0  0  0  0
 18 37  1  0  0  0  0
 18 38  1  0  0  0  0
M  CHG  1   3   1
M  END
> <s_m_source_file>
AV-unprocessed.smi

> <i_m_source_file_index>
3250

> <i_lp_mmshare_version>
43012

> <i_f3d_flags>
0

> <s_epik_input>
W0NIM11bQ0gyXU4xW0NIMl1bQ0gyXU9bQ0BIXShbQ0gyXTEpW0NIMl1bTkhdYzJuW2NIXVtjSF1jKG4yKU9bQ0gzXQ==

> <s_epik_cmdline>
J2VwaWtfcHl0aG9uJywgJy1waCcsICc3LjAnLCAnLXRuJywgJzgnLCAnLW1hJywgJzIwMCcsICctbWV0YWxfYmluZGluZycsICctaW1hZScsICc8aW5maWxlLm1hZT4nLCAnLW9tYWUnLCAnPG91dGZpbGUubWFlPic=

> <r_lp_tautomer_probability>
1

> <r_epik_Ionization_Penalty>
0.19684

> <r_epik_Ionization_Penalty_Charging>
0.178504

> <r_epik_Ionization_Penalty_Neutral>
0.0183356

> <r_epik_State_Penalty>
0.162939

> <r_epik_Charging_Adjusted_Penalty>
0.341443

> <i_epik_Tot_Q>
1

> <i_epik_Tot_abs_Q>
1

> <r_epik_Metal_State_Penalty>
0.1608

> <b_epik_Metal_Only>
0

> <s_lp_Force_Field>
OPLS_2005

> <r_lp_Energy>
7.38775

> <b_lp_Chiralities_Consistent>
1

> <s_lp_Variant>
AV-unprocessed.smi:3250-1

> <Gold.Version>
5.8.1

> <Gold.Id.Protein>
6NUR|6NUR_protein|mol2

> <Gold.PLP.Fitness>
42.1957

> <Gold.PLP.PLP>
-30.4423

> <Gold.PLP.part.hbond>
-3.2264

> <Gold.PLP.part.metal>
0.0000

> <Gold.PLP.part.buried>
-6.5044

> <Gold.PLP.part.nonpolar>
-20.6115

> <Gold.PLP.part.repulsive>
0.5164

> <Gold.PLP.ligand.clash>
0.0000

> <Gold.PLP.ligand.torsion>
0.1511

> <Gold.PLP.Chemscore.Hbond>
2.0000

> <Gold.PLP.Chemscore.CHOScore>
2.0000

> <Gold.PLP.Chemscore.Metal>
0.0000

> <Gold.Chemscore.Hbonds>
donor molecule, donor type, donor heavy atom, donor atom, acceptor molecule, acceptor atom, score
      L1  H     3    39       P1 10747  0.96
      L1  H     9    31       P1 10957  0.89
      L1  C    12    32       P1 10171  1.00
      L1  C    12    32       P1 10175  1.00

> <Gold.PLP.Chemscore.Internal.Correction>
0.0556

> <Gold.Rescore>
     Score         DG    S(hbond)    S(metal)    S(lipo)     H(rot)  DE(clash)    DE(int)     intcor
     14.84     -15.37       1.94        0.00      66.66       1.71       0.30       0.23       ----

> <Gold.Chemscore.Fitness>
14.8391

> <Gold.Chemscore.DG>
-15.3658

> <Gold.Chemscore.ZeroCoef>
-5.4800

> <Gold.Chemscore.Hbond>
1.9375

> <Gold.Chemscore.Metal>
0.0000

> <Gold.Chemscore.Lipo>
66.6592

> <Gold.Chemscore.Internal_Hbond>
0.0000

> <Gold.Chemscore.DEClash>
0.2955

> <Gold.Chemscore.DEInternal>
0.2312

> <Gold.Chemscore.Rot>
1.7127

> <Gold.Chemscore.Internal.Correction>
   9.000000E+99

> <Gold.Chemscore.Hbonds>
donor molecule, donor type, donor heavy atom, donor atom, acceptor molecule, acceptor atom, score
      L1  H     3    39       P1 10747  0.90
      L1  H     9    31       P1 10957  0.84

> <Gold.Chemscore.Hbond.Weighted>
-6.4712

> <Gold.Chemscore.Metal.Weighted>
-0.0000

> <Gold.Chemscore.Lipo.Weighted>
-7.7991

> <Gold.Chemscore.Internal_Hbond.Weighted>
0.0000

> <Gold.Chemscore.DEClash.Weighted>
0.2955

> <Gold.Chemscore.DEInternal.Weighted>
0.2312

> <Gold.Chemscore.Rot.Weighted>
4.3846

> <Gold.Chemscore.Internal.Correction.Weighted>
   9.000000E+99

> <Gold.Protein.RotatedTorsions>
[ 6907 6896 6895 6894 ] final  -52.86 input  -60.11 | X-H torsion
[ 7974 7965 7964 7962 ] final  129.89 input  175.53 | X-H torsion
[ 8008 7997 7996 7995 ] final -105.96 input   59.86 | X-H torsion
[ 10167 10162 10161 10158 ] final  -65.15 input  -65.29 | X-H torsion
[ 10718 10713 10712 10709 ] final -163.61 input   66.30 | X-H torsion
[ 10763 10752 10751 10750 ] final  -62.19 input  -60.55 | X-H torsion
[ 11005 11000 10999 10996 ] final -138.42 input  -57.11 | X-H torsion

> <Gold.Protein.ActiveResidues>
 VAL166  LYS551  ARG553  GLY616  TRP617  ASP618  TYR619  PRO620  LYS621  CYS622 
 ASP623  PHE694  ASN695  SER759  ASP760  ASP761  ALA762  ILE779  LEU786  VAL792 
 PHE793  MET794  SER795  GLU796  ALA797  LYS798  CYS799  TRP800  GLU811  SER814 

> <Gold.Protein.RotatedAtoms>
  150.8479  134.7794  159.6985 H   0  0  0  0  0  0  0  0  0  0  0  0  # atno 6907 bound_to 6896
  152.4551  134.5305  159.9819 H   0  0  0  0  0  0  0  0  0  0  0  0  # atno 6908 bound_to 6896
  151.5432  133.3391  159.2975 H   0  0  0  0  0  0  0  0  0  0  0  0  # atno 6909 bound_to 6896
  145.0237  139.4108  143.5184 H   0  0  0  0  0  0  0  0  0  0  0  0  # atno 7974 bound_to 7965
  154.9076  140.0411  157.1928 H   0  0  0  0  0  0  0  0  0  0  0  0  # atno 8008 bound_to 7997
  154.8381  140.2910  155.5656 H   0  0  0  0  0  0  0  0  0  0  0  0  # atno 8009 bound_to 7997
  156.2990  140.2488  156.3318 H   0  0  0  0  0  0  0  0  0  0  0  0  # atno 8010 bound_to 7997
  140.5750  143.2321  151.6461 H   0  0  0  0  0  0  0  0  0  0  0  0  # atno 10167 bound_to 10162
  156.6272  130.8914  151.2970 H   0  0  0  0  0  0  0  0  0  0  0  0  # atno 10718 bound_to 10713
  154.2961  135.6244  153.5405 H   0  0  0  0  0  0  0  0  0  0  0  0  # atno 10763 bound_to 10752
  152.9846  135.5667  154.5336 H   0  0  0  0  0  0  0  0  0  0  0  0  # atno 10764 bound_to 10752
  154.4957  135.2869  155.1437 H   0  0  0  0  0  0  0  0  0  0  0  0  # atno 10765 bound_to 10752
  140.8618  134.2159  157.4703 H   0  0  0  0  0  0  0  0  0  0  0  0  # atno 11005 bound_to 11000
  146.3489  139.9749  142.8702 LP  0  0  0  0  0  0  0  0  0  0  0  0  # atno 17320 bound_to 7965
  145.1861  140.9790  143.4238 LP  0  0  0  0  0  0  0  0  0  0  0  0  # atno 17321 bound_to 7965
  139.5138  144.3432  152.0721 LP  0  0  0  0  0  0  0  0  0  0  0  0  # atno 17342 bound_to 10162
  140.2575  144.4103  150.6198 LP  0  0  0  0  0  0  0  0  0  0  0  0  # atno 17343 bound_to 10162
  157.7210  130.9559  150.1441 LP  0  0  0  0  0  0  0  0  0  0  0  0  # atno 17370 bound_to 10713
  156.2264  130.3678  149.8496 LP  0  0  0  0  0  0  0  0  0  0  0  0  # atno 17371 bound_to 10713
  139.8707  134.9733  156.4804 LP  0  0  0  0  0  0  0  0  0  0  0  0  # atno 17394 bound_to 11000
  140.8674  133.8014  155.9328 LP  0  0  0  0  0  0  0  0  0  0  0  0  # atno 17395 bound_to 11000

$$$$
