AV-unprocessed.smi:1691|AV-procd|sdf|6775|dock6
  -GOLD-   22720 7533D 1   1.00000     0.00000
 Structure written by MMmdl.
 44 45  0  0  0  0  0  0  0  0  2 V2000
  146.4764  141.9916  154.6196 C   0  0  0  0  0  0  0  0  0  0  0  0
  146.4435  140.6623  155.4006 C   0  0  0  0  0  0  0  0  0  0  0  0
  146.9205  140.9224  156.8426 C   0  0  0  0  0  0  0  0  0  0  0  0
  147.2564  139.5451  154.6818 C   0  0  1  0  0  0  0  0  0  0  0  0
  146.9853  139.4992  153.1508 C   0  0  0  0  0  0  0  0  0  0  0  0
  147.0044  138.1464  152.6014 N   0  0  0  0  0  0  0  0  0  0  0  0
  145.9253  137.4008  152.3247 C   0  0  0  0  0  0  0  0  0  0  0  0
  144.7690  137.7800  152.5085 O   0  0  0  0  0  0  0  0  0  0  0  0
  146.2745  136.2086  151.8157 N   0  0  0  0  0  0  0  0  0  0  0  0
  145.4065  135.1737  151.3867 C   0  0  0  0  0  0  0  0  0  0  0  0
  145.6189  133.7638  151.3770 C   0  0  0  0  0  0  0  0  0  0  0  0
  144.5621  133.1232  150.8984 N   0  0  0  0  0  0  0  0  0  0  0  0
  143.6817  134.1053  150.6020 N   0  0  0  0  0  0  0  0  0  0  0  0
  144.1551  135.3680  150.8829 C   0  0  0  0  0  0  0  0  0  0  0  0
  148.7054  139.6620  155.0416 N   0  3  0  0  0  0  0  0  0  0  0  0
  149.6052  138.6655  154.4102 C   0  0  0  0  0  0  0  0  0  0  0  0
  150.9983  138.7370  155.0573 C   0  0  0  0  0  0  0  0  0  0  0  0
  151.5110  140.0596  154.9442 O   0  0  0  0  0  0  0  0  0  0  0  0
  150.6964  141.0113  155.6197 C   0  0  0  0  0  0  0  0  0  0  0  0
  149.2918  141.0249  154.9946 C   0  0  0  0  0  0  0  0  0  0  0  0
  142.7725  133.8997  150.2124 H   0  0  0  0  0  0  0  0  0  0  0  0
  147.4989  142.3449  154.4826 H   0  0  0  0  0  0  0  0  0  0  0  0
  145.9268  142.7714  155.1478 H   0  0  0  0  0  0  0  0  0  0  0  0
  146.0193  141.8997  153.6344 H   0  0  0  0  0  0  0  0  0  0  0  0
  145.4012  140.3484  155.4641 H   0  0  0  0  0  0  0  0  0  0  0  0
  147.9883  141.1415  156.8751 H   0  0  0  0  0  0  0  0  0  0  0  0
  146.7285  140.0725  157.4968 H   0  0  0  0  0  0  0  0  0  0  0  0
  146.3972  141.7722  157.2822 H   0  0  0  0  0  0  0  0  0  0  0  0
  146.8997  138.6008  155.0966 H   0  0  0  0  0  0  0  0  0  0  0  0
  145.9899  139.8831  152.9326 H   0  0  0  0  0  0  0  0  0  0  0  0
  147.6795  140.1587  152.6277 H   0  0  0  0  0  0  0  0  0  0  0  0
  147.9132  137.7438  152.4233 H   0  0  0  0  0  0  0  0  0  0  0  0
  147.2619  136.0236  151.7174 H   0  0  0  0  0  0  0  0  0  0  0  0
  146.4776  133.1888  151.6906 H   0  0  0  0  0  0  0  0  0  0  0  0
  143.5769  136.2628  150.7054 H   0  0  0  0  0  0  0  0  0  0  0  0
  149.1977  137.6614  154.5321 H   0  0  0  0  0  0  0  0  0  0  0  0
  149.6973  138.8490  153.3408 H   0  0  0  0  0  0  0  0  0  0  0  0
  150.9568  138.4388  156.1061 H   0  0  0  0  0  0  0  0  0  0  0  0
  151.6805  138.0488  154.5575 H   0  0  0  0  0  0  0  0  0  0  0  0
  150.6471  140.7762  156.6843 H   0  0  0  0  0  0  0  0  0  0  0  0
  151.1562  141.9958  155.5316 H   0  0  0  0  0  0  0  0  0  0  0  0
  149.3633  141.3755  153.9663 H   0  0  0  0  0  0  0  0  0  0  0  0
  148.6582  141.7302  155.5317 H   0  0  0  0  0  0  0  0  0  0  0  0
  148.7237  139.4099  156.0196 H   0  0  0  0  0  0  0  0  0  0  0  0
  1  2  1  0  0  0  0
  1 22  1  0  0  0  0
  1 23  1  0  0  0  0
  1 24  1  0  0  0  0
  2  3  1  0  0  0  0
  2  4  1  0  0  0  0
  2 25  1  0  0  0  0
  3 26  1  0  0  0  0
  3 27  1  0  0  0  0
  3 28  1  0  0  0  0
  4  5  1  0  0  0  0
  4 15  1  0  0  0  0
  4 29  1  0  0  0  0
  5  6  1  0  0  0  0
  5 30  1  0  0  0  0
  5 31  1  0  0  0  0
  6  7  1  0  0  0  0
  6 32  1  0  0  0  0
  7  8  2  0  0  0  0
  7  9  1  0  0  0  0
  9 10  1  0  0  0  0
  9 33  1  0  0  0  0
 10 14  2  0  0  0  0
 10 11  1  0  0  0  0
 11 12  2  0  0  0  0
 11 34  1  0  0  0  0
 12 13  1  0  0  0  0
 13 21  1  0  0  0  0
 13 14  1  0  0  0  0
 14 35  1  0  0  0  0
 15 20  1  0  0  0  0
 15 16  1  0  0  0  0
 15 44  1  0  0  0  0
 16 17  1  0  0  0  0
 16 36  1  0  0  0  0
 16 37  1  0  0  0  0
 17 18  1  0  0  0  0
 17 38  1  0  0  0  0
 17 39  1  0  0  0  0
 18 19  1  0  0  0  0
 19 20  1  0  0  0  0
 19 40  1  0  0  0  0
 19 41  1  0  0  0  0
 20 42  1  0  0  0  0
 20 43  1  0  0  0  0
M  CHG  1  15   1
M  END
> <s_m_source_file>
AV-unprocessed.smi

> <i_m_source_file_index>
1691

> <i_lp_mmshare_version>
43012

> <i_f3d_flags>
0

> <s_epik_input>
W0NIMl0xW0NIMl1PW0NIMl1bQ0gyXU4xW0NASF0oW0NIXShbQ0gzXSlbQ0gzXSlbQ0gyXVtOSF1DKD1PKVtOSF1jMltjSF1uW25IXVtjSF0y

> <s_epik_cmdline>
J2VwaWtfcHl0aG9uJywgJy1waCcsICc3LjAnLCAnLXRuJywgJzgnLCAnLW1hJywgJzIwMCcsICctbWV0YWxfYmluZGluZycsICctaW1hZScsICc8aW5maWxlLm1hZT4nLCAnLW9tYWUnLCAnPG91dGZpbGUubWFlPic=

> <r_lp_tautomer_probability>
0.5

> <r_epik_Ionization_Penalty>
0.363378

> <r_epik_Ionization_Penalty_Charging>
0.363339

> <r_epik_Ionization_Penalty_Neutral>
3.97246e-05

> <r_epik_State_Penalty>
0.36031

> <r_epik_Charging_Adjusted_Penalty>
0.723649

> <i_epik_Tot_Q>
1

> <i_epik_Tot_abs_Q>
1

> <r_epik_Metal_State_Penalty>
0.360311

> <b_epik_Metal_Only>
0

> <s_lp_Force_Field>
OPLS_2005

> <r_lp_Energy>
33.682

> <b_lp_Chiralities_Consistent>
1

> <s_lp_Variant>
AV-unprocessed.smi:1691-2

> <Gold.Version>
5.8.1

> <Gold.Id.Protein>
6NUR|6NUR_protein|mol2

> <Gold.PLP.Fitness>
42.7964

> <Gold.PLP.PLP>
-30.1379

> <Gold.PLP.part.hbond>
-4.0000

> <Gold.PLP.part.metal>
0.0000

> <Gold.PLP.part.buried>
-6.5021

> <Gold.PLP.part.nonpolar>
-23.1383

> <Gold.PLP.part.repulsive>
3.1619

> <Gold.PLP.ligand.clash>
0.0000

> <Gold.PLP.ligand.torsion>
1.2422

> <Gold.PLP.Chemscore.Hbond>
3.9513

> <Gold.PLP.Chemscore.CHOScore>
1.0000

> <Gold.PLP.Chemscore.Metal>
0.0000

> <Gold.Chemscore.Hbonds>
donor molecule, donor type, donor heavy atom, donor atom, acceptor molecule, acceptor atom, score
      L1  H     6    32       P1  7948  0.98
      L1  H     9    33       P1  7948  1.00
      L1  H    13    21       P1 10186  1.00
      P1  H  7989  7998       L1    18  0.90
      L1  C    14    35       P1 10171  1.00

> <Gold.PLP.Chemscore.Internal.Correction>
0.2893

> <Gold.Rescore>
     Score         DG    S(hbond)    S(metal)    S(lipo)     H(rot)  DE(clash)    DE(int)     intcor
     15.27     -19.28       3.49        0.00      58.79       1.84       0.47       3.54       ----

> <Gold.Chemscore.Fitness>
15.2679

> <Gold.Chemscore.DG>
-19.2848

> <Gold.Chemscore.ZeroCoef>
-5.4800

> <Gold.Chemscore.Hbond>
3.4860

> <Gold.Chemscore.Metal>
0.0000

> <Gold.Chemscore.Lipo>
58.7903

> <Gold.Chemscore.Internal_Hbond>
0.0000

> <Gold.Chemscore.DEClash>
0.4741

> <Gold.Chemscore.DEInternal>
3.5427

> <Gold.Chemscore.Rot>
1.8425

> <Gold.Chemscore.Internal.Correction>
   9.000000E+99

> <Gold.Chemscore.Hbonds>
donor molecule, donor type, donor heavy atom, donor atom, acceptor molecule, acceptor atom, score
      L1  H     6    32       P1  7948  0.93
      L1  H     9    33       P1  7948  1.00
      L1  H    13    21       P1 10186  0.94
      P1  H  7989  7998       L1    18  0.17

> <Gold.Chemscore.Hbond.Weighted>
-11.6431

> <Gold.Chemscore.Metal.Weighted>
-0.0000

> <Gold.Chemscore.Lipo.Weighted>
-6.8785

> <Gold.Chemscore.Internal_Hbond.Weighted>
0.0000

> <Gold.Chemscore.DEClash.Weighted>
0.4741

> <Gold.Chemscore.DEInternal.Weighted>
3.5427

> <Gold.Chemscore.Rot.Weighted>
4.7168

> <Gold.Chemscore.Internal.Correction.Weighted>
   9.000000E+99

> <Gold.Protein.RotatedTorsions>
[ 6907 6896 6895 6894 ] final  -46.30 input  -60.11 | X-H torsion
[ 7974 7965 7964 7962 ] final    1.77 input  175.53 | X-H torsion
[ 8008 7997 7996 7995 ] final -148.86 input   59.86 | X-H torsion
[ 10167 10162 10161 10158 ] final   70.04 input  -65.29 | X-H torsion
[ 10718 10713 10712 10709 ] final  -48.16 input   66.30 | X-H torsion
[ 10763 10752 10751 10750 ] final  160.68 input  -60.55 | X-H torsion
[ 11005 11000 10999 10996 ] final -117.55 input  -57.11 | X-H torsion

> <Gold.Protein.ActiveResidues>
 VAL166  LYS551  ARG553  GLY616  TRP617  ASP618  TYR619  PRO620  LYS621  CYS622 
 ASP623  PHE694  ASN695  SER759  ASP760  ASP761  ALA762  ILE779  LEU786  VAL792 
 PHE793  MET794  SER795  GLU796  ALA797  LYS798  CYS799  TRP800  GLU811  SER814 

> <Gold.Protein.RotatedAtoms>
  150.9127  134.8544  159.7435 H   0  0  0  0  0  0  0  0  0  0  0  0  # atno 6907 bound_to 6896
  152.4952  134.4335  159.9530 H   0  0  0  0  0  0  0  0  0  0  0  0  # atno 6908 bound_to 6896
  151.4376  133.3613  159.2812 H   0  0  0  0  0  0  0  0  0  0  0  0  # atno 6909 bound_to 6896
  146.2441  140.0937  142.8351 H   0  0  0  0  0  0  0  0  0  0  0  0  # atno 7974 bound_to 7965
  155.5984  140.0659  157.2740 H   0  0  0  0  0  0  0  0  0  0  0  0  # atno 8008 bound_to 7997
  154.4286  140.1823  156.1194 H   0  0  0  0  0  0  0  0  0  0  0  0  # atno 8009 bound_to 7997
  156.0179  140.3320  155.7011 H   0  0  0  0  0  0  0  0  0  0  0  0  # atno 8010 bound_to 7997
  140.0612  144.5231  150.7293 H   0  0  0  0  0  0  0  0  0  0  0  0  # atno 10167 bound_to 10162
  156.2014  130.4156  149.9236 H   0  0  0  0  0  0  0  0  0  0  0  0  # atno 10718 bound_to 10713
  154.2511  135.2771  155.2816 H   0  0  0  0  0  0  0  0  0  0  0  0  # atno 10763 bound_to 10752
  154.5464  135.5688  153.6887 H   0  0  0  0  0  0  0  0  0  0  0  0  # atno 10764 bound_to 10752
  152.9980  135.6263  154.2658 H   0  0  0  0  0  0  0  0  0  0  0  0  # atno 10765 bound_to 10752
  141.0347  133.9928  157.3090 H   0  0  0  0  0  0  0  0  0  0  0  0  # atno 11005 bound_to 11000
  145.0628  140.9100  143.4928 LP  0  0  0  0  0  0  0  0  0  0  0  0  # atno 17320 bound_to 7965
  145.1056  139.2792  143.5664 LP  0  0  0  0  0  0  0  0  0  0  0  0  # atno 17321 bound_to 7965
  140.7171  143.2554  151.4400 LP  0  0  0  0  0  0  0  0  0  0  0  0  # atno 17342 bound_to 10162
  139.5892  144.1536  152.2068 LP  0  0  0  0  0  0  0  0  0  0  0  0  # atno 17343 bound_to 10162
  156.6944  130.8908  151.3592 LP  0  0  0  0  0  0  0  0  0  0  0  0  # atno 17370 bound_to 10713
  157.6988  130.9310  150.0723 LP  0  0  0  0  0  0  0  0  0  0  0  0  # atno 17371 bound_to 10713
  139.9232  135.0201  156.8140 LP  0  0  0  0  0  0  0  0  0  0  0  0  # atno 17394 bound_to 11000
  140.6344  133.9876  155.7677 LP  0  0  0  0  0  0  0  0  0  0  0  0  # atno 17395 bound_to 11000

$$$$
