AV-unprocessed.smi:571|AV-procd|sdf|2963|dock9
  -GOLD-   2262023463D 1   1.00000     0.00000
 Structure written by MMmdl.
 44 45  0  0  0  0  0  0  0  0  2 V2000
  150.6129  138.4979  154.5577 C   0  0  0  0  0  0  0  0  0  0  0  0
  149.2118  139.0738  154.8202 C   0  0  2  0  0  0  0  0  0  0  0  0
  148.5738  139.6784  153.5423 C   0  0  0  0  0  0  0  0  0  0  0  0
  147.7217  138.7146  152.7980 N   0  3  0  0  0  0  0  0  0  0  0  0
  146.7091  138.0554  153.6615 C   0  0  0  0  0  0  0  0  0  0  0  0
  145.9779  136.9403  152.8955 C   0  0  0  0  0  0  0  0  0  0  0  0
  145.3324  137.4866  151.6150 C   0  0  0  0  0  0  0  0  0  0  0  0
  146.3873  138.1996  150.7583 C   0  0  0  0  0  0  0  0  0  0  0  0
  147.1138  139.2867  151.5683 C   0  0  0  0  0  0  0  0  0  0  0  0
  149.2179  139.9960  155.9610 N   0  0  0  0  0  0  0  0  0  0  0  0
  150.0394  141.0421  156.1520 C   0  0  0  0  0  0  0  0  0  0  0  0
  150.9527  141.3342  155.3798 O   0  0  0  0  0  0  0  0  0  0  0  0
  149.7707  141.8882  157.4029 C   0  0  0  0  0  0  0  0  0  0  0  0
  150.9829  142.0877  158.2130 N   0  0  0  0  0  0  0  0  0  0  0  0
  151.5028  143.3973  158.2574 C   0  0  0  0  0  0  0  0  0  0  0  0
  152.6129  143.6976  158.9495 C   0  0  0  0  0  0  0  0  0  0  0  0
  153.2794  142.6346  159.6641 C   0  0  0  0  0  0  0  0  0  0  0  0
  152.7935  141.3779  159.6240 C   0  0  0  0  0  0  0  0  0  0  0  0
  151.5841  141.0436  158.8630 C   0  0  0  0  0  0  0  0  0  0  0  0
  151.1423  139.8957  158.8100 O   0  0  0  0  0  0  0  0  0  0  0  0
  150.5811  137.7357  153.7787 H   0  0  0  0  0  0  0  0  0  0  0  0
  151.0214  138.0331  155.4556 H   0  0  0  0  0  0  0  0  0  0  0  0
  151.3130  139.2689  154.2349 H   0  0  0  0  0  0  0  0  0  0  0  0
  148.5847  138.2401  155.1362 H   0  0  0  0  0  0  0  0  0  0  0  0
  147.9591  140.5299  153.8379 H   0  0  0  0  0  0  0  0  0  0  0  0
  149.3427  140.0837  152.8827 H   0  0  0  0  0  0  0  0  0  0  0  0
  147.1952  137.6234  154.5372 H   0  0  0  0  0  0  0  0  0  0  0  0
  145.9978  138.7986  154.0251 H   0  0  0  0  0  0  0  0  0  0  0  0
  146.6837  136.1479  152.6418 H   0  0  0  0  0  0  0  0  0  0  0  0
  145.2184  136.4855  153.5321 H   0  0  0  0  0  0  0  0  0  0  0  0
  144.8702  136.6771  151.0491 H   0  0  0  0  0  0  0  0  0  0  0  0
  144.5341  138.1838  151.8729 H   0  0  0  0  0  0  0  0  0  0  0  0
  147.1123  137.4720  150.3902 H   0  0  0  0  0  0  0  0  0  0  0  0
  145.9175  138.6407  149.8785 H   0  0  0  0  0  0  0  0  0  0  0  0
  146.4195  140.0836  151.8390 H   0  0  0  0  0  0  0  0  0  0  0  0
  147.8839  139.7371  150.9426 H   0  0  0  0  0  0  0  0  0  0  0  0
  148.5141  139.8314  156.6669 H   0  0  0  0  0  0  0  0  0  0  0  0
  149.3698  142.8598  157.1086 H   0  0  0  0  0  0  0  0  0  0  0  0
  148.9741  141.4151  157.9791 H   0  0  0  0  0  0  0  0  0  0  0  0
  150.9474  144.1311  157.6911 H   0  0  0  0  0  0  0  0  0  0  0  0
  152.9989  144.7062  158.9693 H   0  0  0  0  0  0  0  0  0  0  0  0
  154.1719  142.8479  160.2337 H   0  0  0  0  0  0  0  0  0  0  0  0
  153.3059  140.5956  160.1647 H   0  0  0  0  0  0  0  0  0  0  0  0
  148.3437  137.9778  152.4973 H   0  0  0  0  0  0  0  0  0  0  0  0
  1  2  1  0  0  0  0
  1 21  1  0  0  0  0
  1 22  1  0  0  0  0
  1 23  1  0  0  0  0
  2  3  1  0  0  0  0
  2 10  1  0  0  0  0
  2 24  1  0  0  0  0
  3  4  1  0  0  0  0
  3 25  1  0  0  0  0
  3 26  1  0  0  0  0
  4  9  1  0  0  0  0
  4  5  1  0  0  0  0
  4 44  1  0  0  0  0
  5  6  1  0  0  0  0
  5 27  1  0  0  0  0
  5 28  1  0  0  0  0
  6  7  1  0  0  0  0
  6 29  1  0  0  0  0
  6 30  1  0  0  0  0
  7  8  1  0  0  0  0
  7 31  1  0  0  0  0
  7 32  1  0  0  0  0
  8  9  1  0  0  0  0
  8 33  1  0  0  0  0
  8 34  1  0  0  0  0
  9 35  1  0  0  0  0
  9 36  1  0  0  0  0
 10 11  1  0  0  0  0
 10 37  1  0  0  0  0
 11 12  2  0  0  0  0
 11 13  1  0  0  0  0
 13 14  1  0  0  0  0
 13 38  1  0  0  0  0
 13 39  1  0  0  0  0
 14 19  1  0  0  0  0
 14 15  1  0  0  0  0
 15 16  2  0  0  0  0
 15 40  1  0  0  0  0
 16 17  1  0  0  0  0
 16 41  1  0  0  0  0
 17 18  2  0  0  0  0
 17 42  1  0  0  0  0
 18 19  1  0  0  0  0
 18 43  1  0  0  0  0
 19 20  2  0  0  0  0
M  CHG  1   4   1
M  END
> <s_m_source_file>
AV-unprocessed.smi

> <i_m_source_file_index>
571

> <i_lp_mmshare_version>
43012

> <i_f3d_flags>
0

> <s_epik_input>
W0NIMl0xW0NIMl1bQ0gyXVtDSDJdW0NIMl1OMVtDSDJdW0NAQEhdKFtDSDNdKVtOSF1DKD1PKVtDSDJdbjJbY0hdW2NIXVtjSF1bY0hdYzI9Tw==

> <s_epik_cmdline>
J2VwaWtfcHl0aG9uJywgJy1waCcsICc3LjAnLCAnLXRuJywgJzgnLCAnLW1hJywgJzIwMCcsICctbWV0YWxfYmluZGluZycsICctaW1hZScsICc8aW5maWxlLm1hZT4nLCAnLW9tYWUnLCAnPG91dGZpbGUubWFlPic=

> <r_lp_tautomer_probability>
1

> <r_epik_Ionization_Penalty>
0.00237248

> <r_epik_Ionization_Penalty_Charging>
0.0023724

> <r_epik_Ionization_Penalty_Neutral>
8.2065e-08

> <r_epik_State_Penalty>
0.00163922

> <r_epik_Charging_Adjusted_Penalty>
0.00401161

> <i_epik_Tot_Q>
1

> <i_epik_Tot_abs_Q>
1

> <r_epik_Metal_State_Penalty>
-0

> <b_epik_Metal_Only>
0

> <s_lp_Force_Field>
OPLS_2005

> <r_lp_Energy>
32.5109

> <b_lp_Chiralities_Consistent>
1

> <s_lp_Variant>
AV-unprocessed.smi:571-1

> <Gold.Version>
5.8.1

> <Gold.Id.Protein>
6NUR|6NUR_protein|mol2

> <Gold.PLP.Fitness>
44.6366

> <Gold.PLP.PLP>
-35.7771

> <Gold.PLP.part.hbond>
-2.2663

> <Gold.PLP.part.metal>
0.0000

> <Gold.PLP.part.buried>
4.2115

> <Gold.PLP.part.nonpolar>
-38.0642

> <Gold.PLP.part.repulsive>
0.1677

> <Gold.PLP.ligand.clash>
0.0000

> <Gold.PLP.ligand.torsion>
0.7860

> <Gold.PLP.Chemscore.Hbond>
2.4295

> <Gold.PLP.Chemscore.CHOScore>
1.0000

> <Gold.PLP.Chemscore.Metal>
0.0000

> <Gold.Chemscore.Hbonds>
donor molecule, donor type, donor heavy atom, donor atom, acceptor molecule, acceptor atom, score
      L1  H     4    44       P1  7948  2.00
      P1  H  7989  7998       L1    12  0.51
      L1  C    15    40       P1  8028  0.01

> <Gold.PLP.Chemscore.Internal.Correction>
0.1430

> <Gold.Rescore>
     Score         DG    S(hbond)    S(metal)    S(lipo)     H(rot)  DE(clash)    DE(int)     intcor
     13.41     -16.59       1.44        0.00      94.11       1.84       1.98       1.21       ----

> <Gold.Chemscore.Fitness>
13.4098

> <Gold.Chemscore.DG>
-16.5938

> <Gold.Chemscore.ZeroCoef>
-5.4800

> <Gold.Chemscore.Hbond>
1.4420

> <Gold.Chemscore.Metal>
0.0000

> <Gold.Chemscore.Lipo>
94.1144

> <Gold.Chemscore.Internal_Hbond>
0.0000

> <Gold.Chemscore.DEClash>
1.9780

> <Gold.Chemscore.DEInternal>
1.2060

> <Gold.Chemscore.Rot>
1.8413

> <Gold.Chemscore.Internal.Correction>
   9.000000E+99

> <Gold.Chemscore.Hbonds>
donor molecule, donor type, donor heavy atom, donor atom, acceptor molecule, acceptor atom, score
      L1  H     4    44       P1  7948  0.99
      P1  H  7989  7998       L1    12  0.48

> <Gold.Chemscore.Hbond.Weighted>
-4.8161

> <Gold.Chemscore.Metal.Weighted>
-0.0000

> <Gold.Chemscore.Lipo.Weighted>
-11.0114

> <Gold.Chemscore.Internal_Hbond.Weighted>
0.0000

> <Gold.Chemscore.DEClash.Weighted>
1.9780

> <Gold.Chemscore.DEInternal.Weighted>
1.2060

> <Gold.Chemscore.Rot.Weighted>
4.7137

> <Gold.Chemscore.Internal.Correction.Weighted>
   9.000000E+99

> <Gold.Protein.RotatedTorsions>
[ 6907 6896 6895 6894 ] final -138.94 input  -60.11 | X-H torsion
[ 7974 7965 7964 7962 ] final -160.82 input  175.53 | X-H torsion
[ 8008 7997 7996 7995 ] final   88.47 input   59.86 | X-H torsion
[ 10167 10162 10161 10158 ] final   68.06 input  -65.29 | X-H torsion
[ 10718 10713 10712 10709 ] final  134.55 input   66.30 | X-H torsion
[ 10763 10752 10751 10750 ] final -162.78 input  -60.55 | X-H torsion
[ 11005 11000 10999 10996 ] final -131.45 input  -57.11 | X-H torsion

> <Gold.Protein.ActiveResidues>
 VAL166  LYS551  ARG553  GLY616  TRP617  ASP618  TYR619  PRO620  LYS621  CYS622 
 ASP623  PHE694  ASN695  SER759  ASP760  ASP761  ALA762  ILE779  LEU786  VAL792 
 PHE793  MET794  SER795  GLU796  ALA797  LYS798  CYS799  TRP800  GLU811  SER814 

> <Gold.Protein.RotatedAtoms>
  151.0415  133.5702  159.2650 H   0  0  0  0  0  0  0  0  0  0  0  0  # atno 6907 bound_to 6896
  151.2747  135.0695  159.9157 H   0  0  0  0  0  0  0  0  0  0  0  0  # atno 6908 bound_to 6896
  152.5365  134.0139  159.8005 H   0  0  0  0  0  0  0  0  0  0  0  0  # atno 6909 bound_to 6896
  144.7413  140.3487  143.6120 H   0  0  0  0  0  0  0  0  0  0  0  0  # atno 7974 bound_to 7965
  155.9881  140.3371  155.6727 H   0  0  0  0  0  0  0  0  0  0  0  0  # atno 8008 bound_to 7997
  155.6458  140.0700  157.2621 H   0  0  0  0  0  0  0  0  0  0  0  0  # atno 8009 bound_to 7997
  154.4211  140.1734  156.1609 H   0  0  0  0  0  0  0  0  0  0  0  0  # atno 8010 bound_to 7997
  140.0828  144.5056  150.7150 H   0  0  0  0  0  0  0  0  0  0  0  0  # atno 10167 bound_to 10162
  157.4661  131.1077  150.9860 H   0  0  0  0  0  0  0  0  0  0  0  0  # atno 10718 bound_to 10713
  154.7183  135.3020  154.9088 H   0  0  0  0  0  0  0  0  0  0  0  0  # atno 10763 bound_to 10752
  153.9968  135.6712  153.4761 H   0  0  0  0  0  0  0  0  0  0  0  0  # atno 10764 bound_to 10752
  153.0812  135.5008  154.8423 H   0  0  0  0  0  0  0  0  0  0  0  0  # atno 10765 bound_to 10752
  140.9257  134.1385  157.4277 H   0  0  0  0  0  0  0  0  0  0  0  0  # atno 11005 bound_to 11000
  145.7299  139.1733  143.2436 LP  0  0  0  0  0  0  0  0  0  0  0  0  # atno 17320 bound_to 7965
  146.1214  140.7304  142.9456 LP  0  0  0  0  0  0  0  0  0  0  0  0  # atno 17321 bound_to 7965
  140.7069  143.2475  151.4700 LP  0  0  0  0  0  0  0  0  0  0  0  0  # atno 17342 bound_to 10162
  139.5769  144.1797  152.1916 LP  0  0  0  0  0  0  0  0  0  0  0  0  # atno 17343 bound_to 10162
  157.0641  130.5837  149.5391 LP  0  0  0  0  0  0  0  0  0  0  0  0  # atno 17370 bound_to 10713
  156.0051  130.5136  150.7801 LP  0  0  0  0  0  0  0  0  0  0  0  0  # atno 17371 bound_to 10713
  139.8785  134.9987  156.5916 LP  0  0  0  0  0  0  0  0  0  0  0  0  # atno 17394 bound_to 11000
  140.7929  133.8568  155.8661 LP  0  0  0  0  0  0  0  0  0  0  0  0  # atno 17395 bound_to 11000

$$$$
