AV-unprocessed.smi:2044|AV-procd|sdf|8304|dock9
  -GOLD-   2272010573D 1   1.00000     0.00000
 Structure written by MMmdl.
 39 40  0  0  0  0  0  0  0  0  3 V2000
  153.1724  142.5143  162.0404 C   0  0  0  0  0  0  0  0  0  0  0  0
  152.7925  141.9034  160.7348 C   0  0  0  0  0  0  0  0  0  0  0  0
  153.4186  141.0124  159.9098 C   0  0  0  0  0  0  0  0  0  0  0  0
  152.4949  140.8559  158.8401 C   0  0  0  0  0  0  0  0  0  0  0  0
  152.6603  140.0786  157.7586 N   0  5  0  0  0  0  0  0  0  0  0  0
  151.6168  139.8264  156.9361 C   0  0  0  0  0  0  0  0  0  0  0  0
  150.4489  140.1860  157.1010 O   0  0  0  0  0  0  0  0  0  0  0  0
  151.9471  139.1135  155.8513 N   0  0  0  0  0  0  0  0  0  0  0  0
  151.0254  138.7193  154.7919 C   0  0  0  0  0  0  0  0  0  0  0  0
  149.8276  137.8903  155.3263 C   0  0  2  0  0  0  0  0  0  0  0  0
  150.2785  136.4437  155.6479 C   0  0  0  0  0  0  0  0  0  0  0  0
  148.6597  137.8996  154.3825 N   0  3  0  0  0  0  0  0  0  0  0  0
  147.4609  137.1949  154.9177 C   0  0  0  0  0  0  0  0  0  0  0  0
  146.3021  137.2057  153.9072 C   0  0  0  0  0  0  0  0  0  0  0  0
  145.9777  138.5437  153.5666 O   0  0  0  0  0  0  0  0  0  0  0  0
  147.0722  139.1916  152.9387 C   0  0  0  0  0  0  0  0  0  0  0  0
  148.2674  139.2557  153.9045 C   0  0  0  0  0  0  0  0  0  0  0  0
  151.4132  141.6008  158.9933 N   0  0  0  0  0  0  0  0  0  0  0  0
  151.5927  142.2705  160.2095 O   0  0  0  0  0  0  0  0  0  0  0  0
  154.1264  143.0353  161.9592 H   0  0  0  0  0  0  0  0  0  0  0  0
  153.2689  141.7486  162.8101 H   0  0  0  0  0  0  0  0  0  0  0  0
  152.4228  143.2334  162.3715 H   0  0  0  0  0  0  0  0  0  0  0  0
  154.3805  140.5427  160.0503 H   0  0  0  0  0  0  0  0  0  0  0  0
  152.9130  138.8370  155.7522 H   0  0  0  0  0  0  0  0  0  0  0  0
  150.6927  139.6499  154.3334 H   0  0  0  0  0  0  0  0  0  0  0  0
  151.5595  138.1496  154.0293 H   0  0  0  0  0  0  0  0  0  0  0  0
  149.4998  138.3538  156.2585 H   0  0  0  0  0  0  0  0  0  0  0  0
  151.1734  136.4175  156.2690 H   0  0  0  0  0  0  0  0  0  0  0  0
  150.4999  135.8874  154.7367 H   0  0  0  0  0  0  0  0  0  0  0  0
  149.5285  135.8899  156.2103 H   0  0  0  0  0  0  0  0  0  0  0  0
  147.6827  136.1534  155.1417 H   0  0  0  0  0  0  0  0  0  0  0  0
  147.1462  137.6664  155.8499 H   0  0  0  0  0  0  0  0  0  0  0  0
  146.5591  136.6377  153.0114 H   0  0  0  0  0  0  0  0  0  0  0  0
  145.4222  136.7307  154.3415 H   0  0  0  0  0  0  0  0  0  0  0  0
  147.3424  138.6710  152.0185 H   0  0  0  0  0  0  0  0  0  0  0  0
  146.7677  140.1989  152.6536 H   0  0  0  0  0  0  0  0  0  0  0  0
  148.0266  139.8896  154.7594 H   0  0  0  0  0  0  0  0  0  0  0  0
  149.0827  139.7322  153.3631 H   0  0  0  0  0  0  0  0  0  0  0  0
  148.9538  137.3870  153.5633 H   0  0  0  0  0  0  0  0  0  0  0  0
  1  2  1  0  0  0  0
  1 20  1  0  0  0  0
  1 21  1  0  0  0  0
  1 22  1  0  0  0  0
  2 19  1  0  0  0  0
  2  3  2  0  0  0  0
  3  4  1  0  0  0  0
  3 23  1  0  0  0  0
  4  5  1  0  0  0  0
  4 18  2  0  0  0  0
  5  6  1  0  0  0  0
  6  7  2  0  0  0  0
  6  8  1  0  0  0  0
  8  9  1  0  0  0  0
  8 24  1  0  0  0  0
  9 10  1  0  0  0  0
  9 25  1  0  0  0  0
  9 26  1  0  0  0  0
 10 11  1  0  0  0  0
 10 12  1  0  0  0  0
 10 27  1  0  0  0  0
 11 28  1  0  0  0  0
 11 29  1  0  0  0  0
 11 30  1  0  0  0  0
 12 17  1  0  0  0  0
 12 13  1  0  0  0  0
 12 39  1  0  0  0  0
 13 14  1  0  0  0  0
 13 31  1  0  0  0  0
 13 32  1  0  0  0  0
 14 15  1  0  0  0  0
 14 33  1  0  0  0  0
 14 34  1  0  0  0  0
 15 16  1  0  0  0  0
 16 17  1  0  0  0  0
 16 35  1  0  0  0  0
 16 36  1  0  0  0  0
 17 37  1  0  0  0  0
 17 38  1  0  0  0  0
 18 19  1  0  0  0  0
M  CHG  1   5  -1
M  CHG  1  12   1
M  END
> <s_m_source_file>
AV-unprocessed.smi

> <i_m_source_file_index>
2044

> <i_lp_mmshare_version>
43012

> <i_f3d_flags>
0

> <s_epik_input>
W0NIM11jMVtjSF1jKG5vMSlbTkhdQyg9TylbTkhdW0NIMl1bQ0BIXShbQ0gzXSlOMltDSDJdW0NIMl1PW0NIMl1bQ0gyXTI=

> <s_epik_cmdline>
J2VwaWtfcHl0aG9uJywgJy1waCcsICc3LjAnLCAnLXRuJywgJzgnLCAnLW1hJywgJzIwMCcsICctbWV0YWxfYmluZGluZycsICctaW1hZScsICc8aW5maWxlLm1hZT4nLCAnLW9tYWUnLCAnPG91dGZpbGUubWFlPic=

> <r_epik_Ionization_Penalty>
6.73014

> <r_epik_Ionization_Penalty_Charging>
6.73004

> <r_epik_Ionization_Penalty_Neutral>
9.51297e-05

> <r_epik_State_Penalty>
6.93052

> <r_epik_Charging_Adjusted_Penalty>
13.6606

> <i_epik_Tot_Q>
0

> <i_epik_Tot_abs_Q>
2

> <r_epik_Metal_State_Penalty>
2.86736

> <b_epik_Metal_Only>
1

> <s_lp_Force_Field>
OPLS_2005

> <r_lp_Energy>
9.04271

> <b_lp_Chiralities_Consistent>
1

> <s_lp_Variant>
AV-unprocessed.smi:2044-7

> <Gold.Version>
5.8.1

> <Gold.Id.Protein>
6NUR|6NUR_protein|mol2

> <Gold.PLP.Fitness>
41.1406

> <Gold.PLP.PLP>
-29.5516

> <Gold.PLP.part.hbond>
-3.0000

> <Gold.PLP.part.metal>
0.0000

> <Gold.PLP.part.buried>
-3.0012

> <Gold.PLP.part.nonpolar>
-23.2713

> <Gold.PLP.part.repulsive>
0.3760

> <Gold.PLP.ligand.clash>
0.0000

> <Gold.PLP.ligand.torsion>
0.2457

> <Gold.PLP.Chemscore.Hbond>
4.0000

> <Gold.PLP.Chemscore.CHOScore>
0.0000

> <Gold.PLP.Chemscore.Metal>
0.0000

> <Gold.Chemscore.Hbonds>
donor molecule, donor type, donor heavy atom, donor atom, acceptor molecule, acceptor atom, score
      L1  H    12    39       P1  7948  1.95
      P1  H  7997  8009       L1     5  2.00

> <Gold.PLP.Chemscore.Internal.Correction>
0.0803

> <Gold.Rescore>
     Score         DG    S(hbond)    S(metal)    S(lipo)     H(rot)  DE(clash)    DE(int)     intcor
     12.39     -15.60       1.88        0.00      67.77       1.59       0.03       3.17       ----

> <Gold.Chemscore.Fitness>
12.3946

> <Gold.Chemscore.DG>
-15.5959

> <Gold.Chemscore.ZeroCoef>
-5.4800

> <Gold.Chemscore.Hbond>
1.8759

> <Gold.Chemscore.Metal>
0.0000

> <Gold.Chemscore.Lipo>
67.7653

> <Gold.Chemscore.Internal_Hbond>
0.0000

> <Gold.Chemscore.DEClash>
0.0291

> <Gold.Chemscore.DEInternal>
3.1722

> <Gold.Chemscore.Rot>
1.5930

> <Gold.Chemscore.Internal.Correction>
   9.000000E+99

> <Gold.Chemscore.Hbonds>
donor molecule, donor type, donor heavy atom, donor atom, acceptor molecule, acceptor atom, score
      L1  H    12    39       P1  7948  0.91
      P1  H  7997  8009       L1     5  0.77

> <Gold.Chemscore.Hbond.Weighted>
-6.2655

> <Gold.Chemscore.Metal.Weighted>
-0.0000

> <Gold.Chemscore.Lipo.Weighted>
-7.9285

> <Gold.Chemscore.Internal_Hbond.Weighted>
0.0000

> <Gold.Chemscore.DEClash.Weighted>
0.0291

> <Gold.Chemscore.DEInternal.Weighted>
3.1722

> <Gold.Chemscore.Rot.Weighted>
4.0781

> <Gold.Chemscore.Internal.Correction.Weighted>
   9.000000E+99

> <Gold.Protein.RotatedTorsions>
[ 6907 6896 6895 6894 ] final -100.17 input  -60.11 | X-H torsion
[ 7974 7965 7964 7962 ] final  -52.19 input  175.53 | X-H torsion
[ 8008 7997 7996 7995 ] final  170.95 input   59.86 | X-H torsion
[ 10167 10162 10161 10158 ] final  -25.57 input  -65.29 | X-H torsion
[ 10718 10713 10712 10709 ] final -115.78 input   66.30 | X-H torsion
[ 10763 10752 10751 10750 ] final  157.42 input  -60.55 | X-H torsion
[ 11005 11000 10999 10996 ] final -113.86 input  -57.11 | X-H torsion

> <Gold.Protein.ActiveResidues>
 VAL166  LYS551  ARG553  GLY616  TRP617  ASP618  TYR619  PRO620  LYS621  CYS622 
 ASP623  PHE694  ASN695  SER759  ASP760  ASP761  ALA762  ILE779  LEU786  VAL792 
 PHE793  MET794  SER795  GLU796  ALA797  LYS798  CYS799  TRP800  GLU811  SER814 

> <Gold.Protein.RotatedAtoms>
  150.7106  134.0928  159.3937 H   0  0  0  0  0  0  0  0  0  0  0  0  # atno 6907 bound_to 6896
  151.8913  135.0413  160.0507 H   0  0  0  0  0  0  0  0  0  0  0  0  # atno 6908 bound_to 6896
  152.2489  133.5163  159.5350 H   0  0  0  0  0  0  0  0  0  0  0  0  # atno 6909 bound_to 6896
  145.9107  140.7918  142.9697 H   0  0  0  0  0  0  0  0  0  0  0  0  # atno 7974 bound_to 7965
  156.1318  140.1524  156.9054 H   0  0  0  0  0  0  0  0  0  0  0  0  # atno 8008 bound_to 7997
  154.4915  140.0850  156.7644 H   0  0  0  0  0  0  0  0  0  0  0  0  # atno 8009 bound_to 7997
  155.4242  140.3424  155.4276 H   0  0  0  0  0  0  0  0  0  0  0  0  # atno 8010 bound_to 7997
  140.7286  143.4253  151.0886 H   0  0  0  0  0  0  0  0  0  0  0  0  # atno 10167 bound_to 10162
  156.0919  130.6099  150.8951 H   0  0  0  0  0  0  0  0  0  0  0  0  # atno 10718 bound_to 10713
  154.1999  135.2791  155.2994 H   0  0  0  0  0  0  0  0  0  0  0  0  # atno 10763 bound_to 10752
  154.5862  135.5574  153.7237 H   0  0  0  0  0  0  0  0  0  0  0  0  # atno 10764 bound_to 10752
  153.0090  135.6357  154.2138 H   0  0  0  0  0  0  0  0  0  0  0  0  # atno 10765 bound_to 10752
  141.0588  133.9569  157.2705 H   0  0  0  0  0  0  0  0  0  0  0  0  # atno 11005 bound_to 11000
  144.6743  140.1820  143.7405 LP  0  0  0  0  0  0  0  0  0  0  0  0  # atno 17320 bound_to 7965
  145.8675  139.2255  143.1680 LP  0  0  0  0  0  0  0  0  0  0  0  0  # atno 17321 bound_to 7965
  139.7904  143.8227  152.3151 LP  0  0  0  0  0  0  0  0  0  0  0  0  # atno 17342 bound_to 10162
  139.8208  144.7296  150.9574 LP  0  0  0  0  0  0  0  0  0  0  0  0  # atno 17343 bound_to 10162
  157.6070  131.0938  150.8862 LP  0  0  0  0  0  0  0  0  0  0  0  0  # atno 17370 bound_to 10713
  156.9008  130.5246  149.5283 LP  0  0  0  0  0  0  0  0  0  0  0  0  # atno 17371 bound_to 10713
  139.9414  135.0190  156.8719 LP  0  0  0  0  0  0  0  0  0  0  0  0  # atno 17394 bound_to 11000
  140.5910  134.0261  155.7500 LP  0  0  0  0  0  0  0  0  0  0  0  0  # atno 17395 bound_to 11000

$$$$
