AV-unprocessed.smi:1484|AV-procd|sdf|5999|dock7
  -GOLD-   22720 6 93D 1   1.00000     0.00000
 Structure written by MMmdl.
 38 39  0  0  0  0  0  0  0  0  1 V2000
  153.2030  142.1327  161.3812 C   0  0  0  0  0  0  0  0  0  0  0  0
  152.8614  143.2050  160.3370 C   0  0  2  0  0  0  0  0  0  0  0  0
  151.9243  144.2804  160.9193 C   0  0  0  0  0  0  0  0  0  0  0  0
  151.5818  145.3535  159.8741 C   0  0  0  0  0  0  0  0  0  0  0  0
  150.9717  144.7279  158.6105 C   0  0  0  0  0  0  0  0  0  0  0  0
  151.8997  143.6501  158.0149 C   0  0  2  0  0  0  0  0  0  0  0  0
  151.2749  143.0131  156.8596 N   0  0  0  0  0  0  0  0  0  0  0  0
  150.2148  142.1919  156.9047 C   0  0  0  0  0  0  0  0  0  0  0  0
  149.6550  141.8694  157.9538 O   0  0  0  0  0  0  0  0  0  0  0  0
  149.7360  141.6398  155.5538 C   0  0  0  0  0  0  0  0  0  0  0  0
  150.2472  140.2936  155.2577 N   0  0  0  0  0  0  0  0  0  0  0  0
  151.6174  140.2402  155.0513 N   0  0  0  0  0  0  0  0  0  0  0  0
  152.1878  139.1113  154.7973 C   0  0  0  0  0  0  0  0  0  0  0  0
  153.5472  139.1030  154.6025 O   0  0  0  0  0  0  0  0  0  0  0  0
  151.4218  137.8869  154.7180 C   0  0  0  0  0  0  0  0  0  0  0  0
  150.0868  137.9497  154.9152 C   0  0  0  0  0  0  0  0  0  0  0  0
  149.4079  139.2139  155.2051 C   0  0  0  0  0  0  0  0  0  0  0  0
  148.1935  139.3004  155.3864 O   0  0  0  0  0  0  0  0  0  0  0  0
  152.2437  142.5814  159.0699 C   0  0  0  0  0  0  0  0  0  0  0  0
  153.7649  138.2103  154.3830 H   0  0  0  0  0  0  0  0  0  0  0  0
  152.3097  141.6020  161.7121 H   0  0  0  0  0  0  0  0  0  0  0  0
  153.6719  142.5760  162.2600 H   0  0  0  0  0  0  0  0  0  0  0  0
  153.8967  141.3961  160.9749 H   0  0  0  0  0  0  0  0  0  0  0  0
  153.7947  143.6919  160.0504 H   0  0  0  0  0  0  0  0  0  0  0  0
  151.0046  143.8151  161.2769 H   0  0  0  0  0  0  0  0  0  0  0  0
  152.3890  144.7513  161.7862 H   0  0  0  0  0  0  0  0  0  0  0  0
  150.8891  146.0798  160.3003 H   0  0  0  0  0  0  0  0  0  0  0  0
  152.4839  145.9062  159.6085 H   0  0  0  0  0  0  0  0  0  0  0  0
  150.0035  144.2888  158.8555 H   0  0  0  0  0  0  0  0  0  0  0  0
  150.7790  145.5095  157.8746 H   0  0  0  0  0  0  0  0  0  0  0  0
  152.8315  144.1227  157.6974 H   0  0  0  0  0  0  0  0  0  0  0  0
  151.6757  143.2180  155.9557 H   0  0  0  0  0  0  0  0  0  0  0  0
  148.6444  141.6363  155.5275 H   0  0  0  0  0  0  0  0  0  0  0  0
  150.0445  142.3399  154.7753 H   0  0  0  0  0  0  0  0  0  0  0  0
  151.9133  136.9488  154.5053 H   0  0  0  0  0  0  0  0  0  0  0  0
  149.5025  137.0431  154.8590 H   0  0  0  0  0  0  0  0  0  0  0  0
  152.9360  141.8544  158.6429 H   0  0  0  0  0  0  0  0  0  0  0  0
  151.3429  142.0274  159.3392 H   0  0  0  0  0  0  0  0  0  0  0  0
  1  2  1  0  0  0  0
  1 21  1  0  0  0  0
  1 22  1  0  0  0  0
  1 23  1  0  0  0  0
  2 19  1  0  0  0  0
  2  3  1  0  0  0  0
  2 24  1  0  0  0  0
  3  4  1  0  0  0  0
  3 25  1  0  0  0  0
  3 26  1  0  0  0  0
  4  5  1  0  0  0  0
  4 27  1  0  0  0  0
  4 28  1  0  0  0  0
  5  6  1  0  0  0  0
  5 29  1  0  0  0  0
  5 30  1  0  0  0  0
  6  7  1  0  0  0  0
  6 19  1  0  0  0  0
  6 31  1  0  0  0  0
  7  8  1  0  0  0  0
  7 32  1  0  0  0  0
  8  9  2  0  0  0  0
  8 10  1  0  0  0  0
 10 33  1  0  0  0  0
 10 34  1  0  0  0  0
 10 11  1  0  0  0  0
 11 12  1  0  0  0  0
 11 17  1  0  0  0  0
 12 13  2  0  0  0  0
 13 14  1  0  0  0  0
 13 15  1  0  0  0  0
 14 20  1  0  0  0  0
 15 35  1  0  0  0  0
 15 16  2  0  0  0  0
 16 36  1  0  0  0  0
 16 17  1  0  0  0  0
 17 18  2  0  0  0  0
 19 37  1  0  0  0  0
 19 38  1  0  0  0  0
M  END
> <s_m_source_file>
AV-unprocessed.smi

> <i_m_source_file_index>
1484

> <i_lp_mmshare_version>
43012

> <i_f3d_flags>
0

> <s_epik_input>
W0NIM11bQ0BASF0xW0NIMl1bQ0gyXVtDSDJdW0NASF0oW0NIMl0xKVtOSF1DKD1PKVtDSDJdbjJbbkhdYyg9TylbY0hdW2NIXWMyPU8=

> <s_epik_cmdline>
J2VwaWtfcHl0aG9uJywgJy1waCcsICc3LjAnLCAnLXRuJywgJzgnLCAnLW1hJywgJzIwMCcsICctbWV0YWxfYmluZGluZycsICctaW1hZScsICc8aW5maWxlLm1hZT4nLCAnLW9tYWUnLCAnPG91dGZpbGUubWFlPic=

> <r_lp_tautomer_probability>
0.9996

> <r_epik_Ionization_Penalty>
2.10343

> <r_epik_Ionization_Penalty_Charging>
3.97871e-08

> <r_epik_Ionization_Penalty_Neutral>
2.10343

> <r_epik_State_Penalty>
1.67966

> <r_epik_Charging_Adjusted_Penalty>
1.67966

> <i_epik_Tot_Q>
0

> <i_epik_Tot_abs_Q>
0

> <r_epik_Metal_State_Penalty>
1.67966

> <b_epik_Metal_Only>
0

> <s_lp_Force_Field>
OPLS_2005

> <r_lp_Energy>
18.4171

> <b_lp_Chiralities_Consistent>
1

> <s_lp_Variant>
AV-unprocessed.smi:1484-7

> <Gold.Version>
5.8.1

> <Gold.Id.Protein>
6NUR|6NUR_protein|mol2

> <Gold.PLP.Fitness>
48.7764

> <Gold.PLP.PLP>
-43.8159

> <Gold.PLP.part.hbond>
-2.5380

> <Gold.PLP.part.metal>
0.0000

> <Gold.PLP.part.buried>
-3.4869

> <Gold.PLP.part.nonpolar>
-38.5599

> <Gold.PLP.part.repulsive>
0.2148

> <Gold.PLP.ligand.clash>
0.0000

> <Gold.PLP.ligand.torsion>
0.4362

> <Gold.PLP.Chemscore.Hbond>
1.9424

> <Gold.PLP.Chemscore.CHOScore>
0.0000

> <Gold.PLP.Chemscore.Metal>
0.0000

> <Gold.Chemscore.Hbonds>
donor molecule, donor type, donor heavy atom, donor atom, acceptor molecule, acceptor atom, score
      P1  H  7989  7998       L1    12  0.82
      P1  H  7997  8009       L1    14  1.00

> <Gold.PLP.Chemscore.Internal.Correction>
0.0056

> <Gold.Rescore>
     Score         DG    S(hbond)    S(metal)    S(lipo)     H(rot)  DE(clash)    DE(int)     intcor
     13.30     -15.08       1.06        0.00     100.90       2.24       0.17       1.61       ----

> <Gold.Chemscore.Fitness>
13.3014

> <Gold.Chemscore.DG>
-15.0792

> <Gold.Chemscore.ZeroCoef>
-5.4800

> <Gold.Chemscore.Hbond>
1.0578

> <Gold.Chemscore.Metal>
0.0000

> <Gold.Chemscore.Lipo>
100.9047

> <Gold.Chemscore.Internal_Hbond>
0.0000

> <Gold.Chemscore.DEClash>
0.1710

> <Gold.Chemscore.DEInternal>
1.6068

> <Gold.Chemscore.Rot>
2.2421

> <Gold.Chemscore.Internal.Correction>
   9.000000E+99

> <Gold.Chemscore.Hbonds>
donor molecule, donor type, donor heavy atom, donor atom, acceptor molecule, acceptor atom, score
      P1  H  7989  7998       L1    12  0.04
      P1  H  7997  8009       L1    14  0.87

> <Gold.Chemscore.Hbond.Weighted>
-3.5331

> <Gold.Chemscore.Metal.Weighted>
-0.0000

> <Gold.Chemscore.Lipo.Weighted>
-11.8059

> <Gold.Chemscore.Internal_Hbond.Weighted>
0.0000

> <Gold.Chemscore.DEClash.Weighted>
0.1710

> <Gold.Chemscore.DEInternal.Weighted>
1.6068

> <Gold.Chemscore.Rot.Weighted>
5.7398

> <Gold.Chemscore.Internal.Correction.Weighted>
   9.000000E+99

> <Gold.Protein.RotatedTorsions>
[ 6907 6896 6895 6894 ] final   66.47 input  -60.11 | X-H torsion
[ 7974 7965 7964 7962 ] final  123.84 input  175.53 | X-H torsion
[ 8008 7997 7996 7995 ] final -132.44 input   59.86 | X-H torsion
[ 10167 10162 10161 10158 ] final -105.30 input  -65.29 | X-H torsion
[ 10718 10713 10712 10709 ] final    3.00 input   66.30 | X-H torsion
[ 10763 10752 10751 10750 ] final   40.10 input  -60.55 | X-H torsion
[ 11005 11000 10999 10996 ] final   27.66 input  -57.11 | X-H torsion

> <Gold.Protein.ActiveResidues>
 VAL166  LYS551  ARG553  GLY616  TRP617  ASP618  TYR619  PRO620  LYS621  CYS622 
 ASP623  PHE694  ASN695  SER759  ASP760  ASP761  ALA762  ILE779  LEU786  VAL792 
 PHE793  MET794  SER795  GLU796  ALA797  LYS798  CYS799  TRP800  GLU811  SER814 

> <Gold.Protein.RotatedAtoms>
  152.4483  134.5447  159.9849 H   0  0  0  0  0  0  0  0  0  0  0  0  # atno 6907 bound_to 6896
  151.5527  133.3409  159.2964 H   0  0  0  0  0  0  0  0  0  0  0  0  # atno 6908 bound_to 6896
  150.8405  134.7727  159.6992 H   0  0  0  0  0  0  0  0  0  0  0  0  # atno 6909 bound_to 6896
  145.0913  139.3585  143.4859 H   0  0  0  0  0  0  0  0  0  0  0  0  # atno 7974 bound_to 7965
  155.3289  140.0466  157.3042 H   0  0  0  0  0  0  0  0  0  0  0  0  # atno 8008 bound_to 7997
  154.5339  140.2266  155.8722 H   0  0  0  0  0  0  0  0  0  0  0  0  # atno 8009 bound_to 7997
  156.1816  140.3072  155.9165 H   0  0  0  0  0  0  0  0  0  0  0  0  # atno 8010 bound_to 7997
  140.2000  143.3826  152.1137 H   0  0  0  0  0  0  0  0  0  0  0  0  # atno 10167 bound_to 10162
  156.8714  130.5621  149.5657 H   0  0  0  0  0  0  0  0  0  0  0  0  # atno 10718 bound_to 10713
  152.9946  135.6201  154.2571 H   0  0  0  0  0  0  0  0  0  0  0  0  # atno 10763 bound_to 10752
  154.2308  135.2792  155.2892 H   0  0  0  0  0  0  0  0  0  0  0  0  # atno 10764 bound_to 10752
  154.5451  135.5750  153.6931 H   0  0  0  0  0  0  0  0  0  0  0  0  # atno 10765 bound_to 10752
  140.3239  134.2513  155.7712 H   0  0  0  0  0  0  0  0  0  0  0  0  # atno 11005 bound_to 11000
  146.3531  140.0748  142.8621 LP  0  0  0  0  0  0  0  0  0  0  0  0  # atno 17320 bound_to 7965
  145.1063  140.9377  143.4683 LP  0  0  0  0  0  0  0  0  0  0  0  0  # atno 17321 bound_to 7965
  139.5221  144.7054  151.5368 LP  0  0  0  0  0  0  0  0  0  0  0  0  # atno 17342 bound_to 10162
  140.6397  143.8914  150.6680 LP  0  0  0  0  0  0  0  0  0  0  0  0  # atno 17343 bound_to 10162
  156.0725  130.5754  150.9410 LP  0  0  0  0  0  0  0  0  0  0  0  0  # atno 17370 bound_to 10713
  157.6194  131.0931  150.8651 LP  0  0  0  0  0  0  0  0  0  0  0  0  # atno 17371 bound_to 10713
  141.2080  133.7790  157.0086 LP  0  0  0  0  0  0  0  0  0  0  0  0  # atno 17394 bound_to 11000
  140.0918  134.9588  157.1788 LP  0  0  0  0  0  0  0  0  0  0  0  0  # atno 17395 bound_to 11000

$$$$
