AV-unprocessed.smi:1082|AV-procd|sdf|4713|dock10
  -GOLD-   22720 3243D 1   1.00000     0.00000
 Structure written by MMmdl.
 49 51  0  0  0  0  0  0  0  0  3 V2000
  145.8446  142.0305  156.2397 O   0  0  0  0  0  0  0  0  0  0  0  0
  145.2206  141.5697  155.2841 C   0  0  0  0  0  0  0  0  0  0  0  0
  143.9341  141.8500  155.0385 N   0  0  0  0  0  0  0  0  0  0  0  0
  143.1116  142.7243  155.8636 C   0  0  0  0  0  0  0  0  0  0  0  0
  143.1499  144.1636  155.3257 C   0  0  0  0  0  0  0  0  0  0  0  0
  142.0218  144.4538  154.4089 N   0  3  0  0  0  0  0  0  0  0  0  0
  140.7306  143.8560  154.8287 C   0  0  0  0  0  0  0  0  0  0  0  0
  139.6751  144.9641  154.7413 C   0  0  0  0  0  0  0  0  0  0  0  0
  140.2987  146.0002  153.8148 C   0  0  0  0  0  0  0  0  0  0  0  0
  141.7842  145.8904  154.1434 C   0  0  0  0  0  0  0  0  0  0  0  0
  145.7169  140.7167  154.3725 N   0  0  0  0  0  0  0  0  0  0  0  0
  147.0250  140.1574  154.3132 C   0  0  0  0  0  0  0  0  0  0  0  0
  148.1728  140.8452  154.7832 C   0  0  0  0  0  0  0  0  0  0  0  0
  149.4414  140.2411  154.6761 C   0  0  0  0  0  0  0  0  0  0  0  0
  149.5457  138.9638  154.0948 C   0  0  0  0  0  0  0  0  0  0  0  0
  148.4363  138.3413  153.6444 N   0  3  0  0  0  0  0  0  0  0  0  0
  147.1945  138.8802  153.7206 C   0  0  0  0  0  0  0  0  0  0  0  0
  146.1060  138.1426  153.2233 N   0  0  0  0  0  0  0  0  0  0  0  0
  146.1842  137.8147  151.8025 C   0  0  0  0  0  0  0  0  0  0  0  0
  145.5608  136.4274  151.6523 C   0  0  0  0  0  0  0  0  0  0  0  0
  145.8951  135.7665  152.9832 C   0  0  0  0  0  0  0  0  0  0  0  0
  145.7996  136.9280  153.9735 C   0  0  0  0  0  0  0  0  0  0  0  0
  143.4944  141.4273  154.2339 H   0  0  0  0  0  0  0  0  0  0  0  0
  142.0895  142.3426  155.8695 H   0  0  0  0  0  0  0  0  0  0  0  0
  143.4730  142.6988  156.8930 H   0  0  0  0  0  0  0  0  0  0  0  0
  143.0978  144.8560  156.1675 H   0  0  0  0  0  0  0  0  0  0  0  0
  144.0953  144.3581  154.8164 H   0  0  0  0  0  0  0  0  0  0  0  0
  140.4917  143.0417  154.1440 H   0  0  0  0  0  0  0  0  0  0  0  0
  140.7698  143.4378  155.8358 H   0  0  0  0  0  0  0  0  0  0  0  0
  138.7102  144.6025  154.3847 H   0  0  0  0  0  0  0  0  0  0  0  0
  139.5222  145.4032  155.7282 H   0  0  0  0  0  0  0  0  0  0  0  0
  140.1236  145.7232  152.7744 H   0  0  0  0  0  0  0  0  0  0  0  0
  139.9027  147.0041  153.9700 H   0  0  0  0  0  0  0  0  0  0  0  0
  142.0010  146.4760  155.0385 H   0  0  0  0  0  0  0  0  0  0  0  0
  142.4168  146.2617  153.3366 H   0  0  0  0  0  0  0  0  0  0  0  0
  145.0594  140.3533  153.6983 H   0  0  0  0  0  0  0  0  0  0  0  0
  148.1043  141.8332  155.2125 H   0  0  0  0  0  0  0  0  0  0  0  0
  150.3231  140.7540  155.0317 H   0  0  0  0  0  0  0  0  0  0  0  0
  150.4756  138.4275  153.9721 H   0  0  0  0  0  0  0  0  0  0  0  0
  145.6519  138.5556  151.2055 H   0  0  0  0  0  0  0  0  0  0  0  0
  147.2194  137.7970  151.4582 H   0  0  0  0  0  0  0  0  0  0  0  0
  144.4785  136.5142  151.5439 H   0  0  0  0  0  0  0  0  0  0  0  0
  145.9452  135.8783  150.7922 H   0  0  0  0  0  0  0  0  0  0  0  0
  145.2283  134.9405  153.2312 H   0  0  0  0  0  0  0  0  0  0  0  0
  146.9161  135.3826  152.9588 H   0  0  0  0  0  0  0  0  0  0  0  0
  146.4549  136.7769  154.8327 H   0  0  0  0  0  0  0  0  0  0  0  0
  144.7811  137.0155  154.3528 H   0  0  0  0  0  0  0  0  0  0  0  0
  142.2425  144.0303  153.5186 H   0  0  0  0  0  0  0  0  0  0  0  0
  148.5387  137.4177  153.2233 H   0  0  0  0  0  0  0  0  0  0  0  0
  1  2  2  0  0  0  0
  2  3  1  0  0  0  0
  2 11  1  0  0  0  0
  3  4  1  0  0  0  0
  3 23  1  0  0  0  0
  4  5  1  0  0  0  0
  4 24  1  0  0  0  0
  4 25  1  0  0  0  0
  5  6  1  0  0  0  0
  5 26  1  0  0  0  0
  5 27  1  0  0  0  0
  6 10  1  0  0  0  0
  6  7  1  0  0  0  0
  6 48  1  0  0  0  0
  7  8  1  0  0  0  0
  7 28  1  0  0  0  0
  7 29  1  0  0  0  0
  8  9  1  0  0  0  0
  8 30  1  0  0  0  0
  8 31  1  0  0  0  0
  9 10  1  0  0  0  0
  9 32  1  0  0  0  0
  9 33  1  0  0  0  0
 10 34  1  0  0  0  0
 10 35  1  0  0  0  0
 11 12  1  0  0  0  0
 11 36  1  0  0  0  0
 12 17  1  0  0  0  0
 12 13  2  0  0  0  0
 13 14  1  0  0  0  0
 13 37  1  0  0  0  0
 14 15  2  0  0  0  0
 14 38  1  0  0  0  0
 15 16  1  0  0  0  0
 15 39  1  0  0  0  0
 16 17  2  0  0  0  0
 16 49  1  0  0  0  0
 17 18  1  0  0  0  0
 18 22  1  0  0  0  0
 18 19  1  0  0  0  0
 19 20  1  0  0  0  0
 19 40  1  0  0  0  0
 19 41  1  0  0  0  0
 20 21  1  0  0  0  0
 20 42  1  0  0  0  0
 20 43  1  0  0  0  0
 21 22  1  0  0  0  0
 21 44  1  0  0  0  0
 21 45  1  0  0  0  0
 22 46  1  0  0  0  0
 22 47  1  0  0  0  0
M  CHG  1   6   1
M  CHG  1  16   1
M  END
> <s_m_source_file>
AV-unprocessed.smi

> <i_m_source_file_index>
1082

> <i_lp_mmshare_version>
43012

> <i_f3d_flags>
0

> <s_epik_input>
W0NIMl0xW0NIMl1bQ0gyXVtDSDJdTjFbQ0gyXVtDSDJdW05IXUMoPU8pW05IXWMyW2NIXVtjSF1bY0hdbmMyTjNbQ0gyXVtDSDJdW0NIMl1bQ0gyXTM=

> <s_epik_cmdline>
J2VwaWtfcHl0aG9uJywgJy1waCcsICc3LjAnLCAnLXRuJywgJzgnLCAnLW1hJywgJzIwMCcsICctbWV0YWxfYmluZGluZycsICctaW1hZScsICc8aW5maWxlLm1hZT4nLCAnLW9tYWUnLCAnPG91dGZpbGUubWFlPic=

> <r_lp_tautomer_probability>
0.999994

> <r_epik_Ionization_Penalty>
1.21588

> <r_epik_Ionization_Penalty_Charging>
1.21586

> <r_epik_Ionization_Penalty_Neutral>
1.99004e-05

> <r_epik_State_Penalty>
1.28011

> <r_epik_Charging_Adjusted_Penalty>
2.49596

> <i_epik_Tot_Q>
2

> <i_epik_Tot_abs_Q>
2

> <r_epik_Metal_State_Penalty>
1.35385

> <b_epik_Metal_Only>
0

> <s_lp_Force_Field>
OPLS_2005

> <r_lp_Energy>
65.6653

> <b_lp_Chiralities_Consistent>
1

> <s_lp_Variant>
AV-unprocessed.smi:1082-2

> <Gold.Version>
5.8.1

> <Gold.Id.Protein>
6NUR|6NUR_protein|mol2

> <Gold.PLP.Fitness>
43.5812

> <Gold.PLP.PLP>
-27.1369

> <Gold.PLP.part.hbond>
-4.7267

> <Gold.PLP.part.metal>
0.0000

> <Gold.PLP.part.buried>
-0.9850

> <Gold.PLP.part.nonpolar>
-22.5310

> <Gold.PLP.part.repulsive>
0.4006

> <Gold.PLP.ligand.clash>
0.0000

> <Gold.PLP.ligand.torsion>
0.8175

> <Gold.PLP.Chemscore.Hbond>
6.0000

> <Gold.PLP.Chemscore.CHOScore>
0.0000

> <Gold.PLP.Chemscore.Metal>
0.0000

> <Gold.Chemscore.Hbonds>
donor molecule, donor type, donor heavy atom, donor atom, acceptor molecule, acceptor atom, score
      L1  H     3    23       P1 10175  0.90
      L1  H     6    48       P1 10174  1.66
      L1  H    11    36       P1 10175  1.00
      L1  H    16    49       P1  7948  2.00

> <Gold.PLP.Chemscore.Internal.Correction>
0.0795

> <Gold.Rescore>
     Score         DG    S(hbond)    S(metal)    S(lipo)     H(rot)  DE(clash)    DE(int)     intcor
     18.96     -20.92       3.40        0.00      70.62       1.63       0.16       1.80       ----

> <Gold.Chemscore.Fitness>
18.9583

> <Gold.Chemscore.DG>
-20.9196

> <Gold.Chemscore.ZeroCoef>
-5.4800

> <Gold.Chemscore.Hbond>
3.4000

> <Gold.Chemscore.Metal>
0.0000

> <Gold.Chemscore.Lipo>
70.6172

> <Gold.Chemscore.Internal_Hbond>
0.0000

> <Gold.Chemscore.DEClash>
0.1629

> <Gold.Chemscore.DEInternal>
1.7984

> <Gold.Chemscore.Rot>
1.6323

> <Gold.Chemscore.Internal.Correction>
   9.000000E+99

> <Gold.Chemscore.Hbonds>
donor molecule, donor type, donor heavy atom, donor atom, acceptor molecule, acceptor atom, score
      L1  H     3    23       P1 10175  0.17
      L1  H     6    48       P1 10174  0.82
      L1  H    11    36       P1 10175  0.98
      L1  H    16    49       P1  7948  0.98

> <Gold.Chemscore.Hbond.Weighted>
-11.3560

> <Gold.Chemscore.Metal.Weighted>
-0.0000

> <Gold.Chemscore.Lipo.Weighted>
-8.2622

> <Gold.Chemscore.Internal_Hbond.Weighted>
0.0000

> <Gold.Chemscore.DEClash.Weighted>
0.1629

> <Gold.Chemscore.DEInternal.Weighted>
1.7984

> <Gold.Chemscore.Rot.Weighted>
4.1786

> <Gold.Chemscore.Internal.Correction.Weighted>
   9.000000E+99

> <Gold.Protein.RotatedTorsions>
[ 6907 6896 6895 6894 ] final  117.54 input  -60.11 | X-H torsion
[ 7974 7965 7964 7962 ] final -108.26 input  175.53 | X-H torsion
[ 8008 7997 7996 7995 ] final  -22.42 input   59.86 | X-H torsion
[ 10167 10162 10161 10158 ] final  -74.95 input  -65.29 | X-H torsion
[ 10718 10713 10712 10709 ] final -151.48 input   66.30 | X-H torsion
[ 10763 10752 10751 10750 ] final   -6.66 input  -60.55 | X-H torsion
[ 11005 11000 10999 10996 ] final  -28.73 input  -57.11 | X-H torsion

> <Gold.Protein.ActiveResidues>
 VAL166  LYS551  ARG553  GLY616  TRP617  ASP618  TYR619  PRO620  LYS621  CYS622 
 ASP623  PHE694  ASN695  SER759  ASP760  ASP761  ALA762  ILE779  LEU786  VAL792 
 PHE793  MET794  SER795  GLU796  ALA797  LYS798  CYS799  TRP800  GLU811  SER814 

> <Gold.Protein.RotatedAtoms>
  152.4605  133.7812  159.6851 H   0  0  0  0  0  0  0  0  0  0  0  0  # atno 6907 bound_to 6896
  150.8547  133.7723  159.3019 H   0  0  0  0  0  0  0  0  0  0  0  0  # atno 6908 bound_to 6896
  151.5307  135.1071  159.9954 H   0  0  0  0  0  0  0  0  0  0  0  0  # atno 6909 bound_to 6896
  145.1951  140.9032  143.3402 H   0  0  0  0  0  0  0  0  0  0  0  0  # atno 7974 bound_to 7965
  154.4645  140.2008  156.0155 H   0  0  0  0  0  0  0  0  0  0  0  0  # atno 8008 bound_to 7997
  156.0902  140.3259  155.7777 H   0  0  0  0  0  0  0  0  0  0  0  0  # atno 8009 bound_to 7997
  155.4969  140.0550  157.2936 H   0  0  0  0  0  0  0  0  0  0  0  0  # atno 8010 bound_to 7997
  140.4984  143.2366  151.7792 H   0  0  0  0  0  0  0  0  0  0  0  0  # atno 10167 bound_to 10162
  156.4598  130.8208  151.2439 H   0  0  0  0  0  0  0  0  0  0  0  0  # atno 10718 bound_to 10713
  153.4155  135.7008  153.6330 H   0  0  0  0  0  0  0  0  0  0  0  0  # atno 10763 bound_to 10752
  153.4806  135.3694  155.2440 H   0  0  0  0  0  0  0  0  0  0  0  0  # atno 10764 bound_to 10752
  154.8719  135.4065  154.3514 H   0  0  0  0  0  0  0  0  0  0  0  0  # atno 10765 bound_to 10752
  140.9234  133.7384  156.0833 H   0  0  0  0  0  0  0  0  0  0  0  0  # atno 11005 bound_to 11000
  145.0003  139.3605  143.6171 LP  0  0  0  0  0  0  0  0  0  0  0  0  # atno 17320 bound_to 7965
  146.3429  139.9223  142.8765 LP  0  0  0  0  0  0  0  0  0  0  0  0  # atno 17321 bound_to 7965
  139.4866  144.4555  151.9603 LP  0  0  0  0  0  0  0  0  0  0  0  0  # atno 17342 bound_to 10162
  140.3643  144.2934  150.5929 LP  0  0  0  0  0  0  0  0  0  0  0  0  # atno 17343 bound_to 10162
  157.7498  131.0111  150.3331 LP  0  0  0  0  0  0  0  0  0  0  0  0  # atno 17370 bound_to 10713
  156.3728  130.3866  149.7162 LP  0  0  0  0  0  0  0  0  0  0  0  0  # atno 17371 bound_to 10713
  140.7958  134.3565  157.5453 LP  0  0  0  0  0  0  0  0  0  0  0  0  # atno 17394 bound_to 11000
  139.8780  134.9168  156.3163 LP  0  0  0  0  0  0  0  0  0  0  0  0  # atno 17395 bound_to 11000

$$$$
