AV-unprocessed.smi:442|AV-procd|sdf|2583|dock3
  -GOLD-   2262022573D 1   1.00000     0.00000
 Structure written by MMmdl.
 37 37  0  0  0  0  0  0  0  0  3 V2000
  153.0793  142.7687  160.5826 C   0  0  0  0  0  0  0  0  0  0  0  0
  152.6080  142.4745  159.1510 C   0  0  0  0  0  0  0  0  0  0  0  0
  152.1172  143.7186  158.3846 C   0  0  2  0  0  0  0  0  0  0  0  0
  151.4097  144.7136  159.3153 C   0  0  0  0  0  0  0  0  0  0  0  0
  151.2018  143.3363  157.3104 N   0  0  0  0  0  0  0  0  0  0  0  0
  150.2453  142.3974  157.3847 C   0  0  0  0  0  0  0  0  0  0  0  0
  150.0111  141.7454  158.4032 O   0  0  0  0  0  0  0  0  0  0  0  0
  149.4142  142.1882  156.1108 C   0  0  0  0  0  0  0  0  0  0  0  0
  149.4755  140.8076  155.5966 N   0  0  0  0  0  0  0  0  0  0  0  0
  150.7525  140.3144  155.2747 C   0  0  0  0  0  0  0  0  0  0  0  0
  150.9412  139.0753  154.7885 C   0  0  0  0  0  0  0  0  0  0  0  0
  152.2653  138.5934  154.4583 N   0  3  0  0  0  0  0  0  0  0  0  0
  152.3831  137.4644  153.9931 O   0  0  0  0  0  0  0  0  0  0  0  0
  153.2313  139.3252  154.6533 O   0  5  0  0  0  0  0  0  0  0  0  0
  149.7750  138.2372  154.6004 C   0  0  0  0  0  0  0  0  0  0  0  0
  148.5319  138.6938  154.8995 C   0  0  0  0  0  0  0  0  0  0  0  0
  147.3129  137.8723  154.7245 C   0  0  0  0  0  0  0  0  0  0  0  0
  147.3724  137.0078  153.7037 N   0  0  0  0  0  0  0  0  0  0  0  0
  146.2897  137.9125  155.4072 O   0  0  0  0  0  0  0  0  0  0  0  0
  148.3333  140.0694  155.4320 C   0  0  0  0  0  0  0  0  0  0  0  0
  147.2393  140.5620  155.7206 O   0  0  0  0  0  0  0  0  0  0  0  0
  153.3577  141.8473  161.0944 H   0  0  0  0  0  0  0  0  0  0  0  0
  152.2920  143.2475  161.1655 H   0  0  0  0  0  0  0  0  0  0  0  0
  153.9499  143.4247  160.5920 H   0  0  0  0  0  0  0  0  0  0  0  0
  153.4168  141.9948  158.5982 H   0  0  0  0  0  0  0  0  0  0  0  0
  151.7995  141.7439  159.1976 H   0  0  0  0  0  0  0  0  0  0  0  0
  152.9900  144.2282  157.9723 H   0  0  0  0  0  0  0  0  0  0  0  0
  152.0733  145.0420  160.1157 H   0  0  0  0  0  0  0  0  0  0  0  0
  150.5268  144.2697  159.7767 H   0  0  0  0  0  0  0  0  0  0  0  0
  151.0898  145.6022  158.7699 H   0  0  0  0  0  0  0  0  0  0  0  0
  151.3116  143.8233  156.4329 H   0  0  0  0  0  0  0  0  0  0  0  0
  148.3840  142.4715  156.3303 H   0  0  0  0  0  0  0  0  0  0  0  0
  149.7405  142.8934  155.3438 H   0  0  0  0  0  0  0  0  0  0  0  0
  151.5585  141.0146  155.4405 H   0  0  0  0  0  0  0  0  0  0  0  0
  149.9264  137.2392  154.2175 H   0  0  0  0  0  0  0  0  0  0  0  0
  146.5896  136.4023  153.5052 H   0  0  0  0  0  0  0  0  0  0  0  0
  148.2057  136.9646  153.1350 H   0  0  0  0  0  0  0  0  0  0  0  0
  1  2  1  0  0  0  0
  1 22  1  0  0  0  0
  1 23  1  0  0  0  0
  1 24  1  0  0  0  0
  2  3  1  0  0  0  0
  2 25  1  0  0  0  0
  2 26  1  0  0  0  0
  3  4  1  0  0  0  0
  3  5  1  0  0  0  0
  3 27  1  0  0  0  0
  4 28  1  0  0  0  0
  4 29  1  0  0  0  0
  4 30  1  0  0  0  0
  5  6  1  0  0  0  0
  5 31  1  0  0  0  0
  6  7  2  0  0  0  0
  6  8  1  0  0  0  0
  8  9  1  0  0  0  0
  8 32  1  0  0  0  0
  8 33  1  0  0  0  0
  9 20  1  0  0  0  0
  9 10  1  0  0  0  0
 10 11  2  0  0  0  0
 10 34  1  0  0  0  0
 11 12  1  0  0  0  0
 11 15  1  0  0  0  0
 12 13  2  0  0  0  0
 12 14  1  0  0  0  0
 15 16  2  0  0  0  0
 15 35  1  0  0  0  0
 16 17  1  0  0  0  0
 16 20  1  0  0  0  0
 17 18  1  0  0  0  0
 17 19  2  0  0  0  0
 18 36  1  0  0  0  0
 18 37  1  0  0  0  0
 20 21  2  0  0  0  0
M  CHG  1  12   1
M  CHG  1  14  -1
M  END
> <s_m_source_file>
AV-unprocessed.smi

> <i_m_source_file_index>
442

> <i_lp_mmshare_version>
43012

> <i_f3d_flags>
0

> <s_epik_input>
W0NIM11bQ0gyXVtDQEhdKFtDSDNdKVtOSF1DKD1PKVtDSDJdbjFbY0hdYyhbTitdKD1PKVtPLV0pW2NIXWMoYzE9TylDKD1PKVtOSDJd

> <s_epik_cmdline>
J2VwaWtfcHl0aG9uJywgJy1waCcsICc3LjAnLCAnLXRuJywgJzgnLCAnLW1hJywgJzIwMCcsICctbWV0YWxfYmluZGluZycsICctaW1hZScsICc8aW5maWxlLm1hZT4nLCAnLW9tYWUnLCAnPG91dGZpbGUubWFlPic=

> <r_lp_tautomer_probability>
1

> <r_epik_Ionization_Penalty>
2.86914e-06

> <r_epik_Ionization_Penalty_Charging>
2.2828e-12

> <r_epik_Ionization_Penalty_Neutral>
2.86914e-06

> <r_epik_State_Penalty>
-0

> <r_epik_Charging_Adjusted_Penalty>
2.2828e-12

> <i_epik_Tot_Q>
0

> <i_epik_Tot_abs_Q>
2

> <r_epik_Metal_State_Penalty>
-0

> <b_epik_Metal_Only>
0

> <s_lp_Force_Field>
OPLS_2005

> <r_lp_Energy>
21.8648

> <b_lp_Chiralities_Consistent>
1

> <s_lp_Variant>
AV-unprocessed.smi:442-1

> <Gold.Version>
5.8.1

> <Gold.Id.Protein>
6NUR|6NUR_protein|mol2

> <Gold.PLP.Fitness>
41.3953

> <Gold.PLP.PLP>
-35.4470

> <Gold.PLP.part.hbond>
-4.4137

> <Gold.PLP.part.metal>
0.0000

> <Gold.PLP.part.buried>
-2.4216

> <Gold.PLP.part.nonpolar>
-30.0363

> <Gold.PLP.part.repulsive>
0.2260

> <Gold.PLP.ligand.clash>
0.0000

> <Gold.PLP.ligand.torsion>
0.9920

> <Gold.PLP.Chemscore.Hbond>
2.6160

> <Gold.PLP.Chemscore.CHOScore>
0.0000

> <Gold.PLP.Chemscore.Metal>
0.0000

> <Gold.Chemscore.Hbonds>
donor molecule, donor type, donor heavy atom, donor atom, acceptor molecule, acceptor atom, score
      L1  H    18    37       P1  7948  0.93
      P1  H  7997  8008       L1    14  1.00
      P1  H 10752 10763       L1    13  0.77

> <Gold.PLP.Chemscore.Internal.Correction>
0.0842

> <Gold.Rescore>
     Score         DG    S(hbond)    S(metal)    S(lipo)     H(rot)  DE(clash)    DE(int)     intcor
     14.15     -17.98       2.71        0.00      74.10       2.03       1.30       2.54       ----

> <Gold.Chemscore.Fitness>
14.1489

> <Gold.Chemscore.DG>
-17.9829

> <Gold.Chemscore.ZeroCoef>
-5.4800

> <Gold.Chemscore.Hbond>
2.7066

> <Gold.Chemscore.Metal>
0.0000

> <Gold.Chemscore.Lipo>
74.1010

> <Gold.Chemscore.Internal_Hbond>
0.0000

> <Gold.Chemscore.DEClash>
1.2953

> <Gold.Chemscore.DEInternal>
2.5386

> <Gold.Chemscore.Rot>
2.0340

> <Gold.Chemscore.Internal.Correction>
   9.000000E+99

> <Gold.Chemscore.Hbonds>
donor molecule, donor type, donor heavy atom, donor atom, acceptor molecule, acceptor atom, score
      L1  H    18    37       P1  7948  0.91
      P1  H  7997  8008       L1    14  0.99
      P1  H 10752 10763       L1    13  0.78

> <Gold.Chemscore.Hbond.Weighted>
-9.0401

> <Gold.Chemscore.Metal.Weighted>
-0.0000

> <Gold.Chemscore.Lipo.Weighted>
-8.6698

> <Gold.Chemscore.Internal_Hbond.Weighted>
0.0000

> <Gold.Chemscore.DEClash.Weighted>
1.2953

> <Gold.Chemscore.DEInternal.Weighted>
2.5386

> <Gold.Chemscore.Rot.Weighted>
5.2071

> <Gold.Chemscore.Internal.Correction.Weighted>
   9.000000E+99

> <Gold.Protein.RotatedTorsions>
[ 6907 6896 6895 6894 ] final  120.65 input  -60.11 | X-H torsion
[ 7974 7965 7964 7962 ] final  126.23 input  175.53 | X-H torsion
[ 8008 7997 7996 7995 ] final   -2.31 input   59.86 | X-H torsion
[ 10167 10162 10161 10158 ] final  -59.75 input  -65.29 | X-H torsion
[ 10718 10713 10712 10709 ] final   30.90 input   66.30 | X-H torsion
[ 10763 10752 10751 10750 ] final   27.65 input  -60.55 | X-H torsion
[ 11005 11000 10999 10996 ] final  110.33 input  -57.11 | X-H torsion

> <Gold.Protein.ActiveResidues>
 VAL166  LYS551  ARG553  GLY616  TRP617  ASP618  TYR619  PRO620  LYS621  CYS622 
 ASP623  PHE694  ASN695  SER759  ASP760  ASP761  ALA762  ILE779  LEU786  VAL792 
 PHE793  MET794  SER795  GLU796  ALA797  LYS798  CYS799  TRP800  GLU811  SER814 

> <Gold.Protein.RotatedAtoms>
  152.4382  133.7398  159.6634 H   0  0  0  0  0  0  0  0  0  0  0  0  # atno 6907 bound_to 6896
  150.8268  133.8147  159.3121 H   0  0  0  0  0  0  0  0  0  0  0  0  # atno 6908 bound_to 6896
  151.5813  135.1060  160.0069 H   0  0  0  0  0  0  0  0  0  0  0  0  # atno 6909 bound_to 6896
  145.0640  139.3782  143.4991 H   0  0  0  0  0  0  0  0  0  0  0  0  # atno 7974 bound_to 7965
  154.6371  140.2537  155.7365 H   0  0  0  0  0  0  0  0  0  0  0  0  # atno 8008 bound_to 7997
  156.2510  140.2895  156.0669 H   0  0  0  0  0  0  0  0  0  0  0  0  # atno 8009 bound_to 7997
  155.1653  140.0385  157.2842 H   0  0  0  0  0  0  0  0  0  0  0  0  # atno 8010 bound_to 7997
  140.6115  143.2389  151.5698 H   0  0  0  0  0  0  0  0  0  0  0  0  # atno 10167 bound_to 10162
  157.2655  130.7182  149.6476 H   0  0  0  0  0  0  0  0  0  0  0  0  # atno 10718 bound_to 10713
  153.0542  135.6532  154.0619 H   0  0  0  0  0  0  0  0  0  0  0  0  # atno 10763 bound_to 10752
  154.0300  135.2912  155.3371 H   0  0  0  0  0  0  0  0  0  0  0  0  # atno 10764 bound_to 10752
  154.6848  135.5306  153.8378 H   0  0  0  0  0  0  0  0  0  0  0  0  # atno 10765 bound_to 10752
  139.8879  134.9481  156.6262 H   0  0  0  0  0  0  0  0  0  0  0  0  # atno 11005 bound_to 11000
  146.3526  140.0352  142.8647 LP  0  0  0  0  0  0  0  0  0  0  0  0  # atno 17320 bound_to 7965
  145.1374  140.9552  143.4509 LP  0  0  0  0  0  0  0  0  0  0  0  0  # atno 17321 bound_to 7965
  139.5365  144.2767  152.1262 LP  0  0  0  0  0  0  0  0  0  0  0  0  # atno 17342 bound_to 10162
  140.1967  144.4698  150.6452 LP  0  0  0  0  0  0  0  0  0  0  0  0  # atno 17343 bound_to 10162
  155.9663  130.4384  150.5215 LP  0  0  0  0  0  0  0  0  0  0  0  0  # atno 17370 bound_to 10713
  157.3129  131.0667  151.1988 LP  0  0  0  0  0  0  0  0  0  0  0  0  # atno 17371 bound_to 10713
  140.7702  133.8745  155.8485 LP  0  0  0  0  0  0  0  0  0  0  0  0  # atno 17394 bound_to 11000
  140.9849  134.1357  157.4461 LP  0  0  0  0  0  0  0  0  0  0  0  0  # atno 17395 bound_to 11000

$$$$
