AV-unprocessed.smi:841|AV-procd|sdf|3916|dock5
  -GOLD-   22720 1383D 1   1.00000     0.00000
 Structure written by MMmdl.
 30 31  0  0  0  0  0  0  0  0  1 V2000
  154.4411  140.3185  159.2988 O   0  0  0  0  0  0  0  0  0  0  0  0
  153.3113  140.7469  159.5343 C   0  0  0  0  0  0  0  0  0  0  0  0
  153.0908  141.7486  160.6708 C   0  0  0  0  0  0  0  0  0  0  0  0
  152.6064  143.0241  160.1709 N   0  0  0  0  0  0  0  0  0  0  0  0
  152.6068  143.4943  158.8734 C   0  0  0  0  0  0  0  0  0  0  0  0
  152.0623  144.7464  158.8935 C   0  0  0  0  0  0  0  0  0  0  0  0
  151.7602  144.9611  160.2671 C   0  0  0  0  0  0  0  0  0  0  0  0
  152.0900  143.9308  161.0292 N   0  0  0  0  0  0  0  0  0  0  0  0
  152.2226  140.3858  158.8369 N   0  0  0  0  0  0  0  0  0  0  0  0
  152.2037  139.4508  157.7161 C   0  0  0  0  0  0  0  0  0  0  0  0
  151.0366  139.7338  156.7516 C   0  0  1  0  0  0  0  0  0  0  0  0
  150.6933  141.1993  156.5636 C   0  0  0  0  0  0  0  0  0  0  0  0
  149.9062  141.1779  155.2567 C   0  0  0  0  0  0  0  0  0  0  0  0
  150.4271  140.0861  154.5037 O   0  0  0  0  0  0  0  0  0  0  0  0
  151.3158  139.3168  155.3081 C   0  0  0  0  0  0  0  0  0  0  0  0
  152.3720  141.3346  161.3798 H   0  0  0  0  0  0  0  0  0  0  0  0
  154.0177  141.9234  161.2190 H   0  0  0  0  0  0  0  0  0  0  0  0
  152.9890  142.9040  158.0536 H   0  0  0  0  0  0  0  0  0  0  0  0
  151.9054  145.4087  158.0551 H   0  0  0  0  0  0  0  0  0  0  0  0
  151.3168  145.8302  160.7304 H   0  0  0  0  0  0  0  0  0  0  0  0
  151.3371  140.7924  159.1017 H   0  0  0  0  0  0  0  0  0  0  0  0
  153.1559  139.4622  157.1829 H   0  0  0  0  0  0  0  0  0  0  0  0
  152.0989  138.4464  158.1270 H   0  0  0  0  0  0  0  0  0  0  0  0
  150.1448  139.2075  157.0965 H   0  0  0  0  0  0  0  0  0  0  0  0
  150.1229  141.6190  157.3927 H   0  0  0  0  0  0  0  0  0  0  0  0
  151.6023  141.7899  156.4412 H   0  0  0  0  0  0  0  0  0  0  0  0
  148.8494  140.9910  155.4516 H   0  0  0  0  0  0  0  0  0  0  0  0
  149.9882  142.1162  154.7080 H   0  0  0  0  0  0  0  0  0  0  0  0
  152.3390  139.5659  155.0236 H   0  0  0  0  0  0  0  0  0  0  0  0
  151.1716  138.2483  155.1471 H   0  0  0  0  0  0  0  0  0  0  0  0
  1  2  2  0  0  0  0
  2  3  1  0  0  0  0
  2  9  1  0  0  0  0
  3  4  1  0  0  0  0
  3 16  1  0  0  0  0
  3 17  1  0  0  0  0
  4  8  1  0  0  0  0
  4  5  1  0  0  0  0
  5  6  2  0  0  0  0
  5 18  1  0  0  0  0
  6  7  1  0  0  0  0
  6 19  1  0  0  0  0
  7  8  2  0  0  0  0
  7 20  1  0  0  0  0
  9 10  1  0  0  0  0
  9 21  1  0  0  0  0
 10 11  1  0  0  0  0
 10 22  1  0  0  0  0
 10 23  1  0  0  0  0
 11 15  1  0  0  0  0
 11 12  1  0  0  0  0
 11 24  1  0  0  0  0
 12 13  1  0  0  0  0
 12 25  1  0  0  0  0
 12 26  1  0  0  0  0
 13 14  1  0  0  0  0
 13 27  1  0  0  0  0
 13 28  1  0  0  0  0
 14 15  1  0  0  0  0
 15 29  1  0  0  0  0
 15 30  1  0  0  0  0
M  END
> <s_m_source_file>
AV-unprocessed.smi

> <i_m_source_file_index>
841

> <i_lp_mmshare_version>
43012

> <i_f3d_flags>
0

> <s_epik_input>
bjFbY0hdW2NIXVtjSF1uMVtDSDJdQyg9TylbTkhdW0NIMl1bQ0BASF0yW0NIMl1bQ0gyXU9bQ0gyXTI=

> <s_epik_cmdline>
J2VwaWtfcHl0aG9uJywgJy1waCcsICc3LjAnLCAnLXRuJywgJzgnLCAnLW1hJywgJzIwMCcsICctbWV0YWxfYmluZGluZycsICctaW1hZScsICc8aW5maWxlLm1hZT4nLCAnLW9tYWUnLCAnPG91dGZpbGUubWFlPic=

> <r_lp_tautomer_probability>
1

> <r_epik_Ionization_Penalty>
1.49823e-05

> <r_epik_Ionization_Penalty_Charging>
0

> <r_epik_Ionization_Penalty_Neutral>
1.49823e-05

> <r_epik_State_Penalty>
-0

> <r_epik_Charging_Adjusted_Penalty>
0

> <i_epik_Tot_Q>
0

> <i_epik_Tot_abs_Q>
0

> <r_epik_Metal_State_Penalty>
-0

> <b_epik_Metal_Only>
0

> <s_lp_Force_Field>
OPLS_2005

> <r_lp_Energy>
18.8738

> <b_lp_Chiralities_Consistent>
1

> <s_lp_Variant>
AV-unprocessed.smi:841-2

> <Gold.Version>
5.8.1

> <Gold.Id.Protein>
6NUR|6NUR_protein|mol2

> <Gold.PLP.Fitness>
42.1514

> <Gold.PLP.PLP>
-37.9933

> <Gold.PLP.part.hbond>
-2.0000

> <Gold.PLP.part.metal>
0.0000

> <Gold.PLP.part.buried>
-2.9743

> <Gold.PLP.part.nonpolar>
-32.7107

> <Gold.PLP.part.repulsive>
0.3284

> <Gold.PLP.ligand.clash>
0.0000

> <Gold.PLP.ligand.torsion>
0.6740

> <Gold.PLP.Chemscore.Hbond>
1.8320

> <Gold.PLP.Chemscore.CHOScore>
0.0000

> <Gold.PLP.Chemscore.Metal>
0.0000

> <Gold.Chemscore.Hbonds>
donor molecule, donor type, donor heavy atom, donor atom, acceptor molecule, acceptor atom, score
      P1  H  7989  7998       L1    14  0.90
      P1  H  7997  8008       L1     1  0.74

> <Gold.PLP.Chemscore.Internal.Correction>
0.0100

> <Gold.Rescore>
     Score         DG    S(hbond)    S(metal)    S(lipo)     H(rot)  DE(clash)    DE(int)     intcor
     13.71     -14.22       1.10        0.00      80.01       1.68       0.08       0.43       ----

> <Gold.Chemscore.Fitness>
13.7052

> <Gold.Chemscore.DG>
-14.2247

> <Gold.Chemscore.ZeroCoef>
-5.4800

> <Gold.Chemscore.Hbond>
1.1010

> <Gold.Chemscore.Metal>
0.0000

> <Gold.Chemscore.Lipo>
80.0059

> <Gold.Chemscore.Internal_Hbond>
0.0000

> <Gold.Chemscore.DEClash>
0.0849

> <Gold.Chemscore.DEInternal>
0.4345

> <Gold.Chemscore.Rot>
1.6771

> <Gold.Chemscore.Internal.Correction>
   9.000000E+99

> <Gold.Chemscore.Hbonds>
donor molecule, donor type, donor heavy atom, donor atom, acceptor molecule, acceptor atom, score
      P1  H  7989  7998       L1    14  0.06
      P1  H  7997  8008       L1     1  0.70

> <Gold.Chemscore.Hbond.Weighted>
-3.6773

> <Gold.Chemscore.Metal.Weighted>
-0.0000

> <Gold.Chemscore.Lipo.Weighted>
-9.3607

> <Gold.Chemscore.Internal_Hbond.Weighted>
0.0000

> <Gold.Chemscore.DEClash.Weighted>
0.0849

> <Gold.Chemscore.DEInternal.Weighted>
0.4345

> <Gold.Chemscore.Rot.Weighted>
4.2934

> <Gold.Chemscore.Internal.Correction.Weighted>
   9.000000E+99

> <Gold.Protein.RotatedTorsions>
[ 6907 6896 6895 6894 ] final  177.62 input  -60.11 | X-H torsion
[ 7974 7965 7964 7962 ] final -149.00 input  175.53 | X-H torsion
[ 8008 7997 7996 7995 ] final -120.42 input   59.86 | X-H torsion
[ 10167 10162 10161 10158 ] final -172.47 input  -65.29 | X-H torsion
[ 10718 10713 10712 10709 ] final  161.76 input   66.30 | X-H torsion
[ 10763 10752 10751 10750 ] final  117.43 input  -60.55 | X-H torsion
[ 11005 11000 10999 10996 ] final  -81.82 input  -57.11 | X-H torsion

> <Gold.Protein.ActiveResidues>
 VAL166  LYS551  ARG553  GLY616  TRP617  ASP618  TYR619  PRO620  LYS621  CYS622 
 ASP623  PHE694  ASN695  SER759  ASP760  ASP761  ALA762  ILE779  LEU786  VAL792 
 PHE793  MET794  SER795  GLU796  ALA797  LYS798  CYS799  TRP800  GLU811  SER814 

> <Gold.Protein.RotatedAtoms>
  151.7010  133.3311  159.3266 H   0  0  0  0  0  0  0  0  0  0  0  0  # atno 6907 bound_to 6896
  150.7736  134.6615  159.6352 H   0  0  0  0  0  0  0  0  0  0  0  0  # atno 6908 bound_to 6896
  152.3769  134.6652  160.0208 H   0  0  0  0  0  0  0  0  0  0  0  0  # atno 6909 bound_to 6896
  144.7994  140.5122  143.5717 H   0  0  0  0  0  0  0  0  0  0  0  0  # atno 7974 bound_to 7965
  155.1315  140.0400  157.2776 H   0  0  0  0  0  0  0  0  0  0  0  0  # atno 8008 bound_to 7997
  154.6539  140.2575  155.7157 H   0  0  0  0  0  0  0  0  0  0  0  0  # atno 8009 bound_to 7997
  156.2589  140.2830  156.0984 H   0  0  0  0  0  0  0  0  0  0  0  0  # atno 8010 bound_to 7997
  139.5743  144.1569  152.1428 H   0  0  0  0  0  0  0  0  0  0  0  0  # atno 10167 bound_to 10162
  157.1321  131.0519  151.2367 H   0  0  0  0  0  0  0  0  0  0  0  0  # atno 10718 bound_to 10713
  153.5522  135.3537  155.2764 H   0  0  0  0  0  0  0  0  0  0  0  0  # atno 10763 bound_to 10752
  154.8705  135.4116  154.2924 H   0  0  0  0  0  0  0  0  0  0  0  0  # atno 10764 bound_to 10752
  153.3653  135.7062  153.6749 H   0  0  0  0  0  0  0  0  0  0  0  0  # atno 10765 bound_to 10752
  141.1665  133.7214  156.8479 H   0  0  0  0  0  0  0  0  0  0  0  0  # atno 11005 bound_to 11000
  145.5591  139.1479  143.3351 LP  0  0  0  0  0  0  0  0  0  0  0  0  # atno 17320 bound_to 7965
  146.2271  140.5727  142.8991 LP  0  0  0  0  0  0  0  0  0  0  0  0  # atno 17321 bound_to 7965
  140.1109  144.5458  150.6926 LP  0  0  0  0  0  0  0  0  0  0  0  0  # atno 17342 bound_to 10162
  140.7026  143.2445  151.4819 LP  0  0  0  0  0  0  0  0  0  0  0  0  # atno 17343 bound_to 10162
  157.4383  130.7529  149.7048 LP  0  0  0  0  0  0  0  0  0  0  0  0  # atno 17370 bound_to 10713
  155.9806  130.4028  150.3521 LP  0  0  0  0  0  0  0  0  0  0  0  0  # atno 17371 bound_to 10713
  140.1936  134.8947  157.3089 LP  0  0  0  0  0  0  0  0  0  0  0  0  # atno 17394 bound_to 11000
  140.2263  134.3963  155.7542 LP  0  0  0  0  0  0  0  0  0  0  0  0  # atno 17395 bound_to 11000

$$$$
