AV-unprocessed.smi:1467|AV-procd|sdf|5955|dock8
  -GOLD-   22720 6 43D 1   1.00000     0.00000
 Structure written by MMmdl.
 40 41  0  0  0  0  0  0  0  0  1 V2000
  151.7324  141.9719  158.1986 C   0  0  0  0  0  0  0  0  0  0  0  0
  151.8955  140.7151  157.3411 C   0  0  0  0  0  0  0  0  0  0  0  0
  152.6111  139.8102  157.7708 O   0  0  0  0  0  0  0  0  0  0  0  0
  151.2562  140.6395  156.1497 N   0  0  0  0  0  0  0  0  0  0  0  0
  150.3442  141.6453  155.5962 C   0  0  0  0  0  0  0  0  0  0  0  0
  148.9348  141.0328  155.4796 C   0  0  0  0  0  0  0  0  0  0  0  0
  148.9649  139.8450  154.6164 N   0  0  0  0  0  0  0  0  0  0  0  0
  147.6412  139.2336  154.5101 C   0  0  0  0  0  0  0  0  0  0  0  0
  147.0765  139.3075  153.0778 C   0  0  0  0  0  0  0  0  0  0  0  0
  147.0465  137.9901  152.4542 N   0  0  0  0  0  0  0  0  0  0  0  0
  145.9321  137.2968  152.1809 C   0  0  0  0  0  0  0  0  0  0  0  0
  144.7982  137.7065  152.4302 O   0  0  0  0  0  0  0  0  0  0  0  0
  146.2188  136.1155  151.6103 N   0  0  0  0  0  0  0  0  0  0  0  0
  145.3005  135.1198  151.1926 C   0  0  0  0  0  0  0  0  0  0  0  0
  145.4805  133.7084  151.0987 C   0  0  0  0  0  0  0  0  0  0  0  0
  144.3791  133.1126  150.6634 N   0  0  0  0  0  0  0  0  0  0  0  0
  143.5022  134.1251  150.4788 N   0  0  0  0  0  0  0  0  0  0  0  0
  144.0215  135.3625  150.7894 C   0  0  0  0  0  0  0  0  0  0  0  0
  149.9008  138.8580  155.1648 C   0  0  0  0  0  0  0  0  0  0  0  0
  151.3135  139.4626  155.2788 C   0  0  0  0  0  0  0  0  0  0  0  0
  142.5638  133.9567  150.1448 H   0  0  0  0  0  0  0  0  0  0  0  0
  150.6877  142.1199  158.4726 H   0  0  0  0  0  0  0  0  0  0  0  0
  152.0882  142.8532  157.6643 H   0  0  0  0  0  0  0  0  0  0  0  0
  152.3090  141.8862  159.1201 H   0  0  0  0  0  0  0  0  0  0  0  0
  150.2913  142.5579  156.1875 H   0  0  0  0  0  0  0  0  0  0  0  0
  150.7032  141.9528  154.6129 H   0  0  0  0  0  0  0  0  0  0  0  0
  148.5566  140.7692  156.4688 H   0  0  0  0  0  0  0  0  0  0  0  0
  148.2611  141.7836  155.0691 H   0  0  0  0  0  0  0  0  0  0  0  0
  147.7180  138.1805  154.7855 H   0  0  0  0  0  0  0  0  0  0  0  0
  146.9573  139.6934  155.2255 H   0  0  0  0  0  0  0  0  0  0  0  0
  146.0723  139.7314  153.0588 H   0  0  0  0  0  0  0  0  0  0  0  0
  147.7013  139.9571  152.4643 H   0  0  0  0  0  0  0  0  0  0  0  0
  147.9367  137.5786  152.2150 H   0  0  0  0  0  0  0  0  0  0  0  0
  147.1949  135.9060  151.4609 H   0  0  0  0  0  0  0  0  0  0  0  0
  146.3457  133.1027  151.3236 H   0  0  0  0  0  0  0  0  0  0  0  0
  143.4526  136.2761  150.6984 H   0  0  0  0  0  0  0  0  0  0  0  0
  149.5574  138.5175  156.1431 H   0  0  0  0  0  0  0  0  0  0  0  0
  149.9336  137.9836  154.5137 H   0  0  0  0  0  0  0  0  0  0  0  0
  151.6819  139.7562  154.2947 H   0  0  0  0  0  0  0  0  0  0  0  0
  152.0054  138.7023  155.6429 H   0  0  0  0  0  0  0  0  0  0  0  0
  1  2  1  0  0  0  0
  1 22  1  0  0  0  0
  1 23  1  0  0  0  0
  1 24  1  0  0  0  0
  2  3  2  0  0  0  0
  2  4  1  0  0  0  0
  4 20  1  0  0  0  0
  4  5  1  0  0  0  0
  5  6  1  0  0  0  0
  5 25  1  0  0  0  0
  5 26  1  0  0  0  0
  6  7  1  0  0  0  0
  6 27  1  0  0  0  0
  6 28  1  0  0  0  0
  7  8  1  0  0  0  0
  7 19  1  0  0  0  0
  8  9  1  0  0  0  0
  8 29  1  0  0  0  0
  8 30  1  0  0  0  0
  9 10  1  0  0  0  0
  9 31  1  0  0  0  0
  9 32  1  0  0  0  0
 10 11  1  0  0  0  0
 10 33  1  0  0  0  0
 11 12  2  0  0  0  0
 11 13  1  0  0  0  0
 13 14  1  0  0  0  0
 13 34  1  0  0  0  0
 14 18  2  0  0  0  0
 14 15  1  0  0  0  0
 15 16  2  0  0  0  0
 15 35  1  0  0  0  0
 16 17  1  0  0  0  0
 17 21  1  0  0  0  0
 17 18  1  0  0  0  0
 18 36  1  0  0  0  0
 19 20  1  0  0  0  0
 19 37  1  0  0  0  0
 19 38  1  0  0  0  0
 20 39  1  0  0  0  0
 20 40  1  0  0  0  0
M  END
> <s_m_source_file>
AV-unprocessed.smi

> <i_m_source_file_index>
1467

> <i_lp_mmshare_version>
43012

> <i_f3d_flags>
0

> <s_epik_input>
W0NIM11DKD1PKU4xW0NIMl1bQ0gyXU4oW0NIMl1bQ0gyXTEpW0NIMl1bQ0gyXVtOSF1DKD1PKVtOSF1jMltjSF1uW25IXVtjSF0y

> <s_epik_cmdline>
J2VwaWtfcHl0aG9uJywgJy1waCcsICc3LjAnLCAnLXRuJywgJzgnLCAnLW1hJywgJzIwMCcsICctbWV0YWxfYmluZGluZycsICctaW1hZScsICc8aW5maWxlLm1hZT4nLCAnLW9tYWUnLCAnPG91dGZpbGUubWFlPic=

> <r_lp_tautomer_probability>
0.5

> <r_epik_Ionization_Penalty>
0.251012

> <r_epik_Ionization_Penalty_Charging>
0

> <r_epik_Ionization_Penalty_Neutral>
0.251012

> <r_epik_State_Penalty>
0.242297

> <r_epik_Charging_Adjusted_Penalty>
0.242297

> <i_epik_Tot_Q>
0

> <i_epik_Tot_abs_Q>
0

> <r_epik_Metal_State_Penalty>
0.242296

> <b_epik_Metal_Only>
0

> <s_lp_Force_Field>
OPLS_2005

> <r_lp_Energy>
35.2163

> <b_lp_Chiralities_Consistent>
1

> <s_lp_Variant>
AV-unprocessed.smi:1467-1

> <Gold.Version>
5.8.1

> <Gold.Id.Protein>
6NUR|6NUR_protein|mol2

> <Gold.PLP.Fitness>
43.9654

> <Gold.PLP.PLP>
-31.6619

> <Gold.PLP.part.hbond>
-4.0000

> <Gold.PLP.part.metal>
0.0000

> <Gold.PLP.part.buried>
-5.1063

> <Gold.PLP.part.nonpolar>
-24.4032

> <Gold.PLP.part.repulsive>
2.4323

> <Gold.PLP.ligand.clash>
0.0000

> <Gold.PLP.ligand.torsion>
1.3046

> <Gold.PLP.Chemscore.Hbond>
3.9680

> <Gold.PLP.Chemscore.CHOScore>
1.0000

> <Gold.PLP.Chemscore.Metal>
0.0000

> <Gold.Chemscore.Hbonds>
donor molecule, donor type, donor heavy atom, donor atom, acceptor molecule, acceptor atom, score
      L1  H    10    33       P1  7948  1.00
      L1  H    13    34       P1  7948  1.00
      L1  H    17    21       P1 10186  1.00
      P1  H  7997  8010       L1     3  0.86
      L1  C    18    36       P1 10171  1.00

> <Gold.PLP.Chemscore.Internal.Correction>
0.0087

> <Gold.Rescore>
     Score         DG    S(hbond)    S(metal)    S(lipo)     H(rot)  DE(clash)    DE(int)     intcor
     17.80     -20.95       3.79        0.00      61.50       1.72       0.79       2.35       ----

> <Gold.Chemscore.Fitness>
17.8000

> <Gold.Chemscore.DG>
-20.9478

> <Gold.Chemscore.ZeroCoef>
-5.4800

> <Gold.Chemscore.Hbond>
3.7925

> <Gold.Chemscore.Metal>
0.0000

> <Gold.Chemscore.Lipo>
61.5003

> <Gold.Chemscore.Internal_Hbond>
0.0000

> <Gold.Chemscore.DEClash>
0.7932

> <Gold.Chemscore.DEInternal>
2.3546

> <Gold.Chemscore.Rot>
1.7167

> <Gold.Chemscore.Internal.Correction>
   9.000000E+99

> <Gold.Chemscore.Hbonds>
donor molecule, donor type, donor heavy atom, donor atom, acceptor molecule, acceptor atom, score
      L1  H    10    33       P1  7948  0.97
      L1  H    13    34       P1  7948  0.95
      L1  H    17    21       P1 10186  0.96
      P1  H  7997  8010       L1     3  0.37

> <Gold.Chemscore.Hbond.Weighted>
-12.6670

> <Gold.Chemscore.Metal.Weighted>
-0.0000

> <Gold.Chemscore.Lipo.Weighted>
-7.1955

> <Gold.Chemscore.Internal_Hbond.Weighted>
0.0000

> <Gold.Chemscore.DEClash.Weighted>
0.7932

> <Gold.Chemscore.DEInternal.Weighted>
2.3546

> <Gold.Chemscore.Rot.Weighted>
4.3947

> <Gold.Chemscore.Internal.Correction.Weighted>
   9.000000E+99

> <Gold.Protein.RotatedTorsions>
[ 6907 6896 6895 6894 ] final   54.54 input  -60.11 | X-H torsion
[ 7974 7965 7964 7962 ] final  160.87 input  175.53 | X-H torsion
[ 8008 7997 7996 7995 ] final   53.85 input   59.86 | X-H torsion
[ 10167 10162 10161 10158 ] final -162.32 input  -65.29 | X-H torsion
[ 10718 10713 10712 10709 ] final   -1.98 input   66.30 | X-H torsion
[ 10763 10752 10751 10750 ] final  123.76 input  -60.55 | X-H torsion
[ 11005 11000 10999 10996 ] final  176.64 input  -57.11 | X-H torsion

> <Gold.Protein.ActiveResidues>
 VAL166  LYS551  ARG553  GLY616  TRP617  ASP618  TYR619  PRO620  LYS621  CYS622 
 ASP623  PHE694  ASN695  SER759  ASP760  ASP761  ALA762  ILE779  LEU786  VAL792 
 PHE793  MET794  SER795  GLU796  ALA797  LYS798  CYS799  TRP800  GLU811  SER814 

> <Gold.Protein.RotatedAtoms>
  152.3449  134.7084  160.0252 H   0  0  0  0  0  0  0  0  0  0  0  0  # atno 6907 bound_to 6896
  151.7457  133.3319  159.3386 H   0  0  0  0  0  0  0  0  0  0  0  0  # atno 6908 bound_to 6896
  150.7503  134.6171  159.6161 H   0  0  0  0  0  0  0  0  0  0  0  0  # atno 6909 bound_to 6896
  144.7714  139.7819  143.6295 H   0  0  0  0  0  0  0  0  0  0  0  0  # atno 7974 bound_to 7965
  155.4751  140.3466  155.4331 H   0  0  0  0  0  0  0  0  0  0  0  0  # atno 8008 bound_to 7997
  156.1075  140.1452  156.9412 H   0  0  0  0  0  0  0  0  0  0  0  0  # atno 8009 bound_to 7997
  154.4734  140.0893  156.7181 H   0  0  0  0  0  0  0  0  0  0  0  0  # atno 8010 bound_to 7997
  139.6401  144.0276  152.2085 H   0  0  0  0  0  0  0  0  0  0  0  0  # atno 10167 bound_to 10162
  156.7976  130.5382  149.5726 H   0  0  0  0  0  0  0  0  0  0  0  0  # atno 10718 bound_to 10713
  153.6506  135.3363  155.3099 H   0  0  0  0  0  0  0  0  0  0  0  0  # atno 10763 bound_to 10752
  154.8538  135.4340  154.1908 H   0  0  0  0  0  0  0  0  0  0  0  0  # atno 10764 bound_to 10752
  153.2850  135.7012  153.7423 H   0  0  0  0  0  0  0  0  0  0  0  0  # atno 10765 bound_to 10752
  140.3753  134.6994  157.4417 H   0  0  0  0  0  0  0  0  0  0  0  0  # atno 11005 bound_to 11000
  146.1863  139.5081  142.9834 LP  0  0  0  0  0  0  0  0  0  0  0  0  # atno 17320 bound_to 7965
  145.6312  141.0303  143.1862 LP  0  0  0  0  0  0  0  0  0  0  0  0  # atno 17321 bound_to 7965
  139.9963  144.6325  150.7769 LP  0  0  0  0  0  0  0  0  0  0  0  0  # atno 17342 bound_to 10162
  140.7486  143.2925  151.3292 LP  0  0  0  0  0  0  0  0  0  0  0  0  # atno 17343 bound_to 10162
  156.1121  130.6048  151.0063 LP  0  0  0  0  0  0  0  0  0  0  0  0  # atno 17370 bound_to 10713
  157.6570  131.0887  150.7925 LP  0  0  0  0  0  0  0  0  0  0  0  0  # atno 17371 bound_to 10713
  140.0520  134.6117  155.8850 LP  0  0  0  0  0  0  0  0  0  0  0  0  # atno 17394 bound_to 11000
  141.1941  133.6581  156.5580 LP  0  0  0  0  0  0  0  0  0  0  0  0  # atno 17395 bound_to 11000

$$$$
