AV-unprocessed.smi:709|AV-procd|sdf|3460|dock2
  -GOLD-   22720 0443D 1   1.00000     0.00000
 Structure written by MMmdl.
 48 50  0  0  0  0  0  0  0  0  1 V2000
  152.6425  138.1968  158.4872 C   0  0  0  0  0  0  0  0  0  0  0  0
  153.0723  137.8505  157.0602 C   0  0  0  0  0  0  0  0  0  0  0  0
  152.6209  136.5431  156.7510 O   0  0  0  0  0  0  0  0  0  0  0  0
  151.2161  136.3999  156.8879 C   0  0  2  0  0  0  0  0  0  0  0  0
  150.6518  135.0707  156.3748 C   0  0  0  0  0  0  0  0  0  0  0  0
  149.4536  135.8947  155.8985 C   0  0  2  0  0  0  0  0  0  0  0  0
  148.9016  135.4143  154.6363 N   0  0  0  0  0  0  0  0  0  0  0  0
  148.2004  134.2801  154.5036 C   0  0  0  0  0  0  0  0  0  0  0  0
  147.9537  133.5297  155.4472 O   0  0  0  0  0  0  0  0  0  0  0  0
  147.8099  134.1019  153.2278 N   0  0  0  0  0  0  0  0  0  0  0  0
  147.0868  133.0425  152.6494 C   0  0  0  0  0  0  0  0  0  0  0  0
  147.0589  131.7711  153.1241 C   0  0  0  0  0  0  0  0  0  0  0  0
  146.2956  130.7451  152.4551 C   0  0  0  0  0  0  0  0  0  0  0  0
  145.6202  131.0742  151.3457 C   0  0  0  0  0  0  0  0  0  0  0  0
  145.6408  132.3815  150.8311 N   0  0  0  0  0  0  0  0  0  0  0  0
  144.8728  132.6413  149.6108 C   0  0  0  0  0  0  0  0  0  0  0  0
  146.3412  133.3937  151.4245 C   0  0  0  0  0  0  0  0  0  0  0  0
  146.3406  134.5323  150.9498 O   0  0  0  0  0  0  0  0  0  0  0  0
  150.4062  137.1122  155.7757 C   0  0  0  0  0  0  0  0  0  0  0  0
  151.1230  137.3780  154.4449 C   0  0  0  0  0  0  0  0  0  0  0  0
  151.7219  138.7822  154.5434 C   0  0  0  0  0  0  0  0  0  0  0  0
  150.8601  139.5248  155.5697 C   0  0  0  0  0  0  0  0  0  0  0  0
  149.8559  138.4965  156.1022 C   0  0  0  0  0  0  0  0  0  0  0  0
  152.9711  139.1996  158.7606 H   0  0  0  0  0  0  0  0  0  0  0  0
  153.0702  137.4966  159.2051 H   0  0  0  0  0  0  0  0  0  0  0  0
  151.5575  138.1607  158.5880 H   0  0  0  0  0  0  0  0  0  0  0  0
  152.6524  138.5727  156.3588 H   0  0  0  0  0  0  0  0  0  0  0  0
  154.1589  137.9027  156.9776 H   0  0  0  0  0  0  0  0  0  0  0  0
  150.8554  136.6530  157.8881 H   0  0  0  0  0  0  0  0  0  0  0  0
  151.2424  134.6365  155.5657 H   0  0  0  0  0  0  0  0  0  0  0  0
  150.4265  134.3400  157.1519 H   0  0  0  0  0  0  0  0  0  0  0  0
  148.7116  136.0211  156.6910 H   0  0  0  0  0  0  0  0  0  0  0  0
  149.0596  135.9834  153.8175 H   0  0  0  0  0  0  0  0  0  0  0  0
  148.0501  134.8406  152.5826 H   0  0  0  0  0  0  0  0  0  0  0  0
  147.6100  131.4739  154.0008 H   0  0  0  0  0  0  0  0  0  0  0  0
  146.2704  129.7360  152.8392 H   0  0  0  0  0  0  0  0  0  0  0  0
  145.0279  130.3635  150.7879 H   0  0  0  0  0  0  0  0  0  0  0  0
  144.1084  133.3977  149.7933 H   0  0  0  0  0  0  0  0  0  0  0  0
  144.3672  131.7518  149.2335 H   0  0  0  0  0  0  0  0  0  0  0  0
  145.5270  133.0036  148.8163 H   0  0  0  0  0  0  0  0  0  0  0  0
  151.8859  136.6337  154.2145 H   0  0  0  0  0  0  0  0  0  0  0  0
  150.4117  137.3636  153.6187 H   0  0  0  0  0  0  0  0  0  0  0  0
  152.7508  138.7243  154.9007 H   0  0  0  0  0  0  0  0  0  0  0  0
  151.7375  139.2842  153.5754 H   0  0  0  0  0  0  0  0  0  0  0  0
  151.4869  139.9016  156.3787 H   0  0  0  0  0  0  0  0  0  0  0  0
  150.3484  140.3795  155.1261 H   0  0  0  0  0  0  0  0  0  0  0  0
  148.8962  138.6394  155.6048 H   0  0  0  0  0  0  0  0  0  0  0  0
  149.6779  138.6325  157.1693 H   0  0  0  0  0  0  0  0  0  0  0  0
  1  2  1  0  0  0  0
  1 24  1  0  0  0  0
  1 25  1  0  0  0  0
  1 26  1  0  0  0  0
  2  3  1  0  0  0  0
  2 27  1  0  0  0  0
  2 28  1  0  0  0  0
  3  4  1  0  0  0  0
  4 19  1  0  0  0  0
  4  5  1  0  0  0  0
  4 29  1  0  0  0  0
  5  6  1  0  0  0  0
  5 30  1  0  0  0  0
  5 31  1  0  0  0  0
  6  7  1  0  0  0  0
  6 19  1  0  0  0  0
  6 32  1  0  0  0  0
  7  8  1  0  0  0  0
  7 33  1  0  0  0  0
  8  9  2  0  0  0  0
  8 10  1  0  0  0  0
 10 11  1  0  0  0  0
 10 34  1  0  0  0  0
 11 17  1  0  0  0  0
 11 12  2  0  0  0  0
 12 13  1  0  0  0  0
 12 35  1  0  0  0  0
 13 14  2  0  0  0  0
 13 36  1  0  0  0  0
 14 15  1  0  0  0  0
 14 37  1  0  0  0  0
 15 16  1  0  0  0  0
 15 17  1  0  0  0  0
 16 38  1  0  0  0  0
 16 39  1  0  0  0  0
 16 40  1  0  0  0  0
 17 18  2  0  0  0  0
 19 23  1  0  0  0  0
 19 20  1  0  0  0  0
 20 21  1  0  0  0  0
 20 41  1  0  0  0  0
 20 42  1  0  0  0  0
 21 22  1  0  0  0  0
 21 43  1  0  0  0  0
 21 44  1  0  0  0  0
 22 23  1  0  0  0  0
 22 45  1  0  0  0  0
 22 46  1  0  0  0  0
 23 47  1  0  0  0  0
 23 48  1  0  0  0  0
M  END
> <s_m_source_file>
AV-unprocessed.smi

> <i_m_source_file_index>
709

> <i_lp_mmshare_version>
43012

> <i_f3d_flags>
0

> <s_epik_input>
W0NIMl0xW0NIMl1bQ0gyXVtDSDJdQzEyW0NASF0oT1tDSDJdW0NIM10pW0NIMl1bQ0BIXTJbTkhdQyg9TylbTkhdYzNbY0hdW2NIXVtjSF1uKFtDSDNdKWMzPU8=

> <s_epik_cmdline>
J2VwaWtfcHl0aG9uJywgJy1waCcsICc3LjAnLCAnLXRuJywgJzgnLCAnLW1hJywgJzIwMCcsICctbWV0YWxfYmluZGluZycsICctaW1hZScsICc8aW5maWxlLm1hZT4nLCAnLW9tYWUnLCAnPG91dGZpbGUubWFlPic=

> <r_lp_tautomer_probability>
1

> <r_epik_Ionization_Penalty>
2.50859e-05

> <r_epik_Ionization_Penalty_Charging>
5.10493e-06

> <r_epik_Ionization_Penalty_Neutral>
1.9981e-05

> <r_epik_State_Penalty>
-0

> <r_epik_Charging_Adjusted_Penalty>
5.10493e-06

> <i_epik_Tot_Q>
0

> <i_epik_Tot_abs_Q>
0

> <r_epik_Metal_State_Penalty>
-0

> <b_epik_Metal_Only>
0

> <s_lp_Force_Field>
OPLS_2005

> <r_lp_Energy>
49.811

> <b_lp_Chiralities_Consistent>
1

> <s_lp_Variant>
AV-unprocessed.smi:709-3

> <Gold.Version>
5.8.1

> <Gold.Id.Protein>
6NUR|6NUR_protein|mol2

> <Gold.PLP.Fitness>
43.9426

> <Gold.PLP.PLP>
-35.2967

> <Gold.PLP.part.hbond>
-3.0000

> <Gold.PLP.part.metal>
0.0000

> <Gold.PLP.part.buried>
-4.7341

> <Gold.PLP.part.nonpolar>
-27.5832

> <Gold.PLP.part.repulsive>
0.2201

> <Gold.PLP.ligand.clash>
0.0000

> <Gold.PLP.ligand.torsion>
0.3012

> <Gold.PLP.Chemscore.Hbond>
2.9760

> <Gold.PLP.Chemscore.CHOScore>
0.0000

> <Gold.PLP.Chemscore.Metal>
0.0000

> <Gold.Chemscore.Hbonds>
donor molecule, donor type, donor heavy atom, donor atom, acceptor molecule, acceptor atom, score
      L1  H     7    33       P1  7948  0.99
      L1  H    10    34       P1  7948  1.00
      P1  H 10752 10764       L1     3  1.00

> <Gold.PLP.Chemscore.Internal.Correction>
0.3202

> <Gold.Rescore>
     Score         DG    S(hbond)    S(metal)    S(lipo)     H(rot)  DE(clash)    DE(int)     intcor
     19.96     -21.23       2.74        0.00      86.20       1.36       0.03       1.24       ----

> <Gold.Chemscore.Fitness>
19.9565

> <Gold.Chemscore.DG>
-21.2312

> <Gold.Chemscore.ZeroCoef>
-5.4800

> <Gold.Chemscore.Hbond>
2.7385

> <Gold.Chemscore.Metal>
0.0000

> <Gold.Chemscore.Lipo>
86.2042

> <Gold.Chemscore.Internal_Hbond>
0.0000

> <Gold.Chemscore.DEClash>
0.0343

> <Gold.Chemscore.DEInternal>
1.2403

> <Gold.Chemscore.Rot>
1.3599

> <Gold.Chemscore.Internal.Correction>
   9.000000E+99

> <Gold.Chemscore.Hbonds>
donor molecule, donor type, donor heavy atom, donor atom, acceptor molecule, acceptor atom, score
      L1  H     7    33       P1  7948  0.88
      L1  H    10    34       P1  7948  0.74
      P1  H 10752 10764       L1     3  0.82

> <Gold.Chemscore.Hbond.Weighted>
-9.1466

> <Gold.Chemscore.Metal.Weighted>
-0.0000

> <Gold.Chemscore.Lipo.Weighted>
-10.0859

> <Gold.Chemscore.Internal_Hbond.Weighted>
0.0000

> <Gold.Chemscore.DEClash.Weighted>
0.0343

> <Gold.Chemscore.DEInternal.Weighted>
1.2403

> <Gold.Chemscore.Rot.Weighted>
3.4813

> <Gold.Chemscore.Internal.Correction.Weighted>
   9.000000E+99

> <Gold.Protein.RotatedTorsions>
[ 6907 6896 6895 6894 ] final -127.00 input  -60.11 | X-H torsion
[ 7974 7965 7964 7962 ] final   62.87 input  175.53 | X-H torsion
[ 8008 7997 7996 7995 ] final   42.07 input   59.86 | X-H torsion
[ 10167 10162 10161 10158 ] final  151.39 input  -65.29 | X-H torsion
[ 10718 10713 10712 10709 ] final -158.19 input   66.30 | X-H torsion
[ 10763 10752 10751 10750 ] final   -9.33 input  -60.55 | X-H torsion
[ 11005 11000 10999 10996 ] final  -21.29 input  -57.11 | X-H torsion

> <Gold.Protein.ActiveResidues>
 VAL166  LYS551  ARG553  GLY616  TRP617  ASP618  TYR619  PRO620  LYS621  CYS622 
 ASP623  PHE694  ASN695  SER759  ASP760  ASP761  ALA762  ILE779  LEU786  VAL792 
 PHE793  MET794  SER795  GLU796  ALA797  LYS798  CYS799  TRP800  GLU811  SER814 

> <Gold.Protein.RotatedAtoms>
  150.9027  133.7097  159.2874 H   0  0  0  0  0  0  0  0  0  0  0  0  # atno 6907 bound_to 6896
  151.4611  135.1037  159.9734 H   0  0  0  0  0  0  0  0  0  0  0  0  # atno 6908 bound_to 6896
  152.4886  133.8390  159.7198 H   0  0  0  0  0  0  0  0  0  0  0  0  # atno 6909 bound_to 6896
  145.8683  139.3361  143.0777 H   0  0  0  0  0  0  0  0  0  0  0  0  # atno 7974 bound_to 7965
  155.2800  140.3372  155.4259 H   0  0  0  0  0  0  0  0  0  0  0  0  # atno 8008 bound_to 7997
  156.2094  140.1764  156.7770 H   0  0  0  0  0  0  0  0  0  0  0  0  # atno 8009 bound_to 7997
  154.5665  140.0678  156.8884 H   0  0  0  0  0  0  0  0  0  0  0  0  # atno 8010 bound_to 7997
  139.4841  144.5444  151.7509 H   0  0  0  0  0  0  0  0  0  0  0  0  # atno 10167 bound_to 10162
  156.5506  130.8604  151.2779 H   0  0  0  0  0  0  0  0  0  0  0  0  # atno 10718 bound_to 10713
  153.4533  135.7015  153.6095 H   0  0  0  0  0  0  0  0  0  0  0  0  # atno 10763 bound_to 10752
  153.4421  135.3778  155.2234 H   0  0  0  0  0  0  0  0  0  0  0  0  # atno 10764 bound_to 10752
  154.8728  135.3976  154.3948 H   0  0  0  0  0  0  0  0  0  0  0  0  # atno 10765 bound_to 10752
  140.8547  133.7831  156.0006 H   0  0  0  0  0  0  0  0  0  0  0  0  # atno 11005 bound_to 11000
  145.9167  140.9143  143.0426 LP  0  0  0  0  0  0  0  0  0  0  0  0  # atno 17320 bound_to 7965
  144.6726  140.1233  143.7448 LP  0  0  0  0  0  0  0  0  0  0  0  0  # atno 17321 bound_to 7965
  140.4989  144.1199  150.5966 LP  0  0  0  0  0  0  0  0  0  0  0  0  # atno 17342 bound_to 10162
  140.4085  143.2668  151.9861 LP  0  0  0  0  0  0  0  0  0  0  0  0  # atno 17343 bound_to 10162
  157.7388  130.9820  150.2275 LP  0  0  0  0  0  0  0  0  0  0  0  0  # atno 17370 bound_to 10713
  156.2888  130.3743  149.7862 LP  0  0  0  0  0  0  0  0  0  0  0  0  # atno 17371 bound_to 10713
  140.8750  134.2680  157.5172 LP  0  0  0  0  0  0  0  0  0  0  0  0  # atno 17394 bound_to 11000
  139.8705  134.9586  156.4307 LP  0  0  0  0  0  0  0  0  0  0  0  0  # atno 17395 bound_to 11000

$$$$
