AV-unprocessed.smi:1920|AV-procd|sdf|7784|dock5
  -GOLD-   22720 9533D 1   1.00000     0.00000
 Structure written by MMmdl.
 36 37  0  0  0  0  0  0  0  0  1 V2000
  146.8757  141.9670  154.6020 C   0  0  0  0  0  0  0  0  0  0  0  0
  148.0826  141.2949  155.2702 C   0  0  1  0  0  0  0  0  0  0  0  0
  149.1695  140.9330  154.2375 C   0  0  0  0  0  0  0  0  0  0  0  0
  150.0715  139.8984  154.7111 N   0  0  0  0  0  0  0  0  0  0  0  0
  150.2663  138.6382  154.1612 C   0  0  0  0  0  0  0  0  0  0  0  0
  151.2117  138.0111  154.9408 C   0  0  0  0  0  0  0  0  0  0  0  0
  151.6167  138.8643  155.9647 N   0  0  0  0  0  0  0  0  0  0  0  0
  150.8996  139.9622  155.7629 C   0  0  0  0  0  0  0  0  0  0  0  0
  148.6242  142.1913  156.2909 N   0  0  0  0  0  0  0  0  0  0  0  0
  148.9277  141.8525  157.5541 C   0  0  0  0  0  0  0  0  0  0  0  0
  148.7468  140.7263  158.0177 O   0  0  0  0  0  0  0  0  0  0  0  0
  149.5375  142.9593  158.4224 C   0  0  0  0  0  0  0  0  0  0  0  0
  150.9875  143.3339  158.0408 C   0  0  1  0  0  0  0  0  0  0  0  0
  151.3634  144.7499  158.4061 C   0  0  0  0  0  0  0  0  0  0  0  0
  152.4450  144.8145  159.1783 C   0  0  0  0  0  0  0  0  0  0  0  0
  153.0137  143.4578  159.4871 C   0  0  0  0  0  0  0  0  0  0  0  0
  152.0490  142.4788  158.7802 C   0  0  0  0  0  0  0  0  0  0  0  0
  146.4312  141.3147  153.8497 H   0  0  0  0  0  0  0  0  0  0  0  0
  147.1597  142.8976  154.1091 H   0  0  0  0  0  0  0  0  0  0  0  0
  146.1008  142.1996  155.3334 H   0  0  0  0  0  0  0  0  0  0  0  0
  147.7222  140.3730  155.7301 H   0  0  0  0  0  0  0  0  0  0  0  0
  148.7075  140.5753  153.3165 H   0  0  0  0  0  0  0  0  0  0  0  0
  149.7534  141.8156  153.9712 H   0  0  0  0  0  0  0  0  0  0  0  0
  149.7274  138.2995  153.2886 H   0  0  0  0  0  0  0  0  0  0  0  0
  151.6297  137.0200  154.8433 H   0  0  0  0  0  0  0  0  0  0  0  0
  150.9763  140.8321  156.3989 H   0  0  0  0  0  0  0  0  0  0  0  0
  148.8062  143.1425  156.0053 H   0  0  0  0  0  0  0  0  0  0  0  0
  148.9066  143.8479  158.3641 H   0  0  0  0  0  0  0  0  0  0  0  0
  149.5068  142.6277  159.4607 H   0  0  0  0  0  0  0  0  0  0  0  0
  151.1244  143.2242  156.9639 H   0  0  0  0  0  0  0  0  0  0  0  0
  150.8070  145.6039  158.0501 H   0  0  0  0  0  0  0  0  0  0  0  0
  152.8926  145.7255  159.5475 H   0  0  0  0  0  0  0  0  0  0  0  0
  154.0286  143.3787  159.0960 H   0  0  0  0  0  0  0  0  0  0  0  0
  153.0405  143.2931  160.5646 H   0  0  0  0  0  0  0  0  0  0  0  0
  151.5855  141.8181  159.5139 H   0  0  0  0  0  0  0  0  0  0  0  0
  152.5888  141.8416  158.0787 H   0  0  0  0  0  0  0  0  0  0  0  0
  1  2  1  0  0  0  0
  1 18  1  0  0  0  0
  1 19  1  0  0  0  0
  1 20  1  0  0  0  0
  2  3  1  0  0  0  0
  2  9  1  0  0  0  0
  2 21  1  0  0  0  0
  3  4  1  0  0  0  0
  3 22  1  0  0  0  0
  3 23  1  0  0  0  0
  4  8  1  0  0  0  0
  4  5  1  0  0  0  0
  5  6  2  0  0  0  0
  5 24  1  0  0  0  0
  6  7  1  0  0  0  0
  6 25  1  0  0  0  0
  7  8  2  0  0  0  0
  8 26  1  0  0  0  0
  9 10  1  0  0  0  0
  9 27  1  0  0  0  0
 10 11  2  0  0  0  0
 10 12  1  0  0  0  0
 12 13  1  0  0  0  0
 12 28  1  0  0  0  0
 12 29  1  0  0  0  0
 13 17  1  0  0  0  0
 13 14  1  0  0  0  0
 13 30  1  0  0  0  0
 14 15  2  0  0  0  0
 14 31  1  0  0  0  0
 15 16  1  0  0  0  0
 15 32  1  0  0  0  0
 16 17  1  0  0  0  0
 16 33  1  0  0  0  0
 16 34  1  0  0  0  0
 17 35  1  0  0  0  0
 17 36  1  0  0  0  0
M  END
> <s_m_source_file>
AV-unprocessed.smi

> <i_m_source_file_index>
1920

> <i_lp_mmshare_version>
43012

> <i_f3d_flags>
0

> <s_epik_input>
W2NIXTFuW2NIXVtjSF1uMVtDSDJdW0NAQEhdKFtDSDNdKVtOSF1DKD1PKVtDSDJdW0NAQEhdMltDSF09W0NIXVtDSDJdW0NIMl0y

> <s_epik_cmdline>
J2VwaWtfcHl0aG9uJywgJy1waCcsICc3LjAnLCAnLXRuJywgJzgnLCAnLW1hJywgJzIwMCcsICctbWV0YWxfYmluZGluZycsICctaW1hZScsICc8aW5maWxlLm1hZT4nLCAnLW9tYWUnLCAnPG91dGZpbGUubWFlPic=

> <r_lp_tautomer_probability>
1

> <r_epik_Ionization_Penalty>
0.635367

> <r_epik_Ionization_Penalty_Charging>
0.635367

> <r_epik_Ionization_Penalty_Neutral>
2.1249e-08

> <r_epik_State_Penalty>
0.65258

> <r_epik_Charging_Adjusted_Penalty>
1.28795

> <i_epik_Tot_Q>
0

> <i_epik_Tot_abs_Q>
0

> <r_epik_Metal_State_Penalty>
0.310403

> <b_epik_Metal_Only>
0

> <s_lp_Force_Field>
OPLS_2005

> <r_lp_Energy>
18.2419

> <b_lp_Chiralities_Consistent>
1

> <s_lp_Variant>
AV-unprocessed.smi:1920-8

> <Gold.Version>
5.8.1

> <Gold.Id.Protein>
6NUR|6NUR_protein|mol2

> <Gold.PLP.Fitness>
45.3372

> <Gold.PLP.PLP>
-38.7509

> <Gold.PLP.part.hbond>
-1.0000

> <Gold.PLP.part.metal>
0.0000

> <Gold.PLP.part.buried>
-0.8820

> <Gold.PLP.part.nonpolar>
-35.7160

> <Gold.PLP.part.repulsive>
0.0646

> <Gold.PLP.ligand.clash>
0.0000

> <Gold.PLP.ligand.torsion>
0.7960

> <Gold.PLP.Chemscore.Hbond>
1.0000

> <Gold.PLP.Chemscore.CHOScore>
1.7019

> <Gold.PLP.Chemscore.Metal>
0.0000

> <Gold.Chemscore.Hbonds>
donor molecule, donor type, donor heavy atom, donor atom, acceptor molecule, acceptor atom, score
      L1  H     9    27       P1  8028  1.00
      L1  C     5    24       P1  7948  0.86
      L1  C     5    24       P1  7957  0.36

> <Gold.PLP.Chemscore.Internal.Correction>
0.0725

> <Gold.Rescore>
     Score         DG    S(hbond)    S(metal)    S(lipo)     H(rot)  DE(clash)    DE(int)     intcor
     14.95     -15.51       1.00        0.00      99.52       1.93       0.01       0.55       ----

> <Gold.Chemscore.Fitness>
14.9513

> <Gold.Chemscore.DG>
-15.5081

> <Gold.Chemscore.ZeroCoef>
-5.4800

> <Gold.Chemscore.Hbond>
0.9961

> <Gold.Chemscore.Metal>
0.0000

> <Gold.Chemscore.Lipo>
99.5184

> <Gold.Chemscore.Internal_Hbond>
0.0000

> <Gold.Chemscore.DEClash>
0.0092

> <Gold.Chemscore.DEInternal>
0.5475

> <Gold.Chemscore.Rot>
1.9306

> <Gold.Chemscore.Internal.Correction>
   9.000000E+99

> <Gold.Chemscore.Hbonds>
donor molecule, donor type, donor heavy atom, donor atom, acceptor molecule, acceptor atom, score
      L1  H     9    27       P1  8028  0.99

> <Gold.Chemscore.Hbond.Weighted>
-3.3268

> <Gold.Chemscore.Metal.Weighted>
-0.0000

> <Gold.Chemscore.Lipo.Weighted>
-11.6437

> <Gold.Chemscore.Internal_Hbond.Weighted>
0.0000

> <Gold.Chemscore.DEClash.Weighted>
0.0092

> <Gold.Chemscore.DEInternal.Weighted>
0.5475

> <Gold.Chemscore.Rot.Weighted>
4.9424

> <Gold.Chemscore.Internal.Correction.Weighted>
   9.000000E+99

> <Gold.Protein.RotatedTorsions>
[ 6907 6896 6895 6894 ] final -101.77 input  -60.11 | X-H torsion
[ 7974 7965 7964 7962 ] final  -90.09 input  175.53 | X-H torsion
[ 8008 7997 7996 7995 ] final -152.02 input   59.86 | X-H torsion
[ 10167 10162 10161 10158 ] final   73.15 input  -65.29 | X-H torsion
[ 10718 10713 10712 10709 ] final   35.96 input   66.30 | X-H torsion
[ 10763 10752 10751 10750 ] final   35.08 input  -60.55 | X-H torsion
[ 11005 11000 10999 10996 ] final -179.95 input  -57.11 | X-H torsion

> <Gold.Protein.ActiveResidues>
 VAL166  LYS551  ARG553  GLY616  TRP617  ASP618  TYR619  PRO620  LYS621  CYS622 
 ASP623  PHE694  ASN695  SER759  ASP760  ASP761  ALA762  ILE779  LEU786  VAL792 
 PHE793  MET794  SER795  GLU796  ALA797  LYS798  CYS799  TRP800  GLU811  SER814 

> <Gold.Protein.RotatedAtoms>
  150.7168  134.0683  159.3855 H   0  0  0  0  0  0  0  0  0  0  0  0  # atno 6907 bound_to 6896
  151.8664  135.0503  160.0484 H   0  0  0  0  0  0  0  0  0  0  0  0  # atno 6908 bound_to 6896
  152.2677  133.5318  159.5456 H   0  0  0  0  0  0  0  0  0  0  0  0  # atno 6909 bound_to 6896
  145.4311  140.9556  143.2127 H   0  0  0  0  0  0  0  0  0  0  0  0  # atno 7974 bound_to 7965
  155.6485  140.0709  157.2595 H   0  0  0  0  0  0  0  0  0  0  0  0  # atno 8008 bound_to 7997
  154.4167  140.1737  156.1699 H   0  0  0  0  0  0  0  0  0  0  0  0  # atno 8009 bound_to 7997
  155.9796  140.3355  155.6654 H   0  0  0  0  0  0  0  0  0  0  0  0  # atno 8010 bound_to 7997
  140.0276  144.5491  150.7532 H   0  0  0  0  0  0  0  0  0  0  0  0  # atno 10167 bound_to 10162
  157.3290  130.7488  149.6835 H   0  0  0  0  0  0  0  0  0  0  0  0  # atno 10718 bound_to 10713
  153.0135  135.6343  154.1770 H   0  0  0  0  0  0  0  0  0  0  0  0  # atno 10763 bound_to 10752
  154.1510  135.2829  155.3137 H   0  0  0  0  0  0  0  0  0  0  0  0  # atno 10764 bound_to 10752
  154.6053  135.5574  153.7477 H   0  0  0  0  0  0  0  0  0  0  0  0  # atno 10765 bound_to 10752
  140.4130  134.6675  157.4624 H   0  0  0  0  0  0  0  0  0  0  0  0  # atno 11005 bound_to 11000
  144.8182  139.5838  143.6999 LP  0  0  0  0  0  0  0  0  0  0  0  0  # atno 17320 bound_to 7965
  146.2606  139.6403  142.9364 LP  0  0  0  0  0  0  0  0  0  0  0  0  # atno 17321 bound_to 7965
  140.7316  143.2696  151.3931 LP  0  0  0  0  0  0  0  0  0  0  0  0  # atno 17342 bound_to 10162
  139.6098  144.1122  152.2287 LP  0  0  0  0  0  0  0  0  0  0  0  0  # atno 17343 bound_to 10162
  155.9693  130.4201  150.4405 LP  0  0  0  0  0  0  0  0  0  0  0  0  # atno 17370 bound_to 10713
  157.2434  131.0530  151.2423 LP  0  0  0  0  0  0  0  0  0  0  0  0  # atno 17371 bound_to 10713
  140.0254  134.6485  155.9180 LP  0  0  0  0  0  0  0  0  0  0  0  0  # atno 17394 bound_to 11000
  141.1814  133.6547  156.5035 LP  0  0  0  0  0  0  0  0  0  0  0  0  # atno 17395 bound_to 11000

$$$$
