AV-unprocessed.smi:1645|AV-procd|sdf|6609|dock1
  -GOLD-   22720 7313D 1   1.00000     0.00000
 Structure written by MMmdl.
 56 59  0  0  0  0  0  0  0  0  3 V2000
  146.4374  139.4977  153.7029 O   0  0  0  0  0  0  0  0  0  0  0  0
  147.3358  138.8270  153.1967 C   0  0  0  0  0  0  0  0  0  0  0  0
  148.6410  138.9038  153.5105 N   0  0  0  0  0  0  0  0  0  0  0  0
  149.2950  139.7911  154.4097 C   0  0  0  0  0  0  0  0  0  0  0  0
  150.4663  139.3288  155.0452 C   0  0  0  0  0  0  0  0  0  0  0  0
  151.1605  140.1682  155.9401 C   0  0  0  0  0  0  0  0  0  0  0  0
  150.6753  141.4735  156.2048 C   0  0  0  0  0  0  0  0  0  0  0  0
  151.3152  142.3928  157.0667 N   0  0  0  0  0  0  0  0  0  0  0  0
  151.0073  143.8126  156.8679 C   0  0  0  0  0  0  0  0  0  0  0  0
  152.0829  144.7123  157.4997 C   0  0  0  0  0  0  0  0  0  0  0  0
  152.3094  144.3522  158.9748 C   0  0  0  0  0  0  0  0  0  0  0  0
  152.6559  142.8623  159.1009 C   0  0  0  0  0  0  0  0  0  0  0  0
  151.5777  141.9807  158.4470 C   0  0  0  0  0  0  0  0  0  0  0  0
  149.5373  141.8657  155.5825 N   0  3  0  0  0  0  0  0  0  0  0  0
  148.8415  141.0960  154.7181 C   0  0  0  0  0  0  0  0  0  0  0  0
  147.1203  137.9117  152.2404 N   0  0  0  0  0  0  0  0  0  0  0  0
  145.8226  137.6139  151.6346 C   0  0  1  0  0  0  0  0  0  0  0  0
  145.9092  136.5557  150.5180 C   0  0  0  0  0  0  0  0  0  0  0  0
  144.6684  135.6793  150.7186 C   0  0  0  0  0  0  0  0  0  0  0  0
  144.4899  135.6942  152.1751 N   0  3  2  0  0  0  0  0  0  0  0  0
  143.2397  135.1479  152.7404 C   0  0  0  0  0  0  0  0  0  0  0  0
  143.3788  135.1044  154.2774 C   0  0  0  0  0  0  0  0  0  0  0  0
  143.8051  136.4692  154.8657 C   0  0  0  0  0  0  0  0  0  0  0  0
  145.0416  137.0467  154.1427 C   0  0  0  0  0  0  0  0  0  0  0  0
  144.7695  137.0680  152.6279 C   0  0  1  0  0  0  0  0  0  0  0  0
  149.2542  138.2956  152.9879 H   0  0  0  0  0  0  0  0  0  0  0  0
  150.8407  138.3353  154.8454 H   0  0  0  0  0  0  0  0  0  0  0  0
  152.0535  139.7879  156.4125 H   0  0  0  0  0  0  0  0  0  0  0  0
  150.9223  144.0659  155.8115 H   0  0  0  0  0  0  0  0  0  0  0  0
  150.0367  144.0225  157.3191 H   0  0  0  0  0  0  0  0  0  0  0  0
  153.0187  144.6030  156.9496 H   0  0  0  0  0  0  0  0  0  0  0  0
  151.7925  145.7594  157.4107 H   0  0  0  0  0  0  0  0  0  0  0  0
  153.1104  144.9624  159.3934 H   0  0  0  0  0  0  0  0  0  0  0  0
  151.4110  144.5737  159.5524 H   0  0  0  0  0  0  0  0  0  0  0  0
  153.6191  142.6718  158.6255 H   0  0  0  0  0  0  0  0  0  0  0  0
  152.7718  142.5921  160.1509 H   0  0  0  0  0  0  0  0  0  0  0  0
  150.6498  142.0355  159.0179 H   0  0  0  0  0  0  0  0  0  0  0  0
  151.9201  140.9461  158.4774 H   0  0  0  0  0  0  0  0  0  0  0  0
  147.9554  141.5636  154.3176 H   0  0  0  0  0  0  0  0  0  0  0  0
  147.9161  137.4036  151.8827 H   0  0  0  0  0  0  0  0  0  0  0  0
  145.4252  138.5285  151.1892 H   0  0  0  0  0  0  0  0  0  0  0  0
  145.9508  136.9973  149.5218 H   0  0  0  0  0  0  0  0  0  0  0  0
  146.8040  135.9439  150.6436 H   0  0  0  0  0  0  0  0  0  0  0  0
  143.7987  136.1267  150.2345 H   0  0  0  0  0  0  0  0  0  0  0  0
  144.8000  134.6680  150.3327 H   0  0  0  0  0  0  0  0  0  0  0  0
  142.3904  135.7649  152.4428 H   0  0  0  0  0  0  0  0  0  0  0  0
  143.0652  134.1447  152.3498 H   0  0  0  0  0  0  0  0  0  0  0  0
  142.4409  134.7789  154.7285 H   0  0  0  0  0  0  0  0  0  0  0  0
  144.1235  134.3540  154.5467 H   0  0  0  0  0  0  0  0  0  0  0  0
  142.9758  137.1720  154.7752 H   0  0  0  0  0  0  0  0  0  0  0  0
  144.0070  136.3705  155.9327 H   0  0  0  0  0  0  0  0  0  0  0  0
  145.2457  138.0527  154.5104 H   0  0  0  0  0  0  0  0  0  0  0  0
  145.9214  136.4409  154.3635 H   0  0  0  0  0  0  0  0  0  0  0  0
  143.8640  137.6563  152.4624 H   0  0  0  0  0  0  0  0  0  0  0  0
  145.2397  135.1248  152.5404 H   0  0  0  0  0  0  0  0  0  0  0  0
  149.1860  142.8044  155.7732 H   0  0  0  0  0  0  0  0  0  0  0  0
  1  2  2  0  0  0  0
  2  3  1  0  0  0  0
  2 16  1  0  0  0  0
  3  4  1  0  0  0  0
  3 26  1  0  0  0  0
  4 15  1  0  0  0  0
  4  5  2  0  0  0  0
  5  6  1  0  0  0  0
  5 27  1  0  0  0  0
  6  7  2  0  0  0  0
  6 28  1  0  0  0  0
  7  8  1  0  0  0  0
  7 14  1  0  0  0  0
  8 13  1  0  0  0  0
  8  9  1  0  0  0  0
  9 10  1  0  0  0  0
  9 29  1  0  0  0  0
  9 30  1  0  0  0  0
 10 11  1  0  0  0  0
 10 31  1  0  0  0  0
 10 32  1  0  0  0  0
 11 12  1  0  0  0  0
 11 33  1  0  0  0  0
 11 34  1  0  0  0  0
 12 13  1  0  0  0  0
 12 35  1  0  0  0  0
 12 36  1  0  0  0  0
 13 37  1  0  0  0  0
 13 38  1  0  0  0  0
 14 15  2  0  0  0  0
 14 56  1  0  0  0  0
 15 39  1  0  0  0  0
 16 17  1  0  0  0  0
 16 40  1  0  0  0  0
 17 25  1  0  0  0  0
 17 18  1  0  0  0  0
 17 41  1  0  0  0  0
 18 19  1  0  0  0  0
 18 42  1  0  0  0  0
 18 43  1  0  0  0  0
 19 20  1  0  0  0  0
 19 44  1  0  0  0  0
 19 45  1  0  0  0  0
 20 25  1  0  0  0  0
 20 21  1  0  0  0  0
 20 55  1  0  0  0  0
 21 22  1  0  0  0  0
 21 46  1  0  0  0  0
 21 47  1  0  0  0  0
 22 23  1  0  0  0  0
 22 48  1  0  0  0  0
 22 49  1  0  0  0  0
 23 24  1  0  0  0  0
 23 50  1  0  0  0  0
 23 51  1  0  0  0  0
 24 25  1  0  0  0  0
 24 52  1  0  0  0  0
 24 53  1  0  0  0  0
 25 54  1  0  0  0  0
M  CHG  1  14   1
M  CHG  1  20   1
M  END
> <s_m_source_file>
AV-unprocessed.smi

> <i_m_source_file_index>
1645

> <i_lp_mmshare_version>
43012

> <i_f3d_flags>
0

> <s_epik_input>
W0NIMl0xW0NIMl1bQ0gyXVtDSDJdW0NASF0oTjEyKVtDQEBIXShbQ0gyXVtDSDJdMilbTkhdQyg9TylbTkhdYzNbY0hdW2NIXWMobltjSF0zKU40W0NIMl1bQ0gyXVtDSDJdW0NIMl1bQ0gyXTQ=

> <s_epik_cmdline>
J2VwaWtfcHl0aG9uJywgJy1waCcsICc3LjAnLCAnLXRuJywgJzgnLCAnLW1hJywgJzIwMCcsICctbWV0YWxfYmluZGluZycsICctaW1hZScsICc8aW5maWxlLm1hZT4nLCAnLW9tYWUnLCAnPG91dGZpbGUubWFlPic=

> <r_lp_tautomer_probability>
0.999994

> <r_epik_Ionization_Penalty>
1.26838

> <r_epik_Ionization_Penalty_Charging>
1.26836

> <r_epik_Ionization_Penalty_Neutral>
1.95562e-05

> <r_epik_State_Penalty>
1.33841

> <r_epik_Charging_Adjusted_Penalty>
2.60677

> <i_epik_Tot_Q>
2

> <i_epik_Tot_abs_Q>
2

> <r_epik_Metal_State_Penalty>
1.40601

> <b_epik_Metal_Only>
0

> <s_lp_Force_Field>
OPLS_2005

> <r_lp_Energy>
64.599

> <b_lp_Chiralities_Consistent>
1

> <s_lp_Variant>
AV-unprocessed.smi:1645-10

> <Gold.Version>
5.8.1

> <Gold.Id.Protein>
6NUR|6NUR_protein|mol2

> <Gold.PLP.Fitness>
53.6920

> <Gold.PLP.PLP>
-45.4792

> <Gold.PLP.part.hbond>
-3.5583

> <Gold.PLP.part.metal>
0.0000

> <Gold.PLP.part.buried>
2.1084

> <Gold.PLP.part.nonpolar>
-45.1645

> <Gold.PLP.part.repulsive>
0.4668

> <Gold.PLP.ligand.clash>
0.0000

> <Gold.PLP.ligand.torsion>
0.7969

> <Gold.PLP.Chemscore.Hbond>
3.1830

> <Gold.PLP.Chemscore.CHOScore>
0.0000

> <Gold.PLP.Chemscore.Metal>
0.0000

> <Gold.Chemscore.Hbonds>
donor molecule, donor type, donor heavy atom, donor atom, acceptor molecule, acceptor atom, score
      L1  H     3    26       P1  7948  0.17
      L1  H    14    56       P1  8028  2.00
      L1  H    16    40       P1  7948  1.00

> <Gold.PLP.Chemscore.Internal.Correction>
0.2575

> <Gold.Rescore>
     Score         DG    S(hbond)    S(metal)    S(lipo)     H(rot)  DE(clash)    DE(int)     intcor
     19.06     -24.51       1.98        0.00     128.01       1.00       3.70       1.74       ----

> <Gold.Chemscore.Fitness>
19.0643

> <Gold.Chemscore.DG>
-24.5115

> <Gold.Chemscore.ZeroCoef>
-5.4800

> <Gold.Chemscore.Hbond>
1.9802

> <Gold.Chemscore.Metal>
0.0000

> <Gold.Chemscore.Lipo>
128.0136

> <Gold.Chemscore.Internal_Hbond>
0.0000

> <Gold.Chemscore.DEClash>
3.7025

> <Gold.Chemscore.DEInternal>
1.7447

> <Gold.Chemscore.Rot>
1.0000

> <Gold.Chemscore.Internal.Correction>
   9.000000E+99

> <Gold.Chemscore.Hbonds>
donor molecule, donor type, donor heavy atom, donor atom, acceptor molecule, acceptor atom, score
      L1  H     3    26       P1  7948  0.17
      L1  H    14    56       P1  8028  0.99
      L1  H    16    40       P1  7948  0.92

> <Gold.Chemscore.Hbond.Weighted>
-6.6139

> <Gold.Chemscore.Metal.Weighted>
-0.0000

> <Gold.Chemscore.Lipo.Weighted>
-14.9776

> <Gold.Chemscore.Internal_Hbond.Weighted>
0.0000

> <Gold.Chemscore.DEClash.Weighted>
3.7025

> <Gold.Chemscore.DEInternal.Weighted>
1.7447

> <Gold.Chemscore.Rot.Weighted>
2.5600

> <Gold.Chemscore.Internal.Correction.Weighted>
   9.000000E+99

> <Gold.Protein.RotatedTorsions>
[ 6907 6896 6895 6894 ] final -165.04 input  -60.11 | X-H torsion
[ 7974 7965 7964 7962 ] final -110.35 input  175.53 | X-H torsion
[ 8008 7997 7996 7995 ] final  -83.81 input   59.86 | X-H torsion
[ 10167 10162 10161 10158 ] final  106.58 input  -65.29 | X-H torsion
[ 10718 10713 10712 10709 ] final   40.93 input   66.30 | X-H torsion
[ 10763 10752 10751 10750 ] final -153.13 input  -60.55 | X-H torsion
[ 11005 11000 10999 10996 ] final  -53.98 input  -57.11 | X-H torsion

> <Gold.Protein.ActiveResidues>
 VAL166  LYS551  ARG553  GLY616  TRP617  ASP618  TYR619  PRO620  LYS621  CYS622 
 ASP623  PHE694  ASN695  SER759  ASP760  ASP761  ALA762  ILE779  LEU786  VAL792 
 PHE793  MET794  SER795  GLU796  ALA797  LYS798  CYS799  TRP800  GLU811  SER814 

> <Gold.Protein.RotatedAtoms>
  151.4213  133.3697  159.2756 H   0  0  0  0  0  0  0  0  0  0  0  0  # atno 6907 bound_to 6896
  150.9291  134.8708  159.7550 H   0  0  0  0  0  0  0  0  0  0  0  0  # atno 6908 bound_to 6896
  152.5019  134.4156  159.9515 H   0  0  0  0  0  0  0  0  0  0  0  0  # atno 6909 bound_to 6896
  145.1693  140.8917  143.3545 H   0  0  0  0  0  0  0  0  0  0  0  0  # atno 7974 bound_to 7965
  154.6230  140.0614  156.9639 H   0  0  0  0  0  0  0  0  0  0  0  0  # atno 8008 bound_to 7997
  155.1787  140.3297  155.4361 H   0  0  0  0  0  0  0  0  0  0  0  0  # atno 8009 bound_to 7997
  156.2442  140.1901  156.6885 H   0  0  0  0  0  0  0  0  0  0  0  0  # atno 8010 bound_to 7997
  139.6997  144.7096  151.1206 H   0  0  0  0  0  0  0  0  0  0  0  0  # atno 10167 bound_to 10162
  157.3878  130.7789  149.7244 H   0  0  0  0  0  0  0  0  0  0  0  0  # atno 10718 bound_to 10713
  154.7948  135.3220  154.7692 H   0  0  0  0  0  0  0  0  0  0  0  0  # atno 10763 bound_to 10752
  153.8373  135.6874  153.4811 H   0  0  0  0  0  0  0  0  0  0  0  0  # atno 10764 bound_to 10752
  153.1634  135.4651  154.9746 H   0  0  0  0  0  0  0  0  0  0  0  0  # atno 10765 bound_to 10752
  141.1003  133.6619  156.4252 H   0  0  0  0  0  0  0  0  0  0  0  0  # atno 11005 bound_to 11000
  145.0250  139.3391  143.6053 LP  0  0  0  0  0  0  0  0  0  0  0  0  # atno 17320 bound_to 7965
  146.3471  139.9565  142.8722 LP  0  0  0  0  0  0  0  0  0  0  0  0  # atno 17321 bound_to 7965
  140.7706  143.5441  150.9279 LP  0  0  0  0  0  0  0  0  0  0  0  0  # atno 17342 bound_to 10162
  139.9122  143.6706  152.3113 LP  0  0  0  0  0  0  0  0  0  0  0  0  # atno 17343 bound_to 10162
  155.9791  130.4044  150.3609 LP  0  0  0  0  0  0  0  0  0  0  0  0  # atno 17370 bound_to 10713
  157.1722  131.0371  151.2790 LP  0  0  0  0  0  0  0  0  0  0  0  0  # atno 17371 bound_to 10713
  140.5039  134.6459  157.5259 LP  0  0  0  0  0  0  0  0  0  0  0  0  # atno 17394 bound_to 11000
  139.9852  134.7073  155.9787 LP  0  0  0  0  0  0  0  0  0  0  0  0  # atno 17395 bound_to 11000

$$$$
