AV-unprocessed.smi:1977|AV-procd|sdf|7991|dock8
  -GOLD-   2272010173D 1   1.00000     0.00000
 Structure written by MMmdl.
 45 46  0  0  0  0  0  0  0  0  1 V2000
  152.1396  143.3912  160.4477 C   0  0  0  0  0  0  0  0  0  0  0  0
  151.6589  144.7286  159.8581 C   0  0  0  0  0  0  0  0  0  0  0  0
  150.1510  144.9098  160.0847 C   0  0  0  0  0  0  0  0  0  0  0  0
  152.0061  144.8697  158.3606 C   0  0  0  0  0  0  0  0  0  0  0  0
  151.1043  144.1108  157.5001 N   0  0  0  0  0  0  0  0  0  0  0  0
  151.0628  142.7738  157.4186 C   0  0  0  0  0  0  0  0  0  0  0  0
  151.7885  142.0204  158.0676 O   0  0  0  0  0  0  0  0  0  0  0  0
  150.1390  142.3594  156.5397 N   0  0  0  0  0  0  0  0  0  0  0  0
  149.8358  140.9675  156.2156 C   0  0  0  0  0  0  0  0  0  0  0  0
  148.7743  140.7925  155.1265 C   0  0  0  0  0  0  0  0  0  0  0  0
  147.8564  141.8333  154.8525 C   0  0  0  0  0  0  0  0  0  0  0  0
  146.9093  141.6716  153.8260 C   0  0  0  0  0  0  0  0  0  0  0  0
  146.9163  140.4699  153.0977 C   0  0  0  0  0  0  0  0  0  0  0  0
  147.7875  139.4696  153.3370 N   0  0  0  0  0  0  0  0  0  0  0  0
  148.7034  139.6191  154.3253 C   0  0  0  0  0  0  0  0  0  0  0  0
  149.5783  138.5416  154.5525 N   0  0  0  0  0  0  0  0  0  0  0  0
  149.3602  137.7698  155.7719 C   0  0  0  0  0  0  0  0  0  0  0  0
  150.2733  136.5318  155.7767 C   0  0  0  0  0  0  0  0  0  0  0  0
  151.6309  136.9403  155.6312 O   0  0  0  0  0  0  0  0  0  0  0  0
  151.8532  137.6350  154.4068 C   0  0  0  0  0  0  0  0  0  0  0  0
  150.9782  138.8999  154.3627 C   0  0  0  0  0  0  0  0  0  0  0  0
  151.6848  142.5454  159.9311 H   0  0  0  0  0  0  0  0  0  0  0  0
  151.8799  143.3132  161.5038 H   0  0  0  0  0  0  0  0  0  0  0  0
  153.2220  143.2851  160.3733 H   0  0  0  0  0  0  0  0  0  0  0  0
  152.1638  145.5289  160.4007 H   0  0  0  0  0  0  0  0  0  0  0  0
  149.5770  144.1382  159.5709 H   0  0  0  0  0  0  0  0  0  0  0  0
  149.8115  145.8782  159.7161 H   0  0  0  0  0  0  0  0  0  0  0  0
  149.9036  144.8582  161.1455 H   0  0  0  0  0  0  0  0  0  0  0  0
  151.9506  145.9177  158.0641 H   0  0  0  0  0  0  0  0  0  0  0  0
  153.0351  144.5554  158.1774 H   0  0  0  0  0  0  0  0  0  0  0  0
  150.4676  144.6442  156.9261 H   0  0  0  0  0  0  0  0  0  0  0  0
  149.5981  143.0620  156.0572 H   0  0  0  0  0  0  0  0  0  0  0  0
  150.7347  140.4331  155.9048 H   0  0  0  0  0  0  0  0  0  0  0  0
  149.5236  140.5007  157.1481 H   0  0  0  0  0  0  0  0  0  0  0  0
  147.8735  142.7563  155.4120 H   0  0  0  0  0  0  0  0  0  0  0  0
  146.1987  142.4526  153.5995 H   0  0  0  0  0  0  0  0  0  0  0  0
  146.2058  140.3077  152.3008 H   0  0  0  0  0  0  0  0  0  0  0  0
  149.5768  138.3859  156.6459 H   0  0  0  0  0  0  0  0  0  0  0  0
  148.3144  137.4676  155.8369 H   0  0  0  0  0  0  0  0  0  0  0  0
  150.1643  135.9874  156.7147 H   0  0  0  0  0  0  0  0  0  0  0  0
  150.0017  135.8440  154.9743 H   0  0  0  0  0  0  0  0  0  0  0  0
  152.9071  137.9038  154.3360 H   0  0  0  0  0  0  0  0  0  0  0  0
  151.6324  136.9815  153.5613 H   0  0  0  0  0  0  0  0  0  0  0  0
  151.1159  139.4167  153.4125 H   0  0  0  0  0  0  0  0  0  0  0  0
  151.2822  139.5925  155.1490 H   0  0  0  0  0  0  0  0  0  0  0  0
  1  2  1  0  0  0  0
  1 22  1  0  0  0  0
  1 23  1  0  0  0  0
  1 24  1  0  0  0  0
  2  3  1  0  0  0  0
  2  4  1  0  0  0  0
  2 25  1  0  0  0  0
  3 26  1  0  0  0  0
  3 27  1  0  0  0  0
  3 28  1  0  0  0  0
  4  5  1  0  0  0  0
  4 29  1  0  0  0  0
  4 30  1  0  0  0  0
  5  6  1  0  0  0  0
  5 31  1  0  0  0  0
  6  7  2  0  0  0  0
  6  8  1  0  0  0  0
  8  9  1  0  0  0  0
  8 32  1  0  0  0  0
  9 10  1  0  0  0  0
  9 33  1  0  0  0  0
  9 34  1  0  0  0  0
 10 15  1  0  0  0  0
 10 11  2  0  0  0  0
 11 12  1  0  0  0  0
 11 35  1  0  0  0  0
 12 13  2  0  0  0  0
 12 36  1  0  0  0  0
 13 14  1  0  0  0  0
 13 37  1  0  0  0  0
 14 15  2  0  0  0  0
 15 16  1  0  0  0  0
 16 21  1  0  0  0  0
 16 17  1  0  0  0  0
 17 18  1  0  0  0  0
 17 38  1  0  0  0  0
 17 39  1  0  0  0  0
 18 19  1  0  0  0  0
 18 40  1  0  0  0  0
 18 41  1  0  0  0  0
 19 20  1  0  0  0  0
 20 21  1  0  0  0  0
 20 42  1  0  0  0  0
 20 43  1  0  0  0  0
 21 44  1  0  0  0  0
 21 45  1  0  0  0  0
M  END
> <s_m_source_file>
AV-unprocessed.smi

> <i_m_source_file_index>
1977

> <i_lp_mmshare_version>
43012

> <i_f3d_flags>
0

> <s_epik_input>
W0NIM11bQ0hdKFtDSDNdKVtDSDJdW05IXUMoPU8pW05IXVtDSDJdYzFbY0hdW2NIXVtjSF1uYzFOMltDSDJdW0NIMl1PW0NIMl1bQ0gyXTI=

> <s_epik_cmdline>
J2VwaWtfcHl0aG9uJywgJy1waCcsICc3LjAnLCAnLXRuJywgJzgnLCAnLW1hJywgJzIwMCcsICctbWV0YWxfYmluZGluZycsICctaW1hZScsICc8aW5maWxlLm1hZT4nLCAnLW9tYWUnLCAnPG91dGZpbGUubWFlPic=

> <r_lp_tautomer_probability>
1

> <r_epik_Ionization_Penalty>
0.00617532

> <r_epik_Ionization_Penalty_Charging>
0

> <r_epik_Ionization_Penalty_Neutral>
0.00617532

> <r_epik_State_Penalty>
0.00451205

> <r_epik_Charging_Adjusted_Penalty>
0.00451205

> <i_epik_Tot_Q>
0

> <i_epik_Tot_abs_Q>
0

> <r_epik_Metal_State_Penalty>
-0

> <b_epik_Metal_Only>
0

> <s_lp_Force_Field>
OPLS_2005

> <r_lp_Energy>
18.8779

> <b_lp_Chiralities_Consistent>
1

> <s_lp_Variant>
AV-unprocessed.smi:1977-1

> <Gold.Version>
5.8.1

> <Gold.Id.Protein>
6NUR|6NUR_protein|mol2

> <Gold.PLP.Fitness>
48.7013

> <Gold.PLP.PLP>
-40.8332

> <Gold.PLP.part.hbond>
-2.8037

> <Gold.PLP.part.metal>
0.0000

> <Gold.PLP.part.buried>
-5.6419

> <Gold.PLP.part.nonpolar>
-35.3571

> <Gold.PLP.part.repulsive>
1.7168

> <Gold.PLP.ligand.clash>
0.0000

> <Gold.PLP.ligand.torsion>
0.6161

> <Gold.PLP.Chemscore.Hbond>
1.9750

> <Gold.PLP.Chemscore.CHOScore>
0.9972

> <Gold.PLP.Chemscore.Metal>
0.0000

> <Gold.Chemscore.Hbonds>
donor molecule, donor type, donor heavy atom, donor atom, acceptor molecule, acceptor atom, score
      L1  H     5    31       P1  8028  1.00
      L1  H     8    32       P1  8028  1.00
      L1  C    13    37       P1 10175  0.94

> <Gold.PLP.Chemscore.Internal.Correction>
0.1837

> <Gold.Rescore>
     Score         DG    S(hbond)    S(metal)    S(lipo)     H(rot)  DE(clash)    DE(int)     intcor
     16.87     -18.90       1.85        0.00     100.53       1.77       0.35       1.69       ----

> <Gold.Chemscore.Fitness>
16.8659

> <Gold.Chemscore.DG>
-18.9041

> <Gold.Chemscore.ZeroCoef>
-5.4800

> <Gold.Chemscore.Hbond>
1.8514

> <Gold.Chemscore.Metal>
0.0000

> <Gold.Chemscore.Lipo>
100.5268

> <Gold.Chemscore.Internal_Hbond>
0.0000

> <Gold.Chemscore.DEClash>
0.3506

> <Gold.Chemscore.DEInternal>
1.6875

> <Gold.Chemscore.Rot>
1.7662

> <Gold.Chemscore.Internal.Correction>
   9.000000E+99

> <Gold.Chemscore.Hbonds>
donor molecule, donor type, donor heavy atom, donor atom, acceptor molecule, acceptor atom, score
      L1  H     5    31       P1  8028  0.73
      L1  H     8    32       P1  8028  0.99

> <Gold.Chemscore.Hbond.Weighted>
-6.1838

> <Gold.Chemscore.Metal.Weighted>
-0.0000

> <Gold.Chemscore.Lipo.Weighted>
-11.7616

> <Gold.Chemscore.Internal_Hbond.Weighted>
0.0000

> <Gold.Chemscore.DEClash.Weighted>
0.3506

> <Gold.Chemscore.DEInternal.Weighted>
1.6875

> <Gold.Chemscore.Rot.Weighted>
4.5214

> <Gold.Chemscore.Internal.Correction.Weighted>
   9.000000E+99

> <Gold.Protein.RotatedTorsions>
[ 6907 6896 6895 6894 ] final  167.24 input  -60.11 | X-H torsion
[ 7974 7965 7964 7962 ] final -176.12 input  175.53 | X-H torsion
[ 8008 7997 7996 7995 ] final   45.91 input   59.86 | X-H torsion
[ 10167 10162 10161 10158 ] final   -0.62 input  -65.29 | X-H torsion
[ 10718 10713 10712 10709 ] final  101.18 input   66.30 | X-H torsion
[ 10763 10752 10751 10750 ] final  164.37 input  -60.55 | X-H torsion
[ 11005 11000 10999 10996 ] final   48.74 input  -57.11 | X-H torsion

> <Gold.Protein.ActiveResidues>
 VAL166  LYS551  ARG553  GLY616  TRP617  ASP618  TYR619  PRO620  LYS621  CYS622 
 ASP623  PHE694  ASN695  SER759  ASP760  ASP761  ALA762  ILE779  LEU786  VAL792 
 PHE793  MET794  SER795  GLU796  ALA797  LYS798  CYS799  TRP800  GLU811  SER814 

> <Gold.Protein.RotatedAtoms>
  151.8664  133.3467  159.3720 H   0  0  0  0  0  0  0  0  0  0  0  0  # atno 6907 bound_to 6896
  150.7165  134.5156  159.5638 H   0  0  0  0  0  0  0  0  0  0  0  0  # atno 6908 bound_to 6896
  152.2679  134.7964  160.0470 H   0  0  0  0  0  0  0  0  0  0  0  0  # atno 6909 bound_to 6896
  144.7127  140.1217  143.6404 H   0  0  0  0  0  0  0  0  0  0  0  0  # atno 7974 bound_to 7965
  155.3437  140.3409  155.4239 H   0  0  0  0  0  0  0  0  0  0  0  0  # atno 8008 bound_to 7997
  156.1800  140.1660  156.8328 H   0  0  0  0  0  0  0  0  0  0  0  0  # atno 8009 bound_to 7997
  154.5323  140.0742  156.8349 H   0  0  0  0  0  0  0  0  0  0  0  0  # atno 8010 bound_to 7997
  140.6775  143.6872  150.8057 H   0  0  0  0  0  0  0  0  0  0  0  0  # atno 10167 bound_to 10162
  157.6836  131.0719  150.5213 H   0  0  0  0  0  0  0  0  0  0  0  0  # atno 10718 bound_to 10713
  154.3078  135.2758  155.2580 H   0  0  0  0  0  0  0  0  0  0  0  0  # atno 10763 bound_to 10752
  154.4989  135.5813  153.6519 H   0  0  0  0  0  0  0  0  0  0  0  0  # atno 10764 bound_to 10752
  152.9892  135.6153  154.3253 H   0  0  0  0  0  0  0  0  0  0  0  0  # atno 10765 bound_to 10752
  140.1164  134.4887  155.8634 H   0  0  0  0  0  0  0  0  0  0  0  0  # atno 11005 bound_to 11000
  145.9365  139.2640  143.1294 LP  0  0  0  0  0  0  0  0  0  0  0  0  # atno 17320 bound_to 7965
  145.9469  140.8938  143.0279 LP  0  0  0  0  0  0  0  0  0  0  0  0  # atno 17321 bound_to 7965
  140.0568  143.5195  152.2647 LP  0  0  0  0  0  0  0  0  0  0  0  0  # atno 17342 bound_to 10162
  139.6077  144.7600  151.3024 LP  0  0  0  0  0  0  0  0  0  0  0  0  # atno 17343 bound_to 10162
  156.5526  130.4235  149.6100 LP  0  0  0  0  0  0  0  0  0  0  0  0  # atno 17370 bound_to 10713
  156.2889  130.7113  151.1957 LP  0  0  0  0  0  0  0  0  0  0  0  0  # atno 17371 bound_to 10713
  141.2142  133.6745  156.6805 LP  0  0  0  0  0  0  0  0  0  0  0  0  # atno 17394 bound_to 11000
  140.3022  134.8154  157.4107 LP  0  0  0  0  0  0  0  0  0  0  0  0  # atno 17395 bound_to 11000

$$$$
