AV-unprocessed.smi:2062|AV-procd|sdf|8400|dock4
  -GOLD-   2272011 83D 1   1.00000     0.00000
 Structure written by MMmdl.
 42 43  0  0  0  0  0  0  0  0  1 V2000
  152.7104  138.3425  156.4211 C   0  0  0  0  0  0  0  0  0  0  0  0
  151.7591  139.4752  155.9977 C   0  0  0  0  0  0  0  0  0  0  0  0
  150.9133  140.0086  157.1663 C   0  0  0  0  0  0  0  0  0  0  0  0
  150.9361  139.1561  154.7249 C   0  0  0  0  0  0  0  0  0  0  0  0
  149.5237  139.5505  154.7100 N   0  0  0  0  0  0  0  0  0  0  0  0
  149.3977  141.0042  154.7348 C   0  0  0  0  0  0  0  0  0  0  0  0
  147.9297  141.4594  154.7214 C   0  0  0  0  0  0  0  0  0  0  0  0
  147.2791  140.9164  153.5788 O   0  0  0  0  0  0  0  0  0  0  0  0
  147.3194  139.4919  153.5451 C   0  0  1  0  0  0  0  0  0  0  0  0
  146.5784  139.0108  152.2859 C   0  0  0  0  0  0  0  0  0  0  0  0
  146.7361  137.5748  152.0814 N   0  0  0  0  0  0  0  0  0  0  0  0
  145.7422  136.7288  151.7746 C   0  0  0  0  0  0  0  0  0  0  0  0
  144.5692  137.0800  151.6422 O   0  0  0  0  0  0  0  0  0  0  0  0
  146.1981  135.4718  151.6343 N   0  0  0  0  0  0  0  0  0  0  0  0
  145.4606  134.3004  151.3188 C   0  0  0  0  0  0  0  0  0  0  0  0
  144.1669  134.2915  150.9760 N   0  0  0  0  0  0  0  0  0  0  0  0
  143.7003  132.9994  150.7214 C   0  0  0  0  0  0  0  0  0  0  0  0
  144.6592  132.0292  150.8753 C   0  0  0  0  0  0  0  0  0  0  0  0
  146.1956  132.7040  151.3489 S   0  0  0  0  0  0  0  0  0  0  0  0
  148.7915  139.0334  153.5564 C   0  0  0  0  0  0  0  0  0  0  0  0
  152.1847  137.4718  156.8070 H   0  0  0  0  0  0  0  0  0  0  0  0
  153.3869  138.6818  157.2060 H   0  0  0  0  0  0  0  0  0  0  0  0
  153.3260  138.0142  155.5834 H   0  0  0  0  0  0  0  0  0  0  0  0
  152.4191  140.2945  155.7094 H   0  0  0  0  0  0  0  0  0  0  0  0
  150.2498  139.2433  157.5692 H   0  0  0  0  0  0  0  0  0  0  0  0
  150.2972  140.8512  156.8509 H   0  0  0  0  0  0  0  0  0  0  0  0
  151.5490  140.3535  157.9822 H   0  0  0  0  0  0  0  0  0  0  0  0
  151.4309  139.6819  153.9068 H   0  0  0  0  0  0  0  0  0  0  0  0
  151.0302  138.0975  154.4782 H   0  0  0  0  0  0  0  0  0  0  0  0
  149.8871  141.4032  155.6240 H   0  0  0  0  0  0  0  0  0  0  0  0
  149.9144  141.4348  153.8754 H   0  0  0  0  0  0  0  0  0  0  0  0
  147.4157  141.1414  155.6298 H   0  0  0  0  0  0  0  0  0  0  0  0
  147.8702  142.5470  154.6827 H   0  0  0  0  0  0  0  0  0  0  0  0
  146.8192  139.0990  154.4324 H   0  0  0  0  0  0  0  0  0  0  0  0
  145.5141  139.2326  152.3700 H   0  0  0  0  0  0  0  0  0  0  0  0
  146.9368  139.5485  151.4062 H   0  0  0  0  0  0  0  0  0  0  0  0
  147.6711  137.2040  152.1669 H   0  0  0  0  0  0  0  0  0  0  0  0
  147.1887  135.3363  151.7722 H   0  0  0  0  0  0  0  0  0  0  0  0
  142.6679  132.8609  150.4357 H   0  0  0  0  0  0  0  0  0  0  0  0
  144.5550  130.9631  150.7393 H   0  0  0  0  0  0  0  0  0  0  0  0
  149.2823  139.3473  152.6338 H   0  0  0  0  0  0  0  0  0  0  0  0
  148.7994  137.9462  153.5673 H   0  0  0  0  0  0  0  0  0  0  0  0
  1  2  1  0  0  0  0
  1 21  1  0  0  0  0
  1 22  1  0  0  0  0
  1 23  1  0  0  0  0
  2  3  1  0  0  0  0
  2  4  1  0  0  0  0
  2 24  1  0  0  0  0
  3 25  1  0  0  0  0
  3 26  1  0  0  0  0
  3 27  1  0  0  0  0
  4  5  1  0  0  0  0
  4 28  1  0  0  0  0
  4 29  1  0  0  0  0
  5 20  1  0  0  0  0
  5  6  1  0  0  0  0
  6  7  1  0  0  0  0
  6 30  1  0  0  0  0
  6 31  1  0  0  0  0
  7  8  1  0  0  0  0
  7 32  1  0  0  0  0
  7 33  1  0  0  0  0
  8  9  1  0  0  0  0
  9 10  1  0  0  0  0
  9 20  1  0  0  0  0
  9 34  1  0  0  0  0
 10 11  1  0  0  0  0
 10 35  1  0  0  0  0
 10 36  1  0  0  0  0
 11 12  1  0  0  0  0
 11 37  1  0  0  0  0
 12 13  2  0  0  0  0
 12 14  1  0  0  0  0
 14 15  1  0  0  0  0
 14 38  1  0  0  0  0
 15 19  1  0  0  0  0
 15 16  2  0  0  0  0
 16 17  1  0  0  0  0
 17 18  2  0  0  0  0
 17 39  1  0  0  0  0
 18 19  1  0  0  0  0
 18 40  1  0  0  0  0
 20 41  1  0  0  0  0
 20 42  1  0  0  0  0
M  END
> <s_m_source_file>
AV-unprocessed.smi

> <i_m_source_file_index>
2062

> <i_lp_mmshare_version>
43012

> <i_f3d_flags>
0

> <s_epik_input>
W0NIM11bQ0hdKFtDSDNdKVtDSDJdTjFbQ0gyXVtDSDJdT1tDQEhdKFtDSDJdMSlbQ0gyXVtOSF1DKD1PKVtOSF1jMm5bY0hdW2NIXXMy

> <s_epik_cmdline>
J2VwaWtfcHl0aG9uJywgJy1waCcsICc3LjAnLCAnLXRuJywgJzgnLCAnLW1hJywgJzIwMCcsICctbWV0YWxfYmluZGluZycsICctaW1hZScsICc8aW5maWxlLm1hZT4nLCAnLW9tYWUnLCAnPG91dGZpbGUubWFlPic=

> <r_lp_tautomer_probability>
0.999

> <r_epik_Ionization_Penalty>
1.11227

> <r_epik_Ionization_Penalty_Charging>
0

> <r_epik_Ionization_Penalty_Neutral>
1.11227

> <r_epik_State_Penalty>
1.17021

> <r_epik_Charging_Adjusted_Penalty>
1.17021

> <i_epik_Tot_Q>
0

> <i_epik_Tot_abs_Q>
0

> <r_epik_Metal_State_Penalty>
1.22349

> <b_epik_Metal_Only>
0

> <s_lp_Force_Field>
OPLS_2005

> <r_lp_Energy>
27.0187

> <b_lp_Chiralities_Consistent>
1

> <s_lp_Variant>
AV-unprocessed.smi:2062-5

> <Gold.Version>
5.8.1

> <Gold.Id.Protein>
6NUR|6NUR_protein|mol2

> <Gold.PLP.Fitness>
38.2381

> <Gold.PLP.PLP>
-30.9572

> <Gold.PLP.part.hbond>
-2.0000

> <Gold.PLP.part.metal>
0.0000

> <Gold.PLP.part.buried>
-0.9897

> <Gold.PLP.part.nonpolar>
-32.7063

> <Gold.PLP.part.repulsive>
4.3993

> <Gold.PLP.ligand.clash>
0.0000

> <Gold.PLP.ligand.torsion>
0.8077

> <Gold.PLP.Chemscore.Hbond>
1.9440

> <Gold.PLP.Chemscore.CHOScore>
1.0000

> <Gold.PLP.Chemscore.Metal>
0.0000

> <Gold.Chemscore.Hbonds>
donor molecule, donor type, donor heavy atom, donor atom, acceptor molecule, acceptor atom, score
      L1  H    11    37       P1  7948  1.00
      L1  H    14    38       P1  7948  0.91
      L1  C    17    39       P1 10186  1.00

> <Gold.PLP.Chemscore.Internal.Correction>
0.0643

> <Gold.Rescore>
     Score         DG    S(hbond)    S(metal)    S(lipo)     H(rot)  DE(clash)    DE(int)     intcor
     13.17     -16.29       1.83        0.00      77.78       1.72       1.02       2.10       ----

> <Gold.Chemscore.Fitness>
13.1665

> <Gold.Chemscore.DG>
-16.2863

> <Gold.Chemscore.ZeroCoef>
-5.4800

> <Gold.Chemscore.Hbond>
1.8287

> <Gold.Chemscore.Metal>
0.0000

> <Gold.Chemscore.Lipo>
77.7814

> <Gold.Chemscore.Internal_Hbond>
0.0000

> <Gold.Chemscore.DEClash>
1.0212

> <Gold.Chemscore.DEInternal>
2.0986

> <Gold.Chemscore.Rot>
1.7195

> <Gold.Chemscore.Internal.Correction>
   9.000000E+99

> <Gold.Chemscore.Hbonds>
donor molecule, donor type, donor heavy atom, donor atom, acceptor molecule, acceptor atom, score
      L1  H    11    37       P1  7948  0.98
      L1  H    14    38       P1  7948  0.88

> <Gold.Chemscore.Hbond.Weighted>
-6.1078

> <Gold.Chemscore.Metal.Weighted>
-0.0000

> <Gold.Chemscore.Lipo.Weighted>
-9.1004

> <Gold.Chemscore.Internal_Hbond.Weighted>
0.0000

> <Gold.Chemscore.DEClash.Weighted>
1.0212

> <Gold.Chemscore.DEInternal.Weighted>
2.0986

> <Gold.Chemscore.Rot.Weighted>
4.4019

> <Gold.Chemscore.Internal.Correction.Weighted>
   9.000000E+99

> <Gold.Protein.RotatedTorsions>
[ 6907 6896 6895 6894 ] final -155.99 input  -60.11 | X-H torsion
[ 7974 7965 7964 7962 ] final   89.75 input  175.53 | X-H torsion
[ 8008 7997 7996 7995 ] final  113.91 input   59.86 | X-H torsion
[ 10167 10162 10161 10158 ] final  -33.34 input  -65.29 | X-H torsion
[ 10718 10713 10712 10709 ] final  -51.75 input   66.30 | X-H torsion
[ 10763 10752 10751 10750 ] final -149.20 input  -60.55 | X-H torsion
[ 11005 11000 10999 10996 ] final  -58.87 input  -57.11 | X-H torsion

> <Gold.Protein.ActiveResidues>
 VAL166  LYS551  ARG553  GLY616  TRP617  ASP618  TYR619  PRO620  LYS621  CYS622 
 ASP623  PHE694  ASN695  SER759  ASP760  ASP761  ALA762  ILE779  LEU786  VAL792 
 PHE793  MET794  SER795  GLU796  ALA797  LYS798  CYS799  TRP800  GLU811  SER814 

> <Gold.Protein.RotatedAtoms>
  151.2808  133.4210  159.2626 H   0  0  0  0  0  0  0  0  0  0  0  0  # atno 6907 bound_to 6896
  151.0362  134.9575  159.8148 H   0  0  0  0  0  0  0  0  0  0  0  0  # atno 6908 bound_to 6896
  152.5356  134.2768  159.9045 H   0  0  0  0  0  0  0  0  0  0  0  0  # atno 6909 bound_to 6896
  145.5282  139.2282  143.2633 H   0  0  0  0  0  0  0  0  0  0  0  0  # atno 7974 bound_to 7965
  156.2288  140.2970  156.0134 H   0  0  0  0  0  0  0  0  0  0  0  0  # atno 8008 bound_to 7997
  155.2283  140.0418  157.2975 H   0  0  0  0  0  0  0  0  0  0  0  0  # atno 8009 bound_to 7997
  154.5960  140.2414  155.7864 H   0  0  0  0  0  0  0  0  0  0  0  0  # atno 8010 bound_to 7997
  140.7206  143.3628  151.1930 H   0  0  0  0  0  0  0  0  0  0  0  0  # atno 10167 bound_to 10162
  156.1682  130.4149  149.9688 H   0  0  0  0  0  0  0  0  0  0  0  0  # atno 10718 bound_to 10713
  154.8191  135.3315  154.7092 H   0  0  0  0  0  0  0  0  0  0  0  0  # atno 10763 bound_to 10752
  153.7728  135.6924  153.4907 H   0  0  0  0  0  0  0  0  0  0  0  0  # atno 10764 bound_to 10752
  153.2033  135.4508  155.0241 H   0  0  0  0  0  0  0  0  0  0  0  0  # atno 10765 bound_to 10752
  141.1225  133.6614  156.4986 H   0  0  0  0  0  0  0  0  0  0  0  0  # atno 11005 bound_to 11000
  146.2061  140.6098  142.9080 LP  0  0  0  0  0  0  0  0  0  0  0  0  # atno 17320 bound_to 7965
  144.7639  140.5487  143.6716 LP  0  0  0  0  0  0  0  0  0  0  0  0  # atno 17321 bound_to 7965
  139.7183  143.9264  152.2975 LP  0  0  0  0  0  0  0  0  0  0  0  0  # atno 17342 bound_to 10162
  139.9012  144.6910  150.8663 LP  0  0  0  0  0  0  0  0  0  0  0  0  # atno 17343 bound_to 10162
  156.7496  130.9110  151.3636 LP  0  0  0  0  0  0  0  0  0  0  0  0  # atno 17370 bound_to 10713
  157.6783  130.9116  150.0205 LP  0  0  0  0  0  0  0  0  0  0  0  0  # atno 17371 bound_to 10713
  140.4464  134.6968  157.5018 LP  0  0  0  0  0  0  0  0  0  0  0  0  # atno 17394 bound_to 11000
  140.0194  134.6569  155.9261 LP  0  0  0  0  0  0  0  0  0  0  0  0  # atno 17395 bound_to 11000

$$$$
