AV-unprocessed.smi:2138|AV-procd|sdf|8711|dock3
  -GOLD-   2272011473D 1   1.00000     0.00000
 Structure written by MMmdl.
 46 47  0  0  0  0  0  0  0  0  1 V2000
  152.2787  143.6435  159.7783 C   0  0  0  0  0  0  0  0  0  0  0  0
  151.1690  142.9965  159.1806 O   0  0  0  0  0  0  0  0  0  0  0  0
  151.3510  142.7801  157.7915 C   0  0  0  0  0  0  0  0  0  0  0  0
  150.2151  141.8957  157.2703 C   0  0  0  0  0  0  0  0  0  0  0  0
  150.5036  141.5266  155.9252 O   0  0  0  0  0  0  0  0  0  0  0  0
  150.4771  140.1883  155.5889 C   0  0  0  0  0  0  0  0  0  0  0  0
  150.6106  139.2325  156.6152 C   0  0  0  0  0  0  0  0  0  0  0  0
  150.5794  137.8644  156.2825 C   0  0  0  0  0  0  0  0  0  0  0  0
  150.4221  137.4932  154.9249 C   0  0  0  0  0  0  0  0  0  0  0  0
  150.3564  136.1547  154.4484 N   0  0  0  0  0  0  0  0  0  0  0  0
  149.9823  135.0333  155.0924 C   0  0  0  0  0  0  0  0  0  0  0  0
  149.6389  134.9809  156.2731 O   0  0  0  0  0  0  0  0  0  0  0  0
  150.0143  133.7446  154.2544 C   0  0  1  0  0  0  0  0  0  0  0  0
  149.6765  132.5041  155.1028 C   0  0  0  0  0  0  0  0  0  0  0  0
  148.3375  132.0357  154.5576 C   0  0  0  0  0  0  0  0  0  0  0  0
  147.7101  131.1058  155.0623 O   0  0  0  0  0  0  0  0  0  0  0  0
  147.9635  132.7655  153.4964 N   0  0  0  0  0  0  0  0  0  0  0  0
  146.7396  132.6352  152.6956 C   0  0  0  0  0  0  0  0  0  0  0  0
  146.5165  131.1840  152.2352 C   0  0  0  0  0  0  0  0  0  0  0  0
  146.7276  133.6250  151.5177 C   0  0  0  0  0  0  0  0  0  0  0  0
  148.9637  133.7542  153.1239 C   0  0  0  0  0  0  0  0  0  0  0  0
  150.2919  138.5284  153.9758 C   0  0  0  0  0  0  0  0  0  0  0  0
  150.3196  139.8409  154.2881 N   0  0  0  0  0  0  0  0  0  0  0  0
  152.0912  143.7833  160.8430 H   0  0  0  0  0  0  0  0  0  0  0  0
  152.4489  144.6253  159.3348 H   0  0  0  0  0  0  0  0  0  0  0  0
  153.1870  143.0488  159.6718 H   0  0  0  0  0  0  0  0  0  0  0  0
  151.3564  143.7329  157.2598 H   0  0  0  0  0  0  0  0  0  0  0  0
  152.3123  142.2958  157.6122 H   0  0  0  0  0  0  0  0  0  0  0  0
  150.1277  141.0057  157.8958 H   0  0  0  0  0  0  0  0  0  0  0  0
  149.2713  142.4412  157.3229 H   0  0  0  0  0  0  0  0  0  0  0  0
  150.7291  139.5435  157.6428 H   0  0  0  0  0  0  0  0  0  0  0  0
  150.6652  137.1404  157.0766 H   0  0  0  0  0  0  0  0  0  0  0  0
  150.6623  136.0262  153.4947 H   0  0  0  0  0  0  0  0  0  0  0  0
  151.0085  133.6270  153.8195 H   0  0  0  0  0  0  0  0  0  0  0  0
  150.4198  131.7187  154.9635 H   0  0  0  0  0  0  0  0  0  0  0  0
  149.6012  132.7094  156.1721 H   0  0  0  0  0  0  0  0  0  0  0  0
  145.8993  132.8972  153.3404 H   0  0  0  0  0  0  0  0  0  0  0  0
  145.5555  131.0805  151.7311 H   0  0  0  0  0  0  0  0  0  0  0  0
  146.5183  130.4988  153.0838 H   0  0  0  0  0  0  0  0  0  0  0  0
  147.2874  130.8542  151.5385 H   0  0  0  0  0  0  0  0  0  0  0  0
  145.7723  133.5936  150.9933 H   0  0  0  0  0  0  0  0  0  0  0  0
  147.5068  133.3997  150.7894 H   0  0  0  0  0  0  0  0  0  0  0  0
  146.8781  134.6481  151.8636 H   0  0  0  0  0  0  0  0  0  0  0  0
  148.5002  134.7326  152.9827 H   0  0  0  0  0  0  0  0  0  0  0  0
  149.4162  133.4663  152.1741 H   0  0  0  0  0  0  0  0  0  0  0  0
  150.1611  138.2981  152.9285 H   0  0  0  0  0  0  0  0  0  0  0  0
  1  2  1  0  0  0  0
  1 24  1  0  0  0  0
  1 25  1  0  0  0  0
  1 26  1  0  0  0  0
  2  3  1  0  0  0  0
  3  4  1  0  0  0  0
  3 27  1  0  0  0  0
  3 28  1  0  0  0  0
  4  5  1  0  0  0  0
  4 29  1  0  0  0  0
  4 30  1  0  0  0  0
  5  6  1  0  0  0  0
  6 23  1  0  0  0  0
  6  7  2  0  0  0  0
  7  8  1  0  0  0  0
  7 31  1  0  0  0  0
  8  9  2  0  0  0  0
  8 32  1  0  0  0  0
  9 10  1  0  0  0  0
  9 22  1  0  0  0  0
 10 11  1  0  0  0  0
 10 33  1  0  0  0  0
 11 12  2  0  0  0  0
 11 13  1  0  0  0  0
 13 21  1  0  0  0  0
 13 14  1  0  0  0  0
 13 34  1  0  0  0  0
 14 15  1  0  0  0  0
 14 35  1  0  0  0  0
 14 36  1  0  0  0  0
 15 16  2  0  0  0  0
 15 17  1  0  0  0  0
 17 18  1  0  0  0  0
 17 21  1  0  0  0  0
 18 19  1  0  0  0  0
 18 20  1  0  0  0  0
 18 37  1  0  0  0  0
 19 38  1  0  0  0  0
 19 39  1  0  0  0  0
 19 40  1  0  0  0  0
 20 41  1  0  0  0  0
 20 42  1  0  0  0  0
 20 43  1  0  0  0  0
 21 44  1  0  0  0  0
 21 45  1  0  0  0  0
 22 23  2  0  0  0  0
 22 46  1  0  0  0  0
M  END
> <s_m_source_file>
AV-unprocessed.smi

> <i_m_source_file_index>
2138

> <i_lp_mmshare_version>
43012

> <i_f3d_flags>
0

> <s_epik_input>
W0NIM11PW0NIMl1bQ0gyXU9jMVtjSF1bY0hdYyhbY0hdbjEpW05IXUMoPU8pW0NAQEhdMltDSDJdQyg9TylOKFtDSDJdMilbQ0hdKFtDSDNdKVtDSDNd

> <s_epik_cmdline>
J2VwaWtfcHl0aG9uJywgJy1waCcsICc3LjAnLCAnLXRuJywgJzgnLCAnLW1hJywgJzIwMCcsICctbWV0YWxfYmluZGluZycsICctaW1hZScsICc8aW5maWxlLm1hZT4nLCAnLW9tYWUnLCAnPG91dGZpbGUubWFlPic=

> <r_lp_tautomer_probability>
1

> <r_epik_Ionization_Penalty>
1.72652e-05

> <r_epik_Ionization_Penalty_Charging>
0

> <r_epik_Ionization_Penalty_Neutral>
1.72652e-05

> <r_epik_State_Penalty>
-0

> <r_epik_Charging_Adjusted_Penalty>
0

> <i_epik_Tot_Q>
0

> <i_epik_Tot_abs_Q>
0

> <r_epik_Metal_State_Penalty>
-0

> <b_epik_Metal_Only>
0

> <s_lp_Force_Field>
OPLS_2005

> <r_lp_Energy>
21.5992

> <b_lp_Chiralities_Consistent>
1

> <s_lp_Variant>
AV-unprocessed.smi:2138-2

> <Gold.Version>
5.8.1

> <Gold.Id.Protein>
6NUR|6NUR_protein|mol2

> <Gold.PLP.Fitness>
41.6734

> <Gold.PLP.PLP>
-33.6833

> <Gold.PLP.part.hbond>
-2.9963

> <Gold.PLP.part.metal>
0.0000

> <Gold.PLP.part.buried>
-3.3292

> <Gold.PLP.part.nonpolar>
-27.2818

> <Gold.PLP.part.repulsive>
0.3185

> <Gold.PLP.ligand.clash>
0.0000

> <Gold.PLP.ligand.torsion>
0.9536

> <Gold.PLP.Chemscore.Hbond>
1.5000

> <Gold.PLP.Chemscore.CHOScore>
1.7624

> <Gold.PLP.Chemscore.Metal>
0.0000

> <Gold.Chemscore.Hbonds>
donor molecule, donor type, donor heavy atom, donor atom, acceptor molecule, acceptor atom, score
      L1  H    10    33       P1  7949  0.42
      P1  H  7989  7998       L1    23  1.00
      L1  C    22    46       P1  7948  0.88
      L1  C    22    46       P1  7949  0.02
      L1  C    22    46       P1  7957  0.89

> <Gold.PLP.Chemscore.Internal.Correction>
0.1100

> <Gold.Rescore>
     Score         DG    S(hbond)    S(metal)    S(lipo)     H(rot)  DE(clash)    DE(int)     intcor
     10.90     -12.96       0.92        0.00      81.61       2.00       0.15       1.91       ----

> <Gold.Chemscore.Fitness>
10.8968

> <Gold.Chemscore.DG>
-12.9584

> <Gold.Chemscore.ZeroCoef>
-5.4800

> <Gold.Chemscore.Hbond>
0.9160

> <Gold.Chemscore.Metal>
0.0000

> <Gold.Chemscore.Lipo>
81.6073

> <Gold.Chemscore.Internal_Hbond>
0.0000

> <Gold.Chemscore.DEClash>
0.1525

> <Gold.Chemscore.DEInternal>
1.9091

> <Gold.Chemscore.Rot>
2.0035

> <Gold.Chemscore.Internal.Correction>
   9.000000E+99

> <Gold.Chemscore.Hbonds>
donor molecule, donor type, donor heavy atom, donor atom, acceptor molecule, acceptor atom, score
      L1  H    10    33       P1  7949  0.01
      P1  H  7989  7998       L1    23  0.28

> <Gold.Chemscore.Hbond.Weighted>
-3.0594

> <Gold.Chemscore.Metal.Weighted>
-0.0000

> <Gold.Chemscore.Lipo.Weighted>
-9.5481

> <Gold.Chemscore.Internal_Hbond.Weighted>
0.0000

> <Gold.Chemscore.DEClash.Weighted>
0.1525

> <Gold.Chemscore.DEInternal.Weighted>
1.9091

> <Gold.Chemscore.Rot.Weighted>
5.1290

> <Gold.Chemscore.Internal.Correction.Weighted>
   9.000000E+99

> <Gold.Protein.RotatedTorsions>
[ 6907 6896 6895 6894 ] final  -38.84 input  -60.11 | X-H torsion
[ 7974 7965 7964 7962 ] final   58.61 input  175.53 | X-H torsion
[ 8008 7997 7996 7995 ] final -157.13 input   59.86 | X-H torsion
[ 10167 10162 10161 10158 ] final  172.84 input  -65.29 | X-H torsion
[ 10718 10713 10712 10709 ] final  -97.15 input   66.30 | X-H torsion
[ 10763 10752 10751 10750 ] final  -15.75 input  -60.55 | X-H torsion
[ 11005 11000 10999 10996 ] final   87.24 input  -57.11 | X-H torsion

> <Gold.Protein.ActiveResidues>
 VAL166  LYS551  ARG553  GLY616  TRP617  ASP618  TYR619  PRO620  LYS621  CYS622 
 ASP623  PHE694  ASN695  SER759  ASP760  ASP761  ALA762  ILE779  LEU786  VAL792 
 PHE793  MET794  SER795  GLU796  ALA797  LYS798  CYS799  TRP800  GLU811  SER814 

> <Gold.Protein.RotatedAtoms>
  150.9976  134.9296  159.7934 H   0  0  0  0  0  0  0  0  0  0  0  0  # atno 6907 bound_to 6896
  152.5269  134.3198  159.9154 H   0  0  0  0  0  0  0  0  0  0  0  0  # atno 6908 bound_to 6896
  151.3203  133.4001  159.2688 H   0  0  0  0  0  0  0  0  0  0  0  0  # atno 6909 bound_to 6896
  145.9163  139.3694  143.0505 H   0  0  0  0  0  0  0  0  0  0  0  0  # atno 7974 bound_to 7965
  155.7278  140.0798  157.2302 H   0  0  0  0  0  0  0  0  0  0  0  0  # atno 8008 bound_to 7997
  154.4037  140.1601  156.2529 H   0  0  0  0  0  0  0  0  0  0  0  0  # atno 8009 bound_to 7997
  155.9137  140.3402  155.6121 H   0  0  0  0  0  0  0  0  0  0  0  0  # atno 8010 bound_to 7997
  139.5089  144.3328  152.0094 H   0  0  0  0  0  0  0  0  0  0  0  0  # atno 10167 bound_to 10162
  156.0077  130.5182  150.6332 H   0  0  0  0  0  0  0  0  0  0  0  0  # atno 10718 bound_to 10713
  153.5481  135.7012  153.5604 H   0  0  0  0  0  0  0  0  0  0  0  0  # atno 10763 bound_to 10752
  153.3540  135.3987  155.1668 H   0  0  0  0  0  0  0  0  0  0  0  0  # atno 10764 bound_to 10752
  154.8665  135.3772  154.4990 H   0  0  0  0  0  0  0  0  0  0  0  0  # atno 10765 bound_to 10752
  139.8924  134.8409  156.2833 H   0  0  0  0  0  0  0  0  0  0  0  0  # atno 11005 bound_to 11000
  145.8607  140.9477  143.0701 LP  0  0  0  0  0  0  0  0  0  0  0  0  # atno 17320 bound_to 7965
  144.6748  140.0527  143.7478 LP  0  0  0  0  0  0  0  0  0  0  0  0  # atno 17321 bound_to 7965
  140.2768  144.3904  150.6132 LP  0  0  0  0  0  0  0  0  0  0  0  0  # atno 17342 bound_to 10162
  140.6048  143.2167  151.7002 LP  0  0  0  0  0  0  0  0  0  0  0  0  # atno 17343 bound_to 10162
  157.4126  131.0826  151.1206 LP  0  0  0  0  0  0  0  0  0  0  0  0  # atno 17370 bound_to 10713
  157.1833  130.6319  149.5679 LP  0  0  0  0  0  0  0  0  0  0  0  0  # atno 17371 bound_to 10713
  141.0025  133.7143  156.0982 LP  0  0  0  0  0  0  0  0  0  0  0  0  # atno 17394 bound_to 11000
  140.7479  134.4078  157.5545 LP  0  0  0  0  0  0  0  0  0  0  0  0  # atno 17395 bound_to 11000

$$$$
