AV-unprocessed.smi:62|AV-procd|sdf|602|dock6
  -GOLD-   2262016493D 1   1.00000     0.00000
 Structure written by MMmdl.
 31 32  0  0  0  0  0  0  0  0  3 V2000
  152.1899  144.7438  158.8979 C   0  0  0  0  0  0  0  0  0  0  0  0
  151.9015  143.4566  158.3029 N   0  0  0  0  0  0  0  0  0  0  0  0
  151.0258  143.1545  157.2869 C   0  0  0  0  0  0  0  0  0  0  0  0
  151.0887  141.8078  157.0544 C   0  0  0  0  0  0  0  0  0  0  0  0
  150.2885  141.0753  155.9995 C   0  0  0  0  0  0  0  0  0  0  0  0
  149.0368  141.7990  155.6740 N   0  3  2  0  0  0  0  0  0  0  0  0
  148.0014  141.7245  156.7245 C   0  0  0  0  0  0  0  0  0  0  0  0
  146.6924  142.0305  156.0046 C   0  0  0  0  0  0  0  0  0  0  0  0
  146.8865  141.3325  154.6614 C   0  0  1  0  0  0  0  0  0  0  0  0
  146.1060  141.9244  153.6444 O   0  0  0  0  0  0  0  0  0  0  0  0
  148.3934  141.4438  154.3850 C   0  0  0  0  0  0  0  0  0  0  0  0
  152.0530  141.3600  158.0246 C   0  0  0  0  0  0  0  0  0  0  0  0
  152.4635  139.9189  158.1806 C   0  0  0  0  0  0  0  0  0  0  0  0
  153.5823  139.6287  158.6556 O   0  0  0  0  0  0  0  0  0  0  0  0
  151.6507  139.0397  157.8199 O   0  5  0  0  0  0  0  0  0  0  0  0
  152.5328  142.3587  158.7542 N   0  0  0  0  0  0  0  0  0  0  0  0
  151.8000  145.5428  158.2664 H   0  0  0  0  0  0  0  0  0  0  0  0
  153.2676  144.8726  159.0047 H   0  0  0  0  0  0  0  0  0  0  0  0
  151.7223  144.8065  159.8809 H   0  0  0  0  0  0  0  0  0  0  0  0
  150.4335  143.9205  156.8083 H   0  0  0  0  0  0  0  0  0  0  0  0
  150.8441  140.8662  155.0884 H   0  0  0  0  0  0  0  0  0  0  0  0
  150.0064  140.0928  156.3799 H   0  0  0  0  0  0  0  0  0  0  0  0
  147.9655  140.7151  157.1382 H   0  0  0  0  0  0  0  0  0  0  0  0
  148.2042  142.4190  157.5403 H   0  0  0  0  0  0  0  0  0  0  0  0
  145.8142  141.6769  156.5458 H   0  0  0  0  0  0  0  0  0  0  0  0
  146.5945  143.1086  155.8662 H   0  0  0  0  0  0  0  0  0  0  0  0
  146.6117  140.2811  154.7588 H   0  0  0  0  0  0  0  0  0  0  0  0
  145.4239  141.3186  153.3964 H   0  0  0  0  0  0  0  0  0  0  0  0
  148.6189  142.2315  153.6649 H   0  0  0  0  0  0  0  0  0  0  0  0
  148.7652  140.5078  153.9728 H   0  0  0  0  0  0  0  0  0  0  0  0
  149.2773  142.7764  155.5959 H   0  0  0  0  0  0  0  0  0  0  0  0
  1  2  1  0  0  0  0
  1 17  1  0  0  0  0
  1 18  1  0  0  0  0
  1 19  1  0  0  0  0
  2 16  1  0  0  0  0
  2  3  1  0  0  0  0
  3  4  2  0  0  0  0
  3 20  1  0  0  0  0
  4  5  1  0  0  0  0
  4 12  1  0  0  0  0
  5  6  1  0  0  0  0
  5 21  1  0  0  0  0
  5 22  1  0  0  0  0
  6 11  1  0  0  0  0
  6  7  1  0  0  0  0
  6 31  1  0  0  0  0
  7  8  1  0  0  0  0
  7 23  1  0  0  0  0
  7 24  1  0  0  0  0
  8  9  1  0  0  0  0
  8 25  1  0  0  0  0
  8 26  1  0  0  0  0
  9 10  1  0  0  0  0
  9 11  1  0  0  0  0
  9 27  1  0  0  0  0
 10 28  1  0  0  0  0
 11 29  1  0  0  0  0
 11 30  1  0  0  0  0
 12 13  1  0  0  0  0
 12 16  2  0  0  0  0
 13 14  2  0  0  0  0
 13 15  1  0  0  0  0
M  CHG  1   6   1
M  CHG  1  15  -1
M  END
> <s_m_source_file>
AV-unprocessed.smi

> <i_m_source_file_index>
62

> <i_lp_mmshare_version>
43012

> <i_f3d_flags>
0

> <s_epik_input>
W0NIM11uMVtjSF1jKGMobjEpQyg9TylbT0hdKVtDSDJdTjJbQ0gyXVtDSDJdW0NAQEhdKFtPSF0pW0NIMl0y

> <s_epik_cmdline>
J2VwaWtfcHl0aG9uJywgJy1waCcsICc3LjAnLCAnLXRuJywgJzgnLCAnLW1hJywgJzIwMCcsICctbWV0YWxfYmluZGluZycsICctaW1hZScsICc8aW5maWxlLm1hZT4nLCAnLW9tYWUnLCAnPG91dGZpbGUubWFlPic=

> <r_epik_Ionization_Penalty>
0.0522993

> <r_epik_Ionization_Penalty_Charging>
0.0522915

> <r_epik_Ionization_Penalty_Neutral>
7.84975e-06

> <r_epik_State_Penalty>
0.0448084

> <r_epik_Charging_Adjusted_Penalty>
0.0970998

> <i_epik_Tot_Q>
0

> <i_epik_Tot_abs_Q>
2

> <r_epik_Metal_State_Penalty>
0.0448097

> <b_epik_Metal_Only>
0

> <s_lp_Force_Field>
OPLS_2005

> <r_lp_Energy>
19.3892

> <b_lp_Chiralities_Consistent>
1

> <s_lp_Variant>
AV-unprocessed.smi:62-2

> <Gold.Version>
5.8.1

> <Gold.Id.Protein>
6NUR|6NUR_protein|mol2

> <Gold.PLP.Fitness>
44.8498

> <Gold.PLP.PLP>
-28.8713

> <Gold.PLP.part.hbond>
-3.0000

> <Gold.PLP.part.metal>
0.0000

> <Gold.PLP.part.buried>
-4.2187

> <Gold.PLP.part.nonpolar>
-23.4069

> <Gold.PLP.part.repulsive>
0.1056

> <Gold.PLP.ligand.clash>
0.0000

> <Gold.PLP.ligand.torsion>
0.7589

> <Gold.PLP.Chemscore.Hbond>
4.8288

> <Gold.PLP.Chemscore.CHOScore>
1.0000

> <Gold.PLP.Chemscore.Metal>
0.0000

> <Gold.Chemscore.Hbonds>
donor molecule, donor type, donor heavy atom, donor atom, acceptor molecule, acceptor atom, score
      L1  H     6    31       P1  8028  2.00
      L1  H    10    28       P1 10175  0.73
      P1  H  7997  8008       L1    14  2.00
      L1  C     3    20       P1  8028  1.00

> <Gold.PLP.Chemscore.Internal.Correction>
0.0099

> <Gold.Rescore>
     Score         DG    S(hbond)    S(metal)    S(lipo)     H(rot)  DE(clash)    DE(int)     intcor
     15.02     -16.12       2.52        0.00      58.65       1.81       0.10       1.00       ----

> <Gold.Chemscore.Fitness>
15.0179

> <Gold.Chemscore.DG>
-16.1230

> <Gold.Chemscore.ZeroCoef>
-5.4800

> <Gold.Chemscore.Hbond>
2.5188

> <Gold.Chemscore.Metal>
0.0000

> <Gold.Chemscore.Lipo>
58.6453

> <Gold.Chemscore.Internal_Hbond>
0.0000

> <Gold.Chemscore.DEClash>
0.1036

> <Gold.Chemscore.DEInternal>
1.0015

> <Gold.Chemscore.Rot>
1.8091

> <Gold.Chemscore.Internal.Correction>
   9.000000E+99

> <Gold.Chemscore.Hbonds>
donor molecule, donor type, donor heavy atom, donor atom, acceptor molecule, acceptor atom, score
      L1  H     6    31       P1  8028  0.95
      L1  H    10    28       P1 10175  0.16
      P1  H  7997  8008       L1    14  0.30

> <Gold.Chemscore.Hbond.Weighted>
-8.4128

> <Gold.Chemscore.Metal.Weighted>
-0.0000

> <Gold.Chemscore.Lipo.Weighted>
-6.8615

> <Gold.Chemscore.Internal_Hbond.Weighted>
0.0000

> <Gold.Chemscore.DEClash.Weighted>
0.1036

> <Gold.Chemscore.DEInternal.Weighted>
1.0015

> <Gold.Chemscore.Rot.Weighted>
4.6314

> <Gold.Chemscore.Internal.Correction.Weighted>
   9.000000E+99

> <Gold.Protein.RotatedTorsions>
[ 6907 6896 6895 6894 ] final  -35.70 input  -60.11 | X-H torsion
[ 7974 7965 7964 7962 ] final    1.41 input  175.53 | X-H torsion
[ 8008 7997 7996 7995 ] final  -97.29 input   59.86 | X-H torsion
[ 10167 10162 10161 10158 ] final -168.65 input  -65.29 | X-H torsion
[ 10718 10713 10712 10709 ] final  -16.43 input   66.30 | X-H torsion
[ 10763 10752 10751 10750 ] final  102.05 input  -60.55 | X-H torsion
[ 11005 11000 10999 10996 ] final   51.13 input  -57.11 | X-H torsion

> <Gold.Protein.ActiveResidues>
 VAL166  LYS551  ARG553  GLY616  TRP617  ASP618  TYR619  PRO620  LYS621  CYS622 
 ASP623  PHE694  ASN695  SER759  ASP760  ASP761  ALA762  ILE779  LEU786  VAL792 
 PHE793  MET794  SER795  GLU796  ALA797  LYS798  CYS799  TRP800  GLU811  SER814 

> <Gold.Protein.RotatedAtoms>
  151.0365  134.9577  159.8138 H   0  0  0  0  0  0  0  0  0  0  0  0  # atno 6907 bound_to 6896
  152.5356  134.2713  159.8982 H   0  0  0  0  0  0  0  0  0  0  0  0  # atno 6908 bound_to 6896
  151.2723  133.4206  159.2656 H   0  0  0  0  0  0  0  0  0  0  0  0  # atno 6909 bound_to 6896
  146.2440  140.0990  142.8348 H   0  0  0  0  0  0  0  0  0  0  0  0  # atno 7974 bound_to 7965
  154.7858  140.0464  157.1163 H   0  0  0  0  0  0  0  0  0  0  0  0  # atno 8008 bound_to 7997
  154.9649  140.3082  155.4994 H   0  0  0  0  0  0  0  0  0  0  0  0  # atno 8009 bound_to 7997
  156.2943  140.2264  156.4738 H   0  0  0  0  0  0  0  0  0  0  0  0  # atno 8010 bound_to 7997
  139.5971  144.1088  152.1702 H   0  0  0  0  0  0  0  0  0  0  0  0  # atno 10167 bound_to 10162
  156.5877  130.4791  149.6293 H   0  0  0  0  0  0  0  0  0  0  0  0  # atno 10718 bound_to 10713
  153.3346  135.4024  155.1523 H   0  0  0  0  0  0  0  0  0  0  0  0  # atno 10763 bound_to 10752
  154.8630  135.3618  154.5426 H   0  0  0  0  0  0  0  0  0  0  0  0  # atno 10764 bound_to 10752
  153.5867  135.7075  153.5500 H   0  0  0  0  0  0  0  0  0  0  0  0  # atno 10765 bound_to 10752
  140.0959  134.5146  155.8808 H   0  0  0  0  0  0  0  0  0  0  0  0  # atno 11005 bound_to 11000
  145.0584  140.9070  143.4953 LP  0  0  0  0  0  0  0  0  0  0  0  0  # atno 17320 bound_to 7965
  145.1101  139.2763  143.5641 LP  0  0  0  0  0  0  0  0  0  0  0  0  # atno 17321 bound_to 7965
  140.0676  144.5806  150.7216 LP  0  0  0  0  0  0  0  0  0  0  0  0  # atno 17342 bound_to 10162
  140.7221  143.2599  151.4244 LP  0  0  0  0  0  0  0  0  0  0  0  0  # atno 17343 bound_to 10162
  156.2576  130.6944  151.1702 LP  0  0  0  0  0  0  0  0  0  0  0  0  # atno 17370 bound_to 10713
  157.7311  131.0611  150.5693 LP  0  0  0  0  0  0  0  0  0  0  0  0  # atno 17371 bound_to 10713
  141.2092  133.6681  156.6421 LP  0  0  0  0  0  0  0  0  0  0  0  0  # atno 17394 bound_to 11000
  140.3287  134.7947  157.4309 LP  0  0  0  0  0  0  0  0  0  0  0  0  # atno 17395 bound_to 11000

$$$$
