AV-unprocessed.smi:2695|AV-procd|sdf|10409|dock4
  -GOLD-   2272014443D 1   1.00000     0.00000
 Structure written by MMmdl.
 42 43  0  0  0  0  0  0  0  0  1 V2000
  150.9214  135.3110  156.7789 C   0  0  0  0  0  0  0  0  0  0  0  0
  150.6986  136.6551  156.0957 C   0  0  0  0  0  0  0  0  0  0  0  0
  149.7989  136.7896  155.1043 C   0  0  0  0  0  0  0  0  0  0  0  0
  149.6375  138.0651  154.4508 C   0  0  0  0  0  0  0  0  0  0  0  0
  148.7369  138.2063  153.4704 O   0  0  0  0  0  0  0  0  0  0  0  0
  150.4034  139.1064  154.8252 C   0  0  0  0  0  0  0  0  0  0  0  0
  151.3987  138.9906  155.8937 C   0  0  0  0  0  0  0  0  0  0  0  0
  152.1052  139.9469  156.2162 O   0  0  0  0  0  0  0  0  0  0  0  0
  151.4898  137.7673  156.5088 N   0  0  0  0  0  0  0  0  0  0  0  0
  152.4440  137.6155  157.6318 C   0  0  0  0  0  0  0  0  0  0  0  0
  152.1585  138.5548  158.8134 C   0  0  0  0  0  0  0  0  0  0  0  0
  151.1098  138.4678  159.4537 O   0  0  0  0  0  0  0  0  0  0  0  0
  153.1078  139.4669  159.0727 N   0  0  0  0  0  0  0  0  0  0  0  0
  153.0675  140.4755  160.1338 C   0  0  2  0  0  0  0  0  0  0  0  0
  152.9395  141.8879  159.5047 C   0  0  0  0  0  0  0  0  0  0  0  0
  152.6241  143.0150  160.4973 C   0  0  0  0  0  0  0  0  0  0  0  0
  151.9997  144.1472  159.6707 C   0  0  0  0  0  0  0  0  0  0  0  0
  151.5922  143.5301  158.3265 C   0  0  0  0  0  0  0  0  0  0  0  0
  151.8102  142.0236  158.4746 C   0  0  0  0  0  0  0  0  0  0  0  0
  154.3140  140.2995  161.0309 C   0  0  0  0  0  0  0  0  0  0  0  0
  154.4017  139.0327  161.4385 F   0  0  0  0  0  0  0  0  0  0  0  0
  155.4239  140.6094  160.3596 F   0  0  0  0  0  0  0  0  0  0  0  0
  154.2358  141.0692  162.1157 F   0  0  0  0  0  0  0  0  0  0  0  0
  150.4538  134.5085  156.2077 H   0  0  0  0  0  0  0  0  0  0  0  0
  150.4773  135.3081  157.7745 H   0  0  0  0  0  0  0  0  0  0  0  0
  151.9795  135.0628  156.8598 H   0  0  0  0  0  0  0  0  0  0  0  0
  149.2073  135.9439  154.7845 H   0  0  0  0  0  0  0  0  0  0  0  0
  148.8843  137.5125  152.8460 H   0  0  0  0  0  0  0  0  0  0  0  0
  150.2842  140.0597  154.3304 H   0  0  0  0  0  0  0  0  0  0  0  0
  152.4383  136.5893  158.0046 H   0  0  0  0  0  0  0  0  0  0  0  0
  153.4745  137.7555  157.3085 H   0  0  0  0  0  0  0  0  0  0  0  0
  153.9343  139.4611  158.4926 H   0  0  0  0  0  0  0  0  0  0  0  0
  152.1920  140.3049  160.7631 H   0  0  0  0  0  0  0  0  0  0  0  0
  153.8754  142.1361  159.0017 H   0  0  0  0  0  0  0  0  0  0  0  0
  151.8999  142.6677  161.2354 H   0  0  0  0  0  0  0  0  0  0  0  0
  153.5092  143.3518  161.0377 H   0  0  0  0  0  0  0  0  0  0  0  0
  151.1419  144.5754  160.1900 H   0  0  0  0  0  0  0  0  0  0  0  0
  152.7181  144.9522  159.5115 H   0  0  0  0  0  0  0  0  0  0  0  0
  150.5630  143.7681  158.0558 H   0  0  0  0  0  0  0  0  0  0  0  0
  152.2367  143.9187  157.5368 H   0  0  0  0  0  0  0  0  0  0  0  0
  152.0470  141.5486  157.5219 H   0  0  0  0  0  0  0  0  0  0  0  0
  150.9000  141.5595  158.8581 H   0  0  0  0  0  0  0  0  0  0  0  0
  1  2  1  0  0  0  0
  1 24  1  0  0  0  0
  1 25  1  0  0  0  0
  1 26  1  0  0  0  0
  2  9  1  0  0  0  0
  2  3  2  0  0  0  0
  3  4  1  0  0  0  0
  3 27  1  0  0  0  0
  4  5  1  0  0  0  0
  4  6  2  0  0  0  0
  5 28  1  0  0  0  0
  6  7  1  0  0  0  0
  6 29  1  0  0  0  0
  7  8  2  0  0  0  0
  7  9  1  0  0  0  0
  9 10  1  0  0  0  0
 10 11  1  0  0  0  0
 10 30  1  0  0  0  0
 10 31  1  0  0  0  0
 11 12  2  0  0  0  0
 11 13  1  0  0  0  0
 13 14  1  0  0  0  0
 13 32  1  0  0  0  0
 14 15  1  0  0  0  0
 14 20  1  0  0  0  0
 14 33  1  0  0  0  0
 15 19  1  0  0  0  0
 15 16  1  0  0  0  0
 15 34  1  0  0  0  0
 16 17  1  0  0  0  0
 16 35  1  0  0  0  0
 16 36  1  0  0  0  0
 17 18  1  0  0  0  0
 17 37  1  0  0  0  0
 17 38  1  0  0  0  0
 18 19  1  0  0  0  0
 18 39  1  0  0  0  0
 18 40  1  0  0  0  0
 19 41  1  0  0  0  0
 19 42  1  0  0  0  0
 20 21  1  0  0  0  0
 20 22  1  0  0  0  0
 20 23  1  0  0  0  0
M  END
> <s_m_source_file>
AV-unprocessed.smi

> <i_m_source_file_index>
2695

> <i_lp_mmshare_version>
43012

> <i_f3d_flags>
0

> <s_epik_input>
W0NIM11jMVtjSF1jKFtPSF0pW2NIXWMoPU8pbjFbQ0gyXUMoPU8pW05IXVtDQEBIXShDKEYpKEYpRilbQ0hdMltDSDJdW0NIMl1bQ0gyXVtDSDJdMg==

> <s_epik_cmdline>
J2VwaWtfcHl0aG9uJywgJy1waCcsICc3LjAnLCAnLXRuJywgJzgnLCAnLW1hJywgJzIwMCcsICctbWV0YWxfYmluZGluZycsICctaW1hZScsICc8aW5maWxlLm1hZT4nLCAnLW9tYWUnLCAnPG91dGZpbGUubWFlPic=

> <r_lp_tautomer_probability>
0.999984

> <r_epik_Ionization_Penalty>
0.843628

> <r_epik_Ionization_Penalty_Charging>
1.18449e-07

> <r_epik_Ionization_Penalty_Neutral>
0.843628

> <r_epik_State_Penalty>
0.886913

> <r_epik_Charging_Adjusted_Penalty>
0.886913

> <i_epik_Tot_Q>
0

> <i_epik_Tot_abs_Q>
0

> <r_epik_Metal_State_Penalty>
0.886913

> <b_epik_Metal_Only>
0

> <s_lp_Force_Field>
OPLS_2005

> <r_lp_Energy>
35.2102

> <b_lp_Chiralities_Consistent>
1

> <s_lp_Variant>
AV-unprocessed.smi:2695-3

> <Gold.Version>
5.8.1

> <Gold.Id.Protein>
6NUR|6NUR_protein|mol2

> <Gold.PLP.Fitness>
49.5952

> <Gold.PLP.PLP>
-43.6362

> <Gold.PLP.part.hbond>
-3.3766

> <Gold.PLP.part.metal>
0.0000

> <Gold.PLP.part.buried>
-2.1990

> <Gold.PLP.part.nonpolar>
-38.3900

> <Gold.PLP.part.repulsive>
0.0920

> <Gold.PLP.ligand.clash>
0.0000

> <Gold.PLP.ligand.torsion>
0.2044

> <Gold.PLP.Chemscore.Hbond>
2.0000

> <Gold.PLP.Chemscore.CHOScore>
0.0000

> <Gold.PLP.Chemscore.Metal>
0.0000

> <Gold.Chemscore.Hbonds>
donor molecule, donor type, donor heavy atom, donor atom, acceptor molecule, acceptor atom, score
      L1  H     5    28       P1  7948  1.00
      P1  H  7997  8010       L1     8  0.34

> <Gold.PLP.Chemscore.Internal.Correction>
0.3678

> <Gold.Rescore>
     Score         DG    S(hbond)    S(metal)    S(lipo)     H(rot)  DE(clash)    DE(int)     intcor
     17.90     -18.47       2.00        0.00     105.59       2.36       0.11       0.46       ----

> <Gold.Chemscore.Fitness>
17.9022

> <Gold.Chemscore.DG>
-18.4706

> <Gold.Chemscore.ZeroCoef>
-5.4800

> <Gold.Chemscore.Hbond>
1.9994

> <Gold.Chemscore.Metal>
0.0000

> <Gold.Chemscore.Lipo>
105.5884

> <Gold.Chemscore.Internal_Hbond>
0.0000

> <Gold.Chemscore.DEClash>
0.1102

> <Gold.Chemscore.DEInternal>
0.4581

> <Gold.Chemscore.Rot>
2.3599

> <Gold.Chemscore.Internal.Correction>
   9.000000E+99

> <Gold.Chemscore.Hbonds>
donor molecule, donor type, donor heavy atom, donor atom, acceptor molecule, acceptor atom, score
      L1  H     5    28       P1  7948  0.98
      P1  H  7997  8010       L1     8  0.33

> <Gold.Chemscore.Hbond.Weighted>
-6.6780

> <Gold.Chemscore.Metal.Weighted>
-0.0000

> <Gold.Chemscore.Lipo.Weighted>
-12.3538

> <Gold.Chemscore.Internal_Hbond.Weighted>
0.0000

> <Gold.Chemscore.DEClash.Weighted>
0.1102

> <Gold.Chemscore.DEInternal.Weighted>
0.4581

> <Gold.Chemscore.Rot.Weighted>
6.0413

> <Gold.Chemscore.Internal.Correction.Weighted>
   9.000000E+99

> <Gold.Protein.RotatedTorsions>
[ 6907 6896 6895 6894 ] final  156.99 input  -60.11 | X-H torsion
[ 7974 7965 7964 7962 ] final  123.66 input  175.53 | X-H torsion
[ 8008 7997 7996 7995 ] final   94.99 input   59.86 | X-H torsion
[ 10167 10162 10161 10158 ] final  -13.84 input  -65.29 | X-H torsion
[ 10718 10713 10712 10709 ] final  162.24 input   66.30 | X-H torsion
[ 10763 10752 10751 10750 ] final -175.42 input  -60.55 | X-H torsion
[ 11005 11000 10999 10996 ] final   85.57 input  -57.11 | X-H torsion

> <Gold.Protein.ActiveResidues>
 VAL166  LYS551  ARG553  GLY616  TRP617  ASP618  TYR619  PRO620  LYS621  CYS622 
 ASP623  PHE694  ASN695  SER759  ASP760  ASP761  ALA762  ILE779  LEU786  VAL792 
 PHE793  MET794  SER795  GLU796  ALA797  LYS798  CYS799  TRP800  GLU811  SER814 

> <Gold.Protein.RotatedAtoms>
  152.0216  133.3901  159.4260 H   0  0  0  0  0  0  0  0  0  0  0  0  # atno 6907 bound_to 6896
  150.6890  134.3619  159.4963 H   0  0  0  0  0  0  0  0  0  0  0  0  # atno 6908 bound_to 6896
  152.1394  134.9074  160.0605 H   0  0  0  0  0  0  0  0  0  0  0  0  # atno 6909 bound_to 6896
  145.0934  139.3570  143.4849 H   0  0  0  0  0  0  0  0  0  0  0  0  # atno 7974 bound_to 7965
  156.0640  140.3292  155.7496 H   0  0  0  0  0  0  0  0  0  0  0  0  # atno 8008 bound_to 7997
  155.5410  140.0601  157.2887 H   0  0  0  0  0  0  0  0  0  0  0  0  # atno 8009 bound_to 7997
  154.4496  140.1911  156.0579 H   0  0  0  0  0  0  0  0  0  0  0  0  # atno 8010 bound_to 7997
  140.7190  143.5383  150.9438 H   0  0  0  0  0  0  0  0  0  0  0  0  # atno 10167 bound_to 10162
  157.1253  131.0503  151.2396 H   0  0  0  0  0  0  0  0  0  0  0  0  # atno 10718 bound_to 10713
  154.5846  135.2839  155.0698 H   0  0  0  0  0  0  0  0  0  0  0  0  # atno 10763 bound_to 10752
  154.2021  135.6422  153.5094 H   0  0  0  0  0  0  0  0  0  0  0  0  # atno 10764 bound_to 10752
  153.0100  135.5471  154.6512 H   0  0  0  0  0  0  0  0  0  0  0  0  # atno 10765 bound_to 10752
  139.8968  134.8296  156.2601 H   0  0  0  0  0  0  0  0  0  0  0  0  # atno 11005 bound_to 11000
  146.3531  140.0779  142.8619 LP  0  0  0  0  0  0  0  0  0  0  0  0  # atno 17320 bound_to 7965
  145.1039  140.9363  143.4696 LP  0  0  0  0  0  0  0  0  0  0  0  0  # atno 17321 bound_to 7965
  139.9105  143.6725  152.3116 LP  0  0  0  0  0  0  0  0  0  0  0  0  # atno 17342 bound_to 10162
  139.7107  144.7620  151.1117 LP  0  0  0  0  0  0  0  0  0  0  0  0  # atno 17343 bound_to 10162
  157.4441  130.7560  149.7094 LP  0  0  0  0  0  0  0  0  0  0  0  0  # atno 17370 bound_to 10713
  155.9819  130.4014  150.3443 LP  0  0  0  0  0  0  0  0  0  0  0  0  # atno 17371 bound_to 10713
  141.0168  133.7064  156.1202 LP  0  0  0  0  0  0  0  0  0  0  0  0  # atno 17394 bound_to 11000
  140.7290  134.4275  157.5568 LP  0  0  0  0  0  0  0  0  0  0  0  0  # atno 17395 bound_to 11000

$$$$
