AV-unprocessed.smi:851|AV-procd|sdf|3950|dock5
  -GOLD-   22720 1423D 1   1.00000     0.00000
 Structure written by MMmdl.
 34 35  0  0  0  0  0  0  0  0  1 V2000
  146.0343  133.1123  152.1552 C   0  0  0  0  0  0  0  0  0  0  0  0
  147.0611  133.6614  152.9735 O   0  0  0  0  0  0  0  0  0  0  0  0
  147.6064  132.8720  153.9684 C   0  0  0  0  0  0  0  0  0  0  0  0
  147.1085  131.6230  154.1492 N   0  0  0  0  0  0  0  0  0  0  0  0
  147.6389  130.8555  155.1236 C   0  0  0  0  0  0  0  0  0  0  0  0
  148.6789  131.2895  155.9662 C   0  0  0  0  0  0  0  0  0  0  0  0
  149.1972  132.5843  155.7802 C   0  0  0  0  0  0  0  0  0  0  0  0
  148.6603  133.3962  154.7520 C   0  0  0  0  0  0  0  0  0  0  0  0
  149.0906  134.7239  154.4836 N   0  0  0  0  0  0  0  0  0  0  0  0
  150.0118  135.4664  155.1270 C   0  0  0  0  0  0  0  0  0  0  0  0
  150.6372  135.1035  156.1206 O   0  0  0  0  0  0  0  0  0  0  0  0
  150.2266  136.6728  154.5713 N   0  0  0  0  0  0  0  0  0  0  0  0
  151.1517  137.7188  155.0121 C   0  0  1  0  0  0  0  0  0  0  0  0
  150.8223  139.0658  154.3421 C   0  0  0  0  0  0  0  0  0  0  0  0
  151.5747  140.1802  155.0804 C   0  0  0  0  0  0  0  0  0  0  0  0
  151.7277  139.6250  156.8211 S   0  0  0  0  0  0  0  0  0  0  0  0
  153.1535  139.5613  157.1763 O   0  0  0  0  0  0  0  0  0  0  0  0
  150.7695  140.3589  157.6613 O   0  0  0  0  0  0  0  0  0  0  0  0
  151.0977  137.9297  156.5344 C   0  0  0  0  0  0  0  0  0  0  0  0
  145.7190  133.8580  151.4255 H   0  0  0  0  0  0  0  0  0  0  0  0
  145.1592  132.8362  152.7451 H   0  0  0  0  0  0  0  0  0  0  0  0
  146.3864  132.2390  151.6042 H   0  0  0  0  0  0  0  0  0  0  0  0
  147.2176  129.8678  155.2390 H   0  0  0  0  0  0  0  0  0  0  0  0
  149.0672  130.6452  156.7409 H   0  0  0  0  0  0  0  0  0  0  0  0
  149.9809  132.9299  156.4359 H   0  0  0  0  0  0  0  0  0  0  0  0
  148.7116  135.1318  153.6414 H   0  0  0  0  0  0  0  0  0  0  0  0
  149.6999  136.8790  153.7345 H   0  0  0  0  0  0  0  0  0  0  0  0
  152.1724  137.4558  154.7282 H   0  0  0  0  0  0  0  0  0  0  0  0
  151.0615  139.0594  153.2783 H   0  0  0  0  0  0  0  0  0  0  0  0
  149.7511  139.2555  154.4258 H   0  0  0  0  0  0  0  0  0  0  0  0
  152.5804  140.3005  154.6768 H   0  0  0  0  0  0  0  0  0  0  0  0
  151.0634  141.1418  155.0334 H   0  0  0  0  0  0  0  0  0  0  0  0
  150.0715  137.8901  156.9016 H   0  0  0  0  0  0  0  0  0  0  0  0
  151.6952  137.2093  157.0937 H   0  0  0  0  0  0  0  0  0  0  0  0
  1  2  1  0  0  0  0
  1 20  1  0  0  0  0
  1 21  1  0  0  0  0
  1 22  1  0  0  0  0
  2  3  1  0  0  0  0
  3  8  1  0  0  0  0
  3  4  2  0  0  0  0
  4  5  1  0  0  0  0
  5  6  2  0  0  0  0
  5 23  1  0  0  0  0
  6  7  1  0  0  0  0
  6 24  1  0  0  0  0
  7  8  2  0  0  0  0
  7 25  1  0  0  0  0
  8  9  1  0  0  0  0
  9 10  1  0  0  0  0
  9 26  1  0  0  0  0
 10 11  2  0  0  0  0
 10 12  1  0  0  0  0
 12 13  1  0  0  0  0
 12 27  1  0  0  0  0
 13 19  1  0  0  0  0
 13 14  1  0  0  0  0
 13 28  1  0  0  0  0
 14 15  1  0  0  0  0
 14 29  1  0  0  0  0
 14 30  1  0  0  0  0
 15 16  1  0  0  0  0
 15 31  1  0  0  0  0
 15 32  1  0  0  0  0
 16 17  2  0  0  0  0
 16 18  2  0  0  0  0
 16 19  1  0  0  0  0
 19 33  1  0  0  0  0
 19 34  1  0  0  0  0
M  END
> <s_m_source_file>
AV-unprocessed.smi

> <i_m_source_file_index>
851

> <i_lp_mmshare_version>
43012

> <i_f3d_flags>
0

> <s_epik_input>
W0NIM11PYzFuW2NIXVtjSF1bY0hdYzFbTkhdQyg9TylbTkhdW0NAQEhdKFtDSDJdMilbQ0gyXVtDSDJdUzIoPU8pPU8=

> <s_epik_cmdline>
J2VwaWtfcHl0aG9uJywgJy1waCcsICc3LjAnLCAnLXRuJywgJzgnLCAnLW1hJywgJzIwMCcsICctbWV0YWxfYmluZGluZycsICctaW1hZScsICc8aW5maWxlLm1hZT4nLCAnLW9tYWUnLCAnPG91dGZpbGUubWFlPic=

> <r_lp_tautomer_probability>
1

> <r_epik_Ionization_Penalty>
7.64927e-05

> <r_epik_Ionization_Penalty_Charging>
0

> <r_epik_Ionization_Penalty_Neutral>
7.64927e-05

> <r_epik_State_Penalty>
-0

> <r_epik_Charging_Adjusted_Penalty>
0

> <i_epik_Tot_Q>
0

> <i_epik_Tot_abs_Q>
0

> <r_epik_Metal_State_Penalty>
-0

> <b_epik_Metal_Only>
0

> <s_lp_Force_Field>
OPLS_2005

> <r_lp_Energy>
17.9576

> <b_lp_Chiralities_Consistent>
1

> <s_lp_Variant>
AV-unprocessed.smi:851-2

> <Gold.Version>
5.8.1

> <Gold.Id.Protein>
6NUR|6NUR_protein|mol2

> <Gold.PLP.Fitness>
41.3181

> <Gold.PLP.PLP>
-30.7346

> <Gold.PLP.part.hbond>
-4.9585

> <Gold.PLP.part.metal>
0.0000

> <Gold.PLP.part.buried>
-0.9084

> <Gold.PLP.part.nonpolar>
-24.9653

> <Gold.PLP.part.repulsive>
0.6469

> <Gold.PLP.ligand.clash>
0.0000

> <Gold.PLP.ligand.torsion>
0.2038

> <Gold.PLP.Chemscore.Hbond>
3.6633

> <Gold.PLP.Chemscore.CHOScore>
0.0000

> <Gold.PLP.Chemscore.Metal>
0.0000

> <Gold.Chemscore.Hbonds>
donor molecule, donor type, donor heavy atom, donor atom, acceptor molecule, acceptor atom, score
      L1  H     9    26       P1  7948  0.87
      L1  H    12    27       P1  7948  0.83
      P1  H  7997  8009       L1    17  0.75

> <Gold.PLP.Chemscore.Internal.Correction>
0.0013

> <Gold.Rescore>
     Score         DG    S(hbond)    S(metal)    S(lipo)     H(rot)  DE(clash)    DE(int)     intcor
     14.35     -17.25       2.73        0.00      51.20       1.31       0.07       2.83       ----

> <Gold.Chemscore.Fitness>
14.3472

> <Gold.Chemscore.DG>
-17.2478

> <Gold.Chemscore.ZeroCoef>
-5.4800

> <Gold.Chemscore.Hbond>
2.7346

> <Gold.Chemscore.Metal>
0.0000

> <Gold.Chemscore.Lipo>
51.1965

> <Gold.Chemscore.Internal_Hbond>
0.0000

> <Gold.Chemscore.DEClash>
0.0672

> <Gold.Chemscore.DEInternal>
2.8334

> <Gold.Chemscore.Rot>
1.3109

> <Gold.Chemscore.Internal.Correction>
   9.000000E+99

> <Gold.Chemscore.Hbonds>
donor molecule, donor type, donor heavy atom, donor atom, acceptor molecule, acceptor atom, score
      L1  H     9    26       P1  7948  0.63
      L1  H    12    27       P1  7948  0.54
      P1  H  7997  8009       L1    17  0.75

> <Gold.Chemscore.Hbond.Weighted>
-9.1337

> <Gold.Chemscore.Metal.Weighted>
-0.0000

> <Gold.Chemscore.Lipo.Weighted>
-5.9900

> <Gold.Chemscore.Internal_Hbond.Weighted>
0.0000

> <Gold.Chemscore.DEClash.Weighted>
0.0672

> <Gold.Chemscore.DEInternal.Weighted>
2.8334

> <Gold.Chemscore.Rot.Weighted>
3.3559

> <Gold.Chemscore.Internal.Correction.Weighted>
   9.000000E+99

> <Gold.Protein.RotatedTorsions>
[ 6907 6896 6895 6894 ] final   82.83 input  -60.11 | X-H torsion
[ 7974 7965 7964 7962 ] final -147.53 input  175.53 | X-H torsion
[ 8008 7997 7996 7995 ] final  169.41 input   59.86 | X-H torsion
[ 10167 10162 10161 10158 ] final  -54.86 input  -65.29 | X-H torsion
[ 10718 10713 10712 10709 ] final  -92.68 input   66.30 | X-H torsion
[ 10763 10752 10751 10750 ] final   75.38 input  -60.55 | X-H torsion
[ 11005 11000 10999 10996 ] final  -32.21 input  -57.11 | X-H torsion

> <Gold.Protein.ActiveResidues>
 VAL166  LYS551  ARG553  GLY616  TRP617  ASP618  TYR619  PRO620  LYS621  CYS622 
 ASP623  PHE694  ASN695  SER759  ASP760  ASP761  ALA762  ILE779  LEU786  VAL792 
 PHE793  MET794  SER795  GLU796  ALA797  LYS798  CYS799  TRP800  GLU811  SER814 

> <Gold.Protein.RotatedAtoms>
  152.5310  134.2989  159.9070 H   0  0  0  0  0  0  0  0  0  0  0  0  # atno 6907 bound_to 6896
  151.2940  133.4146  159.2642 H   0  0  0  0  0  0  0  0  0  0  0  0  # atno 6908 bound_to 6896
  151.0176  134.9461  159.8099 H   0  0  0  0  0  0  0  0  0  0  0  0  # atno 6909 bound_to 6896
  144.8088  140.5315  143.5657 H   0  0  0  0  0  0  0  0  0  0  0  0  # atno 7974 bound_to 7965
  156.1460  140.1565  156.8846 H   0  0  0  0  0  0  0  0  0  0  0  0  # atno 8008 bound_to 7997
  154.5028  140.0820  156.7871 H   0  0  0  0  0  0  0  0  0  0  0  0  # atno 8009 bound_to 7997
  155.3988  140.3413  155.4258 H   0  0  0  0  0  0  0  0  0  0  0  0  # atno 8010 bound_to 7997
  140.6407  143.2506  151.4996 H   0  0  0  0  0  0  0  0  0  0  0  0  # atno 10167 bound_to 10162
  156.0005  130.4996  150.5661 H   0  0  0  0  0  0  0  0  0  0  0  0  # atno 10718 bound_to 10713
  153.0651  135.4991  154.8180 H   0  0  0  0  0  0  0  0  0  0  0  0  # atno 10763 bound_to 10752
  154.6941  135.2989  154.9440 H   0  0  0  0  0  0  0  0  0  0  0  0  # atno 10764 bound_to 10752
  154.0185  135.6745  153.4823 H   0  0  0  0  0  0  0  0  0  0  0  0  # atno 10765 bound_to 10752
  140.9533  133.7208  156.1254 H   0  0  0  0  0  0  0  0  0  0  0  0  # atno 11005 bound_to 11000
  145.5374  139.1475  143.3466 LP  0  0  0  0  0  0  0  0  0  0  0  0  # atno 17320 bound_to 7965
  146.2383  140.5514  142.8945 LP  0  0  0  0  0  0  0  0  0  0  0  0  # atno 17321 bound_to 7965
  139.5616  144.2142  152.1701 LP  0  0  0  0  0  0  0  0  0  0  0  0  # atno 17342 bound_to 10162
  140.1411  144.5201  150.6743 LP  0  0  0  0  0  0  0  0  0  0  0  0  # atno 17343 bound_to 10162
  157.3563  131.0742  151.1672 LP  0  0  0  0  0  0  0  0  0  0  0  0  # atno 17370 bound_to 10713
  157.2472  130.6597  149.5915 LP  0  0  0  0  0  0  0  0  0  0  0  0  # atno 17371 bound_to 10713
  140.7571  134.3980  157.5532 LP  0  0  0  0  0  0  0  0  0  0  0  0  # atno 17394 bound_to 11000
  139.8854  134.8937  156.2644 LP  0  0  0  0  0  0  0  0  0  0  0  0  # atno 17395 bound_to 11000

$$$$
