AV-unprocessed.smi:2413|AV-procd|sdf|9537|dock7
  -GOLD-   2272013173D 1   1.00000     0.00000
 Structure written by MMmdl.
 46 47  0  0  0  0  0  0  0  0  2 V2000
  153.3614  143.0080  163.2358 C   0  0  0  0  0  0  0  0  0  0  0  0
  153.6960  141.9838  162.1562 C   0  0  0  0  0  0  0  0  0  0  0  0
  154.5438  141.1190  162.3737 O   0  0  0  0  0  0  0  0  0  0  0  0
  153.0222  142.0873  161.0008 N   0  0  0  0  0  0  0  0  0  0  0  0
  153.1875  141.2061  159.8491 C   0  0  0  0  0  0  0  0  0  0  0  0
  152.4602  141.7269  158.5954 C   0  0  1  0  0  0  0  0  0  0  0  0
  151.9456  140.5967  157.6779 C   0  0  0  0  0  0  0  0  0  0  0  0
  151.1862  141.1603  156.5698 N   0  0  0  0  0  0  0  0  0  0  0  0
  150.7949  140.2090  155.6202 C   0  0  0  0  0  0  0  0  0  0  0  0
  151.6881  139.2568  155.0930 C   0  0  0  0  0  0  0  0  0  0  0  0
  151.1651  138.3559  154.1483 C   0  0  0  0  0  0  0  0  0  0  0  0
  149.8617  138.4244  153.7833 N   0  3  0  0  0  0  0  0  0  0  0  0
  149.0567  139.3569  154.3239 C   0  0  0  0  0  0  0  0  0  0  0  0
  147.5877  139.4046  153.8764 C   0  0  0  0  0  0  0  0  0  0  0  0
  147.4533  139.5503  152.3413 C   0  0  0  0  0  0  0  0  0  0  0  0
  146.8892  140.6215  154.5162 C   0  0  0  0  0  0  0  0  0  0  0  0
  146.8781  138.0976  154.2824 C   0  0  0  0  0  0  0  0  0  0  0  0
  149.5068  140.2435  155.2260 N   0  0  0  0  0  0  0  0  0  0  0  0
  150.1011  142.0246  157.0142 C   0  0  0  0  0  0  0  0  0  0  0  0
  150.6513  143.1159  157.9470 C   0  0  0  0  0  0  0  0  0  0  0  0
  151.3479  142.5067  159.0305 O   0  0  0  0  0  0  0  0  0  0  0  0
  152.7040  143.7913  162.8561 H   0  0  0  0  0  0  0  0  0  0  0  0
  154.2733  143.4786  163.6037 H   0  0  0  0  0  0  0  0  0  0  0  0
  152.8641  142.5204  164.0746 H   0  0  0  0  0  0  0  0  0  0  0  0
  152.3493  142.8347  160.9103 H   0  0  0  0  0  0  0  0  0  0  0  0
  154.2548  141.1140  159.6458 H   0  0  0  0  0  0  0  0  0  0  0  0
  152.8351  140.2040  160.0992 H   0  0  0  0  0  0  0  0  0  0  0  0
  153.1393  142.3712  158.0338 H   0  0  0  0  0  0  0  0  0  0  0  0
  152.7818  140.0174  157.2842 H   0  0  0  0  0  0  0  0  0  0  0  0
  151.3163  139.9108  158.2469 H   0  0  0  0  0  0  0  0  0  0  0  0
  152.7245  139.2145  155.3949 H   0  0  0  0  0  0  0  0  0  0  0  0
  151.7472  137.5805  153.6719 H   0  0  0  0  0  0  0  0  0  0  0  0
  146.4064  139.5848  152.0371 H   0  0  0  0  0  0  0  0  0  0  0  0
  147.9116  138.7123  151.8143 H   0  0  0  0  0  0  0  0  0  0  0  0
  147.9222  140.4668  151.9803 H   0  0  0  0  0  0  0  0  0  0  0  0
  147.3830  141.5531  154.2369 H   0  0  0  0  0  0  0  0  0  0  0  0
  146.8903  140.5628  155.6051 H   0  0  0  0  0  0  0  0  0  0  0  0
  145.8482  140.6942  154.1994 H   0  0  0  0  0  0  0  0  0  0  0  0
  145.8368  138.0937  153.9578 H   0  0  0  0  0  0  0  0  0  0  0  0
  146.8789  137.9565  155.3637 H   0  0  0  0  0  0  0  0  0  0  0  0
  147.3642  137.2288  153.8370 H   0  0  0  0  0  0  0  0  0  0  0  0
  149.6124  142.4796  156.1518 H   0  0  0  0  0  0  0  0  0  0  0  0
  149.3485  141.4356  157.5399 H   0  0  0  0  0  0  0  0  0  0  0  0
  151.3157  143.7927  157.4072 H   0  0  0  0  0  0  0  0  0  0  0  0
  149.8344  143.7190  158.3434 H   0  0  0  0  0  0  0  0  0  0  0  0
  149.4974  137.7631  153.0966 H   0  0  0  0  0  0  0  0  0  0  0  0
  1  2  1  0  0  0  0
  1 22  1  0  0  0  0
  1 23  1  0  0  0  0
  1 24  1  0  0  0  0
  2  3  2  0  0  0  0
  2  4  1  0  0  0  0
  4  5  1  0  0  0  0
  4 25  1  0  0  0  0
  5  6  1  0  0  0  0
  5 26  1  0  0  0  0
  5 27  1  0  0  0  0
  6 21  1  0  0  0  0
  6  7  1  0  0  0  0
  6 28  1  0  0  0  0
  7  8  1  0  0  0  0
  7 29  1  0  0  0  0
  7 30  1  0  0  0  0
  8  9  1  0  0  0  0
  8 19  1  0  0  0  0
  9 18  1  0  0  0  0
  9 10  2  0  0  0  0
 10 11  1  0  0  0  0
 10 31  1  0  0  0  0
 11 12  2  0  0  0  0
 11 32  1  0  0  0  0
 12 13  1  0  0  0  0
 12 46  1  0  0  0  0
 13 14  1  0  0  0  0
 13 18  2  0  0  0  0
 14 15  1  0  0  0  0
 14 16  1  0  0  0  0
 14 17  1  0  0  0  0
 15 33  1  0  0  0  0
 15 34  1  0  0  0  0
 15 35  1  0  0  0  0
 16 36  1  0  0  0  0
 16 37  1  0  0  0  0
 16 38  1  0  0  0  0
 17 39  1  0  0  0  0
 17 40  1  0  0  0  0
 17 41  1  0  0  0  0
 19 20  1  0  0  0  0
 19 42  1  0  0  0  0
 19 43  1  0  0  0  0
 20 21  1  0  0  0  0
 20 44  1  0  0  0  0
 20 45  1  0  0  0  0
M  CHG  1  12   1
M  END
> <s_m_source_file>
AV-unprocessed.smi

> <i_m_source_file_index>
2413

> <i_lp_mmshare_version>
43012

> <i_f3d_flags>
0

> <s_epik_input>
W0NIM11DKD1PKVtOSF1bQ0gyXVtDQEBIXTFbQ0gyXU4oW0NIMl1bQ0gyXU8xKWMyW2NIXVtjSF1uYyhuMilDKFtDSDNdKShbQ0gzXSlbQ0gzXQ==

> <s_epik_cmdline>
J2VwaWtfcHl0aG9uJywgJy1waCcsICc3LjAnLCAnLXRuJywgJzgnLCAnLW1hJywgJzIwMCcsICctbWV0YWxfYmluZGluZycsICctaW1hZScsICc8aW5maWxlLm1hZT4nLCAnLW9tYWUnLCAnPG91dGZpbGUubWFlPic=

> <r_lp_tautomer_probability>
0.999336

> <r_epik_Ionization_Penalty>
2.26127

> <r_epik_Ionization_Penalty_Charging>
2.26127

> <r_epik_Ionization_Penalty_Neutral>
4.08984e-07

> <r_epik_State_Penalty>
2.40914

> <r_epik_Charging_Adjusted_Penalty>
4.67041

> <i_epik_Tot_Q>
1

> <i_epik_Tot_abs_Q>
1

> <r_epik_Metal_State_Penalty>
2.42208

> <b_epik_Metal_Only>
0

> <s_lp_Force_Field>
OPLS_2005

> <r_lp_Energy>
19.627

> <b_lp_Chiralities_Consistent>
1

> <s_lp_Variant>
AV-unprocessed.smi:2413-4

> <Gold.Version>
5.8.1

> <Gold.Id.Protein>
6NUR|6NUR_protein|mol2

> <Gold.PLP.Fitness>
42.2010

> <Gold.PLP.PLP>
-37.3817

> <Gold.PLP.part.hbond>
-2.8119

> <Gold.PLP.part.metal>
0.0000

> <Gold.PLP.part.buried>
-2.3237

> <Gold.PLP.part.nonpolar>
-31.4968

> <Gold.PLP.part.repulsive>
0.2434

> <Gold.PLP.ligand.clash>
0.0000

> <Gold.PLP.ligand.torsion>
0.6500

> <Gold.PLP.Chemscore.Hbond>
2.0000

> <Gold.PLP.Chemscore.CHOScore>
0.0000

> <Gold.PLP.Chemscore.Metal>
0.0000

> <Gold.Chemscore.Hbonds>
donor molecule, donor type, donor heavy atom, donor atom, acceptor molecule, acceptor atom, score
      L1  H    12    46       P1  7948  2.00

> <Gold.PLP.Chemscore.Internal.Correction>
0.1193

> <Gold.Rescore>
     Score         DG    S(hbond)    S(metal)    S(lipo)     H(rot)  DE(clash)    DE(int)     intcor
     12.62     -14.70       0.98        0.00      89.60       1.77       1.44       0.64       ----

> <Gold.Chemscore.Fitness>
12.6166

> <Gold.Chemscore.DG>
-14.6953

> <Gold.Chemscore.ZeroCoef>
-5.4800

> <Gold.Chemscore.Hbond>
0.9786

> <Gold.Chemscore.Metal>
0.0000

> <Gold.Chemscore.Lipo>
89.5971

> <Gold.Chemscore.Internal_Hbond>
0.0000

> <Gold.Chemscore.DEClash>
1.4361

> <Gold.Chemscore.DEInternal>
0.6425

> <Gold.Chemscore.Rot>
1.7719

> <Gold.Chemscore.Internal.Correction>
   9.000000E+99

> <Gold.Chemscore.Hbonds>
donor molecule, donor type, donor heavy atom, donor atom, acceptor molecule, acceptor atom, score
      L1  H    12    46       P1  7948  0.85

> <Gold.Chemscore.Hbond.Weighted>
-3.2685

> <Gold.Chemscore.Metal.Weighted>
-0.0000

> <Gold.Chemscore.Lipo.Weighted>
-10.4829

> <Gold.Chemscore.Internal_Hbond.Weighted>
0.0000

> <Gold.Chemscore.DEClash.Weighted>
1.4361

> <Gold.Chemscore.DEInternal.Weighted>
0.6425

> <Gold.Chemscore.Rot.Weighted>
4.5361

> <Gold.Chemscore.Internal.Correction.Weighted>
   9.000000E+99

> <Gold.Protein.RotatedTorsions>
[ 6907 6896 6895 6894 ] final   18.53 input  -60.11 | X-H torsion
[ 7974 7965 7964 7962 ] final   72.04 input  175.53 | X-H torsion
[ 8008 7997 7996 7995 ] final  -94.72 input   59.86 | X-H torsion
[ 10167 10162 10161 10158 ] final   28.65 input  -65.29 | X-H torsion
[ 10718 10713 10712 10709 ] final  155.97 input   66.30 | X-H torsion
[ 10763 10752 10751 10750 ] final -112.76 input  -60.55 | X-H torsion
[ 11005 11000 10999 10996 ] final  -91.09 input  -57.11 | X-H torsion

> <Gold.Protein.ActiveResidues>
 VAL166  LYS551  ARG553  GLY616  TRP617  ASP618  TYR619  PRO620  LYS621  CYS622 
 ASP623  PHE694  ASN695  SER759  ASP760  ASP761  ALA762  ILE779  LEU786  VAL792 
 PHE793  MET794  SER795  GLU796  ALA797  LYS798  CYS799  TRP800  GLU811  SER814 

> <Gold.Protein.RotatedAtoms>
  151.8667  135.0504  160.0474 H   0  0  0  0  0  0  0  0  0  0  0  0  # atno 6907 bound_to 6896
  152.2621  133.5302  159.5396 H   0  0  0  0  0  0  0  0  0  0  0  0  # atno 6908 bound_to 6896
  150.7120  134.0732  159.3914 H   0  0  0  0  0  0  0  0  0  0  0  0  # atno 6909 bound_to 6896
  145.7583  139.2789  143.1391 H   0  0  0  0  0  0  0  0  0  0  0  0  # atno 7974 bound_to 7965
  154.7521  140.0486  157.0902 H   0  0  0  0  0  0  0  0  0  0  0  0  # atno 8008 bound_to 7997
  155.0044  140.3128  155.4835 H   0  0  0  0  0  0  0  0  0  0  0  0  # atno 8009 bound_to 7997
  156.2887  140.2195  156.5156 H   0  0  0  0  0  0  0  0  0  0  0  0  # atno 8010 bound_to 7997
  140.4834  144.0581  150.6272 H   0  0  0  0  0  0  0  0  0  0  0  0  # atno 10167 bound_to 10162
  157.2112  131.0698  151.1968 H   0  0  0  0  0  0  0  0  0  0  0  0  # atno 10718 bound_to 10713
  154.8365  135.4479  154.1243 H   0  0  0  0  0  0  0  0  0  0  0  0  # atno 10763 bound_to 10752
  153.2471  135.6922  153.7726 H   0  0  0  0  0  0  0  0  0  0  0  0  # atno 10764 bound_to 10752
  153.7052  135.3365  155.3210 H   0  0  0  0  0  0  0  0  0  0  0  0  # atno 10765 bound_to 10752
  141.1552  133.7733  156.9830 H   0  0  0  0  0  0  0  0  0  0  0  0  # atno 11005 bound_to 11000
  146.0289  140.8277  142.9886 LP  0  0  0  0  0  0  0  0  0  0  0  0  # atno 17320 bound_to 7965
  144.6835  140.2739  143.7302 LP  0  0  0  0  0  0  0  0  0  0  0  0  # atno 17321 bound_to 7965
  140.3829  143.2793  152.0149 LP  0  0  0  0  0  0  0  0  0  0  0  0  # atno 17342 bound_to 10162
  139.4837  144.6140  151.7381 LP  0  0  0  0  0  0  0  0  0  0  0  0  # atno 17343 bound_to 10162
  157.3670  130.7161  149.6539 LP  0  0  0  0  0  0  0  0  0  0  0  0  # atno 17370 bound_to 10713
  155.9690  130.4209  150.4446 LP  0  0  0  0  0  0  0  0  0  0  0  0  # atno 17371 bound_to 10713
  140.1053  134.9510  157.1985 LP  0  0  0  0  0  0  0  0  0  0  0  0  # atno 17394 bound_to 11000
  140.3264  134.2858  155.7236 LP  0  0  0  0  0  0  0  0  0  0  0  0  # atno 17395 bound_to 11000

$$$$
