AV-unprocessed.smi:1056|AV-procd|sdf|4634|dock8
  -GOLD-   22720 3143D 1   1.00000     0.00000
 Structure written by MMmdl.
 46 48  0  0  0  0  0  0  0  0  3 V2000
  152.2732  139.0213  155.7353 C   0  0  0  0  0  0  0  0  0  0  0  0
  150.9531  139.5809  155.2327 C   0  0  0  0  0  0  0  0  0  0  0  0
  150.2566  138.8683  154.2310 C   0  0  0  0  0  0  0  0  0  0  0  0
  149.0488  139.4012  153.7965 C   0  0  0  0  0  0  0  0  0  0  0  0
  148.1403  138.9433  152.8405 N   0  3  0  0  0  0  0  0  0  0  0  0
  147.0899  139.8058  152.7610 C   0  0  0  0  0  0  0  0  0  0  0  0
  147.3143  140.8107  153.6511 N   0  0  0  0  0  0  0  0  0  0  0  0
  146.4871  141.9844  153.9697 C   0  0  0  0  0  0  0  0  0  0  0  0
  145.9751  141.9853  155.4257 C   0  0  2  0  0  0  0  0  0  0  0  0
  145.0254  140.9527  155.5964 O   0  0  0  0  0  0  0  0  0  0  0  0
  145.2935  143.3129  155.8162 C   0  0  0  0  0  0  0  0  0  0  0  0
  144.9066  143.3656  157.2487 N   0  3  2  0  0  0  0  0  0  0  0  0
  144.1921  144.6076  157.6283 C   0  0  0  0  0  0  0  0  0  0  0  0
  143.6466  144.4903  159.0629 C   0  0  0  0  0  0  0  0  0  0  0  0
  144.6028  143.8929  159.9923 N   0  0  0  0  0  0  0  0  0  0  0  0
  145.7188  143.2324  159.6435 C   0  0  0  0  0  0  0  0  0  0  0  0
  146.4714  142.7455  160.4828 O   0  0  0  0  0  0  0  0  0  0  0  0
  146.0541  143.0919  158.1509 C   0  0  0  0  0  0  0  0  0  0  0  0
  148.5273  140.6004  154.3207 C   0  0  0  0  0  0  0  0  0  0  0  0
  149.2054  141.3184  155.3039 C   0  0  0  0  0  0  0  0  0  0  0  0
  150.4346  140.7914  155.7611 C   0  0  0  0  0  0  0  0  0  0  0  0
  151.1932  141.5505  156.8366 C   0  0  0  0  0  0  0  0  0  0  0  0
  152.5259  138.0854  155.2361 H   0  0  0  0  0  0  0  0  0  0  0  0
  152.2223  138.8229  156.8062 H   0  0  0  0  0  0  0  0  0  0  0  0
  153.0840  139.7263  155.5507 H   0  0  0  0  0  0  0  0  0  0  0  0
  150.6461  137.9469  153.8230 H   0  0  0  0  0  0  0  0  0  0  0  0
  146.2325  139.7063  152.1110 H   0  0  0  0  0  0  0  0  0  0  0  0
  147.1061  142.8644  153.7910 H   0  0  0  0  0  0  0  0  0  0  0  0
  145.6617  142.0477  153.2605 H   0  0  0  0  0  0  0  0  0  0  0  0
  146.8021  141.7694  156.1018 H   0  0  0  0  0  0  0  0  0  0  0  0
  144.7635  140.9292  156.5045 H   0  0  0  0  0  0  0  0  0  0  0  0
  145.9843  144.1291  155.5981 H   0  0  0  0  0  0  0  0  0  0  0  0
  144.4102  143.4909  155.2003 H   0  0  0  0  0  0  0  0  0  0  0  0
  144.8804  145.4514  157.5570 H   0  0  0  0  0  0  0  0  0  0  0  0
  143.3684  144.8144  156.9460 H   0  0  0  0  0  0  0  0  0  0  0  0
  143.3438  145.4692  159.4354 H   0  0  0  0  0  0  0  0  0  0  0  0
  142.7536  143.8645  159.0643 H   0  0  0  0  0  0  0  0  0  0  0  0
  144.3985  143.9828  160.9780 H   0  0  0  0  0  0  0  0  0  0  0  0
  146.4252  142.0827  157.9670 H   0  0  0  0  0  0  0  0  0  0  0  0
  146.8685  143.7807  157.9212 H   0  0  0  0  0  0  0  0  0  0  0  0
  148.8171  142.2421  155.7066 H   0  0  0  0  0  0  0  0  0  0  0  0
  150.6730  142.4651  157.1232 H   0  0  0  0  0  0  0  0  0  0  0  0
  152.1856  141.8298  156.4818 H   0  0  0  0  0  0  0  0  0  0  0  0
  151.3047  140.9369  157.7307 H   0  0  0  0  0  0  0  0  0  0  0  0
  144.2579  142.6060  157.3973 H   0  0  0  0  0  0  0  0  0  0  0  0
  148.2273  138.1015  152.2850 H   0  0  0  0  0  0  0  0  0  0  0  0
  1  2  1  0  0  0  0
  1 23  1  0  0  0  0
  1 24  1  0  0  0  0
  1 25  1  0  0  0  0
  2 21  1  0  0  0  0
  2  3  2  0  0  0  0
  3  4  1  0  0  0  0
  3 26  1  0  0  0  0
  4 19  2  0  0  0  0
  4  5  1  0  0  0  0
  5  6  2  0  0  0  0
  5 46  1  0  0  0  0
  6  7  1  0  0  0  0
  6 27  1  0  0  0  0
  7  8  1  0  0  0  0
  7 19  1  0  0  0  0
  8  9  1  0  0  0  0
  8 28  1  0  0  0  0
  8 29  1  0  0  0  0
  9 10  1  0  0  0  0
  9 11  1  0  0  0  0
  9 30  1  0  0  0  0
 10 31  1  0  0  0  0
 11 12  1  0  0  0  0
 11 32  1  0  0  0  0
 11 33  1  0  0  0  0
 12 18  1  0  0  0  0
 12 13  1  0  0  0  0
 12 45  1  0  0  0  0
 13 14  1  0  0  0  0
 13 34  1  0  0  0  0
 13 35  1  0  0  0  0
 14 15  1  0  0  0  0
 14 36  1  0  0  0  0
 14 37  1  0  0  0  0
 15 16  1  0  0  0  0
 15 38  1  0  0  0  0
 16 17  2  0  0  0  0
 16 18  1  0  0  0  0
 18 39  1  0  0  0  0
 18 40  1  0  0  0  0
 19 20  1  0  0  0  0
 20 21  2  0  0  0  0
 20 41  1  0  0  0  0
 21 22  1  0  0  0  0
 22 42  1  0  0  0  0
 22 43  1  0  0  0  0
 22 44  1  0  0  0  0
M  CHG  1   5   1
M  CHG  1  12   1
M  END
> <s_m_source_file>
AV-unprocessed.smi

> <i_m_source_file_index>
1056

> <i_lp_mmshare_version>
43012

> <i_f3d_flags>
0

> <s_epik_input>
W0NIM11jKFtjSF0xKWMoW0NIM10pW2NIXWMoYzEyKW4oW2NIXW4yKVtDSDJdW0NASF0oW09IXSlbQ0gyXU4zW0NIMl1bQ0gyXVtOSF1DKD1PKVtDSDJdMw==

> <s_epik_cmdline>
J2VwaWtfcHl0aG9uJywgJy1waCcsICc3LjAnLCAnLXRuJywgJzgnLCAnLW1hJywgJzIwMCcsICctbWV0YWxfYmluZGluZycsICctaW1hZScsICc8aW5maWxlLm1hZT4nLCAnLW9tYWUnLCAnPG91dGZpbGUubWFlPic=

> <r_epik_Ionization_Penalty>
1.262

> <r_epik_Ionization_Penalty_Charging>
1.26188

> <r_epik_Ionization_Penalty_Neutral>
0.000125436

> <r_epik_State_Penalty>
1.3387

> <r_epik_Charging_Adjusted_Penalty>
2.60058

> <i_epik_Tot_Q>
2

> <i_epik_Tot_abs_Q>
2

> <r_epik_Metal_State_Penalty>
1.58938

> <b_epik_Metal_Only>
0

> <s_lp_Force_Field>
OPLS_2005

> <r_lp_Energy>
36.1571

> <b_lp_Chiralities_Consistent>
1

> <s_lp_Variant>
AV-unprocessed.smi:1056-5

> <Gold.Version>
5.8.1

> <Gold.Id.Protein>
6NUR|6NUR_protein|mol2

> <Gold.PLP.Fitness>
52.1305

> <Gold.PLP.PLP>
-37.9098

> <Gold.PLP.part.hbond>
-4.0000

> <Gold.PLP.part.metal>
0.0000

> <Gold.PLP.part.buried>
-0.6638

> <Gold.PLP.part.nonpolar>
-33.8512

> <Gold.PLP.part.repulsive>
0.0915

> <Gold.PLP.ligand.clash>
0.0000

> <Gold.PLP.ligand.torsion>
0.0714

> <Gold.PLP.Chemscore.Hbond>
3.8328

> <Gold.PLP.Chemscore.CHOScore>
0.9480

> <Gold.PLP.Chemscore.Metal>
0.0000

> <Gold.Chemscore.Hbonds>
donor molecule, donor type, donor heavy atom, donor atom, acceptor molecule, acceptor atom, score
      L1  H     5    46       P1  7948  2.00
      P1  H  6933  6944       L1    17  0.34
      P1  H  6934  6946       L1    17  1.00
      L1  C     6    27       P1 10175  0.64

> <Gold.PLP.Chemscore.Internal.Correction>
0.0210

> <Gold.Rescore>
     Score         DG    S(hbond)    S(metal)    S(lipo)     H(rot)  DE(clash)    DE(int)     intcor
     16.51     -16.69       2.67        0.00      73.02       2.44       0.07       0.11       ----

> <Gold.Chemscore.Fitness>
16.5094

> <Gold.Chemscore.DG>
-16.6932

> <Gold.Chemscore.ZeroCoef>
-5.4800

> <Gold.Chemscore.Hbond>
2.6661

> <Gold.Chemscore.Metal>
0.0000

> <Gold.Chemscore.Lipo>
73.0225

> <Gold.Chemscore.Internal_Hbond>
0.0000

> <Gold.Chemscore.DEClash>
0.0743

> <Gold.Chemscore.DEInternal>
0.1095

> <Gold.Chemscore.Rot>
2.4357

> <Gold.Chemscore.Internal.Correction>
   9.000000E+99

> <Gold.Chemscore.Hbonds>
donor molecule, donor type, donor heavy atom, donor atom, acceptor molecule, acceptor atom, score
      L1  H     5    46       P1  7948  0.93
      P1  H  6933  6944       L1    17  0.34
      P1  H  6934  6946       L1    17  0.97

> <Gold.Chemscore.Hbond.Weighted>
-8.9049

> <Gold.Chemscore.Metal.Weighted>
-0.0000

> <Gold.Chemscore.Lipo.Weighted>
-8.5436

> <Gold.Chemscore.Internal_Hbond.Weighted>
0.0000

> <Gold.Chemscore.DEClash.Weighted>
0.0743

> <Gold.Chemscore.DEInternal.Weighted>
0.1095

> <Gold.Chemscore.Rot.Weighted>
6.2353

> <Gold.Chemscore.Internal.Correction.Weighted>
   9.000000E+99

> <Gold.Protein.RotatedTorsions>
[ 6907 6896 6895 6894 ] final   93.04 input  -60.11 | X-H torsion
[ 7974 7965 7964 7962 ] final  -82.77 input  175.53 | X-H torsion
[ 8008 7997 7996 7995 ] final -127.31 input   59.86 | X-H torsion
[ 10167 10162 10161 10158 ] final  -88.46 input  -65.29 | X-H torsion
[ 10718 10713 10712 10709 ] final  -75.60 input   66.30 | X-H torsion
[ 10763 10752 10751 10750 ] final  -50.90 input  -60.55 | X-H torsion
[ 11005 11000 10999 10996 ] final  -25.35 input  -57.11 | X-H torsion

> <Gold.Protein.ActiveResidues>
 VAL166  LYS551  ARG553  GLY616  TRP617  ASP618  TYR619  PRO620  LYS621  CYS622 
 ASP623  PHE694  ASN695  SER759  ASP760  ASP761  ALA762  ILE779  LEU786  VAL792 
 PHE793  MET794  SER795  GLU796  ALA797  LYS798  CYS799  TRP800  GLU811  SER814 

> <Gold.Protein.RotatedAtoms>
  152.5453  134.1410  159.8478 H   0  0  0  0  0  0  0  0  0  0  0  0  # atno 6907 bound_to 6896
  151.1446  133.4941  159.2603 H   0  0  0  0  0  0  0  0  0  0  0  0  # atno 6908 bound_to 6896
  151.1537  135.0250  159.8734 H   0  0  0  0  0  0  0  0  0  0  0  0  # atno 6909 bound_to 6896
  145.5289  140.9523  143.1614 H   0  0  0  0  0  0  0  0  0  0  0  0  # atno 7974 bound_to 7965
  155.2440  140.0430  157.2978 H   0  0  0  0  0  0  0  0  0  0  0  0  # atno 8008 bound_to 7997
  154.5810  140.2400  155.8023 H   0  0  0  0  0  0  0  0  0  0  0  0  # atno 8009 bound_to 7997
  156.2193  140.2975  155.9922 H   0  0  0  0  0  0  0  0  0  0  0  0  # atno 8010 bound_to 7997
  140.3745  143.2778  151.9460 H   0  0  0  0  0  0  0  0  0  0  0  0  # atno 10167 bound_to 10162
  156.0202  130.4445  150.3067 H   0  0  0  0  0  0  0  0  0  0  0  0  # atno 10718 bound_to 10713
  154.1179  135.6539  153.4897 H   0  0  0  0  0  0  0  0  0  0  0  0  # atno 10763 bound_to 10752
  153.0235  135.5263  154.7126 H   0  0  0  0  0  0  0  0  0  0  0  0  # atno 10764 bound_to 10752
  154.6325  135.2978  155.0169 H   0  0  0  0  0  0  0  0  0  0  0  0  # atno 10765 bound_to 10752
  140.8930  133.7575  156.0445 H   0  0  0  0  0  0  0  0  0  0  0  0  # atno 11005 bound_to 11000
  144.7636  139.6897  143.7224 LP  0  0  0  0  0  0  0  0  0  0  0  0  # atno 17320 bound_to 7965
  146.2057  139.5380  142.9714 LP  0  0  0  0  0  0  0  0  0  0  0  0  # atno 17321 bound_to 7965
  139.4800  144.5876  151.7826 LP  0  0  0  0  0  0  0  0  0  0  0  0  # atno 17342 bound_to 10162
  140.5000  144.1183  150.5969 LP  0  0  0  0  0  0  0  0  0  0  0  0  # atno 17343 bound_to 10162
  157.1170  131.0236  151.3025 LP  0  0  0  0  0  0  0  0  0  0  0  0  # atno 17370 bound_to 10713
  157.4659  130.7680  149.7278 LP  0  0  0  0  0  0  0  0  0  0  0  0  # atno 17371 bound_to 10713
  140.8324  134.3163  157.5344 LP  0  0  0  0  0  0  0  0  0  0  0  0  # atno 17394 bound_to 11000
  139.8732  134.9370  156.3677 LP  0  0  0  0  0  0  0  0  0  0  0  0  # atno 17395 bound_to 11000

$$$$
