AV-unprocessed.smi:98|AV-procd|sdf|864|dock8
  -GOLD-   2262017313D 1   1.00000     0.00000
 Structure written by MMmdl.
 56 59  0  0  0  0  0  0  0  0  1 V2000
  151.2227  137.1977  159.2706 O   0  0  0  0  0  0  0  0  0  0  0  0
  150.9995  138.0553  158.4150 C   0  0  0  0  0  0  0  0  0  0  0  0
  152.1118  139.0197  157.9741 C   0  0  0  0  0  0  0  0  0  0  0  0
  152.6599  139.8252  159.0874 N   0  0  0  0  0  0  0  0  0  0  0  0
  153.5259  139.1906  160.0123 C   0  0  0  0  0  0  0  0  0  0  0  0
  153.8264  138.0016  159.8936 O   0  0  0  0  0  0  0  0  0  0  0  0
  154.0233  140.0356  161.0916 C   0  0  0  0  0  0  0  0  0  0  0  0
  154.8252  139.5102  162.0333 F   0  0  0  0  0  0  0  0  0  0  0  0
  153.6863  141.3396  161.1634 C   0  0  0  0  0  0  0  0  0  0  0  0
  152.8746  141.9566  160.2323 N   0  0  0  0  0  0  0  0  0  0  0  0
  152.5261  143.4164  160.4089 C   0  0  1  0  0  0  0  0  0  0  0  0
  152.8210  144.2752  159.1646 C   0  0  0  0  0  0  0  0  0  0  0  0
  151.4636  144.8756  158.8372 C   0  0  0  0  0  0  0  0  0  0  0  0
  150.7117  144.7581  160.1586 C   0  0  0  0  0  0  0  0  0  0  0  0
  151.1628  143.5190  160.6825 O   0  0  0  0  0  0  0  0  0  0  0  0
  152.3177  141.1962  159.1779 C   0  0  0  0  0  0  0  0  0  0  0  0
  151.5565  141.7113  158.3573 O   0  0  0  0  0  0  0  0  0  0  0  0
  149.8115  138.2300  157.8084 N   0  0  0  0  0  0  0  0  0  0  0  0
  148.6142  137.4911  157.9999 C   0  0  0  0  0  0  0  0  0  0  0  0
  148.7247  136.2081  158.5770 C   0  0  0  0  0  0  0  0  0  0  0  0
  147.5751  135.4308  158.8160 C   0  0  0  0  0  0  0  0  0  0  0  0
  146.3056  135.9462  158.4887 C   0  0  0  0  0  0  0  0  0  0  0  0
  144.8387  134.9668  158.7963 S   0  0  0  0  0  0  0  0  0  0  0  0
  143.6548  135.8118  158.5730 O   0  0  0  0  0  0  0  0  0  0  0  0
  144.9769  133.6860  158.0852 O   0  0  0  0  0  0  0  0  0  0  0  0
  144.9526  134.6479  160.4967 N   0  0  0  0  0  0  0  0  0  0  0  0
  144.0583  135.3787  161.4104 C   0  0  0  0  0  0  0  0  0  0  0  0
  144.5295  135.2456  162.8673 C   0  0  0  0  0  0  0  0  0  0  0  0
  144.6856  133.8760  163.2070 O   0  0  0  0  0  0  0  0  0  0  0  0
  145.6880  133.2568  162.4153 C   0  0  0  0  0  0  0  0  0  0  0  0
  145.2830  133.2807  160.9325 C   0  0  0  0  0  0  0  0  0  0  0  0
  146.1798  137.2333  157.9308 C   0  0  0  0  0  0  0  0  0  0  0  0
  147.3320  138.0060  157.6888 C   0  0  0  0  0  0  0  0  0  0  0  0
  152.8905  138.4346  157.4828 H   0  0  0  0  0  0  0  0  0  0  0  0
  151.7360  139.6703  157.1822 H   0  0  0  0  0  0  0  0  0  0  0  0
  154.0780  141.9207  161.9857 H   0  0  0  0  0  0  0  0  0  0  0  0
  153.0911  143.7584  161.2773 H   0  0  0  0  0  0  0  0  0  0  0  0
  153.5380  145.0497  159.4389 H   0  0  0  0  0  0  0  0  0  0  0  0
  153.2393  143.6938  158.3423 H   0  0  0  0  0  0  0  0  0  0  0  0
  151.5282  145.9022  158.4762 H   0  0  0  0  0  0  0  0  0  0  0  0
  150.9640  144.2809  158.0718 H   0  0  0  0  0  0  0  0  0  0  0  0
  150.9892  145.5653  160.8384 H   0  0  0  0  0  0  0  0  0  0  0  0
  149.6291  144.7707  160.0305 H   0  0  0  0  0  0  0  0  0  0  0  0
  149.7361  139.0356  157.2040 H   0  0  0  0  0  0  0  0  0  0  0  0
  149.6964  135.8104  158.8322 H   0  0  0  0  0  0  0  0  0  0  0  0
  147.6737  134.4457  159.2475 H   0  0  0  0  0  0  0  0  0  0  0  0
  144.0189  136.4314  161.1303 H   0  0  0  0  0  0  0  0  0  0  0  0
  143.0482  134.9806  161.3093 H   0  0  0  0  0  0  0  0  0  0  0  0
  145.4680  135.7808  163.0213 H   0  0  0  0  0  0  0  0  0  0  0  0
  143.7968  135.6941  163.5383 H   0  0  0  0  0  0  0  0  0  0  0  0
  146.6458  133.7585  162.5632 H   0  0  0  0  0  0  0  0  0  0  0  0
  145.8169  132.2276  162.7504 H   0  0  0  0  0  0  0  0  0  0  0  0
  144.4148  132.6406  160.7718 H   0  0  0  0  0  0  0  0  0  0  0  0
  146.0938  132.8811  160.3233 H   0  0  0  0  0  0  0  0  0  0  0  0
  145.2054  137.6314  157.6890 H   0  0  0  0  0  0  0  0  0  0  0  0
  147.2121  138.9974  157.2786 H   0  0  0  0  0  0  0  0  0  0  0  0
  1  2  2  0  0  0  0
  2  3  1  0  0  0  0
  2 18  1  0  0  0  0
  3  4  1  0  0  0  0
  3 34  1  0  0  0  0
  3 35  1  0  0  0  0
  4 16  1  0  0  0  0
  4  5  1  0  0  0  0
  5  6  2  0  0  0  0
  5  7  1  0  0  0  0
  7  8  1  0  0  0  0
  7  9  2  0  0  0  0
  9 10  1  0  0  0  0
  9 36  1  0  0  0  0
 10 11  1  0  0  0  0
 10 16  1  0  0  0  0
 11 15  1  0  0  0  0
 11 12  1  0  0  0  0
 11 37  1  0  0  0  0
 12 13  1  0  0  0  0
 12 38  1  0  0  0  0
 12 39  1  0  0  0  0
 13 14  1  0  0  0  0
 13 40  1  0  0  0  0
 13 41  1  0  0  0  0
 14 15  1  0  0  0  0
 14 42  1  0  0  0  0
 14 43  1  0  0  0  0
 16 17  2  0  0  0  0
 18 19  1  0  0  0  0
 18 44  1  0  0  0  0
 19 33  1  0  0  0  0
 19 20  2  0  0  0  0
 20 21  1  0  0  0  0
 20 45  1  0  0  0  0
 21 22  2  0  0  0  0
 21 46  1  0  0  0  0
 22 23  1  0  0  0  0
 22 32  1  0  0  0  0
 23 24  2  0  0  0  0
 23 25  2  0  0  0  0
 23 26  1  0  0  0  0
 26 31  1  0  0  0  0
 26 27  1  0  0  0  0
 27 28  1  0  0  0  0
 27 47  1  0  0  0  0
 27 48  1  0  0  0  0
 28 29  1  0  0  0  0
 28 49  1  0  0  0  0
 28 50  1  0  0  0  0
 29 30  1  0  0  0  0
 30 31  1  0  0  0  0
 30 51  1  0  0  0  0
 30 52  1  0  0  0  0
 31 53  1  0  0  0  0
 31 54  1  0  0  0  0
 32 33  2  0  0  0  0
 32 55  1  0  0  0  0
 33 56  1  0  0  0  0
M  END
> <s_m_source_file>
AV-unprocessed.smi

> <i_m_source_file_index>
98

> <i_lp_mmshare_version>
43012

> <i_f3d_flags>
0

> <s_epik_input>
TzFbQ0gyXVtDSDJdW0NIMl1bQ0BIXTFuKGMyPU8pW2NIXWMoRiljKD1PKW4yW0NIMl1DKD1PKVtOSF1jM1tjSF1bY0hdYyhbY0hdW2NIXTMpUyg9TykoPU8pTjRbQ0gyXVtDSDJdT1tDSDJdW0NIMl00

> <s_epik_cmdline>
J2VwaWtfcHl0aG9uJywgJy1waCcsICc3LjAnLCAnLXRuJywgJzgnLCAnLW1hJywgJzIwMCcsICctbWV0YWxfYmluZGluZycsICctaW1hZScsICc8aW5maWxlLm1hZT4nLCAnLW9tYWUnLCAnPG91dGZpbGUubWFlPic=

> <r_lp_tautomer_probability>
1

> <r_epik_Ionization_Penalty>
1.9271e-06

> <r_epik_Ionization_Penalty_Charging>
3.88729e-08

> <r_epik_Ionization_Penalty_Neutral>
1.88823e-06

> <r_epik_State_Penalty>
-0

> <r_epik_Charging_Adjusted_Penalty>
3.88729e-08

> <i_epik_Tot_Q>
0

> <i_epik_Tot_abs_Q>
0

> <r_epik_Metal_State_Penalty>
-0

> <b_epik_Metal_Only>
0

> <s_epik_Chemistry_Notes>
This compound contains an acetal/aminal-like group ( X-CH(R)-Y where X, Y are N, S, or O) that may be acid/base labile, releasing an aldehyde.

> <s_lp_Force_Field>
OPLS_2005

> <r_lp_Energy>
28.5933

> <b_lp_Chiralities_Consistent>
1

> <s_lp_Variant>
AV-unprocessed.smi:98-2

> <Gold.Version>
5.8.1

> <Gold.Id.Protein>
6NUR|6NUR_protein|mol2

> <Gold.PLP.Fitness>
50.0685

> <Gold.PLP.PLP>
-48.1512

> <Gold.PLP.part.hbond>
-2.6706

> <Gold.PLP.part.metal>
0.0000

> <Gold.PLP.part.buried>
-8.3697

> <Gold.PLP.part.nonpolar>
-38.5542

> <Gold.PLP.part.repulsive>
0.2824

> <Gold.PLP.ligand.clash>
0.0000

> <Gold.PLP.ligand.torsion>
2.4350

> <Gold.PLP.Chemscore.Hbond>
0.8775

> <Gold.PLP.Chemscore.CHOScore>
0.0000

> <Gold.PLP.Chemscore.Metal>
0.0000

> <Gold.Chemscore.Hbonds>
donor molecule, donor type, donor heavy atom, donor atom, acceptor molecule, acceptor atom, score
      P1  H  6896  6908       L1     1  0.68

> <Gold.PLP.Chemscore.Internal.Correction>
4.1548

> <Gold.Rescore>
     Score         DG    S(hbond)    S(metal)    S(lipo)     H(rot)  DE(clash)    DE(int)     intcor
      7.56     -14.55       0.99        0.00      85.98       1.67       0.00       6.98       ----

> <Gold.Chemscore.Fitness>
7.5640

> <Gold.Chemscore.DG>
-14.5457

> <Gold.Chemscore.ZeroCoef>
-5.4800

> <Gold.Chemscore.Hbond>
0.9858

> <Gold.Chemscore.Metal>
0.0000

> <Gold.Chemscore.Lipo>
85.9809

> <Gold.Chemscore.Internal_Hbond>
0.0000

> <Gold.Chemscore.DEClash>
0.0029

> <Gold.Chemscore.DEInternal>
6.9788

> <Gold.Chemscore.Rot>
1.6744

> <Gold.Chemscore.Internal.Correction>
   9.000000E+99

> <Gold.Chemscore.Hbonds>
donor molecule, donor type, donor heavy atom, donor atom, acceptor molecule, acceptor atom, score
      P1  H  6896  6908       L1     1  0.68

> <Gold.Chemscore.Hbond.Weighted>
-3.2924

> <Gold.Chemscore.Metal.Weighted>
-0.0000

> <Gold.Chemscore.Lipo.Weighted>
-10.0598

> <Gold.Chemscore.Internal_Hbond.Weighted>
0.0000

> <Gold.Chemscore.DEClash.Weighted>
0.0029

> <Gold.Chemscore.DEInternal.Weighted>
6.9788

> <Gold.Chemscore.Rot.Weighted>
4.2865

> <Gold.Chemscore.Internal.Correction.Weighted>
   9.000000E+99

> <Gold.Protein.RotatedTorsions>
[ 6907 6896 6895 6894 ] final -139.62 input  -60.11 | X-H torsion
[ 7974 7965 7964 7962 ] final  177.82 input  175.53 | X-H torsion
[ 8008 7997 7996 7995 ] final  175.06 input   59.86 | X-H torsion
[ 10167 10162 10161 10158 ] final -142.84 input  -65.29 | X-H torsion
[ 10718 10713 10712 10709 ] final  -35.85 input   66.30 | X-H torsion
[ 10763 10752 10751 10750 ] final   76.72 input  -60.55 | X-H torsion
[ 11005 11000 10999 10996 ] final -127.24 input  -57.11 | X-H torsion

> <Gold.Protein.ActiveResidues>
 VAL166  LYS551  ARG553  GLY616  TRP617  ASP618  TYR619  PRO620  LYS621  CYS622 
 ASP623  PHE694  ASN695  SER759  ASP760  ASP761  ALA762  ILE779  LEU786  VAL792 
 PHE793  MET794  SER795  GLU796  ALA797  LYS798  CYS799  TRP800  GLU811  SER814 

> <Gold.Protein.RotatedAtoms>
  151.0501  133.5631  159.2642 H   0  0  0  0  0  0  0  0  0  0  0  0  # atno 6907 bound_to 6896
  151.2645  135.0664  159.9121 H   0  0  0  0  0  0  0  0  0  0  0  0  # atno 6908 bound_to 6896
  152.5380  134.0241  159.8049 H   0  0  0  0  0  0  0  0  0  0  0  0  # atno 6909 bound_to 6896
  144.7164  140.0305  143.6439 H   0  0  0  0  0  0  0  0  0  0  0  0  # atno 7974 bound_to 7965
  156.0909  140.1418  156.9593 H   0  0  0  0  0  0  0  0  0  0  0  0  # atno 8008 bound_to 7997
  154.4641  140.0932  156.7021 H   0  0  0  0  0  0  0  0  0  0  0  0  # atno 8009 bound_to 7997
  155.4921  140.3448  155.4359 H   0  0  0  0  0  0  0  0  0  0  0  0  # atno 8010 bound_to 7997
  139.8050  143.7781  152.2660 H   0  0  0  0  0  0  0  0  0  0  0  0  # atno 10167 bound_to 10162
  156.3337  130.4283  149.7849 H   0  0  0  0  0  0  0  0  0  0  0  0  # atno 10718 bound_to 10713
  153.0745  135.4941  154.8376 H   0  0  0  0  0  0  0  0  0  0  0  0  # atno 10763 bound_to 10752
  154.7069  135.3012  154.9259 H   0  0  0  0  0  0  0  0  0  0  0  0  # atno 10764 bound_to 10752
  153.9965  135.6771  153.4810 H   0  0  0  0  0  0  0  0  0  0  0  0  # atno 10765 bound_to 10752
  140.9615  134.0929  157.3963 H   0  0  0  0  0  0  0  0  0  0  0  0  # atno 11005 bound_to 11000
  146.0107  139.3167  143.0872 LP  0  0  0  0  0  0  0  0  0  0  0  0  # atno 17320 bound_to 7965
  145.8685  140.9433  143.0663 LP  0  0  0  0  0  0  0  0  0  0  0  0  # atno 17321 bound_to 7965
  139.7913  144.7409  150.9952 LP  0  0  0  0  0  0  0  0  0  0  0  0  # atno 17342 bound_to 10162
  140.7819  143.4439  151.0510 LP  0  0  0  0  0  0  0  0  0  0  0  0  # atno 17343 bound_to 10162
  156.5111  130.8172  151.3169 LP  0  0  0  0  0  0  0  0  0  0  0  0  # atno 17370 bound_to 10713
  157.7435  130.9913  150.2597 LP  0  0  0  0  0  0  0  0  0  0  0  0  # atno 17371 bound_to 10713
  139.8880  135.0094  156.6593 LP  0  0  0  0  0  0  0  0  0  0  0  0  # atno 17394 bound_to 11000
  140.7460  133.8937  155.8312 LP  0  0  0  0  0  0  0  0  0  0  0  0  # atno 17395 bound_to 11000

$$$$
