AV-unprocessed.smi:3134|AV-procd|sdf|11942|dock9
  -GOLD-   2272017333D 1   1.00000     0.00000
 Structure written by MMmdl.
 37 37  0  0  0  0  0  0  0  0  2 V2000
  146.1410  142.4183  154.1545 C   0  0  0  0  0  0  0  0  0  0  0  0
  147.3713  141.4980  154.1066 C   0  0  0  0  0  0  0  0  0  0  0  0
  146.9724  140.0250  153.9491 C   0  0  0  0  0  0  0  0  0  0  0  0
  148.1746  141.6576  155.3155 N   0  0  0  0  0  0  0  0  0  0  0  0
  149.3002  140.9811  155.5914 C   0  0  0  0  0  0  0  0  0  0  0  0
  149.7744  140.1240  154.8445 O   0  0  0  0  0  0  0  0  0  0  0  0
  149.9974  141.3198  156.9164 C   0  0  1  0  0  0  0  0  0  0  0  0
  151.1041  140.2946  157.2056 C   0  0  0  0  0  0  0  0  0  0  0  0
  150.5717  142.6825  156.8767 N   0  3  0  0  0  0  0  0  0  0  0  0
  150.8934  143.2630  158.1990 C   0  0  0  0  0  0  0  0  0  0  0  0
  152.4004  143.1799  158.4907 C   0  0  0  0  0  0  0  0  0  0  0  0
  152.6886  143.2515  159.9133 N   0  0  0  0  0  0  0  0  0  0  0  0
  153.3243  142.3207  160.7081 C   0  0  0  0  0  0  0  0  0  0  0  0
  153.3661  142.8287  161.9749 C   0  0  0  0  0  0  0  0  0  0  0  0
  152.7114  144.0865  161.8574 C   0  0  0  0  0  0  0  0  0  0  0  0
  152.3010  144.3330  160.6240 N   0  0  0  0  0  0  0  0  0  0  0  0
  145.5369  142.3094  153.2534 H   0  0  0  0  0  0  0  0  0  0  0  0
  146.4313  143.4671  154.2277 H   0  0  0  0  0  0  0  0  0  0  0  0
  145.5053  142.1883  155.0102 H   0  0  0  0  0  0  0  0  0  0  0  0
  147.9752  141.7715  153.2395 H   0  0  0  0  0  0  0  0  0  0  0  0
  146.3975  139.8713  153.0355 H   0  0  0  0  0  0  0  0  0  0  0  0
  146.3618  139.6856  154.7865 H   0  0  0  0  0  0  0  0  0  0  0  0
  147.8522  139.3828  153.8952 H   0  0  0  0  0  0  0  0  0  0  0  0
  147.8513  142.3389  155.9872 H   0  0  0  0  0  0  0  0  0  0  0  0
  149.2708  141.2762  157.7300 H   0  0  0  0  0  0  0  0  0  0  0  0
  150.7012  139.2825  157.2643 H   0  0  0  0  0  0  0  0  0  0  0  0
  151.5931  140.5050  158.1572 H   0  0  0  0  0  0  0  0  0  0  0  0
  151.8719  140.3024  156.4303 H   0  0  0  0  0  0  0  0  0  0  0  0
  151.4189  142.6663  156.3275 H   0  0  0  0  0  0  0  0  0  0  0  0
  150.5686  144.3032  158.2490 H   0  0  0  0  0  0  0  0  0  0  0  0
  150.3301  142.7264  158.9631 H   0  0  0  0  0  0  0  0  0  0  0  0
  152.8047  142.2417  158.1087 H   0  0  0  0  0  0  0  0  0  0  0  0
  152.9330  143.9838  157.9808 H   0  0  0  0  0  0  0  0  0  0  0  0
  153.6949  141.3868  160.3116 H   0  0  0  0  0  0  0  0  0  0  0  0
  153.7962  142.3707  162.8532 H   0  0  0  0  0  0  0  0  0  0  0  0
  152.5222  144.8214  162.6259 H   0  0  0  0  0  0  0  0  0  0  0  0
  149.8988  143.2799  156.4169 H   0  0  0  0  0  0  0  0  0  0  0  0
  1  2  1  0  0  0  0
  1 17  1  0  0  0  0
  1 18  1  0  0  0  0
  1 19  1  0  0  0  0
  2  3  1  0  0  0  0
  2  4  1  0  0  0  0
  2 20  1  0  0  0  0
  3 21  1  0  0  0  0
  3 22  1  0  0  0  0
  3 23  1  0  0  0  0
  4  5  1  0  0  0  0
  4 24  1  0  0  0  0
  5  6  2  0  0  0  0
  5  7  1  0  0  0  0
  7  8  1  0  0  0  0
  7  9  1  0  0  0  0
  7 25  1  0  0  0  0
  8 26  1  0  0  0  0
  8 27  1  0  0  0  0
  8 28  1  0  0  0  0
  9 10  1  0  0  0  0
  9 29  1  0  0  0  0
  9 37  1  0  0  0  0
 10 11  1  0  0  0  0
 10 30  1  0  0  0  0
 10 31  1  0  0  0  0
 11 12  1  0  0  0  0
 11 32  1  0  0  0  0
 11 33  1  0  0  0  0
 12 16  1  0  0  0  0
 12 13  1  0  0  0  0
 13 14  2  0  0  0  0
 13 34  1  0  0  0  0
 14 15  1  0  0  0  0
 14 35  1  0  0  0  0
 15 16  2  0  0  0  0
 15 36  1  0  0  0  0
M  CHG  1   9   1
M  END
> <s_m_source_file>
AV-unprocessed.smi

> <i_m_source_file_index>
3134

> <i_lp_mmshare_version>
43012

> <i_f3d_flags>
0

> <s_epik_input>
W0NIM11bQ0hdKFtDSDNdKVtOSF1DKD1PKVtDQEhdKFtDSDNdKVtOSF1bQ0gyXVtDSDJdbjFbY0hdW2NIXVtjSF1uMQ==

> <s_epik_cmdline>
J2VwaWtfcHl0aG9uJywgJy1waCcsICc3LjAnLCAnLXRuJywgJzgnLCAnLW1hJywgJzIwMCcsICctbWV0YWxfYmluZGluZycsICctaW1hZScsICc8aW5maWxlLm1hZT4nLCAnLW9tYWUnLCAnPG91dGZpbGUubWFlPic=

> <r_lp_tautomer_probability>
1

> <r_epik_Ionization_Penalty>
0.20398

> <r_epik_Ionization_Penalty_Charging>
0.203977

> <r_epik_Ionization_Penalty_Neutral>
3.23345e-06

> <r_epik_State_Penalty>
0.193898

> <r_epik_Charging_Adjusted_Penalty>
0.397875

> <i_epik_Tot_Q>
1

> <i_epik_Tot_abs_Q>
1

> <r_epik_Metal_State_Penalty>
0.194184

> <b_epik_Metal_Only>
0

> <s_lp_Force_Field>
OPLS_2005

> <r_lp_Energy>
4.47428

> <b_lp_Chiralities_Consistent>
1

> <s_lp_Variant>
AV-unprocessed.smi:3134-2

> <Gold.Version>
5.8.1

> <Gold.Id.Protein>
6NUR|6NUR_protein|mol2

> <Gold.PLP.Fitness>
50.6408

> <Gold.PLP.PLP>
-43.2801

> <Gold.PLP.part.hbond>
-3.0000

> <Gold.PLP.part.metal>
0.0000

> <Gold.PLP.part.buried>
-6.3365

> <Gold.PLP.part.nonpolar>
-33.6298

> <Gold.PLP.part.repulsive>
0.4241

> <Gold.PLP.ligand.clash>
0.0000

> <Gold.PLP.ligand.torsion>
0.7249

> <Gold.PLP.Chemscore.Hbond>
2.9106

> <Gold.PLP.Chemscore.CHOScore>
0.0000

> <Gold.PLP.Chemscore.Metal>
0.0000

> <Gold.Chemscore.Hbonds>
donor molecule, donor type, donor heavy atom, donor atom, acceptor molecule, acceptor atom, score
      L1  H     9    37       P1  8028  2.00
      P1  H  7989  7998       L1     6  0.06

> <Gold.PLP.Chemscore.Internal.Correction>
0.0786

> <Gold.Rescore>
     Score         DG    S(hbond)    S(metal)    S(lipo)     H(rot)  DE(clash)    DE(int)     intcor
     14.37     -16.45       1.87        0.00      86.90       2.13       1.23       0.85       ----

> <Gold.Chemscore.Fitness>
14.3689

> <Gold.Chemscore.DG>
-16.4454

> <Gold.Chemscore.ZeroCoef>
-5.4800

> <Gold.Chemscore.Hbond>
1.8742

> <Gold.Chemscore.Metal>
0.0000

> <Gold.Chemscore.Lipo>
86.8971

> <Gold.Chemscore.Internal_Hbond>
0.0000

> <Gold.Chemscore.DEClash>
1.2262

> <Gold.Chemscore.DEInternal>
0.8503

> <Gold.Chemscore.Rot>
2.1334

> <Gold.Chemscore.Internal.Correction>
   9.000000E+99

> <Gold.Chemscore.Hbonds>
donor molecule, donor type, donor heavy atom, donor atom, acceptor molecule, acceptor atom, score
      L1  H     9    37       P1  8028  1.00
      P1  H  7989  7998       L1     6  0.09

> <Gold.Chemscore.Hbond.Weighted>
-6.2600

> <Gold.Chemscore.Metal.Weighted>
-0.0000

> <Gold.Chemscore.Lipo.Weighted>
-10.1670

> <Gold.Chemscore.Internal_Hbond.Weighted>
0.0000

> <Gold.Chemscore.DEClash.Weighted>
1.2262

> <Gold.Chemscore.DEInternal.Weighted>
0.8503

> <Gold.Chemscore.Rot.Weighted>
5.4615

> <Gold.Chemscore.Internal.Correction.Weighted>
   9.000000E+99

> <Gold.Protein.RotatedTorsions>
[ 6907 6896 6895 6894 ] final   61.88 input  -60.11 | X-H torsion
[ 7974 7965 7964 7962 ] final  167.01 input  175.53 | X-H torsion
[ 8008 7997 7996 7995 ] final   32.38 input   59.86 | X-H torsion
[ 10167 10162 10161 10158 ] final   47.55 input  -65.29 | X-H torsion
[ 10718 10713 10712 10709 ] final -156.94 input   66.30 | X-H torsion
[ 10763 10752 10751 10750 ] final -150.37 input  -60.55 | X-H torsion
[ 11005 11000 10999 10996 ] final -123.22 input  -57.11 | X-H torsion

> <Gold.Protein.ActiveResidues>
 VAL166  LYS551  ARG553  GLY616  TRP617  ASP618  TYR619  PRO620  LYS621  CYS622 
 ASP623  PHE694  ASN695  SER759  ASP760  ASP761  ALA762  ILE779  LEU786  VAL792 
 PHE793  MET794  SER795  GLU796  ALA797  LYS798  CYS799  TRP800  GLU811  SER814 

> <Gold.Protein.RotatedAtoms>
  152.4126  134.6098  160.0022 H   0  0  0  0  0  0  0  0  0  0  0  0  # atno 6907 bound_to 6896
  151.6271  133.3329  159.3108 H   0  0  0  0  0  0  0  0  0  0  0  0  # atno 6908 bound_to 6896
  150.8016  134.7153  159.6672 H   0  0  0  0  0  0  0  0  0  0  0  0  # atno 6909 bound_to 6896
  144.7440  139.8699  143.6388 H   0  0  0  0  0  0  0  0  0  0  0  0  # atno 7974 bound_to 7965
  155.1216  140.3249  155.4496 H   0  0  0  0  0  0  0  0  0  0  0  0  # atno 8008 bound_to 7997
  156.2661  140.2026  156.6286 H   0  0  0  0  0  0  0  0  0  0  0  0  # atno 8009 bound_to 7997
  154.6679  140.0540  157.0121 H   0  0  0  0  0  0  0  0  0  0  0  0  # atno 8010 bound_to 7997
  140.3024  144.2918  150.6216 H   0  0  0  0  0  0  0  0  0  0  0  0  # atno 10167 bound_to 10162
  156.5334  130.8531  151.2724 H   0  0  0  0  0  0  0  0  0  0  0  0  # atno 10718 bound_to 10713
  154.8123  135.3286  154.7272 H   0  0  0  0  0  0  0  0  0  0  0  0  # atno 10763 bound_to 10752
  153.7919  135.6910  153.4874 H   0  0  0  0  0  0  0  0  0  0  0  0  # atno 10764 bound_to 10752
  153.1911  135.4550  155.0096 H   0  0  0  0  0  0  0  0  0  0  0  0  # atno 10765 bound_to 10752
  140.9935  134.0505  157.3625 H   0  0  0  0  0  0  0  0  0  0  0  0  # atno 11005 bound_to 11000
  146.1288  139.4319  143.0182 LP  0  0  0  0  0  0  0  0  0  0  0  0  # atno 17320 bound_to 7965
  145.7195  141.0080  143.1410 LP  0  0  0  0  0  0  0  0  0  0  0  0  # atno 17321 bound_to 7965
  140.5639  143.2188  151.7717 LP  0  0  0  0  0  0  0  0  0  0  0  0  # atno 17342 bound_to 10162
  139.4912  144.4310  151.9872 LP  0  0  0  0  0  0  0  0  0  0  0  0  # atno 17343 bound_to 10162
  157.7418  130.9877  150.2470 LP  0  0  0  0  0  0  0  0  0  0  0  0  # atno 17370 bound_to 10713
  156.3039  130.3762  149.7725 LP  0  0  0  0  0  0  0  0  0  0  0  0  # atno 17371 bound_to 10713
  139.9003  135.0162  156.7238 LP  0  0  0  0  0  0  0  0  0  0  0  0  # atno 17394 bound_to 11000
  140.7002  133.9313  155.8020 LP  0  0  0  0  0  0  0  0  0  0  0  0  # atno 17395 bound_to 11000

$$$$
