AV-unprocessed.smi:534|AV-procd|sdf|2856|dock1
  -GOLD-   2262023343D 1   1.00000     0.00000
 Structure written by MMmdl.
 40 41  0  0  0  0  0  0  0  0  1 V2000
  153.1560  142.8027  160.5885 C   0  0  0  0  0  0  0  0  0  0  0  0
  152.8733  143.5326  159.4082 O   0  0  0  0  0  0  0  0  0  0  0  0
  151.7343  143.0388  158.7225 C   0  0  0  0  0  0  0  0  0  0  0  0
  151.6073  143.7476  157.3684 C   0  0  0  0  0  0  0  0  0  0  0  0
  150.6898  143.0475  156.4899 N   0  0  0  0  0  0  0  0  0  0  0  0
  150.7110  141.7607  155.9669 C   0  0  0  0  0  0  0  0  0  0  0  0
  151.6539  140.8510  156.2255 N   0  0  0  0  0  0  0  0  0  0  0  0
  151.2151  139.7447  155.5110 C   0  0  0  0  0  0  0  0  0  0  0  0
  150.0509  140.0149  154.8662 C   0  0  0  0  0  0  0  0  0  0  0  0
  149.3451  139.0154  154.0560 C   0  0  0  0  0  0  0  0  0  0  0  0
  148.2844  139.2397  153.4769 O   0  0  0  0  0  0  0  0  0  0  0  0
  149.9801  137.8186  154.0195 N   0  0  0  0  0  0  0  0  0  0  0  0
  151.1512  137.4792  154.6409 C   0  0  0  0  0  0  0  0  0  0  0  0
  151.6030  136.3406  154.5205 O   0  0  0  0  0  0  0  0  0  0  0  0
  151.7797  138.4429  155.3880 N   0  0  0  0  0  0  0  0  0  0  0  0
  153.0309  138.1331  156.0823 C   0  0  0  0  0  0  0  0  0  0  0  0
  149.7135  141.3366  155.1523 N   0  0  0  0  0  0  0  0  0  0  0  0
  148.5411  142.0837  154.7085 C   0  0  0  0  0  0  0  0  0  0  0  0
  147.2363  141.3471  155.0447 C   0  0  0  0  0  0  0  0  0  0  0  0
  146.2172  141.7508  154.1438 O   0  0  0  0  0  0  0  0  0  0  0  0
  146.0228  143.1532  154.1284 C   0  0  0  0  0  0  0  0  0  0  0  0
  149.5362  137.0927  153.4762 H   0  0  0  0  0  0  0  0  0  0  0  0
  154.0293  143.2288  161.0821 H   0  0  0  0  0  0  0  0  0  0  0  0
  153.3743  141.7583  160.3616 H   0  0  0  0  0  0  0  0  0  0  0  0
  152.3200  142.8432  161.2880 H   0  0  0  0  0  0  0  0  0  0  0  0
  151.8030  141.9585  158.5806 H   0  0  0  0  0  0  0  0  0  0  0  0
  150.8436  143.2331  159.3213 H   0  0  0  0  0  0  0  0  0  0  0  0
  151.2256  144.7577  157.5163 H   0  0  0  0  0  0  0  0  0  0  0  0
  152.5824  143.8415  156.8895 H   0  0  0  0  0  0  0  0  0  0  0  0
  149.8172  143.5360  156.3511 H   0  0  0  0  0  0  0  0  0  0  0  0
  153.7575  137.6920  155.3982 H   0  0  0  0  0  0  0  0  0  0  0  0
  152.8489  137.4239  156.8909 H   0  0  0  0  0  0  0  0  0  0  0  0
  153.4968  139.0176  156.5173 H   0  0  0  0  0  0  0  0  0  0  0  0
  148.5447  143.0701  155.1729 H   0  0  0  0  0  0  0  0  0  0  0  0
  148.6146  142.2642  153.6368 H   0  0  0  0  0  0  0  0  0  0  0  0
  147.3890  140.2693  154.9750 H   0  0  0  0  0  0  0  0  0  0  0  0
  146.9383  141.5690  156.0707 H   0  0  0  0  0  0  0  0  0  0  0  0
  145.2259  143.4029  153.4280 H   0  0  0  0  0  0  0  0  0  0  0  0
  146.9267  143.6724  153.8079 H   0  0  0  0  0  0  0  0  0  0  0  0
  145.7353  143.5231  155.1133 H   0  0  0  0  0  0  0  0  0  0  0  0
  1  2  1  0  0  0  0
  1 23  1  0  0  0  0
  1 24  1  0  0  0  0
  1 25  1  0  0  0  0
  2  3  1  0  0  0  0
  3  4  1  0  0  0  0
  3 26  1  0  0  0  0
  3 27  1  0  0  0  0
  4  5  1  0  0  0  0
  4 28  1  0  0  0  0
  4 29  1  0  0  0  0
  5  6  1  0  0  0  0
  5 30  1  0  0  0  0
  6 17  1  0  0  0  0
  6  7  2  0  0  0  0
  7  8  1  0  0  0  0
  8 15  1  0  0  0  0
  8  9  2  0  0  0  0
  9 10  1  0  0  0  0
  9 17  1  0  0  0  0
 10 11  2  0  0  0  0
 10 12  1  0  0  0  0
 12 22  1  0  0  0  0
 12 13  1  0  0  0  0
 13 14  2  0  0  0  0
 13 15  1  0  0  0  0
 15 16  1  0  0  0  0
 16 31  1  0  0  0  0
 16 32  1  0  0  0  0
 16 33  1  0  0  0  0
 17 18  1  0  0  0  0
 18 19  1  0  0  0  0
 18 34  1  0  0  0  0
 18 35  1  0  0  0  0
 19 20  1  0  0  0  0
 19 36  1  0  0  0  0
 19 37  1  0  0  0  0
 20 21  1  0  0  0  0
 21 38  1  0  0  0  0
 21 39  1  0  0  0  0
 21 40  1  0  0  0  0
M  END
> <s_m_source_file>
AV-unprocessed.smi

> <i_m_source_file_index>
534

> <i_lp_mmshare_version>
43012

> <i_f3d_flags>
0

> <s_epik_input>
W0NIM11PW0NIMl1bQ0gyXVtOSF1jKG4xKW4oW0NIMl1bQ0gyXU9bQ0gzXSljKGMxMiljKD1PKVtuSF1jKD1PKW4yW0NIM10=

> <s_epik_cmdline>
J2VwaWtfcHl0aG9uJywgJy1waCcsICc3LjAnLCAnLXRuJywgJzgnLCAnLW1hJywgJzIwMCcsICctbWV0YWxfYmluZGluZycsICctaW1hZScsICc8aW5maWxlLm1hZT4nLCAnLW9tYWUnLCAnPG91dGZpbGUubWFlPic=

> <r_lp_tautomer_probability>
1

> <r_epik_Ionization_Penalty>
6.5127e-05

> <r_epik_Ionization_Penalty_Charging>
2.86033e-05

> <r_epik_Ionization_Penalty_Neutral>
3.65237e-05

> <r_epik_State_Penalty>
-0

> <r_epik_Charging_Adjusted_Penalty>
2.86033e-05

> <i_epik_Tot_Q>
0

> <i_epik_Tot_abs_Q>
0

> <r_epik_Metal_State_Penalty>
0.0266758

> <b_epik_Metal_Only>
0

> <s_lp_Force_Field>
OPLS_2005

> <r_lp_Energy>
20.7104

> <b_lp_Chiralities_Consistent>
1

> <s_lp_Variant>
AV-unprocessed.smi:534-1

> <Gold.Version>
5.8.1

> <Gold.Id.Protein>
6NUR|6NUR_protein|mol2

> <Gold.PLP.Fitness>
48.1855

> <Gold.PLP.PLP>
-39.5575

> <Gold.PLP.part.hbond>
-3.0000

> <Gold.PLP.part.metal>
0.0000

> <Gold.PLP.part.buried>
-3.5634

> <Gold.PLP.part.nonpolar>
-34.2239

> <Gold.PLP.part.repulsive>
2.3905

> <Gold.PLP.ligand.clash>
0.0000

> <Gold.PLP.ligand.torsion>
0.2479

> <Gold.PLP.Chemscore.Hbond>
3.0000

> <Gold.PLP.Chemscore.CHOScore>
0.0000

> <Gold.PLP.Chemscore.Metal>
0.0000

> <Gold.Chemscore.Hbonds>
donor molecule, donor type, donor heavy atom, donor atom, acceptor molecule, acceptor atom, score
      L1  H     5    30       P1  8028  1.00
      L1  H    12    22       P1  7948  1.00
      P1  H 10752 10763       L1    14  0.96

> <Gold.PLP.Chemscore.Internal.Correction>
0.1240

> <Gold.Rescore>
     Score         DG    S(hbond)    S(metal)    S(lipo)     H(rot)  DE(clash)    DE(int)     intcor
     12.99     -16.03       2.74        0.00      65.56       2.45       1.44       1.60       ----

> <Gold.Chemscore.Fitness>
12.9874

> <Gold.Chemscore.DG>
-16.0270

> <Gold.Chemscore.ZeroCoef>
-5.4800

> <Gold.Chemscore.Hbond>
2.7365

> <Gold.Chemscore.Metal>
0.0000

> <Gold.Chemscore.Lipo>
65.5630

> <Gold.Chemscore.Internal_Hbond>
0.0000

> <Gold.Chemscore.DEClash>
1.4422

> <Gold.Chemscore.DEInternal>
1.5974

> <Gold.Chemscore.Rot>
2.4468

> <Gold.Chemscore.Internal.Correction>
   9.000000E+99

> <Gold.Chemscore.Hbonds>
donor molecule, donor type, donor heavy atom, donor atom, acceptor molecule, acceptor atom, score
      L1  H     5    30       P1  8028  0.96
      L1  H    12    22       P1  7948  0.83
      P1  H 10752 10763       L1    14  0.91

> <Gold.Chemscore.Hbond.Weighted>
-9.1400

> <Gold.Chemscore.Metal.Weighted>
-0.0000

> <Gold.Chemscore.Lipo.Weighted>
-7.6709

> <Gold.Chemscore.Internal_Hbond.Weighted>
0.0000

> <Gold.Chemscore.DEClash.Weighted>
1.4422

> <Gold.Chemscore.DEInternal.Weighted>
1.5974

> <Gold.Chemscore.Rot.Weighted>
6.2638

> <Gold.Chemscore.Internal.Correction.Weighted>
   9.000000E+99

> <Gold.Protein.RotatedTorsions>
[ 6907 6896 6895 6894 ] final  157.51 input  -60.11 | X-H torsion
[ 7974 7965 7964 7962 ] final -158.67 input  175.53 | X-H torsion
[ 8008 7997 7996 7995 ] final   83.05 input   59.86 | X-H torsion
[ 10167 10162 10161 10158 ] final  122.67 input  -65.29 | X-H torsion
[ 10718 10713 10712 10709 ] final -122.42 input   66.30 | X-H torsion
[ 10763 10752 10751 10750 ] final   40.85 input  -60.55 | X-H torsion
[ 11005 11000 10999 10996 ] final  -83.19 input  -57.11 | X-H torsion

> <Gold.Protein.ActiveResidues>
 VAL166  LYS551  ARG553  GLY616  TRP617  ASP618  TYR619  PRO620  LYS621  CYS622 
 ASP623  PHE694  ASN695  SER759  ASP760  ASP761  ALA762  ILE779  LEU786  VAL792 
 PHE793  MET794  SER795  GLU796  ALA797  LYS798  CYS799  TRP800  GLU811  SER814 

> <Gold.Protein.RotatedAtoms>
  152.0140  133.3872  159.4230 H   0  0  0  0  0  0  0  0  0  0  0  0  # atno 6907 bound_to 6896
  150.6896  134.3699  159.4997 H   0  0  0  0  0  0  0  0  0  0  0  0  # atno 6908 bound_to 6896
  152.1464  134.9022  160.0601 H   0  0  0  0  0  0  0  0  0  0  0  0  # atno 6909 bound_to 6896
  144.7496  140.3794  143.6058 H   0  0  0  0  0  0  0  0  0  0  0  0  # atno 7974 bound_to 7965
  155.9188  140.3422  155.6156 H   0  0  0  0  0  0  0  0  0  0  0  0  # atno 8008 bound_to 7997
  155.7299  140.0794  157.2312 H   0  0  0  0  0  0  0  0  0  0  0  0  # atno 8009 bound_to 7997
  154.4066  140.1590  156.2484 H   0  0  0  0  0  0  0  0  0  0  0  0  # atno 8010 bound_to 7997
  139.5844  144.7000  151.3445 H   0  0  0  0  0  0  0  0  0  0  0  0  # atno 10167 bound_to 10162
  156.1417  130.6471  150.9781 H   0  0  0  0  0  0  0  0  0  0  0  0  # atno 10718 bound_to 10713
  152.9924  135.6179  154.2693 H   0  0  0  0  0  0  0  0  0  0  0  0  # atno 10763 bound_to 10752
  154.2427  135.2788  155.2849 H   0  0  0  0  0  0  0  0  0  0  0  0  # atno 10764 bound_to 10752
  154.5356  135.5776  153.6853 H   0  0  0  0  0  0  0  0  0  0  0  0  # atno 10765 bound_to 10752
  141.1659  133.7282  156.8683 H   0  0  0  0  0  0  0  0  0  0  0  0  # atno 11005 bound_to 11000
  145.6993  139.1657  143.2602 LP  0  0  0  0  0  0  0  0  0  0  0  0  # atno 17320 bound_to 7965
  146.1427  140.7036  142.9359 LP  0  0  0  0  0  0  0  0  0  0  0  0  # atno 17321 bound_to 7965
  140.7118  143.7370  150.7581 LP  0  0  0  0  0  0  0  0  0  0  0  0  # atno 17342 bound_to 10162
  140.0910  143.4877  152.2478 LP  0  0  0  0  0  0  0  0  0  0  0  0  # atno 17343 bound_to 10162
  157.6581  131.0886  150.7900 LP  0  0  0  0  0  0  0  0  0  0  0  0  # atno 17370 bound_to 10713
  156.7975  130.4910  149.5375 LP  0  0  0  0  0  0  0  0  0  0  0  0  # atno 17371 bound_to 10713
  140.1799  134.9040  157.2936 LP  0  0  0  0  0  0  0  0  0  0  0  0  # atno 17394 bound_to 11000
  140.2406  134.3800  155.7482 LP  0  0  0  0  0  0  0  0  0  0  0  0  # atno 17395 bound_to 11000

$$$$
