AV-unprocessed.smi:1799|AV-procd|sdf|7262|dock2
  -GOLD-   22720 8513D 1   1.00000     0.00000
 Structure written by MMmdl.
 40 41  0  0  0  0  0  0  0  0  3 V2000
  147.4209  136.9341  155.0866 C   0  0  0  0  0  0  0  0  0  0  0  0
  148.2269  138.2312  154.8533 C   0  0  0  0  0  0  0  0  0  0  0  0
  147.4269  139.0666  153.8350 C   0  0  0  0  0  0  0  0  0  0  0  0
  148.3787  139.0752  156.1464 C   0  0  0  0  0  0  0  0  0  0  0  0
  149.4756  138.6002  157.1122 C   0  0  0  0  0  0  0  0  0  0  0  0
  149.0626  137.4166  157.8624 N   0  0  0  0  0  0  0  0  0  0  0  0
  149.5998  136.9660  159.0047 C   0  0  0  0  0  0  0  0  0  0  0  0
  150.5138  137.5914  159.5463 O   0  0  0  0  0  0  0  0  0  0  0  0
  149.0510  135.8091  159.4379 N   0  5  0  0  0  0  0  0  0  0  0  0
  148.2721  135.8054  160.5322 C   0  0  0  0  0  0  0  0  0  0  0  0
  147.7940  136.9342  161.0801 N   0  0  0  0  0  0  0  0  0  0  0  0
  147.0089  136.7059  162.2021 N   0  0  0  0  0  0  0  0  0  0  0  0
  146.9079  135.4038  162.4680 C   0  0  0  0  0  0  0  0  0  0  0  0
  147.7603  134.3382  161.3708 S   0  0  0  0  0  0  0  0  0  0  0  0
  150.8012  138.4148  156.3487 C   0  0  0  0  0  0  0  0  0  0  0  0
  150.7063  137.5405  155.0738 C   0  0  0  0  0  0  0  0  0  0  0  0
  151.9774  137.7855  154.2375 C   0  0  0  0  0  0  0  0  0  0  0  0
  150.6762  136.0291  155.3926 C   0  0  0  0  0  0  0  0  0  0  0  0
  149.5495  137.9469  154.2268 N   0  3  0  0  0  0  0  0  0  0  0  0
  146.3998  137.1626  155.3940 H   0  0  0  0  0  0  0  0  0  0  0  0
  147.8312  136.2948  155.8614 H   0  0  0  0  0  0  0  0  0  0  0  0
  147.3569  136.3387  154.1751 H   0  0  0  0  0  0  0  0  0  0  0  0
  146.4452  139.3387  154.2250 H   0  0  0  0  0  0  0  0  0  0  0  0
  147.2688  138.5187  152.9051 H   0  0  0  0  0  0  0  0  0  0  0  0
  147.9445  139.9927  153.5811 H   0  0  0  0  0  0  0  0  0  0  0  0
  148.6292  140.0992  155.8648 H   0  0  0  0  0  0  0  0  0  0  0  0
  147.4229  139.1472  156.6681 H   0  0  0  0  0  0  0  0  0  0  0  0
  149.6201  139.3925  157.8489 H   0  0  0  0  0  0  0  0  0  0  0  0
  148.3085  136.8718  157.4703 H   0  0  0  0  0  0  0  0  0  0  0  0
  146.3258  135.0684  163.3130 H   0  0  0  0  0  0  0  0  0  0  0  0
  151.1393  139.4115  156.0608 H   0  0  0  0  0  0  0  0  0  0  0  0
  151.5802  138.0332  157.0097 H   0  0  0  0  0  0  0  0  0  0  0  0
  152.8780  137.5359  154.8004 H   0  0  0  0  0  0  0  0  0  0  0  0
  152.0630  138.8292  153.9323 H   0  0  0  0  0  0  0  0  0  0  0  0
  151.9818  137.1808  153.3297 H   0  0  0  0  0  0  0  0  0  0  0  0
  151.5935  135.7215  155.8963 H   0  0  0  0  0  0  0  0  0  0  0  0
  150.5926  135.4341  154.4826 H   0  0  0  0  0  0  0  0  0  0  0  0
  149.8626  135.7327  156.0458 H   0  0  0  0  0  0  0  0  0  0  0  0
  149.4253  137.2646  153.4927 H   0  0  0  0  0  0  0  0  0  0  0  0
  149.8306  138.8147  153.7940 H   0  0  0  0  0  0  0  0  0  0  0  0
  1  2  1  0  0  0  0
  1 20  1  0  0  0  0
  1 21  1  0  0  0  0
  1 22  1  0  0  0  0
  2 19  1  0  0  0  0
  2  3  1  0  0  0  0
  2  4  1  0  0  0  0
  3 23  1  0  0  0  0
  3 24  1  0  0  0  0
  3 25  1  0  0  0  0
  4  5  1  0  0  0  0
  4 26  1  0  0  0  0
  4 27  1  0  0  0  0
  5  6  1  0  0  0  0
  5 15  1  0  0  0  0
  5 28  1  0  0  0  0
  6  7  1  0  0  0  0
  6 29  1  0  0  0  0
  7  8  2  0  0  0  0
  7  9  1  0  0  0  0
  9 10  1  0  0  0  0
 10 14  1  0  0  0  0
 10 11  2  0  0  0  0
 11 12  1  0  0  0  0
 12 13  2  0  0  0  0
 13 14  1  0  0  0  0
 13 30  1  0  0  0  0
 15 16  1  0  0  0  0
 15 31  1  0  0  0  0
 15 32  1  0  0  0  0
 16 17  1  0  0  0  0
 16 18  1  0  0  0  0
 16 19  1  0  0  0  0
 17 33  1  0  0  0  0
 17 34  1  0  0  0  0
 17 35  1  0  0  0  0
 18 36  1  0  0  0  0
 18 37  1  0  0  0  0
 18 38  1  0  0  0  0
 19 39  1  0  0  0  0
 19 40  1  0  0  0  0
M  CHG  1   9  -1
M  CHG  1  19   1
M  END
> <s_m_source_file>
AV-unprocessed.smi

> <i_m_source_file_index>
1799

> <i_lp_mmshare_version>
43012

> <i_f3d_flags>
0

> <s_epik_input>
W0NIM11DMShbQ0gzXSlbQ0gyXVtDSF0oW0NIMl1DKFtDSDNdKShbQ0gzXSlbTkhdMSlbTkhdQyg9TylbTkhdYzJubltjSF1zMg==

> <s_epik_cmdline>
J2VwaWtfcHl0aG9uJywgJy1waCcsICc3LjAnLCAnLXRuJywgJzgnLCAnLW1hJywgJzIwMCcsICctbWV0YWxfYmluZGluZycsICctaW1hZScsICc8aW5maWxlLm1hZT4nLCAnLW9tYWUnLCAnPG91dGZpbGUubWFlPic=

> <r_lp_tautomer_probability>
1

> <r_epik_Ionization_Penalty>
4.14205

> <r_epik_Ionization_Penalty_Charging>
4.10837

> <r_epik_Ionization_Penalty_Neutral>
0.0336815

> <r_epik_State_Penalty>
4.10769

> <r_epik_Charging_Adjusted_Penalty>
8.21606

> <i_epik_Tot_Q>
0

> <i_epik_Tot_abs_Q>
2

> <r_epik_Metal_State_Penalty>
0.655549

> <b_epik_Metal_Only>
1

> <s_lp_Force_Field>
OPLS_2005

> <r_lp_Energy>
17.9013

> <b_lp_Chiralities_Consistent>
1

> <s_lp_Variant>
AV-unprocessed.smi:1799-2

> <Gold.Version>
5.8.1

> <Gold.Id.Protein>
6NUR|6NUR_protein|mol2

> <Gold.PLP.Fitness>
39.3325

> <Gold.PLP.PLP>
-24.8053

> <Gold.PLP.part.hbond>
-4.9872

> <Gold.PLP.part.metal>
0.0000

> <Gold.PLP.part.buried>
-6.2138

> <Gold.PLP.part.nonpolar>
-15.6612

> <Gold.PLP.part.repulsive>
0.1031

> <Gold.PLP.ligand.clash>
0.0000

> <Gold.PLP.ligand.torsion>
0.9221

> <Gold.PLP.Chemscore.Hbond>
5.4476

> <Gold.PLP.Chemscore.CHOScore>
0.0000

> <Gold.PLP.Chemscore.Metal>
0.0000

> <Gold.Chemscore.Hbonds>
donor molecule, donor type, donor heavy atom, donor atom, acceptor molecule, acceptor atom, score
      L1  H    19    39       P1  7948  2.00
      P1  H  6896  6907       L1     9  1.90
      P1  H  6931  6943       L1    11  0.85
      P1  H  6934  6947       L1    11  0.36

> <Gold.PLP.Chemscore.Internal.Correction>
0.0286

> <Gold.Rescore>
     Score         DG    S(hbond)    S(metal)    S(lipo)     H(rot)  DE(clash)    DE(int)     intcor
     13.34     -14.60       1.66        0.00      52.37       1.00       0.27       0.99       ----

> <Gold.Chemscore.Fitness>
13.3369

> <Gold.Chemscore.DG>
-14.6022

> <Gold.Chemscore.ZeroCoef>
-5.4800

> <Gold.Chemscore.Hbond>
1.6632

> <Gold.Chemscore.Metal>
0.0000

> <Gold.Chemscore.Lipo>
52.3698

> <Gold.Chemscore.Internal_Hbond>
0.0000

> <Gold.Chemscore.DEClash>
0.2715

> <Gold.Chemscore.DEInternal>
0.9939

> <Gold.Chemscore.Rot>
1.0000

> <Gold.Chemscore.Internal.Correction>
   9.000000E+99

> <Gold.Chemscore.Hbonds>
donor molecule, donor type, donor heavy atom, donor atom, acceptor molecule, acceptor atom, score
      L1  H    19    39       P1  7948  0.93
      P1  H  6896  6907       L1     9  0.18
      P1  H  6931  6943       L1    11  0.13
      P1  H  6934  6947       L1    11  0.03

> <Gold.Chemscore.Hbond.Weighted>
-5.5550

> <Gold.Chemscore.Metal.Weighted>
-0.0000

> <Gold.Chemscore.Lipo.Weighted>
-6.1273

> <Gold.Chemscore.Internal_Hbond.Weighted>
0.0000

> <Gold.Chemscore.DEClash.Weighted>
0.2715

> <Gold.Chemscore.DEInternal.Weighted>
0.9939

> <Gold.Chemscore.Rot.Weighted>
2.5600

> <Gold.Chemscore.Internal.Correction.Weighted>
   9.000000E+99

> <Gold.Protein.RotatedTorsions>
[ 6907 6896 6895 6894 ] final  -59.71 input  -60.11 | X-H torsion
[ 7974 7965 7964 7962 ] final  -50.68 input  175.53 | X-H torsion
[ 8008 7997 7996 7995 ] final -105.71 input   59.86 | X-H torsion
[ 10167 10162 10161 10158 ] final  128.50 input  -65.29 | X-H torsion
[ 10718 10713 10712 10709 ] final   65.45 input   66.30 | X-H torsion
[ 10763 10752 10751 10750 ] final  -36.93 input  -60.55 | X-H torsion
[ 11005 11000 10999 10996 ] final -167.23 input  -57.11 | X-H torsion

> <Gold.Protein.ActiveResidues>
 VAL166  LYS551  ARG553  GLY616  TRP617  ASP618  TYR619  PRO620  LYS621  CYS622 
 ASP623  PHE694  ASN695  SER759  ASP760  ASP761  ALA762  ILE779  LEU786  VAL792 
 PHE793  MET794  SER795  GLU796  ALA797  LYS798  CYS799  TRP800  GLU811  SER814 

> <Gold.Protein.RotatedAtoms>
  150.7910  134.6933  159.6508 H   0  0  0  0  0  0  0  0  0  0  0  0  # atno 6907 bound_to 6896
  152.4015  134.6275  160.0076 H   0  0  0  0  0  0  0  0  0  0  0  0  # atno 6908 bound_to 6896
  151.6545  133.3282  159.3196 H   0  0  0  0  0  0  0  0  0  0  0  0  # atno 6909 bound_to 6896
  145.9272  140.7781  142.9617 H   0  0  0  0  0  0  0  0  0  0  0  0  # atno 7974 bound_to 7965
  154.9038  140.0412  157.1908 H   0  0  0  0  0  0  0  0  0  0  0  0  # atno 8008 bound_to 7997
  154.8416  140.2915  155.5634 H   0  0  0  0  0  0  0  0  0  0  0  0  # atno 8009 bound_to 7997
  156.2992  140.2481  156.3360 H   0  0  0  0  0  0  0  0  0  0  0  0  # atno 8010 bound_to 7997
  139.5524  144.6823  151.4284 H   0  0  0  0  0  0  0  0  0  0  0  0  # atno 10167 bound_to 10162
  157.6106  130.9214  149.9978 H   0  0  0  0  0  0  0  0  0  0  0  0  # atno 10718 bound_to 10713
  153.8879  135.6815  153.4762 H   0  0  0  0  0  0  0  0  0  0  0  0  # atno 10763 bound_to 10752
  153.1197  135.4745  154.9173 H   0  0  0  0  0  0  0  0  0  0  0  0  # atno 10764 bound_to 10752
  154.7637  135.3218  154.8281 H   0  0  0  0  0  0  0  0  0  0  0  0  # atno 10765 bound_to 10752
  140.5556  134.5384  157.5132 H   0  0  0  0  0  0  0  0  0  0  0  0  # atno 11005 bound_to 11000
  144.6760  140.2070  143.7381 LP  0  0  0  0  0  0  0  0  0  0  0  0  # atno 17320 bound_to 7965
  145.8473  139.2158  143.1793 LP  0  0  0  0  0  0  0  0  0  0  0  0  # atno 17321 bound_to 7965
  140.6789  143.8126  150.7095 LP  0  0  0  0  0  0  0  0  0  0  0  0  # atno 17342 bound_to 10162
  140.1573  143.4305  152.2090 LP  0  0  0  0  0  0  0  0  0  0  0  0  # atno 17343 bound_to 10162
  156.1207  130.3646  149.9891 LP  0  0  0  0  0  0  0  0  0  0  0  0  # atno 17370 bound_to 10713
  156.7972  130.9277  151.3646 LP  0  0  0  0  0  0  0  0  0  0  0  0  # atno 17371 bound_to 10713
  139.9433  134.7747  156.0624 LP  0  0  0  0  0  0  0  0  0  0  0  0  # atno 17394 bound_to 11000
  141.1145  133.6632  156.3060 LP  0  0  0  0  0  0  0  0  0  0  0  0  # atno 17395 bound_to 11000

$$$$
