AV-unprocessed.smi:1965|AV-procd|sdf|7942|dock4
  -GOLD-   2272010113D 1   1.00000     0.00000
 Structure written by MMmdl.
 36 38  0  0  0  0  0  0  0  0  3 V2000
  149.5854  138.2216  159.5153 O   0  0  0  0  0  0  0  0  0  0  0  0
  149.6635  137.1188  158.9754 C   0  0  0  0  0  0  0  0  0  0  0  0
  149.1730  135.9782  159.5265 N   0  5  0  0  0  0  0  0  0  0  0  0
  148.3730  135.9827  160.6088 C   0  0  0  0  0  0  0  0  0  0  0  0
  147.9554  137.1040  161.2079 N   0  0  0  0  0  0  0  0  0  0  0  0
  147.1301  136.8706  162.3094 C   0  0  0  0  0  0  0  0  0  0  0  0
  146.9165  135.5404  162.5561 C   0  0  0  0  0  0  0  0  0  0  0  0
  147.7530  134.5353  161.4077 S   0  0  0  0  0  0  0  0  0  0  0  0
  150.2638  137.0248  157.7744 N   0  0  0  0  0  0  0  0  0  0  0  0
  150.8801  138.1193  157.0360 C   0  0  2  0  0  0  0  0  0  0  0  0
  151.8892  138.9490  157.8534 C   0  0  0  0  0  0  0  0  0  0  0  0
  151.6765  140.4077  157.4017 C   0  0  0  0  0  0  0  0  0  0  0  0
  150.6628  140.3414  156.3311 N   0  3  2  0  0  0  0  0  0  0  0  0
  149.8543  141.5561  156.0889 C   0  0  0  0  0  0  0  0  0  0  0  0
  148.9104  141.3102  154.8939 C   0  0  0  0  0  0  0  0  0  0  0  0
  148.0646  140.0338  155.0831 C   0  0  0  0  0  0  0  0  0  0  0  0
  148.9555  138.8223  155.4198 C   0  0  0  0  0  0  0  0  0  0  0  0
  149.8405  139.1602  156.6300 C   0  0  1  0  0  0  0  0  0  0  0  0
  146.7391  137.7120  162.8620 H   0  0  0  0  0  0  0  0  0  0  0  0
  146.3248  135.0920  163.3400 H   0  0  0  0  0  0  0  0  0  0  0  0
  150.3035  136.1092  157.3507 H   0  0  0  0  0  0  0  0  0  0  0  0
  151.3695  137.7308  156.1404 H   0  0  0  0  0  0  0  0  0  0  0  0
  151.6986  138.8629  158.9244 H   0  0  0  0  0  0  0  0  0  0  0  0
  152.9107  138.6112  157.6745 H   0  0  0  0  0  0  0  0  0  0  0  0
  151.3057  141.0062  158.2353 H   0  0  0  0  0  0  0  0  0  0  0  0
  152.5946  140.8681  157.0356 H   0  0  0  0  0  0  0  0  0  0  0  0
  149.2816  141.8056  156.9836 H   0  0  0  0  0  0  0  0  0  0  0  0
  150.5138  142.3994  155.8812 H   0  0  0  0  0  0  0  0  0  0  0  0
  148.2588  142.1722  154.7485 H   0  0  0  0  0  0  0  0  0  0  0  0
  149.5019  141.2152  153.9822 H   0  0  0  0  0  0  0  0  0  0  0  0
  147.3467  140.1908  155.8894 H   0  0  0  0  0  0  0  0  0  0  0  0
  147.4803  139.8325  154.1846 H   0  0  0  0  0  0  0  0  0  0  0  0
  148.3384  137.9492  155.6348 H   0  0  0  0  0  0  0  0  0  0  0  0
  149.5750  138.5655  154.5594 H   0  0  0  0  0  0  0  0  0  0  0  0
  149.2067  139.3876  157.4908 H   0  0  0  0  0  0  0  0  0  0  0  0
  151.1599  140.1319  155.4774 H   0  0  0  0  0  0  0  0  0  0  0  0
  1  2  2  0  0  0  0
  2  3  1  0  0  0  0
  2  9  1  0  0  0  0
  3  4  1  0  0  0  0
  4  8  1  0  0  0  0
  4  5  2  0  0  0  0
  5  6  1  0  0  0  0
  6  7  2  0  0  0  0
  6 19  1  0  0  0  0
  7  8  1  0  0  0  0
  7 20  1  0  0  0  0
  9 10  1  0  0  0  0
  9 21  1  0  0  0  0
 10 18  1  0  0  0  0
 10 11  1  0  0  0  0
 10 22  1  0  0  0  0
 11 12  1  0  0  0  0
 11 23  1  0  0  0  0
 11 24  1  0  0  0  0
 12 13  1  0  0  0  0
 12 25  1  0  0  0  0
 12 26  1  0  0  0  0
 13 18  1  0  0  0  0
 13 14  1  0  0  0  0
 13 36  1  0  0  0  0
 14 15  1  0  0  0  0
 14 27  1  0  0  0  0
 14 28  1  0  0  0  0
 15 16  1  0  0  0  0
 15 29  1  0  0  0  0
 15 30  1  0  0  0  0
 16 17  1  0  0  0  0
 16 31  1  0  0  0  0
 16 32  1  0  0  0  0
 17 18  1  0  0  0  0
 17 33  1  0  0  0  0
 17 34  1  0  0  0  0
 18 35  1  0  0  0  0
M  CHG  1   3  -1
M  CHG  1  13   1
M  END
> <s_m_source_file>
AV-unprocessed.smi

> <i_m_source_file_index>
1965

> <i_lp_mmshare_version>
43012

> <i_f3d_flags>
0

> <s_epik_input>
czFbY0hdW2NIXW5jMVtOSF1DKD1PKVtOSF1bQ0BIXShbQ0gyXVtDSDJdMilbQ0BASF0oTjIzKVtDSDJdW0NIMl1bQ0gyXVtDSDJdMw==

> <s_epik_cmdline>
J2VwaWtfcHl0aG9uJywgJy1waCcsICc3LjAnLCAnLXRuJywgJzgnLCAnLW1hJywgJzIwMCcsICctbWV0YWxfYmluZGluZycsICctaW1hZScsICc8aW5maWxlLm1hZT4nLCAnLW9tYWUnLCAnPG91dGZpbGUubWFlPic=

> <r_lp_tautomer_probability>
1

> <r_epik_Ionization_Penalty>
7.4116

> <r_epik_Ionization_Penalty_Charging>
6.13869

> <r_epik_Ionization_Penalty_Neutral>
1.27291

> <r_epik_State_Penalty>
6.13761

> <r_epik_Charging_Adjusted_Penalty>
12.2763

> <i_epik_Tot_Q>
0

> <i_epik_Tot_abs_Q>
2

> <r_epik_Metal_State_Penalty>
2.08142

> <b_epik_Metal_Only>
1

> <s_lp_Force_Field>
OPLS_2005

> <r_lp_Energy>
26.2692

> <b_lp_Chiralities_Consistent>
1

> <s_lp_Variant>
AV-unprocessed.smi:1965-11

> <Gold.Version>
5.8.1

> <Gold.Id.Protein>
6NUR|6NUR_protein|mol2

> <Gold.PLP.Fitness>
36.4213

> <Gold.PLP.PLP>
-26.1716

> <Gold.PLP.part.hbond>
-4.8200

> <Gold.PLP.part.metal>
0.0000

> <Gold.PLP.part.buried>
-2.5412

> <Gold.PLP.part.nonpolar>
-19.6765

> <Gold.PLP.part.repulsive>
0.1437

> <Gold.PLP.ligand.clash>
0.0000

> <Gold.PLP.ligand.torsion>
0.0742

> <Gold.PLP.Chemscore.Hbond>
3.4624

> <Gold.PLP.Chemscore.CHOScore>
0.0000

> <Gold.PLP.Chemscore.Metal>
0.0000

> <Gold.Chemscore.Hbonds>
donor molecule, donor type, donor heavy atom, donor atom, acceptor molecule, acceptor atom, score
      P1  H  6896  6907       L1     3  2.00
      P1  H  6931  6943       L1     5  0.95
      P1  H  6934  6947       L1     5  0.39

> <Gold.PLP.Chemscore.Internal.Correction>
0.0110

> <Gold.Rescore>
     Score         DG    S(hbond)    S(metal)    S(lipo)     H(rot)  DE(clash)    DE(int)     intcor
     11.48     -14.74       1.51        0.00      58.01       1.00       0.13       3.12       ----

> <Gold.Chemscore.Fitness>
11.4771

> <Gold.Chemscore.DG>
-14.7361

> <Gold.Chemscore.ZeroCoef>
-5.4800

> <Gold.Chemscore.Hbond>
1.5055

> <Gold.Chemscore.Metal>
0.0000

> <Gold.Chemscore.Lipo>
58.0138

> <Gold.Chemscore.Internal_Hbond>
0.0000

> <Gold.Chemscore.DEClash>
0.1349

> <Gold.Chemscore.DEInternal>
3.1241

> <Gold.Chemscore.Rot>
1.0000

> <Gold.Chemscore.Internal.Correction>
   9.000000E+99

> <Gold.Chemscore.Hbonds>
donor molecule, donor type, donor heavy atom, donor atom, acceptor molecule, acceptor atom, score
      P1  H  6896  6907       L1     3  0.44
      P1  H  6931  6943       L1     5  0.21
      P1  H  6934  6947       L1     5  0.03

> <Gold.Chemscore.Hbond.Weighted>
-5.0285

> <Gold.Chemscore.Metal.Weighted>
-0.0000

> <Gold.Chemscore.Lipo.Weighted>
-6.7876

> <Gold.Chemscore.Internal_Hbond.Weighted>
0.0000

> <Gold.Chemscore.DEClash.Weighted>
0.1349

> <Gold.Chemscore.DEInternal.Weighted>
3.1241

> <Gold.Chemscore.Rot.Weighted>
2.5600

> <Gold.Chemscore.Internal.Correction.Weighted>
   9.000000E+99

> <Gold.Protein.RotatedTorsions>
[ 6907 6896 6895 6894 ] final  -58.11 input  -60.11 | X-H torsion
[ 7974 7965 7964 7962 ] final -147.28 input  175.53 | X-H torsion
[ 8008 7997 7996 7995 ] final   63.83 input   59.86 | X-H torsion
[ 10167 10162 10161 10158 ] final   29.14 input  -65.29 | X-H torsion
[ 10718 10713 10712 10709 ] final  -94.59 input   66.30 | X-H torsion
[ 10763 10752 10751 10750 ] final   -7.94 input  -60.55 | X-H torsion
[ 11005 11000 10999 10996 ] final   36.80 input  -57.11 | X-H torsion

> <Gold.Protein.ActiveResidues>
 VAL166  LYS551  ARG553  GLY616  TRP617  ASP618  TYR619  PRO620  LYS621  CYS622 
 ASP623  PHE694  ASN695  SER759  ASP760  ASP761  ALA762  ILE779  LEU786  VAL792 
 PHE793  MET794  SER795  GLU796  ALA797  LYS798  CYS799  TRP800  GLU811  SER814 

> <Gold.Protein.RotatedAtoms>
  150.8033  134.7141  159.6620 H   0  0  0  0  0  0  0  0  0  0  0  0  # atno 6907 bound_to 6896
  152.4151  134.6052  160.0020 H   0  0  0  0  0  0  0  0  0  0  0  0  # atno 6908 bound_to 6896
  151.6284  133.3297  159.3139 H   0  0  0  0  0  0  0  0  0  0  0  0  # atno 6909 bound_to 6896
  144.8104  140.5347  143.5646 H   0  0  0  0  0  0  0  0  0  0  0  0  # atno 7974 bound_to 7965
  155.6364  140.3496  155.4700 H   0  0  0  0  0  0  0  0  0  0  0  0  # atno 8008 bound_to 7997
  155.9962  140.1204  157.0615 H   0  0  0  0  0  0  0  0  0  0  0  0  # atno 8009 bound_to 7997
  154.4234  140.1109  156.5619 H   0  0  0  0  0  0  0  0  0  0  0  0  # atno 8010 bound_to 7997
  140.4792  144.0643  150.6260 H   0  0  0  0  0  0  0  0  0  0  0  0  # atno 10167 bound_to 10162
  156.0029  130.5074  150.5950 H   0  0  0  0  0  0  0  0  0  0  0  0  # atno 10718 bound_to 10713
  153.4335  135.7012  153.6215 H   0  0  0  0  0  0  0  0  0  0  0  0  # atno 10763 bound_to 10752
  153.4620  135.3734  155.2344 H   0  0  0  0  0  0  0  0  0  0  0  0  # atno 10764 bound_to 10752
  154.8726  135.4022  154.3722 H   0  0  0  0  0  0  0  0  0  0  0  0  # atno 10765 bound_to 10752
  140.2289  134.3551  155.7972 H   0  0  0  0  0  0  0  0  0  0  0  0  # atno 11005 bound_to 11000
  145.5338  139.1475  143.3485 LP  0  0  0  0  0  0  0  0  0  0  0  0  # atno 17320 bound_to 7965
  146.2401  140.5478  142.8937 LP  0  0  0  0  0  0  0  0  0  0  0  0  # atno 17321 bound_to 7965
  140.3880  143.2767  152.0093 LP  0  0  0  0  0  0  0  0  0  0  0  0  # atno 17342 bound_to 10162
  139.4830  144.6101  151.7450 LP  0  0  0  0  0  0  0  0  0  0  0  0  # atno 17343 bound_to 10162
  157.3808  131.0780  151.1478 LP  0  0  0  0  0  0  0  0  0  0  0  0  # atno 17370 bound_to 10713
  157.2201  130.6477  149.5808 LP  0  0  0  0  0  0  0  0  0  0  0  0  # atno 17371 bound_to 10713
  141.2219  133.7235  156.8700 LP  0  0  0  0  0  0  0  0  0  0  0  0  # atno 17394 bound_to 11000
  140.1771  134.9059  157.2903 LP  0  0  0  0  0  0  0  0  0  0  0  0  # atno 17395 bound_to 11000

$$$$
