AV-unprocessed.smi:2021|AV-procd|sdf|8178|dock1
  -GOLD-   2272010423D 1   1.00000     0.00000
 Structure written by MMmdl.
 42 43  0  0  0  0  0  0  0  0  2 V2000
  146.4045  131.7613  148.9005 C   0  0  0  0  0  0  0  0  0  0  0  0
  145.4259  132.1308  150.0280 C   0  0  0  0  0  0  0  0  0  0  0  0
  144.1938  132.8477  149.4554 C   0  0  0  0  0  0  0  0  0  0  0  0
  146.1002  132.9982  151.1123 C   0  0  0  0  0  0  0  0  0  0  0  0
  147.0650  132.2412  151.9504 N   0  3  2  0  0  0  0  0  0  0  0  0
  146.4600  131.0867  152.6594 C   0  0  0  0  0  0  0  0  0  0  0  0
  147.5267  130.3428  153.4786 C   0  0  0  0  0  0  0  0  0  0  0  0
  148.1475  131.2488  154.3801 O   0  0  0  0  0  0  0  0  0  0  0  0
  148.8264  132.3048  153.7079 C   0  0  2  0  0  0  0  0  0  0  0  0
  149.5496  133.1794  154.7476 C   0  0  0  0  0  0  0  0  0  0  0  0
  149.6424  134.5708  154.3168 N   0  0  0  0  0  0  0  0  0  0  0  0
  150.2795  135.5423  154.9864 C   0  0  0  0  0  0  0  0  0  0  0  0
  150.8642  135.3575  156.0541 O   0  0  0  0  0  0  0  0  0  0  0  0
  150.1932  136.7181  154.3399 N   0  0  0  0  0  0  0  0  0  0  0  0
  150.7317  137.9747  154.7246 C   0  0  0  0  0  0  0  0  0  0  0  0
  150.2154  139.1541  154.3444 N   0  0  0  0  0  0  0  0  0  0  0  0
  150.9341  140.2257  154.8583 N   0  0  0  0  0  0  0  0  0  0  0  0
  151.9623  139.8133  155.6051 C   0  0  0  0  0  0  0  0  0  0  0  0
  152.1518  138.0749  155.7558 S   0  0  0  0  0  0  0  0  0  0  0  0
  147.7884  133.1140  152.9058 C   0  0  0  0  0  0  0  0  0  0  0  0
  146.8035  132.6524  148.4148 H   0  0  0  0  0  0  0  0  0  0  0  0
  145.9134  131.1587  148.1358 H   0  0  0  0  0  0  0  0  0  0  0  0
  147.2473  131.1812  149.2769 H   0  0  0  0  0  0  0  0  0  0  0  0
  145.0687  131.2054  150.4791 H   0  0  0  0  0  0  0  0  0  0  0  0
  144.4679  133.7888  148.9775 H   0  0  0  0  0  0  0  0  0  0  0  0
  143.4692  133.0714  150.2389 H   0  0  0  0  0  0  0  0  0  0  0  0
  143.6895  132.2313  148.7105 H   0  0  0  0  0  0  0  0  0  0  0  0
  146.6196  133.8195  150.6159 H   0  0  0  0  0  0  0  0  0  0  0  0
  145.3510  133.4606  151.7570 H   0  0  0  0  0  0  0  0  0  0  0  0
  145.6644  131.4367  153.3188 H   0  0  0  0  0  0  0  0  0  0  0  0
  146.0067  130.3952  151.9502 H   0  0  0  0  0  0  0  0  0  0  0  0
  147.0677  129.5359  154.0500 H   0  0  0  0  0  0  0  0  0  0  0  0
  148.2740  129.8869  152.8272 H   0  0  0  0  0  0  0  0  0  0  0  0
  149.5670  131.8843  153.0248 H   0  0  0  0  0  0  0  0  0  0  0  0
  148.9943  133.1662  155.6857 H   0  0  0  0  0  0  0  0  0  0  0  0
  150.5383  132.7747  154.9720 H   0  0  0  0  0  0  0  0  0  0  0  0
  149.1874  134.8103  153.4479 H   0  0  0  0  0  0  0  0  0  0  0  0
  149.6781  136.7169  153.4720 H   0  0  0  0  0  0  0  0  0  0  0  0
  152.6132  140.5380  156.0709 H   0  0  0  0  0  0  0  0  0  0  0  0
  148.2907  133.9148  152.3614 H   0  0  0  0  0  0  0  0  0  0  0  0
  147.0723  133.5854  153.5816 H   0  0  0  0  0  0  0  0  0  0  0  0
  147.7637  131.8708  151.3219 H   0  0  0  0  0  0  0  0  0  0  0  0
  1  2  1  0  0  0  0
  1 21  1  0  0  0  0
  1 22  1  0  0  0  0
  1 23  1  0  0  0  0
  2  3  1  0  0  0  0
  2  4  1  0  0  0  0
  2 24  1  0  0  0  0
  3 25  1  0  0  0  0
  3 26  1  0  0  0  0
  3 27  1  0  0  0  0
  4  5  1  0  0  0  0
  4 28  1  0  0  0  0
  4 29  1  0  0  0  0
  5 20  1  0  0  0  0
  5  6  1  0  0  0  0
  5 42  1  0  0  0  0
  6  7  1  0  0  0  0
  6 30  1  0  0  0  0
  6 31  1  0  0  0  0
  7  8  1  0  0  0  0
  7 32  1  0  0  0  0
  7 33  1  0  0  0  0
  8  9  1  0  0  0  0
  9 10  1  0  0  0  0
  9 20  1  0  0  0  0
  9 34  1  0  0  0  0
 10 11  1  0  0  0  0
 10 35  1  0  0  0  0
 10 36  1  0  0  0  0
 11 12  1  0  0  0  0
 11 37  1  0  0  0  0
 12 13  2  0  0  0  0
 12 14  1  0  0  0  0
 14 15  1  0  0  0  0
 14 38  1  0  0  0  0
 15 19  1  0  0  0  0
 15 16  2  0  0  0  0
 16 17  1  0  0  0  0
 17 18  2  0  0  0  0
 18 19  1  0  0  0  0
 18 39  1  0  0  0  0
 20 40  1  0  0  0  0
 20 41  1  0  0  0  0
M  CHG  1   5   1
M  END
> <s_m_source_file>
AV-unprocessed.smi

> <i_m_source_file_index>
2021

> <i_lp_mmshare_version>
43012

> <i_f3d_flags>
0

> <s_epik_input>
W0NIM11bQ0hdKFtDSDNdKVtDSDJdTjFbQ0gyXVtDSDJdT1tDQEhdKFtDSDJdMSlbQ0gyXVtOSF1DKD1PKVtOSF1jMm5uW2NIXXMy

> <s_epik_cmdline>
J2VwaWtfcHl0aG9uJywgJy1waCcsICc3LjAnLCAnLXRuJywgJzgnLCAnLW1hJywgJzIwMCcsICctbWV0YWxfYmluZGluZycsICctaW1hZScsICc8aW5maWxlLm1hZT4nLCAnLW9tYWUnLCAnPG91dGZpbGUubWFlPic=

> <r_lp_tautomer_probability>
1

> <r_epik_Ionization_Penalty>
0.102019

> <r_epik_Ionization_Penalty_Charging>
0.098413

> <r_epik_Ionization_Penalty_Neutral>
0.00360555

> <r_epik_State_Penalty>
0.0884988

> <r_epik_Charging_Adjusted_Penalty>
0.186912

> <i_epik_Tot_Q>
1

> <i_epik_Tot_abs_Q>
1

> <r_epik_Metal_State_Penalty>
0.454709

> <b_epik_Metal_Only>
0

> <s_lp_Force_Field>
OPLS_2005

> <r_lp_Energy>
16.3226

> <b_lp_Chiralities_Consistent>
1

> <s_lp_Variant>
AV-unprocessed.smi:2021-4

> <Gold.Version>
5.8.1

> <Gold.Id.Protein>
6NUR|6NUR_protein|mol2

> <Gold.PLP.Fitness>
49.3652

> <Gold.PLP.PLP>
-39.9121

> <Gold.PLP.part.hbond>
-5.7434

> <Gold.PLP.part.metal>
0.0000

> <Gold.PLP.part.buried>
-3.8093

> <Gold.PLP.part.nonpolar>
-30.6987

> <Gold.PLP.part.repulsive>
0.4439

> <Gold.PLP.ligand.clash>
0.0810

> <Gold.PLP.ligand.torsion>
0.6298

> <Gold.PLP.Chemscore.Hbond>
3.5171

> <Gold.PLP.Chemscore.CHOScore>
0.0000

> <Gold.PLP.Chemscore.Metal>
0.0000

> <Gold.Chemscore.Hbonds>
donor molecule, donor type, donor heavy atom, donor atom, acceptor molecule, acceptor atom, score
      L1  H     5    42       P1 10747  1.00
      L1  H    11    37       P1  7948  0.59
      L1  H    14    38       P1  7948  1.00
      P1  H  7989  7998       L1    17  1.00

> <Gold.PLP.Chemscore.Internal.Correction>
0.2422

> <Gold.Rescore>
     Score         DG    S(hbond)    S(metal)    S(lipo)     H(rot)  DE(clash)    DE(int)     intcor
     15.21     -17.03       1.95        0.00      84.08       1.88       0.01       1.80       ----

> <Gold.Chemscore.Fitness>
15.2126

> <Gold.Chemscore.DG>
-17.0305

> <Gold.Chemscore.ZeroCoef>
-5.4800

> <Gold.Chemscore.Hbond>
1.9548

> <Gold.Chemscore.Metal>
0.0000

> <Gold.Chemscore.Lipo>
84.0803

> <Gold.Chemscore.Internal_Hbond>
0.0000

> <Gold.Chemscore.DEClash>
0.0149

> <Gold.Chemscore.DEInternal>
1.8031

> <Gold.Chemscore.Rot>
1.8812

> <Gold.Chemscore.Internal.Correction>
   9.000000E+99

> <Gold.Chemscore.Hbonds>
donor molecule, donor type, donor heavy atom, donor atom, acceptor molecule, acceptor atom, score
      L1  H     5    42       P1 10747  1.00
      L1  H    11    37       P1  7948  0.07
      L1  H    14    38       P1  7948  0.55
      P1  H  7989  7998       L1    17  0.20

> <Gold.Chemscore.Hbond.Weighted>
-6.5290

> <Gold.Chemscore.Metal.Weighted>
-0.0000

> <Gold.Chemscore.Lipo.Weighted>
-9.8374

> <Gold.Chemscore.Internal_Hbond.Weighted>
0.0000

> <Gold.Chemscore.DEClash.Weighted>
0.0149

> <Gold.Chemscore.DEInternal.Weighted>
1.8031

> <Gold.Chemscore.Rot.Weighted>
4.8159

> <Gold.Chemscore.Internal.Correction.Weighted>
   9.000000E+99

> <Gold.Protein.RotatedTorsions>
[ 6907 6896 6895 6894 ] final  -87.17 input  -60.11 | X-H torsion
[ 7974 7965 7964 7962 ] final  112.28 input  175.53 | X-H torsion
[ 8008 7997 7996 7995 ] final  -66.60 input   59.86 | X-H torsion
[ 10167 10162 10161 10158 ] final   57.33 input  -65.29 | X-H torsion
[ 10718 10713 10712 10709 ] final  115.10 input   66.30 | X-H torsion
[ 10763 10752 10751 10750 ] final  -74.14 input  -60.55 | X-H torsion
[ 11005 11000 10999 10996 ] final   46.08 input  -57.11 | X-H torsion

> <Gold.Protein.ActiveResidues>
 VAL166  LYS551  ARG553  GLY616  TRP617  ASP618  TYR619  PRO620  LYS621  CYS622 
 ASP623  PHE694  ASN695  SER759  ASP760  ASP761  ALA762  ILE779  LEU786  VAL792 
 PHE793  MET794  SER795  GLU796  ALA797  LYS798  CYS799  TRP800  GLU811  SER814 

> <Gold.Protein.RotatedAtoms>
  150.6866  134.2938  159.4677 H   0  0  0  0  0  0  0  0  0  0  0  0  # atno 6907 bound_to 6896
  152.0840  134.9449  160.0582 H   0  0  0  0  0  0  0  0  0  0  0  0  # atno 6908 bound_to 6896
  152.0791  133.4109  159.4530 H   0  0  0  0  0  0  0  0  0  0  0  0  # atno 6909 bound_to 6896
  145.2315  139.2817  143.4165 H   0  0  0  0  0  0  0  0  0  0  0  0  # atno 7974 bound_to 7965
  154.4745  140.0909  156.7227 H   0  0  0  0  0  0  0  0  0  0  0  0  # atno 8008 bound_to 7997
  155.4634  140.3462  155.4297 H   0  0  0  0  0  0  0  0  0  0  0  0  # atno 8009 bound_to 7997
  156.1093  140.1443  156.9348 H   0  0  0  0  0  0  0  0  0  0  0  0  # atno 8010 bound_to 7997
  140.1991  144.4006  150.6537 H   0  0  0  0  0  0  0  0  0  0  0  0  # atno 10167 bound_to 10162
  157.6242  131.1008  150.7282 H   0  0  0  0  0  0  0  0  0  0  0  0  # atno 10718 bound_to 10713
  154.4690  135.5874  153.6308 H   0  0  0  0  0  0  0  0  0  0  0  0  # atno 10763 bound_to 10752
  152.9832  135.6062  154.3391 H   0  0  0  0  0  0  0  0  0  0  0  0  # atno 10764 bound_to 10752
  154.3270  135.2843  155.2470 H   0  0  0  0  0  0  0  0  0  0  0  0  # atno 10765 bound_to 10752
  140.1402  134.4593  155.8456 H   0  0  0  0  0  0  0  0  0  0  0  0  # atno 11005 bound_to 11000
  146.3351  140.2652  142.8603 LP  0  0  0  0  0  0  0  0  0  0  0  0  # atno 17320 bound_to 7965
  144.9672  140.8333  143.5477 LP  0  0  0  0  0  0  0  0  0  0  0  0  # atno 17321 bound_to 7965
  140.6403  143.2202  151.6306 LP  0  0  0  0  0  0  0  0  0  0  0  0  # atno 17342 bound_to 10162
  139.5224  144.3163  152.0949 LP  0  0  0  0  0  0  0  0  0  0  0  0  # atno 17343 bound_to 10162
  156.7633  130.4805  149.5432 LP  0  0  0  0  0  0  0  0  0  0  0  0  # atno 17370 bound_to 10713
  156.1404  130.6240  151.0459 LP  0  0  0  0  0  0  0  0  0  0  0  0  # atno 17371 bound_to 10713
  141.2184  133.6830  156.7232 LP  0  0  0  0  0  0  0  0  0  0  0  0  # atno 17394 bound_to 11000
  140.2732  134.8375  157.3866 LP  0  0  0  0  0  0  0  0  0  0  0  0  # atno 17395 bound_to 11000

$$$$
