AV-unprocessed.smi:1586|AV-procd|sdf|6381|dock4
  -GOLD-   22720 7 13D 1   1.00000     0.00000
 Structure written by MMmdl.
 46 47  0  0  0  0  0  0  0  0  3 V2000
  143.8874  132.3443  150.2549 C   0  0  0  0  0  0  0  0  0  0  0  0
  144.1838  133.3737  151.3553 C   0  0  0  0  0  0  0  0  0  0  0  0
  145.2801  134.2723  150.9855 N   0  0  0  0  0  0  0  0  0  0  0  0
  145.5234  135.3762  151.9212 C   0  0  0  0  0  0  0  0  0  0  0  0
  146.1108  134.8862  153.2606 C   0  0  0  0  0  0  0  0  0  0  0  0
  147.3827  134.1464  153.0249 N   0  3  0  0  0  0  0  0  0  0  0  0
  148.1638  133.7499  154.2374 C   0  0  2  0  0  0  0  0  0  0  0  0
  147.4479  132.6741  155.0926 C   0  0  0  0  0  0  0  0  0  0  0  0
  148.6067  135.0068  155.0369 C   0  0  0  0  0  0  0  0  0  0  0  0
  149.4091  134.6350  156.2037 N   0  5  0  0  0  0  0  0  0  0  0  0
  148.9665  134.6631  157.4916 C   0  0  0  0  0  0  0  0  0  0  0  0
  148.9840  133.7363  158.3106 O   0  0  0  0  0  0  0  0  0  0  0  0
  148.4626  135.8629  157.8330 N   0  0  0  0  0  0  0  0  0  0  0  0
  147.9080  136.2732  159.0742 C   0  0  0  0  0  0  0  0  0  0  0  0
  147.5949  135.3190  160.0788 C   0  0  0  0  0  0  0  0  0  0  0  0
  147.0968  136.0889  161.0919 C   0  0  0  0  0  0  0  0  0  0  0  0
  146.5734  135.7649  162.4490 C   0  0  0  0  0  0  0  0  0  0  0  0
  147.1068  137.4023  160.7380 O   0  0  0  0  0  0  0  0  0  0  0  0
  147.6273  137.5141  159.4435 N   0  0  0  0  0  0  0  0  0  0  0  0
  147.1492  133.0269  152.0787 C   0  0  0  0  0  0  0  0  0  0  0  0
  146.5369  133.5532  150.7634 C   0  0  0  0  0  0  0  0  0  0  0  0
  143.1664  131.6070  150.6085 H   0  0  0  0  0  0  0  0  0  0  0  0
  144.7899  131.8069  149.9616 H   0  0  0  0  0  0  0  0  0  0  0  0
  143.4618  132.8069  149.3647 H   0  0  0  0  0  0  0  0  0  0  0  0
  143.2789  133.9236  151.6113 H   0  0  0  0  0  0  0  0  0  0  0  0
  144.4762  132.8281  152.2534 H   0  0  0  0  0  0  0  0  0  0  0  0
  146.2217  136.0733  151.4558 H   0  0  0  0  0  0  0  0  0  0  0  0
  144.6087  135.9424  152.0921 H   0  0  0  0  0  0  0  0  0  0  0  0
  146.2924  135.7502  153.9001 H   0  0  0  0  0  0  0  0  0  0  0  0
  145.3886  134.2608  153.7850 H   0  0  0  0  0  0  0  0  0  0  0  0
  149.0827  133.2909  153.8691 H   0  0  0  0  0  0  0  0  0  0  0  0
  148.0972  132.2843  155.8786 H   0  0  0  0  0  0  0  0  0  0  0  0
  147.1592  131.8199  154.4801 H   0  0  0  0  0  0  0  0  0  0  0  0
  146.5450  133.0503  155.5766 H   0  0  0  0  0  0  0  0  0  0  0  0
  149.1583  135.6721  154.3707 H   0  0  0  0  0  0  0  0  0  0  0  0
  147.7210  135.5714  155.3284 H   0  0  0  0  0  0  0  0  0  0  0  0
  148.4838  136.5675  157.1110 H   0  0  0  0  0  0  0  0  0  0  0  0
  147.7147  134.2461  160.0604 H   0  0  0  0  0  0  0  0  0  0  0  0
  146.3572  134.7003  162.5391 H   0  0  0  0  0  0  0  0  0  0  0  0
  145.6538  136.3142  162.6515 H   0  0  0  0  0  0  0  0  0  0  0  0
  147.3019  136.0288  163.2157 H   0  0  0  0  0  0  0  0  0  0  0  0
  148.0963  132.5386  151.8470 H   0  0  0  0  0  0  0  0  0  0  0  0
  146.5125  132.2702  152.5380 H   0  0  0  0  0  0  0  0  0  0  0  0
  146.3743  132.7315  150.0651 H   0  0  0  0  0  0  0  0  0  0  0  0
  147.2431  134.2291  150.2792 H   0  0  0  0  0  0  0  0  0  0  0  0
  147.9891  134.7846  152.5297 H   0  0  0  0  0  0  0  0  0  0  0  0
  1  2  1  0  0  0  0
  1 22  1  0  0  0  0
  1 23  1  0  0  0  0
  1 24  1  0  0  0  0
  2  3  1  0  0  0  0
  2 25  1  0  0  0  0
  2 26  1  0  0  0  0
  3 21  1  0  0  0  0
  3  4  1  0  0  0  0
  4  5  1  0  0  0  0
  4 27  1  0  0  0  0
  4 28  1  0  0  0  0
  5  6  1  0  0  0  0
  5 29  1  0  0  0  0
  5 30  1  0  0  0  0
  6  7  1  0  0  0  0
  6 20  1  0  0  0  0
  6 46  1  0  0  0  0
  7  8  1  0  0  0  0
  7  9  1  0  0  0  0
  7 31  1  0  0  0  0
  8 32  1  0  0  0  0
  8 33  1  0  0  0  0
  8 34  1  0  0  0  0
  9 10  1  0  0  0  0
  9 35  1  0  0  0  0
  9 36  1  0  0  0  0
 10 11  1  0  0  0  0
 11 12  2  0  0  0  0
 11 13  1  0  0  0  0
 13 14  1  0  0  0  0
 13 37  1  0  0  0  0
 14 19  2  0  0  0  0
 14 15  1  0  0  0  0
 15 16  2  0  0  0  0
 15 38  1  0  0  0  0
 16 17  1  0  0  0  0
 16 18  1  0  0  0  0
 17 39  1  0  0  0  0
 17 40  1  0  0  0  0
 17 41  1  0  0  0  0
 18 19  1  0  0  0  0
 20 21  1  0  0  0  0
 20 42  1  0  0  0  0
 20 43  1  0  0  0  0
 21 44  1  0  0  0  0
 21 45  1  0  0  0  0
M  CHG  1   6   1
M  CHG  1  10  -1
M  END
> <s_m_source_file>
AV-unprocessed.smi

> <i_m_source_file_index>
1586

> <i_lp_mmshare_version>
43012

> <i_f3d_flags>
0

> <s_epik_input>
W0NIM11bQ0gyXU4xW0NIMl1bQ0gyXU4oW0NIMl1bQ0gyXTEpW0NASF0oW0NIM10pW0NIMl1bTkhdQyg9TylbTkhdYzJbY0hdYyhbQ0gzXSlvbjI=

> <s_epik_cmdline>
J2VwaWtfcHl0aG9uJywgJy1waCcsICc3LjAnLCAnLXRuJywgJzgnLCAnLW1hJywgJzIwMCcsICctbWV0YWxfYmluZGluZycsICctaW1hZScsICc8aW5maWxlLm1hZT4nLCAnLW9tYWUnLCAnPG91dGZpbGUubWFlPic=

> <r_epik_Ionization_Penalty>
6.72969

> <r_epik_Ionization_Penalty_Charging>
6.72741

> <r_epik_Ionization_Penalty_Neutral>
0.00227419

> <r_epik_State_Penalty>
7.72748

> <r_epik_Charging_Adjusted_Penalty>
14.4549

> <i_epik_Tot_Q>
0

> <i_epik_Tot_abs_Q>
2

> <r_epik_Metal_State_Penalty>
3.65268

> <b_epik_Metal_Only>
1

> <s_lp_Force_Field>
OPLS_2005

> <r_lp_Energy>
18.0395

> <b_lp_Chiralities_Consistent>
1

> <s_lp_Variant>
AV-unprocessed.smi:1586-9

> <Gold.Version>
5.8.1

> <Gold.Id.Protein>
6NUR|6NUR_protein|mol2

> <Gold.PLP.Fitness>
44.8151

> <Gold.PLP.PLP>
-32.3724

> <Gold.PLP.part.hbond>
-4.5298

> <Gold.PLP.part.metal>
0.0000

> <Gold.PLP.part.buried>
-5.1128

> <Gold.PLP.part.nonpolar>
-23.6416

> <Gold.PLP.part.repulsive>
0.2414

> <Gold.PLP.ligand.clash>
0.0099

> <Gold.PLP.ligand.torsion>
0.6873

> <Gold.PLP.Chemscore.Hbond>
4.5232

> <Gold.PLP.Chemscore.CHOScore>
0.0000

> <Gold.PLP.Chemscore.Metal>
0.0000

> <Gold.Chemscore.Hbonds>
donor molecule, donor type, donor heavy atom, donor atom, acceptor molecule, acceptor atom, score
      L1  H     6    46       P1  7948  2.00
      P1  H  6896  6909       L1    12  0.91
      P1  H  6931  6943       L1    18  0.05
      P1  H  6934  6947       L1    18  0.55

> <Gold.PLP.Chemscore.Internal.Correction>
0.2576

> <Gold.Rescore>
     Score         DG    S(hbond)    S(metal)    S(lipo)     H(rot)  DE(clash)    DE(int)     intcor
     16.06     -18.47       2.80        0.00      68.92       1.73       0.06       2.34       ----

> <Gold.Chemscore.Fitness>
16.0620

> <Gold.Chemscore.DG>
-18.4664

> <Gold.Chemscore.ZeroCoef>
-5.4800

> <Gold.Chemscore.Hbond>
2.7960

> <Gold.Chemscore.Metal>
0.0000

> <Gold.Chemscore.Lipo>
68.9215

> <Gold.Chemscore.Internal_Hbond>
0.0000

> <Gold.Chemscore.DEClash>
0.0637

> <Gold.Chemscore.DEInternal>
2.3408

> <Gold.Chemscore.Rot>
1.7250

> <Gold.Chemscore.Internal.Correction>
   9.000000E+99

> <Gold.Chemscore.Hbonds>
donor molecule, donor type, donor heavy atom, donor atom, acceptor molecule, acceptor atom, score
      L1  H     6    46       P1  7948  0.70
      P1  H  6896  6909       L1    12  0.59
      P1  H  6934  6947       L1    18  0.03

> <Gold.Chemscore.Hbond.Weighted>
-9.3387

> <Gold.Chemscore.Metal.Weighted>
-0.0000

> <Gold.Chemscore.Lipo.Weighted>
-8.0638

> <Gold.Chemscore.Internal_Hbond.Weighted>
0.0000

> <Gold.Chemscore.DEClash.Weighted>
0.0637

> <Gold.Chemscore.DEInternal.Weighted>
2.3408

> <Gold.Chemscore.Rot.Weighted>
4.4161

> <Gold.Chemscore.Internal.Correction.Weighted>
   9.000000E+99

> <Gold.Protein.RotatedTorsions>
[ 6907 6896 6895 6894 ] final   -5.00 input  -60.11 | X-H torsion
[ 7974 7965 7964 7962 ] final   24.80 input  175.53 | X-H torsion
[ 8008 7997 7996 7995 ] final   29.46 input   59.86 | X-H torsion
[ 10167 10162 10161 10158 ] final  110.01 input  -65.29 | X-H torsion
[ 10718 10713 10712 10709 ] final   95.98 input   66.30 | X-H torsion
[ 10763 10752 10751 10750 ] final -168.11 input  -60.55 | X-H torsion
[ 11005 11000 10999 10996 ] final   72.03 input  -57.11 | X-H torsion

> <Gold.Protein.ActiveResidues>
 VAL166  LYS551  ARG553  GLY616  TRP617  ASP618  TYR619  PRO620  LYS621  CYS622 
 ASP623  PHE694  ASN695  SER759  ASP760  ASP761  ALA762  ILE779  LEU786  VAL792 
 PHE793  MET794  SER795  GLU796  ALA797  LYS798  CYS799  TRP800  GLU811  SER814 

> <Gold.Protein.RotatedAtoms>
  151.4887  135.1056  159.9797 H   0  0  0  0  0  0  0  0  0  0  0  0  # atno 6907 bound_to 6896
  152.4750  133.8113  159.7015 H   0  0  0  0  0  0  0  0  0  0  0  0  # atno 6908 bound_to 6896
  150.8782  133.7347  159.2966 H   0  0  0  0  0  0  0  0  0  0  0  0  # atno 6909 bound_to 6896
  146.1920  139.7555  142.8825 H   0  0  0  0  0  0  0  0  0  0  0  0  # atno 7974 bound_to 7965
  155.0748  140.3204  155.4619 H   0  0  0  0  0  0  0  0  0  0  0  0  # atno 8008 bound_to 7997
  156.2782  140.2105  156.5821 H   0  0  0  0  0  0  0  0  0  0  0  0  # atno 8009 bound_to 7997
  154.7026  140.0505  157.0460 H   0  0  0  0  0  0  0  0  0  0  0  0  # atno 8010 bound_to 7997
  139.6722  144.7124  151.1667 H   0  0  0  0  0  0  0  0  0  0  0  0  # atno 10167 bound_to 10162
  157.6932  131.0563  150.4422 H   0  0  0  0  0  0  0  0  0  0  0  0  # atno 10718 bound_to 10713
  154.6662  135.2932  154.9802 H   0  0  0  0  0  0  0  0  0  0  0  0  # atno 10763 bound_to 10752
  154.0845  135.6600  153.4847 H   0  0  0  0  0  0  0  0  0  0  0  0  # atno 10764 bound_to 10752
  153.0459  135.5205  154.7636 H   0  0  0  0  0  0  0  0  0  0  0  0  # atno 10765 bound_to 10752
  139.9512  134.7224  156.0859 H   0  0  0  0  0  0  0  0  0  0  0  0  # atno 11005 bound_to 11000
  145.3762  141.0351  143.3203 LP  0  0  0  0  0  0  0  0  0  0  0  0  # atno 17320 bound_to 7965
  144.8505  139.5329  143.6858 LP  0  0  0  0  0  0  0  0  0  0  0  0  # atno 17321 bound_to 7965
  140.7622  143.5827  150.8878 LP  0  0  0  0  0  0  0  0  0  0  0  0  # atno 17342 bound_to 10162
  139.9493  143.6291  152.3033 LP  0  0  0  0  0  0  0  0  0  0  0  0  # atno 17343 bound_to 10162
  156.4779  130.4067  149.6479 LP  0  0  0  0  0  0  0  0  0  0  0  0  # atno 17370 bound_to 10713
  156.3535  130.7444  151.2407 LP  0  0  0  0  0  0  0  0  0  0  0  0  # atno 17371 bound_to 10713
  141.1175  133.6623  156.3130 LP  0  0  0  0  0  0  0  0  0  0  0  0  # atno 17394 bound_to 11000
  140.5715  134.5835  157.5458 LP  0  0  0  0  0  0  0  0  0  0  0  0  # atno 17395 bound_to 11000

$$$$
