AV-unprocessed.smi:2810|AV-procd|sdf|10827|dock3
  -GOLD-   2272015263D 1   1.00000     0.00000
 Structure written by MMmdl.
 39 40  0  0  0  0  0  0  0  0  1 V2000
  154.1917  137.9988  161.0737 C   0  0  0  0  0  0  0  0  0  0  0  0
  153.5670  139.0990  160.2424 C   0  0  0  0  0  0  0  0  0  0  0  0
  152.8643  138.8150  159.0534 C   0  0  0  0  0  0  0  0  0  0  0  0
  152.3325  139.9237  158.3507 C   0  0  0  0  0  0  0  0  0  0  0  0
  151.6060  139.7961  157.1494 N   0  0  0  0  0  0  0  0  0  0  0  0
  152.2677  138.8898  156.2134 C   0  0  0  0  0  0  0  0  0  0  0  0
  151.3557  138.5834  155.0168 C   0  0  0  0  0  0  0  0  0  0  0  0
  150.9600  139.8042  154.4060 O   0  0  0  0  0  0  0  0  0  0  0  0
  150.2004  140.6110  155.2980 C   0  0  0  0  0  0  0  0  0  0  0  0
  151.0495  141.0075  156.5287 C   0  0  1  0  0  0  0  0  0  0  0  0
  150.1732  141.8682  157.4576 C   0  0  0  0  0  0  0  0  0  0  0  0
  149.7327  143.0302  156.9693 N   0  0  0  0  0  0  0  0  0  0  0  0
  149.8887  141.4866  158.5915 O   0  0  0  0  0  0  0  0  0  0  0  0
  152.4880  141.1805  158.8260 N   0  0  0  0  0  0  0  0  0  0  0  0
  153.1725  141.3361  159.9642 C   0  0  0  0  0  0  0  0  0  0  0  0
  153.3451  142.7600  160.4761 C   0  0  0  0  0  0  0  0  0  0  0  0
  152.8514  142.9144  161.9229 C   0  0  0  0  0  0  0  0  0  0  0  0
  152.7318  143.7930  159.5182 C   0  0  0  0  0  0  0  0  0  0  0  0
  153.7206  140.3612  160.6957 N   0  0  0  0  0  0  0  0  0  0  0  0
  153.8796  137.0149  160.7226 H   0  0  0  0  0  0  0  0  0  0  0  0
  153.8979  138.0955  162.1192 H   0  0  0  0  0  0  0  0  0  0  0  0
  155.2789  138.0538  161.0144 H   0  0  0  0  0  0  0  0  0  0  0  0
  152.7460  137.7990  158.7087 H   0  0  0  0  0  0  0  0  0  0  0  0
  153.1950  139.3484  155.8659 H   0  0  0  0  0  0  0  0  0  0  0  0
  152.5402  137.9532  156.7021 H   0  0  0  0  0  0  0  0  0  0  0  0
  151.8874  137.9758  154.2844 H   0  0  0  0  0  0  0  0  0  0  0  0
  150.4789  138.0132  155.3283 H   0  0  0  0  0  0  0  0  0  0  0  0
  149.8747  141.5008  154.7575 H   0  0  0  0  0  0  0  0  0  0  0  0
  149.2961  140.0756  155.5950 H   0  0  0  0  0  0  0  0  0  0  0  0
  151.8842  141.6135  156.1724 H   0  0  0  0  0  0  0  0  0  0  0  0
  149.1529  143.6298  157.5380 H   0  0  0  0  0  0  0  0  0  0  0  0
  149.9805  143.3037  156.0295 H   0  0  0  0  0  0  0  0  0  0  0  0
  154.4168  142.9656  160.4978 H   0  0  0  0  0  0  0  0  0  0  0  0
  153.3617  142.2158  162.5864 H   0  0  0  0  0  0  0  0  0  0  0  0
  151.7801  142.7265  162.0011 H   0  0  0  0  0  0  0  0  0  0  0  0
  153.0389  143.9215  162.2954 H   0  0  0  0  0  0  0  0  0  0  0  0
  153.1601  143.7029  158.5193 H   0  0  0  0  0  0  0  0  0  0  0  0
  152.9167  144.8094  159.8665 H   0  0  0  0  0  0  0  0  0  0  0  0
  151.6525  143.6643  159.4310 H   0  0  0  0  0  0  0  0  0  0  0  0
  1  2  1  0  0  0  0
  1 20  1  0  0  0  0
  1 21  1  0  0  0  0
  1 22  1  0  0  0  0
  2 19  1  0  0  0  0
  2  3  2  0  0  0  0
  3  4  1  0  0  0  0
  3 23  1  0  0  0  0
  4  5  1  0  0  0  0
  4 14  2  0  0  0  0
  5 10  1  0  0  0  0
  5  6  1  0  0  0  0
  6  7  1  0  0  0  0
  6 24  1  0  0  0  0
  6 25  1  0  0  0  0
  7  8  1  0  0  0  0
  7 26  1  0  0  0  0
  7 27  1  0  0  0  0
  8  9  1  0  0  0  0
  9 10  1  0  0  0  0
  9 28  1  0  0  0  0
  9 29  1  0  0  0  0
 10 11  1  0  0  0  0
 10 30  1  0  0  0  0
 11 12  1  0  0  0  0
 11 13  2  0  0  0  0
 12 31  1  0  0  0  0
 12 32  1  0  0  0  0
 14 15  1  0  0  0  0
 15 16  1  0  0  0  0
 15 19  2  0  0  0  0
 16 17  1  0  0  0  0
 16 18  1  0  0  0  0
 16 33  1  0  0  0  0
 17 34  1  0  0  0  0
 17 35  1  0  0  0  0
 17 36  1  0  0  0  0
 18 37  1  0  0  0  0
 18 38  1  0  0  0  0
 18 39  1  0  0  0  0
M  END
> <s_m_source_file>
AV-unprocessed.smi

> <i_m_source_file_index>
2810

> <i_lp_mmshare_version>
43012

> <i_f3d_flags>
0

> <s_epik_input>
W0NIM11bQ0hdKFtDSDNdKWMobjEpbmMoW2NIXWMxW0NIM10pTjJbQ0gyXVtDSDJdT1tDSDJdW0NASF0yQyg9TylbTkgyXQ==

> <s_epik_cmdline>
J2VwaWtfcHl0aG9uJywgJy1waCcsICc3LjAnLCAnLXRuJywgJzgnLCAnLW1hJywgJzIwMCcsICctbWV0YWxfYmluZGluZycsICctaW1hZScsICc8aW5maWxlLm1hZT4nLCAnLW9tYWUnLCAnPG91dGZpbGUubWFlPic=

> <r_lp_tautomer_probability>
1

> <r_epik_Ionization_Penalty>
0.00607782

> <r_epik_Ionization_Penalty_Charging>
0

> <r_epik_Ionization_Penalty_Neutral>
0.00607782

> <r_epik_State_Penalty>
0.00441345

> <r_epik_Charging_Adjusted_Penalty>
0.00441345

> <i_epik_Tot_Q>
0

> <i_epik_Tot_abs_Q>
0

> <r_epik_Metal_State_Penalty>
-0

> <b_epik_Metal_Only>
0

> <s_lp_Force_Field>
OPLS_2005

> <r_lp_Energy>
6.57668

> <b_lp_Chiralities_Consistent>
1

> <s_lp_Variant>
AV-unprocessed.smi:2810-1

> <Gold.Version>
5.8.1

> <Gold.Id.Protein>
6NUR|6NUR_protein|mol2

> <Gold.PLP.Fitness>
40.4951

> <Gold.PLP.PLP>
-36.6830

> <Gold.PLP.part.hbond>
-2.1404

> <Gold.PLP.part.metal>
0.0000

> <Gold.PLP.part.buried>
-4.4889

> <Gold.PLP.part.nonpolar>
-29.5846

> <Gold.PLP.part.repulsive>
0.1350

> <Gold.PLP.ligand.clash>
0.0000

> <Gold.PLP.ligand.torsion>
0.2516

> <Gold.PLP.Chemscore.Hbond>
1.3273

> <Gold.PLP.Chemscore.CHOScore>
0.0000

> <Gold.PLP.Chemscore.Metal>
0.0000

> <Gold.Chemscore.Hbonds>
donor molecule, donor type, donor heavy atom, donor atom, acceptor molecule, acceptor atom, score
      L1  H    12    32       P1  8028  0.10
      P1  H  7989  7998       L1     8  1.00

> <Gold.PLP.Chemscore.Internal.Correction>
0.3335

> <Gold.Rescore>
     Score         DG    S(hbond)    S(metal)    S(lipo)     H(rot)  DE(clash)    DE(int)     intcor
     11.27     -15.85       1.63        0.00      79.39       1.71       0.39       4.19       ----

> <Gold.Chemscore.Fitness>
11.2702

> <Gold.Chemscore.DG>
-15.8465

> <Gold.Chemscore.ZeroCoef>
-5.4800

> <Gold.Chemscore.Hbond>
1.6347

> <Gold.Chemscore.Metal>
0.0000

> <Gold.Chemscore.Lipo>
79.3896

> <Gold.Chemscore.Internal_Hbond>
0.0000

> <Gold.Chemscore.DEClash>
0.3913

> <Gold.Chemscore.DEInternal>
4.1850

> <Gold.Chemscore.Rot>
1.7117

> <Gold.Chemscore.Internal.Correction>
   9.000000E+99

> <Gold.Chemscore.Hbonds>
donor molecule, donor type, donor heavy atom, donor atom, acceptor molecule, acceptor atom, score
      L1  H    12    32       P1  8028  0.12
      P1  H  7989  7998       L1     8  0.38

> <Gold.Chemscore.Hbond.Weighted>
-5.4599

> <Gold.Chemscore.Metal.Weighted>
-0.0000

> <Gold.Chemscore.Lipo.Weighted>
-9.2886

> <Gold.Chemscore.Internal_Hbond.Weighted>
0.0000

> <Gold.Chemscore.DEClash.Weighted>
0.3913

> <Gold.Chemscore.DEInternal.Weighted>
4.1850

> <Gold.Chemscore.Rot.Weighted>
4.3820

> <Gold.Chemscore.Internal.Correction.Weighted>
   9.000000E+99

> <Gold.Protein.RotatedTorsions>
[ 6907 6896 6895 6894 ] final -142.35 input  -60.11 | X-H torsion
[ 7974 7965 7964 7962 ] final   -1.53 input  175.53 | X-H torsion
[ 8008 7997 7996 7995 ] final -147.86 input   59.86 | X-H torsion
[ 10167 10162 10161 10158 ] final -117.09 input  -65.29 | X-H torsion
[ 10718 10713 10712 10709 ] final  -41.32 input   66.30 | X-H torsion
[ 10763 10752 10751 10750 ] final  -97.01 input  -60.55 | X-H torsion
[ 11005 11000 10999 10996 ] final  171.85 input  -57.11 | X-H torsion

> <Gold.Protein.ActiveResidues>
 VAL166  LYS551  ARG553  GLY616  TRP617  ASP618  TYR619  PRO620  LYS621  CYS622 
 ASP623  PHE694  ASN695  SER759  ASP760  ASP761  ALA762  ILE779  LEU786  VAL792 
 PHE793  MET794  SER795  GLU796  ALA797  LYS798  CYS799  TRP800  GLU811  SER814 

> <Gold.Protein.RotatedAtoms>
  151.0858  133.5354  159.2617 H   0  0  0  0  0  0  0  0  0  0  0  0  # atno 6907 bound_to 6896
  151.2240  135.0528  159.8971 H   0  0  0  0  0  0  0  0  0  0  0  0  # atno 6908 bound_to 6896
  152.5429  134.0657  159.8225 H   0  0  0  0  0  0  0  0  0  0  0  0  # atno 6909 bound_to 6896
  146.2416  140.1434  142.8335 H   0  0  0  0  0  0  0  0  0  0  0  0  # atno 7974 bound_to 7965
  155.5824  140.0644  157.2780 H   0  0  0  0  0  0  0  0  0  0  0  0  # atno 8008 bound_to 7997
  154.4329  140.1850  156.1037 H   0  0  0  0  0  0  0  0  0  0  0  0  # atno 8009 bound_to 7997
  156.0295  140.3308  155.7128 H   0  0  0  0  0  0  0  0  0  0  0  0  # atno 8010 bound_to 7997
  140.0721  143.4867  152.1974 H   0  0  0  0  0  0  0  0  0  0  0  0  # atno 10167 bound_to 10162
  156.2716  130.4207  149.8432 H   0  0  0  0  0  0  0  0  0  0  0  0  # atno 10718 bound_to 10713
  154.7290  135.5062  153.8933 H   0  0  0  0  0  0  0  0  0  0  0  0  # atno 10763 bound_to 10752
  153.0932  135.6665  153.9823 H   0  0  0  0  0  0  0  0  0  0  0  0  # atno 10764 bound_to 10752
  153.9628  135.3046  155.3411 H   0  0  0  0  0  0  0  0  0  0  0  0  # atno 10765 bound_to 10752
  140.3234  134.7418  157.4081 H   0  0  0  0  0  0  0  0  0  0  0  0  # atno 11005 bound_to 11000
  145.0227  140.8807  143.5157 LP  0  0  0  0  0  0  0  0  0  0  0  0  # atno 17320 bound_to 7965
  145.1485  139.2528  143.5453 LP  0  0  0  0  0  0  0  0  0  0  0  0  # atno 17321 bound_to 7965
  139.5830  144.7519  151.3592 LP  0  0  0  0  0  0  0  0  0  0  0  0  # atno 17342 bound_to 10162
  140.7120  143.7365  150.7585 LP  0  0  0  0  0  0  0  0  0  0  0  0  # atno 17343 bound_to 10162
  156.5911  130.8506  151.3408 LP  0  0  0  0  0  0  0  0  0  0  0  0  # atno 17370 bound_to 10713
  157.7286  130.9659  150.1748 LP  0  0  0  0  0  0  0  0  0  0  0  0  # atno 17371 bound_to 10713
  140.0922  134.5586  155.8433 LP  0  0  0  0  0  0  0  0  0  0  0  0  # atno 17394 bound_to 11000
  141.2081  133.6670  156.6349 LP  0  0  0  0  0  0  0  0  0  0  0  0  # atno 17395 bound_to 11000

$$$$
