AV-unprocessed.smi:3183|AV-procd|sdf|12159|dock4
  -GOLD-   2272017593D 1   1.00000     0.00000
 Structure written by MMmdl.
 43 44  0  0  0  0  0  0  0  0  2 V2000
  151.8915  143.6513  161.3108 C   0  0  0  0  0  0  0  0  0  0  0  0
  152.7950  143.9354  160.0936 C   0  0  2  0  0  0  0  0  0  0  0  0
  152.1998  145.0326  159.1877 C   0  0  0  0  0  0  0  0  0  0  0  0
  150.9860  144.5371  158.3824 C   0  0  0  0  0  0  0  0  0  0  0  0
  151.3321  143.2854  157.5493 C   0  0  2  0  0  0  0  0  0  0  0  0
  150.1492  142.7643  156.8288 N   0  3  0  0  0  0  0  0  0  0  0  0
  150.4275  141.6989  155.8431 C   0  0  0  0  0  0  0  0  0  0  0  0
  150.5313  140.3289  156.5294 C   0  0  0  0  0  0  0  0  0  0  0  0
  151.0269  139.2305  155.6387 C   0  0  0  0  0  0  0  0  0  0  0  0
  150.6256  138.8269  154.3942 C   0  0  0  0  0  0  0  0  0  0  0  0
  151.4862  137.7375  154.0863 C   0  0  0  0  0  0  0  0  0  0  0  0
  152.3486  137.4842  155.0548 N   0  0  0  0  0  0  0  0  0  0  0  0
  152.0687  138.3987  156.0074 N   0  0  0  0  0  0  0  0  0  0  0  0
  152.8432  138.4052  157.2336 C   0  0  0  0  0  0  0  0  0  0  0  0
  151.9185  142.1821  158.4505 C   0  0  0  0  0  0  0  0  0  0  0  0
  153.1393  142.6815  159.2498 C   0  0  2  0  0  0  0  0  0  0  0  0
  153.7848  141.5532  160.0714 C   0  0  0  0  0  0  0  0  0  0  0  0
  150.9415  143.2015  161.0244 H   0  0  0  0  0  0  0  0  0  0  0  0
  151.6678  144.5718  161.8505 H   0  0  0  0  0  0  0  0  0  0  0  0
  152.3755  142.9802  162.0201 H   0  0  0  0  0  0  0  0  0  0  0  0
  153.7313  144.3279  160.4932 H   0  0  0  0  0  0  0  0  0  0  0  0
  151.9219  145.9035  159.7824 H   0  0  0  0  0  0  0  0  0  0  0  0
  152.9673  145.3776  158.4934 H   0  0  0  0  0  0  0  0  0  0  0  0
  150.1588  144.3178  159.0584 H   0  0  0  0  0  0  0  0  0  0  0  0
  150.6442  145.3446  157.7355 H   0  0  0  0  0  0  0  0  0  0  0  0
  152.0900  143.5498  156.8099 H   0  0  0  0  0  0  0  0  0  0  0  0
  149.5199  142.3774  157.5178 H   0  0  0  0  0  0  0  0  0  0  0  0
  149.6356  141.6743  155.0947 H   0  0  0  0  0  0  0  0  0  0  0  0
  151.3600  141.9256  155.3243 H   0  0  0  0  0  0  0  0  0  0  0  0
  151.1937  140.4098  157.3921 H   0  0  0  0  0  0  0  0  0  0  0  0
  149.5526  140.0515  156.9228 H   0  0  0  0  0  0  0  0  0  0  0  0
  149.8349  139.2449  153.7890 H   0  0  0  0  0  0  0  0  0  0  0  0
  151.5097  137.1282  153.1948 H   0  0  0  0  0  0  0  0  0  0  0  0
  153.3272  139.3742  157.3570 H   0  0  0  0  0  0  0  0  0  0  0  0
  153.6102  137.6295  157.2100 H   0  0  0  0  0  0  0  0  0  0  0  0
  152.1856  138.2233  158.0840 H   0  0  0  0  0  0  0  0  0  0  0  0
  151.1529  141.8114  159.1332 H   0  0  0  0  0  0  0  0  0  0  0  0
  152.2121  141.3305  157.8350 H   0  0  0  0  0  0  0  0  0  0  0  0
  153.8897  142.9914  158.5207 H   0  0  0  0  0  0  0  0  0  0  0  0
  153.0801  141.1101  160.7755 H   0  0  0  0  0  0  0  0  0  0  0  0
  154.6409  141.9198  160.6386 H   0  0  0  0  0  0  0  0  0  0  0  0
  154.1410  140.7536  159.4217 H   0  0  0  0  0  0  0  0  0  0  0  0
  149.6836  143.5327  156.3673 H   0  0  0  0  0  0  0  0  0  0  0  0
  1  2  1  0  0  0  0
  1 18  1  0  0  0  0
  1 19  1  0  0  0  0
  1 20  1  0  0  0  0
  2 16  1  0  0  0  0
  2  3  1  0  0  0  0
  2 21  1  0  0  0  0
  3  4  1  0  0  0  0
  3 22  1  0  0  0  0
  3 23  1  0  0  0  0
  4  5  1  0  0  0  0
  4 24  1  0  0  0  0
  4 25  1  0  0  0  0
  5  6  1  0  0  0  0
  5 15  1  0  0  0  0
  5 26  1  0  0  0  0
  6  7  1  0  0  0  0
  6 27  1  0  0  0  0
  6 43  1  0  0  0  0
  7  8  1  0  0  0  0
  7 28  1  0  0  0  0
  7 29  1  0  0  0  0
  8  9  1  0  0  0  0
  8 30  1  0  0  0  0
  8 31  1  0  0  0  0
  9 13  1  0  0  0  0
  9 10  2  0  0  0  0
 10 11  1  0  0  0  0
 10 32  1  0  0  0  0
 11 12  2  0  0  0  0
 11 33  1  0  0  0  0
 12 13  1  0  0  0  0
 13 14  1  0  0  0  0
 14 34  1  0  0  0  0
 14 35  1  0  0  0  0
 14 36  1  0  0  0  0
 15 16  1  0  0  0  0
 15 37  1  0  0  0  0
 15 38  1  0  0  0  0
 16 17  1  0  0  0  0
 16 39  1  0  0  0  0
 17 40  1  0  0  0  0
 17 41  1  0  0  0  0
 17 42  1  0  0  0  0
M  CHG  1   6   1
M  END
> <s_m_source_file>
AV-unprocessed.smi

> <i_m_source_file_index>
3183

> <i_lp_mmshare_version>
43012

> <i_f3d_flags>
0

> <s_epik_input>
W0NIM11bQ0BASF0xW0NIMl1bQ0gyXVtDQEhdKFtDSDJdW0NASF0xW0NIM10pW05IXVtDSDJdW0NIMl1jMltjSF1bY0hdbm4yW0NIM10=

> <s_epik_cmdline>
J2VwaWtfcHl0aG9uJywgJy1waCcsICc3LjAnLCAnLXRuJywgJzgnLCAnLW1hJywgJzIwMCcsICctbWV0YWxfYmluZGluZycsICctaW1hZScsICc8aW5maWxlLm1hZT4nLCAnLW9tYWUnLCAnPG91dGZpbGUubWFlPic=

> <r_lp_tautomer_probability>
1

> <r_epik_Ionization_Penalty>
0.000327718

> <r_epik_Ionization_Penalty_Charging>
0.000294043

> <r_epik_Ionization_Penalty_Neutral>
3.36755e-05

> <r_epik_State_Penalty>
-0

> <r_epik_Charging_Adjusted_Penalty>
0.000294043

> <i_epik_Tot_Q>
1

> <i_epik_Tot_abs_Q>
1

> <r_epik_Metal_State_Penalty>
-0

> <b_epik_Metal_Only>
0

> <s_lp_Force_Field>
OPLS_2005

> <r_lp_Energy>
14.2939

> <b_lp_Chiralities_Consistent>
1

> <s_lp_Variant>
AV-unprocessed.smi:3183-7

> <Gold.Version>
5.8.1

> <Gold.Id.Protein>
6NUR|6NUR_protein|mol2

> <Gold.PLP.Fitness>
53.6433

> <Gold.PLP.PLP>
-43.0182

> <Gold.PLP.part.hbond>
-2.0000

> <Gold.PLP.part.metal>
0.0000

> <Gold.PLP.part.buried>
-5.0266

> <Gold.PLP.part.nonpolar>
-36.6879

> <Gold.PLP.part.repulsive>
0.0895

> <Gold.PLP.ligand.clash>
0.0000

> <Gold.PLP.ligand.torsion>
0.2490

> <Gold.PLP.Chemscore.Hbond>
2.7040

> <Gold.PLP.Chemscore.CHOScore>
1.0000

> <Gold.PLP.Chemscore.Metal>
0.0000

> <Gold.Chemscore.Hbonds>
donor molecule, donor type, donor heavy atom, donor atom, acceptor molecule, acceptor atom, score
      L1  H     6    43       P1  8028  2.00
      P1  H 10752 10765       L1    12  0.67
      L1  C    11    33       P1  7949  1.00

> <Gold.PLP.Chemscore.Internal.Correction>
0.0111

> <Gold.Rescore>
     Score         DG    S(hbond)    S(metal)    S(lipo)     H(rot)  DE(clash)    DE(int)     intcor
     22.93     -23.54       1.82        0.00     132.38       1.38       0.29       0.31       ----

> <Gold.Chemscore.Fitness>
22.9310

> <Gold.Chemscore.DG>
-23.5363

> <Gold.Chemscore.ZeroCoef>
-5.4800

> <Gold.Chemscore.Hbond>
1.8241

> <Gold.Chemscore.Metal>
0.0000

> <Gold.Chemscore.Lipo>
132.3816

> <Gold.Chemscore.Internal_Hbond>
0.0000

> <Gold.Chemscore.DEClash>
0.2939

> <Gold.Chemscore.DEInternal>
0.3115

> <Gold.Chemscore.Rot>
1.3768

> <Gold.Chemscore.Internal.Correction>
   9.000000E+99

> <Gold.Chemscore.Hbonds>
donor molecule, donor type, donor heavy atom, donor atom, acceptor molecule, acceptor atom, score
      L1  H     6    43       P1  8028  0.98
      P1  H 10752 10765       L1    12  0.26

> <Gold.Chemscore.Hbond.Weighted>
-6.0924

> <Gold.Chemscore.Metal.Weighted>
-0.0000

> <Gold.Chemscore.Lipo.Weighted>
-15.4886

> <Gold.Chemscore.Internal_Hbond.Weighted>
0.0000

> <Gold.Chemscore.DEClash.Weighted>
0.2939

> <Gold.Chemscore.DEInternal.Weighted>
0.3115

> <Gold.Chemscore.Rot.Weighted>
3.5247

> <Gold.Chemscore.Internal.Correction.Weighted>
   9.000000E+99

> <Gold.Protein.RotatedTorsions>
[ 6907 6896 6895 6894 ] final   47.45 input  -60.11 | X-H torsion
[ 7974 7965 7964 7962 ] final -100.95 input  175.53 | X-H torsion
[ 8008 7997 7996 7995 ] final  -61.28 input   59.86 | X-H torsion
[ 10167 10162 10161 10158 ] final  -21.43 input  -65.29 | X-H torsion
[ 10718 10713 10712 10709 ] final  -52.86 input   66.30 | X-H torsion
[ 10763 10752 10751 10750 ] final -178.26 input  -60.55 | X-H torsion
[ 11005 11000 10999 10996 ] final  117.27 input  -57.11 | X-H torsion

> <Gold.Protein.ActiveResidues>
 VAL166  LYS551  ARG553  GLY616  TRP617  ASP618  TYR619  PRO620  LYS621  CYS622 
 ASP623  PHE694  ASN695  SER759  ASP760  ASP761  ALA762  ILE779  LEU786  VAL792 
 PHE793  MET794  SER795  GLU796  ALA797  LYS798  CYS799  TRP800  GLU811  SER814 

> <Gold.Protein.RotatedAtoms>
  152.2682  134.7961  160.0418 H   0  0  0  0  0  0  0  0  0  0  0  0  # atno 6907 bound_to 6896
  151.8584  133.3447  159.3704 H   0  0  0  0  0  0  0  0  0  0  0  0  # atno 6908 bound_to 6896
  150.7142  134.5158  159.5674 H   0  0  0  0  0  0  0  0  0  0  0  0  # atno 6909 bound_to 6896
  145.2880  140.9345  143.2894 H   0  0  0  0  0  0  0  0  0  0  0  0  # atno 7974 bound_to 7965
  154.4440  140.1021  156.6406 H   0  0  0  0  0  0  0  0  0  0  0  0  # atno 8008 bound_to 7997
  155.5505  140.3485  155.4449 H   0  0  0  0  0  0  0  0  0  0  0  0  # atno 8009 bound_to 7997
  156.0532  140.1309  157.0015 H   0  0  0  0  0  0  0  0  0  0  0  0  # atno 8010 bound_to 7997
  140.7282  143.4629  151.0355 H   0  0  0  0  0  0  0  0  0  0  0  0  # atno 10167 bound_to 10162
  156.1585  130.4150  149.9831 H   0  0  0  0  0  0  0  0  0  0  0  0  # atno 10718 bound_to 10713
  154.5500  135.2812  155.1018 H   0  0  0  0  0  0  0  0  0  0  0  0  # atno 10763 bound_to 10752
  154.2467  135.6347  153.5229 H   0  0  0  0  0  0  0  0  0  0  0  0  # atno 10764 bound_to 10752
  153.0000  135.5573  154.6063 H   0  0  0  0  0  0  0  0  0  0  0  0  # atno 10765 bound_to 10752
  139.9069  134.9608  156.7325 H   0  0  0  0  0  0  0  0  0  0  0  0  # atno 11005 bound_to 11000
  144.9197  139.4427  143.6547 LP  0  0  0  0  0  0  0  0  0  0  0  0  # atno 17320 bound_to 7965
  146.3194  139.8050  142.8957 LP  0  0  0  0  0  0  0  0  0  0  0  0  # atno 17321 bound_to 7965
  139.8314  143.7685  152.3180 LP  0  0  0  0  0  0  0  0  0  0  0  0  # atno 17342 bound_to 10162
  139.7802  144.7447  151.0099 LP  0  0  0  0  0  0  0  0  0  0  0  0  # atno 17343 bound_to 10162
  156.7667  130.9171  151.3643 LP  0  0  0  0  0  0  0  0  0  0  0  0  # atno 17370 bound_to 10713
  157.6714  130.9054  150.0049 LP  0  0  0  0  0  0  0  0  0  0  0  0  # atno 17371 bound_to 10713
  140.6914  133.9387  155.7968 LP  0  0  0  0  0  0  0  0  0  0  0  0  # atno 17394 bound_to 11000
  141.0439  134.0582  157.3868 LP  0  0  0  0  0  0  0  0  0  0  0  0  # atno 17395 bound_to 11000

$$$$
