AV-unprocessed.smi:1055|AV-procd|sdf|4626|dock3
  -GOLD-   22720 3133D 1   1.00000     0.00000
 Structure written by MMmdl.
 51 52  0  0  0  0  0  0  0  0  2 V2000
  142.6296  137.6233  153.1769 C   0  0  0  0  0  0  0  0  0  0  0  0
  143.5978  136.8231  152.7002 C   0  0  0  0  0  0  0  0  0  0  0  0
  143.6050  135.3284  152.9598 C   0  0  0  0  0  0  0  0  0  0  0  0
  144.7556  137.3607  151.8739 C   0  0  0  0  0  0  0  0  0  0  0  0
  145.5362  138.3841  152.6136 N   0  3  2  0  0  0  0  0  0  0  0  0
  146.6496  138.9339  151.7987 C   0  0  0  0  0  0  0  0  0  0  0  0
  147.3605  140.0854  152.5288 C   0  0  0  0  0  0  0  0  0  0  0  0
  147.8723  139.6343  153.9090 C   0  0  1  0  0  0  0  0  0  0  0  0
  148.4710  140.7485  154.6385 N   0  0  0  0  0  0  0  0  0  0  0  0
  149.1783  140.6362  155.7723 C   0  0  0  0  0  0  0  0  0  0  0  0
  149.4142  139.5591  156.3189 O   0  0  0  0  0  0  0  0  0  0  0  0
  149.5654  141.8407  156.2258 N   0  0  0  0  0  0  0  0  0  0  0  0
  150.3280  142.1420  157.3864 C   0  0  0  0  0  0  0  0  0  0  0  0
  151.3305  141.2339  157.7763 C   0  0  0  0  0  0  0  0  0  0  0  0
  152.0900  141.4978  158.9319 C   0  0  0  0  0  0  0  0  0  0  0  0
  151.8215  142.6685  159.6840 C   0  0  0  0  0  0  0  0  0  0  0  0
  152.5567  142.9815  160.8504 N   0  0  0  0  0  0  0  0  0  0  0  0
  153.5953  142.0773  161.3283 C   0  0  0  0  0  0  0  0  0  0  0  0
  152.2545  144.2006  161.5940 C   0  0  0  0  0  0  0  0  0  0  0  0
  150.8446  143.5322  159.3140 N   0  0  0  0  0  0  0  0  0  0  0  0
  150.1200  143.2769  158.2044 C   0  0  0  0  0  0  0  0  0  0  0  0
  146.7061  139.0449  154.7179 C   0  0  0  0  0  0  0  0  0  0  0  0
  146.0082  137.9140  153.9436 C   0  0  0  0  0  0  0  0  0  0  0  0
  141.8141  137.2280  153.7650 H   0  0  0  0  0  0  0  0  0  0  0  0
  142.6361  138.6868  152.9869 H   0  0  0  0  0  0  0  0  0  0  0  0
  144.5200  135.0392  153.4774 H   0  0  0  0  0  0  0  0  0  0  0  0
  143.5503  134.7746  152.0223 H   0  0  0  0  0  0  0  0  0  0  0  0
  142.7580  135.0287  153.5779 H   0  0  0  0  0  0  0  0  0  0  0  0
  145.4156  136.5498  151.5605 H   0  0  0  0  0  0  0  0  0  0  0  0
  144.3386  137.7945  150.9639 H   0  0  0  0  0  0  0  0  0  0  0  0
  147.3604  138.1391  151.5680 H   0  0  0  0  0  0  0  0  0  0  0  0
  146.2626  139.2990  150.8468 H   0  0  0  0  0  0  0  0  0  0  0  0
  148.1884  140.4474  151.9178 H   0  0  0  0  0  0  0  0  0  0  0  0
  146.6716  140.9236  152.6430 H   0  0  0  0  0  0  0  0  0  0  0  0
  148.6242  138.8540  153.7736 H   0  0  0  0  0  0  0  0  0  0  0  0
  148.3228  141.6736  154.2623 H   0  0  0  0  0  0  0  0  0  0  0  0
  149.2234  142.6406  155.7138 H   0  0  0  0  0  0  0  0  0  0  0  0
  151.5231  140.3441  157.1949 H   0  0  0  0  0  0  0  0  0  0  0  0
  152.8608  140.7980  159.2166 H   0  0  0  0  0  0  0  0  0  0  0  0
  153.1752  141.0972  161.5562 H   0  0  0  0  0  0  0  0  0  0  0  0
  154.0652  142.4563  162.2361 H   0  0  0  0  0  0  0  0  0  0  0  0
  154.3756  141.9589  160.5760 H   0  0  0  0  0  0  0  0  0  0  0  0
  151.2233  144.1872  161.9487 H   0  0  0  0  0  0  0  0  0  0  0  0
  152.3923  145.0788  160.9623 H   0  0  0  0  0  0  0  0  0  0  0  0
  152.9047  144.3100  162.4622 H   0  0  0  0  0  0  0  0  0  0  0  0
  149.3463  143.9991  157.9954 H   0  0  0  0  0  0  0  0  0  0  0  0
  147.0678  138.6658  155.6745 H   0  0  0  0  0  0  0  0  0  0  0  0
  145.9806  139.8261  154.9493 H   0  0  0  0  0  0  0  0  0  0  0  0
  145.1685  137.5486  154.5352 H   0  0  0  0  0  0  0  0  0  0  0  0
  146.6908  137.0729  153.8120 H   0  0  0  0  0  0  0  0  0  0  0  0
  144.9037  139.1531  152.7832 H   0  0  0  0  0  0  0  0  0  0  0  0
  1  2  2  0  0  0  0
  1 24  1  0  0  0  0
  1 25  1  0  0  0  0
  2  3  1  0  0  0  0
  2  4  1  0  0  0  0
  3 26  1  0  0  0  0
  3 27  1  0  0  0  0
  3 28  1  0  0  0  0
  4  5  1  0  0  0  0
  4 29  1  0  0  0  0
  4 30  1  0  0  0  0
  5 23  1  0  0  0  0
  5  6  1  0  0  0  0
  5 51  1  0  0  0  0
  6  7  1  0  0  0  0
  6 31  1  0  0  0  0
  6 32  1  0  0  0  0
  7  8  1  0  0  0  0
  7 33  1  0  0  0  0
  7 34  1  0  0  0  0
  8  9  1  0  0  0  0
  8 22  1  0  0  0  0
  8 35  1  0  0  0  0
  9 10  1  0  0  0  0
  9 36  1  0  0  0  0
 10 11  2  0  0  0  0
 10 12  1  0  0  0  0
 12 13  1  0  0  0  0
 12 37  1  0  0  0  0
 13 21  1  0  0  0  0
 13 14  2  0  0  0  0
 14 15  1  0  0  0  0
 14 38  1  0  0  0  0
 15 16  2  0  0  0  0
 15 39  1  0  0  0  0
 16 17  1  0  0  0  0
 16 20  1  0  0  0  0
 17 18  1  0  0  0  0
 17 19  1  0  0  0  0
 18 40  1  0  0  0  0
 18 41  1  0  0  0  0
 18 42  1  0  0  0  0
 19 43  1  0  0  0  0
 19 44  1  0  0  0  0
 19 45  1  0  0  0  0
 20 21  2  0  0  0  0
 21 46  1  0  0  0  0
 22 23  1  0  0  0  0
 22 47  1  0  0  0  0
 22 48  1  0  0  0  0
 23 49  1  0  0  0  0
 23 50  1  0  0  0  0
M  CHG  1   5   1
M  END
> <s_m_source_file>
AV-unprocessed.smi

> <i_m_source_file_index>
1055

> <i_lp_mmshare_version>
43012

> <i_f3d_flags>
0

> <s_epik_input>
W0NIMl09QyhbQ0gzXSlbQ0gyXU4xW0NIMl1bQ0gyXVtDSF0oW0NIMl1bQ0gyXTEpW05IXUMoPU8pW05IXWMyW2NIXVtjSF1jKE4oW0NIM10pW0NIM10pbltjSF0y

> <s_epik_cmdline>
J2VwaWtfcHl0aG9uJywgJy1waCcsICc3LjAnLCAnLXRuJywgJzgnLCAnLW1hJywgJzIwMCcsICctbWV0YWxfYmluZGluZycsICctaW1hZScsICc8aW5maWxlLm1hZT4nLCAnLW9tYWUnLCAnPG91dGZpbGUubWFlPic=

> <r_lp_tautomer_probability>
1

> <r_epik_Ionization_Penalty>
0.534133

> <r_epik_Ionization_Penalty_Charging>
0.0193505

> <r_epik_Ionization_Penalty_Neutral>
0.514782

> <r_epik_State_Penalty>
0.557749

> <r_epik_Charging_Adjusted_Penalty>
0.5771

> <i_epik_Tot_Q>
1

> <i_epik_Tot_abs_Q>
1

> <r_epik_Metal_State_Penalty>
0.306227

> <b_epik_Metal_Only>
0

> <s_lp_Force_Field>
OPLS_2005

> <r_lp_Energy>
20.3338

> <b_lp_Chiralities_Consistent>
1

> <s_lp_Variant>
AV-unprocessed.smi:1055-3

> <Gold.Version>
5.8.1

> <Gold.Id.Protein>
6NUR|6NUR_protein|mol2

> <Gold.PLP.Fitness>
47.5917

> <Gold.PLP.PLP>
-36.4548

> <Gold.PLP.part.hbond>
-2.3388

> <Gold.PLP.part.metal>
0.0000

> <Gold.PLP.part.buried>
5.8415

> <Gold.PLP.part.nonpolar>
-38.9834

> <Gold.PLP.part.repulsive>
0.2630

> <Gold.PLP.ligand.clash>
0.0000

> <Gold.PLP.ligand.torsion>
0.3513

> <Gold.PLP.Chemscore.Hbond>
2.9588

> <Gold.PLP.Chemscore.CHOScore>
0.9790

> <Gold.PLP.Chemscore.Metal>
0.0000

> <Gold.Chemscore.Hbonds>
donor molecule, donor type, donor heavy atom, donor atom, acceptor molecule, acceptor atom, score
      L1  H     5    51       P1 10175  2.00
      L1  H    12    37       P1  8028  0.79
      L1  C    21    46       P1  8028  0.54
      L1  C    21    46       P1  8029  0.50

> <Gold.PLP.Chemscore.Internal.Correction>
0.0263

> <Gold.Rescore>
     Score         DG    S(hbond)    S(metal)    S(lipo)     H(rot)  DE(clash)    DE(int)     intcor
     15.30     -19.89       1.93        0.00      97.17       1.33       3.03       1.56       ----

> <Gold.Chemscore.Fitness>
15.2995

> <Gold.Chemscore.DG>
-19.8887

> <Gold.Chemscore.ZeroCoef>
-5.4800

> <Gold.Chemscore.Hbond>
1.9268

> <Gold.Chemscore.Metal>
0.0000

> <Gold.Chemscore.Lipo>
97.1727

> <Gold.Chemscore.Internal_Hbond>
0.0000

> <Gold.Chemscore.DEClash>
3.0325

> <Gold.Chemscore.DEInternal>
1.5566

> <Gold.Chemscore.Rot>
1.3266

> <Gold.Chemscore.Internal.Correction>
   9.000000E+99

> <Gold.Chemscore.Hbonds>
donor molecule, donor type, donor heavy atom, donor atom, acceptor molecule, acceptor atom, score
      L1  H     5    51       P1 10175  1.00
      L1  H    12    37       P1  8028  0.75

> <Gold.Chemscore.Hbond.Weighted>
-6.4356

> <Gold.Chemscore.Metal.Weighted>
-0.0000

> <Gold.Chemscore.Lipo.Weighted>
-11.3692

> <Gold.Chemscore.Internal_Hbond.Weighted>
0.0000

> <Gold.Chemscore.DEClash.Weighted>
3.0325

> <Gold.Chemscore.DEInternal.Weighted>
1.5566

> <Gold.Chemscore.Rot.Weighted>
3.3962

> <Gold.Chemscore.Internal.Correction.Weighted>
   9.000000E+99

> <Gold.Protein.RotatedTorsions>
[ 6907 6896 6895 6894 ] final    4.43 input  -60.11 | X-H torsion
[ 7974 7965 7964 7962 ] final   83.91 input  175.53 | X-H torsion
[ 8008 7997 7996 7995 ] final  -68.23 input   59.86 | X-H torsion
[ 10167 10162 10161 10158 ] final   61.97 input  -65.29 | X-H torsion
[ 10718 10713 10712 10709 ] final   67.35 input   66.30 | X-H torsion
[ 10763 10752 10751 10750 ] final   31.87 input  -60.55 | X-H torsion
[ 11005 11000 10999 10996 ] final  -52.41 input  -57.11 | X-H torsion

> <Gold.Protein.ActiveResidues>
 VAL166  LYS551  ARG553  GLY616  TRP617  ASP618  TYR619  PRO620  LYS621  CYS622 
 ASP623  PHE694  ASN695  SER759  ASP760  ASP761  ALA762  ILE779  LEU786  VAL792 
 PHE793  MET794  SER795  GLU796  ALA797  LYS798  CYS799  TRP800  GLU811  SER814 

> <Gold.Protein.RotatedAtoms>
  151.6411  135.1012  160.0141 H   0  0  0  0  0  0  0  0  0  0  0  0  # atno 6907 bound_to 6896
  152.4053  133.6876  159.6360 H   0  0  0  0  0  0  0  0  0  0  0  0  # atno 6908 bound_to 6896
  150.7948  133.8636  159.3280 H   0  0  0  0  0  0  0  0  0  0  0  0  # atno 6909 bound_to 6896
  145.6057  139.2360  143.2220 H   0  0  0  0  0  0  0  0  0  0  0  0  # atno 7974 bound_to 7965
  154.4854  140.0877  156.7473 H   0  0  0  0  0  0  0  0  0  0  0  0  # atno 8008 bound_to 7997
  155.4365  140.3452  155.4267 H   0  0  0  0  0  0  0  0  0  0  0  0  # atno 8009 bound_to 7997
  156.1253  140.1486  156.9133 H   0  0  0  0  0  0  0  0  0  0  0  0  # atno 8010 bound_to 7997
  140.1490  144.4480  150.6769 H   0  0  0  0  0  0  0  0  0  0  0  0  # atno 10167 bound_to 10162
  157.6225  130.9316  150.0231 H   0  0  0  0  0  0  0  0  0  0  0  0  # atno 10718 bound_to 10713
  153.0292  135.6428  154.1266 H   0  0  0  0  0  0  0  0  0  0  0  0  # atno 10763 bound_to 10752
  154.0991  135.2861  155.3257 H   0  0  0  0  0  0  0  0  0  0  0  0  # atno 10764 bound_to 10752
  154.6411  135.5459  153.7854 H   0  0  0  0  0  0  0  0  0  0  0  0  # atno 10765 bound_to 10752
  141.0923  133.6630  156.4020 H   0  0  0  0  0  0  0  0  0  0  0  0  # atno 11005 bound_to 11000
  146.1542  140.6881  142.9308 LP  0  0  0  0  0  0  0  0  0  0  0  0  # atno 17320 bound_to 7965
  144.7291  140.4616  143.6951 LP  0  0  0  0  0  0  0  0  0  0  0  0  # atno 17321 bound_to 7965
  140.6714  143.2287  151.5616 LP  0  0  0  0  0  0  0  0  0  0  0  0  # atno 17342 bound_to 10162
  139.5435  144.2584  152.1397 LP  0  0  0  0  0  0  0  0  0  0  0  0  # atno 17343 bound_to 10162
  156.1378  130.3642  149.9630 LP  0  0  0  0  0  0  0  0  0  0  0  0  # atno 17370 bound_to 10713
  156.7677  130.9174  151.3643 LP  0  0  0  0  0  0  0  0  0  0  0  0  # atno 17371 bound_to 10713
  140.5223  134.6292  157.5322 LP  0  0  0  0  0  0  0  0  0  0  0  0  # atno 17394 bound_to 11000
  139.9751  134.7228  155.9965 LP  0  0  0  0  0  0  0  0  0  0  0  0  # atno 17395 bound_to 11000

$$$$
