AV-unprocessed.smi:2954|AV-procd|sdf|11298|dock2
  -GOLD-   2272016193D 1   1.00000     0.00000
 Structure written by MMmdl.
 42 44  0  0  0  0  0  0  0  0  1 V2000
  155.8524  139.5630  159.6466 C   0  0  0  0  0  0  0  0  0  0  0  0
  154.3408  139.3002  159.6488 C   0  0  1  0  0  0  0  0  0  0  0  0
  153.9501  138.5995  160.8694 N   0  0  0  0  0  0  0  0  0  0  0  0
  153.3701  137.3924  160.8946 C   0  0  0  0  0  0  0  0  0  0  0  0
  153.1118  136.7490  159.8807 O   0  0  0  0  0  0  0  0  0  0  0  0
  153.5447  140.5775  159.5408 C   0  0  0  0  0  0  0  0  0  0  0  0
  153.7219  141.5970  160.3860 N   0  0  0  0  0  0  0  0  0  0  0  0
  152.8013  142.5264  159.9462 C   0  0  0  0  0  0  0  0  0  0  0  0
  152.4916  143.8151  160.4366 C   0  0  0  0  0  0  0  0  0  0  0  0
  151.4912  144.5928  159.8179 C   0  0  0  0  0  0  0  0  0  0  0  0
  150.7885  144.0944  158.7021 C   0  0  0  0  0  0  0  0  0  0  0  0
  151.0841  142.8141  158.1962 C   0  0  0  0  0  0  0  0  0  0  0  0
  152.0843  142.0416  158.8171 C   0  0  0  0  0  0  0  0  0  0  0  0
  152.6050  140.7727  158.5794 N   0  0  0  0  0  0  0  0  0  0  0  0
  152.1848  139.8663  157.5188 C   0  0  0  0  0  0  0  0  0  0  0  0
  151.7498  140.6230  156.2549 C   0  0  0  0  0  0  0  0  0  0  0  0
  151.0758  139.7209  155.3878 O   0  0  0  0  0  0  0  0  0  0  0  0
  149.9453  140.1575  154.7328 C   0  0  0  0  0  0  0  0  0  0  0  0
  149.5892  141.5236  154.6000 C   0  0  0  0  0  0  0  0  0  0  0  0
  148.4158  141.8914  153.9141 C   0  0  0  0  0  0  0  0  0  0  0  0
  147.5846  140.9032  153.3558 C   0  0  0  0  0  0  0  0  0  0  0  0
  147.9276  139.5448  153.4856 C   0  0  0  0  0  0  0  0  0  0  0  0
  149.1011  139.1741  154.1710 C   0  0  0  0  0  0  0  0  0  0  0  0
  149.5068  137.5004  154.3110 Cl  0  0  0  0  0  0  0  0  0  0  0  0
  156.1574  140.0675  158.7293 H   0  0  0  0  0  0  0  0  0  0  0  0
  156.4138  138.6306  159.7129 H   0  0  0  0  0  0  0  0  0  0  0  0
  156.1490  140.1921  160.4866 H   0  0  0  0  0  0  0  0  0  0  0  0
  154.1183  138.6453  158.8076 H   0  0  0  0  0  0  0  0  0  0  0  0
  154.1308  139.0633  161.7478 H   0  0  0  0  0  0  0  0  0  0  0  0
  153.1627  137.0561  161.9221 H   0  0  0  0  0  0  0  0  0  0  0  0
  153.0228  144.2047  161.2924 H   0  0  0  0  0  0  0  0  0  0  0  0
  151.2609  145.5756  160.2023 H   0  0  0  0  0  0  0  0  0  0  0  0
  150.0214  144.6945  158.2352 H   0  0  0  0  0  0  0  0  0  0  0  0
  150.5429  142.4286  157.3453 H   0  0  0  0  0  0  0  0  0  0  0  0
  153.0190  139.2062  157.2799 H   0  0  0  0  0  0  0  0  0  0  0  0
  151.3866  139.2205  157.8849 H   0  0  0  0  0  0  0  0  0  0  0  0
  151.0933  141.4517  156.5236 H   0  0  0  0  0  0  0  0  0  0  0  0
  152.6270  141.0394  155.7595 H   0  0  0  0  0  0  0  0  0  0  0  0
  150.1991  142.3083  155.0210 H   0  0  0  0  0  0  0  0  0  0  0  0
  148.1526  142.9344  153.8173 H   0  0  0  0  0  0  0  0  0  0  0  0
  146.6853  141.1866  152.8292 H   0  0  0  0  0  0  0  0  0  0  0  0
  147.2892  138.7864  153.0569 H   0  0  0  0  0  0  0  0  0  0  0  0
  1  2  1  0  0  0  0
  1 25  1  0  0  0  0
  1 26  1  0  0  0  0
  1 27  1  0  0  0  0
  2  3  1  0  0  0  0
  2  6  1  0  0  0  0
  2 28  1  0  0  0  0
  3  4  1  0  0  0  0
  3 29  1  0  0  0  0
  4  5  2  0  0  0  0
  4 30  1  0  0  0  0
  6 14  1  0  0  0  0
  6  7  2  0  0  0  0
  7  8  1  0  0  0  0
  8 13  2  0  0  0  0
  8  9  1  0  0  0  0
  9 10  2  0  0  0  0
  9 31  1  0  0  0  0
 10 11  1  0  0  0  0
 10 32  1  0  0  0  0
 11 12  2  0  0  0  0
 11 33  1  0  0  0  0
 12 13  1  0  0  0  0
 12 34  1  0  0  0  0
 13 14  1  0  0  0  0
 14 15  1  0  0  0  0
 15 16  1  0  0  0  0
 15 35  1  0  0  0  0
 15 36  1  0  0  0  0
 16 17  1  0  0  0  0
 16 37  1  0  0  0  0
 16 38  1  0  0  0  0
 17 18  1  0  0  0  0
 18 23  1  0  0  0  0
 18 19  2  0  0  0  0
 19 20  1  0  0  0  0
 19 39  1  0  0  0  0
 20 21  2  0  0  0  0
 20 40  1  0  0  0  0
 21 22  1  0  0  0  0
 21 41  1  0  0  0  0
 22 23  2  0  0  0  0
 22 42  1  0  0  0  0
 23 24  1  0  0  0  0
M  END
> <s_m_source_file>
AV-unprocessed.smi

> <i_m_source_file_index>
2954

> <i_lp_mmshare_version>
43012

> <i_f3d_flags>
0

> <s_epik_input>
Tz1bQ0hdW05IXVtDQEBIXShbQ0gzXSljKG4xKW4oYyhjMTIpW2NIXVtjSF1bY0hdW2NIXTIpW0NIMl1bQ0gyXU9jM1tjSF1bY0hdW2NIXVtjSF1jM0Ns

> <s_epik_cmdline>
J2VwaWtfcHl0aG9uJywgJy1waCcsICc3LjAnLCAnLXRuJywgJzgnLCAnLW1hJywgJzIwMCcsICctbWV0YWxfYmluZGluZycsICctaW1hZScsICc8aW5maWxlLm1hZT4nLCAnLW9tYWUnLCAnPG91dGZpbGUubWFlPic=

> <r_lp_tautomer_probability>
1

> <r_epik_Ionization_Penalty>
0.0861383

> <r_epik_Ionization_Penalty_Charging>
0

> <r_epik_Ionization_Penalty_Neutral>
0.0861383

> <r_epik_State_Penalty>
0.0766841

> <r_epik_Charging_Adjusted_Penalty>
0.0766841

> <i_epik_Tot_Q>
0

> <i_epik_Tot_abs_Q>
0

> <r_epik_Metal_State_Penalty>
0.0668745

> <b_epik_Metal_Only>
0

> <s_lp_Force_Field>
OPLS_2005

> <r_lp_Energy>
11.8377

> <b_lp_Chiralities_Consistent>
1

> <s_lp_Variant>
AV-unprocessed.smi:2954-2

> <Gold.Version>
5.8.1

> <Gold.Id.Protein>
6NUR|6NUR_protein|mol2

> <Gold.PLP.Fitness>
47.7835

> <Gold.PLP.PLP>
-46.7389

> <Gold.PLP.part.hbond>
-0.9598

> <Gold.PLP.part.metal>
0.0000

> <Gold.PLP.part.buried>
-3.6153

> <Gold.PLP.part.nonpolar>
-42.0667

> <Gold.PLP.part.repulsive>
0.0365

> <Gold.PLP.ligand.clash>
0.0000

> <Gold.PLP.ligand.torsion>
1.0137

> <Gold.PLP.Chemscore.Hbond>
0.9913

> <Gold.PLP.Chemscore.CHOScore>
0.0000

> <Gold.PLP.Chemscore.Metal>
0.0000

> <Gold.Chemscore.Hbonds>
donor molecule, donor type, donor heavy atom, donor atom, acceptor molecule, acceptor atom, score
      P1  H  6896  6907       L1     5  1.00

> <Gold.PLP.Chemscore.Internal.Correction>
0.0982

> <Gold.Rescore>
     Score         DG    S(hbond)    S(metal)    S(lipo)     H(rot)  DE(clash)    DE(int)     intcor
     16.41     -18.29       1.00        0.00     131.07       2.28       0.06       1.83       ----

> <Gold.Chemscore.Fitness>
16.4073

> <Gold.Chemscore.DG>
-18.2896

> <Gold.Chemscore.ZeroCoef>
-5.4800

> <Gold.Chemscore.Hbond>
0.9953

> <Gold.Chemscore.Metal>
0.0000

> <Gold.Chemscore.Lipo>
131.0656

> <Gold.Chemscore.Internal_Hbond>
0.0000

> <Gold.Chemscore.DEClash>
0.0562

> <Gold.Chemscore.DEInternal>
1.8260

> <Gold.Chemscore.Rot>
2.2849

> <Gold.Chemscore.Internal.Correction>
   9.000000E+99

> <Gold.Chemscore.Hbonds>
donor molecule, donor type, donor heavy atom, donor atom, acceptor molecule, acceptor atom, score
      P1  H  6896  6907       L1     5  0.91

> <Gold.Chemscore.Hbond.Weighted>
-3.3244

> <Gold.Chemscore.Metal.Weighted>
-0.0000

> <Gold.Chemscore.Lipo.Weighted>
-15.3347

> <Gold.Chemscore.Internal_Hbond.Weighted>
0.0000

> <Gold.Chemscore.DEClash.Weighted>
0.0562

> <Gold.Chemscore.DEInternal.Weighted>
1.8260

> <Gold.Chemscore.Rot.Weighted>
5.8495

> <Gold.Chemscore.Internal.Correction.Weighted>
   9.000000E+99

> <Gold.Protein.RotatedTorsions>
[ 6907 6896 6895 6894 ] final   27.55 input  -60.11 | X-H torsion
[ 7974 7965 7964 7962 ] final  121.17 input  175.53 | X-H torsion
[ 8008 7997 7996 7995 ] final -134.60 input   59.86 | X-H torsion
[ 10167 10162 10161 10158 ] final -158.92 input  -65.29 | X-H torsion
[ 10718 10713 10712 10709 ] final  -82.16 input   66.30 | X-H torsion
[ 10763 10752 10751 10750 ] final  154.64 input  -60.55 | X-H torsion
[ 11005 11000 10999 10996 ] final  -78.05 input  -57.11 | X-H torsion

> <Gold.Protein.ActiveResidues>
 VAL166  LYS551  ARG553  GLY616  TRP617  ASP618  TYR619  PRO620  LYS621  CYS622 
 ASP623  PHE694  ASN695  SER759  ASP760  ASP761  ALA762  ILE779  LEU786  VAL792 
 PHE793  MET794  SER795  GLU796  ALA797  LYS798  CYS799  TRP800  GLU811  SER814 

> <Gold.Protein.RotatedAtoms>
  152.0039  134.9913  160.0565 H   0  0  0  0  0  0  0  0  0  0  0  0  # atno 6907 bound_to 6896
  152.1493  133.4507  159.4814 H   0  0  0  0  0  0  0  0  0  0  0  0  # atno 6908 bound_to 6896
  150.6874  134.2127  159.4408 H   0  0  0  0  0  0  0  0  0  0  0  0  # atno 6909 bound_to 6896
  145.1225  139.3380  143.4707 H   0  0  0  0  0  0  0  0  0  0  0  0  # atno 7974 bound_to 7965
  155.3648  140.0485  157.3046 H   0  0  0  0  0  0  0  0  0  0  0  0  # atno 8008 bound_to 7997
  154.5160  140.2208  155.9029 H   0  0  0  0  0  0  0  0  0  0  0  0  # atno 8009 bound_to 7997
  156.1636  140.3111  155.8856 H   0  0  0  0  0  0  0  0  0  0  0  0  # atno 8010 bound_to 7997
  139.6655  143.9838  152.2252 H   0  0  0  0  0  0  0  0  0  0  0  0  # atno 10167 bound_to 10162
  156.0038  130.4626  150.4062 H   0  0  0  0  0  0  0  0  0  0  0  0  # atno 10718 bound_to 10713
  154.1555  135.2812  155.3123 H   0  0  0  0  0  0  0  0  0  0  0  0  # atno 10763 bound_to 10752
  154.6186  135.5475  153.7553 H   0  0  0  0  0  0  0  0  0  0  0  0  # atno 10764 bound_to 10752
  153.0208  135.6433  154.1698 H   0  0  0  0  0  0  0  0  0  0  0  0  # atno 10765 bound_to 10752
  141.1663  133.7047  156.7913 H   0  0  0  0  0  0  0  0  0  0  0  0  # atno 11005 bound_to 11000
  146.3520  140.1190  142.8601 LP  0  0  0  0  0  0  0  0  0  0  0  0  # atno 17320 bound_to 7965
  145.0724  140.9165  143.4874 LP  0  0  0  0  0  0  0  0  0  0  0  0  # atno 17321 bound_to 7965
  139.9588  144.6572  150.8100 LP  0  0  0  0  0  0  0  0  0  0  0  0  # atno 17342 bound_to 10162
  140.7597  143.3135  151.2788 LP  0  0  0  0  0  0  0  0  0  0  0  0  # atno 17343 bound_to 10162
  157.2128  131.0464  151.2590 LP  0  0  0  0  0  0  0  0  0  0  0  0  # atno 17370 bound_to 10713
  157.3873  130.7263  149.6672 LP  0  0  0  0  0  0  0  0  0  0  0  0  # atno 17371 bound_to 10713
  140.2323  134.8676  157.3489 LP  0  0  0  0  0  0  0  0  0  0  0  0  # atno 17394 bound_to 11000
  140.1878  134.4409  155.7733 LP  0  0  0  0  0  0  0  0  0  0  0  0  # atno 17395 bound_to 11000

$$$$
