AV-unprocessed.smi:2781|AV-procd|sdf|10720|dock2
  -GOLD-   2272015153D 1   1.00000     0.00000
 Structure written by MMmdl.
 35 38  0  0  0  0  0  0  0  0  1 V2000
  145.8864  138.9921  153.3706 O   0  0  0  0  0  0  0  0  0  0  0  0
  146.7418  138.1951  152.9838 C   0  0  0  0  0  0  0  0  0  0  0  0
  148.0705  138.3562  153.1162 N   0  0  0  0  0  0  0  0  0  0  0  0
  148.7693  139.4397  153.7123 C   0  0  0  0  0  0  0  0  0  0  0  0
  150.0980  139.1530  154.1004 C   0  0  0  0  0  0  0  0  0  0  0  0
  150.8775  140.1605  154.7013 C   0  0  0  0  0  0  0  0  0  0  0  0
  150.3059  141.4299  154.8980 C   0  0  0  0  0  0  0  0  0  0  0  0
  151.0166  142.4301  155.4707 F   0  0  0  0  0  0  0  0  0  0  0  0
  148.9767  141.6339  154.4837 C   0  0  0  0  0  0  0  0  0  0  0  0
  148.2285  140.6688  153.9079 N   0  0  0  0  0  0  0  0  0  0  0  0
  146.4558  137.0397  152.3678 N   0  0  0  0  0  0  0  0  0  0  0  0
  145.1461  136.5574  152.0654 C   0  0  2  0  0  0  0  0  0  0  0  0
  144.6532  135.2309  152.6323 C   0  0  2  0  0  0  0  0  0  0  0  0
  145.4691  134.0117  153.0689 C   0  0  1  0  0  0  0  0  0  0  0  0
  144.7680  132.7625  152.4928 C   0  0  0  0  0  0  0  0  0  0  0  0
  145.0757  132.8778  150.9775 C   0  0  0  0  0  0  0  0  0  0  0  0
  145.9081  134.1764  150.9066 C   0  0  2  0  0  0  0  0  0  0  0  0
  146.7209  134.0174  152.1914 C   0  0  0  0  0  0  0  0  0  0  0  0
  144.9511  135.3429  151.1651 C   0  0  2  0  0  0  0  0  0  0  0  0
  148.6498  137.6166  152.7473 H   0  0  0  0  0  0  0  0  0  0  0  0
  150.5206  138.1716  153.9409 H   0  0  0  0  0  0  0  0  0  0  0  0
  151.8948  139.9617  155.0047 H   0  0  0  0  0  0  0  0  0  0  0  0
  148.5016  142.5948  154.6163 H   0  0  0  0  0  0  0  0  0  0  0  0
  147.2259  136.4510  152.0863 H   0  0  0  0  0  0  0  0  0  0  0  0
  144.3762  137.3214  151.9671 H   0  0  0  0  0  0  0  0  0  0  0  0
  143.6083  135.2103  152.9368 H   0  0  0  0  0  0  0  0  0  0  0  0
  145.6469  133.9821  154.1440 H   0  0  0  0  0  0  0  0  0  0  0  0
  145.1951  131.8475  152.9056 H   0  0  0  0  0  0  0  0  0  0  0  0
  143.6973  132.7547  152.7004 H   0  0  0  0  0  0  0  0  0  0  0  0
  145.6558  132.0201  150.6343 H   0  0  0  0  0  0  0  0  0  0  0  0
  144.1700  132.9318  150.3719 H   0  0  0  0  0  0  0  0  0  0  0  0
  146.4896  134.2982  149.9926 H   0  0  0  0  0  0  0  0  0  0  0  0
  147.4286  134.8153  152.3961 H   0  0  0  0  0  0  0  0  0  0  0  0
  147.2810  133.0807  152.2336 H   0  0  0  0  0  0  0  0  0  0  0  0
  144.1071  135.3979  150.4796 H   0  0  0  0  0  0  0  0  0  0  0  0
  1  2  2  0  0  0  0
  2  3  1  0  0  0  0
  2 11  1  0  0  0  0
  3  4  1  0  0  0  0
  3 20  1  0  0  0  0
  4 10  1  0  0  0  0
  4  5  2  0  0  0  0
  5  6  1  0  0  0  0
  5 21  1  0  0  0  0
  6  7  2  0  0  0  0
  6 22  1  0  0  0  0
  7  8  1  0  0  0  0
  7  9  1  0  0  0  0
  9 10  2  0  0  0  0
  9 23  1  0  0  0  0
 11 12  1  0  0  0  0
 11 24  1  0  0  0  0
 12 19  1  0  0  0  0
 12 13  1  0  0  0  0
 12 25  1  0  0  0  0
 13 19  1  0  0  0  0
 13 14  1  0  0  0  0
 13 26  1  0  0  0  0
 14 18  1  0  0  0  0
 14 15  1  0  0  0  0
 14 27  1  0  0  0  0
 15 16  1  0  0  0  0
 15 28  1  0  0  0  0
 15 29  1  0  0  0  0
 16 17  1  0  0  0  0
 16 30  1  0  0  0  0
 16 31  1  0  0  0  0
 17 18  1  0  0  0  0
 17 19  1  0  0  0  0
 17 32  1  0  0  0  0
 18 33  1  0  0  0  0
 18 34  1  0  0  0  0
 19 35  1  0  0  0  0
M  END
> <s_m_source_file>
AV-unprocessed.smi

> <i_m_source_file_index>
2781

> <i_lp_mmshare_version>
43012

> <i_f3d_flags>
0

> <s_epik_input>
bjFbY0hdYyhGKVtjSF1bY0hdYzFbTkhdQyg9TylbTkhdW0NASF0yW0NAQEhdM1tDQEhdKFtDSDJdNClbQ0gyXVtDSDJdW0NASF00W0NASF0yMw==

> <s_epik_cmdline>
J2VwaWtfcHl0aG9uJywgJy1waCcsICc3LjAnLCAnLXRuJywgJzgnLCAnLW1hJywgJzIwMCcsICctbWV0YWxfYmluZGluZycsICctaW1hZScsICc8aW5maWxlLm1hZT4nLCAnLW9tYWUnLCAnPG91dGZpbGUubWFlPic=

> <r_lp_tautomer_probability>
1

> <r_epik_Ionization_Penalty>
4.05776e-05

> <r_epik_Ionization_Penalty_Charging>
0

> <r_epik_Ionization_Penalty_Neutral>
4.05776e-05

> <r_epik_State_Penalty>
-0

> <r_epik_Charging_Adjusted_Penalty>
0

> <i_epik_Tot_Q>
0

> <i_epik_Tot_abs_Q>
0

> <r_epik_Metal_State_Penalty>
-0

> <b_epik_Metal_Only>
0

> <s_lp_Force_Field>
OPLS_2005

> <r_lp_Energy>
83.3371

> <b_lp_Chiralities_Consistent>
1

> <s_lp_Variant>
AV-unprocessed.smi:2781-4

> <Gold.Version>
5.8.1

> <Gold.Id.Protein>
6NUR|6NUR_protein|mol2

> <Gold.PLP.Fitness>
39.9940

> <Gold.PLP.PLP>
-31.2112

> <Gold.PLP.part.hbond>
-2.2819

> <Gold.PLP.part.metal>
0.0000

> <Gold.PLP.part.buried>
-1.0213

> <Gold.PLP.part.nonpolar>
-27.1161

> <Gold.PLP.part.repulsive>
1.1166

> <Gold.PLP.ligand.clash>
0.0000

> <Gold.PLP.ligand.torsion>
0.1335

> <Gold.PLP.Chemscore.Hbond>
2.0000

> <Gold.PLP.Chemscore.CHOScore>
1.0000

> <Gold.PLP.Chemscore.Metal>
0.0000

> <Gold.Chemscore.Hbonds>
donor molecule, donor type, donor heavy atom, donor atom, acceptor molecule, acceptor atom, score
      L1  H     3    20       P1  7948  1.00
      L1  H    11    24       P1  7948  0.99
      L1  C     9    23       P1  8028  1.00

> <Gold.PLP.Chemscore.Internal.Correction>
0.0498

> <Gold.Rescore>
     Score         DG    S(hbond)    S(metal)    S(lipo)     H(rot)  DE(clash)    DE(int)     intcor
     14.74     -17.42       1.95        0.00      68.38       1.00       1.35       1.32       ----

> <Gold.Chemscore.Fitness>
14.7432

> <Gold.Chemscore.DG>
-17.4213

> <Gold.Chemscore.ZeroCoef>
-5.4800

> <Gold.Chemscore.Hbond>
1.9463

> <Gold.Chemscore.Metal>
0.0000

> <Gold.Chemscore.Lipo>
68.3809

> <Gold.Chemscore.Internal_Hbond>
0.0000

> <Gold.Chemscore.DEClash>
1.3541

> <Gold.Chemscore.DEInternal>
1.3240

> <Gold.Chemscore.Rot>
1.0000

> <Gold.Chemscore.Internal.Correction>
   9.000000E+99

> <Gold.Chemscore.Hbonds>
donor molecule, donor type, donor heavy atom, donor atom, acceptor molecule, acceptor atom, score
      L1  H     3    20       P1  7948  0.98
      L1  H    11    24       P1  7948  0.94

> <Gold.Chemscore.Hbond.Weighted>
-6.5007

> <Gold.Chemscore.Metal.Weighted>
-0.0000

> <Gold.Chemscore.Lipo.Weighted>
-8.0006

> <Gold.Chemscore.Internal_Hbond.Weighted>
0.0000

> <Gold.Chemscore.DEClash.Weighted>
1.3541

> <Gold.Chemscore.DEInternal.Weighted>
1.3240

> <Gold.Chemscore.Rot.Weighted>
2.5600

> <Gold.Chemscore.Internal.Correction.Weighted>
   9.000000E+99

> <Gold.Protein.RotatedTorsions>
[ 6907 6896 6895 6894 ] final -146.22 input  -60.11 | X-H torsion
[ 7974 7965 7964 7962 ] final  176.87 input  175.53 | X-H torsion
[ 8008 7997 7996 7995 ] final   23.26 input   59.86 | X-H torsion
[ 10167 10162 10161 10158 ] final  166.07 input  -65.29 | X-H torsion
[ 10718 10713 10712 10709 ] final  127.82 input   66.30 | X-H torsion
[ 10763 10752 10751 10750 ] final  -25.89 input  -60.55 | X-H torsion
[ 11005 11000 10999 10996 ] final  -85.45 input  -57.11 | X-H torsion

> <Gold.Protein.ActiveResidues>
 VAL166  LYS551  ARG553  GLY616  TRP617  ASP618  TYR619  PRO620  LYS621  CYS622 
 ASP623  PHE694  ASN695  SER759  ASP760  ASP761  ALA762  ILE779  LEU786  VAL792 
 PHE793  MET794  SER795  GLU796  ALA797  LYS798  CYS799  TRP800  GLU811  SER814 

> <Gold.Protein.RotatedAtoms>
  151.1386  133.4987  159.2597 H   0  0  0  0  0  0  0  0  0  0  0  0  # atno 6907 bound_to 6896
  151.1680  135.0304  159.8749 H   0  0  0  0  0  0  0  0  0  0  0  0  # atno 6908 bound_to 6896
  152.5462  134.1252  159.8469 H   0  0  0  0  0  0  0  0  0  0  0  0  # atno 6909 bound_to 6896
  144.7177  140.0161  143.6440 H   0  0  0  0  0  0  0  0  0  0  0  0  # atno 7974 bound_to 7965
  154.9782  140.3098  155.4958 H   0  0  0  0  0  0  0  0  0  0  0  0  # atno 8008 bound_to 7997
  156.2957  140.2271  156.4818 H   0  0  0  0  0  0  0  0  0  0  0  0  # atno 8009 bound_to 7997
  154.7814  140.0445  157.1118 H   0  0  0  0  0  0  0  0  0  0  0  0  # atno 8010 bound_to 7997
  139.4917  144.4066  151.9348 H   0  0  0  0  0  0  0  0  0  0  0  0  # atno 10167 bound_to 10162
  157.5299  131.1098  150.9025 H   0  0  0  0  0  0  0  0  0  0  0  0  # atno 10718 bound_to 10713
  153.7072  135.6953  153.5047 H   0  0  0  0  0  0  0  0  0  0  0  0  # atno 10763 bound_to 10752
  153.2299  135.4341  155.0583 H   0  0  0  0  0  0  0  0  0  0  0  0  # atno 10764 bound_to 10752
  154.8326  135.3481  154.6609 H   0  0  0  0  0  0  0  0  0  0  0  0  # atno 10765 bound_to 10752
  141.1641  133.7400  156.9016 H   0  0  0  0  0  0  0  0  0  0  0  0  # atno 11005 bound_to 11000
  146.0219  139.3258  143.0808 LP  0  0  0  0  0  0  0  0  0  0  0  0  # atno 17320 bound_to 7965
  145.8558  140.9503  143.0726 LP  0  0  0  0  0  0  0  0  0  0  0  0  # atno 17321 bound_to 7965
  140.3506  144.3093  150.5950 LP  0  0  0  0  0  0  0  0  0  0  0  0  # atno 17342 bound_to 10162
  140.5488  143.2210  151.7962 LP  0  0  0  0  0  0  0  0  0  0  0  0  # atno 17343 bound_to 10162
  156.9609  130.5455  149.5286 LP  0  0  0  0  0  0  0  0  0  0  0  0  # atno 17370 bound_to 10713
  156.0415  130.5497  150.8781 LP  0  0  0  0  0  0  0  0  0  0  0  0  # atno 17371 bound_to 10713
  140.1578  134.9186  157.2676 LP  0  0  0  0  0  0  0  0  0  0  0  0  # atno 17394 bound_to 11000
  140.2646  134.3531  155.7394 LP  0  0  0  0  0  0  0  0  0  0  0  0  # atno 17395 bound_to 11000

$$$$
