AV-unprocessed.smi:3163|AV-procd|sdf|12076|dock3
  -GOLD-   2272017503D 1   1.00000     0.00000
 Structure written by MMmdl.
 37 38  0  0  0  0  0  0  0  0  3 V2000
  143.6906  132.4355  149.5285 C   0  0  0  0  0  0  0  0  0  0  0  0
  143.6958  133.7130  150.2717 N   0  3  2  0  0  0  0  0  0  0  0  0
  144.3252  134.8349  149.5424 C   0  0  0  0  0  0  0  0  0  0  0  0
  144.9094  135.7415  150.6221 C   0  0  0  0  0  0  0  0  0  0  0  0
  145.3829  134.7415  151.6733 C   0  0  1  0  0  0  0  0  0  0  0  0
  145.6052  135.3582  153.0680 C   0  0  0  0  0  0  0  0  0  0  0  0
  146.6278  136.3996  153.0568 N   0  0  0  0  0  0  0  0  0  0  0  0
  146.5022  137.6071  153.6263 C   0  0  0  0  0  0  0  0  0  0  0  0
  145.4890  137.9697  154.2226 O   0  0  0  0  0  0  0  0  0  0  0  0
  147.6181  138.3397  153.4644 N   0  0  0  0  0  0  0  0  0  0  0  0
  147.8964  139.6622  153.9091 C   0  0  0  0  0  0  0  0  0  0  0  0
  149.2208  139.9423  154.3138 C   0  0  0  0  0  0  0  0  0  0  0  0
  149.5564  141.2393  154.7528 C   0  0  0  0  0  0  0  0  0  0  0  0
  148.6142  142.2057  154.7767 N   0  3  0  0  0  0  0  0  0  0  0  0
  147.3389  141.9907  154.3892 C   0  0  0  0  0  0  0  0  0  0  0  0
  146.9441  140.7137  153.9403 C   0  0  0  0  0  0  0  0  0  0  0  0
  144.3139  133.6391  151.6169 C   0  0  0  0  0  0  0  0  0  0  0  0
  144.7065  132.0830  149.3450 H   0  0  0  0  0  0  0  0  0  0  0  0
  143.1894  132.5568  148.5678 H   0  0  0  0  0  0  0  0  0  0  0  0
  143.1574  131.6691  150.0918 H   0  0  0  0  0  0  0  0  0  0  0  0
  145.1315  134.4617  148.9086 H   0  0  0  0  0  0  0  0  0  0  0  0
  143.6077  135.3502  148.9032 H   0  0  0  0  0  0  0  0  0  0  0  0
  145.7123  136.3785  150.2495 H   0  0  0  0  0  0  0  0  0  0  0  0
  144.1286  136.3845  151.0310 H   0  0  0  0  0  0  0  0  0  0  0  0
  146.3234  134.3165  151.3174 H   0  0  0  0  0  0  0  0  0  0  0  0
  144.6687  135.7644  153.4541 H   0  0  0  0  0  0  0  0  0  0  0  0
  145.9175  134.5869  153.7727 H   0  0  0  0  0  0  0  0  0  0  0  0
  147.4981  136.1769  152.5958 H   0  0  0  0  0  0  0  0  0  0  0  0
  148.3849  137.8728  153.0026 H   0  0  0  0  0  0  0  0  0  0  0  0
  149.9768  139.1707  154.2937 H   0  0  0  0  0  0  0  0  0  0  0  0
  150.5433  141.5305  155.0817 H   0  0  0  0  0  0  0  0  0  0  0  0
  146.6769  142.8423  154.4447 H   0  0  0  0  0  0  0  0  0  0  0  0
  145.9228  140.5764  153.6217 H   0  0  0  0  0  0  0  0  0  0  0  0
  143.5308  133.8173  152.3546 H   0  0  0  0  0  0  0  0  0  0  0  0
  144.7454  132.6595  151.8284 H   0  0  0  0  0  0  0  0  0  0  0  0
  142.7314  133.9737  150.4218 H   0  0  0  0  0  0  0  0  0  0  0  0
  148.8774  143.1383  155.0969 H   0  0  0  0  0  0  0  0  0  0  0  0
  1  2  1  0  0  0  0
  1 18  1  0  0  0  0
  1 19  1  0  0  0  0
  1 20  1  0  0  0  0
  2 17  1  0  0  0  0
  2  3  1  0  0  0  0
  2 36  1  0  0  0  0
  3  4  1  0  0  0  0
  3 21  1  0  0  0  0
  3 22  1  0  0  0  0
  4  5  1  0  0  0  0
  4 23  1  0  0  0  0
  4 24  1  0  0  0  0
  5  6  1  0  0  0  0
  5 17  1  0  0  0  0
  5 25  1  0  0  0  0
  6  7  1  0  0  0  0
  6 26  1  0  0  0  0
  6 27  1  0  0  0  0
  7  8  1  0  0  0  0
  7 28  1  0  0  0  0
  8  9  2  0  0  0  0
  8 10  1  0  0  0  0
 10 11  1  0  0  0  0
 10 29  1  0  0  0  0
 11 16  1  0  0  0  0
 11 12  2  0  0  0  0
 12 13  1  0  0  0  0
 12 30  1  0  0  0  0
 13 14  2  0  0  0  0
 13 31  1  0  0  0  0
 14 15  1  0  0  0  0
 14 37  1  0  0  0  0
 15 16  2  0  0  0  0
 15 32  1  0  0  0  0
 16 33  1  0  0  0  0
 17 34  1  0  0  0  0
 17 35  1  0  0  0  0
M  CHG  1   2   1
M  CHG  1  14   1
M  END
> <s_m_source_file>
AV-unprocessed.smi

> <i_m_source_file_index>
3163

> <i_lp_mmshare_version>
43012

> <i_f3d_flags>
0

> <s_epik_input>
W0NIM11OMVtDSDJdW0NIMl1bQ0BIXShbQ0gyXTEpW0NIMl1bTkhdQyg9TylbTkhdYzJbY0hdW2NIXW5bY0hdW2NIXTI=

> <s_epik_cmdline>
J2VwaWtfcHl0aG9uJywgJy1waCcsICc3LjAnLCAnLXRuJywgJzgnLCAnLW1hJywgJzIwMCcsICctbWV0YWxfYmluZGluZycsICctaW1hZScsICc8aW5maWxlLm1hZT4nLCAnLW9tYWUnLCAnPG91dGZpbGUubWFlPic=

> <r_epik_Ionization_Penalty>
1.09034

> <r_epik_Ionization_Penalty_Charging>
1.09032

> <r_epik_Ionization_Penalty_Neutral>
1.86664e-05

> <r_epik_State_Penalty>
1.14521

> <r_epik_Charging_Adjusted_Penalty>
2.23553

> <i_epik_Tot_Q>
2

> <i_epik_Tot_abs_Q>
2

> <r_epik_Metal_State_Penalty>
1.23399

> <b_epik_Metal_Only>
0

> <s_lp_Force_Field>
OPLS_2005

> <r_lp_Energy>
39.3884

> <b_lp_Chiralities_Consistent>
1

> <s_lp_Variant>
AV-unprocessed.smi:3163-6

> <Gold.Version>
5.8.1

> <Gold.Id.Protein>
6NUR|6NUR_protein|mol2

> <Gold.PLP.Fitness>
45.8624

> <Gold.PLP.PLP>
-29.0354

> <Gold.PLP.part.hbond>
-4.0000

> <Gold.PLP.part.metal>
0.0000

> <Gold.PLP.part.buried>
1.6159

> <Gold.PLP.part.nonpolar>
-26.6825

> <Gold.PLP.part.repulsive>
0.3946

> <Gold.PLP.ligand.clash>
0.0000

> <Gold.PLP.ligand.torsion>
0.3311

> <Gold.PLP.Chemscore.Hbond>
5.8294

> <Gold.PLP.Chemscore.CHOScore>
0.0000

> <Gold.PLP.Chemscore.Metal>
0.0000

> <Gold.Chemscore.Hbonds>
donor molecule, donor type, donor heavy atom, donor atom, acceptor molecule, acceptor atom, score
      L1  H     2    36       P1 10186  1.82
      L1  H     7    28       P1  7948  1.00
      L1  H    10    29       P1  7948  0.86
      L1  H    14    37       P1  8028  2.00

> <Gold.PLP.Chemscore.Internal.Correction>
0.0009

> <Gold.Rescore>
     Score         DG    S(hbond)    S(metal)    S(lipo)     H(rot)  DE(clash)    DE(int)     intcor
     22.13     -24.21       3.92        0.00      76.04       1.27       1.74       0.34       ----

> <Gold.Chemscore.Fitness>
22.1330

> <Gold.Chemscore.DG>
-24.2146

> <Gold.Chemscore.ZeroCoef>
-5.4800

> <Gold.Chemscore.Hbond>
3.9205

> <Gold.Chemscore.Metal>
0.0000

> <Gold.Chemscore.Lipo>
76.0386

> <Gold.Chemscore.Internal_Hbond>
0.0000

> <Gold.Chemscore.DEClash>
1.7394

> <Gold.Chemscore.DEInternal>
0.3422

> <Gold.Chemscore.Rot>
1.2721

> <Gold.Chemscore.Internal.Correction>
   9.000000E+99

> <Gold.Chemscore.Hbonds>
donor molecule, donor type, donor heavy atom, donor atom, acceptor molecule, acceptor atom, score
      L1  H     2    36       P1 10186  0.81
      L1  H     7    28       P1  7948  0.99
      L1  H    10    29       P1  7948  0.79
      L1  H    14    37       P1  8028  1.00

> <Gold.Chemscore.Hbond.Weighted>
-13.0946

> <Gold.Chemscore.Metal.Weighted>
-0.0000

> <Gold.Chemscore.Lipo.Weighted>
-8.8965

> <Gold.Chemscore.Internal_Hbond.Weighted>
0.0000

> <Gold.Chemscore.DEClash.Weighted>
1.7394

> <Gold.Chemscore.DEInternal.Weighted>
0.3422

> <Gold.Chemscore.Rot.Weighted>
3.2565

> <Gold.Chemscore.Internal.Correction.Weighted>
   9.000000E+99

> <Gold.Protein.RotatedTorsions>
[ 6907 6896 6895 6894 ] final  119.63 input  -60.11 | X-H torsion
[ 7974 7965 7964 7962 ] final   88.11 input  175.53 | X-H torsion
[ 8008 7997 7996 7995 ] final  159.79 input   59.86 | X-H torsion
[ 10167 10162 10161 10158 ] final  173.88 input  -65.29 | X-H torsion
[ 10718 10713 10712 10709 ] final  -56.67 input   66.30 | X-H torsion
[ 10763 10752 10751 10750 ] final   95.17 input  -60.55 | X-H torsion
[ 11005 11000 10999 10996 ] final -109.87 input  -57.11 | X-H torsion

> <Gold.Protein.ActiveResidues>
 VAL166  LYS551  ARG553  GLY616  TRP617  ASP618  TYR619  PRO620  LYS621  CYS622 
 ASP623  PHE694  ASN695  SER759  ASP760  ASP761  ALA762  ILE779  LEU786  VAL792 
 PHE793  MET794  SER795  GLU796  ALA797  LYS798  CYS799  TRP800  GLU811  SER814 

> <Gold.Protein.RotatedAtoms>
  152.4457  133.7532  159.6705 H   0  0  0  0  0  0  0  0  0  0  0  0  # atno 6907 bound_to 6896
  150.8357  133.8007  159.3087 H   0  0  0  0  0  0  0  0  0  0  0  0  # atno 6908 bound_to 6896
  151.5648  135.1067  160.0033 H   0  0  0  0  0  0  0  0  0  0  0  0  # atno 6909 bound_to 6896
  145.5500  139.2295  143.2518 H   0  0  0  0  0  0  0  0  0  0  0  0  # atno 7974 bound_to 7965
  156.2215  140.1821  156.7464 H   0  0  0  0  0  0  0  0  0  0  0  0  # atno 8008 bound_to 7997
  154.5873  140.0656  156.9218 H   0  0  0  0  0  0  0  0  0  0  0  0  # atno 8009 bound_to 7997
  155.2397  140.3321  155.4296 H   0  0  0  0  0  0  0  0  0  0  0  0  # atno 8010 bound_to 7997
  139.5123  144.3210  152.0203 H   0  0  0  0  0  0  0  0  0  0  0  0  # atno 10167 bound_to 10162
  156.1271  130.4162  150.0336 H   0  0  0  0  0  0  0  0  0  0  0  0  # atno 10718 bound_to 10713
  153.2501  135.4263  155.0789 H   0  0  0  0  0  0  0  0  0  0  0  0  # atno 10763 bound_to 10752
  154.8378  135.3424  154.6525 H   0  0  0  0  0  0  0  0  0  0  0  0  # atno 10764 bound_to 10752
  153.6946  135.7032  153.5137 H   0  0  0  0  0  0  0  0  0  0  0  0  # atno 10765 bound_to 10752
  141.0823  133.9198  157.2261 H   0  0  0  0  0  0  0  0  0  0  0  0  # atno 11005 bound_to 11000
  146.1923  140.6322  142.9140 LP  0  0  0  0  0  0  0  0  0  0  0  0  # atno 17320 bound_to 7965
  144.7534  140.5248  143.6786 LP  0  0  0  0  0  0  0  0  0  0  0  0  # atno 17321 bound_to 7965
  140.2652  144.4024  150.6171 LP  0  0  0  0  0  0  0  0  0  0  0  0  # atno 17342 bound_to 10162
  140.6129  143.2170  151.6851 LP  0  0  0  0  0  0  0  0  0  0  0  0  # atno 17343 bound_to 10162
  156.8258  130.9375  151.3639 LP  0  0  0  0  0  0  0  0  0  0  0  0  # atno 17370 bound_to 10713
  157.6451  130.8838  149.9524 LP  0  0  0  0  0  0  0  0  0  0  0  0  # atno 17371 bound_to 10713
  139.9638  135.0147  156.9333 LP  0  0  0  0  0  0  0  0  0  0  0  0  # atno 17394 bound_to 11000
  140.5440  134.0692  155.7349 LP  0  0  0  0  0  0  0  0  0  0  0  0  # atno 17395 bound_to 11000

$$$$
