AV-unprocessed.smi:22|AV-procd|sdf|170|dock6
  -GOLD-   2262015423D 1   1.00000     0.00000
 Structure written by MMmdl.
 56 59  0  0  0  0  0  0  0  0  2 V2000
  152.4223  144.1542  161.3855 C   0  0  0  0  0  0  0  0  0  0  0  0
  152.3052  143.1954  160.2568 N   0  3  1  0  0  0  0  0  0  0  0  0
  152.3622  143.9025  158.9474 C   0  0  0  0  0  0  0  0  0  0  0  0
  151.0957  144.7353  158.6910 C   0  0  0  0  0  0  0  0  0  0  0  0
  150.0358  143.8909  158.2952 O   0  0  0  0  0  0  0  0  0  0  0  0
  153.2301  142.0201  160.3250 C   0  0  0  0  0  0  0  0  0  0  0  0
  152.5311  140.7489  159.7848 C   0  0  0  0  0  0  0  0  0  0  0  0
  153.4568  139.5235  159.8349 C   0  0  0  0  0  0  0  0  0  0  0  0
  153.9617  139.3092  161.1898 N   0  0  0  0  0  0  0  0  0  0  0  0
  154.5380  138.1114  161.4654 C   0  0  0  0  0  0  0  0  0  0  0  0
  154.8614  137.2632  160.4525 N   0  0  0  0  0  0  0  0  0  0  0  0
  155.4383  136.0867  160.7153 C   0  0  0  0  0  0  0  0  0  0  0  0
  155.7707  135.5665  161.8978 N   0  0  0  0  0  0  0  0  0  0  0  0
  155.4418  136.4082  162.9189 C   0  0  0  0  0  0  0  0  0  0  0  0
  154.8310  137.6880  162.7924 C   0  0  0  0  0  0  0  0  0  0  0  0
  154.6426  138.2484  164.0504 N   0  0  0  0  0  0  0  0  0  0  0  0
  155.1211  137.3545  164.8723 C   0  0  0  0  0  0  0  0  0  0  0  0
  155.6155  136.2152  164.2784 N   0  0  0  0  0  0  0  0  0  0  0  0
  156.1972  135.0647  164.9525 C   0  0  0  0  0  0  0  0  0  0  0  0
  155.1421  134.1236  165.5787 C   0  0  1  0  0  0  0  0  0  0  0  0
  154.2400  134.8969  166.3515 O   0  0  0  0  0  0  0  0  0  0  0  0
  154.3420  133.3159  164.5610 C   0  0  0  0  0  0  0  0  0  0  0  0
  154.0320  132.0320  165.3171 C   0  0  0  0  0  0  0  0  0  0  0  0
  155.2384  131.7902  166.0209 O   0  0  0  0  0  0  0  0  0  0  0  0
  155.7511  133.0354  166.4853 C   0  0  0  0  0  0  0  0  0  0  0  0
  154.6454  140.4594  161.7749 C   0  0  0  0  0  0  0  0  0  0  0  0
  153.7459  141.7060  161.7533 C   0  0  0  0  0  0  0  0  0  0  0  0
  153.4444  144.5237  161.4804 H   0  0  0  0  0  0  0  0  0  0  0  0
  152.1252  143.6985  162.3298 H   0  0  0  0  0  0  0  0  0  0  0  0
  151.7695  145.0149  161.2419 H   0  0  0  0  0  0  0  0  0  0  0  0
  153.2439  144.5451  158.9216 H   0  0  0  0  0  0  0  0  0  0  0  0
  152.4937  143.2093  158.1173 H   0  0  0  0  0  0  0  0  0  0  0  0
  150.7992  145.3093  159.5688 H   0  0  0  0  0  0  0  0  0  0  0  0
  151.2794  145.4510  157.8894 H   0  0  0  0  0  0  0  0  0  0  0  0
  149.7959  144.1038  157.4057 H   0  0  0  0  0  0  0  0  0  0  0  0
  154.1000  142.2425  159.7042 H   0  0  0  0  0  0  0  0  0  0  0  0
  151.6360  140.5465  160.3753 H   0  0  0  0  0  0  0  0  0  0  0  0
  152.1905  140.8807  158.7589 H   0  0  0  0  0  0  0  0  0  0  0  0
  152.9084  138.6424  159.4982 H   0  0  0  0  0  0  0  0  0  0  0  0
  154.2962  139.6622  159.1520 H   0  0  0  0  0  0  0  0  0  0  0  0
  155.6669  135.4753  159.8548 H   0  0  0  0  0  0  0  0  0  0  0  0
  155.1198  137.4985  165.9432 H   0  0  0  0  0  0  0  0  0  0  0  0
  156.8046  134.5180  164.2300 H   0  0  0  0  0  0  0  0  0  0  0  0
  156.8856  135.4261  165.7179 H   0  0  0  0  0  0  0  0  0  0  0  0
  153.3633  134.5823  166.1912 H   0  0  0  0  0  0  0  0  0  0  0  0
  153.4520  133.8270  164.1913 H   0  0  0  0  0  0  0  0  0  0  0  0
  154.9653  133.0698  163.7009 H   0  0  0  0  0  0  0  0  0  0  0  0
  153.2140  132.1787  166.0242 H   0  0  0  0  0  0  0  0  0  0  0  0
  153.7764  131.2030  164.6569 H   0  0  0  0  0  0  0  0  0  0  0  0
  156.8399  133.0114  166.4297 H   0  0  0  0  0  0  0  0  0  0  0  0
  155.4824  133.1742  167.5339 H   0  0  0  0  0  0  0  0  0  0  0  0
  154.9532  140.2582  162.8006 H   0  0  0  0  0  0  0  0  0  0  0  0
  155.5579  140.6496  161.2084 H   0  0  0  0  0  0  0  0  0  0  0  0
  154.3251  142.5378  162.1543 H   0  0  0  0  0  0  0  0  0  0  0  0
  152.9032  141.5518  162.4290 H   0  0  0  0  0  0  0  0  0  0  0  0
  151.3751  142.8055  160.3198 H   0  0  0  0  0  0  0  0  0  0  0  0
  1  2  1  0  0  0  0
  1 28  1  0  0  0  0
  1 29  1  0  0  0  0
  1 30  1  0  0  0  0
  2  3  1  0  0  0  0
  2  6  1  0  0  0  0
  2 56  1  0  0  0  0
  3  4  1  0  0  0  0
  3 31  1  0  0  0  0
  3 32  1  0  0  0  0
  4  5  1  0  0  0  0
  4 33  1  0  0  0  0
  4 34  1  0  0  0  0
  5 35  1  0  0  0  0
  6 27  1  0  0  0  0
  6  7  1  0  0  0  0
  6 36  1  0  0  0  0
  7  8  1  0  0  0  0
  7 37  1  0  0  0  0
  7 38  1  0  0  0  0
  8  9  1  0  0  0  0
  8 39  1  0  0  0  0
  8 40  1  0  0  0  0
  9 10  1  0  0  0  0
  9 26  1  0  0  0  0
 10 15  1  0  0  0  0
 10 11  2  0  0  0  0
 11 12  1  0  0  0  0
 12 13  2  0  0  0  0
 12 41  1  0  0  0  0
 13 14  1  0  0  0  0
 14 18  1  0  0  0  0
 14 15  2  0  0  0  0
 15 16  1  0  0  0  0
 16 17  2  0  0  0  0
 17 18  1  0  0  0  0
 17 42  1  0  0  0  0
 18 19  1  0  0  0  0
 19 20  1  0  0  0  0
 19 43  1  0  0  0  0
 19 44  1  0  0  0  0
 20 25  1  0  0  0  0
 20 21  1  0  0  0  0
 20 22  1  0  0  0  0
 21 45  1  0  0  0  0
 22 23  1  0  0  0  0
 22 46  1  0  0  0  0
 22 47  1  0  0  0  0
 23 24  1  0  0  0  0
 23 48  1  0  0  0  0
 23 49  1  0  0  0  0
 24 25  1  0  0  0  0
 25 50  1  0  0  0  0
 25 51  1  0  0  0  0
 26 27  1  0  0  0  0
 26 52  1  0  0  0  0
 26 53  1  0  0  0  0
 27 54  1  0  0  0  0
 27 55  1  0  0  0  0
M  CHG  1   2   1
M  END
> <s_m_source_file>
AV-unprocessed.smi

> <i_m_source_file_index>
22

> <i_lp_mmshare_version>
43012

> <i_f3d_flags>
0

> <s_epik_input>
W09IXVtDSDJdW0NIMl1OKFtDSDNdKVtDSF0xW0NIMl1bQ0gyXU4oW0NIMl1bQ0gyXTEpYyhuW2NIXW4yKWMoYzIzKW5bY0hdbjNbQ0gyXVtDQEBdNChbT0hdKVtDSDJdW0NIMl1PW0NIMl00

> <s_epik_cmdline>
J2VwaWtfcHl0aG9uJywgJy1waCcsICc3LjAnLCAnLXRuJywgJzgnLCAnLW1hJywgJzIwMCcsICctbWV0YWxfYmluZGluZycsICctaW1hZScsICc8aW5maWxlLm1hZT4nLCAnLW9tYWUnLCAnPG91dGZpbGUubWFlPic=

> <r_lp_tautomer_probability>
1

> <r_epik_Ionization_Penalty>
0.00317524

> <r_epik_Ionization_Penalty_Charging>
0.00191487

> <r_epik_Ionization_Penalty_Neutral>
0.00126037

> <r_epik_State_Penalty>
-0

> <r_epik_Charging_Adjusted_Penalty>
0.00191487

> <i_epik_Tot_Q>
1

> <i_epik_Tot_abs_Q>
1

> <r_epik_Metal_State_Penalty>
-0

> <b_epik_Metal_Only>
0

> <s_lp_Force_Field>
OPLS_2005

> <r_lp_Energy>
47.7053

> <b_lp_Chiralities_Consistent>
1

> <s_lp_Variant>
AV-unprocessed.smi:22-2

> <Gold.Version>
5.8.1

> <Gold.Id.Protein>
6NUR|6NUR_protein|mol2

> <Gold.PLP.Fitness>
49.2266

> <Gold.PLP.PLP>
-48.8047

> <Gold.PLP.part.hbond>
-2.9012

> <Gold.PLP.part.metal>
0.0000

> <Gold.PLP.part.buried>
-5.1913

> <Gold.PLP.part.nonpolar>
-41.1608

> <Gold.PLP.part.repulsive>
0.0819

> <Gold.PLP.ligand.clash>
0.0000

> <Gold.PLP.ligand.torsion>
1.5684

> <Gold.PLP.Chemscore.Hbond>
1.0000

> <Gold.PLP.Chemscore.CHOScore>
0.0000

> <Gold.PLP.Chemscore.Metal>
0.0000

> <Gold.Chemscore.Hbonds>
donor molecule, donor type, donor heavy atom, donor atom, acceptor molecule, acceptor atom, score
      L1  H     5    35       P1  8028  0.98

> <Gold.PLP.Chemscore.Internal.Correction>
0.5588

> <Gold.Rescore>
     Score         DG    S(hbond)    S(metal)    S(lipo)     H(rot)  DE(clash)    DE(int)     intcor
      9.66     -11.35       0.88        0.00     107.17       3.76       0.23       1.46       ----

> <Gold.Chemscore.Fitness>
9.6554

> <Gold.Chemscore.DG>
-11.3500

> <Gold.Chemscore.ZeroCoef>
-5.4800

> <Gold.Chemscore.Hbond>
0.8839

> <Gold.Chemscore.Metal>
0.0000

> <Gold.Chemscore.Lipo>
107.1717

> <Gold.Chemscore.Internal_Hbond>
0.0000

> <Gold.Chemscore.DEClash>
0.2302

> <Gold.Chemscore.DEInternal>
1.4644

> <Gold.Chemscore.Rot>
3.7583

> <Gold.Chemscore.Internal.Correction>
   9.000000E+99

> <Gold.Chemscore.Hbonds>
donor molecule, donor type, donor heavy atom, donor atom, acceptor molecule, acceptor atom, score
      L1  H     5    35       P1  8028  0.46

> <Gold.Chemscore.Hbond.Weighted>
-2.9522

> <Gold.Chemscore.Metal.Weighted>
-0.0000

> <Gold.Chemscore.Lipo.Weighted>
-12.5391

> <Gold.Chemscore.Internal_Hbond.Weighted>
0.0000

> <Gold.Chemscore.DEClash.Weighted>
0.2302

> <Gold.Chemscore.DEInternal.Weighted>
1.4644

> <Gold.Chemscore.Rot.Weighted>
9.6213

> <Gold.Chemscore.Internal.Correction.Weighted>
   9.000000E+99

> <Gold.Protein.RotatedTorsions>
[ 6907 6896 6895 6894 ] final  -81.98 input  -60.11 | X-H torsion
[ 7974 7965 7964 7962 ] final -153.16 input  175.53 | X-H torsion
[ 8008 7997 7996 7995 ] final  -37.09 input   59.86 | X-H torsion
[ 10167 10162 10161 10158 ] final -123.96 input  -65.29 | X-H torsion
[ 10718 10713 10712 10709 ] final  140.98 input   66.30 | X-H torsion
[ 10763 10752 10751 10750 ] final   67.70 input  -60.55 | X-H torsion
[ 11005 11000 10999 10996 ] final -163.16 input  -57.11 | X-H torsion

> <Gold.Protein.ActiveResidues>
 VAL166  LYS551  ARG553  GLY616  TRP617  ASP618  TYR619  PRO620  LYS621  CYS622 
 ASP623  PHE694  ASN695  SER759  ASP760  ASP761  ALA762  ILE779  LEU786  VAL792 
 PHE793  MET794  SER795  GLU796  ALA797  LYS798  CYS799  TRP800  GLU811  SER814 

> <Gold.Protein.RotatedAtoms>
  150.6904  134.3735  159.5002 H   0  0  0  0  0  0  0  0  0  0  0  0  # atno 6907 bound_to 6896
  152.1547  134.8957  160.0555 H   0  0  0  0  0  0  0  0  0  0  0  0  # atno 6908 bound_to 6896
  152.0041  133.3802  159.4230 H   0  0  0  0  0  0  0  0  0  0  0  0  # atno 6909 bound_to 6896
  144.7755  140.4563  143.5876 H   0  0  0  0  0  0  0  0  0  0  0  0  # atno 7974 bound_to 7965
  154.4060  140.1613  156.2480 H   0  0  0  0  0  0  0  0  0  0  0  0  # atno 8008 bound_to 7997
  155.9144  140.3425  155.6101 H   0  0  0  0  0  0  0  0  0  0  0  0  # atno 8009 bound_to 7997
  155.7297  140.0779  157.2285 H   0  0  0  0  0  0  0  0  0  0  0  0  # atno 8010 bound_to 7997
  139.9979  143.5571  152.2315 H   0  0  0  0  0  0  0  0  0  0  0  0  # atno 10167 bound_to 10162
  157.3972  131.1012  151.0588 H   0  0  0  0  0  0  0  0  0  0  0  0  # atno 10718 bound_to 10713
  153.0199  135.5274  154.7020 H   0  0  0  0  0  0  0  0  0  0  0  0  # atno 10763 bound_to 10752
  154.6126  135.2880  155.0417 H   0  0  0  0  0  0  0  0  0  0  0  0  # atno 10764 bound_to 10752
  154.1433  135.6574  153.4999 H   0  0  0  0  0  0  0  0  0  0  0  0  # atno 10765 bound_to 10752
  140.6012  134.4945  157.5205 H   0  0  0  0  0  0  0  0  0  0  0  0  # atno 11005 bound_to 11000
  145.6198  139.1523  143.3029 LP  0  0  0  0  0  0  0  0  0  0  0  0  # atno 17320 bound_to 7965
  146.1932  140.6309  142.9136 LP  0  0  0  0  0  0  0  0  0  0  0  0  # atno 17321 bound_to 7965
  139.6292  144.7642  151.2572 LP  0  0  0  0  0  0  0  0  0  0  0  0  # atno 17342 bound_to 10162
  140.7430  143.6509  150.8250 LP  0  0  0  0  0  0  0  0  0  0  0  0  # atno 17343 bound_to 10162
  157.1600  130.6221  149.5608 LP  0  0  0  0  0  0  0  0  0  0  0  0  # atno 17370 bound_to 10713
  155.9813  130.4820  150.6822 LP  0  0  0  0  0  0  0  0  0  0  0  0  # atno 17371 bound_to 10713
  139.9231  134.8109  156.1149 LP  0  0  0  0  0  0  0  0  0  0  0  0  # atno 17394 bound_to 11000
  141.0870  133.6730  156.2459 LP  0  0  0  0  0  0  0  0  0  0  0  0  # atno 17395 bound_to 11000

$$$$
