AV-unprocessed.smi:1326|AV-procd|sdf|5476|dock8
  -GOLD-   22720 5 43D 1   1.00000     0.00000
 Structure written by MMmdl.
 38 38  0  0  0  0  0  0  0  0  2 V2000
  155.9823  133.5359  159.3637 C   0  0  0  0  0  0  0  0  0  0  0  0
  155.8502  135.0056  159.7013 C   0  0  0  0  0  0  0  0  0  0  0  0
  156.8936  135.6692  160.0267 N   0  0  0  0  0  0  0  0  0  0  0  0
  156.7758  137.0344  160.3392 C   0  0  0  0  0  0  0  0  0  0  0  0
  158.0658  137.7448  160.7103 C   0  0  0  0  0  0  0  0  0  0  0  0
  155.5671  137.6648  160.3016 C   0  0  0  0  0  0  0  0  0  0  0  0
  155.3851  139.1473  160.6284 C   0  0  0  0  0  0  0  0  0  0  0  0
  154.7664  140.0044  159.5221 C   0  0  0  0  0  0  0  0  0  0  0  0
  155.1566  139.8860  158.3605 O   0  0  0  0  0  0  0  0  0  0  0  0
  153.7892  140.8472  159.8907 N   0  0  0  0  0  0  0  0  0  0  0  0
  153.0397  141.7141  158.9903 C   0  0  0  0  0  0  0  0  0  0  0  0
  152.1675  142.7089  159.7779 C   0  0  0  0  0  0  0  0  0  0  0  0
  151.6947  143.9248  158.9555 C   0  0  0  0  0  0  0  0  0  0  0  0
  151.0456  145.0113  159.8293 C   0  0  0  0  0  0  0  0  0  0  0  0
  150.7277  143.4841  157.8459 C   0  0  0  0  0  0  0  0  0  0  0  0
  154.3879  136.8619  159.9302 C   0  0  0  0  0  0  0  0  0  0  0  0
  153.2708  137.3770  159.9015 O   0  0  0  0  0  0  0  0  0  0  0  0
  154.5851  135.5451  159.6377 N   0  5  0  0  0  0  0  0  0  0  0  0
  157.0302  133.2424  159.2868 H   0  0  0  0  0  0  0  0  0  0  0  0
  155.4980  133.3190  158.4110 H   0  0  0  0  0  0  0  0  0  0  0  0
  155.5118  132.9286  160.1373 H   0  0  0  0  0  0  0  0  0  0  0  0
  157.9761  138.2203  161.6872 H   0  0  0  0  0  0  0  0  0  0  0  0
  158.3054  138.5101  159.9719 H   0  0  0  0  0  0  0  0  0  0  0  0
  158.9031  137.0474  160.7539 H   0  0  0  0  0  0  0  0  0  0  0  0
  154.7605  139.2331  161.5177 H   0  0  0  0  0  0  0  0  0  0  0  0
  156.3353  139.5959  160.9199 H   0  0  0  0  0  0  0  0  0  0  0  0
  153.5361  140.8759  160.8686 H   0  0  0  0  0  0  0  0  0  0  0  0
  153.7628  142.2450  158.3721 H   0  0  0  0  0  0  0  0  0  0  0  0
  152.4274  141.1177  158.3119 H   0  0  0  0  0  0  0  0  0  0  0  0
  151.2901  142.1771  160.1496 H   0  0  0  0  0  0  0  0  0  0  0  0
  152.7079  143.0509  160.6620 H   0  0  0  0  0  0  0  0  0  0  0  0
  152.5667  144.3631  158.4684 H   0  0  0  0  0  0  0  0  0  0  0  0
  150.1932  144.6172  160.3834 H   0  0  0  0  0  0  0  0  0  0  0  0
  150.6881  145.8417  159.2198 H   0  0  0  0  0  0  0  0  0  0  0  0
  151.7511  145.4242  160.5496 H   0  0  0  0  0  0  0  0  0  0  0  0
  149.8296  143.0261  158.2620 H   0  0  0  0  0  0  0  0  0  0  0  0
  151.1949  142.7567  157.1814 H   0  0  0  0  0  0  0  0  0  0  0  0
  150.4164  144.3316  157.2349 H   0  0  0  0  0  0  0  0  0  0  0  0
  1  2  1  0  0  0  0
  1 19  1  0  0  0  0
  1 20  1  0  0  0  0
  1 21  1  0  0  0  0
  2 18  1  0  0  0  0
  2  3  2  0  0  0  0
  3  4  1  0  0  0  0
  4  5  1  0  0  0  0
  4  6  2  0  0  0  0
  5 22  1  0  0  0  0
  5 23  1  0  0  0  0
  5 24  1  0  0  0  0
  6  7  1  0  0  0  0
  6 16  1  0  0  0  0
  7  8  1  0  0  0  0
  7 25  1  0  0  0  0
  7 26  1  0  0  0  0
  8  9  2  0  0  0  0
  8 10  1  0  0  0  0
 10 11  1  0  0  0  0
 10 27  1  0  0  0  0
 11 12  1  0  0  0  0
 11 28  1  0  0  0  0
 11 29  1  0  0  0  0
 12 13  1  0  0  0  0
 12 30  1  0  0  0  0
 12 31  1  0  0  0  0
 13 14  1  0  0  0  0
 13 15  1  0  0  0  0
 13 32  1  0  0  0  0
 14 33  1  0  0  0  0
 14 34  1  0  0  0  0
 14 35  1  0  0  0  0
 15 36  1  0  0  0  0
 15 37  1  0  0  0  0
 15 38  1  0  0  0  0
 16 17  2  0  0  0  0
 16 18  1  0  0  0  0
M  CHG  1  18  -1
M  END
> <s_m_source_file>
AV-unprocessed.smi

> <i_m_source_file_index>
1326

> <i_lp_mmshare_version>
43012

> <i_f3d_flags>
0

> <s_epik_input>
W0NIM11jMW5jKFtDSDNdKWMoYyg9TylbbkhdMSlbQ0gyXUMoPU8pW05IXVtDSDJdW0NIMl1bQ0hdKFtDSDNdKVtDSDNd

> <s_epik_cmdline>
J2VwaWtfcHl0aG9uJywgJy1waCcsICc3LjAnLCAnLXRuJywgJzgnLCAnLW1hJywgJzIwMCcsICctbWV0YWxfYmluZGluZycsICctaW1hZScsICc8aW5maWxlLm1hZT4nLCAnLW9tYWUnLCAnPG91dGZpbGUubWFlPic=

> <r_lp_tautomer_probability>
0.839158

> <r_epik_Ionization_Penalty>
6.68288

> <r_epik_Ionization_Penalty_Charging>
7.3825e-08

> <r_epik_Ionization_Penalty_Neutral>
6.68288

> <r_epik_State_Penalty>
4.52336

> <r_epik_Charging_Adjusted_Penalty>
4.52336

> <i_epik_Tot_Q>
-1

> <i_epik_Tot_abs_Q>
1

> <r_epik_Metal_State_Penalty>
0.854958

> <b_epik_Metal_Only>
1

> <s_lp_Force_Field>
OPLS_2005

> <r_lp_Energy>
8.11969

> <b_lp_Chiralities_Consistent>
1

> <s_lp_Variant>
AV-unprocessed.smi:1326-3

> <Gold.Version>
5.8.1

> <Gold.Id.Protein>
6NUR|6NUR_protein|mol2

> <Gold.PLP.Fitness>
40.6169

> <Gold.PLP.PLP>
-32.3394

> <Gold.PLP.part.hbond>
-2.0000

> <Gold.PLP.part.metal>
0.0000

> <Gold.PLP.part.buried>
-4.2519

> <Gold.PLP.part.nonpolar>
-26.5445

> <Gold.PLP.part.repulsive>
0.0469

> <Gold.PLP.ligand.clash>
0.0000

> <Gold.PLP.ligand.torsion>
0.3374

> <Gold.PLP.Chemscore.Hbond>
2.9760

> <Gold.PLP.Chemscore.CHOScore>
0.0000

> <Gold.PLP.Chemscore.Metal>
0.0000

> <Gold.Chemscore.Hbonds>
donor molecule, donor type, donor heavy atom, donor atom, acceptor molecule, acceptor atom, score
      P1  H  6896  6909       L1    18  0.26

> <Gold.PLP.Chemscore.Internal.Correction>
0.0244

> <Gold.Rescore>
     Score         DG    S(hbond)    S(metal)    S(lipo)     H(rot)  DE(clash)    DE(int)     intcor
     15.88     -16.09       1.90        0.00      76.64       1.83       0.02       0.20       ----

> <Gold.Chemscore.Fitness>
15.8788

> <Gold.Chemscore.DG>
-16.0917

> <Gold.Chemscore.ZeroCoef>
-5.4800

> <Gold.Chemscore.Hbond>
1.8952

> <Gold.Chemscore.Metal>
0.0000

> <Gold.Chemscore.Lipo>
76.6406

> <Gold.Chemscore.Internal_Hbond>
0.0000

> <Gold.Chemscore.DEClash>
0.0172

> <Gold.Chemscore.DEInternal>
0.1956

> <Gold.Chemscore.Rot>
1.8302

> <Gold.Chemscore.Internal.Correction>
   9.000000E+99

> <Gold.Chemscore.Hbonds>
donor molecule, donor type, donor heavy atom, donor atom, acceptor molecule, acceptor atom, score
      P1  H  6896  6909       L1    18  0.03
      P1  H  7997  8008       L1     9  0.03

> <Gold.Chemscore.Hbond.Weighted>
-6.3301

> <Gold.Chemscore.Metal.Weighted>
-0.0000

> <Gold.Chemscore.Lipo.Weighted>
-8.9669

> <Gold.Chemscore.Internal_Hbond.Weighted>
0.0000

> <Gold.Chemscore.DEClash.Weighted>
0.0172

> <Gold.Chemscore.DEInternal.Weighted>
0.1956

> <Gold.Chemscore.Rot.Weighted>
4.6854

> <Gold.Chemscore.Internal.Correction.Weighted>
   9.000000E+99

> <Gold.Protein.RotatedTorsions>
[ 6907 6896 6895 6894 ] final  171.38 input  -60.11 | X-H torsion
[ 7974 7965 7964 7962 ] final -130.42 input  175.53 | X-H torsion
[ 8008 7997 7996 7995 ] final -146.18 input   59.86 | X-H torsion
[ 10167 10162 10161 10158 ] final   34.15 input  -65.29 | X-H torsion
[ 10718 10713 10712 10709 ] final  134.51 input   66.30 | X-H torsion
[ 10763 10752 10751 10750 ] final   38.72 input  -60.55 | X-H torsion
[ 11005 11000 10999 10996 ] final  106.77 input  -57.11 | X-H torsion

> <Gold.Protein.ActiveResidues>
 VAL166  LYS551  ARG553  GLY616  TRP617  ASP618  TYR619  PRO620  LYS621  CYS622 
 ASP623  PHE694  ASN695  SER759  ASP760  ASP761  ALA762  ILE779  LEU786  VAL792 
 PHE793  MET794  SER795  GLU796  ALA797  LYS798  CYS799  TRP800  GLU811  SER814 

> <Gold.Protein.RotatedAtoms>
  151.8011  133.3370  159.3527 H   0  0  0  0  0  0  0  0  0  0  0  0  # atno 6907 bound_to 6896
  150.7358  134.5752  159.5920 H   0  0  0  0  0  0  0  0  0  0  0  0  # atno 6908 bound_to 6896
  152.3142  134.7461  160.0380 H   0  0  0  0  0  0  0  0  0  0  0  0  # atno 6909 bound_to 6896
  144.9476  140.7309  143.4807 H   0  0  0  0  0  0  0  0  0  0  0  0  # atno 7974 bound_to 7965
  155.5553  140.0620  157.2841 H   0  0  0  0  0  0  0  0  0  0  0  0  # atno 8008 bound_to 7997
  154.4407  140.1895  156.0772 H   0  0  0  0  0  0  0  0  0  0  0  0  # atno 8009 bound_to 7997
  156.0486  140.3287  155.7329 H   0  0  0  0  0  0  0  0  0  0  0  0  # atno 8010 bound_to 7997
  140.4342  144.1281  150.6164 H   0  0  0  0  0  0  0  0  0  0  0  0  # atno 10167 bound_to 10162
  157.4665  131.1077  150.9856 H   0  0  0  0  0  0  0  0  0  0  0  0  # atno 10718 bound_to 10713
  152.9991  135.6241  154.2350 H   0  0  0  0  0  0  0  0  0  0  0  0  # atno 10763 bound_to 10752
  154.2092  135.2800  155.2966 H   0  0  0  0  0  0  0  0  0  0  0  0  # atno 10764 bound_to 10752
  154.5621  135.5702  153.7075 H   0  0  0  0  0  0  0  0  0  0  0  0  # atno 10765 bound_to 10752
  139.8818  134.9380  156.5717 H   0  0  0  0  0  0  0  0  0  0  0  0  # atno 11005 bound_to 11000
  145.2893  139.1889  143.4749 LP  0  0  0  0  0  0  0  0  0  0  0  0  # atno 17320 bound_to 7965
  146.3309  140.2867  142.8613 LP  0  0  0  0  0  0  0  0  0  0  0  0  # atno 17321 bound_to 7965
  140.4392  143.2534  151.9494 LP  0  0  0  0  0  0  0  0  0  0  0  0  # atno 17342 bound_to 10162
  139.4786  144.5670  151.8149 LP  0  0  0  0  0  0  0  0  0  0  0  0  # atno 17343 bound_to 10162
  157.0636  130.5835  149.5390 LP  0  0  0  0  0  0  0  0  0  0  0  0  # atno 17370 bound_to 10713
  156.0053  130.5138  150.7807 LP  0  0  0  0  0  0  0  0  0  0  0  0  # atno 17371 bound_to 10713
  140.8093  133.8442  155.8796 LP  0  0  0  0  0  0  0  0  0  0  0  0  # atno 17394 bound_to 11000
  140.9520  134.1766  157.4720 LP  0  0  0  0  0  0  0  0  0  0  0  0  # atno 17395 bound_to 11000

$$$$
