AV-unprocessed.smi:2516|AV-procd|sdf|9898|dock9
  -GOLD-   2272013533D 1   1.00000     0.00000
 Structure written by MMmdl.
 47 48  0  0  0  0  0  0  0  0  1 V2000
  146.9124  128.3439  151.6021 C   0  0  0  0  0  0  0  0  0  0  0  0
  146.9416  128.9659  153.0030 C   0  0  0  0  0  0  0  0  0  0  0  0
  147.0670  130.4129  152.9436 N   0  0  0  0  0  0  0  0  0  0  0  0
  146.0836  131.1223  152.3384 N   0  0  0  0  0  0  0  0  0  0  0  0
  146.4559  132.3880  152.4284 C   0  0  0  0  0  0  0  0  0  0  0  0
  145.5747  133.4642  151.8629 C   0  0  0  0  0  0  0  0  0  0  0  0
  147.7165  132.4974  153.0730 C   0  0  0  0  0  0  0  0  0  0  0  0
  148.3801  133.7224  153.3327 N   0  0  0  0  0  0  0  0  0  0  0  0
  149.1986  133.9859  154.3628 C   0  0  0  0  0  0  0  0  0  0  0  0
  149.4508  133.2037  155.2795 O   0  0  0  0  0  0  0  0  0  0  0  0
  149.7295  135.2127  154.2609 N   0  0  0  0  0  0  0  0  0  0  0  0
  150.6880  135.8066  155.1922 C   0  0  2  0  0  0  0  0  0  0  0  0
  150.0879  135.7653  156.6097 C   0  0  0  0  0  0  0  0  0  0  0  0
  151.0675  137.2360  154.7241 C   0  0  0  0  0  0  0  0  0  0  0  0
  152.2322  137.8335  155.5433 C   0  0  0  0  0  0  0  0  0  0  0  0
  152.5407  139.2752  155.1085 C   0  0  0  0  0  0  0  0  0  0  0  0
  151.3757  140.0807  155.2351 O   0  0  0  0  0  0  0  0  0  0  0  0
  150.3129  139.6422  154.3982 C   0  0  0  0  0  0  0  0  0  0  0  0
  149.8819  138.2200  154.7921 C   0  0  0  0  0  0  0  0  0  0  0  0
  148.0805  131.2258  153.4309 C   0  0  0  0  0  0  0  0  0  0  0  0
  149.2587  130.6886  154.1837 C   0  0  0  0  0  0  0  0  0  0  0  0
  146.7999  127.2614  151.6609 H   0  0  0  0  0  0  0  0  0  0  0  0
  147.8329  128.5533  151.0567 H   0  0  0  0  0  0  0  0  0  0  0  0
  146.0793  128.7342  151.0167 H   0  0  0  0  0  0  0  0  0  0  0  0
  146.0286  128.7083  153.5421 H   0  0  0  0  0  0  0  0  0  0  0  0
  147.7664  128.5583  153.5869 H   0  0  0  0  0  0  0  0  0  0  0  0
  146.0434  134.4454  151.9384 H   0  0  0  0  0  0  0  0  0  0  0  0
  144.6239  133.5101  152.3945 H   0  0  0  0  0  0  0  0  0  0  0  0
  145.3599  133.2820  150.8096 H   0  0  0  0  0  0  0  0  0  0  0  0
  148.3440  134.4107  152.5950 H   0  0  0  0  0  0  0  0  0  0  0  0
  149.4606  135.7784  153.4693 H   0  0  0  0  0  0  0  0  0  0  0  0
  151.5993  135.2056  155.1940 H   0  0  0  0  0  0  0  0  0  0  0  0
  150.8090  136.0782  157.3638 H   0  0  0  0  0  0  0  0  0  0  0  0
  149.7770  134.7539  156.8744 H   0  0  0  0  0  0  0  0  0  0  0  0
  149.2137  136.4122  156.6905 H   0  0  0  0  0  0  0  0  0  0  0  0
  151.3905  137.1759  153.6832 H   0  0  0  0  0  0  0  0  0  0  0  0
  151.9792  137.8239  156.6044 H   0  0  0  0  0  0  0  0  0  0  0  0
  153.1342  137.2312  155.4345 H   0  0  0  0  0  0  0  0  0  0  0  0
  153.3268  139.6946  155.7365 H   0  0  0  0  0  0  0  0  0  0  0  0
  152.9067  139.3021  154.0809 H   0  0  0  0  0  0  0  0  0  0  0  0
  149.4743  140.3302  154.5076 H   0  0  0  0  0  0  0  0  0  0  0  0
  150.6199  139.6799  153.3518 H   0  0  0  0  0  0  0  0  0  0  0  0
  149.0770  137.9033  154.1295 H   0  0  0  0  0  0  0  0  0  0  0  0
  149.4699  138.2337  155.8018 H   0  0  0  0  0  0  0  0  0  0  0  0
  149.6720  131.4433  154.8524 H   0  0  0  0  0  0  0  0  0  0  0  0
  150.0456  130.3768  153.4968 H   0  0  0  0  0  0  0  0  0  0  0  0
  148.9878  129.8321  154.7996 H   0  0  0  0  0  0  0  0  0  0  0  0
  1  2  1  0  0  0  0
  1 22  1  0  0  0  0
  1 23  1  0  0  0  0
  1 24  1  0  0  0  0
  2  3  1  0  0  0  0
  2 25  1  0  0  0  0
  2 26  1  0  0  0  0
  3 20  1  0  0  0  0
  3  4  1  0  0  0  0
  4  5  2  0  0  0  0
  5  6  1  0  0  0  0
  5  7  1  0  0  0  0
  6 27  1  0  0  0  0
  6 28  1  0  0  0  0
  6 29  1  0  0  0  0
  7  8  1  0  0  0  0
  7 20  2  0  0  0  0
  8  9  1  0  0  0  0
  8 30  1  0  0  0  0
  9 10  2  0  0  0  0
  9 11  1  0  0  0  0
 11 12  1  0  0  0  0
 11 31  1  0  0  0  0
 12 13  1  0  0  0  0
 12 14  1  0  0  0  0
 12 32  1  0  0  0  0
 13 33  1  0  0  0  0
 13 34  1  0  0  0  0
 13 35  1  0  0  0  0
 14 19  1  0  0  0  0
 14 15  1  0  0  0  0
 14 36  1  0  0  0  0
 15 16  1  0  0  0  0
 15 37  1  0  0  0  0
 15 38  1  0  0  0  0
 16 17  1  0  0  0  0
 16 39  1  0  0  0  0
 16 40  1  0  0  0  0
 17 18  1  0  0  0  0
 18 19  1  0  0  0  0
 18 41  1  0  0  0  0
 18 42  1  0  0  0  0
 19 43  1  0  0  0  0
 19 44  1  0  0  0  0
 20 21  1  0  0  0  0
 21 45  1  0  0  0  0
 21 46  1  0  0  0  0
 21 47  1  0  0  0  0
M  END
> <s_m_source_file>
AV-unprocessed.smi

> <i_m_source_file_index>
2516

> <i_lp_mmshare_version>
43012

> <i_f3d_flags>
0

> <s_epik_input>
W0NIM11bQ0gyXW4xbmMoW0NIM10pYyhjMVtDSDNdKVtOSF1DKD1PKVtOSF1bQ0BIXShbQ0gzXSlbQ0hdMltDSDJdW0NIMl1PW0NIMl1bQ0gyXTI=

> <s_epik_cmdline>
J2VwaWtfcHl0aG9uJywgJy1waCcsICc3LjAnLCAnLXRuJywgJzgnLCAnLW1hJywgJzIwMCcsICctbWV0YWxfYmluZGluZycsICctaW1hZScsICc8aW5maWxlLm1hZT4nLCAnLW9tYWUnLCAnPG91dGZpbGUubWFlPic=

> <r_lp_tautomer_probability>
1

> <r_epik_Ionization_Penalty>
0.00383358

> <r_epik_Ionization_Penalty_Charging>
0

> <r_epik_Ionization_Penalty_Neutral>
0.00383358

> <r_epik_State_Penalty>
0.00270714

> <r_epik_Charging_Adjusted_Penalty>
0.00270714

> <i_epik_Tot_Q>
0

> <i_epik_Tot_abs_Q>
0

> <r_epik_Metal_State_Penalty>
-0

> <b_epik_Metal_Only>
0

> <s_lp_Force_Field>
OPLS_2005

> <r_lp_Energy>
15.1794

> <b_lp_Chiralities_Consistent>
1

> <s_lp_Variant>
AV-unprocessed.smi:2516-1

> <Gold.Version>
5.8.1

> <Gold.Id.Protein>
6NUR|6NUR_protein|mol2

> <Gold.PLP.Fitness>
42.3100

> <Gold.PLP.PLP>
-36.8450

> <Gold.PLP.part.hbond>
-3.3843

> <Gold.PLP.part.metal>
0.0000

> <Gold.PLP.part.buried>
-2.5930

> <Gold.PLP.part.nonpolar>
-31.6596

> <Gold.PLP.part.repulsive>
0.2592

> <Gold.PLP.ligand.clash>
0.0000

> <Gold.PLP.ligand.torsion>
0.2332

> <Gold.PLP.Chemscore.Hbond>
1.8432

> <Gold.PLP.Chemscore.CHOScore>
0.0000

> <Gold.PLP.Chemscore.Metal>
0.0000

> <Gold.Chemscore.Hbonds>
donor molecule, donor type, donor heavy atom, donor atom, acceptor molecule, acceptor atom, score
      L1  H     8    30       P1  7948  0.84
      L1  H    11    31       P1  7948  1.00

> <Gold.PLP.Chemscore.Internal.Correction>
0.4018

> <Gold.Rescore>
     Score         DG    S(hbond)    S(metal)    S(lipo)     H(rot)  DE(clash)    DE(int)     intcor
     13.71     -16.32       1.35        0.00      82.65       1.30       0.02       2.59       ----

> <Gold.Chemscore.Fitness>
13.7113

> <Gold.Chemscore.DG>
-16.3219

> <Gold.Chemscore.ZeroCoef>
-5.4800

> <Gold.Chemscore.Hbond>
1.3465

> <Gold.Chemscore.Metal>
0.0000

> <Gold.Chemscore.Lipo>
82.6493

> <Gold.Chemscore.Internal_Hbond>
0.0000

> <Gold.Chemscore.DEClash>
0.0209

> <Gold.Chemscore.DEInternal>
2.5897

> <Gold.Chemscore.Rot>
1.2990

> <Gold.Chemscore.Internal.Correction>
   9.000000E+99

> <Gold.Chemscore.Hbonds>
donor molecule, donor type, donor heavy atom, donor atom, acceptor molecule, acceptor atom, score
      L1  H     8    30       P1  7948  0.13
      L1  H    11    31       P1  7948  0.30

> <Gold.Chemscore.Hbond.Weighted>
-4.4973

> <Gold.Chemscore.Metal.Weighted>
-0.0000

> <Gold.Chemscore.Lipo.Weighted>
-9.6700

> <Gold.Chemscore.Internal_Hbond.Weighted>
0.0000

> <Gold.Chemscore.DEClash.Weighted>
0.0209

> <Gold.Chemscore.DEInternal.Weighted>
2.5897

> <Gold.Chemscore.Rot.Weighted>
3.3254

> <Gold.Chemscore.Internal.Correction.Weighted>
   9.000000E+99

> <Gold.Protein.RotatedTorsions>
[ 6907 6896 6895 6894 ] final   55.49 input  -60.11 | X-H torsion
[ 7974 7965 7964 7962 ] final   45.47 input  175.53 | X-H torsion
[ 8008 7997 7996 7995 ] final  133.58 input   59.86 | X-H torsion
[ 10167 10162 10161 10158 ] final   92.48 input  -65.29 | X-H torsion
[ 10718 10713 10712 10709 ] final -118.44 input   66.30 | X-H torsion
[ 10763 10752 10751 10750 ] final  -84.16 input  -60.55 | X-H torsion
[ 11005 11000 10999 10996 ] final  159.79 input  -57.11 | X-H torsion

> <Gold.Protein.ActiveResidues>
 VAL166  LYS551  ARG553  GLY616  TRP617  ASP618  TYR619  PRO620  LYS621  CYS622 
 ASP623  PHE694  ASN695  SER759  ASP760  ASP761  ALA762  ILE779  LEU786  VAL792 
 PHE793  MET794  SER795  GLU796  ALA797  LYS798  CYS799  TRP800  GLU811  SER814 

> <Gold.Protein.RotatedAtoms>
  152.3544  134.6961  160.0226 H   0  0  0  0  0  0  0  0  0  0  0  0  # atno 6907 bound_to 6896
  151.7305  133.3312  159.3347 H   0  0  0  0  0  0  0  0  0  0  0  0  # atno 6908 bound_to 6896
  150.7561  134.6301  159.6226 H   0  0  0  0  0  0  0  0  0  0  0  0  # atno 6909 bound_to 6896
  146.0477  139.4961  142.9738 H   0  0  0  0  0  0  0  0  0  0  0  0  # atno 7974 bound_to 7965
  156.2993  140.2518  156.3276 H   0  0  0  0  0  0  0  0  0  0  0  0  # atno 8008 bound_to 7997
  154.9176  140.0401  157.1999 H   0  0  0  0  0  0  0  0  0  0  0  0  # atno 8009 bound_to 7997
  154.8343  140.2880  155.5705 H   0  0  0  0  0  0  0  0  0  0  0  0  # atno 8010 bound_to 7997
  139.8273  144.6704  150.9444 H   0  0  0  0  0  0  0  0  0  0  0  0  # atno 10167 bound_to 10162
  156.1107  130.6246  150.9292 H   0  0  0  0  0  0  0  0  0  0  0  0  # atno 10718 bound_to 10713
  154.5963  135.5530  153.7329 H   0  0  0  0  0  0  0  0  0  0  0  0  # atno 10763 bound_to 10752
  153.0136  135.6355  154.1778 H   0  0  0  0  0  0  0  0  0  0  0  0  # atno 10764 bound_to 10752
  154.1718  135.2891  155.3058 H   0  0  0  0  0  0  0  0  0  0  0  0  # atno 10765 bound_to 10752
  140.1996  134.8348  157.3003 H   0  0  0  0  0  0  0  0  0  0  0  0  # atno 11005 bound_to 11000
  145.6778  141.0199  143.1623 LP  0  0  0  0  0  0  0  0  0  0  0  0  # atno 17320 bound_to 7965
  144.7106  139.8385  143.7416 LP  0  0  0  0  0  0  0  0  0  0  0  0  # atno 17321 bound_to 7965
  140.7809  143.4034  151.1111 LP  0  0  0  0  0  0  0  0  0  0  0  0  # atno 17342 bound_to 10162
  139.7691  143.8521  152.3117 LP  0  0  0  0  0  0  0  0  0  0  0  0  # atno 17343 bound_to 10162
  157.6288  131.0923  150.8482 LP  0  0  0  0  0  0  0  0  0  0  0  0  # atno 17370 bound_to 10713
  156.8594  130.5108  149.5305 LP  0  0  0  0  0  0  0  0  0  0  0  0  # atno 17371 bound_to 10713
  140.2069  134.4186  155.7633 LP  0  0  0  0  0  0  0  0  0  0  0  0  # atno 17394 bound_to 11000
  141.2227  133.7099  156.8275 LP  0  0  0  0  0  0  0  0  0  0  0  0  # atno 17395 bound_to 11000

$$$$
