AV-unprocessed.smi:3105|AV-procd|sdf|11822|dock6
  -GOLD-   2272017193D 1   1.00000     0.00000
 Structure written by MMmdl.
 34 34  0  0  0  0  0  0  0  0  2 V2000
  147.1286  139.2585  152.7899 C   0  0  0  0  0  0  0  0  0  0  0  0
  148.1197  139.4163  153.9582 C   0  0  1  0  0  0  0  0  0  0  0  0
  149.2382  138.4575  153.7998 N   0  3  0  0  0  0  0  0  0  0  0  0
  149.5994  137.6968  155.0162 C   0  0  0  0  0  0  0  0  0  0  0  0
  150.6729  136.6280  154.7301 C   0  0  0  0  0  0  0  0  0  0  0  0
  150.6172  135.4016  155.6527 C   0  0  0  0  0  0  0  0  0  0  0  0
  149.4975  134.6763  155.6137 N   0  0  0  0  0  0  0  0  0  0  0  0
  151.5601  135.1045  156.3844 O   0  0  0  0  0  0  0  0  0  0  0  0
  148.6776  140.8609  154.0766 C   0  0  1  0  0  0  0  0  0  0  0  0
  147.5918  141.9079  154.3878 C   0  0  0  0  0  0  0  0  0  0  0  0
  149.7387  140.9471  155.0749 N   0  0  0  0  0  0  0  0  0  0  0  0
  149.7975  141.7600  156.1884 C   0  0  0  0  0  0  0  0  0  0  0  0
  150.9742  141.4939  156.8276 C   0  0  0  0  0  0  0  0  0  0  0  0
  151.5738  140.4833  156.0260 C   0  0  0  0  0  0  0  0  0  0  0  0
  150.8316  140.1559  154.9809 N   0  0  0  0  0  0  0  0  0  0  0  0
  146.2466  139.8842  152.9229 H   0  0  0  0  0  0  0  0  0  0  0  0
  146.7709  138.2327  152.7028 H   0  0  0  0  0  0  0  0  0  0  0  0
  147.5896  139.5294  151.8394 H   0  0  0  0  0  0  0  0  0  0  0  0
  147.5962  139.1801  154.8861 H   0  0  0  0  0  0  0  0  0  0  0  0
  149.0301  137.8211  153.0441 H   0  0  0  0  0  0  0  0  0  0  0  0
  149.9580  138.3835  155.7848 H   0  0  0  0  0  0  0  0  0  0  0  0
  148.7079  137.2144  155.4167 H   0  0  0  0  0  0  0  0  0  0  0  0
  150.5568  136.2832  153.7016 H   0  0  0  0  0  0  0  0  0  0  0  0
  151.6673  137.0711  154.7948 H   0  0  0  0  0  0  0  0  0  0  0  0
  149.4027  133.8563  156.1958 H   0  0  0  0  0  0  0  0  0  0  0  0
  148.7451  134.9490  154.9972 H   0  0  0  0  0  0  0  0  0  0  0  0
  149.1258  141.1290  153.1183 H   0  0  0  0  0  0  0  0  0  0  0  0
  146.8672  141.9932  153.5787 H   0  0  0  0  0  0  0  0  0  0  0  0
  148.0316  142.8963  154.5248 H   0  0  0  0  0  0  0  0  0  0  0  0
  147.0473  141.6599  155.2996 H   0  0  0  0  0  0  0  0  0  0  0  0
  149.0071  142.4554  156.4304 H   0  0  0  0  0  0  0  0  0  0  0  0
  151.3487  141.9496  157.7322 H   0  0  0  0  0  0  0  0  0  0  0  0
  152.5189  139.9812  156.1715 H   0  0  0  0  0  0  0  0  0  0  0  0
  150.0554  138.9969  153.5489 H   0  0  0  0  0  0  0  0  0  0  0  0
  1  2  1  0  0  0  0
  1 16  1  0  0  0  0
  1 17  1  0  0  0  0
  1 18  1  0  0  0  0
  2  3  1  0  0  0  0
  2  9  1  0  0  0  0
  2 19  1  0  0  0  0
  3  4  1  0  0  0  0
  3 20  1  0  0  0  0
  3 34  1  0  0  0  0
  4  5  1  0  0  0  0
  4 21  1  0  0  0  0
  4 22  1  0  0  0  0
  5  6  1  0  0  0  0
  5 23  1  0  0  0  0
  5 24  1  0  0  0  0
  6  7  1  0  0  0  0
  6  8  2  0  0  0  0
  7 25  1  0  0  0  0
  7 26  1  0  0  0  0
  9 10  1  0  0  0  0
  9 11  1  0  0  0  0
  9 27  1  0  0  0  0
 10 28  1  0  0  0  0
 10 29  1  0  0  0  0
 10 30  1  0  0  0  0
 11 15  1  0  0  0  0
 11 12  1  0  0  0  0
 12 13  2  0  0  0  0
 12 31  1  0  0  0  0
 13 14  1  0  0  0  0
 13 32  1  0  0  0  0
 14 15  2  0  0  0  0
 14 33  1  0  0  0  0
M  CHG  1   3   1
M  END
> <s_m_source_file>
AV-unprocessed.smi

> <i_m_source_file_index>
3105

> <i_lp_mmshare_version>
43012

> <i_f3d_flags>
0

> <s_epik_input>
W05IMl1DKD1PKVtDSDJdW0NIMl1bTkhdW0NAQEhdKFtDSDNdKVtDQEhdKFtDSDNdKW4xW2NIXVtjSF1bY0hdbjE=

> <s_epik_cmdline>
J2VwaWtfcHl0aG9uJywgJy1waCcsICc3LjAnLCAnLXRuJywgJzgnLCAnLW1hJywgJzIwMCcsICctbWV0YWxfYmluZGluZycsICctaW1hZScsICc8aW5maWxlLm1hZT4nLCAnLW9tYWUnLCAnPG91dGZpbGUubWFlPic=

> <r_lp_tautomer_probability>
1

> <r_epik_Ionization_Penalty>
0.00475669

> <r_epik_Ionization_Penalty_Charging>
0.00474654

> <r_epik_Ionization_Penalty_Neutral>
1.01546e-05

> <r_epik_State_Penalty>
-0

> <r_epik_Charging_Adjusted_Penalty>
0.00474654

> <i_epik_Tot_Q>
1

> <i_epik_Tot_abs_Q>
1

> <r_epik_Metal_State_Penalty>
-0

> <b_epik_Metal_Only>
0

> <s_lp_Force_Field>
OPLS_2005

> <r_lp_Energy>
4.89455

> <b_lp_Chiralities_Consistent>
1

> <s_lp_Variant>
AV-unprocessed.smi:3105-4

> <Gold.Version>
5.8.1

> <Gold.Id.Protein>
6NUR|6NUR_protein|mol2

> <Gold.PLP.Fitness>
41.5326

> <Gold.PLP.PLP>
-28.2739

> <Gold.PLP.part.hbond>
-3.7527

> <Gold.PLP.part.metal>
0.0000

> <Gold.PLP.part.buried>
0.1329

> <Gold.PLP.part.nonpolar>
-23.6094

> <Gold.PLP.part.repulsive>
0.1425

> <Gold.PLP.ligand.clash>
0.0000

> <Gold.PLP.ligand.torsion>
0.8844

> <Gold.PLP.Chemscore.Hbond>
4.0000

> <Gold.PLP.Chemscore.CHOScore>
0.9668

> <Gold.PLP.Chemscore.Metal>
0.0000

> <Gold.Chemscore.Hbonds>
donor molecule, donor type, donor heavy atom, donor atom, acceptor molecule, acceptor atom, score
      L1  H     3    20       P1  7948  2.00
      P1  H  7989  7998       L1    15  1.00
      P1  H 10752 10764       L1     8  0.86
      L1  C    12    31       P1  8028  0.91

> <Gold.PLP.Chemscore.Internal.Correction>
0.1272

> <Gold.Rescore>
     Score         DG    S(hbond)    S(metal)    S(lipo)     H(rot)  DE(clash)    DE(int)     intcor
     10.33     -13.09       2.51        0.00      55.69       2.85       0.12       2.65       ----

> <Gold.Chemscore.Fitness>
10.3269

> <Gold.Chemscore.DG>
-13.0909

> <Gold.Chemscore.ZeroCoef>
-5.4800

> <Gold.Chemscore.Hbond>
2.5104

> <Gold.Chemscore.Metal>
0.0000

> <Gold.Chemscore.Lipo>
55.6879

> <Gold.Chemscore.Internal_Hbond>
0.0000

> <Gold.Chemscore.DEClash>
0.1161

> <Gold.Chemscore.DEInternal>
2.6479

> <Gold.Chemscore.Rot>
2.8473

> <Gold.Chemscore.Internal.Correction>
   9.000000E+99

> <Gold.Chemscore.Hbonds>
donor molecule, donor type, donor heavy atom, donor atom, acceptor molecule, acceptor atom, score
      L1  H     3    20       P1  7948  0.98
      P1  H  7989  7998       L1    15  0.15
      P1  H 10752 10764       L1     8  0.21

> <Gold.Chemscore.Hbond.Weighted>
-8.3846

> <Gold.Chemscore.Metal.Weighted>
-0.0000

> <Gold.Chemscore.Lipo.Weighted>
-6.5155

> <Gold.Chemscore.Internal_Hbond.Weighted>
0.0000

> <Gold.Chemscore.DEClash.Weighted>
0.1161

> <Gold.Chemscore.DEInternal.Weighted>
2.6479

> <Gold.Chemscore.Rot.Weighted>
7.2892

> <Gold.Chemscore.Internal.Correction.Weighted>
   9.000000E+99

> <Gold.Protein.RotatedTorsions>
[ 6907 6896 6895 6894 ] final -120.70 input  -60.11 | X-H torsion
[ 7974 7965 7964 7962 ] final  -94.29 input  175.53 | X-H torsion
[ 8008 7997 7996 7995 ] final   64.01 input   59.86 | X-H torsion
[ 10167 10162 10161 10158 ] final   73.05 input  -65.29 | X-H torsion
[ 10718 10713 10712 10709 ] final   14.41 input   66.30 | X-H torsion
[ 10763 10752 10751 10750 ] final  -27.29 input  -60.55 | X-H torsion
[ 11005 11000 10999 10996 ] final    9.64 input  -57.11 | X-H torsion

> <Gold.Protein.ActiveResidues>
 VAL166  LYS551  ARG553  GLY616  TRP617  ASP618  TYR619  PRO620  LYS621  CYS622 
 ASP623  PHE694  ASN695  SER759  ASP760  ASP761  ALA762  ILE779  LEU786  VAL792 
 PHE793  MET794  SER795  GLU796  ALA797  LYS798  CYS799  TRP800  GLU811  SER814 

> <Gold.Protein.RotatedAtoms>
  150.8417  133.7926  159.3058 H   0  0  0  0  0  0  0  0  0  0  0  0  # atno 6907 bound_to 6896
  151.5625  135.1063  159.9985 H   0  0  0  0  0  0  0  0  0  0  0  0  # atno 6908 bound_to 6896
  152.4479  133.7530  159.6760 H   0  0  0  0  0  0  0  0  0  0  0  0  # atno 6909 bound_to 6896
  145.3752  140.9510  143.2425 H   0  0  0  0  0  0  0  0  0  0  0  0  # atno 7974 bound_to 7965
  155.6393  140.3496  155.4709 H   0  0  0  0  0  0  0  0  0  0  0  0  # atno 8008 bound_to 7997
  155.9939  140.1199  157.0635 H   0  0  0  0  0  0  0  0  0  0  0  0  # atno 8009 bound_to 7997
  154.4227  140.1114  156.5590 H   0  0  0  0  0  0  0  0  0  0  0  0  # atno 8010 bound_to 7997
  140.0286  144.5483  150.7524 H   0  0  0  0  0  0  0  0  0  0  0  0  # atno 10167 bound_to 10162
  157.0387  130.6222  149.5747 H   0  0  0  0  0  0  0  0  0  0  0  0  # atno 10718 bound_to 10713
  153.7297  135.6939  153.4992 H   0  0  0  0  0  0  0  0  0  0  0  0  # atno 10763 bound_to 10752
  153.2145  135.4391  155.0417 H   0  0  0  0  0  0  0  0  0  0  0  0  # atno 10764 bound_to 10752
  154.8257  135.3445  154.6827 H   0  0  0  0  0  0  0  0  0  0  0  0  # atno 10765 bound_to 10752
  140.5235  134.0536  155.7851 H   0  0  0  0  0  0  0  0  0  0  0  0  # atno 11005 bound_to 11000
  144.8547  139.5267  143.6840 LP  0  0  0  0  0  0  0  0  0  0  0  0  # atno 17320 bound_to 7965
  146.2867  139.7025  142.9190 LP  0  0  0  0  0  0  0  0  0  0  0  0  # atno 17321 bound_to 7965
  140.7312  143.2691  151.3946 LP  0  0  0  0  0  0  0  0  0  0  0  0  # atno 17342 bound_to 10162
  139.6091  144.1135  152.2280 LP  0  0  0  0  0  0  0  0  0  0  0  0  # atno 17343 bound_to 10162
  156.0045  130.5130  150.7782 LP  0  0  0  0  0  0  0  0  0  0  0  0  # atno 17370 bound_to 10713
  157.5121  131.0926  151.0184 LP  0  0  0  0  0  0  0  0  0  0  0  0  # atno 17371 bound_to 10713
  141.1321  133.9284  157.2513 LP  0  0  0  0  0  0  0  0  0  0  0  0  # atno 17394 bound_to 11000
  139.9593  135.0158  156.9216 LP  0  0  0  0  0  0  0  0  0  0  0  0  # atno 17395 bound_to 11000

$$$$
