AV-unprocessed.smi:2339|AV-procd|sdf|9337|dock9
  -GOLD-   2272012563D 1   1.00000     0.00000
 Structure written by MMmdl.
 49 52  0  0  0  0  0  0  0  0  1 V2000
  148.3435  131.3979  159.1949 C   0  0  0  0  0  0  0  0  0  0  0  0
  147.0238  132.0863  159.5600 C   0  0  0  0  0  0  0  0  0  0  0  0
  147.2302  133.4634  159.9850 N   0  0  0  0  0  0  0  0  0  0  0  0
  146.7161  133.9314  161.1901 C   0  0  0  0  0  0  0  0  0  0  0  0
  146.7981  135.2122  161.5998 C   0  0  0  0  0  0  0  0  0  0  0  0
  147.4666  136.2068  160.7367 C   0  0  0  0  0  0  0  0  0  0  0  0
  147.5548  137.3870  161.0756 O   0  0  0  0  0  0  0  0  0  0  0  0
  148.0200  135.7051  159.4518 C   0  0  0  0  0  0  0  0  0  0  0  0
  148.6432  136.6559  158.6301 N   0  0  0  0  0  0  0  0  0  0  0  0
  149.8322  137.2716  158.7887 C   0  0  0  0  0  0  0  0  0  0  0  0
  150.5806  137.1317  159.7537 O   0  0  0  0  0  0  0  0  0  0  0  0
  150.1290  138.1310  157.7987 N   0  0  0  0  0  0  0  0  0  0  0  0
  151.3355  138.9574  157.6653 C   0  0  1  0  0  0  0  0  0  0  0  0
  151.9573  138.9376  156.2475 C   0  0  1  0  0  0  0  0  0  0  0  0
  151.5459  137.9590  155.1734 C   0  0  0  0  0  0  0  0  0  0  0  0
  150.5406  138.7641  154.3452 C   0  0  0  0  0  0  0  0  0  0  0  0
  150.0992  139.8014  155.2178 O   0  0  0  0  0  0  0  0  0  0  0  0
  151.2254  140.2415  155.9720 C   0  0  1  0  0  0  0  0  0  0  0  0
  150.9971  140.4559  157.4822 C   0  0  0  0  0  0  0  0  0  0  0  0
  149.6399  141.0039  157.9237 C   0  0  0  0  0  0  0  0  0  0  0  0
  149.7579  142.5282  157.9158 C   0  0  0  0  0  0  0  0  0  0  0  0
  151.2435  142.8215  158.1446 C   0  0  0  0  0  0  0  0  0  0  0  0
  151.9439  141.4581  158.1429 C   0  0  0  0  0  0  0  0  0  0  0  0
  147.8629  134.3895  159.1580 C   0  0  0  0  0  0  0  0  0  0  0  0
  148.1694  130.3666  158.8881 H   0  0  0  0  0  0  0  0  0  0  0  0
  149.0281  131.3820  160.0433 H   0  0  0  0  0  0  0  0  0  0  0  0
  148.8404  131.9104  158.3705 H   0  0  0  0  0  0  0  0  0  0  0  0
  146.3466  132.0663  158.7051 H   0  0  0  0  0  0  0  0  0  0  0  0
  146.5255  131.5315  160.3558 H   0  0  0  0  0  0  0  0  0  0  0  0
  146.2376  133.1741  161.7941 H   0  0  0  0  0  0  0  0  0  0  0  0
  146.3850  135.5294  162.5462 H   0  0  0  0  0  0  0  0  0  0  0  0
  148.1019  136.9342  157.8243 H   0  0  0  0  0  0  0  0  0  0  0  0
  149.4081  138.2953  157.1106 H   0  0  0  0  0  0  0  0  0  0  0  0
  152.0722  138.7975  158.4549 H   0  0  0  0  0  0  0  0  0  0  0  0
  153.0348  139.1006  156.2999 H   0  0  0  0  0  0  0  0  0  0  0  0
  152.3903  137.6399  154.5619 H   0  0  0  0  0  0  0  0  0  0  0  0
  151.0882  137.0602  155.5833 H   0  0  0  0  0  0  0  0  0  0  0  0
  151.0306  139.2140  153.4806 H   0  0  0  0  0  0  0  0  0  0  0  0
  149.7072  138.1585  153.9891 H   0  0  0  0  0  0  0  0  0  0  0  0
  151.8280  140.9935  155.4603 H   0  0  0  0  0  0  0  0  0  0  0  0
  148.8191  140.6671  157.2899 H   0  0  0  0  0  0  0  0  0  0  0  0
  149.4146  140.6662  158.9363 H   0  0  0  0  0  0  0  0  0  0  0  0
  149.4526  142.9177  156.9437 H   0  0  0  0  0  0  0  0  0  0  0  0
  149.1210  142.9900  158.6707 H   0  0  0  0  0  0  0  0  0  0  0  0
  151.6282  143.4534  157.3432 H   0  0  0  0  0  0  0  0  0  0  0  0
  151.4117  143.3462  159.0857 H   0  0  0  0  0  0  0  0  0  0  0  0
  152.1426  141.1571  159.1724 H   0  0  0  0  0  0  0  0  0  0  0  0
  152.9115  141.5110  157.6420 H   0  0  0  0  0  0  0  0  0  0  0  0
  148.2136  133.9493  158.2378 H   0  0  0  0  0  0  0  0  0  0  0  0
  1  2  1  0  0  0  0
  1 25  1  0  0  0  0
  1 26  1  0  0  0  0
  1 27  1  0  0  0  0
  2  3  1  0  0  0  0
  2 28  1  0  0  0  0
  2 29  1  0  0  0  0
  3 24  1  0  0  0  0
  3  4  1  0  0  0  0
  4  5  2  0  0  0  0
  4 30  1  0  0  0  0
  5  6  1  0  0  0  0
  5 31  1  0  0  0  0
  6  7  2  0  0  0  0
  6  8  1  0  0  0  0
  8  9  1  0  0  0  0
  8 24  2  0  0  0  0
  9 10  1  0  0  0  0
  9 32  1  0  0  0  0
 10 11  2  0  0  0  0
 10 12  1  0  0  0  0
 12 13  1  0  0  0  0
 12 33  1  0  0  0  0
 13 19  1  0  0  0  0
 13 14  1  0  0  0  0
 13 34  1  0  0  0  0
 14 18  1  0  0  0  0
 14 15  1  0  0  0  0
 14 35  1  0  0  0  0
 15 16  1  0  0  0  0
 15 36  1  0  0  0  0
 15 37  1  0  0  0  0
 16 17  1  0  0  0  0
 16 38  1  0  0  0  0
 16 39  1  0  0  0  0
 17 18  1  0  0  0  0
 18 19  1  0  0  0  0
 18 40  1  0  0  0  0
 19 23  1  0  0  0  0
 19 20  1  0  0  0  0
 20 21  1  0  0  0  0
 20 41  1  0  0  0  0
 20 42  1  0  0  0  0
 21 22  1  0  0  0  0
 21 43  1  0  0  0  0
 21 44  1  0  0  0  0
 22 23  1  0  0  0  0
 22 45  1  0  0  0  0
 22 46  1  0  0  0  0
 23 47  1  0  0  0  0
 23 48  1  0  0  0  0
 24 49  1  0  0  0  0
M  END
> <s_m_source_file>
AV-unprocessed.smi

> <i_m_source_file_index>
2339

> <i_lp_mmshare_version>
43012

> <i_f3d_flags>
0

> <s_epik_input>
W0NIM11bQ0gyXW4xW2NIXVtjSF1jKD1PKWMoW2NIXTEpW05IXUMoPU8pW05IXVtDQEBIXTJbQ0BASF0oW0NIMl1bQ0gyXU8zKVtDQEBIXTNDMjRbQ0gyXVtDSDJdW0NIMl1bQ0gyXTQ=

> <s_epik_cmdline>
J2VwaWtfcHl0aG9uJywgJy1waCcsICc3LjAnLCAnLXRuJywgJzgnLCAnLW1hJywgJzIwMCcsICctbWV0YWxfYmluZGluZycsICctaW1hZScsICc8aW5maWxlLm1hZT4nLCAnLW9tYWUnLCAnPG91dGZpbGUubWFlPic=

> <r_lp_tautomer_probability>
1

> <r_epik_Ionization_Penalty>
0.00145966

> <r_epik_Ionization_Penalty_Charging>
0.00143969

> <r_epik_Ionization_Penalty_Neutral>
1.99697e-05

> <r_epik_State_Penalty>
0.000961843

> <r_epik_Charging_Adjusted_Penalty>
0.00240153

> <i_epik_Tot_Q>
0

> <i_epik_Tot_abs_Q>
0

> <r_epik_Metal_State_Penalty>
-0

> <b_epik_Metal_Only>
0

> <s_lp_Force_Field>
OPLS_2005

> <r_lp_Energy>
59.7263

> <b_lp_Chiralities_Consistent>
1

> <s_lp_Variant>
AV-unprocessed.smi:2339-2

> <Gold.Version>
5.8.1

> <Gold.Id.Protein>
6NUR|6NUR_protein|mol2

> <Gold.PLP.Fitness>
44.2682

> <Gold.PLP.PLP>
-37.6033

> <Gold.PLP.part.hbond>
-3.0073

> <Gold.PLP.part.metal>
0.0000

> <Gold.PLP.part.buried>
-5.1705

> <Gold.PLP.part.nonpolar>
-30.0606

> <Gold.PLP.part.repulsive>
0.2577

> <Gold.PLP.ligand.clash>
0.0000

> <Gold.PLP.ligand.torsion>
0.8132

> <Gold.PLP.Chemscore.Hbond>
2.6960

> <Gold.PLP.Chemscore.CHOScore>
0.0000

> <Gold.PLP.Chemscore.Metal>
0.0000

> <Gold.Chemscore.Hbonds>
donor molecule, donor type, donor heavy atom, donor atom, acceptor molecule, acceptor atom, score
      P1  H  6896  6907       L1    11  0.80
      P1  H  6931  6943       L1     7  0.78
      P1  H  6934  6947       L1     7  0.93

> <Gold.PLP.Chemscore.Internal.Correction>
0.2034

> <Gold.Rescore>
     Score         DG    S(hbond)    S(metal)    S(lipo)     H(rot)  DE(clash)    DE(int)     intcor
     20.39     -21.16       2.52        0.00      87.68       1.17       0.01       0.76       ----

> <Gold.Chemscore.Fitness>
20.3919

> <Gold.Chemscore.DG>
-21.1582

> <Gold.Chemscore.ZeroCoef>
-5.4800

> <Gold.Chemscore.Hbond>
2.5170

> <Gold.Chemscore.Metal>
0.0000

> <Gold.Chemscore.Lipo>
87.6827

> <Gold.Chemscore.Internal_Hbond>
0.0000

> <Gold.Chemscore.DEClash>
0.0077

> <Gold.Chemscore.DEInternal>
0.7586

> <Gold.Chemscore.Rot>
1.1670

> <Gold.Chemscore.Internal.Correction>
   9.000000E+99

> <Gold.Chemscore.Hbonds>
donor molecule, donor type, donor heavy atom, donor atom, acceptor molecule, acceptor atom, score
      P1  H  6896  6907       L1    11  0.62
      P1  H  6931  6943       L1     7  0.78
      P1  H  6934  6947       L1     7  0.89

> <Gold.Chemscore.Hbond.Weighted>
-8.4068

> <Gold.Chemscore.Metal.Weighted>
-0.0000

> <Gold.Chemscore.Lipo.Weighted>
-10.2589

> <Gold.Chemscore.Internal_Hbond.Weighted>
0.0000

> <Gold.Chemscore.DEClash.Weighted>
0.0077

> <Gold.Chemscore.DEInternal.Weighted>
0.7586

> <Gold.Chemscore.Rot.Weighted>
2.9874

> <Gold.Chemscore.Internal.Correction.Weighted>
   9.000000E+99

> <Gold.Protein.RotatedTorsions>
[ 6907 6896 6895 6894 ] final  -17.62 input  -60.11 | X-H torsion
[ 7974 7965 7964 7962 ] final -153.68 input  175.53 | X-H torsion
[ 8008 7997 7996 7995 ] final  -95.56 input   59.86 | X-H torsion
[ 10167 10162 10161 10158 ] final  -22.98 input  -65.29 | X-H torsion
[ 10718 10713 10712 10709 ] final  -84.41 input   66.30 | X-H torsion
[ 10763 10752 10751 10750 ] final -129.33 input  -60.55 | X-H torsion
[ 11005 11000 10999 10996 ] final -164.34 input  -57.11 | X-H torsion

> <Gold.Protein.ActiveResidues>
 VAL166  LYS551  ARG553  GLY616  TRP617  ASP618  TYR619  PRO620  LYS621  CYS622 
 ASP623  PHE694  ASN695  SER759  ASP760  ASP761  ALA762  ILE779  LEU786  VAL792 
 PHE793  MET794  SER795  GLU796  ALA797  LYS798  CYS799  TRP800  GLU811  SER814 

> <Gold.Protein.RotatedAtoms>
  151.2906  135.0740  159.9202 H   0  0  0  0  0  0  0  0  0  0  0  0  # atno 6907 bound_to 6896
  152.5317  133.9936  159.7872 H   0  0  0  0  0  0  0  0  0  0  0  0  # atno 6908 bound_to 6896
  151.0205  133.5830  159.2702 H   0  0  0  0  0  0  0  0  0  0  0  0  # atno 6909 bound_to 6896
  144.7728  140.4492  143.5895 H   0  0  0  0  0  0  0  0  0  0  0  0  # atno 7974 bound_to 7965
  154.7630  140.0479  157.0989 H   0  0  0  0  0  0  0  0  0  0  0  0  # atno 8008 bound_to 7997
  154.9914  140.3113  155.4885 H   0  0  0  0  0  0  0  0  0  0  0  0  # atno 8009 bound_to 7997
  156.2907  140.2218  156.5019 H   0  0  0  0  0  0  0  0  0  0  0  0  # atno 8010 bound_to 7997
  140.7287  143.4485  151.0552 H   0  0  0  0  0  0  0  0  0  0  0  0  # atno 10167 bound_to 10162
  156.0006  130.4697  150.4406 H   0  0  0  0  0  0  0  0  0  0  0  0  # atno 10718 bound_to 10713
  154.8757  135.3899  154.3902 H   0  0  0  0  0  0  0  0  0  0  0  0  # atno 10763 bound_to 10752
  153.4639  135.7029  153.6039 H   0  0  0  0  0  0  0  0  0  0  0  0  # atno 10764 bound_to 10752
  153.4526  135.3830  155.2261 H   0  0  0  0  0  0  0  0  0  0  0  0  # atno 10765 bound_to 10752
  140.5879  134.5074  157.5188 H   0  0  0  0  0  0  0  0  0  0  0  0  # atno 11005 bound_to 11000
  145.6273  139.1532  143.2989 LP  0  0  0  0  0  0  0  0  0  0  0  0  # atno 17320 bound_to 7965
  146.1887  140.6379  142.9155 LP  0  0  0  0  0  0  0  0  0  0  0  0  # atno 17321 bound_to 7965
  139.8158  143.7887  152.3174 LP  0  0  0  0  0  0  0  0  0  0  0  0  # atno 17342 bound_to 10162
  139.7953  144.7395  150.9899 LP  0  0  0  0  0  0  0  0  0  0  0  0  # atno 17343 bound_to 10162
  157.2447  131.0533  151.2415 LP  0  0  0  0  0  0  0  0  0  0  0  0  # atno 17370 bound_to 10713
  157.3586  130.7119  149.6487 LP  0  0  0  0  0  0  0  0  0  0  0  0  # atno 17371 bound_to 10713
  139.9287  134.8005  156.0993 LP  0  0  0  0  0  0  0  0  0  0  0  0  # atno 17394 bound_to 11000
  141.0954  133.6698  156.2633 LP  0  0  0  0  0  0  0  0  0  0  0  0  # atno 17395 bound_to 11000

$$$$
