AV-unprocessed.smi:1652|AV-procd|sdf|6640|dock1
  -GOLD-   22720 7343D 1   1.00000     0.00000
 Structure written by MMmdl.
 38 40  0  0  0  0  0  0  0  0  1 V2000
  153.4784  139.3971  158.3830 O   0  0  0  0  0  0  0  0  0  0  0  0
  153.1112  140.4568  158.8925 C   0  0  0  0  0  0  0  0  0  0  0  0
  153.6302  140.9664  160.1709 C   0  0  0  0  0  0  0  0  0  0  0  0
  154.6658  140.1233  160.9102 C   0  0  0  0  0  0  0  0  0  0  0  0
  155.8654  140.1954  160.3313 F   0  0  0  0  0  0  0  0  0  0  0  0
  154.7963  140.5376  162.1712 F   0  0  0  0  0  0  0  0  0  0  0  0
  154.2976  138.8418  160.9285 F   0  0  0  0  0  0  0  0  0  0  0  0
  153.1818  142.1468  160.6637 C   0  0  0  0  0  0  0  0  0  0  0  0
  152.1948  142.9169  159.9335 C   0  0  0  0  0  0  0  0  0  0  0  0
  151.6680  144.2395  160.4124 C   0  0  0  0  0  0  0  0  0  0  0  0
  150.4975  144.9174  159.7397 C   0  0  0  0  0  0  0  0  0  0  0  0
  151.8797  145.5196  159.6365 C   0  0  0  0  0  0  0  0  0  0  0  0
  151.7351  142.4635  158.8161 N   0  0  0  0  0  0  0  0  0  0  0  0
  152.1742  141.2584  158.3049 N   0  0  0  0  0  0  0  0  0  0  0  0
  151.5453  140.8901  157.0297 C   0  0  0  0  0  0  0  0  0  0  0  0
  150.2868  141.7332  156.7282 C   0  0  1  0  0  0  0  0  0  0  0  0
  150.6925  143.0209  156.3058 O   0  0  0  0  0  0  0  0  0  0  0  0
  149.4134  141.0525  155.6845 C   0  0  0  0  0  0  0  0  0  0  0  0
  149.7714  139.7948  155.1492 C   0  0  0  0  0  0  0  0  0  0  0  0
  148.9508  139.1721  154.1882 C   0  0  0  0  0  0  0  0  0  0  0  0
  147.7658  139.8004  153.7598 C   0  0  0  0  0  0  0  0  0  0  0  0
  146.9771  139.2021  152.8359 F   0  0  0  0  0  0  0  0  0  0  0  0
  147.4006  141.0507  154.2945 C   0  0  0  0  0  0  0  0  0  0  0  0
  148.2210  141.6739  155.2549 C   0  0  0  0  0  0  0  0  0  0  0  0
  153.5469  142.5350  161.6028 H   0  0  0  0  0  0  0  0  0  0  0  0
  151.7236  144.3063  161.4974 H   0  0  0  0  0  0  0  0  0  0  0  0
  150.0852  144.4548  158.8445 H   0  0  0  0  0  0  0  0  0  0  0  0
  149.7753  145.4221  160.3781 H   0  0  0  0  0  0  0  0  0  0  0  0
  152.0766  146.4251  160.2066 H   0  0  0  0  0  0  0  0  0  0  0  0
  152.3746  145.4625  158.6687 H   0  0  0  0  0  0  0  0  0  0  0  0
  152.2559  140.9580  156.2032 H   0  0  0  0  0  0  0  0  0  0  0  0
  151.2725  139.8339  157.0786 H   0  0  0  0  0  0  0  0  0  0  0  0
  149.6918  141.8613  157.6331 H   0  0  0  0  0  0  0  0  0  0  0  0
  149.9766  143.4203  155.8357 H   0  0  0  0  0  0  0  0  0  0  0  0
  150.6760  139.3021  155.4746 H   0  0  0  0  0  0  0  0  0  0  0  0
  149.2302  138.2117  153.7808 H   0  0  0  0  0  0  0  0  0  0  0  0
  146.4902  141.5319  153.9685 H   0  0  0  0  0  0  0  0  0  0  0  0
  147.9301  142.6315  155.6615 H   0  0  0  0  0  0  0  0  0  0  0  0
  1  2  2  0  0  0  0
  2 14  1  0  0  0  0
  2  3  1  0  0  0  0
  3  4  1  0  0  0  0
  3  8  2  0  0  0  0
  4  5  1  0  0  0  0
  4  6  1  0  0  0  0
  4  7  1  0  0  0  0
  8  9  1  0  0  0  0
  8 25  1  0  0  0  0
  9 10  1  0  0  0  0
  9 13  2  0  0  0  0
 10 12  1  0  0  0  0
 10 11  1  0  0  0  0
 10 26  1  0  0  0  0
 11 12  1  0  0  0  0
 11 27  1  0  0  0  0
 11 28  1  0  0  0  0
 12 29  1  0  0  0  0
 12 30  1  0  0  0  0
 13 14  1  0  0  0  0
 14 15  1  0  0  0  0
 15 16  1  0  0  0  0
 15 31  1  0  0  0  0
 15 32  1  0  0  0  0
 16 17  1  0  0  0  0
 16 18  1  0  0  0  0
 16 33  1  0  0  0  0
 17 34  1  0  0  0  0
 18 24  1  0  0  0  0
 18 19  2  0  0  0  0
 19 20  1  0  0  0  0
 19 35  1  0  0  0  0
 20 21  2  0  0  0  0
 20 36  1  0  0  0  0
 21 22  1  0  0  0  0
 21 23  1  0  0  0  0
 23 24  2  0  0  0  0
 23 37  1  0  0  0  0
 24 38  1  0  0  0  0
M  END
> <s_m_source_file>
AV-unprocessed.smi

> <i_m_source_file_index>
1652

> <i_lp_mmshare_version>
43012

> <i_f3d_flags>
0

> <s_epik_input>
Tz1jMWMoQyhGKShGKUYpW2NIXWMoW0NIXTJbQ0gyXVtDSDJdMilubjFbQ0gyXVtDQEhdKFtPSF0pYzNbY0hdW2NIXWMoRilbY0hdW2NIXTM=

> <s_epik_cmdline>
J2VwaWtfcHl0aG9uJywgJy1waCcsICc3LjAnLCAnLXRuJywgJzgnLCAnLW1hJywgJzIwMCcsICctbWV0YWxfYmluZGluZycsICctaW1hZScsICc8aW5maWxlLm1hZT4nLCAnLW9tYWUnLCAnPG91dGZpbGUubWFlPic=

> <r_lp_tautomer_probability>
1

> <r_epik_Ionization_Penalty>
9.17026e-08

> <r_epik_Ionization_Penalty_Charging>
9.677e-10

> <r_epik_Ionization_Penalty_Neutral>
9.07349e-08

> <r_epik_State_Penalty>
-0

> <r_epik_Charging_Adjusted_Penalty>
9.677e-10

> <i_epik_Tot_Q>
0

> <i_epik_Tot_abs_Q>
0

> <r_epik_Metal_State_Penalty>
-0

> <b_epik_Metal_Only>
0

> <s_lp_Force_Field>
OPLS_2005

> <r_lp_Energy>
33.8456

> <b_lp_Chiralities_Consistent>
1

> <s_lp_Variant>
AV-unprocessed.smi:1652-2

> <Gold.Version>
5.8.1

> <Gold.Id.Protein>
6NUR|6NUR_protein|mol2

> <Gold.PLP.Fitness>
57.2787

> <Gold.PLP.PLP>
-52.8981

> <Gold.PLP.part.hbond>
-2.0000

> <Gold.PLP.part.metal>
0.0000

> <Gold.PLP.part.buried>
-3.1435

> <Gold.PLP.part.nonpolar>
-47.5107

> <Gold.PLP.part.repulsive>
0.0068

> <Gold.PLP.ligand.clash>
0.6222

> <Gold.PLP.ligand.torsion>
0.9573

> <Gold.PLP.Chemscore.Hbond>
2.0000

> <Gold.PLP.Chemscore.CHOScore>
0.0000

> <Gold.PLP.Chemscore.Metal>
0.0000

> <Gold.Chemscore.Hbonds>
donor molecule, donor type, donor heavy atom, donor atom, acceptor molecule, acceptor atom, score
      L1  H    17    34       P1  8028  0.98
      P1  H  7997  8010       L1     1  1.00

> <Gold.PLP.Chemscore.Internal.Correction>
0.9173

> <Gold.Rescore>
     Score         DG    S(hbond)    S(metal)    S(lipo)     H(rot)  DE(clash)    DE(int)     intcor
     17.58     -19.80       1.92        0.00     115.76       2.20       0.13       2.09       ----

> <Gold.Chemscore.Fitness>
17.5755

> <Gold.Chemscore.DG>
-19.7960

> <Gold.Chemscore.ZeroCoef>
-5.4800

> <Gold.Chemscore.Hbond>
1.9175

> <Gold.Chemscore.Metal>
0.0000

> <Gold.Chemscore.Lipo>
115.7646

> <Gold.Chemscore.Internal_Hbond>
0.0000

> <Gold.Chemscore.DEClash>
0.1338

> <Gold.Chemscore.DEInternal>
2.0867

> <Gold.Chemscore.Rot>
2.2003

> <Gold.Chemscore.Internal.Correction>
   9.000000E+99

> <Gold.Chemscore.Hbonds>
donor molecule, donor type, donor heavy atom, donor atom, acceptor molecule, acceptor atom, score
      L1  H    17    34       P1  8028  0.93
      P1  H  7997  8010       L1     1  0.30

> <Gold.Chemscore.Hbond.Weighted>
-6.4043

> <Gold.Chemscore.Metal.Weighted>
-0.0000

> <Gold.Chemscore.Lipo.Weighted>
-13.5445

> <Gold.Chemscore.Internal_Hbond.Weighted>
0.0000

> <Gold.Chemscore.DEClash.Weighted>
0.1338

> <Gold.Chemscore.DEInternal.Weighted>
2.0867

> <Gold.Chemscore.Rot.Weighted>
5.6328

> <Gold.Chemscore.Internal.Correction.Weighted>
   9.000000E+99

> <Gold.Protein.RotatedTorsions>
[ 6907 6896 6895 6894 ] final   54.74 input  -60.11 | X-H torsion
[ 7974 7965 7964 7962 ] final  -81.56 input  175.53 | X-H torsion
[ 8008 7997 7996 7995 ] final   32.66 input   59.86 | X-H torsion
[ 10167 10162 10161 10158 ] final -131.95 input  -65.29 | X-H torsion
[ 10718 10713 10712 10709 ] final -122.99 input   66.30 | X-H torsion
[ 10763 10752 10751 10750 ] final  -47.19 input  -60.55 | X-H torsion
[ 11005 11000 10999 10996 ] final    7.52 input  -57.11 | X-H torsion

> <Gold.Protein.ActiveResidues>
 VAL166  LYS551  ARG553  GLY616  TRP617  ASP618  TYR619  PRO620  LYS621  CYS622 
 ASP623  PHE694  ASN695  SER759  ASP760  ASP761  ALA762  ILE779  LEU786  VAL792 
 PHE793  MET794  SER795  GLU796  ALA797  LYS798  CYS799  TRP800  GLU811  SER814 

> <Gold.Protein.RotatedAtoms>
  152.3469  134.7059  160.0247 H   0  0  0  0  0  0  0  0  0  0  0  0  # atno 6907 bound_to 6896
  151.7425  133.3317  159.3378 H   0  0  0  0  0  0  0  0  0  0  0  0  # atno 6908 bound_to 6896
  150.7515  134.6198  159.6174 H   0  0  0  0  0  0  0  0  0  0  0  0  # atno 6909 bound_to 6896
  145.5450  140.9504  143.1530 H   0  0  0  0  0  0  0  0  0  0  0  0  # atno 7974 bound_to 7965
  155.1261  140.3253  155.4485 H   0  0  0  0  0  0  0  0  0  0  0  0  # atno 8008 bound_to 7997
  156.2648  140.2018  156.6331 H   0  0  0  0  0  0  0  0  0  0  0  0  # atno 8009 bound_to 7997
  154.6647  140.0543  157.0087 H   0  0  0  0  0  0  0  0  0  0  0  0  # atno 8010 bound_to 7997
  139.9136  143.6464  152.2570 H   0  0  0  0  0  0  0  0  0  0  0  0  # atno 10167 bound_to 10162
  156.1464  130.6503  150.9849 H   0  0  0  0  0  0  0  0  0  0  0  0  # atno 10718 bound_to 10713
  154.0573  135.6623  153.4807 H   0  0  0  0  0  0  0  0  0  0  0  0  # atno 10763 bound_to 10752
  153.0440  135.5126  154.7693 H   0  0  0  0  0  0  0  0  0  0  0  0  # atno 10764 bound_to 10752
  154.6718  135.3031  154.9698 H   0  0  0  0  0  0  0  0  0  0  0  0  # atno 10765 bound_to 10752
  140.5473  134.0317  155.7924 H   0  0  0  0  0  0  0  0  0  0  0  0  # atno 11005 bound_to 11000
  144.7558  139.7079  143.7255 LP  0  0  0  0  0  0  0  0  0  0  0  0  # atno 17320 bound_to 7965
  146.1955  139.5219  142.9777 LP  0  0  0  0  0  0  0  0  0  0  0  0  # atno 17321 bound_to 7965
  139.6921  144.7645  151.1420 LP  0  0  0  0  0  0  0  0  0  0  0  0  # atno 17342 bound_to 10162
  140.7679  143.5575  150.9136 LP  0  0  0  0  0  0  0  0  0  0  0  0  # atno 17343 bound_to 10162
  157.6620  131.0879  150.7816 LP  0  0  0  0  0  0  0  0  0  0  0  0  # atno 17370 bound_to 10713
  156.7887  130.4883  149.5388 LP  0  0  0  0  0  0  0  0  0  0  0  0  # atno 17371 bound_to 10713
  141.1192  133.9489  157.2762 LP  0  0  0  0  0  0  0  0  0  0  0  0  # atno 17394 bound_to 11000
  139.9473  135.0182  156.8890 LP  0  0  0  0  0  0  0  0  0  0  0  0  # atno 17395 bound_to 11000

$$$$
