AV-unprocessed.smi:2902|AV-procd|sdf|11152|dock3
  -GOLD-   2272016 33D 1   1.00000     0.00000
 Structure written by MMmdl.
 47 48  0  0  0  0  0  0  0  0  1 V2000
  145.9744  136.5658  154.7186 C   0  0  0  0  0  0  0  0  0  0  0  0
  146.2456  135.7451  153.4512 C   0  0  0  0  0  0  0  0  0  0  0  0
  146.6219  134.2835  153.7581 C   0  0  1  0  0  0  0  0  0  0  0  0
  146.9178  133.6388  152.5193 O   0  0  0  0  0  0  0  0  0  0  0  0
  145.8907  133.6530  151.5308 C   0  0  0  0  0  0  0  0  0  0  0  0
  144.6093  133.0427  152.0935 C   0  0  0  0  0  0  0  0  0  0  0  0
  143.8058  132.6263  150.8578 C   0  0  0  0  0  0  0  0  0  0  0  0
  144.8337  132.3911  149.7398 C   0  0  0  0  0  0  0  0  0  0  0  0
  146.2018  132.7598  150.3265 C   0  0  0  0  0  0  0  0  0  0  0  0
  147.8365  134.2006  154.6960 C   0  0  0  0  0  0  0  0  0  0  0  0
  147.7324  133.6664  155.8004 O   0  0  0  0  0  0  0  0  0  0  0  0
  148.9731  134.7521  154.2413 N   0  0  0  0  0  0  0  0  0  0  0  0
  150.2405  134.8361  154.9649 C   0  0  2  0  0  0  0  0  0  0  0  0
  150.5227  133.4711  155.6179 C   0  0  0  0  0  0  0  0  0  0  0  0
  150.2029  136.0114  155.9768 C   0  0  2  0  0  0  0  0  0  0  0  0
  148.9520  135.9884  156.8770 C   0  0  0  0  0  0  0  0  0  0  0  0
  150.3274  137.3035  155.3156 N   0  0  0  0  0  0  0  0  0  0  0  0
  151.3361  138.1773  155.3115 C   0  0  0  0  0  0  0  0  0  0  0  0
  151.1039  139.2624  154.5860 N   0  0  0  0  0  0  0  0  0  0  0  0
  149.8451  138.9739  154.1405 C   0  0  0  0  0  0  0  0  0  0  0  0
  149.3328  137.8129  154.5482 N   0  0  0  0  0  0  0  0  0  0  0  0
  145.7202  137.5954  154.4669 H   0  0  0  0  0  0  0  0  0  0  0  0
  146.8498  136.5885  155.3681 H   0  0  0  0  0  0  0  0  0  0  0  0
  145.1441  136.1492  155.2893 H   0  0  0  0  0  0  0  0  0  0  0  0
  145.3657  135.7778  152.8070 H   0  0  0  0  0  0  0  0  0  0  0  0
  147.0520  136.2237  152.8934 H   0  0  0  0  0  0  0  0  0  0  0  0
  145.7656  133.8045  154.2356 H   0  0  0  0  0  0  0  0  0  0  0  0
  145.6660  134.6657  151.1936 H   0  0  0  0  0  0  0  0  0  0  0  0
  144.8508  132.1576  152.6838 H   0  0  0  0  0  0  0  0  0  0  0  0
  144.0641  133.7325  152.7383 H   0  0  0  0  0  0  0  0  0  0  0  0
  143.1994  131.7414  151.0524 H   0  0  0  0  0  0  0  0  0  0  0  0
  143.1278  133.4300  150.5683 H   0  0  0  0  0  0  0  0  0  0  0  0
  144.8222  131.3581  149.3904 H   0  0  0  0  0  0  0  0  0  0  0  0
  144.6031  133.0268  148.8842 H   0  0  0  0  0  0  0  0  0  0  0  0
  146.8494  133.2463  149.5968 H   0  0  0  0  0  0  0  0  0  0  0  0
  146.7065  131.8534  150.6647 H   0  0  0  0  0  0  0  0  0  0  0  0
  148.9525  135.1681  153.3216 H   0  0  0  0  0  0  0  0  0  0  0  0
  151.0537  135.0273  154.2623 H   0  0  0  0  0  0  0  0  0  0  0  0
  151.5037  133.4449  156.0926 H   0  0  0  0  0  0  0  0  0  0  0  0
  150.5053  132.6727  154.8751 H   0  0  0  0  0  0  0  0  0  0  0  0
  149.7775  133.2340  156.3779 H   0  0  0  0  0  0  0  0  0  0  0  0
  151.0719  135.9143  156.6300 H   0  0  0  0  0  0  0  0  0  0  0  0
  148.9165  135.0895  157.4923 H   0  0  0  0  0  0  0  0  0  0  0  0
  148.0357  136.0207  156.2868 H   0  0  0  0  0  0  0  0  0  0  0  0
  148.9416  136.8430  157.5541 H   0  0  0  0  0  0  0  0  0  0  0  0
  152.2601  138.0157  155.8469 H   0  0  0  0  0  0  0  0  0  0  0  0
  149.2896  139.6392  153.4960 H   0  0  0  0  0  0  0  0  0  0  0  0
  1  2  1  0  0  0  0
  1 22  1  0  0  0  0
  1 23  1  0  0  0  0
  1 24  1  0  0  0  0
  2  3  1  0  0  0  0
  2 25  1  0  0  0  0
  2 26  1  0  0  0  0
  3  4  1  0  0  0  0
  3 10  1  0  0  0  0
  3 27  1  0  0  0  0
  4  5  1  0  0  0  0
  5  9  1  0  0  0  0
  5  6  1  0  0  0  0
  5 28  1  0  0  0  0
  6  7  1  0  0  0  0
  6 29  1  0  0  0  0
  6 30  1  0  0  0  0
  7  8  1  0  0  0  0
  7 31  1  0  0  0  0
  7 32  1  0  0  0  0
  8  9  1  0  0  0  0
  8 33  1  0  0  0  0
  8 34  1  0  0  0  0
  9 35  1  0  0  0  0
  9 36  1  0  0  0  0
 10 11  2  0  0  0  0
 10 12  1  0  0  0  0
 12 13  1  0  0  0  0
 12 37  1  0  0  0  0
 13 14  1  0  0  0  0
 13 15  1  0  0  0  0
 13 38  1  0  0  0  0
 14 39  1  0  0  0  0
 14 40  1  0  0  0  0
 14 41  1  0  0  0  0
 15 16  1  0  0  0  0
 15 17  1  0  0  0  0
 15 42  1  0  0  0  0
 16 43  1  0  0  0  0
 16 44  1  0  0  0  0
 16 45  1  0  0  0  0
 17 21  1  0  0  0  0
 17 18  1  0  0  0  0
 18 19  2  0  0  0  0
 18 46  1  0  0  0  0
 19 20  1  0  0  0  0
 20 21  2  0  0  0  0
 20 47  1  0  0  0  0
M  END
> <s_m_source_file>
AV-unprocessed.smi

> <i_m_source_file_index>
2902

> <i_lp_mmshare_version>
43012

> <i_f3d_flags>
0

> <s_epik_input>
W0NIMl0xW0NIMl1bQ0gyXVtDSDJdW0NIXTFPW0NAQEhdKFtDSDJdW0NIM10pQyg9TylbTkhdW0NASF0oW0NIM10pW0NASF0oW0NIM10pbjJbY0hdbltjSF1uMg==

> <s_epik_cmdline>
J2VwaWtfcHl0aG9uJywgJy1waCcsICc3LjAnLCAnLXRuJywgJzgnLCAnLW1hJywgJzIwMCcsICctbWV0YWxfYmluZGluZycsICctaW1hZScsICc8aW5maWxlLm1hZT4nLCAnLW9tYWUnLCAnPG91dGZpbGUubWFlPic=

> <r_lp_tautomer_probability>
1

> <r_epik_Ionization_Penalty>
6.95617e-05

> <r_epik_Ionization_Penalty_Charging>
0

> <r_epik_Ionization_Penalty_Neutral>
6.95617e-05

> <r_epik_State_Penalty>
-0

> <r_epik_Charging_Adjusted_Penalty>
0

> <i_epik_Tot_Q>
0

> <i_epik_Tot_abs_Q>
0

> <r_epik_Metal_State_Penalty>
-0

> <b_epik_Metal_Only>
0

> <s_lp_Force_Field>
OPLS_2005

> <r_lp_Energy>
28.6706

> <b_lp_Chiralities_Consistent>
1

> <s_lp_Variant>
AV-unprocessed.smi:2902-2

> <Gold.Version>
5.8.1

> <Gold.Id.Protein>
6NUR|6NUR_protein|mol2

> <Gold.PLP.Fitness>
36.3547

> <Gold.PLP.PLP>
-28.2539

> <Gold.PLP.part.hbond>
-2.0000

> <Gold.PLP.part.metal>
0.0000

> <Gold.PLP.part.buried>
-4.3701

> <Gold.PLP.part.nonpolar>
-22.7785

> <Gold.PLP.part.repulsive>
0.6971

> <Gold.PLP.ligand.clash>
0.0000

> <Gold.PLP.ligand.torsion>
0.5629

> <Gold.PLP.Chemscore.Hbond>
2.0000

> <Gold.PLP.Chemscore.CHOScore>
0.9951

> <Gold.PLP.Chemscore.Metal>
0.0000

> <Gold.Chemscore.Hbonds>
donor molecule, donor type, donor heavy atom, donor atom, acceptor molecule, acceptor atom, score
      L1  H    12    37       P1  7948  1.00
      P1  H  7989  7998       L1    19  1.00
      L1  C    20    47       P1  7957  0.96

> <Gold.PLP.Chemscore.Internal.Correction>
0.2413

> <Gold.Rescore>
     Score         DG    S(hbond)    S(metal)    S(lipo)     H(rot)  DE(clash)    DE(int)     intcor
      7.29     -11.32       1.72        0.00      59.61       2.69       0.02       4.01       ----

> <Gold.Chemscore.Fitness>
7.2861

> <Gold.Chemscore.DG>
-11.3191

> <Gold.Chemscore.ZeroCoef>
-5.4800

> <Gold.Chemscore.Hbond>
1.7246

> <Gold.Chemscore.Metal>
0.0000

> <Gold.Chemscore.Lipo>
59.6085

> <Gold.Chemscore.Internal_Hbond>
0.0000

> <Gold.Chemscore.DEClash>
0.0195

> <Gold.Chemscore.DEInternal>
4.0134

> <Gold.Chemscore.Rot>
2.6935

> <Gold.Chemscore.Internal.Correction>
   9.000000E+99

> <Gold.Chemscore.Hbonds>
donor molecule, donor type, donor heavy atom, donor atom, acceptor molecule, acceptor atom, score
      L1  H    12    37       P1  7948  0.45
      P1  H  7989  7998       L1    19  0.43

> <Gold.Chemscore.Hbond.Weighted>
-5.7602

> <Gold.Chemscore.Metal.Weighted>
-0.0000

> <Gold.Chemscore.Lipo.Weighted>
-6.9742

> <Gold.Chemscore.Internal_Hbond.Weighted>
0.0000

> <Gold.Chemscore.DEClash.Weighted>
0.0195

> <Gold.Chemscore.DEInternal.Weighted>
4.0134

> <Gold.Chemscore.Rot.Weighted>
6.8954

> <Gold.Chemscore.Internal.Correction.Weighted>
   9.000000E+99

> <Gold.Protein.RotatedTorsions>
[ 6907 6896 6895 6894 ] final -138.89 input  -60.11 | X-H torsion
[ 7974 7965 7964 7962 ] final  -37.48 input  175.53 | X-H torsion
[ 8008 7997 7996 7995 ] final -174.83 input   59.86 | X-H torsion
[ 10167 10162 10161 10158 ] final  -27.24 input  -65.29 | X-H torsion
[ 10718 10713 10712 10709 ] final   49.18 input   66.30 | X-H torsion
[ 10763 10752 10751 10750 ] final  -15.80 input  -60.55 | X-H torsion
[ 11005 11000 10999 10996 ] final   39.07 input  -57.11 | X-H torsion

> <Gold.Protein.ActiveResidues>
 VAL166  LYS551  ARG553  GLY616  TRP617  ASP618  TYR619  PRO620  LYS621  CYS622 
 ASP623  PHE694  ASN695  SER759  ASP760  ASP761  ALA762  ILE779  LEU786  VAL792 
 PHE793  MET794  SER795  GLU796  ALA797  LYS798  CYS799  TRP800  GLU811  SER814 

> <Gold.Protein.RotatedAtoms>
  151.0408  133.5708  159.2651 H   0  0  0  0  0  0  0  0  0  0  0  0  # atno 6907 bound_to 6896
  151.2755  135.0697  159.9160 H   0  0  0  0  0  0  0  0  0  0  0  0  # atno 6908 bound_to 6896
  152.5364  134.0131  159.8001 H   0  0  0  0  0  0  0  0  0  0  0  0  # atno 6909 bound_to 6896
  146.0571  140.6401  142.9014 H   0  0  0  0  0  0  0  0  0  0  0  0  # atno 7974 bound_to 7965
  155.9750  140.1170  157.0778 H   0  0  0  0  0  0  0  0  0  0  0  0  # atno 8008 bound_to 7997
  154.4167  140.1155  156.5426 H   0  0  0  0  0  0  0  0  0  0  0  0  # atno 8009 bound_to 7997
  155.6546  140.3473  155.4763 H   0  0  0  0  0  0  0  0  0  0  0  0  # atno 8010 bound_to 7997
  140.7278  143.4110  151.1106 H   0  0  0  0  0  0  0  0  0  0  0  0  # atno 10167 bound_to 10162
  157.4761  130.8286  149.8041 H   0  0  0  0  0  0  0  0  0  0  0  0  # atno 10718 bound_to 10713
  153.5489  135.7012  153.5601 H   0  0  0  0  0  0  0  0  0  0  0  0  # atno 10763 bound_to 10752
  153.3533  135.3989  155.1663 H   0  0  0  0  0  0  0  0  0  0  0  0  # atno 10764 bound_to 10752
  154.8664  135.3771  154.4999 H   0  0  0  0  0  0  0  0  0  0  0  0  # atno 10765 bound_to 10752
  140.2064  134.3808  155.8070 H   0  0  0  0  0  0  0  0  0  0  0  0  # atno 11005 bound_to 11000
  144.7154  140.4190  143.7048 LP  0  0  0  0  0  0  0  0  0  0  0  0  # atno 17320 bound_to 7965
  145.6625  139.1584  143.2800 LP  0  0  0  0  0  0  0  0  0  0  0  0  # atno 17321 bound_to 7965
  139.7743  143.8448  152.3126 LP  0  0  0  0  0  0  0  0  0  0  0  0  # atno 17342 bound_to 10162
  139.8378  144.7224  150.9369 LP  0  0  0  0  0  0  0  0  0  0  0  0  # atno 17343 bound_to 10162
  156.0098  130.3838  150.2305 LP  0  0  0  0  0  0  0  0  0  0  0  0  # atno 17370 bound_to 10713
  157.0490  131.0057  151.3260 LP  0  0  0  0  0  0  0  0  0  0  0  0  # atno 17371 bound_to 10713
  141.2227  133.7120  156.8345 LP  0  0  0  0  0  0  0  0  0  0  0  0  # atno 17394 bound_to 11000
  140.1998  134.8905  157.3156 LP  0  0  0  0  0  0  0  0  0  0  0  0  # atno 17395 bound_to 11000

$$$$
