AV-unprocessed.smi:1840|AV-procd|sdf|7490|dock1
  -GOLD-   22720 9193D 1   1.00000     0.00000
 Structure written by MMmdl.
 43 44  0  0  0  0  0  0  0  0  1 V2000
  146.6590  139.3841  151.4542 C   0  0  0  0  0  0  0  0  0  0  0  0
  146.5424  138.5720  152.7511 C   0  0  2  0  0  0  0  0  0  0  0  0
  147.6695  138.9307  153.7434 C   0  0  0  0  0  0  0  0  0  0  0  0
  147.6056  140.3112  154.1904 N   0  0  0  0  0  0  0  0  0  0  0  0
  146.7650  141.3152  153.7568 C   0  0  0  0  0  0  0  0  0  0  0  0
  147.0912  142.4451  154.4502 C   0  0  0  0  0  0  0  0  0  0  0  0
  148.1539  142.0256  155.2986 C   0  0  0  0  0  0  0  0  0  0  0  0
  148.4570  140.7470  155.1437 N   0  0  0  0  0  0  0  0  0  0  0  0
  146.5769  137.1471  152.4241 N   0  0  0  0  0  0  0  0  0  0  0  0
  145.5797  136.2748  152.6306 C   0  0  0  0  0  0  0  0  0  0  0  0
  144.4735  136.5791  153.0767 O   0  0  0  0  0  0  0  0  0  0  0  0
  145.9477  135.0255  152.3176 N   0  0  0  0  0  0  0  0  0  0  0  0
  145.1270  133.8261  152.4891 C   0  0  1  0  0  0  0  0  0  0  0  0
  143.7880  133.9776  151.7388 C   0  0  0  0  0  0  0  0  0  0  0  0
  143.9718  133.9413  150.2118 C   0  0  0  0  0  0  0  0  0  0  0  0
  144.7140  132.6704  149.7722 C   0  0  0  0  0  0  0  0  0  0  0  0
  146.0621  132.5298  150.4974 C   0  0  0  0  0  0  0  0  0  0  0  0
  145.8888  132.5581  152.0303 C   0  0  1  0  0  0  0  0  0  0  0  0
  147.2334  132.3765  152.7564 C   0  0  0  0  0  0  0  0  0  0  0  0
  146.6045  140.4542  151.6568 H   0  0  0  0  0  0  0  0  0  0  0  0
  145.8514  139.1392  150.7635 H   0  0  0  0  0  0  0  0  0  0  0  0
  147.6042  139.1897  150.9460 H   0  0  0  0  0  0  0  0  0  0  0  0
  145.5824  138.8263  153.2044 H   0  0  0  0  0  0  0  0  0  0  0  0
  147.6329  138.2789  154.6173 H   0  0  0  0  0  0  0  0  0  0  0  0
  148.6434  138.7711  153.2784 H   0  0  0  0  0  0  0  0  0  0  0  0
  146.0205  141.1460  152.9929 H   0  0  0  0  0  0  0  0  0  0  0  0
  146.6416  143.4230  154.3629 H   0  0  0  0  0  0  0  0  0  0  0  0
  148.7106  142.6085  156.0176 H   0  0  0  0  0  0  0  0  0  0  0  0
  147.4436  136.7914  152.0484 H   0  0  0  0  0  0  0  0  0  0  0  0
  146.8791  134.8840  151.9556 H   0  0  0  0  0  0  0  0  0  0  0  0
  144.9025  133.7029  153.5503 H   0  0  0  0  0  0  0  0  0  0  0  0
  143.1199  133.1679  152.0351 H   0  0  0  0  0  0  0  0  0  0  0  0
  143.2906  134.9023  152.0343 H   0  0  0  0  0  0  0  0  0  0  0  0
  142.9997  133.9919  149.7205 H   0  0  0  0  0  0  0  0  0  0  0  0
  144.5266  134.8215  149.8850 H   0  0  0  0  0  0  0  0  0  0  0  0
  144.0952  131.7965  149.9796 H   0  0  0  0  0  0  0  0  0  0  0  0
  144.8723  132.6874  148.6935 H   0  0  0  0  0  0  0  0  0  0  0  0
  146.5404  131.5975  150.1951 H   0  0  0  0  0  0  0  0  0  0  0  0
  146.7306  133.3321  150.1825 H   0  0  0  0  0  0  0  0  0  0  0  0
  145.2701  131.7004  152.2993 H   0  0  0  0  0  0  0  0  0  0  0  0
  147.9422  133.1645  152.5010 H   0  0  0  0  0  0  0  0  0  0  0  0
  147.6932  131.4239  152.4928 H   0  0  0  0  0  0  0  0  0  0  0  0
  147.0993  132.3887  153.8384 H   0  0  0  0  0  0  0  0  0  0  0  0
  1  2  1  0  0  0  0
  1 20  1  0  0  0  0
  1 21  1  0  0  0  0
  1 22  1  0  0  0  0
  2  3  1  0  0  0  0
  2  9  1  0  0  0  0
  2 23  1  0  0  0  0
  3  4  1  0  0  0  0
  3 24  1  0  0  0  0
  3 25  1  0  0  0  0
  4  8  1  0  0  0  0
  4  5  1  0  0  0  0
  5  6  2  0  0  0  0
  5 26  1  0  0  0  0
  6  7  1  0  0  0  0
  6 27  1  0  0  0  0
  7  8  2  0  0  0  0
  7 28  1  0  0  0  0
  9 10  1  0  0  0  0
  9 29  1  0  0  0  0
 10 11  2  0  0  0  0
 10 12  1  0  0  0  0
 12 13  1  0  0  0  0
 12 30  1  0  0  0  0
 13 18  1  0  0  0  0
 13 14  1  0  0  0  0
 13 31  1  0  0  0  0
 14 15  1  0  0  0  0
 14 32  1  0  0  0  0
 14 33  1  0  0  0  0
 15 16  1  0  0  0  0
 15 34  1  0  0  0  0
 15 35  1  0  0  0  0
 16 17  1  0  0  0  0
 16 36  1  0  0  0  0
 16 37  1  0  0  0  0
 17 18  1  0  0  0  0
 17 38  1  0  0  0  0
 17 39  1  0  0  0  0
 18 19  1  0  0  0  0
 18 40  1  0  0  0  0
 19 41  1  0  0  0  0
 19 42  1  0  0  0  0
 19 43  1  0  0  0  0
M  END
> <s_m_source_file>
AV-unprocessed.smi

> <i_m_source_file_index>
1840

> <i_lp_mmshare_version>
43012

> <i_f3d_flags>
0

> <s_epik_input>
bjFbY0hdW2NIXVtjSF1uMVtDSDJdW0NAQEhdKFtDSDNdKVtOSF1DKD1PKVtOSF1bQ0BASF0yW0NIMl1bQ0gyXVtDSDJdW0NIMl1bQ0BIXTJbQ0gzXQ==

> <s_epik_cmdline>
J2VwaWtfcHl0aG9uJywgJy1waCcsICc3LjAnLCAnLXRuJywgJzgnLCAnLW1hJywgJzIwMCcsICctbWV0YWxfYmluZGluZycsICctaW1hZScsICc8aW5maWxlLm1hZT4nLCAnLW9tYWUnLCAnPG91dGZpbGUubWFlPic=

> <r_lp_tautomer_probability>
1

> <r_epik_Ionization_Penalty>
7.38659e-05

> <r_epik_Ionization_Penalty_Charging>
0

> <r_epik_Ionization_Penalty_Neutral>
7.38659e-05

> <r_epik_State_Penalty>
-0

> <r_epik_Charging_Adjusted_Penalty>
0

> <i_epik_Tot_Q>
0

> <i_epik_Tot_abs_Q>
0

> <r_epik_Metal_State_Penalty>
-0

> <b_epik_Metal_Only>
0

> <s_lp_Force_Field>
OPLS_2005

> <r_lp_Energy>
7.22709

> <b_lp_Chiralities_Consistent>
1

> <s_lp_Variant>
AV-unprocessed.smi:1840-3

> <Gold.Version>
5.8.1

> <Gold.Id.Protein>
6NUR|6NUR_protein|mol2

> <Gold.PLP.Fitness>
39.4350

> <Gold.PLP.PLP>
-31.1342

> <Gold.PLP.part.hbond>
-1.4700

> <Gold.PLP.part.metal>
0.0000

> <Gold.PLP.part.buried>
0.8147

> <Gold.PLP.part.nonpolar>
-32.7793

> <Gold.PLP.part.repulsive>
0.2786

> <Gold.PLP.ligand.clash>
0.0000

> <Gold.PLP.ligand.torsion>
0.0571

> <Gold.PLP.Chemscore.Hbond>
1.0803

> <Gold.PLP.Chemscore.CHOScore>
1.7078

> <Gold.PLP.Chemscore.Metal>
0.0000

> <Gold.Chemscore.Hbonds>
donor molecule, donor type, donor heavy atom, donor atom, acceptor molecule, acceptor atom, score
      L1  H     9    29       P1  7948  1.00
      L1  C     5    26       P1 10175  0.94
      L1  C     7    28       P1  8028  0.74

> <Gold.PLP.Chemscore.Internal.Correction>
0.0506

> <Gold.Rescore>
     Score         DG    S(hbond)    S(metal)    S(lipo)     H(rot)  DE(clash)    DE(int)     intcor
     14.30     -17.86       1.68        0.00      91.95       1.56       2.14       1.42       ----

> <Gold.Chemscore.Fitness>
14.3023

> <Gold.Chemscore.DG>
-17.8622

> <Gold.Chemscore.ZeroCoef>
-5.4800

> <Gold.Chemscore.Hbond>
1.6801

> <Gold.Chemscore.Metal>
0.0000

> <Gold.Chemscore.Lipo>
91.9512

> <Gold.Chemscore.Internal_Hbond>
0.0000

> <Gold.Chemscore.DEClash>
2.1394

> <Gold.Chemscore.DEInternal>
1.4204

> <Gold.Chemscore.Rot>
1.5576

> <Gold.Chemscore.Internal.Correction>
   9.000000E+99

> <Gold.Chemscore.Hbonds>
donor molecule, donor type, donor heavy atom, donor atom, acceptor molecule, acceptor atom, score
      L1  H     9    29       P1  7948  0.99
      L1  H    12    30       P1  7948  0.05

> <Gold.Chemscore.Hbond.Weighted>
-5.6114

> <Gold.Chemscore.Metal.Weighted>
-0.0000

> <Gold.Chemscore.Lipo.Weighted>
-10.7583

> <Gold.Chemscore.Internal_Hbond.Weighted>
0.0000

> <Gold.Chemscore.DEClash.Weighted>
2.1394

> <Gold.Chemscore.DEInternal.Weighted>
1.4204

> <Gold.Chemscore.Rot.Weighted>
3.9875

> <Gold.Chemscore.Internal.Correction.Weighted>
   9.000000E+99

> <Gold.Protein.RotatedTorsions>
[ 6907 6896 6895 6894 ] final  -37.78 input  -60.11 | X-H torsion
[ 7974 7965 7964 7962 ] final  -94.34 input  175.53 | X-H torsion
[ 8008 7997 7996 7995 ] final  -79.90 input   59.86 | X-H torsion
[ 10167 10162 10161 10158 ] final  105.84 input  -65.29 | X-H torsion
[ 10718 10713 10712 10709 ] final   42.89 input   66.30 | X-H torsion
[ 10763 10752 10751 10750 ] final -139.76 input  -60.55 | X-H torsion
[ 11005 11000 10999 10996 ] final -144.57 input  -57.11 | X-H torsion

> <Gold.Protein.ActiveResidues>
 VAL166  LYS551  ARG553  GLY616  TRP617  ASP618  TYR619  PRO620  LYS621  CYS622 
 ASP623  PHE694  ASN695  SER759  ASP760  ASP761  ALA762  ILE779  LEU786  VAL792 
 PHE793  MET794  SER795  GLU796  ALA797  LYS798  CYS799  TRP800  GLU811  SER814 

> <Gold.Protein.RotatedAtoms>
  151.0105  134.9393  159.8004 H   0  0  0  0  0  0  0  0  0  0  0  0  # atno 6907 bound_to 6896
  152.5301  134.3034  159.9097 H   0  0  0  0  0  0  0  0  0  0  0  0  # atno 6908 bound_to 6896
  151.3040  133.4068  159.2676 H   0  0  0  0  0  0  0  0  0  0  0  0  # atno 6909 bound_to 6896
  145.3745  140.9510  143.2428 H   0  0  0  0  0  0  0  0  0  0  0  0  # atno 7974 bound_to 7965
  154.5830  140.0671  156.9131 H   0  0  0  0  0  0  0  0  0  0  0  0  # atno 8008 bound_to 7997
  155.2429  140.3346  155.4272 H   0  0  0  0  0  0  0  0  0  0  0  0  # atno 8009 bound_to 7997
  156.2203  140.1796  156.7478 H   0  0  0  0  0  0  0  0  0  0  0  0  # atno 8010 bound_to 7997
  139.7059  144.7086  151.1107 H   0  0  0  0  0  0  0  0  0  0  0  0  # atno 10167 bound_to 10162
  157.4099  130.7908  149.7421 H   0  0  0  0  0  0  0  0  0  0  0  0  # atno 10718 bound_to 10713
  154.8599  135.3573  154.5598 H   0  0  0  0  0  0  0  0  0  0  0  0  # atno 10763 bound_to 10752
  153.6214  135.7006  153.5314 H   0  0  0  0  0  0  0  0  0  0  0  0  # atno 10764 bound_to 10752
  153.3126  135.4174  155.1309 H   0  0  0  0  0  0  0  0  0  0  0  0  # atno 10765 bound_to 10752
  140.8011  134.2856  157.4978 H   0  0  0  0  0  0  0  0  0  0  0  0  # atno 11005 bound_to 11000
  144.8552  139.5261  143.6838 LP  0  0  0  0  0  0  0  0  0  0  0  0  # atno 17320 bound_to 7965
  146.2870  139.7032  142.9188 LP  0  0  0  0  0  0  0  0  0  0  0  0  # atno 17321 bound_to 7965
  140.7721  143.5359  150.9369 LP  0  0  0  0  0  0  0  0  0  0  0  0  # atno 17342 bound_to 10162
  139.9042  143.6798  152.3126 LP  0  0  0  0  0  0  0  0  0  0  0  0  # atno 17343 bound_to 10162
  155.9847  130.3989  150.3296 LP  0  0  0  0  0  0  0  0  0  0  0  0  # atno 17370 bound_to 10713
  157.1433  131.0302  151.2918 LP  0  0  0  0  0  0  0  0  0  0  0  0  # atno 17371 bound_to 10713
  139.8721  134.9430  156.3840 LP  0  0  0  0  0  0  0  0  0  0  0  0  # atno 17394 bound_to 11000
  140.9294  133.7590  156.0005 LP  0  0  0  0  0  0  0  0  0  0  0  0  # atno 17395 bound_to 11000

$$$$
