AV-unprocessed.smi:1208|AV-procd|sdf|5067|dock10
  -GOLD-   22720 4113D 1   1.00000     0.00000
 Structure written by MMmdl.
 36 37  0  0  0  0  0  0  0  0  1 V2000
  149.2129  141.3454  154.3296 C   0  0  0  0  0  0  0  0  0  0  0  0
  149.5172  140.8772  155.7620 C   0  0  2  0  0  0  0  0  0  0  0  0
  150.3154  141.8833  156.4546 N   0  0  0  0  0  0  0  0  0  0  0  0
  150.6743  141.8583  157.7492 C   0  0  0  0  0  0  0  0  0  0  0  0
  150.3307  140.9633  158.5202 O   0  0  0  0  0  0  0  0  0  0  0  0
  151.5602  143.0018  158.2748 C   0  0  0  0  0  0  0  0  0  0  0  0
  152.1161  142.7818  159.6202 N   0  0  0  0  0  0  0  0  0  0  0  0
  151.6888  143.7025  160.5653 N   0  0  0  0  0  0  0  0  0  0  0  0
  152.0844  143.6016  161.7890 C   0  0  0  0  0  0  0  0  0  0  0  0
  151.6330  144.5313  162.6932 O   0  0  0  0  0  0  0  0  0  0  0  0
  152.9776  142.5414  162.2017 C   0  0  0  0  0  0  0  0  0  0  0  0
  153.3889  141.6498  161.2739 C   0  0  0  0  0  0  0  0  0  0  0  0
  152.9530  141.7302  159.8786 C   0  0  0  0  0  0  0  0  0  0  0  0
  153.2956  140.9204  159.0181 O   0  0  0  0  0  0  0  0  0  0  0  0
  150.2653  139.5302  155.7798 C   0  0  1  0  0  0  0  0  0  0  0  0
  149.5103  138.3707  155.1262 C   0  0  0  0  0  0  0  0  0  0  0  0
  150.6408  137.4279  154.7845 C   0  0  0  0  0  0  0  0  0  0  0  0
  151.7417  138.3958  154.3591 C   0  0  0  0  0  0  0  0  0  0  0  0
  151.4828  139.6195  155.0441 O   0  0  0  0  0  0  0  0  0  0  0  0
  151.3342  145.2628  162.1754 H   0  0  0  0  0  0  0  0  0  0  0  0
  148.6044  140.6138  153.7977 H   0  0  0  0  0  0  0  0  0  0  0  0
  150.1292  141.4948  153.7576 H   0  0  0  0  0  0  0  0  0  0  0  0
  148.6636  142.2873  154.3299 H   0  0  0  0  0  0  0  0  0  0  0  0
  148.5735  140.7465  156.2948 H   0  0  0  0  0  0  0  0  0  0  0  0
  150.6417  142.6594  155.8972 H   0  0  0  0  0  0  0  0  0  0  0  0
  152.3601  143.1826  157.5549 H   0  0  0  0  0  0  0  0  0  0  0  0
  150.9624  143.9149  158.2724 H   0  0  0  0  0  0  0  0  0  0  0  0
  153.3040  142.4722  163.2290 H   0  0  0  0  0  0  0  0  0  0  0  0
  154.0564  140.8534  161.5675 H   0  0  0  0  0  0  0  0  0  0  0  0
  150.5150  139.2527  156.8054 H   0  0  0  0  0  0  0  0  0  0  0  0
  148.7645  137.9213  155.7829 H   0  0  0  0  0  0  0  0  0  0  0  0
  149.0105  138.7012  154.2146 H   0  0  0  0  0  0  0  0  0  0  0  0
  150.9476  136.8766  155.6741 H   0  0  0  0  0  0  0  0  0  0  0  0
  150.3815  136.7080  154.0080 H   0  0  0  0  0  0  0  0  0  0  0  0
  152.7367  138.0150  154.5904 H   0  0  0  0  0  0  0  0  0  0  0  0
  151.6926  138.5845  153.2859 H   0  0  0  0  0  0  0  0  0  0  0  0
  1  2  1  0  0  0  0
  1 21  1  0  0  0  0
  1 22  1  0  0  0  0
  1 23  1  0  0  0  0
  2  3  1  0  0  0  0
  2 15  1  0  0  0  0
  2 24  1  0  0  0  0
  3  4  1  0  0  0  0
  3 25  1  0  0  0  0
  4  5  2  0  0  0  0
  4  6  1  0  0  0  0
  6 26  1  0  0  0  0
  6 27  1  0  0  0  0
  6  7  1  0  0  0  0
  7  8  1  0  0  0  0
  7 13  1  0  0  0  0
  8  9  2  0  0  0  0
  9 10  1  0  0  0  0
  9 11  1  0  0  0  0
 10 20  1  0  0  0  0
 11 28  1  0  0  0  0
 11 12  2  0  0  0  0
 12 29  1  0  0  0  0
 12 13  1  0  0  0  0
 13 14  2  0  0  0  0
 15 19  1  0  0  0  0
 15 16  1  0  0  0  0
 15 30  1  0  0  0  0
 16 17  1  0  0  0  0
 16 31  1  0  0  0  0
 16 32  1  0  0  0  0
 17 18  1  0  0  0  0
 17 33  1  0  0  0  0
 17 34  1  0  0  0  0
 18 19  1  0  0  0  0
 18 35  1  0  0  0  0
 18 36  1  0  0  0  0
M  END
> <s_m_source_file>
AV-unprocessed.smi

> <i_m_source_file_index>
1208

> <i_lp_mmshare_version>
43012

> <i_f3d_flags>
0

> <s_epik_input>
TzFbQ0gyXVtDSDJdW0NIMl1bQ0BIXTFbQ0BIXShbQ0gzXSlbTkhdQyg9TylbQ0gyXW4yW25IXWMoPU8pW2NIXVtjSF1jMj1P

> <s_epik_cmdline>
J2VwaWtfcHl0aG9uJywgJy1waCcsICc3LjAnLCAnLXRuJywgJzgnLCAnLW1hJywgJzIwMCcsICctbWV0YWxfYmluZGluZycsICctaW1hZScsICc8aW5maWxlLm1hZT4nLCAnLW9tYWUnLCAnPG91dGZpbGUubWFlPic=

> <r_lp_tautomer_probability>
0.9996

> <r_epik_Ionization_Penalty>
2.12735

> <r_epik_Ionization_Penalty_Charging>
3.86665e-08

> <r_epik_Ionization_Penalty_Neutral>
2.12735

> <r_epik_State_Penalty>
1.70441

> <r_epik_Charging_Adjusted_Penalty>
1.70441

> <i_epik_Tot_Q>
0

> <i_epik_Tot_abs_Q>
0

> <r_epik_Metal_State_Penalty>
1.70441

> <b_epik_Metal_Only>
0

> <s_lp_Force_Field>
OPLS_2005

> <r_lp_Energy>
27.2877

> <b_lp_Chiralities_Consistent>
1

> <s_lp_Variant>
AV-unprocessed.smi:1208-7

> <Gold.Version>
5.8.1

> <Gold.Id.Protein>
6NUR|6NUR_protein|mol2

> <Gold.PLP.Fitness>
45.5394

> <Gold.PLP.PLP>
-41.6797

> <Gold.PLP.part.hbond>
-4.0000

> <Gold.PLP.part.metal>
0.0000

> <Gold.PLP.part.buried>
-5.2348

> <Gold.PLP.part.nonpolar>
-31.4330

> <Gold.PLP.part.repulsive>
0.1778

> <Gold.PLP.ligand.clash>
0.0000

> <Gold.PLP.ligand.torsion>
0.1341

> <Gold.PLP.Chemscore.Hbond>
1.3713

> <Gold.PLP.Chemscore.CHOScore>
0.0000

> <Gold.PLP.Chemscore.Metal>
0.0000

> <Gold.Chemscore.Hbonds>
donor molecule, donor type, donor heavy atom, donor atom, acceptor molecule, acceptor atom, score
      P1  H  7989  7998       L1    19  0.90

> <Gold.PLP.Chemscore.Internal.Correction>
0.0141

> <Gold.Rescore>
     Score         DG    S(hbond)    S(metal)    S(lipo)     H(rot)  DE(clash)    DE(int)     intcor
      9.73     -11.70       1.60        0.00      64.84       2.63       1.76       0.20       ----

> <Gold.Chemscore.Fitness>
9.7318

> <Gold.Chemscore.DG>
-11.6959

> <Gold.Chemscore.ZeroCoef>
-5.4800

> <Gold.Chemscore.Hbond>
1.6026

> <Gold.Chemscore.Metal>
0.0000

> <Gold.Chemscore.Lipo>
64.8443

> <Gold.Chemscore.Internal_Hbond>
0.0000

> <Gold.Chemscore.DEClash>
1.7627

> <Gold.Chemscore.DEInternal>
0.2014

> <Gold.Chemscore.Rot>
2.6264

> <Gold.Chemscore.Internal.Correction>
   9.000000E+99

> <Gold.Chemscore.Hbonds>
donor molecule, donor type, donor heavy atom, donor atom, acceptor molecule, acceptor atom, score
      P1  H  7989  7998       L1    19  0.17
      P1  H  7997  8009       L1    14  0.01

> <Gold.Chemscore.Hbond.Weighted>
-5.3528

> <Gold.Chemscore.Metal.Weighted>
-0.0000

> <Gold.Chemscore.Lipo.Weighted>
-7.5868

> <Gold.Chemscore.Internal_Hbond.Weighted>
0.0000

> <Gold.Chemscore.DEClash.Weighted>
1.7627

> <Gold.Chemscore.DEInternal.Weighted>
0.2014

> <Gold.Chemscore.Rot.Weighted>
6.7237

> <Gold.Chemscore.Internal.Correction.Weighted>
   9.000000E+99

> <Gold.Protein.RotatedTorsions>
[ 6907 6896 6895 6894 ] final   22.06 input  -60.11 | X-H torsion
[ 7974 7965 7964 7962 ] final   -7.47 input  175.53 | X-H torsion
[ 8008 7997 7996 7995 ] final  145.32 input   59.86 | X-H torsion
[ 10167 10162 10161 10158 ] final  -80.67 input  -65.29 | X-H torsion
[ 10718 10713 10712 10709 ] final  -14.67 input   66.30 | X-H torsion
[ 10763 10752 10751 10750 ] final  -14.42 input  -60.55 | X-H torsion
[ 11005 11000 10999 10996 ] final   45.76 input  -57.11 | X-H torsion

> <Gold.Protein.ActiveResidues>
 VAL166  LYS551  ARG553  GLY616  TRP617  ASP618  TYR619  PRO620  LYS621  CYS622 
 ASP623  PHE694  ASN695  SER759  ASP760  ASP761  ALA762  ILE779  LEU786  VAL792 
 PHE793  MET794  SER795  GLU796  ALA797  LYS798  CYS799  TRP800  GLU811  SER814 

> <Gold.Protein.RotatedAtoms>
  151.9214  135.0296  160.0522 H   0  0  0  0  0  0  0  0  0  0  0  0  # atno 6907 bound_to 6896
  152.2196  133.4969  159.5163 H   0  0  0  0  0  0  0  0  0  0  0  0  # atno 6908 bound_to 6896
  150.6996  134.1276  159.4100 H   0  0  0  0  0  0  0  0  0  0  0  0  # atno 6909 bound_to 6896
  146.2306  140.2325  142.8340 H   0  0  0  0  0  0  0  0  0  0  0  0  # atno 7974 bound_to 7965
  156.2886  140.2212  156.5197 H   0  0  0  0  0  0  0  0  0  0  0  0  # atno 8008 bound_to 7997
  154.7539  140.0478  157.0939 H   0  0  0  0  0  0  0  0  0  0  0  0  # atno 8009 bound_to 7997
  155.0075  140.3109  155.4846 H   0  0  0  0  0  0  0  0  0  0  0  0  # atno 8010 bound_to 7997
  140.4482  143.2491  151.8527 H   0  0  0  0  0  0  0  0  0  0  0  0  # atno 10167 bound_to 10162
  156.6126  130.4854  149.6195 H   0  0  0  0  0  0  0  0  0  0  0  0  # atno 10718 bound_to 10713
  153.5280  135.7015  153.5698 H   0  0  0  0  0  0  0  0  0  0  0  0  # atno 10763 bound_to 10752
  153.3718  135.3943  155.1794 H   0  0  0  0  0  0  0  0  0  0  0  0  # atno 10764 bound_to 10752
  154.8688  135.3813  154.4774 H   0  0  0  0  0  0  0  0  0  0  0  0  # atno 10765 bound_to 10752
  140.1430  134.4558  155.8436 H   0  0  0  0  0  0  0  0  0  0  0  0  # atno 11005 bound_to 11000
  144.9547  140.8214  143.5550 LP  0  0  0  0  0  0  0  0  0  0  0  0  # atno 17320 bound_to 7965
  145.2289  139.2124  143.5053 LP  0  0  0  0  0  0  0  0  0  0  0  0  # atno 17321 bound_to 7965
  139.4794  144.5150  151.8880 LP  0  0  0  0  0  0  0  0  0  0  0  0  # atno 17342 bound_to 10162
  140.4238  144.2207  150.5887 LP  0  0  0  0  0  0  0  0  0  0  0  0  # atno 17343 bound_to 10162
  156.2377  130.6832  151.1525 LP  0  0  0  0  0  0  0  0  0  0  0  0  # atno 17370 bound_to 10713
  157.7250  131.0656  150.5972 LP  0  0  0  0  0  0  0  0  0  0  0  0  # atno 17371 bound_to 10713
  141.2189  133.6841  156.7282 LP  0  0  0  0  0  0  0  0  0  0  0  0  # atno 17394 bound_to 11000
  140.2698  134.8401  157.3837 LP  0  0  0  0  0  0  0  0  0  0  0  0  # atno 17395 bound_to 11000

$$$$
