AV-unprocessed.smi:1740|AV-procd|sdf|7006|dock2
  -GOLD-   22720 8213D 1   1.00000     0.00000
 Structure written by MMmdl.
 51 53  0  0  0  0  0  0  0  0  1 V2000
  148.3873  142.8412  157.7344 N   0  0  0  0  0  0  0  0  0  0  0  0
  147.3640  141.9851  157.7828 C   0  0  0  0  0  0  0  0  0  0  0  0
  147.0845  141.3533  158.7994 O   0  0  0  0  0  0  0  0  0  0  0  0
  146.5288  141.8183  156.5073 C   0  0  0  0  0  0  0  0  0  0  0  0
  146.6751  140.5029  155.8430 N   0  0  0  0  0  0  0  0  0  0  0  0
  147.5337  140.6521  154.6630 C   0  0  0  0  0  0  0  0  0  0  0  0
  147.8135  139.2845  154.0162 C   0  0  0  0  0  0  0  0  0  0  0  0
  146.5044  138.5851  153.6168 C   0  0  0  0  0  0  0  0  0  0  0  0
  146.7626  137.2378  153.1185 N   0  0  0  0  0  0  0  0  0  0  0  0
  145.8564  136.4452  152.5297 C   0  0  0  0  0  0  0  0  0  0  0  0
  144.6847  136.7723  152.3405 O   0  0  0  0  0  0  0  0  0  0  0  0
  146.3922  135.2586  152.1991 N   0  0  0  0  0  0  0  0  0  0  0  0
  145.7453  134.1411  151.6002 C   0  0  0  0  0  0  0  0  0  0  0  0
  144.6940  134.3080  150.6659 C   0  0  0  0  0  0  0  0  0  0  0  0
  144.1326  133.1767  150.0493 C   0  0  0  0  0  0  0  0  0  0  0  0
  144.6544  131.9144  150.3769 C   0  0  0  0  0  0  0  0  0  0  0  0
  145.6641  131.7392  151.2525 N   0  0  0  0  0  0  0  0  0  0  0  0
  146.2060  132.8199  151.8669 C   0  0  0  0  0  0  0  0  0  0  0  0
  147.2477  132.5751  152.7908 N   0  0  0  0  0  0  0  0  0  0  0  0
  147.4258  131.2071  153.2695 C   0  0  0  0  0  0  0  0  0  0  0  0
  148.9364  130.9874  153.4026 C   0  0  0  0  0  0  0  0  0  0  0  0
  149.4970  132.4017  153.5142 C   0  0  0  0  0  0  0  0  0  0  0  0
  148.5564  133.1956  152.6123 C   0  0  0  0  0  0  0  0  0  0  0  0
  145.5811  138.5224  154.8409 C   0  0  0  0  0  0  0  0  0  0  0  0
  145.3815  139.9164  155.4616 C   0  0  0  0  0  0  0  0  0  0  0  0
  148.9616  142.9807  158.5530 H   0  0  0  0  0  0  0  0  0  0  0  0
  148.5832  143.3461  156.8824 H   0  0  0  0  0  0  0  0  0  0  0  0
  145.4757  142.0014  156.7297 H   0  0  0  0  0  0  0  0  0  0  0  0
  146.8405  142.6065  155.8205 H   0  0  0  0  0  0  0  0  0  0  0  0
  147.0708  141.3239  153.9377 H   0  0  0  0  0  0  0  0  0  0  0  0
  148.4833  141.1044  154.9521 H   0  0  0  0  0  0  0  0  0  0  0  0
  148.4510  139.4171  153.1415 H   0  0  0  0  0  0  0  0  0  0  0  0
  148.3733  138.6604  154.7150 H   0  0  0  0  0  0  0  0  0  0  0  0
  146.0071  139.1700  152.8405 H   0  0  0  0  0  0  0  0  0  0  0  0
  147.7011  136.8838  153.2328 H   0  0  0  0  0  0  0  0  0  0  0  0
  147.3411  135.0967  152.5035 H   0  0  0  0  0  0  0  0  0  0  0  0
  144.3252  135.2857  150.3954 H   0  0  0  0  0  0  0  0  0  0  0  0
  143.3305  133.2760  149.3332 H   0  0  0  0  0  0  0  0  0  0  0  0
  144.2552  131.0212  149.9194 H   0  0  0  0  0  0  0  0  0  0  0  0
  146.9499  131.1120  154.2460 H   0  0  0  0  0  0  0  0  0  0  0  0
  146.9742  130.4736  152.5998 H   0  0  0  0  0  0  0  0  0  0  0  0
  149.1997  130.3548  154.2507 H   0  0  0  0  0  0  0  0  0  0  0  0
  149.3191  130.5134  152.4975 H   0  0  0  0  0  0  0  0  0  0  0  0
  149.4163  132.7549  154.5431 H   0  0  0  0  0  0  0  0  0  0  0  0
  150.5413  132.4744  153.2096 H   0  0  0  0  0  0  0  0  0  0  0  0
  148.8910  133.1098  151.5776 H   0  0  0  0  0  0  0  0  0  0  0  0
  148.5336  134.2524  152.8797 H   0  0  0  0  0  0  0  0  0  0  0  0
  144.6145  138.1045  154.5576 H   0  0  0  0  0  0  0  0  0  0  0  0
  146.0004  137.8505  155.5917 H   0  0  0  0  0  0  0  0  0  0  0  0
  144.7320  139.8065  156.3300 H   0  0  0  0  0  0  0  0  0  0  0  0
  144.8627  140.5726  154.7606 H   0  0  0  0  0  0  0  0  0  0  0  0
  1  2  1  0  0  0  0
  1 26  1  0  0  0  0
  1 27  1  0  0  0  0
  2  3  2  0  0  0  0
  2  4  1  0  0  0  0
  4  5  1  0  0  0  0
  4 28  1  0  0  0  0
  4 29  1  0  0  0  0
  5 25  1  0  0  0  0
  5  6  1  0  0  0  0
  6  7  1  0  0  0  0
  6 30  1  0  0  0  0
  6 31  1  0  0  0  0
  7  8  1  0  0  0  0
  7 32  1  0  0  0  0
  7 33  1  0  0  0  0
  8  9  1  0  0  0  0
  8 24  1  0  0  0  0
  8 34  1  0  0  0  0
  9 10  1  0  0  0  0
  9 35  1  0  0  0  0
 10 11  2  0  0  0  0
 10 12  1  0  0  0  0
 12 13  1  0  0  0  0
 12 36  1  0  0  0  0
 13 18  1  0  0  0  0
 13 14  2  0  0  0  0
 14 15  1  0  0  0  0
 14 37  1  0  0  0  0
 15 16  2  0  0  0  0
 15 38  1  0  0  0  0
 16 17  1  0  0  0  0
 16 39  1  0  0  0  0
 17 18  2  0  0  0  0
 18 19  1  0  0  0  0
 19 23  1  0  0  0  0
 19 20  1  0  0  0  0
 20 21  1  0  0  0  0
 20 40  1  0  0  0  0
 20 41  1  0  0  0  0
 21 22  1  0  0  0  0
 21 42  1  0  0  0  0
 21 43  1  0  0  0  0
 22 23  1  0  0  0  0
 22 44  1  0  0  0  0
 22 45  1  0  0  0  0
 23 46  1  0  0  0  0
 23 47  1  0  0  0  0
 24 25  1  0  0  0  0
 24 48  1  0  0  0  0
 24 49  1  0  0  0  0
 25 50  1  0  0  0  0
 25 51  1  0  0  0  0
M  END
> <s_m_source_file>
AV-unprocessed.smi

> <i_m_source_file_index>
1740

> <i_lp_mmshare_version>
43012

> <i_f3d_flags>
0

> <s_epik_input>
W05IMl1DKD1PKVtDSDJdTjFbQ0gyXVtDSDJdW0NIXShbQ0gyXVtDSDJdMSlbTkhdQyg9TylbTkhdYzJbY0hdW2NIXVtjSF1uYzJOM1tDSDJdW0NIMl1bQ0gyXVtDSDJdMw==

> <s_epik_cmdline>
J2VwaWtfcHl0aG9uJywgJy1waCcsICc3LjAnLCAnLXRuJywgJzgnLCAnLW1hJywgJzIwMCcsICctbWV0YWxfYmluZGluZycsICctaW1hZScsICc8aW5maWxlLm1hZT4nLCAnLW9tYWUnLCAnPG91dGZpbGUubWFlPic=

> <r_lp_tautomer_probability>
1

> <r_epik_Ionization_Penalty>
0.268698

> <r_epik_Ionization_Penalty_Charging>
0

> <r_epik_Ionization_Penalty_Neutral>
0.268698

> <r_epik_State_Penalty>
0.247497

> <r_epik_Charging_Adjusted_Penalty>
0.247497

> <i_epik_Tot_Q>
0

> <i_epik_Tot_abs_Q>
0

> <r_epik_Metal_State_Penalty>
0.244805

> <b_epik_Metal_Only>
0

> <s_lp_Force_Field>
OPLS_2005

> <r_lp_Energy>
39.8984

> <b_lp_Chiralities_Consistent>
1

> <s_lp_Variant>
AV-unprocessed.smi:1740-1

> <Gold.Version>
5.8.1

> <Gold.Id.Protein>
6NUR|6NUR_protein|mol2

> <Gold.PLP.Fitness>
38.4480

> <Gold.PLP.PLP>
-33.9641

> <Gold.PLP.part.hbond>
-4.8077

> <Gold.PLP.part.metal>
0.0000

> <Gold.PLP.part.buried>
-5.6136

> <Gold.PLP.part.nonpolar>
-25.1640

> <Gold.PLP.part.repulsive>
0.7352

> <Gold.PLP.ligand.clash>
0.0000

> <Gold.PLP.ligand.torsion>
1.2115

> <Gold.PLP.Chemscore.Hbond>
2.1887

> <Gold.PLP.Chemscore.CHOScore>
0.0000

> <Gold.PLP.Chemscore.Metal>
0.0000

> <Gold.Chemscore.Hbonds>
donor molecule, donor type, donor heavy atom, donor atom, acceptor molecule, acceptor atom, score
      L1  H     1    27       P1  8028  1.00
      L1  H     9    35       P1  7948  0.58
      L1  H    12    36       P1  7948  0.44
      P1  H  6934  6946       L1     3  0.37

> <Gold.PLP.Chemscore.Internal.Correction>
0.3408

> <Gold.Rescore>
     Score         DG    S(hbond)    S(metal)    S(lipo)     H(rot)  DE(clash)    DE(int)     intcor
     11.40     -14.83       1.88        0.00      73.49       2.16       0.14       3.30       ----

> <Gold.Chemscore.Fitness>
11.3975

> <Gold.Chemscore.DG>
-14.8340

> <Gold.Chemscore.ZeroCoef>
-5.4800

> <Gold.Chemscore.Hbond>
1.8844

> <Gold.Chemscore.Metal>
0.0000

> <Gold.Chemscore.Lipo>
73.4931

> <Gold.Chemscore.Internal_Hbond>
0.0000

> <Gold.Chemscore.DEClash>
0.1362

> <Gold.Chemscore.DEInternal>
3.3002

> <Gold.Chemscore.Rot>
2.1635

> <Gold.Chemscore.Internal.Correction>
   9.000000E+99

> <Gold.Chemscore.Hbonds>
donor molecule, donor type, donor heavy atom, donor atom, acceptor molecule, acceptor atom, score
      L1  H     1    27       P1  8028  0.40
      L1  H     9    35       P1  7948  0.57
      L1  H    12    36       P1  7948  0.42
      P1  H  6934  6946       L1     3  0.36

> <Gold.Chemscore.Hbond.Weighted>
-6.2938

> <Gold.Chemscore.Metal.Weighted>
-0.0000

> <Gold.Chemscore.Lipo.Weighted>
-8.5987

> <Gold.Chemscore.Internal_Hbond.Weighted>
0.0000

> <Gold.Chemscore.DEClash.Weighted>
0.1362

> <Gold.Chemscore.DEInternal.Weighted>
3.3002

> <Gold.Chemscore.Rot.Weighted>
5.5385

> <Gold.Chemscore.Internal.Correction.Weighted>
   9.000000E+99

> <Gold.Protein.RotatedTorsions>
[ 6907 6896 6895 6894 ] final  131.13 input  -60.11 | X-H torsion
[ 7974 7965 7964 7962 ] final  -92.93 input  175.53 | X-H torsion
[ 8008 7997 7996 7995 ] final    5.72 input   59.86 | X-H torsion
[ 10167 10162 10161 10158 ] final  -93.08 input  -65.29 | X-H torsion
[ 10718 10713 10712 10709 ] final  103.90 input   66.30 | X-H torsion
[ 10763 10752 10751 10750 ] final  143.08 input  -60.55 | X-H torsion
[ 11005 11000 10999 10996 ] final   27.87 input  -57.11 | X-H torsion

> <Gold.Protein.ActiveResidues>
 VAL166  LYS551  ARG553  GLY616  TRP617  ASP618  TYR619  PRO620  LYS621  CYS622 
 ASP623  PHE694  ASN695  SER759  ASP760  ASP761  ALA762  ILE779  LEU786  VAL792 
 PHE793  MET794  SER795  GLU796  ALA797  LYS798  CYS799  TRP800  GLU811  SER814 

> <Gold.Protein.RotatedAtoms>
  152.3457  133.6119  159.5907 H   0  0  0  0  0  0  0  0  0  0  0  0  # atno 6907 bound_to 6896
  150.7506  133.9653  159.3537 H   0  0  0  0  0  0  0  0  0  0  0  0  # atno 6908 bound_to 6896
  151.7512  135.0833  160.0382 H   0  0  0  0  0  0  0  0  0  0  0  0  # atno 6909 bound_to 6896
  145.3932  140.9530  143.2328 H   0  0  0  0  0  0  0  0  0  0  0  0  # atno 7974 bound_to 7965
  154.7319  140.2732  155.6449 H   0  0  0  0  0  0  0  0  0  0  0  0  # atno 8008 bound_to 7997
  156.2852  140.2714  156.1946 H   0  0  0  0  0  0  0  0  0  0  0  0  # atno 8009 bound_to 7997
  155.0371  140.0371  157.2485 H   0  0  0  0  0  0  0  0  0  0  0  0  # atno 8010 bound_to 7997
  140.3283  143.3009  151.9970 H   0  0  0  0  0  0  0  0  0  0  0  0  # atno 10167 bound_to 10162
  157.6758  131.0790  150.5624 H   0  0  0  0  0  0  0  0  0  0  0  0  # atno 10718 bound_to 10713
  153.9663  135.2955  155.3430 H   0  0  0  0  0  0  0  0  0  0  0  0  # atno 10763 bound_to 10752
  154.7347  135.5052  153.9024 H   0  0  0  0  0  0  0  0  0  0  0  0  # atno 10764 bound_to 10752
  153.0921  135.6711  153.9944 H   0  0  0  0  0  0  0  0  0  0  0  0  # atno 10765 bound_to 10752
  140.3217  134.2536  155.7716 H   0  0  0  0  0  0  0  0  0  0  0  0  # atno 11005 bound_to 11000
  144.8425  139.5449  143.6893 LP  0  0  0  0  0  0  0  0  0  0  0  0  # atno 17320 bound_to 7965
  146.2787  139.6821  142.9244 LP  0  0  0  0  0  0  0  0  0  0  0  0  # atno 17321 bound_to 7965
  139.4861  144.6256  151.7171 LP  0  0  0  0  0  0  0  0  0  0  0  0  # atno 17342 bound_to 10162
  140.5421  144.0563  150.6092 LP  0  0  0  0  0  0  0  0  0  0  0  0  # atno 17343 bound_to 10162
  156.5927  130.4333  149.5930 LP  0  0  0  0  0  0  0  0  0  0  0  0  # atno 17370 bound_to 10713
  156.2570  130.6940  151.1697 LP  0  0  0  0  0  0  0  0  0  0  0  0  # atno 17371 bound_to 10713
  141.2085  133.7776  157.0055 LP  0  0  0  0  0  0  0  0  0  0  0  0  # atno 17394 bound_to 11000
  140.0936  134.9577  157.1815 LP  0  0  0  0  0  0  0  0  0  0  0  0  # atno 17395 bound_to 11000

$$$$
