AV-unprocessed.smi:1816|AV-procd|sdf|7365|dock4
  -GOLD-   22720 9 33D 1   1.00000     0.00000
 Structure written by MMmdl.
 36 37  0  0  0  0  0  0  0  0  2 V2000
  147.2060  140.9976  153.7455 C   0  0  0  0  0  0  0  0  0  0  0  0
  148.2960  139.9914  153.3114 C   0  0  1  0  0  0  0  0  0  0  0  0
  149.3555  139.8130  154.4254 C   0  0  0  0  0  0  0  0  0  0  0  0
  149.6570  141.0716  155.1003 N   0  0  0  0  0  0  0  0  0  0  0  0
  150.4275  141.1895  156.1907 C   0  0  0  0  0  0  0  0  0  0  0  0
  150.9836  140.2344  156.7333 O   0  0  0  0  0  0  0  0  0  0  0  0
  150.5051  142.4687  156.5973 N   0  0  0  0  0  0  0  0  0  0  0  0
  151.1872  142.9897  157.7283 C   0  0  0  0  0  0  0  0  0  0  0  0
  151.5410  142.2648  158.7960 N   0  0  0  0  0  0  0  0  0  0  0  0
  152.1918  143.0370  159.7615 C   0  0  0  0  0  0  0  0  0  0  0  0
  152.3255  144.3571  159.4098 C   0  0  0  0  0  0  0  0  0  0  0  0
  151.6352  144.6851  157.8429 S   0  0  0  0  0  0  0  0  0  0  0  0
  147.6909  138.6804  152.9330 N   0  3  0  0  0  0  0  0  0  0  0  0
  146.9883  137.9699  154.0237 C   0  0  0  0  0  0  0  0  0  0  0  0
  146.0752  136.9460  153.3459 C   0  0  0  0  0  0  0  0  0  0  0  0
  145.8928  137.4469  151.9111 C   0  0  0  0  0  0  0  0  0  0  0  0
  146.7238  138.7289  151.8143 C   0  0  0  0  0  0  0  0  0  0  0  0
  147.6316  141.9611  154.0258 H   0  0  0  0  0  0  0  0  0  0  0  0
  146.6444  140.6249  154.6028 H   0  0  0  0  0  0  0  0  0  0  0  0
  146.4960  141.2039  152.9449 H   0  0  0  0  0  0  0  0  0  0  0  0
  148.7947  140.3959  152.4288 H   0  0  0  0  0  0  0  0  0  0  0  0
  149.0031  139.0692  155.1426 H   0  0  0  0  0  0  0  0  0  0  0  0
  150.2956  139.4399  154.0195 H   0  0  0  0  0  0  0  0  0  0  0  0
  149.2433  141.9086  154.7162 H   0  0  0  0  0  0  0  0  0  0  0  0
  150.0078  143.1493  156.0420 H   0  0  0  0  0  0  0  0  0  0  0  0
  152.5265  142.5648  160.6733 H   0  0  0  0  0  0  0  0  0  0  0  0
  152.7855  145.1534  159.9757 H   0  0  0  0  0  0  0  0  0  0  0  0
  147.6840  137.4919  154.7142 H   0  0  0  0  0  0  0  0  0  0  0  0
  146.3828  138.6798  154.5898 H   0  0  0  0  0  0  0  0  0  0  0  0
  146.5491  135.9636  153.3374 H   0  0  0  0  0  0  0  0  0  0  0  0
  145.1249  136.8474  153.8718 H   0  0  0  0  0  0  0  0  0  0  0  0
  146.2634  136.6998  151.2079 H   0  0  0  0  0  0  0  0  0  0  0  0
  144.8452  137.6320  151.6712 H   0  0  0  0  0  0  0  0  0  0  0  0
  146.0712  139.5955  151.9340 H   0  0  0  0  0  0  0  0  0  0  0  0
  147.2218  138.8116  150.8479 H   0  0  0  0  0  0  0  0  0  0  0  0
  148.4420  138.0742  152.6348 H   0  0  0  0  0  0  0  0  0  0  0  0
  1  2  1  0  0  0  0
  1 18  1  0  0  0  0
  1 19  1  0  0  0  0
  1 20  1  0  0  0  0
  2  3  1  0  0  0  0
  2 13  1  0  0  0  0
  2 21  1  0  0  0  0
  3  4  1  0  0  0  0
  3 22  1  0  0  0  0
  3 23  1  0  0  0  0
  4  5  1  0  0  0  0
  4 24  1  0  0  0  0
  5  6  2  0  0  0  0
  5  7  1  0  0  0  0
  7  8  1  0  0  0  0
  7 25  1  0  0  0  0
  8 12  1  0  0  0  0
  8  9  2  0  0  0  0
  9 10  1  0  0  0  0
 10 11  2  0  0  0  0
 10 26  1  0  0  0  0
 11 12  1  0  0  0  0
 11 27  1  0  0  0  0
 13 17  1  0  0  0  0
 13 14  1  0  0  0  0
 13 36  1  0  0  0  0
 14 15  1  0  0  0  0
 14 28  1  0  0  0  0
 14 29  1  0  0  0  0
 15 16  1  0  0  0  0
 15 30  1  0  0  0  0
 15 31  1  0  0  0  0
 16 17  1  0  0  0  0
 16 32  1  0  0  0  0
 16 33  1  0  0  0  0
 17 34  1  0  0  0  0
 17 35  1  0  0  0  0
M  CHG  1  13   1
M  END
> <s_m_source_file>
AV-unprocessed.smi

> <i_m_source_file_index>
1816

> <i_lp_mmshare_version>
43012

> <i_f3d_flags>
0

> <s_epik_input>
W0NIMl0xW0NIMl1bQ0gyXVtDSDJdTjFbQ0BIXShbQ0gzXSlbQ0gyXVtOSF1DKD1PKVtOSF1jMm5bY0hdW2NIXXMy

> <s_epik_cmdline>
J2VwaWtfcHl0aG9uJywgJy1waCcsICc3LjAnLCAnLXRuJywgJzgnLCAnLW1hJywgJzIwMCcsICctbWV0YWxfYmluZGluZycsICctaW1hZScsICc8aW5maWxlLm1hZT4nLCAnLW9tYWUnLCAnPG91dGZpbGUubWFlPic=

> <r_lp_tautomer_probability>
0.999

> <r_epik_Ionization_Penalty>
0.000988651

> <r_epik_Ionization_Penalty_Charging>
0.000848324

> <r_epik_Ionization_Penalty_Neutral>
0.000140327

> <r_epik_State_Penalty>
0.000546901

> <r_epik_Charging_Adjusted_Penalty>
0.00139523

> <i_epik_Tot_Q>
1

> <i_epik_Tot_abs_Q>
1

> <r_epik_Metal_State_Penalty>
0.0571994

> <b_epik_Metal_Only>
0

> <s_lp_Force_Field>
OPLS_2005

> <r_lp_Energy>
29.703

> <b_lp_Chiralities_Consistent>
1

> <s_lp_Variant>
AV-unprocessed.smi:1816-2

> <Gold.Version>
5.8.1

> <Gold.Id.Protein>
6NUR|6NUR_protein|mol2

> <Gold.PLP.Fitness>
42.2989

> <Gold.PLP.PLP>
-34.0137

> <Gold.PLP.part.hbond>
-3.0000

> <Gold.PLP.part.metal>
0.0000

> <Gold.PLP.part.buried>
0.2926

> <Gold.PLP.part.nonpolar>
-32.5510

> <Gold.PLP.part.repulsive>
0.2912

> <Gold.PLP.ligand.clash>
0.0000

> <Gold.PLP.ligand.torsion>
0.3081

> <Gold.PLP.Chemscore.Hbond>
2.9520

> <Gold.PLP.Chemscore.CHOScore>
0.0000

> <Gold.PLP.Chemscore.Metal>
0.0000

> <Gold.Chemscore.Hbonds>
donor molecule, donor type, donor heavy atom, donor atom, acceptor molecule, acceptor atom, score
      L1  H     7    25       P1  8028  1.00
      L1  H    13    36       P1  7948  1.84

> <Gold.PLP.Chemscore.Internal.Correction>
0.0453

> <Gold.Rescore>
     Score         DG    S(hbond)    S(metal)    S(lipo)     H(rot)  DE(clash)    DE(int)     intcor
     14.19     -17.26       1.92        0.00      80.98       1.60       1.52       1.54       ----

> <Gold.Chemscore.Fitness>
14.1916

> <Gold.Chemscore.DG>
-17.2571

> <Gold.Chemscore.ZeroCoef>
-5.4800

> <Gold.Chemscore.Hbond>
1.9179

> <Gold.Chemscore.Metal>
0.0000

> <Gold.Chemscore.Lipo>
80.9818

> <Gold.Chemscore.Internal_Hbond>
0.0000

> <Gold.Chemscore.DEClash>
1.5212

> <Gold.Chemscore.DEInternal>
1.5443

> <Gold.Chemscore.Rot>
1.6029

> <Gold.Chemscore.Internal.Correction>
   9.000000E+99

> <Gold.Chemscore.Hbonds>
donor molecule, donor type, donor heavy atom, donor atom, acceptor molecule, acceptor atom, score
      L1  H     7    25       P1  8028  0.97
      L1  H    13    36       P1  7948  0.84

> <Gold.Chemscore.Hbond.Weighted>
-6.4058

> <Gold.Chemscore.Metal.Weighted>
-0.0000

> <Gold.Chemscore.Lipo.Weighted>
-9.4749

> <Gold.Chemscore.Internal_Hbond.Weighted>
0.0000

> <Gold.Chemscore.DEClash.Weighted>
1.5212

> <Gold.Chemscore.DEInternal.Weighted>
1.5443

> <Gold.Chemscore.Rot.Weighted>
4.1035

> <Gold.Chemscore.Internal.Correction.Weighted>
   9.000000E+99

> <Gold.Protein.RotatedTorsions>
[ 6907 6896 6895 6894 ] final   12.30 input  -60.11 | X-H torsion
[ 7974 7965 7964 7962 ] final   -5.07 input  175.53 | X-H torsion
[ 8008 7997 7996 7995 ] final    1.99 input   59.86 | X-H torsion
[ 10167 10162 10161 10158 ] final  -46.54 input  -65.29 | X-H torsion
[ 10718 10713 10712 10709 ] final -105.47 input   66.30 | X-H torsion
[ 10763 10752 10751 10750 ] final -169.05 input  -60.55 | X-H torsion
[ 11005 11000 10999 10996 ] final   99.65 input  -57.11 | X-H torsion

> <Gold.Protein.ActiveResidues>
 VAL166  LYS551  ARG553  GLY616  TRP617  ASP618  TYR619  PRO620  LYS621  CYS622 
 ASP623  PHE694  ASN695  SER759  ASP760  ASP761  ALA762  ILE779  LEU786  VAL792 
 PHE793  MET794  SER795  GLU796  ALA797  LYS798  CYS799  TRP800  GLU811  SER814 

> <Gold.Protein.RotatedAtoms>
  151.7682  135.0793  160.0355 H   0  0  0  0  0  0  0  0  0  0  0  0  # atno 6907 bound_to 6896
  152.3307  133.5951  159.5816 H   0  0  0  0  0  0  0  0  0  0  0  0  # atno 6908 bound_to 6896
  150.7421  133.9788  159.3611 H   0  0  0  0  0  0  0  0  0  0  0  0  # atno 6909 bound_to 6896
  146.2360  140.1966  142.8333 H   0  0  0  0  0  0  0  0  0  0  0  0  # atno 7974 bound_to 7965
  154.6863  140.2643  155.6858 H   0  0  0  0  0  0  0  0  0  0  0  0  # atno 8008 bound_to 7997
  156.2715  140.2800  156.1348 H   0  0  0  0  0  0  0  0  0  0  0  0  # atno 8009 bound_to 7997
  155.0960  140.0374  157.2673 H   0  0  0  0  0  0  0  0  0  0  0  0  # atno 8010 bound_to 7997
  140.6813  143.2826  151.3798 H   0  0  0  0  0  0  0  0  0  0  0  0  # atno 10167 bound_to 10162
  156.0348  130.5565  150.7544 H   0  0  0  0  0  0  0  0  0  0  0  0  # atno 10718 bound_to 10713
  154.6564  135.2918  154.9923 H   0  0  0  0  0  0  0  0  0  0  0  0  # atno 10763 bound_to 10752
  154.0998  135.6578  153.4870 H   0  0  0  0  0  0  0  0  0  0  0  0  # atno 10764 bound_to 10752
  153.0404  135.5240  154.7494 H   0  0  0  0  0  0  0  0  0  0  0  0  # atno 10765 bound_to 10752
  139.8770  134.9105  156.4638 H   0  0  0  0  0  0  0  0  0  0  0  0  # atno 11005 bound_to 11000
  144.9815  140.8463  143.5394 LP  0  0  0  0  0  0  0  0  0  0  0  0  # atno 17320 bound_to 7965
  145.1960  139.2276  143.5217 LP  0  0  0  0  0  0  0  0  0  0  0  0  # atno 17321 bound_to 7965
  139.6138  144.1045  152.2325 LP  0  0  0  0  0  0  0  0  0  0  0  0  # atno 17342 bound_to 10162
  140.0467  144.5964  150.7368 LP  0  0  0  0  0  0  0  0  0  0  0  0  # atno 17343 bound_to 10162
  157.5080  131.0923  151.0233 LP  0  0  0  0  0  0  0  0  0  0  0  0  # atno 17370 bound_to 10713
  157.0596  130.5820  149.5383 LP  0  0  0  0  0  0  0  0  0  0  0  0  # atno 17371 bound_to 10713
  140.8845  133.7893  155.9503 LP  0  0  0  0  0  0  0  0  0  0  0  0  # atno 17394 bound_to 11000
  140.8819  134.2601  157.5139 LP  0  0  0  0  0  0  0  0  0  0  0  0  # atno 17395 bound_to 11000

$$$$
