AV-unprocessed.smi:72|AV-procd|sdf|746|dock10
  -GOLD-   2262017 83D 1   1.00000     0.00000
 Structure written by MMmdl.
 29 30  0  0  0  0  0  0  0  0  1 V2000
  153.3817  138.4703  158.6969 N   0  0  0  0  0  0  0  0  0  0  0  0
  152.5839  138.8354  157.6330 C   0  0  0  0  0  0  0  0  0  0  0  0
  151.2018  138.8504  157.8668 N   0  0  0  0  0  0  0  0  0  0  0  0
  150.4493  139.1846  156.8667 C   0  0  0  0  0  0  0  0  0  0  0  0
  151.0172  139.5242  155.5745 N   0  0  0  0  0  0  0  0  0  0  0  0
  150.1330  139.9155  154.4075 C   0  0  1  0  0  0  0  0  0  0  0  0
  149.2449  138.8698  154.1434 O   0  0  0  0  0  0  0  0  0  0  0  0
  147.9519  139.4004  153.8783 C   0  0  1  0  0  0  0  0  0  0  0  0
  146.8651  138.3308  154.0853 C   0  0  0  0  0  0  0  0  0  0  0  0
  146.7790  137.4932  152.9522 O   0  0  0  0  0  0  0  0  0  0  0  0
  147.8750  140.6566  154.7585 C   0  0  1  0  0  0  0  0  0  0  0  0
  147.4955  140.3295  156.0851 O   0  0  0  0  0  0  0  0  0  0  0  0
  149.3018  141.1905  154.6724 C   0  0  1  0  0  0  0  0  0  0  0  0
  149.6830  141.9566  155.8022 O   0  0  0  0  0  0  0  0  0  0  0  0
  152.4300  139.5040  155.4125 C   0  0  0  0  0  0  0  0  0  0  0  0
  152.9375  139.8157  154.3351 O   0  0  0  0  0  0  0  0  0  0  0  0
  153.1969  139.1285  156.5221 N   0  0  0  0  0  0  0  0  0  0  0  0
  150.7883  140.0187  153.5418 H   0  0  0  0  0  0  0  0  0  0  0  0
  147.9498  139.7105  152.8314 H   0  0  0  0  0  0  0  0  0  0  0  0
  147.1538  141.3763  154.3696 H   0  0  0  0  0  0  0  0  0  0  0  0
  149.3924  141.8191  153.7857 H   0  0  0  0  0  0  0  0  0  0  0  0
  154.3889  138.4240  158.6462 H   0  0  0  0  0  0  0  0  0  0  0  0
  153.0177  138.2228  159.6055 H   0  0  0  0  0  0  0  0  0  0  0  0
  149.3614  139.2338  156.9287 H   0  0  0  0  0  0  0  0  0  0  0  0
  147.1151  137.7134  154.9485 H   0  0  0  0  0  0  0  0  0  0  0  0
  145.8919  138.7781  154.2890 H   0  0  0  0  0  0  0  0  0  0  0  0
  147.6453  137.1758  152.7469 H   0  0  0  0  0  0  0  0  0  0  0  0
  148.1662  140.6439  156.6723 H   0  0  0  0  0  0  0  0  0  0  0  0
  149.4491  142.8578  155.6395 H   0  0  0  0  0  0  0  0  0  0  0  0
  1  2  1  0  0  0  0
  1 22  1  0  0  0  0
  1 23  1  0  0  0  0
  2 17  2  0  0  0  0
  2  3  1  0  0  0  0
  3  4  2  0  0  0  0
  4  5  1  0  0  0  0
  4 24  1  0  0  0  0
  5  6  1  0  0  0  0
  5 15  1  0  0  0  0
  6 18  1  0  0  0  0
  6 13  1  0  0  0  0
  6  7  1  0  0  0  0
  7  8  1  0  0  0  0
  8 19  1  0  0  0  0
  8  9  1  0  0  0  0
  8 11  1  0  0  0  0
  9 10  1  0  0  0  0
  9 25  1  0  0  0  0
  9 26  1  0  0  0  0
 10 27  1  0  0  0  0
 11 20  1  0  0  0  0
 11 12  1  0  0  0  0
 11 13  1  0  0  0  0
 12 28  1  0  0  0  0
 13 21  1  0  0  0  0
 13 14  1  0  0  0  0
 14 29  1  0  0  0  0
 15 16  2  0  0  0  0
 15 17  1  0  0  0  0
M  END
> <s_m_source_file>
AV-unprocessed.smi

> <i_m_source_file_index>
72

> <i_lp_mmshare_version>
43012

> <i_f3d_flags>
0

> <s_epik_input>
W05IMl1jMW5bY0hdbihjKD1PKW4xKVtDQEBIXTJPW0NASF0oW0NIMl1bT0hdKVtDQEBIXShbT0hdKVtDQEhdMltPSF0=

> <s_epik_cmdline>
J2VwaWtfcHl0aG9uJywgJy1waCcsICc3LjAnLCAnLXRuJywgJzgnLCAnLW1hJywgJzIwMCcsICctbWV0YWxfYmluZGluZycsICctaW1hZScsICc8aW5maWxlLm1hZT4nLCAnLW9tYWUnLCAnPG91dGZpbGUubWFlPic=

> <r_lp_tautomer_probability>
4.77166e-05

> <r_epik_Ionization_Penalty>
1.3546

> <r_epik_Ionization_Penalty_Charging>
1.46833e-10

> <r_epik_Ionization_Penalty_Neutral>
1.3546

> <r_epik_State_Penalty>
3.51908

> <r_epik_Charging_Adjusted_Penalty>
3.51908

> <i_epik_Tot_Q>
0

> <i_epik_Tot_abs_Q>
0

> <r_epik_Metal_State_Penalty>
3.44088

> <b_epik_Metal_Only>
1

> <s_epik_Chemistry_Notes>
This compound contains an acetal/aminal-like group ( X-CH(R)-Y where X, Y are N, S, or O) that may be acid/base labile, releasing an aldehyde.

> <s_lp_Force_Field>
OPLS_2005

> <r_lp_Energy>
35.7585

> <b_lp_Chiralities_Consistent>
1

> <s_lp_Variant>
AV-unprocessed.smi:72-84

> <Gold.Version>
5.8.1

> <Gold.Id.Protein>
6NUR|6NUR_protein|mol2

> <Gold.PLP.Fitness>
32.3811

> <Gold.PLP.PLP>
-22.4524

> <Gold.PLP.part.hbond>
-5.0000

> <Gold.PLP.part.metal>
0.0000

> <Gold.PLP.part.buried>
-1.6147

> <Gold.PLP.part.nonpolar>
-16.4067

> <Gold.PLP.part.repulsive>
0.3207

> <Gold.PLP.ligand.clash>
0.0000

> <Gold.PLP.ligand.torsion>
0.2034

> <Gold.PLP.Chemscore.Hbond>
3.4444

> <Gold.PLP.Chemscore.CHOScore>
0.0000

> <Gold.PLP.Chemscore.Metal>
0.0000

> <Gold.Chemscore.Hbonds>
donor molecule, donor type, donor heavy atom, donor atom, acceptor molecule, acceptor atom, score
      L1  H    10    27       P1  7948  1.00
      L1  H    14    29       P1  8028  1.00
      P1  H  7989  7998       L1    16  0.27
      P1  H  7997  8009       L1    17  0.08

> <Gold.PLP.Chemscore.Internal.Correction>
0.0023

> <Gold.Rescore>
     Score         DG    S(hbond)    S(metal)    S(lipo)     H(rot)  DE(clash)    DE(int)     intcor
      8.03      -8.28       3.14        0.00      23.15       4.06       0.00       0.25       ----

> <Gold.Chemscore.Fitness>
8.0288

> <Gold.Chemscore.DG>
-8.2799

> <Gold.Chemscore.ZeroCoef>
-5.4800

> <Gold.Chemscore.Hbond>
3.1390

> <Gold.Chemscore.Metal>
0.0000

> <Gold.Chemscore.Lipo>
23.1548

> <Gold.Chemscore.Internal_Hbond>
0.0000

> <Gold.Chemscore.DEClash>
0.0008

> <Gold.Chemscore.DEInternal>
0.2503

> <Gold.Chemscore.Rot>
4.0600

> <Gold.Chemscore.Internal.Correction>
   9.000000E+99

> <Gold.Chemscore.Hbonds>
donor molecule, donor type, donor heavy atom, donor atom, acceptor molecule, acceptor atom, score
      L1  H    10    27       P1  7948  0.99
      L1  H    14    29       P1  8028  0.99
      P1  H  7989  7998       L1    16  0.16

> <Gold.Chemscore.Hbond.Weighted>
-10.4844

> <Gold.Chemscore.Metal.Weighted>
-0.0000

> <Gold.Chemscore.Lipo.Weighted>
-2.7091

> <Gold.Chemscore.Internal_Hbond.Weighted>
0.0000

> <Gold.Chemscore.DEClash.Weighted>
0.0008

> <Gold.Chemscore.DEInternal.Weighted>
0.2503

> <Gold.Chemscore.Rot.Weighted>
10.3936

> <Gold.Chemscore.Internal.Correction.Weighted>
   9.000000E+99

> <Gold.Protein.RotatedTorsions>
[ 6907 6896 6895 6894 ] final  143.28 input  -60.11 | X-H torsion
[ 7974 7965 7964 7962 ] final   82.91 input  175.53 | X-H torsion
[ 8008 7997 7996 7995 ] final -123.19 input   59.86 | X-H torsion
[ 10167 10162 10161 10158 ] final  154.92 input  -65.29 | X-H torsion
[ 10718 10713 10712 10709 ] final  -70.32 input   66.30 | X-H torsion
[ 10763 10752 10751 10750 ] final -157.84 input  -60.55 | X-H torsion
[ 11005 11000 10999 10996 ] final   -2.17 input  -57.11 | X-H torsion

> <Gold.Protein.ActiveResidues>
 VAL166  LYS551  ARG553  GLY616  TRP617  ASP618  TYR619  PRO620  LYS621  CYS622 
 ASP623  PHE694  ASN695  SER759  ASP760  ASP761  ALA762  ILE779  LEU786  VAL792 
 PHE793  MET794  SER795  GLU796  ALA797  LYS798  CYS799  TRP800  GLU811  SER814 

> <Gold.Protein.RotatedAtoms>
  152.2083  133.4892  159.5095 H   0  0  0  0  0  0  0  0  0  0  0  0  # atno 6907 bound_to 6896
  150.6984  134.1501  159.4146 H   0  0  0  0  0  0  0  0  0  0  0  0  # atno 6908 bound_to 6896
  151.9420  135.0209  160.0587 H   0  0  0  0  0  0  0  0  0  0  0  0  # atno 6909 bound_to 6896
  145.6189  139.2382  143.2150 H   0  0  0  0  0  0  0  0  0  0  0  0  # atno 7974 bound_to 7965
  155.1765  140.0409  157.2873 H   0  0  0  0  0  0  0  0  0  0  0  0  # atno 8008 bound_to 7997
  154.6233  140.2506  155.7495 H   0  0  0  0  0  0  0  0  0  0  0  0  # atno 8009 bound_to 7997
  156.2445  140.2890  156.0551 H   0  0  0  0  0  0  0  0  0  0  0  0  # atno 8010 bound_to 7997
  139.4822  144.5144  151.7974 H   0  0  0  0  0  0  0  0  0  0  0  0  # atno 10167 bound_to 10162
  156.0413  130.4329  150.2278 H   0  0  0  0  0  0  0  0  0  0  0  0  # atno 10718 bound_to 10713
  154.7604  135.3116  154.8389 H   0  0  0  0  0  0  0  0  0  0  0  0  # atno 10763 bound_to 10752
  153.9151  135.6801  153.4754 H   0  0  0  0  0  0  0  0  0  0  0  0  # atno 10764 bound_to 10752
  153.1205  135.4825  154.9118 H   0  0  0  0  0  0  0  0  0  0  0  0  # atno 10765 bound_to 10752
  140.6554  133.9367  155.8404 H   0  0  0  0  0  0  0  0  0  0  0  0  # atno 11005 bound_to 11000
  146.1446  140.7010  142.9350 LP  0  0  0  0  0  0  0  0  0  0  0  0  # atno 17320 bound_to 7965
  144.7239  140.4462  143.6987 LP  0  0  0  0  0  0  0  0  0  0  0  0  # atno 17321 bound_to 7965
  140.4651  144.1667  150.5911 LP  0  0  0  0  0  0  0  0  0  0  0  0  # atno 17342 bound_to 10162
  140.4443  143.2513  151.9432 LP  0  0  0  0  0  0  0  0  0  0  0  0  # atno 17343 bound_to 10162
  157.0373  131.0025  151.3294 LP  0  0  0  0  0  0  0  0  0  0  0  0  # atno 17370 bound_to 10713
  157.5234  130.8013  149.7835 LP  0  0  0  0  0  0  0  0  0  0  0  0  # atno 17371 bound_to 10713
  141.0505  134.0491  157.3789 LP  0  0  0  0  0  0  0  0  0  0  0  0  # atno 17394 bound_to 11000
  139.9031  135.0171  156.7362 LP  0  0  0  0  0  0  0  0  0  0  0  0  # atno 17395 bound_to 11000

$$$$
