AV-unprocessed.smi:3243|AV-procd|sdf|12396|dock3
  -GOLD-   2272018263D 1   1.00000     0.00000
 Structure written by MMmdl.
 37 38  0  0  0  0  0  0  0  0  1 V2000
  153.5927  141.1960  160.6908 C   0  0  0  0  0  0  0  0  0  0  0  0
  153.2567  142.6910  160.7894 C   0  0  0  0  0  0  0  0  0  0  0  0
  152.5272  143.0604  162.0892 C   0  0  0  0  0  0  0  0  0  0  0  0
  152.5323  143.1863  159.5771 C   0  0  0  0  0  0  0  0  0  0  0  0
  152.1379  142.3961  158.5740 N   0  0  0  0  0  0  0  0  0  0  0  0
  151.4855  143.0981  157.5561 C   0  0  0  0  0  0  0  0  0  0  0  0
  150.9859  142.3679  156.3468 C   0  0  0  0  0  0  0  0  0  0  0  0
  149.7842  141.4651  156.6716 C   0  0  0  0  0  0  0  0  0  0  0  0
  149.8435  140.2053  155.9398 N   0  0  0  0  0  0  0  0  0  0  0  0
  149.7447  140.0814  154.6074 C   0  0  0  0  0  0  0  0  0  0  0  0
  149.5599  141.0350  153.8516 O   0  0  0  0  0  0  0  0  0  0  0  0
  149.8105  138.6747  154.1161 C   0  0  2  0  0  0  0  0  0  0  0  0
  150.0083  137.5680  155.1321 C   0  0  0  0  0  0  0  0  0  0  0  0
  151.1351  137.9260  154.1945 C   0  0  2  0  0  0  0  0  0  0  0  0
  152.4196  138.5177  154.7481 C   0  0  0  0  0  0  0  0  0  0  0  0
  151.3867  144.4444  157.8052 C   0  0  0  0  0  0  0  0  0  0  0  0
  152.1124  144.8778  159.3284 S   0  0  0  0  0  0  0  0  0  0  0  0
  154.1802  140.9843  159.7970 H   0  0  0  0  0  0  0  0  0  0  0  0
  152.6881  140.5883  160.6469 H   0  0  0  0  0  0  0  0  0  0  0  0
  154.1725  140.8661  161.5532 H   0  0  0  0  0  0  0  0  0  0  0  0
  154.2111  143.2183  160.8128 H   0  0  0  0  0  0  0  0  0  0  0  0
  152.3824  144.1386  162.1643 H   0  0  0  0  0  0  0  0  0  0  0  0
  153.0961  142.7420  162.9632 H   0  0  0  0  0  0  0  0  0  0  0  0
  151.5458  142.5878  162.1416 H   0  0  0  0  0  0  0  0  0  0  0  0
  150.7097  143.0853  155.5728 H   0  0  0  0  0  0  0  0  0  0  0  0
  151.7882  141.7642  155.9203 H   0  0  0  0  0  0  0  0  0  0  0  0
  149.7720  141.2348  157.7373 H   0  0  0  0  0  0  0  0  0  0  0  0
  148.8467  141.9802  156.4547 H   0  0  0  0  0  0  0  0  0  0  0  0
  149.9721  139.3655  156.4855 H   0  0  0  0  0  0  0  0  0  0  0  0
  149.2047  138.4610  153.2378 H   0  0  0  0  0  0  0  0  0  0  0  0
  150.1181  137.8439  156.1798 H   0  0  0  0  0  0  0  0  0  0  0  0
  149.4757  136.6356  154.9572 H   0  0  0  0  0  0  0  0  0  0  0  0
  151.3137  137.2409  153.3678 H   0  0  0  0  0  0  0  0  0  0  0  0
  152.2310  139.1075  155.6458 H   0  0  0  0  0  0  0  0  0  0  0  0
  152.8889  139.1582  154.0012 H   0  0  0  0  0  0  0  0  0  0  0  0
  153.1156  137.7191  155.0048 H   0  0  0  0  0  0  0  0  0  0  0  0
  150.9349  145.2054  157.1864 H   0  0  0  0  0  0  0  0  0  0  0  0
  1  2  1  0  0  0  0
  1 18  1  0  0  0  0
  1 19  1  0  0  0  0
  1 20  1  0  0  0  0
  2  3  1  0  0  0  0
  2  4  1  0  0  0  0
  2 21  1  0  0  0  0
  3 22  1  0  0  0  0
  3 23  1  0  0  0  0
  3 24  1  0  0  0  0
  4 17  1  0  0  0  0
  4  5  2  0  0  0  0
  5  6  1  0  0  0  0
  6  7  1  0  0  0  0
  6 16  2  0  0  0  0
  7  8  1  0  0  0  0
  7 25  1  0  0  0  0
  7 26  1  0  0  0  0
  8  9  1  0  0  0  0
  8 27  1  0  0  0  0
  8 28  1  0  0  0  0
  9 10  1  0  0  0  0
  9 29  1  0  0  0  0
 10 11  2  0  0  0  0
 10 12  1  0  0  0  0
 12 14  1  0  0  0  0
 12 13  1  0  0  0  0
 12 30  1  0  0  0  0
 13 14  1  0  0  0  0
 13 31  1  0  0  0  0
 13 32  1  0  0  0  0
 14 15  1  0  0  0  0
 14 33  1  0  0  0  0
 15 34  1  0  0  0  0
 15 35  1  0  0  0  0
 15 36  1  0  0  0  0
 16 17  1  0  0  0  0
 16 37  1  0  0  0  0
M  END
> <s_m_source_file>
AV-unprocessed.smi

> <i_m_source_file_index>
3243

> <i_lp_mmshare_version>
43012

> <i_f3d_flags>
0

> <s_epik_input>
W0NIM11bQ0hdKFtDSDNdKWMxbmMoW2NIXXMxKVtDSDJdW0NIMl1bTkhdQyg9TylbQ0BASF0yW0NIMl1bQ0BIXTJbQ0gzXQ==

> <s_epik_cmdline>
J2VwaWtfcHl0aG9uJywgJy1waCcsICc3LjAnLCAnLXRuJywgJzgnLCAnLW1hJywgJzIwMCcsICctbWV0YWxfYmluZGluZycsICctaW1hZScsICc8aW5maWxlLm1hZT4nLCAnLW9tYWUnLCAnPG91dGZpbGUubWFlPic=

> <r_epik_Ionization_Penalty>
0.00084212

> <r_epik_Ionization_Penalty_Charging>
0

> <r_epik_Ionization_Penalty_Neutral>
0.00084212

> <r_epik_State_Penalty>
0.000542609

> <r_epik_Charging_Adjusted_Penalty>
0.000542609

> <i_epik_Tot_Q>
0

> <i_epik_Tot_abs_Q>
0

> <r_epik_Metal_State_Penalty>
-0

> <b_epik_Metal_Only>
0

> <s_lp_Force_Field>
OPLS_2005

> <r_lp_Energy>
-0.500157

> <b_lp_Chiralities_Consistent>
1

> <s_lp_Variant>
AV-unprocessed.smi:3243-3

> <Gold.Version>
5.8.1

> <Gold.Id.Protein>
6NUR|6NUR_protein|mol2

> <Gold.PLP.Fitness>
49.2945

> <Gold.PLP.PLP>
-44.8226

> <Gold.PLP.part.hbond>
-2.0000

> <Gold.PLP.part.metal>
0.0000

> <Gold.PLP.part.buried>
-3.8726

> <Gold.PLP.part.nonpolar>
-39.4629

> <Gold.PLP.part.repulsive>
1.7158

> <Gold.PLP.ligand.clash>
0.0000

> <Gold.PLP.ligand.torsion>
0.4965

> <Gold.PLP.Chemscore.Hbond>
0.8986

> <Gold.PLP.Chemscore.CHOScore>
0.8676

> <Gold.PLP.Chemscore.Metal>
0.0000

> <Gold.Chemscore.Hbonds>
donor molecule, donor type, donor heavy atom, donor atom, acceptor molecule, acceptor atom, score
      P1  H  7989  7998       L1    11  0.08
      P1  H  8011  8017       L1    11  0.83
      L1  C    16    37       P1  8028  0.84

> <Gold.PLP.Chemscore.Internal.Correction>
0.1665

> <Gold.Rescore>
     Score         DG    S(hbond)    S(metal)    S(lipo)     H(rot)  DE(clash)    DE(int)     intcor
     18.24     -19.00       0.80        0.00     125.27       1.49       0.31       0.45       ----

> <Gold.Chemscore.Fitness>
18.2378

> <Gold.Chemscore.DG>
-18.9986

> <Gold.Chemscore.ZeroCoef>
-5.4800

> <Gold.Chemscore.Hbond>
0.7991

> <Gold.Chemscore.Metal>
0.0000

> <Gold.Chemscore.Lipo>
125.2673

> <Gold.Chemscore.Internal_Hbond>
0.0000

> <Gold.Chemscore.DEClash>
0.3071

> <Gold.Chemscore.DEInternal>
0.4538

> <Gold.Chemscore.Rot>
1.4870

> <Gold.Chemscore.Internal.Correction>
   9.000000E+99

> <Gold.Chemscore.Hbonds>
donor molecule, donor type, donor heavy atom, donor atom, acceptor molecule, acceptor atom, score
      P1  H  8011  8017       L1    11  0.79

> <Gold.Chemscore.Hbond.Weighted>
-2.6690

> <Gold.Chemscore.Metal.Weighted>
-0.0000

> <Gold.Chemscore.Lipo.Weighted>
-14.6563

> <Gold.Chemscore.Internal_Hbond.Weighted>
0.0000

> <Gold.Chemscore.DEClash.Weighted>
0.3071

> <Gold.Chemscore.DEInternal.Weighted>
0.4538

> <Gold.Chemscore.Rot.Weighted>
3.8067

> <Gold.Chemscore.Internal.Correction.Weighted>
   9.000000E+99

> <Gold.Protein.RotatedTorsions>
[ 6907 6896 6895 6894 ] final -158.93 input  -60.11 | X-H torsion
[ 7974 7965 7964 7962 ] final   73.72 input  175.53 | X-H torsion
[ 8008 7997 7996 7995 ] final -168.27 input   59.86 | X-H torsion
[ 10167 10162 10161 10158 ] final   81.06 input  -65.29 | X-H torsion
[ 10718 10713 10712 10709 ] final   18.11 input   66.30 | X-H torsion
[ 10763 10752 10751 10750 ] final  -35.54 input  -60.55 | X-H torsion
[ 11005 11000 10999 10996 ] final  -18.92 input  -57.11 | X-H torsion

> <Gold.Protein.ActiveResidues>
 VAL166  LYS551  ARG553  GLY616  TRP617  ASP618  TYR619  PRO620  LYS621  CYS622 
 ASP623  PHE694  ASN695  SER759  ASP760  ASP761  ALA762  ILE779  LEU786  VAL792 
 PHE793  MET794  SER795  GLU796  ALA797  LYS798  CYS799  TRP800  GLU811  SER814 

> <Gold.Protein.RotatedAtoms>
  151.3258  133.4021  159.2658 H   0  0  0  0  0  0  0  0  0  0  0  0  # atno 6907 bound_to 6896
  150.9996  134.9312  159.7957 H   0  0  0  0  0  0  0  0  0  0  0  0  # atno 6908 bound_to 6896
  152.5271  134.3223  159.9205 H   0  0  0  0  0  0  0  0  0  0  0  0  # atno 6909 bound_to 6896
  145.7373  139.2707  143.1507 H   0  0  0  0  0  0  0  0  0  0  0  0  # atno 7974 bound_to 7965
  155.8891  140.1022  157.1431 H   0  0  0  0  0  0  0  0  0  0  0  0  # atno 8008 bound_to 7997
  154.4013  140.1314  156.4357 H   0  0  0  0  0  0  0  0  0  0  0  0  # atno 8009 bound_to 7997
  155.7554  140.3464  155.5173 H   0  0  0  0  0  0  0  0  0  0  0  0  # atno 8010 bound_to 7997
  139.9432  144.6076  150.8231 H   0  0  0  0  0  0  0  0  0  0  0  0  # atno 10167 bound_to 10162
  157.0917  130.6431  149.5850 H   0  0  0  0  0  0  0  0  0  0  0  0  # atno 10718 bound_to 10713
  153.8648  135.6836  153.4779 H   0  0  0  0  0  0  0  0  0  0  0  0  # atno 10763 bound_to 10752
  153.1321  135.4693  154.9362 H   0  0  0  0  0  0  0  0  0  0  0  0  # atno 10764 bound_to 10752
  154.7742  135.3248  154.8077 H   0  0  0  0  0  0  0  0  0  0  0  0  # atno 10765 bound_to 10752
  140.8316  133.7993  155.9764 H   0  0  0  0  0  0  0  0  0  0  0  0  # atno 11005 bound_to 11000
  146.0481  140.8097  142.9795 LP  0  0  0  0  0  0  0  0  0  0  0  0  # atno 17320 bound_to 7965
  144.6879  140.3012  143.7263 LP  0  0  0  0  0  0  0  0  0  0  0  0  # atno 17321 bound_to 7965
  140.7605  143.3152  151.2750 LP  0  0  0  0  0  0  0  0  0  0  0  0  # atno 17342 bound_to 10162
  139.6687  144.0058  152.2739 LP  0  0  0  0  0  0  0  0  0  0  0  0  # atno 17343 bound_to 10162
  155.9896  130.4944  150.7221 LP  0  0  0  0  0  0  0  0  0  0  0  0  # atno 17370 bound_to 10713
  157.4715  131.0893  151.0637 LP  0  0  0  0  0  0  0  0  0  0  0  0  # atno 17371 bound_to 10713
  140.8992  134.2399  157.5051 LP  0  0  0  0  0  0  0  0  0  0  0  0  # atno 17394 bound_to 11000
  139.8705  134.9698  156.4680 LP  0  0  0  0  0  0  0  0  0  0  0  0  # atno 17395 bound_to 11000

$$$$
