AV-unprocessed.smi:148|AV-procd|sdf|1228|dock5
  -GOLD-   2262018433D 1   1.00000     0.00000
 Structure written by MMmdl.
 63 67  0  0  0  0  0  0  0  0  1 V2000
  147.7151  134.2033  153.5150 O   0  0  0  0  0  0  0  0  0  0  0  0
  148.3024  133.0253  154.0282 C   0  0  0  0  0  0  0  0  0  0  0  0
  149.4705  133.3484  154.9921 C   0  0  2  0  0  0  0  0  0  0  0  0
  150.4078  134.4545  154.4462 C   0  0  0  0  0  0  0  0  0  0  0  0
  150.2793  135.7122  155.1615 N   0  0  0  0  0  0  0  0  0  0  0  0
  149.4412  135.9685  156.2228 C   0  0  0  0  0  0  0  0  0  0  0  0
  149.4960  137.1844  156.6937 N   0  0  0  0  0  0  0  0  0  0  0  0
  150.4499  137.8109  155.9004 C   0  0  0  0  0  0  0  0  0  0  0  0
  151.0035  139.1221  155.8573 C   0  0  0  0  0  0  0  0  0  0  0  0
  150.6492  140.1340  156.6786 N   0  0  0  0  0  0  0  0  0  0  0  0
  151.8184  140.5214  157.4719 C   0  0  0  0  0  0  0  0  0  0  0  0
  151.4412  141.4807  158.6040 C   0  0  0  0  0  0  0  0  0  0  0  0
  150.7224  142.7007  158.0282 C   0  0  0  0  0  0  0  0  0  0  0  0
  149.5025  142.2477  157.2172 C   0  0  0  0  0  0  0  0  0  0  0  0
  149.8652  141.2415  156.0898 C   0  0  2  0  0  0  0  0  0  0  0  0
  148.5621  140.7764  155.3500 C   0  0  2  0  0  0  0  0  0  0  0  0
  148.7342  139.9305  154.0694 C   0  0  0  0  0  0  0  0  0  0  0  0
  147.4480  140.0938  153.2470 C   0  0  0  0  0  0  0  0  0  0  0  0
  146.6464  141.2096  153.9229 C   0  0  0  0  0  0  0  0  0  0  0  0
  147.6329  141.9080  154.8602 C   0  0  2  0  0  0  0  0  0  0  0  0
  148.3506  142.8782  154.1177 O   0  0  0  0  0  0  0  0  0  0  0  0
  151.9328  139.3917  154.9076 N   0  0  0  0  0  0  0  0  0  0  0  0
  152.3194  138.4314  154.0624 C   0  0  0  0  0  0  0  0  0  0  0  0
  151.9044  137.1646  153.9907 N   0  0  0  0  0  0  0  0  0  0  0  0
  150.9570  136.8972  154.9350 C   0  0  0  0  0  0  0  0  0  0  0  0
  150.2601  132.0793  155.4020 C   0  0  1  0  0  0  0  0  0  0  0  0
  151.2857  132.2935  156.5014 C   0  0  0  0  0  0  0  0  0  0  0  0
  151.5288  130.8717  156.9937 C   0  0  0  0  0  0  0  0  0  0  0  0
  150.2817  130.2018  156.8519 O   0  0  0  0  0  0  0  0  0  0  0  0
  149.4091  130.9670  156.0260 C   0  0  0  0  0  0  0  0  0  0  0  0
  148.4036  134.8116  153.2939 H   0  0  0  0  0  0  0  0  0  0  0  0
  147.5316  132.4377  154.5266 H   0  0  0  0  0  0  0  0  0  0  0  0
  148.6457  132.4165  153.1921 H   0  0  0  0  0  0  0  0  0  0  0  0
  149.0133  133.7465  155.8994 H   0  0  0  0  0  0  0  0  0  0  0  0
  151.4502  134.1443  154.5163 H   0  0  0  0  0  0  0  0  0  0  0  0
  150.2111  134.6311  153.3882 H   0  0  0  0  0  0  0  0  0  0  0  0
  148.7787  135.2210  156.6345 H   0  0  0  0  0  0  0  0  0  0  0  0
  152.2932  139.6351  157.8968 H   0  0  0  0  0  0  0  0  0  0  0  0
  152.5576  140.9972  156.8258 H   0  0  0  0  0  0  0  0  0  0  0  0
  150.7972  140.9722  159.3228 H   0  0  0  0  0  0  0  0  0  0  0  0
  152.3347  141.7906  159.1464 H   0  0  0  0  0  0  0  0  0  0  0  0
  150.4138  143.3697  158.8321 H   0  0  0  0  0  0  0  0  0  0  0  0
  151.4017  143.2674  157.3902 H   0  0  0  0  0  0  0  0  0  0  0  0
  148.7748  141.7924  157.8908 H   0  0  0  0  0  0  0  0  0  0  0  0
  149.0274  143.1391  156.8103 H   0  0  0  0  0  0  0  0  0  0  0  0
  150.5044  141.7613  155.3753 H   0  0  0  0  0  0  0  0  0  0  0  0
  147.9805  140.1799  156.0555 H   0  0  0  0  0  0  0  0  0  0  0  0
  149.5789  140.3010  153.4875 H   0  0  0  0  0  0  0  0  0  0  0  0
  148.9147  138.8776  154.2806 H   0  0  0  0  0  0  0  0  0  0  0  0
  147.6909  140.3577  152.2172 H   0  0  0  0  0  0  0  0  0  0  0  0
  146.8714  139.1686  153.2194 H   0  0  0  0  0  0  0  0  0  0  0  0
  146.1797  141.8882  153.2075 H   0  0  0  0  0  0  0  0  0  0  0  0
  145.8455  140.7642  154.5148 H   0  0  0  0  0  0  0  0  0  0  0  0
  147.1088  142.4003  155.6798 H   0  0  0  0  0  0  0  0  0  0  0  0
  148.3278  143.6955  154.5913 H   0  0  0  0  0  0  0  0  0  0  0  0
  153.0685  138.7196  153.3399 H   0  0  0  0  0  0  0  0  0  0  0  0
  150.7759  131.6723  154.5304 H   0  0  0  0  0  0  0  0  0  0  0  0
  152.2002  132.7735  156.1521 H   0  0  0  0  0  0  0  0  0  0  0  0
  150.8645  132.9002  157.3045 H   0  0  0  0  0  0  0  0  0  0  0  0
  152.2655  130.3719  156.3637 H   0  0  0  0  0  0  0  0  0  0  0  0
  151.8854  130.8403  158.0234 H   0  0  0  0  0  0  0  0  0  0  0  0
  148.6258  131.3863  156.6589 H   0  0  0  0  0  0  0  0  0  0  0  0
  148.9329  130.3378  155.2736 H   0  0  0  0  0  0  0  0  0  0  0  0
  1  2  1  0  0  0  0
  1 31  1  0  0  0  0
  2  3  1  0  0  0  0
  2 32  1  0  0  0  0
  2 33  1  0  0  0  0
  3  4  1  0  0  0  0
  3 26  1  0  0  0  0
  3 34  1  0  0  0  0
  4  5  1  0  0  0  0
  4 35  1  0  0  0  0
  4 36  1  0  0  0  0
  5 25  1  0  0  0  0
  5  6  1  0  0  0  0
  6  7  2  0  0  0  0
  6 37  1  0  0  0  0
  7  8  1  0  0  0  0
  8 25  2  0  0  0  0
  8  9  1  0  0  0  0
  9 10  1  0  0  0  0
  9 22  2  0  0  0  0
 10 15  1  0  0  0  0
 10 11  1  0  0  0  0
 11 12  1  0  0  0  0
 11 38  1  0  0  0  0
 11 39  1  0  0  0  0
 12 13  1  0  0  0  0
 12 40  1  0  0  0  0
 12 41  1  0  0  0  0
 13 14  1  0  0  0  0
 13 42  1  0  0  0  0
 13 43  1  0  0  0  0
 14 15  1  0  0  0  0
 14 44  1  0  0  0  0
 14 45  1  0  0  0  0
 15 16  1  0  0  0  0
 15 46  1  0  0  0  0
 16 20  1  0  0  0  0
 16 17  1  0  0  0  0
 16 47  1  0  0  0  0
 17 18  1  0  0  0  0
 17 48  1  0  0  0  0
 17 49  1  0  0  0  0
 18 19  1  0  0  0  0
 18 50  1  0  0  0  0
 18 51  1  0  0  0  0
 19 20  1  0  0  0  0
 19 52  1  0  0  0  0
 19 53  1  0  0  0  0
 20 21  1  0  0  0  0
 20 54  1  0  0  0  0
 21 55  1  0  0  0  0
 22 23  1  0  0  0  0
 23 24  2  0  0  0  0
 23 56  1  0  0  0  0
 24 25  1  0  0  0  0
 26 30  1  0  0  0  0
 26 27  1  0  0  0  0
 26 57  1  0  0  0  0
 27 28  1  0  0  0  0
 27 58  1  0  0  0  0
 27 59  1  0  0  0  0
 28 29  1  0  0  0  0
 28 60  1  0  0  0  0
 28 61  1  0  0  0  0
 29 30  1  0  0  0  0
 30 62  1  0  0  0  0
 30 63  1  0  0  0  0
M  END
> <s_m_source_file>
AV-unprocessed.smi

> <i_m_source_file_index>
148

> <i_lp_mmshare_version>
43012

> <i_f3d_flags>
0

> <s_epik_input>
W0NIMl0xT1tDSDJdW0NIMl1bQ0BIXTFbQ0BIXShbQ0gyXVtPSF0pW0NIMl1uKFtjSF1uMiljKGMyMyluW2NIXW5jM040W0NIMl1bQ0gyXVtDSDJdW0NIMl1bQ0BIXTRbQ0BASF01W0NIMl1bQ0gyXVtDSDJdW0NASF01W09IXQ==

> <s_epik_cmdline>
J2VwaWtfcHl0aG9uJywgJy1waCcsICc3LjAnLCAnLXRuJywgJzgnLCAnLW1hJywgJzIwMCcsICctbWV0YWxfYmluZGluZycsICctaW1hZScsICc8aW5maWxlLm1hZT4nLCAnLW9tYWUnLCAnPG91dGZpbGUubWFlPic=

> <r_lp_tautomer_probability>
1

> <r_epik_Ionization_Penalty>
0.00556303

> <r_epik_Ionization_Penalty_Charging>
0

> <r_epik_Ionization_Penalty_Neutral>
0.00556303

> <r_epik_State_Penalty>
0.00401767

> <r_epik_Charging_Adjusted_Penalty>
0.00401767

> <i_epik_Tot_Q>
0

> <i_epik_Tot_abs_Q>
0

> <r_epik_Metal_State_Penalty>
-0

> <b_epik_Metal_Only>
0

> <s_lp_Force_Field>
OPLS_2005

> <r_lp_Energy>
70.1865

> <b_lp_Chiralities_Consistent>
1

> <s_lp_Variant>
AV-unprocessed.smi:148-27

> <Gold.Version>
5.8.1

> <Gold.Id.Protein>
6NUR|6NUR_protein|mol2

> <Gold.PLP.Fitness>
48.2066

> <Gold.PLP.PLP>
-38.7243

> <Gold.PLP.part.hbond>
-5.6155

> <Gold.PLP.part.metal>
0.0000

> <Gold.PLP.part.buried>
-0.8063

> <Gold.PLP.part.nonpolar>
-32.7977

> <Gold.PLP.part.repulsive>
1.9279

> <Gold.PLP.ligand.clash>
0.0006

> <Gold.PLP.ligand.torsion>
0.9936

> <Gold.PLP.Chemscore.Hbond>
3.6211

> <Gold.PLP.Chemscore.CHOScore>
0.0000

> <Gold.PLP.Chemscore.Metal>
0.0000

> <Gold.Chemscore.Hbonds>
donor molecule, donor type, donor heavy atom, donor atom, acceptor molecule, acceptor atom, score
      L1  H     1    31       P1  7948  0.79
      L1  H    21    55       P1  8028  1.00
      P1  H  7989  7998       L1    22  0.80
      P1  H 10752 10763       L1    24  1.00

> <Gold.PLP.Chemscore.Internal.Correction>
0.6066

> <Gold.Rescore>
     Score         DG    S(hbond)    S(metal)    S(lipo)     H(rot)  DE(clash)    DE(int)     intcor
     12.89     -15.37       2.22        0.00      93.67       3.32       0.24       2.24       ----

> <Gold.Chemscore.Fitness>
12.8885

> <Gold.Chemscore.DG>
-15.3684

> <Gold.Chemscore.ZeroCoef>
-5.4800

> <Gold.Chemscore.Hbond>
2.2241

> <Gold.Chemscore.Metal>
0.0000

> <Gold.Chemscore.Lipo>
93.6733

> <Gold.Chemscore.Internal_Hbond>
0.0000

> <Gold.Chemscore.DEClash>
0.2391

> <Gold.Chemscore.DEInternal>
2.2408

> <Gold.Chemscore.Rot>
3.3203

> <Gold.Chemscore.Internal.Correction>
   9.000000E+99

> <Gold.Chemscore.Hbonds>
donor molecule, donor type, donor heavy atom, donor atom, acceptor molecule, acceptor atom, score
      L1  H     1    31       P1  7948  0.55
      L1  H    21    55       P1  8028  0.88
      P1  H  7989  7998       L1    22  0.12
      P1  H  8011  8017       L1    21  0.01
      P1  H 10752 10763       L1    24  0.53

> <Gold.Chemscore.Hbond.Weighted>
-7.4286

> <Gold.Chemscore.Metal.Weighted>
-0.0000

> <Gold.Chemscore.Lipo.Weighted>
-10.9598

> <Gold.Chemscore.Internal_Hbond.Weighted>
0.0000

> <Gold.Chemscore.DEClash.Weighted>
0.2391

> <Gold.Chemscore.DEInternal.Weighted>
2.2408

> <Gold.Chemscore.Rot.Weighted>
8.5000

> <Gold.Chemscore.Internal.Correction.Weighted>
   9.000000E+99

> <Gold.Protein.RotatedTorsions>
[ 6907 6896 6895 6894 ] final -125.38 input  -60.11 | X-H torsion
[ 7974 7965 7964 7962 ] final -154.09 input  175.53 | X-H torsion
[ 8008 7997 7996 7995 ] final  -36.28 input   59.86 | X-H torsion
[ 10167 10162 10161 10158 ] final -131.92 input  -65.29 | X-H torsion
[ 10718 10713 10712 10709 ] final    7.67 input   66.30 | X-H torsion
[ 10763 10752 10751 10750 ] final   23.66 input  -60.55 | X-H torsion
[ 11005 11000 10999 10996 ] final -178.98 input  -57.11 | X-H torsion

> <Gold.Protein.ActiveResidues>
 VAL166  LYS551  ARG553  GLY616  TRP617  ASP618  TYR619  PRO620  LYS621  CYS622 
 ASP623  PHE694  ASN695  SER759  ASP760  ASP761  ALA762  ILE779  LEU786  VAL792 
 PHE793  MET794  SER795  GLU796  ALA797  LYS798  CYS799  TRP800  GLU811  SER814 

> <Gold.Protein.RotatedAtoms>
  150.8862  133.7305  159.2917 H   0  0  0  0  0  0  0  0  0  0  0  0  # atno 6907 bound_to 6896
  151.4870  135.1054  159.9803 H   0  0  0  0  0  0  0  0  0  0  0  0  # atno 6908 bound_to 6896
  152.4791  133.8164  159.7086 H   0  0  0  0  0  0  0  0  0  0  0  0  # atno 6909 bound_to 6896
  144.7707  140.4435  143.5909 H   0  0  0  0  0  0  0  0  0  0  0  0  # atno 7974 bound_to 7965
  154.4076  140.1635  156.2349 H   0  0  0  0  0  0  0  0  0  0  0  0  # atno 8008 bound_to 7997
  155.9251  140.3418  155.6181 H   0  0  0  0  0  0  0  0  0  0  0  0  # atno 8009 bound_to 7997
  155.7175  140.0764  157.2335 H   0  0  0  0  0  0  0  0  0  0  0  0  # atno 8010 bound_to 7997
  139.9139  143.6462  152.2569 H   0  0  0  0  0  0  0  0  0  0  0  0  # atno 10167 bound_to 10162
  156.9403  130.5858  149.5652 H   0  0  0  0  0  0  0  0  0  0  0  0  # atno 10718 bound_to 10713
  153.0822  135.6622  154.0022 H   0  0  0  0  0  0  0  0  0  0  0  0  # atno 10763 bound_to 10752
  153.9641  135.2971  155.3433 H   0  0  0  0  0  0  0  0  0  0  0  0  # atno 10764 bound_to 10752
  154.7223  135.5159  153.8903 H   0  0  0  0  0  0  0  0  0  0  0  0  # atno 10765 bound_to 10752
  140.4237  134.6582  157.4677 H   0  0  0  0  0  0  0  0  0  0  0  0  # atno 11005 bound_to 11000
  145.6334  139.1539  143.2956 LP  0  0  0  0  0  0  0  0  0  0  0  0  # atno 17320 bound_to 7965
  146.1851  140.6436  142.9171 LP  0  0  0  0  0  0  0  0  0  0  0  0  # atno 17321 bound_to 7965
  139.6919  144.7646  151.1423 LP  0  0  0  0  0  0  0  0  0  0  0  0  # atno 17342 bound_to 10162
  140.7679  143.5577  150.9134 LP  0  0  0  0  0  0  0  0  0  0  0  0  # atno 17343 bound_to 10162
  156.0407  130.5490  150.8764 LP  0  0  0  0  0  0  0  0  0  0  0  0  # atno 17370 bound_to 10713
  157.5789  131.0946  150.9302 LP  0  0  0  0  0  0  0  0  0  0  0  0  # atno 17371 bound_to 10713
  140.0182  134.6587  155.9278 LP  0  0  0  0  0  0  0  0  0  0  0  0  # atno 17394 bound_to 11000
  141.1774  133.6542  156.4881 LP  0  0  0  0  0  0  0  0  0  0  0  0  # atno 17395 bound_to 11000

$$$$
