AV-unprocessed.smi:1933|AV-procd|sdf|7817|dock2
  -GOLD-   22720 9563D 1   1.00000     0.00000
 Structure written by MMmdl.
 47 49  0  0  0  0  0  0  0  0  1 V2000
  145.0008  136.0180  153.9064 O   0  0  0  0  0  0  0  0  0  0  0  0
  146.1033  136.0946  153.3638 C   0  0  0  0  0  0  0  0  0  0  0  0
  147.0536  136.9666  153.7317 N   0  0  0  0  0  0  0  0  0  0  0  0
  146.9441  137.9426  154.8129 C   0  0  0  0  0  0  0  0  0  0  0  0
  147.9030  137.6295  155.9926 C   0  0  2  0  0  0  0  0  0  0  0  0
  147.2345  137.7977  157.3891 C   0  0  1  0  0  0  0  0  0  0  0  0
  145.9630  136.9958  157.6130 C   0  0  0  0  0  0  0  0  0  0  0  0
  145.8113  137.0075  159.1386 C   0  0  0  0  0  0  0  0  0  0  0  0
  147.0307  137.5336  159.6592 O   0  0  0  0  0  0  0  0  0  0  0  0
  148.0261  137.4599  158.6509 C   0  0  0  0  0  0  0  0  0  0  0  0
  149.2451  138.2329  155.8672 N   0  0  0  0  0  0  0  0  0  0  0  0
  149.2848  139.6968  155.9183 C   0  0  0  0  0  0  0  0  0  0  0  0
  150.7289  140.2238  155.8854 C   0  0  0  0  0  0  0  0  0  0  0  0
  151.3796  139.7485  154.7110 O   0  0  0  0  0  0  0  0  0  0  0  0
  151.3924  138.3271  154.6243 C   0  0  0  0  0  0  0  0  0  0  0  0
  149.9514  137.7892  154.6677 C   0  0  0  0  0  0  0  0  0  0  0  0
  146.5253  135.3151  152.3530 N   0  0  0  0  0  0  0  0  0  0  0  0
  145.8388  134.2425  151.7248 C   0  0  0  0  0  0  0  0  0  0  0  0
  144.4219  134.1752  151.7553 C   0  0  0  0  0  0  0  0  0  0  0  0
  143.7667  133.1154  151.0995 C   0  0  0  0  0  0  0  0  0  0  0  0
  144.5389  132.1561  150.4211 C   0  0  0  0  0  0  0  0  0  0  0  0
  145.9373  132.3078  150.4254 C   0  0  0  0  0  0  0  0  0  0  0  0
  146.5689  133.3237  151.0510 N   0  0  0  0  0  0  0  0  0  0  0  0
  147.9283  136.9509  153.2278 H   0  0  0  0  0  0  0  0  0  0  0  0
  147.1830  138.9136  154.3799 H   0  0  0  0  0  0  0  0  0  0  0  0
  145.9143  138.0164  155.1658 H   0  0  0  0  0  0  0  0  0  0  0  0
  148.0592  136.5509  155.9383 H   0  0  0  0  0  0  0  0  0  0  0  0
  146.9409  138.8436  157.4848 H   0  0  0  0  0  0  0  0  0  0  0  0
  145.1016  137.4272  157.1022 H   0  0  0  0  0  0  0  0  0  0  0  0
  146.0793  135.9687  157.2658 H   0  0  0  0  0  0  0  0  0  0  0  0
  144.9804  137.6379  159.4565 H   0  0  0  0  0  0  0  0  0  0  0  0
  145.6398  136.0011  159.5221 H   0  0  0  0  0  0  0  0  0  0  0  0
  148.4051  136.4406  158.6486 H   0  0  0  0  0  0  0  0  0  0  0  0
  148.8499  138.1463  158.8445 H   0  0  0  0  0  0  0  0  0  0  0  0
  148.7500  140.1149  155.0647 H   0  0  0  0  0  0  0  0  0  0  0  0
  148.7878  140.0813  156.8025 H   0  0  0  0  0  0  0  0  0  0  0  0
  150.7350  141.3138  155.8795 H   0  0  0  0  0  0  0  0  0  0  0  0
  151.2783  139.9038  156.7725 H   0  0  0  0  0  0  0  0  0  0  0  0
  151.8796  138.0301  153.6956 H   0  0  0  0  0  0  0  0  0  0  0  0
  151.9828  137.9125  155.4430 H   0  0  0  0  0  0  0  0  0  0  0  0
  149.9804  136.6997  154.6331 H   0  0  0  0  0  0  0  0  0  0  0  0
  149.4189  138.1166  153.7742 H   0  0  0  0  0  0  0  0  0  0  0  0
  147.4904  135.4272  152.0795 H   0  0  0  0  0  0  0  0  0  0  0  0
  143.8289  134.9237  152.2590 H   0  0  0  0  0  0  0  0  0  0  0  0
  142.6891  133.0438  151.1124 H   0  0  0  0  0  0  0  0  0  0  0  0
  144.0718  131.3298  149.9059 H   0  0  0  0  0  0  0  0  0  0  0  0
  146.5667  131.5969  149.9108 H   0  0  0  0  0  0  0  0  0  0  0  0
  1  2  2  0  0  0  0
  2  3  1  0  0  0  0
  2 17  1  0  0  0  0
  3  4  1  0  0  0  0
  3 24  1  0  0  0  0
  4  5  1  0  0  0  0
  4 25  1  0  0  0  0
  4 26  1  0  0  0  0
  5  6  1  0  0  0  0
  5 11  1  0  0  0  0
  5 27  1  0  0  0  0
  6 10  1  0  0  0  0
  6  7  1  0  0  0  0
  6 28  1  0  0  0  0
  7  8  1  0  0  0  0
  7 29  1  0  0  0  0
  7 30  1  0  0  0  0
  8  9  1  0  0  0  0
  8 31  1  0  0  0  0
  8 32  1  0  0  0  0
  9 10  1  0  0  0  0
 10 33  1  0  0  0  0
 10 34  1  0  0  0  0
 11 16  1  0  0  0  0
 11 12  1  0  0  0  0
 12 13  1  0  0  0  0
 12 35  1  0  0  0  0
 12 36  1  0  0  0  0
 13 14  1  0  0  0  0
 13 37  1  0  0  0  0
 13 38  1  0  0  0  0
 14 15  1  0  0  0  0
 15 16  1  0  0  0  0
 15 39  1  0  0  0  0
 15 40  1  0  0  0  0
 16 41  1  0  0  0  0
 16 42  1  0  0  0  0
 17 18  1  0  0  0  0
 17 43  1  0  0  0  0
 18 23  1  0  0  0  0
 18 19  2  0  0  0  0
 19 20  1  0  0  0  0
 19 44  1  0  0  0  0
 20 21  2  0  0  0  0
 20 45  1  0  0  0  0
 21 22  1  0  0  0  0
 21 46  1  0  0  0  0
 22 23  2  0  0  0  0
 22 47  1  0  0  0  0
M  END
> <s_m_source_file>
AV-unprocessed.smi

> <i_m_source_file_index>
1933

> <i_lp_mmshare_version>
43012

> <i_f3d_flags>
0

> <s_epik_input>
bjFbY0hdW2NIXVtjSF1bY0hdYzFbTkhdQyg9TylbTkhdW0NIMl1bQ0BIXShbQ0BASF0yW0NIMl1bQ0gyXU9bQ0gyXTIpTjNbQ0gyXVtDSDJdT1tDSDJdW0NIMl0z

> <s_epik_cmdline>
J2VwaWtfcHl0aG9uJywgJy1waCcsICc3LjAnLCAnLXRuJywgJzgnLCAnLW1hJywgJzIwMCcsICctbWV0YWxfYmluZGluZycsICctaW1hZScsICc8aW5maWxlLm1hZT4nLCAnLW9tYWUnLCAnPG91dGZpbGUubWFlPic=

> <r_epik_Ionization_Penalty>
0.125062

> <r_epik_Ionization_Penalty_Charging>
0

> <r_epik_Ionization_Penalty_Neutral>
0.125062

> <r_epik_State_Penalty>
0.114484

> <r_epik_Charging_Adjusted_Penalty>
0.114484

> <i_epik_Tot_Q>
0

> <i_epik_Tot_abs_Q>
0

> <r_epik_Metal_State_Penalty>
0.114484

> <b_epik_Metal_Only>
0

> <s_lp_Force_Field>
OPLS_2005

> <r_lp_Energy>
60.0985

> <b_lp_Chiralities_Consistent>
1

> <s_lp_Variant>
AV-unprocessed.smi:1933-3

> <Gold.Version>
5.8.1

> <Gold.Id.Protein>
6NUR|6NUR_protein|mol2

> <Gold.PLP.Fitness>
41.4217

> <Gold.PLP.PLP>
-27.7982

> <Gold.PLP.part.hbond>
-4.0000

> <Gold.PLP.part.metal>
0.0000

> <Gold.PLP.part.buried>
-6.5461

> <Gold.PLP.part.nonpolar>
-19.0183

> <Gold.PLP.part.repulsive>
0.3439

> <Gold.PLP.ligand.clash>
0.0000

> <Gold.PLP.ligand.torsion>
0.7521

> <Gold.PLP.Chemscore.Hbond>
3.9200

> <Gold.PLP.Chemscore.CHOScore>
1.0000

> <Gold.PLP.Chemscore.Metal>
0.0000

> <Gold.Chemscore.Hbonds>
donor molecule, donor type, donor heavy atom, donor atom, acceptor molecule, acceptor atom, score
      L1  H     3    24       P1  7948  0.98
      L1  H    17    43       P1  7948  1.00
      P1  H  6934  6947       L1     9  0.93
      P1  H  7989  7998       L1    14  1.00
      L1  C    22    47       P1 10747  0.99

> <Gold.PLP.Chemscore.Internal.Correction>
0.3676

> <Gold.Rescore>
     Score         DG    S(hbond)    S(metal)    S(lipo)     H(rot)  DE(clash)    DE(int)     intcor
     18.61     -20.66       3.78        0.00      59.41       1.72       0.00       2.05       ----

> <Gold.Chemscore.Fitness>
18.6090

> <Gold.Chemscore.DG>
-20.6619

> <Gold.Chemscore.ZeroCoef>
-5.4800

> <Gold.Chemscore.Hbond>
3.7798

> <Gold.Chemscore.Metal>
0.0000

> <Gold.Chemscore.Lipo>
59.4052

> <Gold.Chemscore.Internal_Hbond>
0.0000

> <Gold.Chemscore.DEClash>
0.0000

> <Gold.Chemscore.DEInternal>
2.0529

> <Gold.Chemscore.Rot>
1.7161

> <Gold.Chemscore.Internal.Correction>
   9.000000E+99

> <Gold.Chemscore.Hbonds>
donor molecule, donor type, donor heavy atom, donor atom, acceptor molecule, acceptor atom, score
      L1  H     3    24       P1  7948  0.93
      L1  H    17    43       P1  7948  0.99
      P1  H  6934  6947       L1     9  0.82
      P1  H  7989  7998       L1    14  0.94

> <Gold.Chemscore.Hbond.Weighted>
-12.6247

> <Gold.Chemscore.Metal.Weighted>
-0.0000

> <Gold.Chemscore.Lipo.Weighted>
-6.9504

> <Gold.Chemscore.Internal_Hbond.Weighted>
0.0000

> <Gold.Chemscore.DEClash.Weighted>
0.0000

> <Gold.Chemscore.DEInternal.Weighted>
2.0529

> <Gold.Chemscore.Rot.Weighted>
4.3932

> <Gold.Chemscore.Internal.Correction.Weighted>
   9.000000E+99

> <Gold.Protein.RotatedTorsions>
[ 6907 6896 6895 6894 ] final  -88.40 input  -60.11 | X-H torsion
[ 7974 7965 7964 7962 ] final   56.23 input  175.53 | X-H torsion
[ 8008 7997 7996 7995 ] final   66.09 input   59.86 | X-H torsion
[ 10167 10162 10161 10158 ] final  -38.11 input  -65.29 | X-H torsion
[ 10718 10713 10712 10709 ] final  -44.42 input   66.30 | X-H torsion
[ 10763 10752 10751 10750 ] final  -14.79 input  -60.55 | X-H torsion
[ 11005 11000 10999 10996 ] final   45.97 input  -57.11 | X-H torsion

> <Gold.Protein.ActiveResidues>
 VAL166  LYS551  ARG553  GLY616  TRP617  ASP618  TYR619  PRO620  LYS621  CYS622 
 ASP623  PHE694  ASN695  SER759  ASP760  ASP761  ALA762  ILE779  LEU786  VAL792 
 PHE793  MET794  SER795  GLU796  ALA797  LYS798  CYS799  TRP800  GLU811  SER814 

> <Gold.Protein.RotatedAtoms>
  150.6868  134.2747  159.4602 H   0  0  0  0  0  0  0  0  0  0  0  0  # atno 6907 bound_to 6896
  152.0666  134.9557  160.0584 H   0  0  0  0  0  0  0  0  0  0  0  0  # atno 6908 bound_to 6896
  152.0963  133.4192  159.4604 H   0  0  0  0  0  0  0  0  0  0  0  0  # atno 6909 bound_to 6896
  145.9420  139.3896  143.0358 H   0  0  0  0  0  0  0  0  0  0  0  0  # atno 7974 bound_to 7965
  155.6720  140.3497  155.4822 H   0  0  0  0  0  0  0  0  0  0  0  0  # atno 8008 bound_to 7997
  155.9680  140.1150  157.0860 H   0  0  0  0  0  0  0  0  0  0  0  0  # atno 8009 bound_to 7997
  154.4159  140.1162  156.5255 H   0  0  0  0  0  0  0  0  0  0  0  0  # atno 8010 bound_to 7997
  140.7101  143.3298  151.2595 H   0  0  0  0  0  0  0  0  0  0  0  0  # atno 10167 bound_to 10162
  156.2388  130.4178  149.8786 H   0  0  0  0  0  0  0  0  0  0  0  0  # atno 10718 bound_to 10713
  153.5336  135.7014  153.5671 H   0  0  0  0  0  0  0  0  0  0  0  0  # atno 10763 bound_to 10752
  153.3668  135.3955  155.1759 H   0  0  0  0  0  0  0  0  0  0  0  0  # atno 10764 bound_to 10752
  154.8682  135.3802  154.4835 H   0  0  0  0  0  0  0  0  0  0  0  0  # atno 10765 bound_to 10752
  140.1411  134.4582  155.8449 H   0  0  0  0  0  0  0  0  0  0  0  0  # atno 11005 bound_to 11000
  145.8287  140.9642  143.0860 LP  0  0  0  0  0  0  0  0  0  0  0  0  # atno 17320 bound_to 7965
  144.6780  140.0135  143.7484 LP  0  0  0  0  0  0  0  0  0  0  0  0  # atno 17321 bound_to 7965
  139.6777  143.9909  152.2790 LP  0  0  0  0  0  0  0  0  0  0  0  0  # atno 17342 bound_to 10162
  139.9528  144.6609  150.8155 LP  0  0  0  0  0  0  0  0  0  0  0  0  # atno 17343 bound_to 10162
  156.6375  130.8691  151.3507 LP  0  0  0  0  0  0  0  0  0  0  0  0  # atno 17370 bound_to 10713
  157.7166  130.9505  150.1278 LP  0  0  0  0  0  0  0  0  0  0  0  0  # atno 17371 bound_to 10713
  141.2186  133.6833  156.7248 LP  0  0  0  0  0  0  0  0  0  0  0  0  # atno 17394 bound_to 11000
  140.2721  134.8384  157.3857 LP  0  0  0  0  0  0  0  0  0  0  0  0  # atno 17395 bound_to 11000

$$$$
