AV-unprocessed.smi:1917|AV-procd|sdf|7768|dock5
  -GOLD-   22720 9513D 1   1.00000     0.00000
 Structure written by MMmdl.
 44 45  0  0  0  0  0  0  0  0  1 V2000
  147.3374  135.1938  162.8122 C   0  0  0  0  0  0  0  0  0  0  0  0
  147.3508  135.8972  161.4519 C   0  0  0  0  0  0  0  0  0  0  0  0
  147.4334  137.1260  161.4354 O   0  0  0  0  0  0  0  0  0  0  0  0
  147.2730  135.1582  160.3182 N   0  0  0  0  0  0  0  0  0  0  0  0
  147.2048  133.6965  160.4083 C   0  0  0  0  0  0  0  0  0  0  0  0
  147.2772  135.7220  158.9589 C   0  0  0  0  0  0  0  0  0  0  0  0
  148.6829  136.1173  158.4876 C   0  0  0  0  0  0  0  0  0  0  0  0
  149.6187  136.1926  159.2845 O   0  0  0  0  0  0  0  0  0  0  0  0
  148.8155  136.3682  157.1762 N   0  0  0  0  0  0  0  0  0  0  0  0
  150.0721  136.7004  156.5108 C   0  0  0  0  0  0  0  0  0  0  0  0
  150.2285  138.1653  156.1146 C   0  0  0  0  0  0  0  0  0  0  0  0
  149.7777  138.5889  154.8498 C   0  0  0  0  0  0  0  0  0  0  0  0
  149.9307  139.9426  154.5002 C   0  0  0  0  0  0  0  0  0  0  0  0
  150.4872  140.8596  155.3181 N   0  0  0  0  0  0  0  0  0  0  0  0
  150.9279  140.4713  156.5390 C   0  0  0  0  0  0  0  0  0  0  0  0
  151.4787  141.4785  157.3626 N   0  0  0  0  0  0  0  0  0  0  0  0
  150.9001  142.8190  157.3172 C   0  0  0  0  0  0  0  0  0  0  0  0
  151.8353  143.8337  157.9958 C   0  0  0  0  0  0  0  0  0  0  0  0
  152.1371  143.4004  159.3175 O   0  0  0  0  0  0  0  0  0  0  0  0
  152.8207  142.1516  159.3187 C   0  0  0  0  0  0  0  0  0  0  0  0
  151.9289  141.0664  158.6912 C   0  0  0  0  0  0  0  0  0  0  0  0
  150.8233  139.1238  156.9676 C   0  0  0  0  0  0  0  0  0  0  0  0
  146.4680  134.5438  162.9110 H   0  0  0  0  0  0  0  0  0  0  0  0
  147.2961  135.9247  163.6204 H   0  0  0  0  0  0  0  0  0  0  0  0
  148.2411  134.5993  162.9475 H   0  0  0  0  0  0  0  0  0  0  0  0
  146.2891  133.3847  160.9126 H   0  0  0  0  0  0  0  0  0  0  0  0
  148.0556  133.3035  160.9673 H   0  0  0  0  0  0  0  0  0  0  0  0
  147.2192  133.2220  159.4265 H   0  0  0  0  0  0  0  0  0  0  0  0
  146.8611  134.9856  158.2695 H   0  0  0  0  0  0  0  0  0  0  0  0
  146.6204  136.5871  158.8699 H   0  0  0  0  0  0  0  0  0  0  0  0
  147.9961  136.2914  156.5913 H   0  0  0  0  0  0  0  0  0  0  0  0
  150.8887  136.4417  157.1851 H   0  0  0  0  0  0  0  0  0  0  0  0
  150.1927  136.0728  155.6261 H   0  0  0  0  0  0  0  0  0  0  0  0
  149.3220  137.8934  154.1602 H   0  0  0  0  0  0  0  0  0  0  0  0
  149.5950  140.3001  153.5380 H   0  0  0  0  0  0  0  0  0  0  0  0
  150.7385  143.1269  156.2838 H   0  0  0  0  0  0  0  0  0  0  0  0
  149.9304  142.8107  157.8165 H   0  0  0  0  0  0  0  0  0  0  0  0
  152.7553  143.9584  157.4223 H   0  0  0  0  0  0  0  0  0  0  0  0
  151.3558  144.8116  158.0423 H   0  0  0  0  0  0  0  0  0  0  0  0
  153.7637  142.2403  158.7764 H   0  0  0  0  0  0  0  0  0  0  0  0
  153.0693  141.8839  160.3456 H   0  0  0  0  0  0  0  0  0  0  0  0
  151.0541  140.8923  159.3191 H   0  0  0  0  0  0  0  0  0  0  0  0
  152.4872  140.1309  158.6556 H   0  0  0  0  0  0  0  0  0  0  0  0
  151.1927  138.8195  157.9342 H   0  0  0  0  0  0  0  0  0  0  0  0
  1  2  1  0  0  0  0
  1 23  1  0  0  0  0
  1 24  1  0  0  0  0
  1 25  1  0  0  0  0
  2  3  2  0  0  0  0
  2  4  1  0  0  0  0
  4  5  1  0  0  0  0
  4  6  1  0  0  0  0
  5 26  1  0  0  0  0
  5 27  1  0  0  0  0
  5 28  1  0  0  0  0
  6  7  1  0  0  0  0
  6 29  1  0  0  0  0
  6 30  1  0  0  0  0
  7  8  2  0  0  0  0
  7  9  1  0  0  0  0
  9 10  1  0  0  0  0
  9 31  1  0  0  0  0
 10 11  1  0  0  0  0
 10 32  1  0  0  0  0
 10 33  1  0  0  0  0
 11 22  1  0  0  0  0
 11 12  2  0  0  0  0
 12 13  1  0  0  0  0
 12 34  1  0  0  0  0
 13 14  2  0  0  0  0
 13 35  1  0  0  0  0
 14 15  1  0  0  0  0
 15 16  1  0  0  0  0
 15 22  2  0  0  0  0
 16 21  1  0  0  0  0
 16 17  1  0  0  0  0
 17 18  1  0  0  0  0
 17 36  1  0  0  0  0
 17 37  1  0  0  0  0
 18 19  1  0  0  0  0
 18 38  1  0  0  0  0
 18 39  1  0  0  0  0
 19 20  1  0  0  0  0
 20 21  1  0  0  0  0
 20 40  1  0  0  0  0
 20 41  1  0  0  0  0
 21 42  1  0  0  0  0
 21 43  1  0  0  0  0
 22 44  1  0  0  0  0
M  END
> <s_m_source_file>
AV-unprocessed.smi

> <i_m_source_file_index>
1917

> <i_lp_mmshare_version>
43012

> <i_f3d_flags>
0

> <s_epik_input>
W0NIM11DKD1PKU4oW0NIM10pW0NIMl1DKD1PKVtOSF1bQ0gyXWMxW2NIXVtjSF1uYyhbY0hdMSlOMltDSDJdW0NIMl1PW0NIMl1bQ0gyXTI=

> <s_epik_cmdline>
J2VwaWtfcHl0aG9uJywgJy1waCcsICc3LjAnLCAnLXRuJywgJzgnLCAnLW1hJywgJzIwMCcsICctbWV0YWxfYmluZGluZycsICctaW1hZScsICc8aW5maWxlLm1hZT4nLCAnLW9tYWUnLCAnPG91dGZpbGUubWFlPic=

> <r_lp_tautomer_probability>
1

> <r_epik_Ionization_Penalty>
0.00469141

> <r_epik_Ionization_Penalty_Charging>
0

> <r_epik_Ionization_Penalty_Neutral>
0.00469141

> <r_epik_State_Penalty>
0.00339539

> <r_epik_Charging_Adjusted_Penalty>
0.00339539

> <i_epik_Tot_Q>
0

> <i_epik_Tot_abs_Q>
0

> <r_epik_Metal_State_Penalty>
-0

> <b_epik_Metal_Only>
0

> <s_lp_Force_Field>
OPLS_2005

> <r_lp_Energy>
17.0747

> <b_lp_Chiralities_Consistent>
1

> <s_lp_Variant>
AV-unprocessed.smi:1917-1

> <Gold.Version>
5.8.1

> <Gold.Id.Protein>
6NUR|6NUR_protein|mol2

> <Gold.PLP.Fitness>
47.1784

> <Gold.PLP.PLP>
-37.6417

> <Gold.PLP.part.hbond>
-4.0000

> <Gold.PLP.part.metal>
0.0000

> <Gold.PLP.part.buried>
-2.1585

> <Gold.PLP.part.nonpolar>
-31.0387

> <Gold.PLP.part.repulsive>
0.1264

> <Gold.PLP.ligand.clash>
0.0000

> <Gold.PLP.ligand.torsion>
1.2257

> <Gold.PLP.Chemscore.Hbond>
2.8240

> <Gold.PLP.Chemscore.CHOScore>
1.0000

> <Gold.PLP.Chemscore.Metal>
0.0000

> <Gold.Chemscore.Hbonds>
donor molecule, donor type, donor heavy atom, donor atom, acceptor molecule, acceptor atom, score
      P1  H  6896  6907       L1     8  1.00
      P1  H  6931  6943       L1     3  0.94
      P1  H  6934  6947       L1     3  0.91
      L1  C    13    35       P1  7957  1.00

> <Gold.PLP.Chemscore.Internal.Correction>
0.5161

> <Gold.Rescore>
     Score         DG    S(hbond)    S(metal)    S(lipo)     H(rot)  DE(clash)    DE(int)     intcor
     17.91     -19.33       2.76        0.00      83.33       2.00       0.30       1.13       ----

> <Gold.Chemscore.Fitness>
17.9096

> <Gold.Chemscore.DG>
-19.3335

> <Gold.Chemscore.ZeroCoef>
-5.4800

> <Gold.Chemscore.Hbond>
2.7581

> <Gold.Chemscore.Metal>
0.0000

> <Gold.Chemscore.Lipo>
83.3336

> <Gold.Chemscore.Internal_Hbond>
0.0000

> <Gold.Chemscore.DEClash>
0.2975

> <Gold.Chemscore.DEInternal>
1.1263

> <Gold.Chemscore.Rot>
1.9956

> <Gold.Chemscore.Internal.Correction>
   9.000000E+99

> <Gold.Chemscore.Hbonds>
donor molecule, donor type, donor heavy atom, donor atom, acceptor molecule, acceptor atom, score
      P1  H  6896  6907       L1     8  0.99
      P1  H  6931  6943       L1     3  0.87
      P1  H  6934  6947       L1     3  0.88

> <Gold.Chemscore.Hbond.Weighted>
-9.2121

> <Gold.Chemscore.Metal.Weighted>
-0.0000

> <Gold.Chemscore.Lipo.Weighted>
-9.7500

> <Gold.Chemscore.Internal_Hbond.Weighted>
0.0000

> <Gold.Chemscore.DEClash.Weighted>
0.2975

> <Gold.Chemscore.DEInternal.Weighted>
1.1263

> <Gold.Chemscore.Rot.Weighted>
5.1087

> <Gold.Chemscore.Internal.Correction.Weighted>
   9.000000E+99

> <Gold.Protein.RotatedTorsions>
[ 6907 6896 6895 6894 ] final  -58.33 input  -60.11 | X-H torsion
[ 7974 7965 7964 7962 ] final  -37.22 input  175.53 | X-H torsion
[ 8008 7997 7996 7995 ] final  -15.47 input   59.86 | X-H torsion
[ 10167 10162 10161 10158 ] final   68.96 input  -65.29 | X-H torsion
[ 10718 10713 10712 10709 ] final  138.29 input   66.30 | X-H torsion
[ 10763 10752 10751 10750 ] final   55.53 input  -60.55 | X-H torsion
[ 11005 11000 10999 10996 ] final -161.06 input  -57.11 | X-H torsion

> <Gold.Protein.ActiveResidues>
 VAL166  LYS551  ARG553  GLY616  TRP617  ASP618  TYR619  PRO620  LYS621  CYS622 
 ASP623  PHE694  ASN695  SER759  ASP760  ASP761  ALA762  ILE779  LEU786  VAL792 
 PHE793  MET794  SER795  GLU796  ALA797  LYS798  CYS799  TRP800  GLU811  SER814 

> <Gold.Protein.RotatedAtoms>
  150.8015  134.7112  159.6604 H   0  0  0  0  0  0  0  0  0  0  0  0  # atno 6907 bound_to 6896
  152.4133  134.6083  160.0028 H   0  0  0  0  0  0  0  0  0  0  0  0  # atno 6908 bound_to 6896
  151.6320  133.3294  159.3147 H   0  0  0  0  0  0  0  0  0  0  0  0  # atno 6909 bound_to 6896
  146.0594  140.6370  142.9004 H   0  0  0  0  0  0  0  0  0  0  0  0  # atno 7974 bound_to 7965
  154.5128  140.2195  155.9124 H   0  0  0  0  0  0  0  0  0  0  0  0  # atno 8008 bound_to 7997
  156.1572  140.3149  155.8712 H   0  0  0  0  0  0  0  0  0  0  0  0  # atno 8009 bound_to 7997
  155.3823  140.0473  157.3034 H   0  0  0  0  0  0  0  0  0  0  0  0  # atno 8010 bound_to 7997
  140.0730  144.5136  150.7214 H   0  0  0  0  0  0  0  0  0  0  0  0  # atno 10167 bound_to 10162
  157.4269  131.1044  151.0293 H   0  0  0  0  0  0  0  0  0  0  0  0  # atno 10718 bound_to 10713
  152.9818  135.5707  154.5081 H   0  0  0  0  0  0  0  0  0  0  0  0  # atno 10763 bound_to 10752
  154.4590  135.2781  155.1729 H   0  0  0  0  0  0  0  0  0  0  0  0  # atno 10764 bound_to 10752
  154.3325  135.6246  153.5611 H   0  0  0  0  0  0  0  0  0  0  0  0  # atno 10765 bound_to 10752
  140.6246  134.4715  157.5226 H   0  0  0  0  0  0  0  0  0  0  0  0  # atno 11005 bound_to 11000
  144.7166  140.4230  143.7040 LP  0  0  0  0  0  0  0  0  0  0  0  0  # atno 17320 bound_to 7965
  145.6587  139.1577  143.2820 LP  0  0  0  0  0  0  0  0  0  0  0  0  # atno 17321 bound_to 7965
  140.7116  143.2509  151.4564 LP  0  0  0  0  0  0  0  0  0  0  0  0  # atno 17342 bound_to 10162
  139.5824  144.1679  152.1986 LP  0  0  0  0  0  0  0  0  0  0  0  0  # atno 17343 bound_to 10162
  157.1203  130.6059  149.5503 LP  0  0  0  0  0  0  0  0  0  0  0  0  # atno 17370 bound_to 10713
  155.9899  130.4949  150.7236 LP  0  0  0  0  0  0  0  0  0  0  0  0  # atno 17371 bound_to 10713
  139.9140  134.8285  156.1430 LP  0  0  0  0  0  0  0  0  0  0  0  0  # atno 17394 bound_to 11000
  141.0718  133.6793  156.2157 LP  0  0  0  0  0  0  0  0  0  0  0  0  # atno 17395 bound_to 11000

$$$$
