AV-unprocessed.smi:1452|AV-procd|sdf|5907|dock7
  -GOLD-   22720 5593D 1   1.00000     0.00000
 Structure written by MMmdl.
 40 42  0  0  0  0  0  0  0  0  2 V2000
  145.4711  138.5189  153.4111 O   0  0  0  0  0  0  0  0  0  0  0  0
  146.3579  137.8282  152.9122 C   0  0  0  0  0  0  0  0  0  0  0  0
  147.6585  138.1726  153.0178 N   0  0  0  0  0  0  0  0  0  0  0  0
  148.2820  139.2877  153.6507 C   0  0  0  0  0  0  0  0  0  0  0  0
  149.5535  139.0153  154.2041 C   0  0  0  0  0  0  0  0  0  0  0  0
  150.2567  140.0381  154.8694 C   0  0  0  0  0  0  0  0  0  0  0  0
  149.6678  141.3106  154.9700 C   0  0  0  0  0  0  0  0  0  0  0  0
  148.3960  141.4987  154.3990 C   0  0  0  0  0  0  0  0  0  0  0  0
  147.7209  140.5194  153.7603 N   0  0  0  0  0  0  0  0  0  0  0  0
  146.1006  136.6953  152.2386 N   0  0  0  0  0  0  0  0  0  0  0  0
  144.7702  136.1652  151.9611 C   0  0  2  0  0  0  0  0  0  0  0  0
  144.0676  135.6229  153.1987 C   0  0  0  0  0  0  0  0  0  0  0  0
  142.9830  134.7150  152.6100 C   0  0  0  0  0  0  0  0  0  0  0  0
  143.4745  134.2603  151.2856 N   0  3  2  0  0  0  0  0  0  0  0  0
  143.5086  132.7813  151.1288 C   0  0  0  0  0  0  0  0  0  0  0  0
  144.3816  132.3742  149.9325 C   0  0  0  0  0  0  0  0  0  0  0  0
  145.8440  132.8195  150.1238 C   0  0  0  0  0  0  0  0  0  0  0  0
  145.9754  134.0136  151.0883 C   0  0  0  0  0  0  0  0  0  0  0  0
  144.7562  134.9647  150.9964 C   0  0  2  0  0  0  0  0  0  0  0  0
  148.3043  137.4897  152.6486 H   0  0  0  0  0  0  0  0  0  0  0  0
  149.9924  138.0315  154.1205 H   0  0  0  0  0  0  0  0  0  0  0  0
  151.2308  139.8478  155.2953 H   0  0  0  0  0  0  0  0  0  0  0  0
  150.1761  142.1201  155.4726 H   0  0  0  0  0  0  0  0  0  0  0  0
  147.9067  142.4598  154.4564 H   0  0  0  0  0  0  0  0  0  0  0  0
  146.8870  136.1849  151.8611 H   0  0  0  0  0  0  0  0  0  0  0  0
  144.1455  136.9595  151.5463 H   0  0  0  0  0  0  0  0  0  0  0  0
  144.7600  135.0301  153.7985 H   0  0  0  0  0  0  0  0  0  0  0  0
  143.6599  136.4092  153.8349 H   0  0  0  0  0  0  0  0  0  0  0  0
  142.7400  133.8930  153.2847 H   0  0  0  0  0  0  0  0  0  0  0  0
  142.0665  135.2838  152.4493 H   0  0  0  0  0  0  0  0  0  0  0  0
  143.9031  132.3153  152.0335 H   0  0  0  0  0  0  0  0  0  0  0  0
  142.4894  132.4144  151.0038 H   0  0  0  0  0  0  0  0  0  0  0  0
  144.3384  131.2961  149.7754 H   0  0  0  0  0  0  0  0  0  0  0  0
  143.9767  132.8298  149.0276 H   0  0  0  0  0  0  0  0  0  0  0  0
  146.4420  131.9904  150.5039 H   0  0  0  0  0  0  0  0  0  0  0  0
  146.2663  133.0761  149.1515 H   0  0  0  0  0  0  0  0  0  0  0  0
  146.0674  133.6436  152.1105 H   0  0  0  0  0  0  0  0  0  0  0  0
  146.9058  134.5402  150.8738 H   0  0  0  0  0  0  0  0  0  0  0  0
  144.7102  135.3397  149.9729 H   0  0  0  0  0  0  0  0  0  0  0  0
  142.8135  134.6076  150.6055 H   0  0  0  0  0  0  0  0  0  0  0  0
  1  2  2  0  0  0  0
  2  3  1  0  0  0  0
  2 10  1  0  0  0  0
  3  4  1  0  0  0  0
  3 20  1  0  0  0  0
  4  9  1  0  0  0  0
  4  5  2  0  0  0  0
  5  6  1  0  0  0  0
  5 21  1  0  0  0  0
  6  7  2  0  0  0  0
  6 22  1  0  0  0  0
  7  8  1  0  0  0  0
  7 23  1  0  0  0  0
  8  9  2  0  0  0  0
  8 24  1  0  0  0  0
 10 11  1  0  0  0  0
 10 25  1  0  0  0  0
 11 19  1  0  0  0  0
 11 12  1  0  0  0  0
 11 26  1  0  0  0  0
 12 13  1  0  0  0  0
 12 27  1  0  0  0  0
 12 28  1  0  0  0  0
 13 14  1  0  0  0  0
 13 29  1  0  0  0  0
 13 30  1  0  0  0  0
 14 19  1  0  0  0  0
 14 15  1  0  0  0  0
 14 40  1  0  0  0  0
 15 16  1  0  0  0  0
 15 31  1  0  0  0  0
 15 32  1  0  0  0  0
 16 17  1  0  0  0  0
 16 33  1  0  0  0  0
 16 34  1  0  0  0  0
 17 18  1  0  0  0  0
 17 35  1  0  0  0  0
 17 36  1  0  0  0  0
 18 19  1  0  0  0  0
 18 37  1  0  0  0  0
 18 38  1  0  0  0  0
 19 39  1  0  0  0  0
M  CHG  1  14   1
M  END
> <s_m_source_file>
AV-unprocessed.smi

> <i_m_source_file_index>
1452

> <i_lp_mmshare_version>
43012

> <i_f3d_flags>
0

> <s_epik_input>
W0NIMl0xW0NIMl1bQ0gyXVtDSDJdW0NASF0oTjEyKVtDQEBIXShbQ0gyXVtDSDJdMilbTkhdQyg9TylbTkhdYzNbY0hdW2NIXVtjSF1bY0hdbjM=

> <s_epik_cmdline>
J2VwaWtfcHl0aG9uJywgJy1waCcsICc3LjAnLCAnLXRuJywgJzgnLCAnLW1hJywgJzIwMCcsICctbWV0YWxfYmluZGluZycsICctaW1hZScsICc8aW5maWxlLm1hZT4nLCAnLW9tYWUnLCAnPG91dGZpbGUubWFlPic=

> <r_epik_Ionization_Penalty>
0.00100813

> <r_epik_Ionization_Penalty_Charging>
0.000974069

> <r_epik_Ionization_Penalty_Neutral>
3.40643e-05

> <r_epik_State_Penalty>
0.000633842

> <r_epik_Charging_Adjusted_Penalty>
0.00160791

> <i_epik_Tot_Q>
1

> <i_epik_Tot_abs_Q>
1

> <r_epik_Metal_State_Penalty>
-0

> <b_epik_Metal_Only>
0

> <s_lp_Force_Field>
OPLS_2005

> <r_lp_Energy>
44.9795

> <b_lp_Chiralities_Consistent>
1

> <s_lp_Variant>
AV-unprocessed.smi:1452-5

> <Gold.Version>
5.8.1

> <Gold.Id.Protein>
6NUR|6NUR_protein|mol2

> <Gold.PLP.Fitness>
46.6288

> <Gold.PLP.PLP>
-34.9292

> <Gold.PLP.part.hbond>
-3.0000

> <Gold.PLP.part.metal>
0.0000

> <Gold.PLP.part.buried>
-4.1665

> <Gold.PLP.part.nonpolar>
-30.3518

> <Gold.PLP.part.repulsive>
2.1885

> <Gold.PLP.ligand.clash>
0.0000

> <Gold.PLP.ligand.torsion>
0.3034

> <Gold.PLP.Chemscore.Hbond>
3.5522

> <Gold.PLP.Chemscore.CHOScore>
0.5490

> <Gold.PLP.Chemscore.Metal>
0.0000

> <Gold.Chemscore.Hbonds>
donor molecule, donor type, donor heavy atom, donor atom, acceptor molecule, acceptor atom, score
      L1  H     3    20       P1  7948  1.00
      L1  H    10    25       P1  7948  0.81
      L1  H    14    40       P1 10186  1.72
      L1  C     8    24       P1  8028  0.53

> <Gold.PLP.Chemscore.Internal.Correction>
0.0029

> <Gold.Rescore>
     Score         DG    S(hbond)    S(metal)    S(lipo)     H(rot)  DE(clash)    DE(int)     intcor
     18.66     -20.15       2.35        0.00      80.12       1.00       0.34       1.16       ----

> <Gold.Chemscore.Fitness>
18.6605

> <Gold.Chemscore.DG>
-20.1547

> <Gold.Chemscore.ZeroCoef>
-5.4800

> <Gold.Chemscore.Hbond>
2.3537

> <Gold.Chemscore.Metal>
0.0000

> <Gold.Chemscore.Lipo>
80.1153

> <Gold.Chemscore.Internal_Hbond>
0.0000

> <Gold.Chemscore.DEClash>
0.3354

> <Gold.Chemscore.DEInternal>
1.1588

> <Gold.Chemscore.Rot>
1.0000

> <Gold.Chemscore.Internal.Correction>
   9.000000E+99

> <Gold.Chemscore.Hbonds>
donor molecule, donor type, donor heavy atom, donor atom, acceptor molecule, acceptor atom, score
      L1  H     3    20       P1  7948  0.99
      L1  H    10    25       P1  7948  0.74
      L1  H    14    40       P1 10186  0.24

> <Gold.Chemscore.Hbond.Weighted>
-7.8612

> <Gold.Chemscore.Metal.Weighted>
-0.0000

> <Gold.Chemscore.Lipo.Weighted>
-9.3735

> <Gold.Chemscore.Internal_Hbond.Weighted>
0.0000

> <Gold.Chemscore.DEClash.Weighted>
0.3354

> <Gold.Chemscore.DEInternal.Weighted>
1.1588

> <Gold.Chemscore.Rot.Weighted>
2.5600

> <Gold.Chemscore.Internal.Correction.Weighted>
   9.000000E+99

> <Gold.Protein.RotatedTorsions>
[ 6907 6896 6895 6894 ] final   46.81 input  -60.11 | X-H torsion
[ 7974 7965 7964 7962 ] final  -54.61 input  175.53 | X-H torsion
[ 8008 7997 7996 7995 ] final   27.75 input   59.86 | X-H torsion
[ 10167 10162 10161 10158 ] final  113.28 input  -65.29 | X-H torsion
[ 10718 10713 10712 10709 ] final   18.50 input   66.30 | X-H torsion
[ 10763 10752 10751 10750 ] final  117.58 input  -60.55 | X-H torsion
[ 11005 11000 10999 10996 ] final   95.44 input  -57.11 | X-H torsion

> <Gold.Protein.ActiveResidues>
 VAL166  LYS551  ARG553  GLY616  TRP617  ASP618  TYR619  PRO620  LYS621  CYS622 
 ASP623  PHE694  ASN695  SER759  ASP760  ASP761  ALA762  ILE779  LEU786  VAL792 
 PHE793  MET794  SER795  GLU796  ALA797  LYS798  CYS799  TRP800  GLU811  SER814 

> <Gold.Protein.RotatedAtoms>
  152.2608  134.8036  160.0430 H   0  0  0  0  0  0  0  0  0  0  0  0  # atno 6907 bound_to 6896
  151.8684  133.3465  159.3735 H   0  0  0  0  0  0  0  0  0  0  0  0  # atno 6908 bound_to 6896
  150.7116  134.5065  159.5630 H   0  0  0  0  0  0  0  0  0  0  0  0  # atno 6909 bound_to 6896
  145.8836  140.8126  142.9827 H   0  0  0  0  0  0  0  0  0  0  0  0  # atno 7974 bound_to 7965
  155.0479  140.3176  155.4702 H   0  0  0  0  0  0  0  0  0  0  0  0  # atno 8008 bound_to 7997
  156.2841  140.2151  156.5548 H   0  0  0  0  0  0  0  0  0  0  0  0  # atno 8009 bound_to 7997
  154.7235  140.0487  157.0649 H   0  0  0  0  0  0  0  0  0  0  0  0  # atno 8010 bound_to 7997
  139.6473  144.7127  151.2117 H   0  0  0  0  0  0  0  0  0  0  0  0  # atno 10167 bound_to 10162
  157.0972  130.6453  149.5863 H   0  0  0  0  0  0  0  0  0  0  0  0  # atno 10718 bound_to 10713
  153.5545  135.3533  155.2773 H   0  0  0  0  0  0  0  0  0  0  0  0  # atno 10763 bound_to 10752
  154.8702  135.4122  154.2899 H   0  0  0  0  0  0  0  0  0  0  0  0  # atno 10764 bound_to 10752
  153.3632  135.7061  153.6764 H   0  0  0  0  0  0  0  0  0  0  0  0  # atno 10765 bound_to 10752
  139.8789  134.8899  156.4012 H   0  0  0  0  0  0  0  0  0  0  0  0  # atno 11005 bound_to 11000
  144.6728  140.1421  143.7436 LP  0  0  0  0  0  0  0  0  0  0  0  0  # atno 17320 bound_to 7965
  145.8994  139.2421  143.1502 LP  0  0  0  0  0  0  0  0  0  0  0  0  # atno 17321 bound_to 7965
  140.7521  143.6209  150.8514 LP  0  0  0  0  0  0  0  0  0  0  0  0  # atno 17342 bound_to 10162
  139.9854  143.5906  152.2929 LP  0  0  0  0  0  0  0  0  0  0  0  0  # atno 17343 bound_to 10162
  155.9883  130.4925  150.7162 LP  0  0  0  0  0  0  0  0  0  0  0  0  # atno 17370 bound_to 10713
  157.4671  131.0889  151.0683 LP  0  0  0  0  0  0  0  0  0  0  0  0  # atno 17371 bound_to 10713
  140.9266  133.7608  155.9972 LP  0  0  0  0  0  0  0  0  0  0  0  0  # atno 17394 bound_to 11000
  140.8379  134.3101  157.5324 LP  0  0  0  0  0  0  0  0  0  0  0  0  # atno 17395 bound_to 11000

$$$$
