AV-unprocessed.smi:2176|AV-procd|sdf|8847|dock8
  -GOLD-   2272012 43D 1   1.00000     0.00000
 Structure written by MMmdl.
 28 29  0  0  0  0  0  0  0  0  2 V2000
  149.9111  141.6905  157.8589 O   0  0  0  0  0  0  0  0  0  0  0  0
  151.0106  141.8767  157.3358 C   0  0  0  0  0  0  0  0  0  0  0  0
  151.2154  141.6066  155.8396 C   0  0  0  0  0  0  0  0  0  0  0  0
  151.2708  140.1688  155.5323 N   0  0  0  0  0  0  0  0  0  0  0  0
  150.4371  139.6829  154.5097 C   0  0  0  0  0  0  0  0  0  0  0  0
  150.4277  138.3828  154.1585 C   0  0  0  0  0  0  0  0  0  0  0  0
  151.3128  137.4689  154.8700 C   0  0  0  0  0  0  0  0  0  0  0  0
  151.3137  136.2777  154.5660 O   0  0  0  0  0  0  0  0  0  0  0  0
  152.1061  137.9893  155.8515 N   0  5  0  0  0  0  0  0  0  0  0  0
  152.1071  139.3144  156.1963 C   0  0  0  0  0  0  0  0  0  0  0  0
  152.8332  139.7636  157.0840 O   0  0  0  0  0  0  0  0  0  0  0  0
  152.0881  142.2905  158.0172 N   0  0  0  0  0  0  0  0  0  0  0  0
  152.0954  142.6140  159.4361 C   0  0  0  0  0  0  0  0  0  0  0  0
  152.4749  144.0487  159.7364 C   0  0  0  0  0  0  0  0  0  0  0  0
  151.5523  145.1831  159.3571 C   0  0  0  0  0  0  0  0  0  0  0  0
  152.8605  144.9971  158.6256 C   0  0  0  0  0  0  0  0  0  0  0  0
  150.4255  142.0855  155.2575 H   0  0  0  0  0  0  0  0  0  0  0  0
  152.1375  142.0994  155.5293 H   0  0  0  0  0  0  0  0  0  0  0  0
  149.8178  140.4259  154.0291 H   0  0  0  0  0  0  0  0  0  0  0  0
  149.7840  138.0259  153.3681 H   0  0  0  0  0  0  0  0  0  0  0  0
  152.9529  142.4161  157.5114 H   0  0  0  0  0  0  0  0  0  0  0  0
  151.1140  142.4087  159.8676 H   0  0  0  0  0  0  0  0  0  0  0  0
  152.8056  141.9567  159.9394 H   0  0  0  0  0  0  0  0  0  0  0  0
  153.0052  144.1730  160.6791 H   0  0  0  0  0  0  0  0  0  0  0  0
  150.6383  144.9363  158.8204 H   0  0  0  0  0  0  0  0  0  0  0  0
  151.4767  146.0219  160.0460 H   0  0  0  0  0  0  0  0  0  0  0  0
  153.6586  145.7079  158.8291 H   0  0  0  0  0  0  0  0  0  0  0  0
  152.8172  144.6250  157.6038 H   0  0  0  0  0  0  0  0  0  0  0  0
  1  2  2  0  0  0  0
  2  3  1  0  0  0  0
  2 12  1  0  0  0  0
  3  4  1  0  0  0  0
  3 17  1  0  0  0  0
  3 18  1  0  0  0  0
  4 10  1  0  0  0  0
  4  5  1  0  0  0  0
  5  6  2  0  0  0  0
  5 19  1  0  0  0  0
  6  7  1  0  0  0  0
  6 20  1  0  0  0  0
  7  8  2  0  0  0  0
  7  9  1  0  0  0  0
  9 10  1  0  0  0  0
 10 11  2  0  0  0  0
 12 13  1  0  0  0  0
 12 21  1  0  0  0  0
 13 14  1  0  0  0  0
 13 22  1  0  0  0  0
 13 23  1  0  0  0  0
 14 16  1  0  0  0  0
 14 15  1  0  0  0  0
 14 24  1  0  0  0  0
 15 16  1  0  0  0  0
 15 25  1  0  0  0  0
 15 26  1  0  0  0  0
 16 27  1  0  0  0  0
 16 28  1  0  0  0  0
M  CHG  1   9  -1
M  END
> <s_m_source_file>
AV-unprocessed.smi

> <i_m_source_file_index>
2176

> <i_lp_mmshare_version>
43012

> <i_f3d_flags>
0

> <s_epik_input>
W0NIMl0xW0NIMl1bQ0hdMVtDSDJdW05IXUMoPU8pW0NIMl1uMltjSF1bY0hdYyg9TylbbkhdYzI9Tw==

> <s_epik_cmdline>
J2VwaWtfcHl0aG9uJywgJy1waCcsICc3LjAnLCAnLXRuJywgJzgnLCAnLW1hJywgJzIwMCcsICctbWV0YWxfYmluZGluZycsICctaW1hZScsICc8aW5maWxlLm1hZT4nLCAnLW9tYWUnLCAnPG91dGZpbGUubWFlPic=

> <r_lp_tautomer_probability>
0.999537

> <r_epik_Ionization_Penalty>
3.07884

> <r_epik_Ionization_Penalty_Charging>
2.64713e-08

> <r_epik_Ionization_Penalty_Neutral>
3.07884

> <r_epik_State_Penalty>
3.07787

> <r_epik_Charging_Adjusted_Penalty>
3.07787

> <i_epik_Tot_Q>
-1

> <i_epik_Tot_abs_Q>
1

> <r_epik_Metal_State_Penalty>
0.459857

> <b_epik_Metal_Only>
1

> <s_lp_Force_Field>
OPLS_2005

> <r_lp_Energy>
21.5126

> <b_lp_Chiralities_Consistent>
1

> <s_lp_Variant>
AV-unprocessed.smi:2176-2

> <Gold.Version>
5.8.1

> <Gold.Id.Protein>
6NUR|6NUR_protein|mol2

> <Gold.PLP.Fitness>
40.9353

> <Gold.PLP.PLP>
-35.6798

> <Gold.PLP.part.hbond>
-2.0000

> <Gold.PLP.part.metal>
0.0000

> <Gold.PLP.part.buried>
-3.0343

> <Gold.PLP.part.nonpolar>
-29.6983

> <Gold.PLP.part.repulsive>
0.4288

> <Gold.PLP.ligand.clash>
0.0000

> <Gold.PLP.ligand.torsion>
0.6429

> <Gold.PLP.Chemscore.Hbond>
2.0000

> <Gold.PLP.Chemscore.CHOScore>
0.0000

> <Gold.PLP.Chemscore.Metal>
0.0000

> <Gold.Chemscore.Hbonds>
donor molecule, donor type, donor heavy atom, donor atom, acceptor molecule, acceptor atom, score
      P1  H  7997  8008       L1    11  1.00
      P1  H 10752 10765       L1     8  1.00
      L1  C     5    19       P1  7957  0.05

> <Gold.PLP.Chemscore.Internal.Correction>
0.5411

> <Gold.Rescore>
     Score         DG    S(hbond)    S(metal)    S(lipo)     H(rot)  DE(clash)    DE(int)     intcor
     13.13     -15.20       1.93        0.00      71.54       1.99       0.00       2.07       ----

> <Gold.Chemscore.Fitness>
13.1265

> <Gold.Chemscore.DG>
-15.1974

> <Gold.Chemscore.ZeroCoef>
-5.4800

> <Gold.Chemscore.Hbond>
1.9284

> <Gold.Chemscore.Metal>
0.0000

> <Gold.Chemscore.Lipo>
71.5367

> <Gold.Chemscore.Internal_Hbond>
0.0000

> <Gold.Chemscore.DEClash>
0.0000

> <Gold.Chemscore.DEInternal>
2.0709

> <Gold.Chemscore.Rot>
1.9895

> <Gold.Chemscore.Internal.Correction>
   9.000000E+99

> <Gold.Chemscore.Hbonds>
donor molecule, donor type, donor heavy atom, donor atom, acceptor molecule, acceptor atom, score
      P1  H  7997  8008       L1    11  0.69
      P1  H 10752 10765       L1     8  0.82

> <Gold.Chemscore.Hbond.Weighted>
-6.4407

> <Gold.Chemscore.Metal.Weighted>
-0.0000

> <Gold.Chemscore.Lipo.Weighted>
-8.3698

> <Gold.Chemscore.Internal_Hbond.Weighted>
0.0000

> <Gold.Chemscore.DEClash.Weighted>
0.0000

> <Gold.Chemscore.DEInternal.Weighted>
2.0709

> <Gold.Chemscore.Rot.Weighted>
5.0931

> <Gold.Chemscore.Internal.Correction.Weighted>
   9.000000E+99

> <Gold.Protein.RotatedTorsions>
[ 6907 6896 6895 6894 ] final  -58.11 input  -60.11 | X-H torsion
[ 7974 7965 7964 7962 ] final  122.21 input  175.53 | X-H torsion
[ 8008 7997 7996 7995 ] final  -47.38 input   59.86 | X-H torsion
[ 10167 10162 10161 10158 ] final -118.01 input  -65.29 | X-H torsion
[ 10718 10713 10712 10709 ] final   79.70 input   66.30 | X-H torsion
[ 10763 10752 10751 10750 ] final  175.49 input  -60.55 | X-H torsion
[ 11005 11000 10999 10996 ] final   80.16 input  -57.11 | X-H torsion

> <Gold.Protein.ActiveResidues>
 VAL166  LYS551  ARG553  GLY616  TRP617  ASP618  TYR619  PRO620  LYS621  CYS622 
 ASP623  PHE694  ASN695  SER759  ASP760  ASP761  ALA762  ILE779  LEU786  VAL792 
 PHE793  MET794  SER795  GLU796  ALA797  LYS798  CYS799  TRP800  GLU811  SER814 

> <Gold.Protein.RotatedAtoms>
  150.8033  134.7141  159.6619 H   0  0  0  0  0  0  0  0  0  0  0  0  # atno 6907 bound_to 6896
  152.4151  134.6053  160.0021 H   0  0  0  0  0  0  0  0  0  0  0  0  # atno 6908 bound_to 6896
  151.6285  133.3297  159.3139 H   0  0  0  0  0  0  0  0  0  0  0  0  # atno 6909 bound_to 6896
  145.1103  139.3457  143.4767 H   0  0  0  0  0  0  0  0  0  0  0  0  # atno 7974 bound_to 7965
  154.4016  140.1348  156.4166 H   0  0  0  0  0  0  0  0  0  0  0  0  # atno 8008 bound_to 7997
  155.7683  140.3484  155.5213 H   0  0  0  0  0  0  0  0  0  0  0  0  # atno 8009 bound_to 7997
  155.8792  140.0984  157.1487 H   0  0  0  0  0  0  0  0  0  0  0  0  # atno 8010 bound_to 7997
  140.0621  143.4958  152.2026 H   0  0  0  0  0  0  0  0  0  0  0  0  # atno 10167 bound_to 10162
  157.6784  130.9926  150.1971 H   0  0  0  0  0  0  0  0  0  0  0  0  # atno 10718 bound_to 10713
  154.4684  135.2770  155.1661 H   0  0  0  0  0  0  0  0  0  0  0  0  # atno 10763 bound_to 10752
  154.3420  135.6168  153.5605 H   0  0  0  0  0  0  0  0  0  0  0  0  # atno 10764 bound_to 10752
  152.9861  135.5791  154.5060 H   0  0  0  0  0  0  0  0  0  0  0  0  # atno 10765 bound_to 10752
  139.9145  134.7899  156.1873 H   0  0  0  0  0  0  0  0  0  0  0  0  # atno 11005 bound_to 11000
  146.3526  140.1018  142.8607 LP  0  0  0  0  0  0  0  0  0  0  0  0  # atno 17320 bound_to 7965
  145.0855  140.9249  143.4800 LP  0  0  0  0  0  0  0  0  0  0  0  0  # atno 17321 bound_to 7965
  139.5887  144.7541  151.3454 LP  0  0  0  0  0  0  0  0  0  0  0  0  # atno 17342 bound_to 10162
  140.7167  143.7248  150.7668 LP  0  0  0  0  0  0  0  0  0  0  0  0  # atno 17343 bound_to 10162
  156.2670  130.3717  149.8071 LP  0  0  0  0  0  0  0  0  0  0  0  0  # atno 17370 bound_to 10713
  156.5800  130.8461  151.3380 LP  0  0  0  0  0  0  0  0  0  0  0  0  # atno 17371 bound_to 10713
  141.0605  133.6844  156.1944 LP  0  0  0  0  0  0  0  0  0  0  0  0  # atno 17394 bound_to 11000
  140.6668  134.4910  157.5586 LP  0  0  0  0  0  0  0  0  0  0  0  0  # atno 17395 bound_to 11000

$$$$
