AV-unprocessed.smi:2687|AV-procd|sdf|10385|dock1
  -GOLD-   2272014413D 1   1.00000     0.00000
 Structure written by MMmdl.
 38 39  0  0  0  0  0  0  0  0  1 V2000
  153.7906  139.6771  158.5377 O   0  0  0  0  0  0  0  0  0  0  0  0
  152.8057  140.4143  158.5613 C   0  0  0  0  0  0  0  0  0  0  0  0
  152.5853  141.3297  159.7639 C   0  0  0  0  0  0  0  0  0  0  0  0
  151.6909  142.3617  159.3826 O   0  0  0  0  0  0  0  0  0  0  0  0
  151.7800  143.5047  160.2183 C   0  0  0  0  0  0  0  0  0  0  0  0
  151.5243  144.7682  159.3874 C   0  0  0  0  0  0  0  0  0  0  0  0
  151.7235  145.8429  160.1494 F   0  0  0  0  0  0  0  0  0  0  0  0
  152.3620  144.8175  158.3521 F   0  0  0  0  0  0  0  0  0  0  0  0
  150.2665  144.7833  158.9470 F   0  0  0  0  0  0  0  0  0  0  0  0
  151.8703  140.4716  157.5964 N   0  0  0  0  0  0  0  0  0  0  0  0
  151.8237  139.7490  156.3704 C   0  0  0  0  0  0  0  0  0  0  0  0
  152.8373  138.8411  155.9788 C   0  0  0  0  0  0  0  0  0  0  0  0
  152.7306  138.1876  154.7376 C   0  0  0  0  0  0  0  0  0  0  0  0
  151.6180  138.4717  153.9254 C   0  0  0  0  0  0  0  0  0  0  0  0
  150.6517  139.3447  154.2763 N   0  0  0  0  0  0  0  0  0  0  0  0
  150.7504  139.9760  155.4713 C   0  0  0  0  0  0  0  0  0  0  0  0
  149.7282  140.8784  155.8101 N   0  0  0  0  0  0  0  0  0  0  0  0
  148.9035  141.2807  154.6781 C   0  0  0  0  0  0  0  0  0  0  0  0
  147.9057  142.3668  155.1160 C   0  0  0  0  0  0  0  0  0  0  0  0
  147.1313  141.8914  156.2138 O   0  0  0  0  0  0  0  0  0  0  0  0
  147.9405  141.5693  157.3416 C   0  0  0  0  0  0  0  0  0  0  0  0
  148.9368  140.4613  156.9608 C   0  0  0  0  0  0  0  0  0  0  0  0
  152.1812  140.7670  160.6077 H   0  0  0  0  0  0  0  0  0  0  0  0
  153.5445  141.7484  160.0725 H   0  0  0  0  0  0  0  0  0  0  0  0
  151.0496  143.4358  161.0259 H   0  0  0  0  0  0  0  0  0  0  0  0
  152.7695  143.5557  160.6753 H   0  0  0  0  0  0  0  0  0  0  0  0
  151.0611  141.0422  157.7941 H   0  0  0  0  0  0  0  0  0  0  0  0
  153.6990  138.6481  156.5992 H   0  0  0  0  0  0  0  0  0  0  0  0
  153.4876  137.4896  154.4132 H   0  0  0  0  0  0  0  0  0  0  0  0
  151.5037  137.9901  152.9656 H   0  0  0  0  0  0  0  0  0  0  0  0
  149.5379  141.6555  153.8740 H   0  0  0  0  0  0  0  0  0  0  0  0
  148.3628  140.4171  154.2887 H   0  0  0  0  0  0  0  0  0  0  0  0
  148.4266  143.2841  155.3957 H   0  0  0  0  0  0  0  0  0  0  0  0
  147.2377  142.6180  154.2920 H   0  0  0  0  0  0  0  0  0  0  0  0
  148.4642  142.4595  157.6937 H   0  0  0  0  0  0  0  0  0  0  0  0
  147.2986  141.2335  158.1561 H   0  0  0  0  0  0  0  0  0  0  0  0
  148.3957  139.5438  156.7252 H   0  0  0  0  0  0  0  0  0  0  0  0
  149.5956  140.2420  157.8020 H   0  0  0  0  0  0  0  0  0  0  0  0
  1  2  2  0  0  0  0
  2  3  1  0  0  0  0
  2 10  1  0  0  0  0
  3  4  1  0  0  0  0
  3 23  1  0  0  0  0
  3 24  1  0  0  0  0
  4  5  1  0  0  0  0
  5  6  1  0  0  0  0
  5 25  1  0  0  0  0
  5 26  1  0  0  0  0
  6  7  1  0  0  0  0
  6  8  1  0  0  0  0
  6  9  1  0  0  0  0
 10 11  1  0  0  0  0
 10 27  1  0  0  0  0
 11 16  1  0  0  0  0
 11 12  2  0  0  0  0
 12 13  1  0  0  0  0
 12 28  1  0  0  0  0
 13 14  2  0  0  0  0
 13 29  1  0  0  0  0
 14 15  1  0  0  0  0
 14 30  1  0  0  0  0
 15 16  2  0  0  0  0
 16 17  1  0  0  0  0
 17 22  1  0  0  0  0
 17 18  1  0  0  0  0
 18 19  1  0  0  0  0
 18 31  1  0  0  0  0
 18 32  1  0  0  0  0
 19 20  1  0  0  0  0
 19 33  1  0  0  0  0
 19 34  1  0  0  0  0
 20 21  1  0  0  0  0
 21 22  1  0  0  0  0
 21 35  1  0  0  0  0
 21 36  1  0  0  0  0
 22 37  1  0  0  0  0
 22 38  1  0  0  0  0
M  END
> <s_m_source_file>
AV-unprocessed.smi

> <i_m_source_file_index>
2687

> <i_lp_mmshare_version>
43012

> <i_f3d_flags>
0

> <s_epik_input>
RkMoRikoRilbQ0gyXU9bQ0gyXUMoPU8pW05IXWMxW2NIXVtjSF1bY0hdbmMxTjJbQ0gyXVtDSDJdT1tDSDJdW0NIMl0y

> <s_epik_cmdline>
J2VwaWtfcHl0aG9uJywgJy1waCcsICc3LjAnLCAnLXRuJywgJzgnLCAnLW1hJywgJzIwMCcsICctbWV0YWxfYmluZGluZycsICctaW1hZScsICc8aW5maWxlLm1hZT4nLCAnLW9tYWUnLCAnPG91dGZpbGUubWFlPic=

> <r_lp_tautomer_probability>
1

> <r_epik_Ionization_Penalty>
0.00040187

> <r_epik_Ionization_Penalty_Charging>
0

> <r_epik_Ionization_Penalty_Neutral>
0.00040187

> <r_epik_State_Penalty>
0.000245652

> <r_epik_Charging_Adjusted_Penalty>
0.000245652

> <i_epik_Tot_Q>
0

> <i_epik_Tot_abs_Q>
0

> <r_epik_Metal_State_Penalty>
-0

> <b_epik_Metal_Only>
0

> <s_lp_Force_Field>
OPLS_2005

> <r_lp_Energy>
25.827

> <b_lp_Chiralities_Consistent>
1

> <s_lp_Variant>
AV-unprocessed.smi:2687-1

> <Gold.Version>
5.8.1

> <Gold.Id.Protein>
6NUR|6NUR_protein|mol2

> <Gold.PLP.Fitness>
44.9079

> <Gold.PLP.PLP>
-39.5379

> <Gold.PLP.part.hbond>
-1.9989

> <Gold.PLP.part.metal>
0.0000

> <Gold.PLP.part.buried>
0.9155

> <Gold.PLP.part.nonpolar>
-38.8647

> <Gold.PLP.part.repulsive>
0.4356

> <Gold.PLP.ligand.clash>
0.0000

> <Gold.PLP.ligand.torsion>
0.8581

> <Gold.PLP.Chemscore.Hbond>
1.2925

> <Gold.PLP.Chemscore.CHOScore>
1.0000

> <Gold.PLP.Chemscore.Metal>
0.0000

> <Gold.Chemscore.Hbonds>
donor molecule, donor type, donor heavy atom, donor atom, acceptor molecule, acceptor atom, score
      P1  H  7989  7998       L1    15  0.24
      P1  H  7997  8010       L1     1  1.00
      L1  C    14    30       P1  7949  1.00

> <Gold.PLP.Chemscore.Internal.Correction>
0.2087

> <Gold.Rescore>
     Score         DG    S(hbond)    S(metal)    S(lipo)     H(rot)  DE(clash)    DE(int)     intcor
      7.94     -12.66       0.92        0.00      79.22       2.01       1.49       3.23       ----

> <Gold.Chemscore.Fitness>
7.9404

> <Gold.Chemscore.DG>
-12.6629

> <Gold.Chemscore.ZeroCoef>
-5.4800

> <Gold.Chemscore.Hbond>
0.9196

> <Gold.Chemscore.Metal>
0.0000

> <Gold.Chemscore.Lipo>
79.2165

> <Gold.Chemscore.Internal_Hbond>
0.0000

> <Gold.Chemscore.DEClash>
1.4875

> <Gold.Chemscore.DEInternal>
3.2350

> <Gold.Chemscore.Rot>
2.0144

> <Gold.Chemscore.Internal.Correction>
   9.000000E+99

> <Gold.Chemscore.Hbonds>
donor molecule, donor type, donor heavy atom, donor atom, acceptor molecule, acceptor atom, score
      P1  H  7997  8010       L1     1  0.82

> <Gold.Chemscore.Hbond.Weighted>
-3.0714

> <Gold.Chemscore.Metal.Weighted>
-0.0000

> <Gold.Chemscore.Lipo.Weighted>
-9.2683

> <Gold.Chemscore.Internal_Hbond.Weighted>
0.0000

> <Gold.Chemscore.DEClash.Weighted>
1.4875

> <Gold.Chemscore.DEInternal.Weighted>
3.2350

> <Gold.Chemscore.Rot.Weighted>
5.1568

> <Gold.Chemscore.Internal.Correction.Weighted>
   9.000000E+99

> <Gold.Protein.RotatedTorsions>
[ 6907 6896 6895 6894 ] final  -87.44 input  -60.11 | X-H torsion
[ 7974 7965 7964 7962 ] final   90.37 input  175.53 | X-H torsion
[ 8008 7997 7996 7995 ] final   16.82 input   59.86 | X-H torsion
[ 10167 10162 10161 10158 ] final  -65.61 input  -65.29 | X-H torsion
[ 10718 10713 10712 10709 ] final  173.51 input   66.30 | X-H torsion
[ 10763 10752 10751 10750 ] final  -41.58 input  -60.55 | X-H torsion
[ 11005 11000 10999 10996 ] final   10.56 input  -57.11 | X-H torsion

> <Gold.Protein.ActiveResidues>
 VAL166  LYS551  ARG553  GLY616  TRP617  ASP618  TYR619  PRO620  LYS621  CYS622 
 ASP623  PHE694  ASN695  SER759  ASP760  ASP761  ALA762  ILE779  LEU786  VAL792 
 PHE793  MET794  SER795  GLU796  ALA797  LYS798  CYS799  TRP800  GLU811  SER814 

> <Gold.Protein.RotatedAtoms>
  150.6866  134.2895  159.4660 H   0  0  0  0  0  0  0  0  0  0  0  0  # atno 6907 bound_to 6896
  152.0802  134.9474  160.0583 H   0  0  0  0  0  0  0  0  0  0  0  0  # atno 6908 bound_to 6896
  152.0830  133.4127  159.4546 H   0  0  0  0  0  0  0  0  0  0  0  0  # atno 6909 bound_to 6896
  145.5199  139.2279  143.2677 H   0  0  0  0  0  0  0  0  0  0  0  0  # atno 7974 bound_to 7965
  154.8825  140.2975  155.5417 H   0  0  0  0  0  0  0  0  0  0  0  0  # atno 8008 bound_to 7997
  156.3022  140.2439  156.3763 H   0  0  0  0  0  0  0  0  0  0  0  0  # atno 8009 bound_to 7997
  154.8702  140.0402  157.1709 H   0  0  0  0  0  0  0  0  0  0  0  0  # atno 8010 bound_to 7997
  140.5717  143.2318  151.6525 H   0  0  0  0  0  0  0  0  0  0  0  0  # atno 10167 bound_to 10162
  156.9632  131.0067  151.2922 H   0  0  0  0  0  0  0  0  0  0  0  0  # atno 10718 bound_to 10713
  153.9649  135.6735  153.4746 H   0  0  0  0  0  0  0  0  0  0  0  0  # atno 10763 bound_to 10752
  153.0820  135.4918  154.8519 H   0  0  0  0  0  0  0  0  0  0  0  0  # atno 10764 bound_to 10752
  154.7252  135.3126  154.8943 H   0  0  0  0  0  0  0  0  0  0  0  0  # atno 10765 bound_to 10752
  140.5131  134.0633  155.7823 H   0  0  0  0  0  0  0  0  0  0  0  0  # atno 11005 bound_to 11000
  146.2112  140.6011  142.9058 LP  0  0  0  0  0  0  0  0  0  0  0  0  # atno 17320 bound_to 7965
  144.7681  140.5577  143.6689 LP  0  0  0  0  0  0  0  0  0  0  0  0  # atno 17321 bound_to 7965
  139.5121  144.3488  152.0672 LP  0  0  0  0  0  0  0  0  0  0  0  0  # atno 17342 bound_to 10162
  140.2626  144.4051  150.6180 LP  0  0  0  0  0  0  0  0  0  0  0  0  # atno 17343 bound_to 10162
  157.5643  130.8267  149.8307 LP  0  0  0  0  0  0  0  0  0  0  0  0  # atno 17370 bound_to 10713
  156.0313  130.3764  150.1679 LP  0  0  0  0  0  0  0  0  0  0  0  0  # atno 17371 bound_to 10713
  141.1375  133.9196  157.2401 LP  0  0  0  0  0  0  0  0  0  0  0  0  # atno 17394 bound_to 11000
  139.9648  135.0145  156.9357 LP  0  0  0  0  0  0  0  0  0  0  0  0  # atno 17395 bound_to 11000

$$$$
