AV-unprocessed.smi:2336|AV-procd|sdf|9329|dock1
  -GOLD-   2272012553D 1   1.00000     0.00000
 Structure written by MMmdl.
 50 51  0  0  0  0  0  0  0  0  2 V2000
  147.7272  141.4992  155.7629 C   0  0  0  0  0  0  0  0  0  0  0  0
  147.7995  141.4153  154.2262 C   0  0  0  0  0  0  0  0  0  0  0  0
  146.4945  141.9872  153.6366 C   0  0  0  0  0  0  0  0  0  0  0  0
  148.0908  139.9770  153.7049 C   0  0  2  0  0  0  0  0  0  0  0  0
  146.8353  139.0577  153.7438 C   0  0  0  0  0  0  0  0  0  0  0  0
  146.9941  137.8310  152.9668 N   0  0  0  0  0  0  0  0  0  0  0  0
  146.0119  136.9810  152.6340 C   0  0  0  0  0  0  0  0  0  0  0  0
  144.8341  137.1462  152.9499 O   0  0  0  0  0  0  0  0  0  0  0  0
  146.4950  135.9287  151.9522 N   0  0  0  0  0  0  0  0  0  0  0  0
  145.7925  134.8073  151.4326 C   0  0  0  0  0  0  0  0  0  0  0  0
  144.4237  134.8250  151.0706 C   0  0  0  0  0  0  0  0  0  0  0  0
  143.8500  133.6496  150.5452 C   0  0  0  0  0  0  0  0  0  0  0  0
  144.5389  132.5037  150.3602 N   0  0  0  0  0  0  0  0  0  0  0  0
  145.8466  132.4943  150.6950 C   0  0  0  0  0  0  0  0  0  0  0  0
  146.5168  133.6141  151.2275 C   0  0  0  0  0  0  0  0  0  0  0  0
  147.8334  133.5394  151.5399 F   0  0  0  0  0  0  0  0  0  0  0  0
  149.2825  139.4129  154.4154 N   0  3  0  0  0  0  0  0  0  0  0  0
  150.3416  140.3935  154.7644 C   0  0  0  0  0  0  0  0  0  0  0  0
  151.3723  139.7487  155.7141 C   0  0  0  0  0  0  0  0  0  0  0  0
  151.9622  138.5346  155.1466 N   0  0  0  0  0  0  0  0  0  0  0  0
  152.8694  138.8022  154.0352 C   0  0  0  0  0  0  0  0  0  0  0  0
  150.9070  137.5766  154.8100 C   0  0  0  0  0  0  0  0  0  0  0  0
  149.8676  138.1746  153.8401 C   0  0  0  0  0  0  0  0  0  0  0  0
  147.0034  140.7904  156.1669 H   0  0  0  0  0  0  0  0  0  0  0  0
  147.4277  142.4962  156.0876 H   0  0  0  0  0  0  0  0  0  0  0  0
  148.6922  141.3021  156.2292 H   0  0  0  0  0  0  0  0  0  0  0  0
  148.6128  142.0708  153.9130 H   0  0  0  0  0  0  0  0  0  0  0  0
  145.6386  141.3590  153.8860 H   0  0  0  0  0  0  0  0  0  0  0  0
  146.5386  142.0774  152.5513 H   0  0  0  0  0  0  0  0  0  0  0  0
  146.2931  142.9860  154.0252 H   0  0  0  0  0  0  0  0  0  0  0  0
  148.3687  140.0898  152.6557 H   0  0  0  0  0  0  0  0  0  0  0  0
  146.5530  138.8496  154.7768 H   0  0  0  0  0  0  0  0  0  0  0  0
  145.9815  139.5677  153.3006 H   0  0  0  0  0  0  0  0  0  0  0  0
  147.9295  137.6127  152.6551 H   0  0  0  0  0  0  0  0  0  0  0  0
  147.4976  135.8924  151.8406 H   0  0  0  0  0  0  0  0  0  0  0  0
  143.8112  135.7077  151.1694 H   0  0  0  0  0  0  0  0  0  0  0  0
  142.8087  133.6326  150.2587 H   0  0  0  0  0  0  0  0  0  0  0  0
  146.3752  131.5667  150.5314 H   0  0  0  0  0  0  0  0  0  0  0  0
  150.8384  140.7773  153.8758 H   0  0  0  0  0  0  0  0  0  0  0  0
  149.8923  141.2519  155.2643 H   0  0  0  0  0  0  0  0  0  0  0  0
  152.1620  140.4602  155.9584 H   0  0  0  0  0  0  0  0  0  0  0  0
  150.8877  139.4905  156.6568 H   0  0  0  0  0  0  0  0  0  0  0  0
  153.3307  137.8748  153.6940 H   0  0  0  0  0  0  0  0  0  0  0  0
  153.6699  139.4706  154.3541 H   0  0  0  0  0  0  0  0  0  0  0  0
  152.3688  139.2608  153.1832 H   0  0  0  0  0  0  0  0  0  0  0  0
  151.3517  136.6768  154.3833 H   0  0  0  0  0  0  0  0  0  0  0  0
  150.4107  137.2688  155.7315 H   0  0  0  0  0  0  0  0  0  0  0  0
  149.0813  137.4406  153.6662 H   0  0  0  0  0  0  0  0  0  0  0  0
  150.3265  138.3695  152.8734 H   0  0  0  0  0  0  0  0  0  0  0  0
  148.9141  139.1307  155.3125 H   0  0  0  0  0  0  0  0  0  0  0  0
  1  2  1  0  0  0  0
  1 24  1  0  0  0  0
  1 25  1  0  0  0  0
  1 26  1  0  0  0  0
  2  3  1  0  0  0  0
  2  4  1  0  0  0  0
  2 27  1  0  0  0  0
  3 28  1  0  0  0  0
  3 29  1  0  0  0  0
  3 30  1  0  0  0  0
  4  5  1  0  0  0  0
  4 17  1  0  0  0  0
  4 31  1  0  0  0  0
  5  6  1  0  0  0  0
  5 32  1  0  0  0  0
  5 33  1  0  0  0  0
  6  7  1  0  0  0  0
  6 34  1  0  0  0  0
  7  8  2  0  0  0  0
  7  9  1  0  0  0  0
  9 10  1  0  0  0  0
  9 35  1  0  0  0  0
 10 15  1  0  0  0  0
 10 11  2  0  0  0  0
 11 12  1  0  0  0  0
 11 36  1  0  0  0  0
 12 13  2  0  0  0  0
 12 37  1  0  0  0  0
 13 14  1  0  0  0  0
 14 15  2  0  0  0  0
 14 38  1  0  0  0  0
 15 16  1  0  0  0  0
 17 23  1  0  0  0  0
 17 18  1  0  0  0  0
 17 50  1  0  0  0  0
 18 19  1  0  0  0  0
 18 39  1  0  0  0  0
 18 40  1  0  0  0  0
 19 20  1  0  0  0  0
 19 41  1  0  0  0  0
 19 42  1  0  0  0  0
 20 21  1  0  0  0  0
 20 22  1  0  0  0  0
 21 43  1  0  0  0  0
 21 44  1  0  0  0  0
 21 45  1  0  0  0  0
 22 23  1  0  0  0  0
 22 46  1  0  0  0  0
 22 47  1  0  0  0  0
 23 48  1  0  0  0  0
 23 49  1  0  0  0  0
M  CHG  1  17   1
M  END
> <s_m_source_file>
AV-unprocessed.smi

> <i_m_source_file_index>
2336

> <i_lp_mmshare_version>
43012

> <i_f3d_flags>
0

> <s_epik_input>
W0NIMl0xW0NIMl1OKFtDSDNdKVtDSDJdW0NIMl1OMVtDQEhdKFtDSF0oW0NIM10pW0NIM10pW0NIMl1bTkhdQyg9TylbTkhdYzJbY0hdW2NIXW5bY0hdYzJG

> <s_epik_cmdline>
J2VwaWtfcHl0aG9uJywgJy1waCcsICc3LjAnLCAnLXRuJywgJzgnLCAnLW1hJywgJzIwMCcsICctbWV0YWxfYmluZGluZycsICctaW1hZScsICc8aW5maWxlLm1hZT4nLCAnLW9tYWUnLCAnPG91dGZpbGUubWFlPic=

> <r_epik_Ionization_Penalty>
0.204575

> <r_epik_Ionization_Penalty_Charging>
0.20006

> <r_epik_Ionization_Penalty_Neutral>
0.00451444

> <r_epik_State_Penalty>
1.43207

> <r_epik_Charging_Adjusted_Penalty>
1.63213

> <i_epik_Tot_Q>
1

> <i_epik_Tot_abs_Q>
1

> <r_epik_Metal_State_Penalty>
1.43277

> <b_epik_Metal_Only>
0

> <s_lp_Force_Field>
OPLS_2005

> <r_lp_Energy>
38.6222

> <b_lp_Chiralities_Consistent>
1

> <s_lp_Variant>
AV-unprocessed.smi:2336-3

> <Gold.Version>
5.8.1

> <Gold.Id.Protein>
6NUR|6NUR_protein|mol2

> <Gold.PLP.Fitness>
43.6889

> <Gold.PLP.PLP>
-35.0482

> <Gold.PLP.part.hbond>
-1.7241

> <Gold.PLP.part.metal>
0.0000

> <Gold.PLP.part.buried>
-2.3965

> <Gold.PLP.part.nonpolar>
-30.9855

> <Gold.PLP.part.repulsive>
0.4273

> <Gold.PLP.ligand.clash>
0.0000

> <Gold.PLP.ligand.torsion>
0.6921

> <Gold.PLP.Chemscore.Hbond>
1.7673

> <Gold.PLP.Chemscore.CHOScore>
1.4036

> <Gold.PLP.Chemscore.Metal>
0.0000

> <Gold.Chemscore.Hbonds>
donor molecule, donor type, donor heavy atom, donor atom, acceptor molecule, acceptor atom, score
      L1  H     6    34       P1  7948  0.85
      L1  H     9    35       P1  7948  0.83
      L1  C    12    37       P1 10186  1.00
      L1  C    14    38       P1 10747  0.57

> <Gold.PLP.Chemscore.Internal.Correction>
0.5121

> <Gold.Rescore>
     Score         DG    S(hbond)    S(metal)    S(lipo)     H(rot)  DE(clash)    DE(int)     intcor
     15.42     -17.83       1.86        0.00      89.02       1.67       0.16       2.25       ----

> <Gold.Chemscore.Fitness>
15.4181

> <Gold.Chemscore.DG>
-17.8274

> <Gold.Chemscore.ZeroCoef>
-5.4800

> <Gold.Chemscore.Hbond>
1.8613

> <Gold.Chemscore.Metal>
0.0000

> <Gold.Chemscore.Lipo>
89.0237

> <Gold.Chemscore.Internal_Hbond>
0.0000

> <Gold.Chemscore.DEClash>
0.1616

> <Gold.Chemscore.DEInternal>
2.2476

> <Gold.Chemscore.Rot>
1.6739

> <Gold.Chemscore.Internal.Correction>
   9.000000E+99

> <Gold.Chemscore.Hbonds>
donor molecule, donor type, donor heavy atom, donor atom, acceptor molecule, acceptor atom, score
      L1  H     6    34       P1  7948  0.85
      L1  H     9    35       P1  7948  0.82

> <Gold.Chemscore.Hbond.Weighted>
-6.2168

> <Gold.Chemscore.Metal.Weighted>
-0.0000

> <Gold.Chemscore.Lipo.Weighted>
-10.4158

> <Gold.Chemscore.Internal_Hbond.Weighted>
0.0000

> <Gold.Chemscore.DEClash.Weighted>
0.1616

> <Gold.Chemscore.DEInternal.Weighted>
2.2476

> <Gold.Chemscore.Rot.Weighted>
4.2851

> <Gold.Chemscore.Internal.Correction.Weighted>
   9.000000E+99

> <Gold.Protein.RotatedTorsions>
[ 6907 6896 6895 6894 ] final -115.42 input  -60.11 | X-H torsion
[ 7974 7965 7964 7962 ] final  173.25 input  175.53 | X-H torsion
[ 8008 7997 7996 7995 ] final   69.70 input   59.86 | X-H torsion
[ 10167 10162 10161 10158 ] final -129.51 input  -65.29 | X-H torsion
[ 10718 10713 10712 10709 ] final   75.75 input   66.30 | X-H torsion
[ 10763 10752 10751 10750 ] final   42.78 input  -60.55 | X-H torsion
[ 11005 11000 10999 10996 ] final -109.37 input  -57.11 | X-H torsion

> <Gold.Protein.ActiveResidues>
 VAL166  LYS551  ARG553  GLY616  TRP617  ASP618  TYR619  PRO620  LYS621  CYS622 
 ASP623  PHE694  ASN695  SER759  ASP760  ASP761  ALA762  ILE779  LEU786  VAL792 
 PHE793  MET794  SER795  GLU796  ALA797  LYS798  CYS799  TRP800  GLU811  SER814 

> <Gold.Protein.RotatedAtoms>
  150.7976  133.8661  159.3245 H   0  0  0  0  0  0  0  0  0  0  0  0  # atno 6907 bound_to 6896
  151.6482  135.1003  160.0165 H   0  0  0  0  0  0  0  0  0  0  0  0  # atno 6908 bound_to 6896
  152.4060  133.6850  159.6392 H   0  0  0  0  0  0  0  0  0  0  0  0  # atno 6909 bound_to 6896
  144.7248  139.9620  143.6435 H   0  0  0  0  0  0  0  0  0  0  0  0  # atno 7974 bound_to 7965
  155.7275  140.3492  155.5044 H   0  0  0  0  0  0  0  0  0  0  0  0  # atno 8008 bound_to 7997
  155.9213  140.1067  157.1226 H   0  0  0  0  0  0  0  0  0  0  0  0  # atno 8009 bound_to 7997
  154.4070  140.1249  156.4669 H   0  0  0  0  0  0  0  0  0  0  0  0  # atno 8010 bound_to 7997
  139.9390  143.6185  152.2509 H   0  0  0  0  0  0  0  0  0  0  0  0  # atno 10167 bound_to 10162
  157.6646  130.9741  150.1398 H   0  0  0  0  0  0  0  0  0  0  0  0  # atno 10718 bound_to 10713
  152.9875  135.6121  154.3004 H   0  0  0  0  0  0  0  0  0  0  0  0  # atno 10763 bound_to 10752
  154.2725  135.2779  155.2734 H   0  0  0  0  0  0  0  0  0  0  0  0  # atno 10764 bound_to 10752
  154.5110  135.5841  153.6661 H   0  0  0  0  0  0  0  0  0  0  0  0  # atno 10765 bound_to 10752
  141.0851  133.9153  157.2203 H   0  0  0  0  0  0  0  0  0  0  0  0  # atno 11005 bound_to 11000
  146.0630  139.3622  143.0570 LP  0  0  0  0  0  0  0  0  0  0  0  0  # atno 17320 bound_to 7965
  145.8068  140.9745  143.0970 LP  0  0  0  0  0  0  0  0  0  0  0  0  # atno 17321 bound_to 7965
  139.6720  144.7660  151.1766 LP  0  0  0  0  0  0  0  0  0  0  0  0  # atno 17342 bound_to 10162
  140.7616  143.5851  150.8854 LP  0  0  0  0  0  0  0  0  0  0  0  0  # atno 17343 bound_to 10162
  156.2223  130.3675  149.8541 LP  0  0  0  0  0  0  0  0  0  0  0  0  # atno 17370 bound_to 10713
  156.6390  130.8697  151.3510 LP  0  0  0  0  0  0  0  0  0  0  0  0  # atno 17371 bound_to 10713
  139.9668  135.0139  156.9409 LP  0  0  0  0  0  0  0  0  0  0  0  0  # atno 17394 bound_to 11000
  140.5381  134.0747  155.7334 LP  0  0  0  0  0  0  0  0  0  0  0  0  # atno 17395 bound_to 11000

$$$$
