AV-unprocessed.smi:2149|AV-procd|sdf|8754|dock1
  -GOLD-   2272011533D 1   1.00000     0.00000
 Structure written by MMmdl.
 43 44  0  0  0  0  0  0  0  0  2 V2000
  150.2413  135.3128  156.2427 C   0  0  0  0  0  0  0  0  0  0  0  0
  148.8417  135.3867  157.4337 S   0  0  0  0  0  0  0  0  0  0  0  0
  147.6011  135.5893  156.6702 O   0  0  0  0  0  0  0  0  0  0  0  0
  148.9577  134.2397  158.3479 O   0  0  0  0  0  0  0  0  0  0  0  0
  149.1407  136.8335  158.3533 N   0  0  0  0  0  0  0  0  0  0  0  0
  148.1160  137.8959  158.4224 C   0  0  0  0  0  0  0  0  0  0  0  0
  148.4595  139.0824  157.5022 C   0  0  0  0  0  0  0  0  0  0  0  0
  149.8773  139.6064  157.7656 C   0  0  0  0  0  0  0  0  0  0  0  0
  150.8848  138.4562  157.6026 C   0  0  1  0  0  0  0  0  0  0  0  0
  152.3271  138.9156  157.8473 C   0  0  0  0  0  0  0  0  0  0  0  0
  153.1571  138.8837  156.9387 O   0  0  0  0  0  0  0  0  0  0  0  0
  152.5977  139.3846  159.0748 N   0  0  0  0  0  0  0  0  0  0  0  0
  153.8487  140.0188  159.4795 C   0  0  0  0  0  0  0  0  0  0  0  0
  153.7336  140.7723  160.8227 C   0  0  0  0  0  0  0  0  0  0  0  0
  153.1060  142.1517  160.6988 C   0  0  0  0  0  0  0  0  0  0  0  0
  152.7780  142.9297  161.8309 C   0  0  0  0  0  0  0  0  0  0  0  0
  152.2334  144.2178  161.6502 C   0  0  0  0  0  0  0  0  0  0  0  0
  152.0197  144.6977  160.3418 C   0  0  0  0  0  0  0  0  0  0  0  0
  152.3551  143.8755  159.2466 C   0  0  0  0  0  0  0  0  0  0  0  0
  152.8792  142.6482  159.4612 N   0  3  0  0  0  0  0  0  0  0  0  0
  150.5249  137.2997  158.5595 C   0  0  0  0  0  0  0  0  0  0  0  0
  150.1141  134.4426  155.5991 H   0  0  0  0  0  0  0  0  0  0  0  0
  151.1832  135.2189  156.7796 H   0  0  0  0  0  0  0  0  0  0  0  0
  150.2500  136.2093  155.6249 H   0  0  0  0  0  0  0  0  0  0  0  0
  147.1345  137.4937  158.1731 H   0  0  0  0  0  0  0  0  0  0  0  0
  148.0530  138.2432  159.4543 H   0  0  0  0  0  0  0  0  0  0  0  0
  148.3683  138.7844  156.4583 H   0  0  0  0  0  0  0  0  0  0  0  0
  147.7361  139.8843  157.6521 H   0  0  0  0  0  0  0  0  0  0  0  0
  150.1071  140.4181  157.0739 H   0  0  0  0  0  0  0  0  0  0  0  0
  149.9317  140.0248  158.7720 H   0  0  0  0  0  0  0  0  0  0  0  0
  150.8190  138.0971  156.5757 H   0  0  0  0  0  0  0  0  0  0  0  0
  151.8590  139.3570  159.7627 H   0  0  0  0  0  0  0  0  0  0  0  0
  154.5877  139.2234  159.5776 H   0  0  0  0  0  0  0  0  0  0  0  0
  154.2140  140.6832  158.6949 H   0  0  0  0  0  0  0  0  0  0  0  0
  153.1576  140.1775  161.5327 H   0  0  0  0  0  0  0  0  0  0  0  0
  154.7258  140.8822  161.2621 H   0  0  0  0  0  0  0  0  0  0  0  0
  152.9565  142.5517  162.8274 H   0  0  0  0  0  0  0  0  0  0  0  0
  151.9876  144.8313  162.5047 H   0  0  0  0  0  0  0  0  0  0  0  0
  151.6054  145.6826  160.1818 H   0  0  0  0  0  0  0  0  0  0  0  0
  152.2251  144.1622  158.2133 H   0  0  0  0  0  0  0  0  0  0  0  0
  150.6228  137.6246  159.5966 H   0  0  0  0  0  0  0  0  0  0  0  0
  151.2179  136.4691  158.4344 H   0  0  0  0  0  0  0  0  0  0  0  0
  153.1211  142.0740  158.6533 H   0  0  0  0  0  0  0  0  0  0  0  0
  1  2  1  0  0  0  0
  1 22  1  0  0  0  0
  1 23  1  0  0  0  0
  1 24  1  0  0  0  0
  2  3  2  0  0  0  0
  2  4  2  0  0  0  0
  2  5  1  0  0  0  0
  5 21  1  0  0  0  0
  5  6  1  0  0  0  0
  6  7  1  0  0  0  0
  6 25  1  0  0  0  0
  6 26  1  0  0  0  0
  7  8  1  0  0  0  0
  7 27  1  0  0  0  0
  7 28  1  0  0  0  0
  8  9  1  0  0  0  0
  8 29  1  0  0  0  0
  8 30  1  0  0  0  0
  9 10  1  0  0  0  0
  9 21  1  0  0  0  0
  9 31  1  0  0  0  0
 10 11  2  0  0  0  0
 10 12  1  0  0  0  0
 12 13  1  0  0  0  0
 12 32  1  0  0  0  0
 13 14  1  0  0  0  0
 13 33  1  0  0  0  0
 13 34  1  0  0  0  0
 14 15  1  0  0  0  0
 14 35  1  0  0  0  0
 14 36  1  0  0  0  0
 15 20  1  0  0  0  0
 15 16  2  0  0  0  0
 16 17  1  0  0  0  0
 16 37  1  0  0  0  0
 17 18  2  0  0  0  0
 17 38  1  0  0  0  0
 18 19  1  0  0  0  0
 18 39  1  0  0  0  0
 19 20  2  0  0  0  0
 19 40  1  0  0  0  0
 20 43  1  0  0  0  0
 21 41  1  0  0  0  0
 21 42  1  0  0  0  0
M  CHG  1  20   1
M  END
> <s_m_source_file>
AV-unprocessed.smi

> <i_m_source_file_index>
2149

> <i_lp_mmshare_version>
43012

> <i_f3d_flags>
0

> <s_epik_input>
W0NIM11TKD1PKSg9TylOMVtDSDJdW0NIMl1bQ0gyXVtDQEhdKFtDSDJdMSlDKD1PKVtOSF1bQ0gyXVtDSDJdYzJbY0hdW2NIXVtjSF1bY0hdbjI=

> <s_epik_cmdline>
J2VwaWtfcHl0aG9uJywgJy1waCcsICc3LjAnLCAnLXRuJywgJzgnLCAnLW1hJywgJzIwMCcsICctbWV0YWxfYmluZGluZycsICctaW1hZScsICc8aW5maWxlLm1hZT4nLCAnLW9tYWUnLCAnPG91dGZpbGUubWFlPic=

> <r_epik_Ionization_Penalty>
1.83523

> <r_epik_Ionization_Penalty_Charging>
1.83523

> <r_epik_Ionization_Penalty_Neutral>
2.62835e-08

> <r_epik_State_Penalty>
1.95153

> <r_epik_Charging_Adjusted_Penalty>
3.78676

> <i_epik_Tot_Q>
1

> <i_epik_Tot_abs_Q>
1

> <r_epik_Metal_State_Penalty>
1.97791

> <b_epik_Metal_Only>
0

> <s_lp_Force_Field>
OPLS_2005

> <r_lp_Energy>
6.48015

> <b_lp_Chiralities_Consistent>
1

> <s_lp_Variant>
AV-unprocessed.smi:2149-3

> <Gold.Version>
5.8.1

> <Gold.Id.Protein>
6NUR|6NUR_protein|mol2

> <Gold.PLP.Fitness>
43.0540

> <Gold.PLP.PLP>
-37.7077

> <Gold.PLP.part.hbond>
-2.0000

> <Gold.PLP.part.metal>
0.0000

> <Gold.PLP.part.buried>
-5.8495

> <Gold.PLP.part.nonpolar>
-30.0205

> <Gold.PLP.part.repulsive>
0.1519

> <Gold.PLP.ligand.clash>
0.0000

> <Gold.PLP.ligand.torsion>
1.3974

> <Gold.PLP.Chemscore.Hbond>
2.0000

> <Gold.PLP.Chemscore.CHOScore>
0.0000

> <Gold.PLP.Chemscore.Metal>
0.0000

> <Gold.Chemscore.Hbonds>
donor molecule, donor type, donor heavy atom, donor atom, acceptor molecule, acceptor atom, score
      P1  H  6896  6907       L1     4  0.89
      P1  H  7997  8009       L1    11  1.00

> <Gold.PLP.Chemscore.Internal.Correction>
2.1410

> <Gold.Rescore>
     Score         DG    S(hbond)    S(metal)    S(lipo)     H(rot)  DE(clash)    DE(int)     intcor
     17.35     -18.79       1.96        0.00      94.03       1.65       0.00       1.43       ----

> <Gold.Chemscore.Fitness>
17.3521

> <Gold.Chemscore.DG>
-18.7879

> <Gold.Chemscore.ZeroCoef>
-5.4800

> <Gold.Chemscore.Hbond>
1.9583

> <Gold.Chemscore.Metal>
0.0000

> <Gold.Chemscore.Lipo>
94.0259

> <Gold.Chemscore.Internal_Hbond>
0.0000

> <Gold.Chemscore.DEClash>
0.0018

> <Gold.Chemscore.DEInternal>
1.4340

> <Gold.Chemscore.Rot>
1.6538

> <Gold.Chemscore.Internal.Correction>
   9.000000E+99

> <Gold.Chemscore.Hbonds>
donor molecule, donor type, donor heavy atom, donor atom, acceptor molecule, acceptor atom, score
      P1  H  6896  6907       L1     4  0.80
      P1  H  7997  8009       L1    11  0.93

> <Gold.Chemscore.Hbond.Weighted>
-6.5406

> <Gold.Chemscore.Metal.Weighted>
-0.0000

> <Gold.Chemscore.Lipo.Weighted>
-11.0010

> <Gold.Chemscore.Internal_Hbond.Weighted>
0.0000

> <Gold.Chemscore.DEClash.Weighted>
0.0018

> <Gold.Chemscore.DEInternal.Weighted>
1.4340

> <Gold.Chemscore.Rot.Weighted>
4.2337

> <Gold.Chemscore.Internal.Correction.Weighted>
   9.000000E+99

> <Gold.Protein.RotatedTorsions>
[ 6907 6896 6895 6894 ] final -118.38 input  -60.11 | X-H torsion
[ 7974 7965 7964 7962 ] final   32.80 input  175.53 | X-H torsion
[ 8008 7997 7996 7995 ] final  160.26 input   59.86 | X-H torsion
[ 10167 10162 10161 10158 ] final   42.75 input  -65.29 | X-H torsion
[ 10718 10713 10712 10709 ] final   71.93 input   66.30 | X-H torsion
[ 10763 10752 10751 10750 ] final  175.36 input  -60.55 | X-H torsion
[ 11005 11000 10999 10996 ] final -112.83 input  -57.11 | X-H torsion

> <Gold.Protein.ActiveResidues>
 VAL166  LYS551  ARG553  GLY616  TRP617  ASP618  TYR619  PRO620  LYS621  CYS622 
 ASP623  PHE694  ASN695  SER759  ASP760  ASP761  ALA762  ILE779  LEU786  VAL792 
 PHE793  MET794  SER795  GLU796  ALA797  LYS798  CYS799  TRP800  GLU811  SER814 

> <Gold.Protein.RotatedAtoms>
  150.8215  133.8245  159.3136 H   0  0  0  0  0  0  0  0  0  0  0  0  # atno 6907 bound_to 6896
  151.6001  135.1046  160.0068 H   0  0  0  0  0  0  0  0  0  0  0  0  # atno 6908 bound_to 6896
  152.4304  133.7226  159.6598 H   0  0  0  0  0  0  0  0  0  0  0  0  # atno 6909 bound_to 6896
  146.1463  139.6479  142.9129 H   0  0  0  0  0  0  0  0  0  0  0  0  # atno 7974 bound_to 7965
  156.2184  140.1809  156.7534 H   0  0  0  0  0  0  0  0  0  0  0  0  # atno 8008 bound_to 7997
  154.5827  140.0663  156.9156 H   0  0  0  0  0  0  0  0  0  0  0  0  # atno 8009 bound_to 7997
  155.2473  140.3326  155.4288 H   0  0  0  0  0  0  0  0  0  0  0  0  # atno 8010 bound_to 7997
  140.3513  144.2346  150.6145 H   0  0  0  0  0  0  0  0  0  0  0  0  # atno 10167 bound_to 10162
  157.6476  130.9553  150.0858 H   0  0  0  0  0  0  0  0  0  0  0  0  # atno 10718 bound_to 10713
  154.4665  135.2769  155.1674 H   0  0  0  0  0  0  0  0  0  0  0  0  # atno 10763 bound_to 10752
  154.3441  135.6164  153.5614 H   0  0  0  0  0  0  0  0  0  0  0  0  # atno 10764 bound_to 10752
  152.9860  135.5795  154.5037 H   0  0  0  0  0  0  0  0  0  0  0  0  # atno 10765 bound_to 10752
  141.0651  133.9472  157.2594 H   0  0  0  0  0  0  0  0  0  0  0  0  # atno 11005 bound_to 11000
  145.4930  141.0438  143.2582 LP  0  0  0  0  0  0  0  0  0  0  0  0  # atno 17320 bound_to 7965
  144.7850  139.6446  143.7138 LP  0  0  0  0  0  0  0  0  0  0  0  0  # atno 17321 bound_to 7965
  140.5216  143.2264  151.8380 LP  0  0  0  0  0  0  0  0  0  0  0  0  # atno 17342 bound_to 10162
  139.4826  144.4830  151.9283 LP  0  0  0  0  0  0  0  0  0  0  0  0  # atno 17343 bound_to 10162
  156.1821  130.3650  149.9021 LP  0  0  0  0  0  0  0  0  0  0  0  0  # atno 17370 bound_to 10713
  156.6971  130.8918  151.3595 LP  0  0  0  0  0  0  0  0  0  0  0  0  # atno 17371 bound_to 10713
  139.9469  135.0182  156.8878 LP  0  0  0  0  0  0  0  0  0  0  0  0  # atno 17394 bound_to 11000
  140.5789  134.0371  155.7457 LP  0  0  0  0  0  0  0  0  0  0  0  0  # atno 17395 bound_to 11000

$$$$
