AV-unprocessed.smi:2069|AV-procd|sdf|8433|dock5
  -GOLD-   2272011133D 1   1.00000     0.00000
 Structure written by MMmdl.
 39 40  0  0  0  0  0  0  0  0  2 V2000
  141.3817  133.6793  152.7250 C   0  0  0  0  0  0  0  0  0  0  0  0
  141.8987  134.9491  153.3100 C   0  0  0  0  0  0  0  0  0  0  0  0
  141.3903  135.4963  154.4208 N   0  0  0  0  0  0  0  0  0  0  0  0
  142.0362  136.6737  154.7703 N   0  0  0  0  0  0  0  0  0  0  0  0
  143.0167  136.9805  153.9100 C   0  0  0  0  0  0  0  0  0  0  0  0
  143.8402  138.1312  154.0303 N   0  0  0  0  0  0  0  0  0  0  0  0
  144.9658  138.2767  154.7513 C   0  0  0  0  0  0  0  0  0  0  0  0
  145.4738  137.4089  155.4618 O   0  0  0  0  0  0  0  0  0  0  0  0
  145.4891  139.5021  154.5950 N   0  0  0  0  0  0  0  0  0  0  0  0
  146.7055  139.9907  155.2415 C   0  0  0  0  0  0  0  0  0  0  0  0
  146.9225  141.5178  155.0663 C   0  0  2  0  0  0  0  0  0  0  0  0
  147.0333  141.8919  153.5671 C   0  0  0  0  0  0  0  0  0  0  0  0
  148.1029  141.9652  155.8785 N   0  3  0  0  0  0  0  0  0  0  0  0
  148.0002  141.7380  157.3471 C   0  0  0  0  0  0  0  0  0  0  0  0
  149.2454  142.2662  158.0803 C   0  0  0  0  0  0  0  0  0  0  0  0
  150.4134  141.6559  157.5529 O   0  0  0  0  0  0  0  0  0  0  0  0
  150.5814  141.9601  156.1765 C   0  0  0  0  0  0  0  0  0  0  0  0
  149.3892  141.4048  155.3805 C   0  0  0  0  0  0  0  0  0  0  0  0
  143.2320  135.8433  152.5902 S   0  0  0  0  0  0  0  0  0  0  0  0
  140.4598  133.3741  153.2212 H   0  0  0  0  0  0  0  0  0  0  0  0
  142.1212  132.8873  152.8431 H   0  0  0  0  0  0  0  0  0  0  0  0
  141.1774  133.8133  151.6628 H   0  0  0  0  0  0  0  0  0  0  0  0
  143.5409  138.9338  153.4965 H   0  0  0  0  0  0  0  0  0  0  0  0
  145.0046  140.1500  153.9908 H   0  0  0  0  0  0  0  0  0  0  0  0
  146.6037  139.7268  156.2922 H   0  0  0  0  0  0  0  0  0  0  0  0
  147.5820  139.4476  154.8836 H   0  0  0  0  0  0  0  0  0  0  0  0
  146.0423  142.0366  155.4497 H   0  0  0  0  0  0  0  0  0  0  0  0
  146.1617  141.5639  153.0025 H   0  0  0  0  0  0  0  0  0  0  0  0
  147.9115  141.4379  153.1067 H   0  0  0  0  0  0  0  0  0  0  0  0
  147.0820  142.9697  153.4129 H   0  0  0  0  0  0  0  0  0  0  0  0
  147.1375  142.2579  157.7625 H   0  0  0  0  0  0  0  0  0  0  0  0
  147.8715  140.6728  157.5458 H   0  0  0  0  0  0  0  0  0  0  0  0
  149.3163  143.3517  157.9941 H   0  0  0  0  0  0  0  0  0  0  0  0
  149.1786  142.0373  159.1442 H   0  0  0  0  0  0  0  0  0  0  0  0
  150.6800  143.0376  156.0347 H   0  0  0  0  0  0  0  0  0  0  0  0
  151.5093  141.5070  155.8273 H   0  0  0  0  0  0  0  0  0  0  0  0
  149.3681  140.3168  155.4618 H   0  0  0  0  0  0  0  0  0  0  0  0
  149.5428  141.6389  154.3291 H   0  0  0  0  0  0  0  0  0  0  0  0
  148.1557  142.9674  155.7629 H   0  0  0  0  0  0  0  0  0  0  0  0
  1  2  1  0  0  0  0
  1 20  1  0  0  0  0
  1 21  1  0  0  0  0
  1 22  1  0  0  0  0
  2 19  1  0  0  0  0
  2  3  2  0  0  0  0
  3  4  1  0  0  0  0
  4  5  2  0  0  0  0
  5  6  1  0  0  0  0
  5 19  1  0  0  0  0
  6  7  1  0  0  0  0
  6 23  1  0  0  0  0
  7  8  2  0  0  0  0
  7  9  1  0  0  0  0
  9 10  1  0  0  0  0
  9 24  1  0  0  0  0
 10 11  1  0  0  0  0
 10 25  1  0  0  0  0
 10 26  1  0  0  0  0
 11 12  1  0  0  0  0
 11 13  1  0  0  0  0
 11 27  1  0  0  0  0
 12 28  1  0  0  0  0
 12 29  1  0  0  0  0
 12 30  1  0  0  0  0
 13 18  1  0  0  0  0
 13 14  1  0  0  0  0
 13 39  1  0  0  0  0
 14 15  1  0  0  0  0
 14 31  1  0  0  0  0
 14 32  1  0  0  0  0
 15 16  1  0  0  0  0
 15 33  1  0  0  0  0
 15 34  1  0  0  0  0
 16 17  1  0  0  0  0
 17 18  1  0  0  0  0
 17 35  1  0  0  0  0
 17 36  1  0  0  0  0
 18 37  1  0  0  0  0
 18 38  1  0  0  0  0
M  CHG  1  13   1
M  END
> <s_m_source_file>
AV-unprocessed.smi

> <i_m_source_file_index>
2069

> <i_lp_mmshare_version>
43012

> <i_f3d_flags>
0

> <s_epik_input>
W0NIM11jMW5uYyhzMSlbTkhdQyg9TylbTkhdW0NIMl1bQ0BIXShbQ0gzXSlOMltDSDJdW0NIMl1PW0NIMl1bQ0gyXTI=

> <s_epik_cmdline>
J2VwaWtfcHl0aG9uJywgJy1waCcsICc3LjAnLCAnLXRuJywgJzgnLCAnLW1hJywgJzIwMCcsICctbWV0YWxfYmluZGluZycsICctaW1hZScsICc8aW5maWxlLm1hZT4nLCAnLW9tYWUnLCAnPG91dGZpbGUubWFlPic=

> <r_lp_tautomer_probability>
1

> <r_epik_Ionization_Penalty>
0.70016

> <r_epik_Ionization_Penalty_Charging>
0.695697

> <r_epik_Ionization_Penalty_Neutral>
0.00446266

> <r_epik_State_Penalty>
0.717972

> <r_epik_Charging_Adjusted_Penalty>
1.41367

> <i_epik_Tot_Q>
1

> <i_epik_Tot_abs_Q>
1

> <r_epik_Metal_State_Penalty>
1.06969

> <b_epik_Metal_Only>
0

> <s_lp_Force_Field>
OPLS_2005

> <r_lp_Energy>
19.5762

> <b_lp_Chiralities_Consistent>
1

> <s_lp_Variant>
AV-unprocessed.smi:2069-3

> <Gold.Version>
5.8.1

> <Gold.Id.Protein>
6NUR|6NUR_protein|mol2

> <Gold.PLP.Fitness>
37.3998

> <Gold.PLP.PLP>
-25.2988

> <Gold.PLP.part.hbond>
-4.0000

> <Gold.PLP.part.metal>
0.0000

> <Gold.PLP.part.buried>
-3.8907

> <Gold.PLP.part.nonpolar>
-18.3655

> <Gold.PLP.part.repulsive>
0.2276

> <Gold.PLP.ligand.clash>
0.0000

> <Gold.PLP.ligand.torsion>
0.8222

> <Gold.PLP.Chemscore.Hbond>
4.5622

> <Gold.PLP.Chemscore.CHOScore>
0.0000

> <Gold.PLP.Chemscore.Metal>
0.0000

> <Gold.Chemscore.Hbonds>
donor molecule, donor type, donor heavy atom, donor atom, acceptor molecule, acceptor atom, score
      L1  H     6    23       P1 10175  1.00
      L1  H     9    24       P1 10175  0.98
      L1  H    13    39       P1  8028  2.00
      P1  H 11000 11005       L1     3  0.59

> <Gold.PLP.Chemscore.Internal.Correction>
0.0589

> <Gold.Rescore>
     Score         DG    S(hbond)    S(metal)    S(lipo)     H(rot)  DE(clash)    DE(int)     intcor
     18.20     -19.23       3.48        0.00      54.13       1.65       0.26       0.78       ----

> <Gold.Chemscore.Fitness>
18.1953

> <Gold.Chemscore.DG>
-19.2316

> <Gold.Chemscore.ZeroCoef>
-5.4800

> <Gold.Chemscore.Hbond>
3.4838

> <Gold.Chemscore.Metal>
0.0000

> <Gold.Chemscore.Lipo>
54.1318

> <Gold.Chemscore.Internal_Hbond>
0.0000

> <Gold.Chemscore.DEClash>
0.2596

> <Gold.Chemscore.DEInternal>
0.7766

> <Gold.Chemscore.Rot>
1.6476

> <Gold.Chemscore.Internal.Correction>
   9.000000E+99

> <Gold.Chemscore.Hbonds>
donor molecule, donor type, donor heavy atom, donor atom, acceptor molecule, acceptor atom, score
      L1  H     6    23       P1 10175  1.00
      L1  H     9    24       P1 10175  0.87
      L1  H    13    39       P1  8028  0.88
      P1  H 11000 11005       L1     3  0.50

> <Gold.Chemscore.Hbond.Weighted>
-11.6360

> <Gold.Chemscore.Metal.Weighted>
-0.0000

> <Gold.Chemscore.Lipo.Weighted>
-6.3334

> <Gold.Chemscore.Internal_Hbond.Weighted>
0.0000

> <Gold.Chemscore.DEClash.Weighted>
0.2596

> <Gold.Chemscore.DEInternal.Weighted>
0.7766

> <Gold.Chemscore.Rot.Weighted>
4.2179

> <Gold.Chemscore.Internal.Correction.Weighted>
   9.000000E+99

> <Gold.Protein.RotatedTorsions>
[ 6907 6896 6895 6894 ] final   90.53 input  -60.11 | X-H torsion
[ 7974 7965 7964 7962 ] final    7.48 input  175.53 | X-H torsion
[ 8008 7997 7996 7995 ] final   83.87 input   59.86 | X-H torsion
[ 10167 10162 10161 10158 ] final   -5.46 input  -65.29 | X-H torsion
[ 10718 10713 10712 10709 ] final -164.11 input   66.30 | X-H torsion
[ 10763 10752 10751 10750 ] final    7.30 input  -60.55 | X-H torsion
[ 11005 11000 10999 10996 ] final   13.23 input  -57.11 | X-H torsion

> <Gold.Protein.ActiveResidues>
 VAL166  LYS551  ARG553  GLY616  TRP617  ASP618  TYR619  PRO620  LYS621  CYS622 
 ASP623  PHE694  ASN695  SER759  ASP760  ASP761  ALA762  ILE779  LEU786  VAL792 
 PHE793  MET794  SER795  GLU796  ALA797  LYS798  CYS799  TRP800  GLU811  SER814 

> <Gold.Protein.RotatedAtoms>
  152.5445  134.1796  159.8629 H   0  0  0  0  0  0  0  0  0  0  0  0  # atno 6907 bound_to 6896
  151.1800  133.4724  159.2601 H   0  0  0  0  0  0  0  0  0  0  0  0  # atno 6908 bound_to 6896
  151.1188  135.0079  159.8584 H   0  0  0  0  0  0  0  0  0  0  0  0  # atno 6909 bound_to 6896
  146.2426  140.0076  142.8410 H   0  0  0  0  0  0  0  0  0  0  0  0  # atno 7974 bound_to 7965
  155.9296  140.3416  155.6238 H   0  0  0  0  0  0  0  0  0  0  0  0  # atno 8008 bound_to 7997
  155.7174  140.0779  157.2364 H   0  0  0  0  0  0  0  0  0  0  0  0  # atno 8009 bound_to 7997
  154.4083  140.1612  156.2351 H   0  0  0  0  0  0  0  0  0  0  0  0  # atno 8010 bound_to 7997
  140.6964  143.6306  150.8526 H   0  0  0  0  0  0  0  0  0  0  0  0  # atno 10167 bound_to 10162
  156.6344  130.8943  151.2984 H   0  0  0  0  0  0  0  0  0  0  0  0  # atno 10718 bound_to 10713
  153.2379  135.6900  153.7816 H   0  0  0  0  0  0  0  0  0  0  0  0  # atno 10763 bound_to 10752
  153.6956  135.3305  155.3213 H   0  0  0  0  0  0  0  0  0  0  0  0  # atno 10764 bound_to 10752
  154.8343  135.4555  154.1289 H   0  0  0  0  0  0  0  0  0  0  0  0  # atno 10765 bound_to 10752
  140.4830  134.0916  155.7755 H   0  0  0  0  0  0  0  0  0  0  0  0  # atno 11005 bound_to 11000
  145.1357  140.9543  143.4518 LP  0  0  0  0  0  0  0  0  0  0  0  0  # atno 17320 bound_to 7965
  145.0344  139.3313  143.6008 LP  0  0  0  0  0  0  0  0  0  0  0  0  # atno 17321 bound_to 7965
  140.0024  143.5729  152.2870 LP  0  0  0  0  0  0  0  0  0  0  0  0  # atno 17342 bound_to 10162
  139.6424  144.7655  151.2312 LP  0  0  0  0  0  0  0  0  0  0  0  0  # atno 17343 bound_to 10162
  157.7190  130.9534  150.1365 LP  0  0  0  0  0  0  0  0  0  0  0  0  # atno 17370 bound_to 10713
  156.2209  130.3674  149.8557 LP  0  0  0  0  0  0  0  0  0  0  0  0  # atno 17371 bound_to 10713
  141.1522  133.8949  157.2070 LP  0  0  0  0  0  0  0  0  0  0  0  0  # atno 17394 bound_to 11000
  139.9815  135.0096  156.9760 LP  0  0  0  0  0  0  0  0  0  0  0  0  # atno 17395 bound_to 11000

$$$$
