AV-unprocessed.smi:2213|AV-procd|sdf|8957|dock1
  -GOLD-   2272012173D 1   1.00000     0.00000
 Structure written by MMmdl.
 38 39  0  0  0  0  0  0  0  0  1 V2000
  144.7838  144.0954  156.5257 C   0  0  0  0  0  0  0  0  0  0  0  0
  145.7007  142.9863  156.0414 C   0  0  0  0  0  0  0  0  0  0  0  0
  146.2026  142.1403  157.0348 N   0  0  0  0  0  0  0  0  0  0  0  0
  146.9922  141.1677  156.7150 C   0  0  0  0  0  0  0  0  0  0  0  0
  147.3642  140.9273  155.3823 N   0  0  0  0  0  0  0  0  0  0  0  0
  148.2680  139.7881  155.1529 C   0  0  0  0  0  0  0  0  0  0  0  0
  149.7128  140.2432  154.8467 C   0  0  1  0  0  0  0  0  0  0  0  0
  149.7882  140.8064  153.5527 O   0  0  0  0  0  0  0  0  0  0  0  0
  150.2390  141.2904  155.8424 C   0  0  0  0  0  0  0  0  0  0  0  0
  151.0716  140.6583  156.8069 O   0  0  0  0  0  0  0  0  0  0  0  0
  151.7307  141.4457  157.7272 C   0  0  0  0  0  0  0  0  0  0  0  0
  151.6462  142.8611  157.7621 C   0  0  0  0  0  0  0  0  0  0  0  0
  152.3513  143.5957  158.7354 C   0  0  0  0  0  0  0  0  0  0  0  0
  152.2385  145.3170  158.7650 Cl  0  0  0  0  0  0  0  0  0  0  0  0
  153.1474  142.9280  159.6842 C   0  0  0  0  0  0  0  0  0  0  0  0
  153.2377  141.5245  159.6584 C   0  0  0  0  0  0  0  0  0  0  0  0
  152.5337  140.7880  158.6857 C   0  0  0  0  0  0  0  0  0  0  0  0
  152.6630  139.0654  158.6743 Cl  0  0  0  0  0  0  0  0  0  0  0  0
  146.9305  141.7118  154.3536 C   0  0  0  0  0  0  0  0  0  0  0  0
  147.2806  141.5041  153.1901 O   0  0  0  0  0  0  0  0  0  0  0  0
  146.0287  142.8117  154.7320 C   0  0  0  0  0  0  0  0  0  0  0  0
  145.5146  143.7021  153.6076 C   0  0  0  0  0  0  0  0  0  0  0  0
  143.7980  144.0043  156.0690 H   0  0  0  0  0  0  0  0  0  0  0  0
  145.1983  145.0711  156.2705 H   0  0  0  0  0  0  0  0  0  0  0  0
  144.6552  144.0605  157.6084 H   0  0  0  0  0  0  0  0  0  0  0  0
  147.4167  140.4838  157.4521 H   0  0  0  0  0  0  0  0  0  0  0  0
  148.2573  139.0807  155.9850 H   0  0  0  0  0  0  0  0  0  0  0  0
  147.8857  139.2113  154.3085 H   0  0  0  0  0  0  0  0  0  0  0  0
  150.3923  139.3903  154.8709 H   0  0  0  0  0  0  0  0  0  0  0  0
  149.3554  140.2235  152.9476 H   0  0  0  0  0  0  0  0  0  0  0  0
  150.8269  142.0277  155.2935 H   0  0  0  0  0  0  0  0  0  0  0  0
  149.4097  141.8157  156.3199 H   0  0  0  0  0  0  0  0  0  0  0  0
  151.0452  143.4075  157.0514 H   0  0  0  0  0  0  0  0  0  0  0  0
  153.6884  143.4900  160.4313 H   0  0  0  0  0  0  0  0  0  0  0  0
  153.8490  141.0122  160.3868 H   0  0  0  0  0  0  0  0  0  0  0  0
  146.3490  144.1913  153.1043 H   0  0  0  0  0  0  0  0  0  0  0  0
  144.8363  144.4810  153.9521 H   0  0  0  0  0  0  0  0  0  0  0  0
  144.9776  143.1047  152.8699 H   0  0  0  0  0  0  0  0  0  0  0  0
  1  2  1  0  0  0  0
  1 23  1  0  0  0  0
  1 24  1  0  0  0  0
  1 25  1  0  0  0  0
  2 21  2  0  0  0  0
  2  3  1  0  0  0  0
  3  4  2  0  0  0  0
  4  5  1  0  0  0  0
  4 26  1  0  0  0  0
  5  6  1  0  0  0  0
  5 19  1  0  0  0  0
  6  7  1  0  0  0  0
  6 27  1  0  0  0  0
  6 28  1  0  0  0  0
  7  8  1  0  0  0  0
  7  9  1  0  0  0  0
  7 29  1  0  0  0  0
  8 30  1  0  0  0  0
  9 10  1  0  0  0  0
  9 31  1  0  0  0  0
  9 32  1  0  0  0  0
 10 11  1  0  0  0  0
 11 17  1  0  0  0  0
 11 12  2  0  0  0  0
 12 13  1  0  0  0  0
 12 33  1  0  0  0  0
 13 14  1  0  0  0  0
 13 15  2  0  0  0  0
 15 16  1  0  0  0  0
 15 34  1  0  0  0  0
 16 17  2  0  0  0  0
 16 35  1  0  0  0  0
 17 18  1  0  0  0  0
 19 20  2  0  0  0  0
 19 21  1  0  0  0  0
 21 22  1  0  0  0  0
 22 36  1  0  0  0  0
 22 37  1  0  0  0  0
 22 38  1  0  0  0  0
M  END
> <s_m_source_file>
AV-unprocessed.smi

> <i_m_source_file_index>
2213

> <i_lp_mmshare_version>
43012

> <i_f3d_flags>
0

> <s_epik_input>
W0NIM11jMW5bY0hdbihjKD1PKWMxW0NIM10pW0NIMl1bQ0BIXShbT0hdKVtDSDJdT2MyW2NIXWMoQ2wpW2NIXVtjSF1jMkNs

> <s_epik_cmdline>
J2VwaWtfcHl0aG9uJywgJy1waCcsICc3LjAnLCAnLXRuJywgJzgnLCAnLW1hJywgJzIwMCcsICctbWV0YWxfYmluZGluZycsICctaW1hZScsICc8aW5maWxlLm1hZT4nLCAnLW9tYWUnLCAnPG91dGZpbGUubWFlPic=

> <r_lp_tautomer_probability>
1

> <r_epik_Ionization_Penalty>
3.50205e-05

> <r_epik_Ionization_Penalty_Charging>
7.87908e-08

> <r_epik_Ionization_Penalty_Neutral>
3.49418e-05

> <r_epik_State_Penalty>
-0

> <r_epik_Charging_Adjusted_Penalty>
7.87908e-08

> <i_epik_Tot_Q>
0

> <i_epik_Tot_abs_Q>
0

> <r_epik_Metal_State_Penalty>
-0

> <b_epik_Metal_Only>
0

> <s_lp_Force_Field>
OPLS_2005

> <r_lp_Energy>
23.8454

> <b_lp_Chiralities_Consistent>
1

> <s_lp_Variant>
AV-unprocessed.smi:2213-2

> <Gold.Version>
5.8.1

> <Gold.Id.Protein>
6NUR|6NUR_protein|mol2

> <Gold.PLP.Fitness>
48.2364

> <Gold.PLP.PLP>
-44.5800

> <Gold.PLP.part.hbond>
-2.7266

> <Gold.PLP.part.metal>
0.0000

> <Gold.PLP.part.buried>
-3.8868

> <Gold.PLP.part.nonpolar>
-37.6102

> <Gold.PLP.part.repulsive>
0.3051

> <Gold.PLP.ligand.clash>
0.0000

> <Gold.PLP.ligand.torsion>
0.8329

> <Gold.PLP.Chemscore.Hbond>
1.7580

> <Gold.PLP.Chemscore.CHOScore>
0.0000

> <Gold.PLP.Chemscore.Metal>
0.0000

> <Gold.Chemscore.Hbonds>
donor molecule, donor type, donor heavy atom, donor atom, acceptor molecule, acceptor atom, score
      L1  H     8    30       P1  7957  0.58
      P1  H  7989  7998       L1     8  0.31
      P1  H  8011  8017       L1     8  0.80

> <Gold.PLP.Chemscore.Internal.Correction>
0.0482

> <Gold.Rescore>
     Score         DG    S(hbond)    S(metal)    S(lipo)     H(rot)  DE(clash)    DE(int)     intcor
     13.45     -16.47       0.89        0.00     120.61       2.38       0.47       2.54       ----

> <Gold.Chemscore.Fitness>
13.4486

> <Gold.Chemscore.DG>
-16.4653

> <Gold.Chemscore.ZeroCoef>
-5.4800

> <Gold.Chemscore.Hbond>
0.8904

> <Gold.Chemscore.Metal>
0.0000

> <Gold.Chemscore.Lipo>
120.6075

> <Gold.Chemscore.Internal_Hbond>
0.0000

> <Gold.Chemscore.DEClash>
0.4749

> <Gold.Chemscore.DEInternal>
2.5419

> <Gold.Chemscore.Rot>
2.3826

> <Gold.Chemscore.Internal.Correction>
   9.000000E+99

> <Gold.Chemscore.Hbonds>
donor molecule, donor type, donor heavy atom, donor atom, acceptor molecule, acceptor atom, score
      L1  H     8    30       P1  7957  0.58
      P1  H  7989  7998       L1     8  0.05
      P1  H  8011  8017       L1     8  0.11

> <Gold.Chemscore.Hbond.Weighted>
-2.9738

> <Gold.Chemscore.Metal.Weighted>
-0.0000

> <Gold.Chemscore.Lipo.Weighted>
-14.1111

> <Gold.Chemscore.Internal_Hbond.Weighted>
0.0000

> <Gold.Chemscore.DEClash.Weighted>
0.4749

> <Gold.Chemscore.DEInternal.Weighted>
2.5419

> <Gold.Chemscore.Rot.Weighted>
6.0996

> <Gold.Chemscore.Internal.Correction.Weighted>
   9.000000E+99

> <Gold.Protein.RotatedTorsions>
[ 6907 6896 6895 6894 ] final  129.84 input  -60.11 | X-H torsion
[ 7974 7965 7964 7962 ] final  -78.97 input  175.53 | X-H torsion
[ 8008 7997 7996 7995 ] final  -69.12 input   59.86 | X-H torsion
[ 10167 10162 10161 10158 ] final  -59.69 input  -65.29 | X-H torsion
[ 10718 10713 10712 10709 ] final -135.67 input   66.30 | X-H torsion
[ 10763 10752 10751 10750 ] final   91.87 input  -60.55 | X-H torsion
[ 11005 11000 10999 10996 ] final   86.89 input  -57.11 | X-H torsion

> <Gold.Protein.ActiveResidues>
 VAL166  LYS551  ARG553  GLY616  TRP617  ASP618  TYR619  PRO620  LYS621  CYS622 
 ASP623  PHE694  ASN695  SER759  ASP760  ASP761  ALA762  ILE779  LEU786  VAL792 
 PHE793  MET794  SER795  GLU796  ALA797  LYS798  CYS799  TRP800  GLU811  SER814 

> <Gold.Protein.RotatedAtoms>
  152.3585  133.6267  159.5997 H   0  0  0  0  0  0  0  0  0  0  0  0  # atno 6907 bound_to 6896
  150.7585  133.9461  159.3480 H   0  0  0  0  0  0  0  0  0  0  0  0  # atno 6908 bound_to 6896
  151.7303  135.0877  160.0350 H   0  0  0  0  0  0  0  0  0  0  0  0  # atno 6909 bound_to 6896
  145.5794  140.9451  143.1352 H   0  0  0  0  0  0  0  0  0  0  0  0  # atno 7974 bound_to 7965
  154.4916  140.0859  156.7606 H   0  0  0  0  0  0  0  0  0  0  0  0  # atno 8008 bound_to 7997
  155.4217  140.3446  155.4254 H   0  0  0  0  0  0  0  0  0  0  0  0  # atno 8009 bound_to 7997
  156.1337  140.1509  156.9015 H   0  0  0  0  0  0  0  0  0  0  0  0  # atno 8010 bound_to 7997
  140.6119  143.2390  151.5689 H   0  0  0  0  0  0  0  0  0  0  0  0  # atno 10167 bound_to 10162
  156.2686  130.7252  151.1212 H   0  0  0  0  0  0  0  0  0  0  0  0  # atno 10718 bound_to 10713
  153.2130  135.4382  155.0402 H   0  0  0  0  0  0  0  0  0  0  0  0  # atno 10763 bound_to 10752
  154.8210  135.3337  154.7040 H   0  0  0  0  0  0  0  0  0  0  0  0  # atno 10764 bound_to 10752
  153.7477  135.7000  153.5008 H   0  0  0  0  0  0  0  0  0  0  0  0  # atno 10765 bound_to 10752
  139.8933  134.8386  156.2784 H   0  0  0  0  0  0  0  0  0  0  0  0  # atno 11005 bound_to 11000
  144.7401  139.7474  143.7314 LP  0  0  0  0  0  0  0  0  0  0  0  0  # atno 17320 bound_to 7965
  146.1727  139.4884  142.9917 LP  0  0  0  0  0  0  0  0  0  0  0  0  # atno 17321 bound_to 7965
  139.5368  144.2759  152.1268 LP  0  0  0  0  0  0  0  0  0  0  0  0  # atno 17342 bound_to 10162
  140.1960  144.4705  150.6455 LP  0  0  0  0  0  0  0  0  0  0  0  0  # atno 17343 bound_to 10162
  157.7276  131.0638  150.5857 LP  0  0  0  0  0  0  0  0  0  0  0  0  # atno 17370 bound_to 10713
  156.5952  130.4340  149.5920 LP  0  0  0  0  0  0  0  0  0  0  0  0  # atno 17371 bound_to 10713
  141.0055  133.7126  156.1028 LP  0  0  0  0  0  0  0  0  0  0  0  0  # atno 17394 bound_to 11000
  140.7439  134.4119  157.5551 LP  0  0  0  0  0  0  0  0  0  0  0  0  # atno 17395 bound_to 11000

$$$$
