AV-unprocessed.smi:3112|AV-procd|sdf|11841|dock4
  -GOLD-   2272017213D 1   1.00000     0.00000
 Structure written by MMmdl.
 37 37  0  0  0  0  0  0  0  0  2 V2000
  145.1939  135.0756  150.7236 C   0  0  0  0  0  0  0  0  0  0  0  0
  145.2734  136.2543  151.7037 C   0  0  0  0  0  0  0  0  0  0  0  0
  146.4640  137.1935  151.4379 C   0  0  1  0  0  0  0  0  0  0  0  0
  146.4275  137.6091  150.0863 O   0  0  0  0  0  0  0  0  0  0  0  0
  146.4266  138.4423  152.3343 C   0  0  0  0  0  0  0  0  0  0  0  0
  147.7829  138.8007  152.8005 N   0  3  0  0  0  0  0  0  0  0  0  0
  147.8534  139.4071  154.1510 C   0  0  2  0  0  0  0  0  0  0  0  0
  146.6059  140.2764  154.3990 C   0  0  0  0  0  0  0  0  0  0  0  0
  149.1761  140.2040  154.2996 C   0  0  1  0  0  0  0  0  0  0  0  0
  149.1876  141.1590  155.5083 C   0  0  0  0  0  0  0  0  0  0  0  0
  150.3177  139.2982  154.3758 N   0  0  0  0  0  0  0  0  0  0  0  0
  150.3563  137.9323  154.1735 C   0  0  0  0  0  0  0  0  0  0  0  0
  151.6544  137.5343  154.3158 C   0  0  0  0  0  0  0  0  0  0  0  0
  152.3496  138.7425  154.5987 C   0  0  0  0  0  0  0  0  0  0  0  0
  151.5493  139.7961  154.6234 N   0  0  0  0  0  0  0  0  0  0  0  0
  144.3581  134.4216  150.9730 H   0  0  0  0  0  0  0  0  0  0  0  0
  146.1041  134.4759  150.7534 H   0  0  0  0  0  0  0  0  0  0  0  0
  145.0505  135.4171  149.6983 H   0  0  0  0  0  0  0  0  0  0  0  0
  144.3393  136.8171  151.6770 H   0  0  0  0  0  0  0  0  0  0  0  0
  145.3551  135.8508  152.7137 H   0  0  0  0  0  0  0  0  0  0  0  0
  147.3944  136.6509  151.6128 H   0  0  0  0  0  0  0  0  0  0  0  0
  145.6884  138.1862  149.9663 H   0  0  0  0  0  0  0  0  0  0  0  0
  145.9693  139.2783  151.8043 H   0  0  0  0  0  0  0  0  0  0  0  0
  145.8075  138.2423  153.2098 H   0  0  0  0  0  0  0  0  0  0  0  0
  148.3234  137.9471  152.8249 H   0  0  0  0  0  0  0  0  0  0  0  0
  147.8651  138.6015  154.8872 H   0  0  0  0  0  0  0  0  0  0  0  0
  146.5817  140.6651  155.4166 H   0  0  0  0  0  0  0  0  0  0  0  0
  145.6856  139.7084  154.2640 H   0  0  0  0  0  0  0  0  0  0  0  0
  146.5729  141.1259  153.7160 H   0  0  0  0  0  0  0  0  0  0  0  0
  149.3044  140.8187  153.4062 H   0  0  0  0  0  0  0  0  0  0  0  0
  148.4641  141.9654  155.3914 H   0  0  0  0  0  0  0  0  0  0  0  0
  150.1654  141.6276  155.6256 H   0  0  0  0  0  0  0  0  0  0  0  0
  148.9568  140.6356  156.4365 H   0  0  0  0  0  0  0  0  0  0  0  0
  149.4674  137.3622  153.9468 H   0  0  0  0  0  0  0  0  0  0  0  0
  152.0485  136.5326  154.2290 H   0  0  0  0  0  0  0  0  0  0  0  0
  153.4048  138.8857  154.7794 H   0  0  0  0  0  0  0  0  0  0  0  0
  148.2122  139.4260  152.1330 H   0  0  0  0  0  0  0  0  0  0  0  0
  1  2  1  0  0  0  0
  1 16  1  0  0  0  0
  1 17  1  0  0  0  0
  1 18  1  0  0  0  0
  2  3  1  0  0  0  0
  2 19  1  0  0  0  0
  2 20  1  0  0  0  0
  3  4  1  0  0  0  0
  3  5  1  0  0  0  0
  3 21  1  0  0  0  0
  4 22  1  0  0  0  0
  5  6  1  0  0  0  0
  5 23  1  0  0  0  0
  5 24  1  0  0  0  0
  6  7  1  0  0  0  0
  6 25  1  0  0  0  0
  6 37  1  0  0  0  0
  7  8  1  0  0  0  0
  7  9  1  0  0  0  0
  7 26  1  0  0  0  0
  8 27  1  0  0  0  0
  8 28  1  0  0  0  0
  8 29  1  0  0  0  0
  9 10  1  0  0  0  0
  9 11  1  0  0  0  0
  9 30  1  0  0  0  0
 10 31  1  0  0  0  0
 10 32  1  0  0  0  0
 10 33  1  0  0  0  0
 11 15  1  0  0  0  0
 11 12  1  0  0  0  0
 12 13  2  0  0  0  0
 12 34  1  0  0  0  0
 13 14  1  0  0  0  0
 13 35  1  0  0  0  0
 14 15  2  0  0  0  0
 14 36  1  0  0  0  0
M  CHG  1   6   1
M  END
> <s_m_source_file>
AV-unprocessed.smi

> <i_m_source_file_index>
3112

> <i_lp_mmshare_version>
43012

> <i_f3d_flags>
0

> <s_epik_input>
W0NIM11bQ0gyXVtDQEhdKFtPSF0pW0NIMl1bTkhdW0NASF0oW0NIM10pW0NASF0oW0NIM10pbjFbY0hdW2NIXVtjSF1uMQ==

> <s_epik_cmdline>
J2VwaWtfcHl0aG9uJywgJy1waCcsICc3LjAnLCAnLXRuJywgJzgnLCAnLW1hJywgJzIwMCcsICctbWV0YWxfYmluZGluZycsICctaW1hZScsICc8aW5maWxlLm1hZT4nLCAnLW9tYWUnLCAnPG91dGZpbGUubWFlPic=

> <r_lp_tautomer_probability>
1

> <r_epik_Ionization_Penalty>
0.0154842

> <r_epik_Ionization_Penalty_Charging>
0.0154724

> <r_epik_Ionization_Penalty_Neutral>
1.17979e-05

> <r_epik_State_Penalty>
0.0121607

> <r_epik_Charging_Adjusted_Penalty>
0.0276331

> <i_epik_Tot_Q>
1

> <i_epik_Tot_abs_Q>
1

> <r_epik_Metal_State_Penalty>
0.0121863

> <b_epik_Metal_Only>
0

> <s_lp_Force_Field>
OPLS_2005

> <r_lp_Energy>
12.5622

> <b_lp_Chiralities_Consistent>
1

> <s_lp_Variant>
AV-unprocessed.smi:3112-6

> <Gold.Version>
5.8.1

> <Gold.Id.Protein>
6NUR|6NUR_protein|mol2

> <Gold.PLP.Fitness>
48.1294

> <Gold.PLP.PLP>
-32.0476

> <Gold.PLP.part.hbond>
-5.1156

> <Gold.PLP.part.metal>
0.0000

> <Gold.PLP.part.buried>
1.4210

> <Gold.PLP.part.nonpolar>
-29.4547

> <Gold.PLP.part.repulsive>
0.1220

> <Gold.PLP.ligand.clash>
0.0000

> <Gold.PLP.ligand.torsion>
1.4465

> <Gold.PLP.Chemscore.Hbond>
5.3914

> <Gold.PLP.Chemscore.CHOScore>
0.8998

> <Gold.PLP.Chemscore.Metal>
0.0000

> <Gold.Chemscore.Hbonds>
donor molecule, donor type, donor heavy atom, donor atom, acceptor molecule, acceptor atom, score
      L1  H     4    22       P1 10171  1.00
      L1  H     6    25       P1  7948  1.84
      L1  H     6    37       P1  7957  1.00
      P1  H  7954  7966       L1     4  0.62
      P1  H  7989  7998       L1    15  1.00
      L1  C    12    34       P1  7948  0.91

> <Gold.PLP.Chemscore.Internal.Correction>
0.1014

> <Gold.Rescore>
     Score         DG    S(hbond)    S(metal)    S(lipo)     H(rot)  DE(clash)    DE(int)     intcor
     17.48     -20.26       3.63        0.00      75.31       2.41       1.54       1.24       ----

> <Gold.Chemscore.Fitness>
17.4799

> <Gold.Chemscore.DG>
-20.2580

> <Gold.Chemscore.ZeroCoef>
-5.4800

> <Gold.Chemscore.Hbond>
3.6327

> <Gold.Chemscore.Metal>
0.0000

> <Gold.Chemscore.Lipo>
75.3121

> <Gold.Chemscore.Internal_Hbond>
0.0000

> <Gold.Chemscore.DEClash>
1.5401

> <Gold.Chemscore.DEInternal>
1.2381

> <Gold.Chemscore.Rot>
2.4089

> <Gold.Chemscore.Internal.Correction>
   9.000000E+99

> <Gold.Chemscore.Hbonds>
donor molecule, donor type, donor heavy atom, donor atom, acceptor molecule, acceptor atom, score
      L1  H     4    22       P1 10171  0.98
      L1  H     6    25       P1  7948  0.84
      L1  H     6    37       P1  7957  0.98
      P1  H  7954  7966       L1     4  0.12
      P1  H  7989  7998       L1    15  0.28

> <Gold.Chemscore.Hbond.Weighted>
-12.1332

> <Gold.Chemscore.Metal.Weighted>
-0.0000

> <Gold.Chemscore.Lipo.Weighted>
-8.8115

> <Gold.Chemscore.Internal_Hbond.Weighted>
0.0000

> <Gold.Chemscore.DEClash.Weighted>
1.5401

> <Gold.Chemscore.DEInternal.Weighted>
1.2381

> <Gold.Chemscore.Rot.Weighted>
6.1667

> <Gold.Chemscore.Internal.Correction.Weighted>
   9.000000E+99

> <Gold.Protein.RotatedTorsions>
[ 6907 6896 6895 6894 ] final  101.57 input  -60.11 | X-H torsion
[ 7974 7965 7964 7962 ] final   45.71 input  175.53 | X-H torsion
[ 8008 7997 7996 7995 ] final -114.02 input   59.86 | X-H torsion
[ 10167 10162 10161 10158 ] final -163.98 input  -65.29 | X-H torsion
[ 10718 10713 10712 10709 ] final  114.46 input   66.30 | X-H torsion
[ 10763 10752 10751 10750 ] final   89.08 input  -60.55 | X-H torsion
[ 11005 11000 10999 10996 ] final   56.07 input  -57.11 | X-H torsion

> <Gold.Protein.ActiveResidues>
 VAL166  LYS551  ARG553  GLY616  TRP617  ASP618  TYR619  PRO620  LYS621  CYS622 
 ASP623  PHE694  ASN695  SER759  ASP760  ASP761  ALA762  ILE779  LEU786  VAL792 
 PHE793  MET794  SER795  GLU796  ALA797  LYS798  CYS799  TRP800  GLU811  SER814 

> <Gold.Protein.RotatedAtoms>
  152.5346  134.0106  159.7936 H   0  0  0  0  0  0  0  0  0  0  0  0  # atno 6907 bound_to 6896
  151.0309  133.5784  159.2668 H   0  0  0  0  0  0  0  0  0  0  0  0  # atno 6908 bound_to 6896
  151.2789  135.0715  159.9215 H   0  0  0  0  0  0  0  0  0  0  0  0  # atno 6909 bound_to 6896
  146.0455  139.4934  142.9751 H   0  0  0  0  0  0  0  0  0  0  0  0  # atno 7974 bound_to 7965
  155.0298  140.0393  157.2469 H   0  0  0  0  0  0  0  0  0  0  0  0  # atno 8008 bound_to 7997
  154.7307  140.2730  155.6435 H   0  0  0  0  0  0  0  0  0  0  0  0  # atno 8009 bound_to 7997
  156.2840  140.2685  156.2006 H   0  0  0  0  0  0  0  0  0  0  0  0  # atno 8010 bound_to 7997
  139.6282  144.0490  152.1993 H   0  0  0  0  0  0  0  0  0  0  0  0  # atno 10167 bound_to 10162
  157.6280  131.0999  150.7188 H   0  0  0  0  0  0  0  0  0  0  0  0  # atno 10718 bound_to 10713
  153.1834  135.4483  155.0057 H   0  0  0  0  0  0  0  0  0  0  0  0  # atno 10763 bound_to 10752
  154.8045  135.3269  154.7470 H   0  0  0  0  0  0  0  0  0  0  0  0  # atno 10764 bound_to 10752
  153.7931  135.6968  153.4923 H   0  0  0  0  0  0  0  0  0  0  0  0  # atno 10765 bound_to 10752
  140.0558  134.5672  155.9210 H   0  0  0  0  0  0  0  0  0  0  0  0  # atno 11005 bound_to 11000
  145.6812  141.0190  143.1605 LP  0  0  0  0  0  0  0  0  0  0  0  0  # atno 17320 bound_to 7965
  144.7096  139.8424  143.7419 LP  0  0  0  0  0  0  0  0  0  0  0  0  # atno 17321 bound_to 7965
  140.0149  144.6196  150.7615 LP  0  0  0  0  0  0  0  0  0  0  0  0  # atno 17342 bound_to 10162
  140.7424  143.2831  151.3541 LP  0  0  0  0  0  0  0  0  0  0  0  0  # atno 17343 bound_to 10162
  156.7533  130.4775  149.5452 LP  0  0  0  0  0  0  0  0  0  0  0  0  # atno 17370 bound_to 10713
  156.1464  130.6280  151.0537 LP  0  0  0  0  0  0  0  0  0  0  0  0  # atno 17371 bound_to 10713
  141.1951  133.6586  156.5627 LP  0  0  0  0  0  0  0  0  0  0  0  0  # atno 17394 bound_to 11000
  140.3846  134.7493  157.4683 LP  0  0  0  0  0  0  0  0  0  0  0  0  # atno 17395 bound_to 11000

$$$$
