AV-unprocessed.smi:2163|AV-procd|sdf|8807|dock5
  -GOLD-   2272011593D 1   1.00000     0.00000
 Structure written by MMmdl.
 44 46  0  0  0  0  0  0  0  0  2 V2000
  149.3954  141.1598  155.0778 C   0  0  0  0  0  0  0  0  0  0  0  0
  150.1790  141.6688  156.2405 C   0  0  0  0  0  0  0  0  0  0  0  0
  150.1147  142.9271  156.7605 N   0  3  0  0  0  0  0  0  0  0  0  0
  150.9899  143.0362  157.8423 C   0  0  0  0  0  0  0  0  0  0  0  0
  151.2718  144.1086  158.6831 C   0  0  0  0  0  0  0  0  0  0  0  0
  152.2249  143.8831  159.6980 C   0  0  0  0  0  0  0  0  0  0  0  0
  152.8571  142.6315  159.8473 C   0  0  0  0  0  0  0  0  0  0  0  0
  152.5635  141.5519  158.9884 C   0  0  0  0  0  0  0  0  0  0  0  0
  151.6193  141.7831  157.9886 C   0  0  0  0  0  0  0  0  0  0  0  0
  151.0867  140.9709  156.9819 N   0  0  0  0  0  0  0  0  0  0  0  0
  151.5422  139.5764  156.8682 C   0  0  0  0  0  0  0  0  0  0  0  0
  151.6409  139.0923  155.4068 C   0  0  1  0  0  0  0  0  0  0  0  0
  152.8507  139.5666  154.8484 O   0  0  0  0  0  0  0  0  0  0  0  0
  151.6240  137.5587  155.3078 C   0  0  0  0  0  0  0  0  0  0  0  0
  150.3533  137.0844  155.7338 O   0  0  0  0  0  0  0  0  0  0  0  0
  149.9271  135.8559  155.2762 C   0  0  0  0  0  0  0  0  0  0  0  0
  150.7939  134.7861  154.9368 C   0  0  0  0  0  0  0  0  0  0  0  0
  150.2707  133.5664  154.4652 C   0  0  0  0  0  0  0  0  0  0  0  0
  148.8792  133.3956  154.3291 C   0  0  0  0  0  0  0  0  0  0  0  0
  148.3199  132.0852  153.8157 C   0  0  0  0  0  0  0  0  0  0  0  0
  147.5951  132.2519  152.5471 C   0  0  0  0  0  0  0  0  0  0  0  0
  147.0251  132.3826  151.5487 N   0  0  0  0  0  0  0  0  0  0  0  0
  148.0118  134.4502  154.6736 C   0  0  0  0  0  0  0  0  0  0  0  0
  148.5357  135.6700  155.1433 C   0  0  0  0  0  0  0  0  0  0  0  0
  148.7193  141.9292  154.7043 H   0  0  0  0  0  0  0  0  0  0  0  0
  148.8043  140.2925  155.3724 H   0  0  0  0  0  0  0  0  0  0  0  0
  150.0673  140.8668  154.2709 H   0  0  0  0  0  0  0  0  0  0  0  0
  150.7890  145.0683  158.5711 H   0  0  0  0  0  0  0  0  0  0  0  0
  152.4756  144.6863  160.3758 H   0  0  0  0  0  0  0  0  0  0  0  0
  153.5818  142.4960  160.6371 H   0  0  0  0  0  0  0  0  0  0  0  0
  153.0513  140.5964  159.1112 H   0  0  0  0  0  0  0  0  0  0  0  0
  152.5139  139.5030  157.3579 H   0  0  0  0  0  0  0  0  0  0  0  0
  150.8617  138.9469  157.4431 H   0  0  0  0  0  0  0  0  0  0  0  0
  150.8078  139.5034  154.8358 H   0  0  0  0  0  0  0  0  0  0  0  0
  152.8679  139.3393  153.9314 H   0  0  0  0  0  0  0  0  0  0  0  0
  151.8586  137.2380  154.2910 H   0  0  0  0  0  0  0  0  0  0  0  0
  152.3833  137.1435  155.9725 H   0  0  0  0  0  0  0  0  0  0  0  0
  151.8655  134.8756  155.0290 H   0  0  0  0  0  0  0  0  0  0  0  0
  150.9420  132.7602  154.2073 H   0  0  0  0  0  0  0  0  0  0  0  0
  149.1257  131.3672  153.6613 H   0  0  0  0  0  0  0  0  0  0  0  0
  147.6369  131.6582  154.5504 H   0  0  0  0  0  0  0  0  0  0  0  0
  146.9431  134.3273  154.5768 H   0  0  0  0  0  0  0  0  0  0  0  0
  147.8614  136.4736  155.4007 H   0  0  0  0  0  0  0  0  0  0  0  0
  149.5130  143.6567  156.4005 H   0  0  0  0  0  0  0  0  0  0  0  0
  1  2  1  0  0  0  0
  1 25  1  0  0  0  0
  1 26  1  0  0  0  0
  1 27  1  0  0  0  0
  2 10  1  0  0  0  0
  2  3  2  0  0  0  0
  3  4  1  0  0  0  0
  3 44  1  0  0  0  0
  4  9  2  0  0  0  0
  4  5  1  0  0  0  0
  5  6  2  0  0  0  0
  5 28  1  0  0  0  0
  6  7  1  0  0  0  0
  6 29  1  0  0  0  0
  7  8  2  0  0  0  0
  7 30  1  0  0  0  0
  8  9  1  0  0  0  0
  8 31  1  0  0  0  0
  9 10  1  0  0  0  0
 10 11  1  0  0  0  0
 11 12  1  0  0  0  0
 11 32  1  0  0  0  0
 11 33  1  0  0  0  0
 12 13  1  0  0  0  0
 12 14  1  0  0  0  0
 12 34  1  0  0  0  0
 13 35  1  0  0  0  0
 14 15  1  0  0  0  0
 14 36  1  0  0  0  0
 14 37  1  0  0  0  0
 15 16  1  0  0  0  0
 16 24  1  0  0  0  0
 16 17  2  0  0  0  0
 17 18  1  0  0  0  0
 17 38  1  0  0  0  0
 18 19  2  0  0  0  0
 18 39  1  0  0  0  0
 19 20  1  0  0  0  0
 19 23  1  0  0  0  0
 20 21  1  0  0  0  0
 20 40  1  0  0  0  0
 20 41  1  0  0  0  0
 21 22  3  0  0  0  0
 23 24  2  0  0  0  0
 23 42  1  0  0  0  0
 24 43  1  0  0  0  0
M  CHG  1   3   1
M  END
> <s_m_source_file>
AV-unprocessed.smi

> <i_m_source_file_index>
2163

> <i_lp_mmshare_version>
43012

> <i_f3d_flags>
0

> <s_epik_input>
W2NIXTFbY0hdW2NIXVtjSF1jKGMxMiluKGMobjIpW0NIM10pW0NIMl1bQ0BIXShbT0hdKVtDSDJdT2MzW2NIXVtjSF1jKFtDSDJdQyNOKVtjSF1bY0hdMw==

> <s_epik_cmdline>
J2VwaWtfcHl0aG9uJywgJy1waCcsICc3LjAnLCAnLXRuJywgJzgnLCAnLW1hJywgJzIwMCcsICctbWV0YWxfYmluZGluZycsICctaW1hZScsICc8aW5maWxlLm1hZT4nLCAnLW9tYWUnLCAnPG91dGZpbGUubWFlPic=

> <r_lp_tautomer_probability>
1

> <r_epik_Ionization_Penalty>
1.03158

> <r_epik_Ionization_Penalty_Charging>
1.03158

> <r_epik_Ionization_Penalty_Neutral>
2.3994e-06

> <r_epik_State_Penalty>
1.08278

> <r_epik_Charging_Adjusted_Penalty>
2.11436

> <i_epik_Tot_Q>
1

> <i_epik_Tot_abs_Q>
1

> <r_epik_Metal_State_Penalty>
5.07177

> <b_epik_Metal_Only>
0

> <s_lp_Force_Field>
OPLS_2005

> <r_lp_Energy>
20.4003

> <b_lp_Chiralities_Consistent>
1

> <s_lp_Variant>
AV-unprocessed.smi:2163-4

> <Gold.Version>
5.8.1

> <Gold.Id.Protein>
6NUR|6NUR_protein|mol2

> <Gold.PLP.Fitness>
55.9734

> <Gold.PLP.PLP>
-48.8775

> <Gold.PLP.part.hbond>
-3.0000

> <Gold.PLP.part.metal>
0.0000

> <Gold.PLP.part.buried>
-5.7790

> <Gold.PLP.part.nonpolar>
-40.8312

> <Gold.PLP.part.repulsive>
0.2954

> <Gold.PLP.ligand.clash>
0.0000

> <Gold.PLP.ligand.torsion>
1.0586

> <Gold.PLP.Chemscore.Hbond>
3.0000

> <Gold.PLP.Chemscore.CHOScore>
0.0000

> <Gold.PLP.Chemscore.Metal>
0.0000

> <Gold.Chemscore.Hbonds>
donor molecule, donor type, donor heavy atom, donor atom, acceptor molecule, acceptor atom, score
      L1  H     3    44       P1  8028  1.53
      P1  H  7997  8008       L1    13  1.00

> <Gold.PLP.Chemscore.Internal.Correction>
0.2131

> <Gold.Rescore>
     Score         DG    S(hbond)    S(metal)    S(lipo)     H(rot)  DE(clash)    DE(int)     intcor
     19.10     -20.08       1.99        0.00     124.91       2.60       0.03       0.95       ----

> <Gold.Chemscore.Fitness>
19.1002

> <Gold.Chemscore.DG>
-20.0785

> <Gold.Chemscore.ZeroCoef>
-5.4800

> <Gold.Chemscore.Hbond>
1.9912

> <Gold.Chemscore.Metal>
0.0000

> <Gold.Chemscore.Lipo>
124.9096

> <Gold.Chemscore.Internal_Hbond>
0.0000

> <Gold.Chemscore.DEClash>
0.0303

> <Gold.Chemscore.DEInternal>
0.9481

> <Gold.Chemscore.Rot>
2.6041

> <Gold.Chemscore.Internal.Correction>
   9.000000E+99

> <Gold.Chemscore.Hbonds>
donor molecule, donor type, donor heavy atom, donor atom, acceptor molecule, acceptor atom, score
      L1  H     3    44       P1  8028  0.75
      P1  H  7997  8008       L1    13  0.94

> <Gold.Chemscore.Hbond.Weighted>
-6.6507

> <Gold.Chemscore.Metal.Weighted>
-0.0000

> <Gold.Chemscore.Lipo.Weighted>
-14.6144

> <Gold.Chemscore.Internal_Hbond.Weighted>
0.0000

> <Gold.Chemscore.DEClash.Weighted>
0.0303

> <Gold.Chemscore.DEInternal.Weighted>
0.9481

> <Gold.Chemscore.Rot.Weighted>
6.6665

> <Gold.Chemscore.Internal.Correction.Weighted>
   9.000000E+99

> <Gold.Protein.RotatedTorsions>
[ 6907 6896 6895 6894 ] final   76.32 input  -60.11 | X-H torsion
[ 7974 7965 7964 7962 ] final   24.86 input  175.53 | X-H torsion
[ 8008 7997 7996 7995 ] final  -20.18 input   59.86 | X-H torsion
[ 10167 10162 10161 10158 ] final -127.07 input  -65.29 | X-H torsion
[ 10718 10713 10712 10709 ] final   51.98 input   66.30 | X-H torsion
[ 10763 10752 10751 10750 ] final  143.49 input  -60.55 | X-H torsion
[ 11005 11000 10999 10996 ] final  155.18 input  -57.11 | X-H torsion

> <Gold.Protein.ActiveResidues>
 VAL166  LYS551  ARG553  GLY616  TRP617  ASP618  TYR619  PRO620  LYS621  CYS622 
 ASP623  PHE694  ASN695  SER759  ASP760  ASP761  ALA762  ILE779  LEU786  VAL792 
 PHE793  MET794  SER795  GLU796  ALA797  LYS798  CYS799  TRP800  GLU811  SER814 

> <Gold.Protein.RotatedAtoms>
  152.5068  134.3986  159.9408 H   0  0  0  0  0  0  0  0  0  0  0  0  # atno 6907 bound_to 6896
  151.3949  133.3770  159.2733 H   0  0  0  0  0  0  0  0  0  0  0  0  # atno 6908 bound_to 6896
  150.9405  134.8835  159.7668 H   0  0  0  0  0  0  0  0  0  0  0  0  # atno 6909 bound_to 6896
  146.1917  139.7546  142.8827 H   0  0  0  0  0  0  0  0  0  0  0  0  # atno 7974 bound_to 7965
  154.4787  140.2069  155.9816 H   0  0  0  0  0  0  0  0  0  0  0  0  # atno 8008 bound_to 7997
  156.1130  140.3226  155.8070 H   0  0  0  0  0  0  0  0  0  0  0  0  # atno 8009 bound_to 7997
  155.4601  140.0523  157.2982 H   0  0  0  0  0  0  0  0  0  0  0  0  # atno 8010 bound_to 7997
  139.9647  143.5911  152.2433 H   0  0  0  0  0  0  0  0  0  0  0  0  # atno 10167 bound_to 10162
  157.5031  130.8451  149.8342 H   0  0  0  0  0  0  0  0  0  0  0  0  # atno 10718 bound_to 10713
  153.9731  135.2948  155.3426 H   0  0  0  0  0  0  0  0  0  0  0  0  # atno 10763 bound_to 10752
  154.7311  135.5067  153.8968 H   0  0  0  0  0  0  0  0  0  0  0  0  # atno 10764 bound_to 10752
  153.0890  135.6702  154.0004 H   0  0  0  0  0  0  0  0  0  0  0  0  # atno 10765 bound_to 10752
  140.1557  134.8644  157.2511 H   0  0  0  0  0  0  0  0  0  0  0  0  # atno 11005 bound_to 11000
  145.3772  141.0352  143.3198 LP  0  0  0  0  0  0  0  0  0  0  0  0  # atno 17320 bound_to 7965
  144.8499  139.5337  143.6861 LP  0  0  0  0  0  0  0  0  0  0  0  0  # atno 17321 bound_to 7965
  139.6527  144.7661  151.2117 LP  0  0  0  0  0  0  0  0  0  0  0  0  # atno 17342 bound_to 10162
  140.7542  143.6135  150.8582 LP  0  0  0  0  0  0  0  0  0  0  0  0  # atno 17343 bound_to 10162
  156.0242  130.3785  150.1873 LP  0  0  0  0  0  0  0  0  0  0  0  0  # atno 17370 bound_to 10713
  157.0063  130.9937  151.3378 LP  0  0  0  0  0  0  0  0  0  0  0  0  # atno 17371 bound_to 10713
  140.2550  134.3638  155.7428 LP  0  0  0  0  0  0  0  0  0  0  0  0  # atno 17394 bound_to 11000
  141.2204  133.7337  156.8993 LP  0  0  0  0  0  0  0  0  0  0  0  0  # atno 17395 bound_to 11000

$$$$
