AV-unprocessed.smi:2525|AV-procd|sdf|9926|dock2
  -GOLD-   2272013563D 1   1.00000     0.00000
 Structure written by MMmdl.
 44 45  0  0  0  0  0  0  0  0  1 V2000
  149.2132  141.3510  155.2014 C   0  0  0  0  0  0  0  0  0  0  0  0
  149.4062  140.5990  156.5288 C   0  0  0  0  0  0  0  0  0  0  0  0
  150.8810  140.3558  156.9472 C   0  0  0  0  0  0  0  0  0  0  0  0
  151.5156  141.7202  157.3145 C   0  0  0  0  0  0  0  0  0  0  0  0
  150.8765  142.4487  158.5092 C   0  0  0  0  0  0  0  0  0  0  0  0
  151.1534  139.2395  158.0005 C   0  0  1  0  0  0  0  0  0  0  0  0
  150.1308  138.1933  158.0166 N   0  0  0  0  0  0  0  0  0  0  0  0
  149.9609  137.2765  158.9798 C   0  0  0  0  0  0  0  0  0  0  0  0
  150.7205  137.1443  159.9385 O   0  0  0  0  0  0  0  0  0  0  0  0
  148.7219  136.3895  158.8527 C   0  0  0  0  0  0  0  0  0  0  0  0
  148.1907  136.0546  160.1633 N   0  0  0  0  0  0  0  0  0  0  0  0
  148.0010  134.8063  160.7200 C   0  0  0  0  0  0  0  0  0  0  0  0
  147.5137  135.0841  161.9649 C   0  0  0  0  0  0  0  0  0  0  0  0
  147.4277  136.4673  162.1128 N   0  0  0  0  0  0  0  0  0  0  0  0
  147.8342  137.0395  161.0234 N   0  0  0  0  0  0  0  0  0  0  0  0
  152.3882  138.8063  157.1930 C   0  0  1  0  0  0  0  0  0  0  0  0
  152.8225  137.3439  157.1113 C   0  0  0  0  0  0  0  0  0  0  0  0
  151.7505  139.5003  155.9784 C   0  0  1  0  0  0  0  0  0  0  0  0
  151.0072  138.5660  155.2031 O   0  0  0  0  0  0  0  0  0  0  0  0
  151.8096  137.8389  154.2885 C   0  0  0  0  0  0  0  0  0  0  0  0
  148.1628  141.6040  155.0573 H   0  0  0  0  0  0  0  0  0  0  0  0
  149.5177  140.7490  154.3460 H   0  0  0  0  0  0  0  0  0  0  0  0
  149.7796  142.2809  155.1768 H   0  0  0  0  0  0  0  0  0  0  0  0
  148.8854  141.1682  157.2985 H   0  0  0  0  0  0  0  0  0  0  0  0
  148.8568  139.6600  156.4822 H   0  0  0  0  0  0  0  0  0  0  0  0
  152.5850  141.6118  157.4924 H   0  0  0  0  0  0  0  0  0  0  0  0
  151.4565  142.3958  156.4614 H   0  0  0  0  0  0  0  0  0  0  0  0
  151.2974  143.4489  158.6131 H   0  0  0  0  0  0  0  0  0  0  0  0
  151.0593  141.9291  159.4490 H   0  0  0  0  0  0  0  0  0  0  0  0
  149.7994  142.5586  158.3871 H   0  0  0  0  0  0  0  0  0  0  0  0
  151.4131  139.6284  158.9867 H   0  0  0  0  0  0  0  0  0  0  0  0
  149.4548  138.2182  157.2665 H   0  0  0  0  0  0  0  0  0  0  0  0
  147.9572  136.8990  158.2641 H   0  0  0  0  0  0  0  0  0  0  0  0
  148.9726  135.4658  158.3297 H   0  0  0  0  0  0  0  0  0  0  0  0
  148.2262  133.8811  160.2102 H   0  0  0  0  0  0  0  0  0  0  0  0
  147.2247  134.4122  162.7598 H   0  0  0  0  0  0  0  0  0  0  0  0
  153.2358  139.4081  157.5247 H   0  0  0  0  0  0  0  0  0  0  0  0
  152.0269  136.6973  156.7416 H   0  0  0  0  0  0  0  0  0  0  0  0
  153.1214  136.9690  158.0901 H   0  0  0  0  0  0  0  0  0  0  0  0
  153.6736  137.2262  156.4407 H   0  0  0  0  0  0  0  0  0  0  0  0
  152.4867  140.0559  155.3952 H   0  0  0  0  0  0  0  0  0  0  0  0
  151.1783  137.1787  153.6942 H   0  0  0  0  0  0  0  0  0  0  0  0
  152.5386  137.2220  154.8152 H   0  0  0  0  0  0  0  0  0  0  0  0
  152.3436  138.4991  153.6054 H   0  0  0  0  0  0  0  0  0  0  0  0
  1  2  1  0  0  0  0
  1 21  1  0  0  0  0
  1 22  1  0  0  0  0
  1 23  1  0  0  0  0
  2  3  1  0  0  0  0
  2 24  1  0  0  0  0
  2 25  1  0  0  0  0
  3 18  1  0  0  0  0
  3  4  1  0  0  0  0
  3  6  1  0  0  0  0
  4  5  1  0  0  0  0
  4 26  1  0  0  0  0
  4 27  1  0  0  0  0
  5 28  1  0  0  0  0
  5 29  1  0  0  0  0
  5 30  1  0  0  0  0
  6  7  1  0  0  0  0
  6 16  1  0  0  0  0
  6 31  1  0  0  0  0
  7  8  1  0  0  0  0
  7 32  1  0  0  0  0
  8  9  2  0  0  0  0
  8 10  1  0  0  0  0
 10 11  1  0  0  0  0
 10 33  1  0  0  0  0
 10 34  1  0  0  0  0
 11 15  1  0  0  0  0
 11 12  1  0  0  0  0
 12 13  2  0  0  0  0
 12 35  1  0  0  0  0
 13 14  1  0  0  0  0
 13 36  1  0  0  0  0
 14 15  2  0  0  0  0
 16 17  1  0  0  0  0
 16 18  1  0  0  0  0
 16 37  1  0  0  0  0
 17 38  1  0  0  0  0
 17 39  1  0  0  0  0
 17 40  1  0  0  0  0
 18 19  1  0  0  0  0
 18 41  1  0  0  0  0
 19 20  1  0  0  0  0
 20 42  1  0  0  0  0
 20 43  1  0  0  0  0
 20 44  1  0  0  0  0
M  END
> <s_m_source_file>
AV-unprocessed.smi

> <i_m_source_file_index>
2525

> <i_lp_mmshare_version>
43012

> <i_f3d_flags>
0

> <s_epik_input>
W0NIM11PW0NAQEhdMVtDQEhdKFtDSDNdKVtDQEBIXShDMShbQ0gyXVtDSDNdKVtDSDJdW0NIM10pW05IXUMoPU8pW0NIMl1uMltjSF1bY0hdbm4y

> <s_epik_cmdline>
J2VwaWtfcHl0aG9uJywgJy1waCcsICc3LjAnLCAnLXRuJywgJzgnLCAnLW1hJywgJzIwMCcsICctbWV0YWxfYmluZGluZycsICctaW1hZScsICc8aW5maWxlLm1hZT4nLCAnLW9tYWUnLCAnPG91dGZpbGUubWFlPic=

> <r_lp_tautomer_probability>
1

> <r_epik_Ionization_Penalty>
1.18045e-06

> <r_epik_Ionization_Penalty_Charging>
0

> <r_epik_Ionization_Penalty_Neutral>
1.18045e-06

> <r_epik_State_Penalty>
-0

> <r_epik_Charging_Adjusted_Penalty>
0

> <i_epik_Tot_Q>
0

> <i_epik_Tot_abs_Q>
0

> <r_epik_Metal_State_Penalty>
-0

> <b_epik_Metal_Only>
0

> <s_lp_Force_Field>
OPLS_2005

> <r_lp_Energy>
28.1352

> <b_lp_Chiralities_Consistent>
1

> <s_lp_Variant>
AV-unprocessed.smi:2525-1

> <Gold.Version>
5.8.1

> <Gold.Id.Protein>
6NUR|6NUR_protein|mol2

> <Gold.PLP.Fitness>
37.7443

> <Gold.PLP.PLP>
-31.2372

> <Gold.PLP.part.hbond>
-3.4780

> <Gold.PLP.part.metal>
0.0000

> <Gold.PLP.part.buried>
-6.7008

> <Gold.PLP.part.nonpolar>
-23.0761

> <Gold.PLP.part.repulsive>
0.1633

> <Gold.PLP.ligand.clash>
0.0000

> <Gold.PLP.ligand.torsion>
0.9384

> <Gold.PLP.Chemscore.Hbond>
2.5420

> <Gold.PLP.Chemscore.CHOScore>
0.0000

> <Gold.PLP.Chemscore.Metal>
0.0000

> <Gold.Chemscore.Hbonds>
donor molecule, donor type, donor heavy atom, donor atom, acceptor molecule, acceptor atom, score
      P1  H  6896  6909       L1     9  0.88
      P1  H  6931  6943       L1    15  0.74
      P1  H  6934  6947       L1    15  0.73

> <Gold.PLP.Chemscore.Internal.Correction>
0.7579

> <Gold.Rescore>
     Score         DG    S(hbond)    S(metal)    S(lipo)     H(rot)  DE(clash)    DE(int)     intcor
     15.22     -16.21       2.06        0.00      76.27       1.98       0.03       0.96       ----

> <Gold.Chemscore.Fitness>
15.2194

> <Gold.Chemscore.DG>
-16.2128

> <Gold.Chemscore.ZeroCoef>
-5.4800

> <Gold.Chemscore.Hbond>
2.0605

> <Gold.Chemscore.Metal>
0.0000

> <Gold.Chemscore.Lipo>
76.2725

> <Gold.Chemscore.Internal_Hbond>
0.0000

> <Gold.Chemscore.DEClash>
0.0310

> <Gold.Chemscore.DEInternal>
0.9625

> <Gold.Chemscore.Rot>
1.9817

> <Gold.Chemscore.Internal.Correction>
   9.000000E+99

> <Gold.Chemscore.Hbonds>
donor molecule, donor type, donor heavy atom, donor atom, acceptor molecule, acceptor atom, score
      P1  H  6896  6909       L1     9  0.43
      P1  H  6931  6943       L1    15  0.09
      P1  H  6934  6947       L1    15  0.55

> <Gold.Chemscore.Hbond.Weighted>
-6.8820

> <Gold.Chemscore.Metal.Weighted>
-0.0000

> <Gold.Chemscore.Lipo.Weighted>
-8.9239

> <Gold.Chemscore.Internal_Hbond.Weighted>
0.0000

> <Gold.Chemscore.DEClash.Weighted>
0.0310

> <Gold.Chemscore.DEInternal.Weighted>
0.9625

> <Gold.Chemscore.Rot.Weighted>
5.0731

> <Gold.Chemscore.Internal.Correction.Weighted>
   9.000000E+99

> <Gold.Protein.RotatedTorsions>
[ 6907 6896 6895 6894 ] final  101.04 input  -60.11 | X-H torsion
[ 7974 7965 7964 7962 ] final  -47.19 input  175.53 | X-H torsion
[ 8008 7997 7996 7995 ] final -179.74 input   59.86 | X-H torsion
[ 10167 10162 10161 10158 ] final -120.27 input  -65.29 | X-H torsion
[ 10718 10713 10712 10709 ] final  -18.30 input   66.30 | X-H torsion
[ 10763 10752 10751 10750 ] final  132.03 input  -60.55 | X-H torsion
[ 11005 11000 10999 10996 ] final  -43.55 input  -57.11 | X-H torsion

> <Gold.Protein.ActiveResidues>
 VAL166  LYS551  ARG553  GLY616  TRP617  ASP618  TYR619  PRO620  LYS621  CYS622 
 ASP623  PHE694  ASN695  SER759  ASP760  ASP761  ALA762  ILE779  LEU786  VAL792 
 PHE793  MET794  SER795  GLU796  ALA797  LYS798  CYS799  TRP800  GLU811  SER814 

> <Gold.Protein.RotatedAtoms>
  152.5358  134.0186  159.7970 H   0  0  0  0  0  0  0  0  0  0  0  0  # atno 6907 bound_to 6896
  151.0376  133.5727  159.2661 H   0  0  0  0  0  0  0  0  0  0  0  0  # atno 6908 bound_to 6896
  151.2708  135.0691  159.9187 H   0  0  0  0  0  0  0  0  0  0  0  0  # atno 6909 bound_to 6896
  145.9641  140.7449  142.9442 H   0  0  0  0  0  0  0  0  0  0  0  0  # atno 7974 bound_to 7965
  156.0340  140.1288  157.0227 H   0  0  0  0  0  0  0  0  0  0  0  0  # atno 8008 bound_to 7997
  154.4362  140.1043  156.6211 H   0  0  0  0  0  0  0  0  0  0  0  0  # atno 8009 bound_to 7997
  155.5765  140.3467  155.4531 H   0  0  0  0  0  0  0  0  0  0  0  0  # atno 8010 bound_to 7997
  140.0377  143.5185  152.2145 H   0  0  0  0  0  0  0  0  0  0  0  0  # atno 10167 bound_to 10162
  156.5615  130.4726  149.6404 H   0  0  0  0  0  0  0  0  0  0  0  0  # atno 10718 bound_to 10713
  153.7840  135.3164  155.3370 H   0  0  0  0  0  0  0  0  0  0  0  0  # atno 10763 bound_to 10752
  154.8150  135.4642  154.0623 H   0  0  0  0  0  0  0  0  0  0  0  0  # atno 10764 bound_to 10752
  153.1921  135.6910  153.8425 H   0  0  0  0  0  0  0  0  0  0  0  0  # atno 10765 bound_to 10752
  141.0391  133.6787  156.2748 H   0  0  0  0  0  0  0  0  0  0  0  0  # atno 11005 bound_to 11000
  144.6821  140.2640  143.7315 LP  0  0  0  0  0  0  0  0  0  0  0  0  # atno 17320 bound_to 7965
  145.7998  139.1960  143.2054 LP  0  0  0  0  0  0  0  0  0  0  0  0  # atno 17321 bound_to 7965
  139.6034  144.7589  151.3118 LP  0  0  0  0  0  0  0  0  0  0  0  0  # atno 17342 bound_to 10162
  140.7274  143.6964  150.7880 LP  0  0  0  0  0  0  0  0  0  0  0  0  # atno 17343 bound_to 10162
  156.2795  130.7062  151.1883 LP  0  0  0  0  0  0  0  0  0  0  0  0  # atno 17370 bound_to 10713
  157.7367  131.0559  150.5396 LP  0  0  0  0  0  0  0  0  0  0  0  0  # atno 17371 bound_to 10713
  140.6267  134.5306  157.5554 LP  0  0  0  0  0  0  0  0  0  0  0  0  # atno 17394 bound_to 11000
  139.9262  134.8051  156.1061 LP  0  0  0  0  0  0  0  0  0  0  0  0  # atno 17395 bound_to 11000

$$$$
