AV-unprocessed.smi:637|AV-procd|sdf|3142|dock8
  -GOLD-   22720 0 73D 1   1.00000     0.00000
 Structure written by MMmdl.
 38 40  0  0  0  0  0  0  0  0  1 V2000
  151.7955  144.4041  160.4585 C   0  0  0  0  0  0  0  0  0  0  0  0
  152.4784  143.0841  160.3387 C   0  0  0  0  0  0  0  0  0  0  0  0
  153.3469  142.5042  161.2311 C   0  0  0  0  0  0  0  0  0  0  0  0
  153.8215  141.2259  160.8114 C   0  0  0  0  0  0  0  0  0  0  0  0
  153.2987  140.8609  159.5935 C   0  0  0  0  0  0  0  0  0  0  0  0
  153.6300  139.5860  158.9787 C   0  0  0  0  0  0  0  0  0  0  0  0
  154.9542  139.0021  159.1057 C   0  0  0  0  0  0  0  0  0  0  0  0
  155.2240  137.8374  158.4774 C   0  0  0  0  0  0  0  0  0  0  0  0
  154.2206  137.1472  157.6695 C   0  0  0  0  0  0  0  0  0  0  0  0
  154.4471  136.1040  157.0572 O   0  0  0  0  0  0  0  0  0  0  0  0
  153.0098  137.7758  157.6433 N   0  0  0  0  0  0  0  0  0  0  0  0
  151.9010  137.2534  156.8330 C   0  0  0  0  0  0  0  0  0  0  0  0
  151.7377  138.0107  155.4940 C   0  0  1  0  0  0  0  0  0  0  0  0
  151.3587  137.0832  154.4978 O   0  0  0  0  0  0  0  0  0  0  0  0
  150.7638  139.1782  155.5943 C   0  0  0  0  0  0  0  0  0  0  0  0
  151.0995  140.3288  156.3419 C   0  0  0  0  0  0  0  0  0  0  0  0
  150.2186  141.4266  156.3894 C   0  0  0  0  0  0  0  0  0  0  0  0
  148.9974  141.3803  155.6901 C   0  0  0  0  0  0  0  0  0  0  0  0
  148.6566  140.2355  154.9447 C   0  0  0  0  0  0  0  0  0  0  0  0
  147.4847  140.1927  154.2680 F   0  0  0  0  0  0  0  0  0  0  0  0
  149.5366  139.1370  154.8978 C   0  0  0  0  0  0  0  0  0  0  0  0
  152.7247  138.9632  158.2950 N   0  0  0  0  0  0  0  0  0  0  0  0
  152.2189  142.0642  158.9443 S   0  0  0  0  0  0  0  0  0  0  0  0
  151.9988  144.8663  161.4248 H   0  0  0  0  0  0  0  0  0  0  0  0
  150.7156  144.2909  160.3610 H   0  0  0  0  0  0  0  0  0  0  0  0
  152.1355  145.0870  159.6798 H   0  0  0  0  0  0  0  0  0  0  0  0
  153.6543  142.9489  162.1661 H   0  0  0  0  0  0  0  0  0  0  0  0
  154.5068  140.6484  161.4154 H   0  0  0  0  0  0  0  0  0  0  0  0
  155.7152  139.4924  159.6941 H   0  0  0  0  0  0  0  0  0  0  0  0
  156.2087  137.4037  158.5711 H   0  0  0  0  0  0  0  0  0  0  0  0
  152.0360  136.1861  156.6482 H   0  0  0  0  0  0  0  0  0  0  0  0
  150.9750  137.3282  157.4069 H   0  0  0  0  0  0  0  0  0  0  0  0
  152.7103  138.4032  155.1948 H   0  0  0  0  0  0  0  0  0  0  0  0
  151.4307  137.5045  153.6548 H   0  0  0  0  0  0  0  0  0  0  0  0
  152.0408  140.3778  156.8695 H   0  0  0  0  0  0  0  0  0  0  0  0
  150.4824  142.3060  156.9578 H   0  0  0  0  0  0  0  0  0  0  0  0
  148.3237  142.2236  155.7239 H   0  0  0  0  0  0  0  0  0  0  0  0
  149.2729  138.2687  154.3118 H   0  0  0  0  0  0  0  0  0  0  0  0
  1  2  1  0  0  0  0
  1 24  1  0  0  0  0
  1 25  1  0  0  0  0
  1 26  1  0  0  0  0
  2 23  1  0  0  0  0
  2  3  2  0  0  0  0
  3  4  1  0  0  0  0
  3 27  1  0  0  0  0
  4  5  2  0  0  0  0
  4 28  1  0  0  0  0
  5  6  1  0  0  0  0
  5 23  1  0  0  0  0
  6 22  2  0  0  0  0
  6  7  1  0  0  0  0
  7  8  2  0  0  0  0
  7 29  1  0  0  0  0
  8  9  1  0  0  0  0
  8 30  1  0  0  0  0
  9 10  2  0  0  0  0
  9 11  1  0  0  0  0
 11 12  1  0  0  0  0
 11 22  1  0  0  0  0
 12 13  1  0  0  0  0
 12 31  1  0  0  0  0
 12 32  1  0  0  0  0
 13 14  1  0  0  0  0
 13 15  1  0  0  0  0
 13 33  1  0  0  0  0
 14 34  1  0  0  0  0
 15 21  1  0  0  0  0
 15 16  2  0  0  0  0
 16 17  1  0  0  0  0
 16 35  1  0  0  0  0
 17 18  2  0  0  0  0
 17 36  1  0  0  0  0
 18 19  1  0  0  0  0
 18 37  1  0  0  0  0
 19 20  1  0  0  0  0
 19 21  2  0  0  0  0
 21 38  1  0  0  0  0
M  END
> <s_m_source_file>
AV-unprocessed.smi

> <i_m_source_file_index>
637

> <i_lp_mmshare_version>
43012

> <i_f3d_flags>
0

> <s_epik_input>
W0NIM11jMVtjSF1bY0hdYyhzMSktYzJbY0hdW2NIXWMoPU8pbihuMilbQ0gyXVtDQEhdKFtPSF0pYzNbY0hdW2NIXVtjSF1jKEYpW2NIXTM=

> <s_epik_cmdline>
J2VwaWtfcHl0aG9uJywgJy1waCcsICc3LjAnLCAnLXRuJywgJzgnLCAnLW1hJywgJzIwMCcsICctbWV0YWxfYmluZGluZycsICctaW1hZScsICc8aW5maWxlLm1hZT4nLCAnLW9tYWUnLCAnPG91dGZpbGUubWFlPic=

> <r_lp_tautomer_probability>
1

> <r_epik_Ionization_Penalty>
2.26963e-07

> <r_epik_Ionization_Penalty_Charging>
5.89185e-08

> <r_epik_Ionization_Penalty_Neutral>
1.68044e-07

> <r_epik_State_Penalty>
-0

> <r_epik_Charging_Adjusted_Penalty>
5.89185e-08

> <i_epik_Tot_Q>
0

> <i_epik_Tot_abs_Q>
0

> <r_epik_Metal_State_Penalty>
-0

> <b_epik_Metal_Only>
0

> <s_lp_Force_Field>
OPLS_2005

> <r_lp_Energy>
25.403

> <b_lp_Chiralities_Consistent>
1

> <s_lp_Variant>
AV-unprocessed.smi:637-2

> <Gold.Version>
5.8.1

> <Gold.Id.Protein>
6NUR|6NUR_protein|mol2

> <Gold.PLP.Fitness>
51.1833

> <Gold.PLP.PLP>
-47.8973

> <Gold.PLP.part.hbond>
-2.8807

> <Gold.PLP.part.metal>
0.0000

> <Gold.PLP.part.buried>
-0.6927

> <Gold.PLP.part.nonpolar>
-43.9193

> <Gold.PLP.part.repulsive>
0.0000

> <Gold.PLP.ligand.clash>
0.0000

> <Gold.PLP.ligand.torsion>
1.3759

> <Gold.PLP.Chemscore.Hbond>
2.0000

> <Gold.PLP.Chemscore.CHOScore>
0.0000

> <Gold.PLP.Chemscore.Metal>
0.0000

> <Gold.Chemscore.Hbonds>
donor molecule, donor type, donor heavy atom, donor atom, acceptor molecule, acceptor atom, score
      P1  H 10752 10763       L1    10  1.00
      P1  H 10752 10765       L1    14  0.71

> <Gold.PLP.Chemscore.Internal.Correction>
0.0378

> <Gold.Rescore>
     Score         DG    S(hbond)    S(metal)    S(lipo)     H(rot)  DE(clash)    DE(int)     intcor
     19.79     -22.10       1.78        0.00     131.19       1.82       0.97       1.35       ----

> <Gold.Chemscore.Fitness>
19.7878

> <Gold.Chemscore.DG>
-22.1028

> <Gold.Chemscore.ZeroCoef>
-5.4800

> <Gold.Chemscore.Hbond>
1.7781

> <Gold.Chemscore.Metal>
0.0000

> <Gold.Chemscore.Lipo>
131.1873

> <Gold.Chemscore.Internal_Hbond>
0.0000

> <Gold.Chemscore.DEClash>
0.9652

> <Gold.Chemscore.DEInternal>
1.3499

> <Gold.Chemscore.Rot>
1.8222

> <Gold.Chemscore.Internal.Correction>
   9.000000E+99

> <Gold.Chemscore.Hbonds>
donor molecule, donor type, donor heavy atom, donor atom, acceptor molecule, acceptor atom, score
      P1  H 10752 10763       L1    10  0.98
      P1  H 10752 10765       L1    14  0.11

> <Gold.Chemscore.Hbond.Weighted>
-5.9388

> <Gold.Chemscore.Metal.Weighted>
-0.0000

> <Gold.Chemscore.Lipo.Weighted>
-15.3489

> <Gold.Chemscore.Internal_Hbond.Weighted>
0.0000

> <Gold.Chemscore.DEClash.Weighted>
0.9652

> <Gold.Chemscore.DEInternal.Weighted>
1.3499

> <Gold.Chemscore.Rot.Weighted>
4.6649

> <Gold.Chemscore.Internal.Correction.Weighted>
   9.000000E+99

> <Gold.Protein.RotatedTorsions>
[ 6907 6896 6895 6894 ] final   12.44 input  -60.11 | X-H torsion
[ 7974 7965 7964 7962 ] final   12.97 input  175.53 | X-H torsion
[ 8008 7997 7996 7995 ] final  179.90 input   59.86 | X-H torsion
[ 10167 10162 10161 10158 ] final  164.05 input  -65.29 | X-H torsion
[ 10718 10713 10712 10709 ] final  -55.58 input   66.30 | X-H torsion
[ 10763 10752 10751 10750 ] final  162.54 input  -60.55 | X-H torsion
[ 11005 11000 10999 10996 ] final  -12.23 input  -57.11 | X-H torsion

> <Gold.Protein.ActiveResidues>
 VAL166  LYS551  ARG553  GLY616  TRP617  ASP618  TYR619  PRO620  LYS621  CYS622 
 ASP623  PHE694  ASN695  SER759  ASP760  ASP761  ALA762  ILE779  LEU786  VAL792 
 PHE793  MET794  SER795  GLU796  ALA797  LYS798  CYS799  TRP800  GLU811  SER814 

> <Gold.Protein.RotatedAtoms>
  151.7703  135.0788  160.0358 H   0  0  0  0  0  0  0  0  0  0  0  0  # atno 6907 bound_to 6896
  152.3293  133.5936  159.5807 H   0  0  0  0  0  0  0  0  0  0  0  0  # atno 6908 bound_to 6896
  150.7413  133.9809  159.3617 H   0  0  0  0  0  0  0  0  0  0  0  0  # atno 6909 bound_to 6896
  146.2340  139.9258  142.8503 H   0  0  0  0  0  0  0  0  0  0  0  0  # atno 7974 bound_to 7965
  156.0381  140.1297  157.0185 H   0  0  0  0  0  0  0  0  0  0  0  0  # atno 8008 bound_to 7997
  154.4379  140.1036  156.6268 H   0  0  0  0  0  0  0  0  0  0  0  0  # atno 8009 bound_to 7997
  155.5707  140.3466  155.4516 H   0  0  0  0  0  0  0  0  0  0  0  0  # atno 8010 bound_to 7997
  139.4883  144.4275  151.9111 H   0  0  0  0  0  0  0  0  0  0  0  0  # atno 10167 bound_to 10162
  156.1357  130.4157  150.0189 H   0  0  0  0  0  0  0  0  0  0  0  0  # atno 10718 bound_to 10713
  154.2799  135.2763  155.2701 H   0  0  0  0  0  0  0  0  0  0  0  0  # atno 10763 bound_to 10752
  154.5227  135.5752  153.6697 H   0  0  0  0  0  0  0  0  0  0  0  0  # atno 10764 bound_to 10752
  152.9931  135.6208  154.2958 H   0  0  0  0  0  0  0  0  0  0  0  0  # atno 10765 bound_to 10752
  140.7635  133.8495  155.9145 H   0  0  0  0  0  0  0  0  0  0  0  0  # atno 11005 bound_to 11000
  145.2092  140.9888  143.4110 LP  0  0  0  0  0  0  0  0  0  0  0  0  # atno 17320 bound_to 7965
  144.9706  139.3884  143.6311 LP  0  0  0  0  0  0  0  0  0  0  0  0  # atno 17321 bound_to 7965
  140.3721  144.2842  150.5918 LP  0  0  0  0  0  0  0  0  0  0  0  0  # atno 17342 bound_to 10162
  140.5309  143.2243  151.8240 LP  0  0  0  0  0  0  0  0  0  0  0  0  # atno 17343 bound_to 10162
  156.8089  130.9317  151.3644 LP  0  0  0  0  0  0  0  0  0  0  0  0  # atno 17370 bound_to 10713
  157.6530  130.8900  149.9672 LP  0  0  0  0  0  0  0  0  0  0  0  0  # atno 17371 bound_to 10713
  140.9640  134.1618  157.4631 LP  0  0  0  0  0  0  0  0  0  0  0  0  # atno 17394 bound_to 11000
  139.8767  134.9955  156.5747 LP  0  0  0  0  0  0  0  0  0  0  0  0  # atno 17395 bound_to 11000

$$$$
