AV-unprocessed.smi:2888|AV-procd|sdf|11100|dock4
  -GOLD-   2272015573D 1   1.00000     0.00000
 Structure written by MMmdl.
 33 35  0  0  0  0  0  0  0  0  1 V2000
  148.2472  141.5877  154.6920 C   0  0  0  0  0  0  0  0  0  0  0  0
  149.5311  140.9086  155.1185 C   0  0  0  0  0  0  0  0  0  0  0  0
  150.0375  139.7860  154.4308 C   0  0  0  0  0  0  0  0  0  0  0  0
  151.2422  139.2460  154.9280 C   0  0  0  0  0  0  0  0  0  0  0  0
  151.8970  138.0435  154.2822 C   0  0  0  0  0  0  0  0  0  0  0  0
  151.8720  139.7766  155.9999 N   0  0  0  0  0  0  0  0  0  0  0  0
  151.3049  140.8419  156.5719 C   0  0  0  0  0  0  0  0  0  0  0  0
  151.9810  141.3635  157.6594 N   0  0  0  0  0  0  0  0  0  0  0  0
  151.5508  142.5367  158.4097 C   0  0  2  0  0  0  0  0  0  0  0  0
  151.5158  143.8120  157.5581 C   0  0  0  0  0  0  0  0  0  0  0  0
  152.4273  144.7510  158.3577 C   0  0  1  0  0  0  0  0  0  0  0  0
  151.7998  145.1726  159.6935 C   0  0  0  0  0  0  0  0  0  0  0  0
  151.9252  143.8903  160.5159 C   0  0  0  0  0  0  0  0  0  0  0  0
  152.5590  142.9260  159.5039 C   0  0  2  0  0  0  0  0  0  0  0  0
  153.4035  143.8272  158.8053 O   0  0  0  0  0  0  0  0  0  0  0  0
  150.1676  141.4345  156.1878 N   0  0  0  0  0  0  0  0  0  0  0  0
  147.7673  141.0463  153.8762 H   0  0  0  0  0  0  0  0  0  0  0  0
  148.4520  142.6039  154.3543 H   0  0  0  0  0  0  0  0  0  0  0  0
  147.5471  141.6362  155.5264 H   0  0  0  0  0  0  0  0  0  0  0  0
  149.5329  139.3655  153.5733 H   0  0  0  0  0  0  0  0  0  0  0  0
  151.2619  137.6207  153.5034 H   0  0  0  0  0  0  0  0  0  0  0  0
  152.0861  137.2676  155.0246 H   0  0  0  0  0  0  0  0  0  0  0  0
  152.8477  138.3276  153.8308 H   0  0  0  0  0  0  0  0  0  0  0  0
  152.9084  141.0055  157.8360 H   0  0  0  0  0  0  0  0  0  0  0  0
  150.5778  142.3308  158.8580 H   0  0  0  0  0  0  0  0  0  0  0  0
  151.9311  143.6442  156.5631 H   0  0  0  0  0  0  0  0  0  0  0  0
  150.5074  144.2096  157.4387 H   0  0  0  0  0  0  0  0  0  0  0  0
  152.8281  145.5803  157.7742 H   0  0  0  0  0  0  0  0  0  0  0  0
  152.3693  145.9801  160.1551 H   0  0  0  0  0  0  0  0  0  0  0  0
  150.7673  145.5040  159.5780 H   0  0  0  0  0  0  0  0  0  0  0  0
  152.5885  144.0463  161.3672 H   0  0  0  0  0  0  0  0  0  0  0  0
  150.9665  143.5315  160.8917 H   0  0  0  0  0  0  0  0  0  0  0  0
  153.0745  142.0840  159.9676 H   0  0  0  0  0  0  0  0  0  0  0  0
  1  2  1  0  0  0  0
  1 17  1  0  0  0  0
  1 18  1  0  0  0  0
  1 19  1  0  0  0  0
  2 16  1  0  0  0  0
  2  3  2  0  0  0  0
  3  4  1  0  0  0  0
  3 20  1  0  0  0  0
  4  5  1  0  0  0  0
  4  6  2  0  0  0  0
  5 21  1  0  0  0  0
  5 22  1  0  0  0  0
  5 23  1  0  0  0  0
  6  7  1  0  0  0  0
  7  8  1  0  0  0  0
  7 16  2  0  0  0  0
  8  9  1  0  0  0  0
  8 24  1  0  0  0  0
  9 14  1  0  0  0  0
  9 10  1  0  0  0  0
  9 25  1  0  0  0  0
 10 11  1  0  0  0  0
 10 26  1  0  0  0  0
 10 27  1  0  0  0  0
 11 15  1  0  0  0  0
 11 12  1  0  0  0  0
 11 28  1  0  0  0  0
 12 13  1  0  0  0  0
 12 29  1  0  0  0  0
 12 30  1  0  0  0  0
 13 14  1  0  0  0  0
 13 31  1  0  0  0  0
 13 32  1  0  0  0  0
 14 15  1  0  0  0  0
 14 33  1  0  0  0  0
M  END
> <s_m_source_file>
AV-unprocessed.smi

> <i_m_source_file_index>
2888

> <i_lp_mmshare_version>
43012

> <i_f3d_flags>
0

> <s_epik_input>
W0NIM11jMVtjSF1jKFtDSDNdKW5jKG4xKVtOSF1bQ0BIXShbQ0gyXVtDQEBIXTIzKVtDQEBIXShPMylbQ0gyXVtDSDJdMg==

> <s_epik_cmdline>
J2VwaWtfcHl0aG9uJywgJy1waCcsICc3LjAnLCAnLXRuJywgJzgnLCAnLW1hJywgJzIwMCcsICctbWV0YWxfYmluZGluZycsICctaW1hZScsICc8aW5maWxlLm1hZT4nLCAnLW9tYWUnLCAnPG91dGZpbGUubWFlPic=

> <r_lp_tautomer_probability>
1

> <r_epik_Ionization_Penalty>
0.00890508

> <r_epik_Ionization_Penalty_Charging>
0

> <r_epik_Ionization_Penalty_Neutral>
0.00890508

> <r_epik_State_Penalty>
0.0067342

> <r_epik_Charging_Adjusted_Penalty>
0.0067342

> <i_epik_Tot_Q>
0

> <i_epik_Tot_abs_Q>
0

> <r_epik_Metal_State_Penalty>
0.00663442

> <b_epik_Metal_Only>
0

> <s_lp_Force_Field>
OPLS_2005

> <r_lp_Energy>
31.5378

> <b_lp_Chiralities_Consistent>
1

> <s_lp_Variant>
AV-unprocessed.smi:2888-1

> <Gold.Version>
5.8.1

> <Gold.Id.Protein>
6NUR|6NUR_protein|mol2

> <Gold.PLP.Fitness>
40.8344

> <Gold.PLP.PLP>
-40.8360

> <Gold.PLP.part.hbond>
0.0000

> <Gold.PLP.part.metal>
0.0000

> <Gold.PLP.part.buried>
-1.9139

> <Gold.PLP.part.nonpolar>
-37.9188

> <Gold.PLP.part.repulsive>
0.1544

> <Gold.PLP.ligand.clash>
0.0000

> <Gold.PLP.ligand.torsion>
0.0102

> <Gold.PLP.Chemscore.Hbond>
0.0000

> <Gold.PLP.Chemscore.CHOScore>
0.0000

> <Gold.PLP.Chemscore.Metal>
0.0000

> <Gold.PLP.Chemscore.Internal.Correction>
0.0187

> <Gold.Rescore>
     Score         DG    S(hbond)    S(metal)    S(lipo)     H(rot)  DE(clash)    DE(int)     intcor
     15.90     -15.96       0.00        0.00     111.46       1.00       0.04       0.01       ----

> <Gold.Chemscore.Fitness>
15.9046

> <Gold.Chemscore.DG>
-15.9609

> <Gold.Chemscore.ZeroCoef>
-5.4800

> <Gold.Chemscore.Hbond>
0.0000

> <Gold.Chemscore.Metal>
0.0000

> <Gold.Chemscore.Lipo>
111.4604

> <Gold.Chemscore.Internal_Hbond>
0.0000

> <Gold.Chemscore.DEClash>
0.0424

> <Gold.Chemscore.DEInternal>
0.0138

> <Gold.Chemscore.Rot>
1.0000

> <Gold.Chemscore.Internal.Correction>
   9.000000E+99

> <Gold.Chemscore.Hbond.Weighted>
-0.0000

> <Gold.Chemscore.Metal.Weighted>
-0.0000

> <Gold.Chemscore.Lipo.Weighted>
-13.0409

> <Gold.Chemscore.Internal_Hbond.Weighted>
0.0000

> <Gold.Chemscore.DEClash.Weighted>
0.0424

> <Gold.Chemscore.DEInternal.Weighted>
0.0138

> <Gold.Chemscore.Rot.Weighted>
2.5600

> <Gold.Chemscore.Internal.Correction.Weighted>
   9.000000E+99

> <Gold.Protein.RotatedTorsions>
[ 6907 6896 6895 6894 ] final   89.50 input  -60.11 | X-H torsion
[ 7974 7965 7964 7962 ] final  -99.81 input  175.53 | X-H torsion
[ 8008 7997 7996 7995 ] final   22.64 input   59.86 | X-H torsion
[ 10167 10162 10161 10158 ] final  -66.21 input  -65.29 | X-H torsion
[ 10718 10713 10712 10709 ] final  151.88 input   66.30 | X-H torsion
[ 10763 10752 10751 10750 ] final  174.84 input  -60.55 | X-H torsion
[ 11005 11000 10999 10996 ] final  158.81 input  -57.11 | X-H torsion

> <Gold.Protein.ActiveResidues>
 VAL166  LYS551  ARG553  GLY616  TRP617  ASP618  TYR619  PRO620  LYS621  CYS622 
 ASP623  PHE694  ASN695  SER759  ASP760  ASP761  ALA762  ILE779  LEU786  VAL792 
 PHE793  MET794  SER795  GLU796  ALA797  LYS798  CYS799  TRP800  GLU811  SER814 

> <Gold.Protein.RotatedAtoms>
  152.5437  134.1956  159.8691 H   0  0  0  0  0  0  0  0  0  0  0  0  # atno 6907 bound_to 6896
  151.1948  133.4638  159.2603 H   0  0  0  0  0  0  0  0  0  0  0  0  # atno 6908 bound_to 6896
  151.1047  135.0005  159.8521 H   0  0  0  0  0  0  0  0  0  0  0  0  # atno 6909 bound_to 6896
  145.3027  140.9381  143.2814 H   0  0  0  0  0  0  0  0  0  0  0  0  # atno 7974 bound_to 7965
  154.9689  140.3087  155.4997 H   0  0  0  0  0  0  0  0  0  0  0  0  # atno 8008 bound_to 7997
  156.2968  140.2287  156.4719 H   0  0  0  0  0  0  0  0  0  0  0  0  # atno 8009 bound_to 7997
  154.7895  140.0440  157.1178 H   0  0  0  0  0  0  0  0  0  0  0  0  # atno 8010 bound_to 7997
  140.5674  143.2315  151.6608 H   0  0  0  0  0  0  0  0  0  0  0  0  # atno 10167 bound_to 10162
  157.2649  131.0805  151.1640 H   0  0  0  0  0  0  0  0  0  0  0  0  # atno 10718 bound_to 10713
  154.4594  135.2767  155.1724 H   0  0  0  0  0  0  0  0  0  0  0  0  # atno 10763 bound_to 10752
  154.3518  135.6148  153.5650 H   0  0  0  0  0  0  0  0  0  0  0  0  # atno 10764 bound_to 10752
  152.9853  135.5813  154.4953 H   0  0  0  0  0  0  0  0  0  0  0  0  # atno 10765 bound_to 10752
  140.1901  134.8413  157.2903 H   0  0  0  0  0  0  0  0  0  0  0  0  # atno 11005 bound_to 11000
  144.9080  139.4564  143.6600 LP  0  0  0  0  0  0  0  0  0  0  0  0  # atno 17320 bound_to 7965
  146.3146  139.7872  142.8993 LP  0  0  0  0  0  0  0  0  0  0  0  0  # atno 17321 bound_to 7965
  139.5100  144.3559  152.0608 LP  0  0  0  0  0  0  0  0  0  0  0  0  # atno 17342 bound_to 10162
  140.2692  144.3983  150.6157 LP  0  0  0  0  0  0  0  0  0  0  0  0  # atno 17343 bound_to 10162
  157.3134  130.6901  149.6228 LP  0  0  0  0  0  0  0  0  0  0  0  0  # atno 17370 bound_to 10713
  155.9663  130.4356  150.5101 LP  0  0  0  0  0  0  0  0  0  0  0  0  # atno 17371 bound_to 10713
  140.2169  134.4071  155.7585 LP  0  0  0  0  0  0  0  0  0  0  0  0  # atno 17394 bound_to 11000
  141.2226  133.7146  156.8428 LP  0  0  0  0  0  0  0  0  0  0  0  0  # atno 17395 bound_to 11000

$$$$
