AV-unprocessed.smi:3149|AV-procd|sdf|12001|dock6
  -GOLD-   2272017403D 1   1.00000     0.00000
 Structure written by MMmdl.
 38 39  0  0  0  0  0  0  0  0  2 V2000
  151.3949  138.1906  157.1406 C   0  0  0  0  0  0  0  0  0  0  0  0
  152.0178  139.3552  156.3413 C   0  0  2  0  0  0  0  0  0  0  0  0
  151.6562  140.6521  156.9582 N   0  3  0  0  0  0  0  0  0  0  0  0
  152.3284  140.9565  158.2394 C   0  0  0  0  0  0  0  0  0  0  0  0
  151.6285  142.0978  158.9836 C   0  0  0  0  0  0  0  0  0  0  0  0
  150.6370  142.6458  158.5006 O   0  0  0  0  0  0  0  0  0  0  0  0
  152.2170  142.5508  160.1663 N   0  0  0  0  0  0  0  0  0  0  0  0
  151.4150  143.0187  161.2871 C   0  0  0  0  0  0  0  0  0  0  0  0
  152.5561  142.5114  162.1748 C   0  0  0  0  0  0  0  0  0  0  0  0
  153.0305  141.6669  160.9877 C   0  0  0  0  0  0  0  0  0  0  0  0
  151.6004  139.3541  154.8458 C   0  0  1  0  0  0  0  0  0  0  0  0
  152.0728  138.0892  154.1023 C   0  0  0  0  0  0  0  0  0  0  0  0
  150.1634  139.5272  154.6729 N   0  0  0  0  0  0  0  0  0  0  0  0
  149.2754  138.6964  154.0206 C   0  0  0  0  0  0  0  0  0  0  0  0
  148.0389  139.2683  154.1111 C   0  0  0  0  0  0  0  0  0  0  0  0
  148.2707  140.4610  154.8507 C   0  0  0  0  0  0  0  0  0  0  0  0
  149.5417  140.6133  155.1863 N   0  0  0  0  0  0  0  0  0  0  0  0
  151.7031  137.2207  156.7502 H   0  0  0  0  0  0  0  0  0  0  0  0
  150.3057  138.2286  157.1096 H   0  0  0  0  0  0  0  0  0  0  0  0
  151.6977  138.2092  158.1871 H   0  0  0  0  0  0  0  0  0  0  0  0
  153.1034  139.2523  156.3835 H   0  0  0  0  0  0  0  0  0  0  0  0
  151.9216  141.3814  156.3114 H   0  0  0  0  0  0  0  0  0  0  0  0
  152.3419  140.0655  158.8670 H   0  0  0  0  0  0  0  0  0  0  0  0
  153.3627  141.2468  158.0518 H   0  0  0  0  0  0  0  0  0  0  0  0
  151.2688  144.0991  161.3103 H   0  0  0  0  0  0  0  0  0  0  0  0
  150.4856  142.4625  161.4249 H   0  0  0  0  0  0  0  0  0  0  0  0
  153.2630  143.2928  162.4599 H   0  0  0  0  0  0  0  0  0  0  0  0
  152.2277  141.9285  163.0360 H   0  0  0  0  0  0  0  0  0  0  0  0
  152.6662  140.6379  161.0201 H   0  0  0  0  0  0  0  0  0  0  0  0
  154.0998  141.7298  160.7829 H   0  0  0  0  0  0  0  0  0  0  0  0
  152.0742  140.2123  154.3657 H   0  0  0  0  0  0  0  0  0  0  0  0
  153.1596  138.0052  154.1014 H   0  0  0  0  0  0  0  0  0  0  0  0
  151.7504  138.1056  153.0606 H   0  0  0  0  0  0  0  0  0  0  0  0
  151.6718  137.1831  154.5580 H   0  0  0  0  0  0  0  0  0  0  0  0
  149.5931  137.7783  153.5486 H   0  0  0  0  0  0  0  0  0  0  0  0
  147.1095  138.8913  153.7108 H   0  0  0  0  0  0  0  0  0  0  0  0
  147.5588  141.2156  155.1512 H   0  0  0  0  0  0  0  0  0  0  0  0
  150.6553  140.6932  157.0871 H   0  0  0  0  0  0  0  0  0  0  0  0
  1  2  1  0  0  0  0
  1 18  1  0  0  0  0
  1 19  1  0  0  0  0
  1 20  1  0  0  0  0
  2  3  1  0  0  0  0
  2 11  1  0  0  0  0
  2 21  1  0  0  0  0
  3  4  1  0  0  0  0
  3 22  1  0  0  0  0
  3 38  1  0  0  0  0
  4  5  1  0  0  0  0
  4 23  1  0  0  0  0
  4 24  1  0  0  0  0
  5  6  2  0  0  0  0
  5  7  1  0  0  0  0
  7 10  1  0  0  0  0
  7  8  1  0  0  0  0
  8  9  1  0  0  0  0
  8 25  1  0  0  0  0
  8 26  1  0  0  0  0
  9 10  1  0  0  0  0
  9 27  1  0  0  0  0
  9 28  1  0  0  0  0
 10 29  1  0  0  0  0
 10 30  1  0  0  0  0
 11 12  1  0  0  0  0
 11 13  1  0  0  0  0
 11 31  1  0  0  0  0
 12 32  1  0  0  0  0
 12 33  1  0  0  0  0
 12 34  1  0  0  0  0
 13 17  1  0  0  0  0
 13 14  1  0  0  0  0
 14 15  2  0  0  0  0
 14 35  1  0  0  0  0
 15 16  1  0  0  0  0
 15 36  1  0  0  0  0
 16 17  2  0  0  0  0
 16 37  1  0  0  0  0
M  CHG  1   3   1
M  END
> <s_m_source_file>
AV-unprocessed.smi

> <i_m_source_file_index>
3149

> <i_lp_mmshare_version>
43012

> <i_f3d_flags>
0

> <s_epik_input>
bjFbY0hdW2NIXVtjSF1uMVtDQEBIXShbQ0gzXSlbQ0BIXShbQ0gzXSlbTkhdW0NIMl1DKD1PKU4yW0NIMl1bQ0gyXVtDSDJdMg==

> <s_epik_cmdline>
J2VwaWtfcHl0aG9uJywgJy1waCcsICc3LjAnLCAnLXRuJywgJzgnLCAnLW1hJywgJzIwMCcsICctbWV0YWxfYmluZGluZycsICctaW1hZScsICc8aW5maWxlLm1hZT4nLCAnLW9tYWUnLCAnPG91dGZpbGUubWFlPic=

> <r_lp_tautomer_probability>
1

> <r_epik_Ionization_Penalty>
0.141739

> <r_epik_Ionization_Penalty_Charging>
0.141731

> <r_epik_Ionization_Penalty_Neutral>
8.82171e-06

> <r_epik_State_Penalty>
0.131043

> <r_epik_Charging_Adjusted_Penalty>
0.272773

> <i_epik_Tot_Q>
1

> <i_epik_Tot_abs_Q>
1

> <r_epik_Metal_State_Penalty>
0.131384

> <b_epik_Metal_Only>
0

> <s_lp_Force_Field>
OPLS_2005

> <r_lp_Energy>
21.3939

> <b_lp_Chiralities_Consistent>
1

> <s_lp_Variant>
AV-unprocessed.smi:3149-3

> <Gold.Version>
5.8.1

> <Gold.Id.Protein>
6NUR|6NUR_protein|mol2

> <Gold.PLP.Fitness>
43.2471

> <Gold.PLP.PLP>
-39.3816

> <Gold.PLP.part.hbond>
-1.0000

> <Gold.PLP.part.metal>
0.0000

> <Gold.PLP.part.buried>
-1.1964

> <Gold.PLP.part.nonpolar>
-36.3856

> <Gold.PLP.part.repulsive>
0.2838

> <Gold.PLP.ligand.clash>
0.0000

> <Gold.PLP.ligand.torsion>
0.6160

> <Gold.PLP.Chemscore.Hbond>
0.0000

> <Gold.PLP.Chemscore.CHOScore>
1.3864

> <Gold.PLP.Chemscore.Metal>
0.0000

> <Gold.Chemscore.Hbonds>
donor molecule, donor type, donor heavy atom, donor atom, acceptor molecule, acceptor atom, score
      L1  C    14    35       P1  7948  1.00

> <Gold.PLP.Chemscore.Internal.Correction>
0.9381

> <Gold.Rescore>
     Score         DG    S(hbond)    S(metal)    S(lipo)     H(rot)  DE(clash)    DE(int)     intcor
      9.08     -10.29       0.00        0.00      81.71       1.85       0.07       1.15       ----

> <Gold.Chemscore.Fitness>
9.0776

> <Gold.Chemscore.DG>
-10.2932

> <Gold.Chemscore.ZeroCoef>
-5.4800

> <Gold.Chemscore.Hbond>
0.0000

> <Gold.Chemscore.Metal>
0.0000

> <Gold.Chemscore.Lipo>
81.7125

> <Gold.Chemscore.Internal_Hbond>
0.0000

> <Gold.Chemscore.DEClash>
0.0678

> <Gold.Chemscore.DEInternal>
1.1478

> <Gold.Chemscore.Rot>
1.8544

> <Gold.Chemscore.Internal.Correction>
   9.000000E+99

> <Gold.Chemscore.Hbond.Weighted>
-0.0000

> <Gold.Chemscore.Metal.Weighted>
-0.0000

> <Gold.Chemscore.Lipo.Weighted>
-9.5604

> <Gold.Chemscore.Internal_Hbond.Weighted>
0.0000

> <Gold.Chemscore.DEClash.Weighted>
0.0678

> <Gold.Chemscore.DEInternal.Weighted>
1.1478

> <Gold.Chemscore.Rot.Weighted>
4.7472

> <Gold.Chemscore.Internal.Correction.Weighted>
   9.000000E+99

> <Gold.Protein.RotatedTorsions>
[ 6907 6896 6895 6894 ] final -113.57 input  -60.11 | X-H torsion
[ 7974 7965 7964 7962 ] final -116.62 input  175.53 | X-H torsion
[ 8008 7997 7996 7995 ] final   86.02 input   59.86 | X-H torsion
[ 10167 10162 10161 10158 ] final  155.42 input  -65.29 | X-H torsion
[ 10718 10713 10712 10709 ] final  112.93 input   66.30 | X-H torsion
[ 10763 10752 10751 10750 ] final   56.42 input  -60.55 | X-H torsion
[ 11005 11000 10999 10996 ] final   60.96 input  -57.11 | X-H torsion

> <Gold.Protein.ActiveResidues>
 VAL166  LYS551  ARG553  GLY616  TRP617  ASP618  TYR619  PRO620  LYS621  CYS622 
 ASP623  PHE694  ASN695  SER759  ASP760  ASP761  ALA762  ILE779  LEU786  VAL792 
 PHE793  MET794  SER795  GLU796  ALA797  LYS798  CYS799  TRP800  GLU811  SER814 

> <Gold.Protein.RotatedAtoms>
  150.7839  133.8925  159.3317 H   0  0  0  0  0  0  0  0  0  0  0  0  # atno 6907 bound_to 6896
  151.6781  135.0964  160.0220 H   0  0  0  0  0  0  0  0  0  0  0  0  # atno 6908 bound_to 6896
  152.3898  133.6624  159.6263 H   0  0  0  0  0  0  0  0  0  0  0  0  # atno 6909 bound_to 6896
  145.0947  140.8513  143.3962 H   0  0  0  0  0  0  0  0  0  0  0  0  # atno 7974 bound_to 7965
  155.9575  140.3396  155.6461 H   0  0  0  0  0  0  0  0  0  0  0  0  # atno 8008 bound_to 7997
  155.6841  140.0741  157.2491 H   0  0  0  0  0  0  0  0  0  0  0  0  # atno 8009 bound_to 7997
  154.4135  140.1669  156.2002 H   0  0  0  0  0  0  0  0  0  0  0  0  # atno 8010 bound_to 7997
  139.4821  144.5100  151.8039 H   0  0  0  0  0  0  0  0  0  0  0  0  # atno 10167 bound_to 10162
  157.6366  131.0975  150.6967 H   0  0  0  0  0  0  0  0  0  0  0  0  # atno 10718 bound_to 10713
  152.9832  135.5677  154.5225 H   0  0  0  0  0  0  0  0  0  0  0  0  # atno 10763 bound_to 10752
  154.4711  135.2785  155.1644 H   0  0  0  0  0  0  0  0  0  0  0  0  # atno 10764 bound_to 10752
  154.3192  135.6272  153.5553 H   0  0  0  0  0  0  0  0  0  0  0  0  # atno 10765 bound_to 10752
  140.0195  134.6174  155.9661 H   0  0  0  0  0  0  0  0  0  0  0  0  # atno 11005 bound_to 11000
  145.1025  139.2813  143.5679 LP  0  0  0  0  0  0  0  0  0  0  0  0  # atno 17320 bound_to 7965
  146.3531  140.0596  142.8630 LP  0  0  0  0  0  0  0  0  0  0  0  0  # atno 17321 bound_to 7965
  140.4602  144.1733  150.5905 LP  0  0  0  0  0  0  0  0  0  0  0  0  # atno 17342 bound_to 10162
  140.4493  143.2493  151.9369 LP  0  0  0  0  0  0  0  0  0  0  0  0  # atno 17343 bound_to 10162
  156.7297  130.4706  149.5502 LP  0  0  0  0  0  0  0  0  0  0  0  0  # atno 17370 bound_to 10713
  156.1610  130.6374  151.0719 LP  0  0  0  0  0  0  0  0  0  0  0  0  # atno 17371 bound_to 10713
  141.1764  133.6541  156.4847 LP  0  0  0  0  0  0  0  0  0  0  0  0  # atno 17394 bound_to 11000
  140.4412  134.7013  157.4993 LP  0  0  0  0  0  0  0  0  0  0  0  0  # atno 17395 bound_to 11000

$$$$
