AV-unprocessed.smi:2760|AV-procd|sdf|10629|dock9
  -GOLD-   2272015 73D 1   1.00000     0.00000
 Structure written by MMmdl.
 32 33  0  0  0  0  0  0  0  0  1 V2000
  151.6892  139.2280  158.4842 O   0  0  0  0  0  0  0  0  0  0  0  0
  151.3200  140.2069  157.8390 C   0  0  0  0  0  0  0  0  0  0  0  0
  151.6764  141.5673  158.2609 C   0  0  0  0  0  0  0  0  0  0  0  0
  151.2603  142.6238  157.5343 C   0  0  0  0  0  0  0  0  0  0  0  0
  151.5729  144.0407  157.8840 C   0  0  0  0  0  0  0  0  0  0  0  0
  152.9864  144.5818  157.8717 C   0  0  0  0  0  0  0  0  0  0  0  0
  152.2528  144.4191  159.1822 C   0  0  0  0  0  0  0  0  0  0  0  0
  150.4991  142.4248  156.3949 N   0  0  0  0  0  0  0  0  0  0  0  0
  150.1705  141.1283  156.0131 C   0  0  0  0  0  0  0  0  0  0  0  0
  149.1616  141.0812  154.4898 S   0  0  0  0  0  0  0  0  0  0  0  0
  147.4855  141.5170  155.0486 C   0  0  0  0  0  0  0  0  0  0  0  0
  146.8177  142.5050  154.0886 C   0  0  0  0  0  0  0  0  0  0  0  0
  145.9125  143.3116  154.8227 O   0  0  0  0  0  0  0  0  0  0  0  0
  145.1349  144.1599  153.9926 C   0  0  0  0  0  0  0  0  0  0  0  0
  144.0607  144.8584  154.8355 C   0  0  0  0  0  0  0  0  0  0  0  0
  143.4804  145.8106  154.1064 F   0  0  0  0  0  0  0  0  0  0  0  0
  143.1301  143.9828  155.2145 F   0  0  0  0  0  0  0  0  0  0  0  0
  144.6128  145.4196  155.9110 F   0  0  0  0  0  0  0  0  0  0  0  0
  150.5449  140.0718  156.6754 N   0  0  0  0  0  0  0  0  0  0  0  0
  150.2067  143.2404  155.8769 H   0  0  0  0  0  0  0  0  0  0  0  0
  152.2704  141.7143  159.1512 H   0  0  0  0  0  0  0  0  0  0  0  0
  150.8016  144.7255  157.5355 H   0  0  0  0  0  0  0  0  0  0  0  0
  153.8028  143.8921  157.6658 H   0  0  0  0  0  0  0  0  0  0  0  0
  153.1313  145.5943  157.5009 H   0  0  0  0  0  0  0  0  0  0  0  0
  151.9095  145.3231  159.6809 H   0  0  0  0  0  0  0  0  0  0  0  0
  152.5839  143.6222  159.8452 H   0  0  0  0  0  0  0  0  0  0  0  0
  147.5407  141.9566  156.0453 H   0  0  0  0  0  0  0  0  0  0  0  0
  146.8815  140.6118  155.1190 H   0  0  0  0  0  0  0  0  0  0  0  0
  147.5725  143.1301  153.6089 H   0  0  0  0  0  0  0  0  0  0  0  0
  146.2863  141.9644  153.3038 H   0  0  0  0  0  0  0  0  0  0  0  0
  145.7745  144.9046  153.5161 H   0  0  0  0  0  0  0  0  0  0  0  0
  144.6638  143.5771  153.1994 H   0  0  0  0  0  0  0  0  0  0  0  0
  1  2  2  0  0  0  0
  2 19  1  0  0  0  0
  2  3  1  0  0  0  0
  3 21  1  0  0  0  0
  3  4  2  0  0  0  0
  4  5  1  0  0  0  0
  4  8  1  0  0  0  0
  5  7  1  0  0  0  0
  5  6  1  0  0  0  0
  5 22  1  0  0  0  0
  6  7  1  0  0  0  0
  6 23  1  0  0  0  0
  6 24  1  0  0  0  0
  7 25  1  0  0  0  0
  7 26  1  0  0  0  0
  8  9  1  0  0  0  0
  8 20  1  0  0  0  0
  9 10  1  0  0  0  0
  9 19  2  0  0  0  0
 10 11  1  0  0  0  0
 11 12  1  0  0  0  0
 11 27  1  0  0  0  0
 11 28  1  0  0  0  0
 12 13  1  0  0  0  0
 12 29  1  0  0  0  0
 12 30  1  0  0  0  0
 13 14  1  0  0  0  0
 14 15  1  0  0  0  0
 14 31  1  0  0  0  0
 14 32  1  0  0  0  0
 15 16  1  0  0  0  0
 15 17  1  0  0  0  0
 15 18  1  0  0  0  0
M  END
> <s_m_source_file>
AV-unprocessed.smi

> <i_m_source_file_index>
2760

> <i_lp_mmshare_version>
43012

> <i_f3d_flags>
0

> <s_epik_input>
W09IXWMxW2NIXWMoW0NIXTJbQ0gyXVtDSDJdMiluYyhuMSlTW0NIMl1bQ0gyXU9bQ0gyXUMoRikoRilG

> <s_epik_cmdline>
J2VwaWtfcHl0aG9uJywgJy1waCcsICc3LjAnLCAnLXRuJywgJzgnLCAnLW1hJywgJzIwMCcsICctbWV0YWxfYmluZGluZycsICctaW1hZScsICc8aW5maWxlLm1hZT4nLCAnLW9tYWUnLCAnPG91dGZpbGUubWFlPic=

> <r_lp_tautomer_probability>
0.273662

> <r_epik_Ionization_Penalty>
0.0792867

> <r_epik_Ionization_Penalty_Charging>
0.0792819

> <r_epik_Ionization_Penalty_Neutral>
4.79647e-06

> <r_epik_State_Penalty>
1.03359

> <r_epik_Charging_Adjusted_Penalty>
1.11287

> <i_epik_Tot_Q>
0

> <i_epik_Tot_abs_Q>
0

> <r_epik_Metal_State_Penalty>
1.68441

> <b_epik_Metal_Only>
0

> <s_lp_Force_Field>
OPLS_2005

> <r_lp_Energy>
16.1148

> <b_lp_Chiralities_Consistent>
1

> <s_lp_Variant>
AV-unprocessed.smi:2760-2

> <Gold.Version>
5.8.1

> <Gold.Id.Protein>
6NUR|6NUR_protein|mol2

> <Gold.PLP.Fitness>
44.2193

> <Gold.PLP.PLP>
-42.8571

> <Gold.PLP.part.hbond>
-1.0000

> <Gold.PLP.part.metal>
0.0000

> <Gold.PLP.part.buried>
-6.6362

> <Gold.PLP.part.nonpolar>
-35.1874

> <Gold.PLP.part.repulsive>
0.2917

> <Gold.PLP.ligand.clash>
0.0000

> <Gold.PLP.ligand.torsion>
0.9209

> <Gold.PLP.Chemscore.Hbond>
1.0000

> <Gold.PLP.Chemscore.CHOScore>
0.0000

> <Gold.PLP.Chemscore.Metal>
0.0000

> <Gold.Chemscore.Hbonds>
donor molecule, donor type, donor heavy atom, donor atom, acceptor molecule, acceptor atom, score
      L1  H     8    20       P1  8028  0.98

> <Gold.PLP.Chemscore.Internal.Correction>
0.2040

> <Gold.Rescore>
     Score         DG    S(hbond)    S(metal)    S(lipo)     H(rot)  DE(clash)    DE(int)     intcor
     11.68     -12.70       0.99        0.00      89.60       2.57       0.03       0.99       ----

> <Gold.Chemscore.Fitness>
11.6785

> <Gold.Chemscore.DG>
-12.7001

> <Gold.Chemscore.ZeroCoef>
-5.4800

> <Gold.Chemscore.Hbond>
0.9912

> <Gold.Chemscore.Metal>
0.0000

> <Gold.Chemscore.Lipo>
89.6040

> <Gold.Chemscore.Internal_Hbond>
0.0000

> <Gold.Chemscore.DEClash>
0.0286

> <Gold.Chemscore.DEInternal>
0.9930

> <Gold.Chemscore.Rot>
2.5680

> <Gold.Chemscore.Internal.Correction>
   9.000000E+99

> <Gold.Chemscore.Hbonds>
donor molecule, donor type, donor heavy atom, donor atom, acceptor molecule, acceptor atom, score
      L1  H     8    20       P1  8028  0.89

> <Gold.Chemscore.Hbond.Weighted>
-3.3106

> <Gold.Chemscore.Metal.Weighted>
-0.0000

> <Gold.Chemscore.Lipo.Weighted>
-10.4837

> <Gold.Chemscore.Internal_Hbond.Weighted>
0.0000

> <Gold.Chemscore.DEClash.Weighted>
0.0286

> <Gold.Chemscore.DEInternal.Weighted>
0.9930

> <Gold.Chemscore.Rot.Weighted>
6.5741

> <Gold.Chemscore.Internal.Correction.Weighted>
   9.000000E+99

> <Gold.Protein.RotatedTorsions>
[ 6907 6896 6895 6894 ] final  -55.45 input  -60.11 | X-H torsion
[ 7974 7965 7964 7962 ] final  -91.62 input  175.53 | X-H torsion
[ 8008 7997 7996 7995 ] final  139.76 input   59.86 | X-H torsion
[ 10167 10162 10161 10158 ] final  140.12 input  -65.29 | X-H torsion
[ 10718 10713 10712 10709 ] final   33.47 input   66.30 | X-H torsion
[ 10763 10752 10751 10750 ] final  162.13 input  -60.55 | X-H torsion
[ 11005 11000 10999 10996 ] final   20.20 input  -57.11 | X-H torsion

> <Gold.Protein.ActiveResidues>
 VAL166  LYS551  ARG553  GLY616  TRP617  ASP618  TYR619  PRO620  LYS621  CYS622 
 ASP623  PHE694  ASN695  SER759  ASP760  ASP761  ALA762  ILE779  LEU786  VAL792 
 PHE793  MET794  SER795  GLU796  ALA797  LYS798  CYS799  TRP800  GLU811  SER814 

> <Gold.Protein.RotatedAtoms>
  150.8250  134.7477  159.6804 H   0  0  0  0  0  0  0  0  0  0  0  0  # atno 6907 bound_to 6896
  152.4362  134.5678  159.9922 H   0  0  0  0  0  0  0  0  0  0  0  0  # atno 6908 bound_to 6896
  151.5853  133.3335  159.3052 H   0  0  0  0  0  0  0  0  0  0  0  0  # atno 6909 bound_to 6896
  145.4107  140.9545  143.2235 H   0  0  0  0  0  0  0  0  0  0  0  0  # atno 7974 bound_to 7965
  156.2986  140.2359  156.4289 H   0  0  0  0  0  0  0  0  0  0  0  0  # atno 8008 bound_to 7997
  154.8288  140.0434  157.1482 H   0  0  0  0  0  0  0  0  0  0  0  0  # atno 8009 bound_to 7997
  154.9232  140.3006  155.5209 H   0  0  0  0  0  0  0  0  0  0  0  0  # atno 8010 bound_to 7997
  139.5058  144.6253  151.5952 H   0  0  0  0  0  0  0  0  0  0  0  0  # atno 10167 bound_to 10162
  157.2983  130.7338  149.6651 H   0  0  0  0  0  0  0  0  0  0  0  0  # atno 10718 bound_to 10713
  154.2736  135.2765  155.2727 H   0  0  0  0  0  0  0  0  0  0  0  0  # atno 10763 bound_to 10752
  154.5280  135.5737  153.6739 H   0  0  0  0  0  0  0  0  0  0  0  0  # atno 10764 bound_to 10752
  152.9941  135.6220  154.2892 H   0  0  0  0  0  0  0  0  0  0  0  0  # atno 10765 bound_to 10752
  140.4052  134.1676  155.7665 H   0  0  0  0  0  0  0  0  0  0  0  0  # atno 11005 bound_to 11000
  144.8311  139.5628  143.6943 LP  0  0  0  0  0  0  0  0  0  0  0  0  # atno 17320 bound_to 7965
  146.2706  139.6626  142.9299 LP  0  0  0  0  0  0  0  0  0  0  0  0  # atno 17321 bound_to 7965
  140.5968  143.9681  150.6360 LP  0  0  0  0  0  0  0  0  0  0  0  0  # atno 17342 bound_to 10162
  140.2880  143.3344  152.1089 LP  0  0  0  0  0  0  0  0  0  0  0  0  # atno 17343 bound_to 10162
  155.9670  130.4288  150.4803 LP  0  0  0  0  0  0  0  0  0  0  0  0  # atno 17370 bound_to 10713
  157.2779  131.0600  151.2217 LP  0  0  0  0  0  0  0  0  0  0  0  0  # atno 17371 bound_to 10713
  141.1842  133.8349  157.1149 LP  0  0  0  0  0  0  0  0  0  0  0  0  # atno 17394 bound_to 11000
  140.0307  134.9902  157.0775 LP  0  0  0  0  0  0  0  0  0  0  0  0  # atno 17395 bound_to 11000

$$$$
