AV-unprocessed.smi:1798|AV-procd|sdf|7260|dock2
  -GOLD-   22720 8513D 1   1.00000     0.00000
 Structure written by MMmdl.
 40 41  0  0  0  0  0  0  0  0  3 V2000
  145.1844  143.5929  154.4007 C   0  0  0  0  0  0  0  0  0  0  0  0
  146.1028  142.3862  154.6413 C   0  0  2  0  0  0  0  0  0  0  0  0
  146.3754  142.1755  156.1429 C   0  0  0  0  0  0  0  0  0  0  0  0
  147.2994  140.9693  156.3899 C   0  0  0  0  0  0  0  0  0  0  0  0
  148.6222  141.0756  155.6070 C   0  0  2  0  0  0  0  0  0  0  0  0
  149.4626  142.1284  156.1753 N   0  0  0  0  0  0  0  0  0  0  0  0
  150.2253  142.0107  157.2724 C   0  0  0  0  0  0  0  0  0  0  0  0
  150.3067  140.9720  157.9299 O   0  0  0  0  0  0  0  0  0  0  0  0
  151.0292  143.2585  157.6649 C   0  0  0  0  0  0  0  0  0  0  0  0
  151.7150  143.1276  158.9616 N   0  0  0  0  0  0  0  0  0  0  0  0
  152.6710  142.0994  159.0791 C   0  0  0  0  0  0  0  0  0  0  0  0
  153.3548  141.8842  160.2200 C   0  0  0  0  0  0  0  0  0  0  0  0
  154.3303  140.8212  160.3238 N   0  3  0  0  0  0  0  0  0  0  0  0
  155.0239  140.7561  161.3334 O   0  0  0  0  0  0  0  0  0  0  0  0
  154.4365  140.0180  159.4017 O   0  5  0  0  0  0  0  0  0  0  0  0
  153.0780  142.7551  161.3460 C   0  0  0  0  0  0  0  0  0  0  0  0
  152.1617  143.7376  161.2414 C   0  0  0  0  0  0  0  0  0  0  0  0
  151.4159  143.9671  159.9996 C   0  0  0  0  0  0  0  0  0  0  0  0
  150.5740  144.8597  159.8995 O   0  0  0  0  0  0  0  0  0  0  0  0
  148.3519  141.3168  154.1066 C   0  0  0  0  0  0  0  0  0  0  0  0
  147.4279  142.5238  153.8676 C   0  0  0  0  0  0  0  0  0  0  0  0
  145.6433  144.5176  154.7521 H   0  0  0  0  0  0  0  0  0  0  0  0
  144.2344  143.4729  154.9223 H   0  0  0  0  0  0  0  0  0  0  0  0
  144.9643  143.7132  153.3398 H   0  0  0  0  0  0  0  0  0  0  0  0
  145.5862  141.5011  154.2669 H   0  0  0  0  0  0  0  0  0  0  0  0
  146.8241  143.0747  156.5668 H   0  0  0  0  0  0  0  0  0  0  0  0
  145.4345  142.0254  156.6737 H   0  0  0  0  0  0  0  0  0  0  0  0
  147.4992  140.8631  157.4569 H   0  0  0  0  0  0  0  0  0  0  0  0
  146.7800  140.0588  156.0886 H   0  0  0  0  0  0  0  0  0  0  0  0
  149.1507  140.1269  155.7172 H   0  0  0  0  0  0  0  0  0  0  0  0
  149.4621  143.0161  155.6941 H   0  0  0  0  0  0  0  0  0  0  0  0
  151.7491  143.4624  156.8710 H   0  0  0  0  0  0  0  0  0  0  0  0
  150.3655  144.1254  157.6759 H   0  0  0  0  0  0  0  0  0  0  0  0
  152.7987  141.5028  158.1873 H   0  0  0  0  0  0  0  0  0  0  0  0
  153.6021  142.6252  162.2815 H   0  0  0  0  0  0  0  0  0  0  0  0
  151.9701  144.3739  162.0929 H   0  0  0  0  0  0  0  0  0  0  0  0
  149.2888  141.4511  153.5647 H   0  0  0  0  0  0  0  0  0  0  0  0
  147.8864  140.4261  153.6825 H   0  0  0  0  0  0  0  0  0  0  0  0
  147.2270  142.6202  152.8001 H   0  0  0  0  0  0  0  0  0  0  0  0
  147.9380  143.4406  154.1667 H   0  0  0  0  0  0  0  0  0  0  0  0
  1  2  1  0  0  0  0
  1 22  1  0  0  0  0
  1 23  1  0  0  0  0
  1 24  1  0  0  0  0
  2 21  1  0  0  0  0
  2  3  1  0  0  0  0
  2 25  1  0  0  0  0
  3  4  1  0  0  0  0
  3 26  1  0  0  0  0
  3 27  1  0  0  0  0
  4  5  1  0  0  0  0
  4 28  1  0  0  0  0
  4 29  1  0  0  0  0
  5  6  1  0  0  0  0
  5 20  1  0  0  0  0
  5 30  1  0  0  0  0
  6  7  1  0  0  0  0
  6 31  1  0  0  0  0
  7  8  2  0  0  0  0
  7  9  1  0  0  0  0
  9 10  1  0  0  0  0
  9 32  1  0  0  0  0
  9 33  1  0  0  0  0
 10 18  1  0  0  0  0
 10 11  1  0  0  0  0
 11 12  2  0  0  0  0
 11 34  1  0  0  0  0
 12 13  1  0  0  0  0
 12 16  1  0  0  0  0
 13 14  2  0  0  0  0
 13 15  1  0  0  0  0
 16 17  2  0  0  0  0
 16 35  1  0  0  0  0
 17 18  1  0  0  0  0
 17 36  1  0  0  0  0
 18 19  2  0  0  0  0
 20 21  1  0  0  0  0
 20 37  1  0  0  0  0
 20 38  1  0  0  0  0
 21 39  1  0  0  0  0
 21 40  1  0  0  0  0
M  CHG  1  13   1
M  CHG  1  15  -1
M  END
> <s_m_source_file>
AV-unprocessed.smi

> <i_m_source_file_index>
1798

> <i_lp_mmshare_version>
43012

> <i_f3d_flags>
0

> <s_epik_input>
W0NIM11bQ0BASF0xW0NIMl1bQ0gyXVtDQEhdKFtDSDJdW0NIMl0xKVtOSF1DKD1PKVtDSDJdbjJbY0hdYyhbTitdKD1PKVtPLV0pW2NIXVtjSF1jMj1P

> <s_epik_cmdline>
J2VwaWtfcHl0aG9uJywgJy1waCcsICc3LjAnLCAnLXRuJywgJzgnLCAnLW1hJywgJzIwMCcsICctbWV0YWxfYmluZGluZycsICctaW1hZScsICc8aW5maWxlLm1hZT4nLCAnLW9tYWUnLCAnPG91dGZpbGUubWFlPic=

> <r_lp_tautomer_probability>
1

> <r_epik_Ionization_Penalty>
1.91292e-08

> <r_epik_Ionization_Penalty_Charging>
8.23013e-11

> <r_epik_Ionization_Penalty_Neutral>
1.90469e-08

> <r_epik_State_Penalty>
-0

> <r_epik_Charging_Adjusted_Penalty>
8.23013e-11

> <i_epik_Tot_Q>
0

> <i_epik_Tot_abs_Q>
2

> <r_epik_Metal_State_Penalty>
-0

> <b_epik_Metal_Only>
0

> <s_lp_Force_Field>
OPLS_2005

> <r_lp_Energy>
19.5482

> <b_lp_Chiralities_Consistent>
1

> <s_lp_Variant>
AV-unprocessed.smi:1798-2

> <Gold.Version>
5.8.1

> <Gold.Id.Protein>
6NUR|6NUR_protein|mol2

> <Gold.PLP.Fitness>
50.1679

> <Gold.PLP.PLP>
-44.9574

> <Gold.PLP.part.hbond>
-3.0000

> <Gold.PLP.part.metal>
0.0000

> <Gold.PLP.part.buried>
-5.8160

> <Gold.PLP.part.nonpolar>
-36.6463

> <Gold.PLP.part.repulsive>
0.2640

> <Gold.PLP.ligand.clash>
0.0000

> <Gold.PLP.ligand.torsion>
0.3889

> <Gold.PLP.Chemscore.Hbond>
1.9920

> <Gold.PLP.Chemscore.CHOScore>
0.0000

> <Gold.PLP.Chemscore.Metal>
0.0000

> <Gold.Chemscore.Hbonds>
donor molecule, donor type, donor heavy atom, donor atom, acceptor molecule, acceptor atom, score
      L1  H     6    31       P1  8028  0.96
      P1  H  7997  8009       L1    15  0.67

> <Gold.PLP.Chemscore.Internal.Correction>
0.0122

> <Gold.Rescore>
     Score         DG    S(hbond)    S(metal)    S(lipo)     H(rot)  DE(clash)    DE(int)     intcor
     16.10     -17.58       1.97        0.00      81.14       1.55       0.02       1.46       ----

> <Gold.Chemscore.Fitness>
16.1026

> <Gold.Chemscore.DG>
-17.5815

> <Gold.Chemscore.ZeroCoef>
-5.4800

> <Gold.Chemscore.Hbond>
1.9693

> <Gold.Chemscore.Metal>
0.0000

> <Gold.Chemscore.Lipo>
81.1392

> <Gold.Chemscore.Internal_Hbond>
0.0000

> <Gold.Chemscore.DEClash>
0.0164

> <Gold.Chemscore.DEInternal>
1.4625

> <Gold.Chemscore.Rot>
1.5505

> <Gold.Chemscore.Internal.Correction>
   9.000000E+99

> <Gold.Chemscore.Hbonds>
donor molecule, donor type, donor heavy atom, donor atom, acceptor molecule, acceptor atom, score
      L1  H     6    31       P1  8028  0.92
      P1  H  7997  8009       L1    15  0.64

> <Gold.Chemscore.Hbond.Weighted>
-6.5774

> <Gold.Chemscore.Metal.Weighted>
-0.0000

> <Gold.Chemscore.Lipo.Weighted>
-9.4933

> <Gold.Chemscore.Internal_Hbond.Weighted>
0.0000

> <Gold.Chemscore.DEClash.Weighted>
0.0164

> <Gold.Chemscore.DEInternal.Weighted>
1.4625

> <Gold.Chemscore.Rot.Weighted>
3.9692

> <Gold.Chemscore.Internal.Correction.Weighted>
   9.000000E+99

> <Gold.Protein.RotatedTorsions>
[ 6907 6896 6895 6894 ] final  166.11 input  -60.11 | X-H torsion
[ 7974 7965 7964 7962 ] final -167.62 input  175.53 | X-H torsion
[ 8008 7997 7996 7995 ] final  118.94 input   59.86 | X-H torsion
[ 10167 10162 10161 10158 ] final  164.99 input  -65.29 | X-H torsion
[ 10718 10713 10712 10709 ] final   41.54 input   66.30 | X-H torsion
[ 10763 10752 10751 10750 ] final  -82.70 input  -60.55 | X-H torsion
[ 11005 11000 10999 10996 ] final -146.61 input  -57.11 | X-H torsion

> <Gold.Protein.ActiveResidues>
 VAL166  LYS551  ARG553  GLY616  TRP617  ASP618  TYR619  PRO620  LYS621  CYS622 
 ASP623  PHE694  ASN695  SER759  ASP760  ASP761  ALA762  ILE779  LEU786  VAL792 
 PHE793  MET794  SER795  GLU796  ALA797  LYS798  CYS799  TRP800  GLU811  SER814 

> <Gold.Protein.RotatedAtoms>
  151.8840  133.3501  159.3775 H   0  0  0  0  0  0  0  0  0  0  0  0  # atno 6907 bound_to 6896
  150.7120  134.4990  159.5561 H   0  0  0  0  0  0  0  0  0  0  0  0  # atno 6908 bound_to 6896
  152.2547  134.8096  160.0491 H   0  0  0  0  0  0  0  0  0  0  0  0  # atno 6909 bound_to 6896
  144.7219  140.2491  143.6281 H   0  0  0  0  0  0  0  0  0  0  0  0  # atno 7974 bound_to 7965
  156.2571  140.2864  156.0914 H   0  0  0  0  0  0  0  0  0  0  0  0  # atno 8008 bound_to 7997
  155.1459  140.0396  157.2827 H   0  0  0  0  0  0  0  0  0  0  0  0  # atno 8009 bound_to 7997
  154.6496  140.2541  155.7235 H   0  0  0  0  0  0  0  0  0  0  0  0  # atno 8010 bound_to 7997
  139.4898  144.4178  151.9222 H   0  0  0  0  0  0  0  0  0  0  0  0  # atno 10167 bound_to 10162
  157.3947  130.7826  149.7298 H   0  0  0  0  0  0  0  0  0  0  0  0  # atno 10718 bound_to 10713
  154.5789  135.5582  153.7167 H   0  0  0  0  0  0  0  0  0  0  0  0  # atno 10763 bound_to 10752
  153.0074  135.6315  154.2009 H   0  0  0  0  0  0  0  0  0  0  0  0  # atno 10764 bound_to 10752
  154.1950  135.2880  155.2989 H   0  0  0  0  0  0  0  0  0  0  0  0  # atno 10765 bound_to 10752
  140.7802  134.3088  157.5048 H   0  0  0  0  0  0  0  0  0  0  0  0  # atno 11005 bound_to 11000
  145.8246  139.2058  143.1918 LP  0  0  0  0  0  0  0  0  0  0  0  0  # atno 17320 bound_to 7965
  146.0484  140.8094  142.9793 LP  0  0  0  0  0  0  0  0  0  0  0  0  # atno 17321 bound_to 7965
  140.3622  144.2959  150.5932 LP  0  0  0  0  0  0  0  0  0  0  0  0  # atno 17342 bound_to 10162
  140.5393  143.2227  151.8111 LP  0  0  0  0  0  0  0  0  0  0  0  0  # atno 17343 bound_to 10162
  155.9807  130.4026  150.3512 LP  0  0  0  0  0  0  0  0  0  0  0  0  # atno 17370 bound_to 10713
  157.1633  131.0350  151.2830 LP  0  0  0  0  0  0  0  0  0  0  0  0  # atno 17371 bound_to 10713
  139.8743  134.9314  156.3526 LP  0  0  0  0  0  0  0  0  0  0  0  0  # atno 17394 bound_to 11000
  140.9490  133.7464  156.0246 LP  0  0  0  0  0  0  0  0  0  0  0  0  # atno 17395 bound_to 11000

$$$$
