AV-unprocessed.smi:3154|AV-procd|sdf|12021|dock10
  -GOLD-   2272017433D 1   1.00000     0.00000
 Structure written by MMmdl.
 35 36  0  0  0  0  0  0  0  0  2 V2000
  143.8003  137.5453  154.4800 C   0  0  0  0  0  0  0  0  0  0  0  0
  144.0953  137.0725  153.0466 C   0  0  2  0  0  0  0  0  0  0  0  0
  144.9112  135.7589  153.0156 C   0  0  0  0  0  0  0  0  0  0  0  0
  144.4875  134.8516  151.9645 N   0  0  0  0  0  0  0  0  0  0  0  0
  143.8946  133.6122  152.0852 C   0  0  0  0  0  0  0  0  0  0  0  0
  143.6957  133.1332  150.8221 C   0  0  0  0  0  0  0  0  0  0  0  0
  144.2119  134.1614  149.9848 C   0  0  0  0  0  0  0  0  0  0  0  0
  144.6890  135.1867  150.6720 N   0  0  0  0  0  0  0  0  0  0  0  0
  144.7931  138.1488  152.3091 N   0  3  0  0  0  0  0  0  0  0  0  0
  146.2666  138.0268  152.2542 C   0  0  0  0  0  0  0  0  0  0  0  0
  146.9619  138.9406  153.2650 C   0  0  0  0  0  0  0  0  0  0  0  0
  148.1192  138.7165  153.6223 O   0  0  0  0  0  0  0  0  0  0  0  0
  146.2378  139.9775  153.7105 N   0  0  0  0  0  0  0  0  0  0  0  0
  146.6853  140.9628  154.6414 C   0  0  0  0  0  0  0  0  0  0  0  0
  146.5502  142.4177  154.2472 C   0  0  0  0  0  0  0  0  0  0  0  0
  147.9086  141.7732  154.2697 C   0  0  0  0  0  0  0  0  0  0  0  0
  143.2041  136.8159  155.0290 H   0  0  0  0  0  0  0  0  0  0  0  0
  143.2390  138.4803  154.4764 H   0  0  0  0  0  0  0  0  0  0  0  0
  144.7208  137.7120  155.0404 H   0  0  0  0  0  0  0  0  0  0  0  0
  143.1342  136.9055  152.5576 H   0  0  0  0  0  0  0  0  0  0  0  0
  145.9724  135.9592  152.8673 H   0  0  0  0  0  0  0  0  0  0  0  0
  144.8238  135.2409  153.9716 H   0  0  0  0  0  0  0  0  0  0  0  0
  143.6649  133.1786  153.0474 H   0  0  0  0  0  0  0  0  0  0  0  0
  143.2517  132.1906  150.5384 H   0  0  0  0  0  0  0  0  0  0  0  0
  144.2552  134.1917  148.9060 H   0  0  0  0  0  0  0  0  0  0  0  0
  144.4603  138.1359  151.3556 H   0  0  0  0  0  0  0  0  0  0  0  0
  146.5680  136.9998  152.4588 H   0  0  0  0  0  0  0  0  0  0  0  0
  146.6133  138.2764  151.2506 H   0  0  0  0  0  0  0  0  0  0  0  0
  145.2967  140.0831  153.3596 H   0  0  0  0  0  0  0  0  0  0  0  0
  146.5662  140.7413  155.7011 H   0  0  0  0  0  0  0  0  0  0  0  0
  146.1187  142.6449  153.2743 H   0  0  0  0  0  0  0  0  0  0  0  0
  146.3200  143.1314  155.0358 H   0  0  0  0  0  0  0  0  0  0  0  0
  148.5858  142.0578  155.0726 H   0  0  0  0  0  0  0  0  0  0  0  0
  148.3829  141.5709  153.3113 H   0  0  0  0  0  0  0  0  0  0  0  0
  144.5497  139.0406  152.7159 H   0  0  0  0  0  0  0  0  0  0  0  0
  1  2  1  0  0  0  0
  1 17  1  0  0  0  0
  1 18  1  0  0  0  0
  1 19  1  0  0  0  0
  2  3  1  0  0  0  0
  2  9  1  0  0  0  0
  2 20  1  0  0  0  0
  3  4  1  0  0  0  0
  3 21  1  0  0  0  0
  3 22  1  0  0  0  0
  4  8  1  0  0  0  0
  4  5  1  0  0  0  0
  5  6  2  0  0  0  0
  5 23  1  0  0  0  0
  6  7  1  0  0  0  0
  6 24  1  0  0  0  0
  7  8  2  0  0  0  0
  7 25  1  0  0  0  0
  9 10  1  0  0  0  0
  9 26  1  0  0  0  0
  9 35  1  0  0  0  0
 10 11  1  0  0  0  0
 10 27  1  0  0  0  0
 10 28  1  0  0  0  0
 11 12  2  0  0  0  0
 11 13  1  0  0  0  0
 13 14  1  0  0  0  0
 13 29  1  0  0  0  0
 14 16  1  0  0  0  0
 14 15  1  0  0  0  0
 14 30  1  0  0  0  0
 15 16  1  0  0  0  0
 15 31  1  0  0  0  0
 15 32  1  0  0  0  0
 16 33  1  0  0  0  0
 16 34  1  0  0  0  0
M  CHG  1   9   1
M  END
> <s_m_source_file>
AV-unprocessed.smi

> <i_m_source_file_index>
3154

> <i_lp_mmshare_version>
43012

> <i_f3d_flags>
0

> <s_epik_input>
bjFbY0hdW2NIXVtjSF1uMVtDSDJdW0NAQEhdKFtDSDNdKVtOSF1bQ0gyXUMoPU8pW05IXVtDSF0yW0NIMl1bQ0gyXTI=

> <s_epik_cmdline>
J2VwaWtfcHl0aG9uJywgJy1waCcsICc3LjAnLCAnLXRuJywgJzgnLCAnLW1hJywgJzIwMCcsICctbWV0YWxfYmluZGluZycsICctaW1hZScsICc8aW5maWxlLm1hZT4nLCAnLW9tYWUnLCAnPG91dGZpbGUubWFlPic=

> <r_lp_tautomer_probability>
1

> <r_epik_Ionization_Penalty>
0.12065

> <r_epik_Ionization_Penalty_Charging>
0.120646

> <r_epik_Ionization_Penalty_Neutral>
4.1343e-06

> <r_epik_State_Penalty>
0.110186

> <r_epik_Charging_Adjusted_Penalty>
0.230832

> <i_epik_Tot_Q>
1

> <i_epik_Tot_abs_Q>
1

> <r_epik_Metal_State_Penalty>
0.110197

> <b_epik_Metal_Only>
0

> <s_lp_Force_Field>
OPLS_2005

> <r_lp_Energy>
15.3848

> <b_lp_Chiralities_Consistent>
1

> <s_lp_Variant>
AV-unprocessed.smi:3154-1

> <Gold.Version>
5.8.1

> <Gold.Id.Protein>
6NUR|6NUR_protein|mol2

> <Gold.PLP.Fitness>
43.6945

> <Gold.PLP.PLP>
-28.9409

> <Gold.PLP.part.hbond>
-2.8110

> <Gold.PLP.part.metal>
0.0000

> <Gold.PLP.part.buried>
-3.4635

> <Gold.PLP.part.nonpolar>
-23.9225

> <Gold.PLP.part.repulsive>
0.4764

> <Gold.PLP.ligand.clash>
0.0145

> <Gold.PLP.ligand.torsion>
1.6401

> <Gold.PLP.Chemscore.Hbond>
4.0000

> <Gold.PLP.Chemscore.CHOScore>
2.0000

> <Gold.PLP.Chemscore.Metal>
0.0000

> <Gold.Chemscore.Hbonds>
donor molecule, donor type, donor heavy atom, donor atom, acceptor molecule, acceptor atom, score
      L1  H     9    26       P1 10171  1.00
      L1  H     9    35       P1 10175  1.73
      L1  H    13    29       P1 10175  1.00
      L1  C     5    23       P1 10957  1.00
      L1  C     7    25       P1  7921  0.92

> <Gold.PLP.Chemscore.Internal.Correction>
0.0484

> <Gold.Rescore>
     Score         DG    S(hbond)    S(metal)    S(lipo)     H(rot)  DE(clash)    DE(int)     intcor
     14.42     -16.14       2.93        0.00      55.68       2.20       0.04       1.68       ----

> <Gold.Chemscore.Fitness>
14.4249

> <Gold.Chemscore.DG>
-16.1396

> <Gold.Chemscore.ZeroCoef>
-5.4800

> <Gold.Chemscore.Hbond>
2.9305

> <Gold.Chemscore.Metal>
0.0000

> <Gold.Chemscore.Lipo>
55.6794

> <Gold.Chemscore.Internal_Hbond>
0.0000

> <Gold.Chemscore.DEClash>
0.0359

> <Gold.Chemscore.DEInternal>
1.6788

> <Gold.Chemscore.Rot>
2.2042

> <Gold.Chemscore.Internal.Correction>
   9.000000E+99

> <Gold.Chemscore.Hbonds>
donor molecule, donor type, donor heavy atom, donor atom, acceptor molecule, acceptor atom, score
      L1  H     9    26       P1 10171  1.00
      L1  H     9    35       P1 10175  0.85
      L1  H    13    29       P1 10175  1.00

> <Gold.Chemscore.Hbond.Weighted>
-9.7878

> <Gold.Chemscore.Metal.Weighted>
-0.0000

> <Gold.Chemscore.Lipo.Weighted>
-6.5145

> <Gold.Chemscore.Internal_Hbond.Weighted>
0.0000

> <Gold.Chemscore.DEClash.Weighted>
0.0359

> <Gold.Chemscore.DEInternal.Weighted>
1.6788

> <Gold.Chemscore.Rot.Weighted>
5.6427

> <Gold.Chemscore.Internal.Correction.Weighted>
   9.000000E+99

> <Gold.Protein.RotatedTorsions>
[ 6907 6896 6895 6894 ] final -146.16 input  -60.11 | X-H torsion
[ 7974 7965 7964 7962 ] final  -58.00 input  175.53 | X-H torsion
[ 8008 7997 7996 7995 ] final  -70.53 input   59.86 | X-H torsion
[ 10167 10162 10161 10158 ] final  -21.26 input  -65.29 | X-H torsion
[ 10718 10713 10712 10709 ] final  -69.82 input   66.30 | X-H torsion
[ 10763 10752 10751 10750 ] final   69.91 input  -60.55 | X-H torsion
[ 11005 11000 10999 10996 ] final   67.99 input  -57.11 | X-H torsion

> <Gold.Protein.ActiveResidues>
 VAL166  LYS551  ARG553  GLY616  TRP617  ASP618  TYR619  PRO620  LYS621  CYS622 
 ASP623  PHE694  ASN695  SER759  ASP760  ASP761  ALA762  ILE779  LEU786  VAL792 
 PHE793  MET794  SER795  GLU796  ALA797  LYS798  CYS799  TRP800  GLU811  SER814 

> <Gold.Protein.RotatedAtoms>
  151.1378  133.4992  159.2597 H   0  0  0  0  0  0  0  0  0  0  0  0  # atno 6907 bound_to 6896
  151.1688  135.0308  159.8752 H   0  0  0  0  0  0  0  0  0  0  0  0  # atno 6908 bound_to 6896
  152.5461  134.1243  159.8465 H   0  0  0  0  0  0  0  0  0  0  0  0  # atno 6909 bound_to 6896
  145.8445  140.8394  143.0017 H   0  0  0  0  0  0  0  0  0  0  0  0  # atno 7974 bound_to 7965
  154.5019  140.0832  156.7815 H   0  0  0  0  0  0  0  0  0  0  0  0  # atno 8008 bound_to 7997
  155.3984  140.3436  155.4237 H   0  0  0  0  0  0  0  0  0  0  0  0  # atno 8009 bound_to 7997
  156.1467  140.1546  156.8823 H   0  0  0  0  0  0  0  0  0  0  0  0  # atno 8010 bound_to 7997
  140.7281  143.4645  151.0333 H   0  0  0  0  0  0  0  0  0  0  0  0  # atno 10167 bound_to 10162
  156.0437  130.4319  150.2204 H   0  0  0  0  0  0  0  0  0  0  0  0  # atno 10718 bound_to 10713
  153.0312  135.5193  154.7360 H   0  0  0  0  0  0  0  0  0  0  0  0  # atno 10763 bound_to 10752
  154.6373  135.2908  155.0147 H   0  0  0  0  0  0  0  0  0  0  0  0  # atno 10764 bound_to 10752
  154.1078  135.6626  153.4932 H   0  0  0  0  0  0  0  0  0  0  0  0  # atno 10765 bound_to 10752
  139.9738  134.6857  156.0395 H   0  0  0  0  0  0  0  0  0  0  0  0  # atno 11005 bound_to 11000
  144.6732  140.0861  143.7467 LP  0  0  0  0  0  0  0  0  0  0  0  0  # atno 17320 bound_to 7965
  145.9428  139.2680  143.1259 LP  0  0  0  0  0  0  0  0  0  0  0  0  # atno 17321 bound_to 7965
  139.8332  143.7663  152.3180 LP  0  0  0  0  0  0  0  0  0  0  0  0  # atno 17342 bound_to 10162
  139.7786  144.7452  151.0121 LP  0  0  0  0  0  0  0  0  0  0  0  0  # atno 17343 bound_to 10162
  157.0296  131.0003  151.3316 LP  0  0  0  0  0  0  0  0  0  0  0  0  # atno 17370 bound_to 10713
  157.5287  130.8044  149.7892 LP  0  0  0  0  0  0  0  0  0  0  0  0  # atno 17371 bound_to 10713
  141.1416  133.6563  156.3746 LP  0  0  0  0  0  0  0  0  0  0  0  0  # atno 17394 bound_to 11000
  140.5238  134.6278  157.5327 LP  0  0  0  0  0  0  0  0  0  0  0  0  # atno 17395 bound_to 11000

$$$$
