AV-unprocessed.smi:2541|AV-procd|sdf|9989|dock2
  -GOLD-   2272014 43D 1   1.00000     0.00000
 Structure written by MMmdl.
 38 39  0  0  0  0  0  0  0  0  1 V2000
  150.6127  140.9211  154.8684 O   0  0  0  0  0  0  0  0  0  0  0  0
  149.8093  141.8088  155.1603 C   0  0  0  0  0  0  0  0  0  0  0  0
  148.5653  142.0711  154.3011 C   0  0  0  0  0  0  0  0  0  0  0  0
  147.6877  140.8517  154.1764 C   0  0  0  0  0  0  0  0  0  0  0  0
  147.2275  140.2128  152.9912 C   0  0  0  0  0  0  0  0  0  0  0  0
  146.4799  139.1713  153.4594 C   0  0  0  0  0  0  0  0  0  0  0  0
  146.4812  139.1575  154.8163 O   0  0  0  0  0  0  0  0  0  0  0  0
  147.2574  140.2323  155.2654 N   0  0  0  0  0  0  0  0  0  0  0  0
  149.9510  142.6007  156.2346 N   0  0  0  0  0  0  0  0  0  0  0  0
  151.0609  142.5500  157.1823 C   0  0  0  0  0  0  0  0  0  0  0  0
  150.7633  143.3825  158.4503 C   0  0  2  0  0  0  0  0  0  0  0  0
  150.5726  144.7208  158.0284 O   0  0  0  0  0  0  0  0  0  0  0  0
  151.9012  143.3710  159.5088 C   0  0  0  0  0  0  0  0  0  0  0  0
  152.5412  141.9722  159.6893 C   0  0  0  0  0  0  0  0  0  0  0  0
  153.6465  141.9683  160.7584 C   0  0  0  0  0  0  0  0  0  0  0  0
  153.1262  142.4843  162.1057 C   0  0  0  0  0  0  0  0  0  0  0  0
  152.5080  143.8790  161.9487 C   0  0  0  0  0  0  0  0  0  0  0  0
  151.3992  143.8783  160.8847 C   0  0  0  0  0  0  0  0  0  0  0  0
  148.0022  142.8904  154.7490 H   0  0  0  0  0  0  0  0  0  0  0  0
  148.8807  142.4156  153.3149 H   0  0  0  0  0  0  0  0  0  0  0  0
  147.4125  140.4810  151.9617 H   0  0  0  0  0  0  0  0  0  0  0  0
  145.9129  138.3888  152.9769 H   0  0  0  0  0  0  0  0  0  0  0  0
  149.2458  143.3040  156.3996 H   0  0  0  0  0  0  0  0  0  0  0  0
  151.1703  141.4964  157.4309 H   0  0  0  0  0  0  0  0  0  0  0  0
  152.0051  142.8528  156.7259 H   0  0  0  0  0  0  0  0  0  0  0  0
  149.8401  143.0296  158.9124 H   0  0  0  0  0  0  0  0  0  0  0  0
  150.1529  144.7129  157.1817 H   0  0  0  0  0  0  0  0  0  0  0  0
  152.6846  144.0499  159.1672 H   0  0  0  0  0  0  0  0  0  0  0  0
  151.7720  141.2467  159.9576 H   0  0  0  0  0  0  0  0  0  0  0  0
  152.9842  141.6242  158.7578 H   0  0  0  0  0  0  0  0  0  0  0  0
  154.0445  140.9600  160.8767 H   0  0  0  0  0  0  0  0  0  0  0  0
  154.4780  142.5908  160.4253 H   0  0  0  0  0  0  0  0  0  0  0  0
  152.3803  141.7934  162.5008 H   0  0  0  0  0  0  0  0  0  0  0  0
  153.9381  142.5148  162.8329 H   0  0  0  0  0  0  0  0  0  0  0  0
  152.1048  144.2150  162.9044 H   0  0  0  0  0  0  0  0  0  0  0  0
  153.2821  144.5951  161.6702 H   0  0  0  0  0  0  0  0  0  0  0  0
  151.0025  144.8902  160.8015 H   0  0  0  0  0  0  0  0  0  0  0  0
  150.5721  143.2543  161.2257 H   0  0  0  0  0  0  0  0  0  0  0  0
  1  2  2  0  0  0  0
  2  3  1  0  0  0  0
  2  9  1  0  0  0  0
  3  4  1  0  0  0  0
  3 19  1  0  0  0  0
  3 20  1  0  0  0  0
  4  8  2  0  0  0  0
  4  5  1  0  0  0  0
  5  6  2  0  0  0  0
  5 21  1  0  0  0  0
  6  7  1  0  0  0  0
  6 22  1  0  0  0  0
  7  8  1  0  0  0  0
  9 10  1  0  0  0  0
  9 23  1  0  0  0  0
 10 11  1  0  0  0  0
 10 24  1  0  0  0  0
 10 25  1  0  0  0  0
 11 12  1  0  0  0  0
 11 13  1  0  0  0  0
 11 26  1  0  0  0  0
 12 27  1  0  0  0  0
 13 18  1  0  0  0  0
 13 14  1  0  0  0  0
 13 28  1  0  0  0  0
 14 15  1  0  0  0  0
 14 29  1  0  0  0  0
 14 30  1  0  0  0  0
 15 16  1  0  0  0  0
 15 31  1  0  0  0  0
 15 32  1  0  0  0  0
 16 17  1  0  0  0  0
 16 33  1  0  0  0  0
 16 34  1  0  0  0  0
 17 18  1  0  0  0  0
 17 35  1  0  0  0  0
 17 36  1  0  0  0  0
 18 37  1  0  0  0  0
 18 38  1  0  0  0  0
M  END
> <s_m_source_file>
AV-unprocessed.smi

> <i_m_source_file_index>
2541

> <i_lp_mmshare_version>
43012

> <i_f3d_flags>
0

> <s_epik_input>
bjFvW2NIXVtjSF1jMVtDSDJdQyg9TylbTkhdW0NIMl1bQ0BIXShbT0hdKVtDSF0yW0NIMl1bQ0gyXVtDSDJdW0NIMl1bQ0gyXTI=

> <s_epik_cmdline>
J2VwaWtfcHl0aG9uJywgJy1waCcsICc3LjAnLCAnLXRuJywgJzgnLCAnLW1hJywgJzIwMCcsICctbWV0YWxfYmluZGluZycsICctaW1hZScsICc8aW5maWxlLm1hZT4nLCAnLW9tYWUnLCAnPG91dGZpbGUubWFlPic=

> <r_lp_tautomer_probability>
1

> <r_epik_Ionization_Penalty>
2.3322e-07

> <r_epik_Ionization_Penalty_Charging>
0

> <r_epik_Ionization_Penalty_Neutral>
2.3322e-07

> <r_epik_State_Penalty>
-0

> <r_epik_Charging_Adjusted_Penalty>
0

> <i_epik_Tot_Q>
0

> <i_epik_Tot_abs_Q>
0

> <r_epik_Metal_State_Penalty>
-0

> <b_epik_Metal_Only>
0

> <s_lp_Force_Field>
OPLS_2005

> <r_lp_Energy>
14.1188

> <b_lp_Chiralities_Consistent>
1

> <s_lp_Variant>
AV-unprocessed.smi:2541-1

> <Gold.Version>
5.8.1

> <Gold.Id.Protein>
6NUR|6NUR_protein|mol2

> <Gold.PLP.Fitness>
49.0054

> <Gold.PLP.PLP>
-40.8857

> <Gold.PLP.part.hbond>
-3.4903

> <Gold.PLP.part.metal>
0.0000

> <Gold.PLP.part.buried>
-3.8743

> <Gold.PLP.part.nonpolar>
-32.9965

> <Gold.PLP.part.repulsive>
0.2193

> <Gold.PLP.ligand.clash>
0.0000

> <Gold.PLP.ligand.torsion>
0.4031

> <Gold.PLP.Chemscore.Hbond>
2.9440

> <Gold.PLP.Chemscore.CHOScore>
0.0000

> <Gold.PLP.Chemscore.Metal>
0.0000

> <Gold.Chemscore.Hbonds>
donor molecule, donor type, donor heavy atom, donor atom, acceptor molecule, acceptor atom, score
      L1  H     9    23       P1  8028  0.67
      L1  H    12    27       P1  8028  1.00
      P1  H  7989  7998       L1     1  0.77

> <Gold.PLP.Chemscore.Internal.Correction>
0.0938

> <Gold.Rescore>
     Score         DG    S(hbond)    S(metal)    S(lipo)     H(rot)  DE(clash)    DE(int)     intcor
     19.08     -19.99       2.35        0.00     109.90       2.42       0.23       0.68       ----

> <Gold.Chemscore.Fitness>
19.0828

> <Gold.Chemscore.DG>
-19.9928

> <Gold.Chemscore.ZeroCoef>
-5.4800

> <Gold.Chemscore.Hbond>
2.3481

> <Gold.Chemscore.Metal>
0.0000

> <Gold.Chemscore.Lipo>
109.8991

> <Gold.Chemscore.Internal_Hbond>
0.0000

> <Gold.Chemscore.DEClash>
0.2277

> <Gold.Chemscore.DEInternal>
0.6823

> <Gold.Chemscore.Rot>
2.4172

> <Gold.Chemscore.Internal.Correction>
   9.000000E+99

> <Gold.Chemscore.Hbonds>
donor molecule, donor type, donor heavy atom, donor atom, acceptor molecule, acceptor atom, score
      L1  H     9    23       P1  8028  0.68
      L1  H    12    27       P1  8028  0.34
      P1  H  7989  7998       L1     1  0.76

> <Gold.Chemscore.Hbond.Weighted>
-7.8426

> <Gold.Chemscore.Metal.Weighted>
-0.0000

> <Gold.Chemscore.Lipo.Weighted>
-12.8582

> <Gold.Chemscore.Internal_Hbond.Weighted>
0.0000

> <Gold.Chemscore.DEClash.Weighted>
0.2277

> <Gold.Chemscore.DEInternal.Weighted>
0.6823

> <Gold.Chemscore.Rot.Weighted>
6.1880

> <Gold.Chemscore.Internal.Correction.Weighted>
   9.000000E+99

> <Gold.Protein.RotatedTorsions>
[ 6907 6896 6895 6894 ] final   18.31 input  -60.11 | X-H torsion
[ 7974 7965 7964 7962 ] final   -6.43 input  175.53 | X-H torsion
[ 8008 7997 7996 7995 ] final  -48.34 input   59.86 | X-H torsion
[ 10167 10162 10161 10158 ] final   94.02 input  -65.29 | X-H torsion
[ 10718 10713 10712 10709 ] final   17.50 input   66.30 | X-H torsion
[ 10763 10752 10751 10750 ] final  128.36 input  -60.55 | X-H torsion
[ 11005 11000 10999 10996 ] final  -76.12 input  -57.11 | X-H torsion

> <Gold.Protein.ActiveResidues>
 VAL166  LYS551  ARG553  GLY616  TRP617  ASP618  TYR619  PRO620  LYS621  CYS622 
 ASP623  PHE694  ASN695  SER759  ASP760  ASP761  ALA762  ILE779  LEU786  VAL792 
 PHE793  MET794  SER795  GLU796  ALA797  LYS798  CYS799  TRP800  GLU811  SER814 

> <Gold.Protein.RotatedAtoms>
  151.8632  135.0516  160.0471 H   0  0  0  0  0  0  0  0  0  0  0  0  # atno 6907 bound_to 6896
  152.2646  133.5323  159.5411 H   0  0  0  0  0  0  0  0  0  0  0  0  # atno 6908 bound_to 6896
  150.7129  134.0698  159.3903 H   0  0  0  0  0  0  0  0  0  0  0  0  # atno 6909 bound_to 6896
  146.2331  140.2169  142.8336 H   0  0  0  0  0  0  0  0  0  0  0  0  # atno 7974 bound_to 7965
  154.4027  140.1324  156.4322 H   0  0  0  0  0  0  0  0  0  0  0  0  # atno 8008 bound_to 7997
  155.7539  140.3487  155.5144 H   0  0  0  0  0  0  0  0  0  0  0  0  # atno 8009 bound_to 7997
  155.8923  140.1005  157.1400 H   0  0  0  0  0  0  0  0  0  0  0  0  # atno 8010 bound_to 7997
  139.8124  144.6767  150.9623 H   0  0  0  0  0  0  0  0  0  0  0  0  # atno 10167 bound_to 10162
  157.0830  130.6396  149.5831 H   0  0  0  0  0  0  0  0  0  0  0  0  # atno 10718 bound_to 10713
  153.7243  135.3248  155.3273 H   0  0  0  0  0  0  0  0  0  0  0  0  # atno 10763 bound_to 10752
  154.8346  135.4507  154.1186 H   0  0  0  0  0  0  0  0  0  0  0  0  # atno 10764 bound_to 10752
  153.2315  135.6960  153.7965 H   0  0  0  0  0  0  0  0  0  0  0  0  # atno 10765 bound_to 10752
  141.1651  133.6972  156.7621 H   0  0  0  0  0  0  0  0  0  0  0  0  # atno 11005 bound_to 11000
  144.9663  140.8325  143.5483 LP  0  0  0  0  0  0  0  0  0  0  0  0  # atno 17320 bound_to 7965
  145.2145  139.2188  143.5125 LP  0  0  0  0  0  0  0  0  0  0  0  0  # atno 17321 bound_to 7965
  140.7817  143.4172  151.0898 LP  0  0  0  0  0  0  0  0  0  0  0  0  # atno 17342 bound_to 10162
  139.7838  143.8317  152.3142 LP  0  0  0  0  0  0  0  0  0  0  0  0  # atno 17343 bound_to 10162
  155.9918  130.4974  150.7315 LP  0  0  0  0  0  0  0  0  0  0  0  0  # atno 17370 bound_to 10713
  157.4784  131.0900  151.0564 LP  0  0  0  0  0  0  0  0  0  0  0  0  # atno 17371 bound_to 10713
  140.2526  134.8528  157.3682 LP  0  0  0  0  0  0  0  0  0  0  0  0  # atno 17394 bound_to 11000
  140.1687  134.4636  155.7845 LP  0  0  0  0  0  0  0  0  0  0  0  0  # atno 17395 bound_to 11000

$$$$
