AV-unprocessed.smi:1686|AV-procd|sdf|6764|dock8
  -GOLD-   22720 7523D 1   1.00000     0.00000
 Structure written by MMmdl.
 41 43  0  0  0  0  0  0  0  0  1 V2000
  152.8623  138.9582  154.3316 C   0  0  0  0  0  0  0  0  0  0  0  0
  151.5168  139.0648  154.9900 C   0  0  0  0  0  0  0  0  0  0  0  0
  150.4719  139.4606  154.2745 N   0  0  0  0  0  0  0  0  0  0  0  0
  149.3761  139.4640  155.1453 O   0  0  0  0  0  0  0  0  0  0  0  0
  149.8299  139.0611  156.3541 C   0  0  0  0  0  0  0  0  0  0  0  0
  148.8000  138.9248  157.7232 Cl  0  0  0  0  0  0  0  0  0  0  0  0
  151.1673  138.7871  156.3441 C   0  0  0  0  0  0  0  0  0  0  0  0
  152.0591  138.3180  157.4650 C   0  0  0  0  0  0  0  0  0  0  0  0
  152.9247  139.4819  157.9463 C   0  0  0  0  0  0  0  0  0  0  0  0
  154.1317  139.4913  157.7051 O   0  0  0  0  0  0  0  0  0  0  0  0
  152.2940  140.4620  158.6114 N   0  0  0  0  0  0  0  0  0  0  0  0
  152.9163  141.6921  159.0949 C   0  0  2  0  0  0  0  0  0  0  0  0
  154.0628  141.3516  160.0633 C   0  0  0  0  0  0  0  0  0  0  0  0
  151.8513  142.5963  159.7598 C   0  0  1  0  0  0  0  0  0  0  0  0
  152.3615  143.9959  160.1707 C   0  0  0  0  0  0  0  0  0  0  0  0
  151.3056  144.9414  159.5678 C   0  0  1  0  0  0  0  0  0  0  0  0
  151.4937  145.0007  158.0404 C   0  0  0  0  0  0  0  0  0  0  0  0
  150.9809  143.6232  157.5826 C   0  0  0  0  0  0  0  0  0  0  0  0
  150.6002  142.9425  158.9134 C   0  0  2  0  0  0  0  0  0  0  0  0
  150.0283  144.1203  159.6959 C   0  0  0  0  0  0  0  0  0  0  0  0
  153.6649  139.1735  155.0371 H   0  0  0  0  0  0  0  0  0  0  0  0
  152.9593  139.6597  153.5023 H   0  0  0  0  0  0  0  0  0  0  0  0
  153.0254  137.9543  153.9396 H   0  0  0  0  0  0  0  0  0  0  0  0
  151.4769  137.9182  158.2966 H   0  0  0  0  0  0  0  0  0  0  0  0
  152.7138  137.5086  157.1405 H   0  0  0  0  0  0  0  0  0  0  0  0
  151.3002  140.3670  158.7617 H   0  0  0  0  0  0  0  0  0  0  0  0
  153.3430  142.2266  158.2446 H   0  0  0  0  0  0  0  0  0  0  0  0
  154.5494  142.2536  160.4346 H   0  0  0  0  0  0  0  0  0  0  0  0
  154.8288  140.7493  159.5738 H   0  0  0  0  0  0  0  0  0  0  0  0
  153.7013  140.7911  160.9260 H   0  0  0  0  0  0  0  0  0  0  0  0
  151.4980  142.0867  160.6582 H   0  0  0  0  0  0  0  0  0  0  0  0
  152.3942  144.0863  161.2572 H   0  0  0  0  0  0  0  0  0  0  0  0
  153.3604  144.2159  159.7918 H   0  0  0  0  0  0  0  0  0  0  0  0
  151.2748  145.9224  160.0427 H   0  0  0  0  0  0  0  0  0  0  0  0
  150.8908  145.7979  157.6040 H   0  0  0  0  0  0  0  0  0  0  0  0
  152.5325  145.1737  157.7570 H   0  0  0  0  0  0  0  0  0  0  0  0
  150.0994  143.7392  156.9508 H   0  0  0  0  0  0  0  0  0  0  0  0
  151.7188  143.0661  157.0061 H   0  0  0  0  0  0  0  0  0  0  0  0
  149.9095  142.1080  158.7953 H   0  0  0  0  0  0  0  0  0  0  0  0
  149.7726  143.8751  160.7283 H   0  0  0  0  0  0  0  0  0  0  0  0
  149.1654  144.5840  159.2143 H   0  0  0  0  0  0  0  0  0  0  0  0
  1  2  1  0  0  0  0
  1 21  1  0  0  0  0
  1 22  1  0  0  0  0
  1 23  1  0  0  0  0
  2  7  1  0  0  0  0
  2  3  2  0  0  0  0
  3  4  1  0  0  0  0
  4  5  1  0  0  0  0
  5  6  1  0  0  0  0
  5  7  2  0  0  0  0
  7  8  1  0  0  0  0
  8  9  1  0  0  0  0
  8 24  1  0  0  0  0
  8 25  1  0  0  0  0
  9 10  2  0  0  0  0
  9 11  1  0  0  0  0
 11 12  1  0  0  0  0
 11 26  1  0  0  0  0
 12 13  1  0  0  0  0
 12 14  1  0  0  0  0
 12 27  1  0  0  0  0
 13 28  1  0  0  0  0
 13 29  1  0  0  0  0
 13 30  1  0  0  0  0
 14 19  1  0  0  0  0
 14 15  1  0  0  0  0
 14 31  1  0  0  0  0
 15 16  1  0  0  0  0
 15 32  1  0  0  0  0
 15 33  1  0  0  0  0
 16 20  1  0  0  0  0
 16 17  1  0  0  0  0
 16 34  1  0  0  0  0
 17 18  1  0  0  0  0
 17 35  1  0  0  0  0
 17 36  1  0  0  0  0
 18 19  1  0  0  0  0
 18 37  1  0  0  0  0
 18 38  1  0  0  0  0
 19 20  1  0  0  0  0
 19 39  1  0  0  0  0
 20 40  1  0  0  0  0
 20 41  1  0  0  0  0
M  END
> <s_m_source_file>
AV-unprocessed.smi

> <i_m_source_file_index>
1686

> <i_lp_mmshare_version>
43012

> <i_f3d_flags>
0

> <s_epik_input>
W0NIM11jMW5vYyhDbCljMVtDSDJdQyg9TylbTkhdW0NASF0oW0NIM10pW0NASF0oW0NIMl1bQ0BIXTIzKVtDQEhdKFtDSDJdMylbQ0gyXVtDSDJdMg==

> <s_epik_cmdline>
J2VwaWtfcHl0aG9uJywgJy1waCcsICc3LjAnLCAnLXRuJywgJzgnLCAnLW1hJywgJzIwMCcsICctbWV0YWxfYmluZGluZycsICctaW1hZScsICc8aW5maWxlLm1hZT4nLCAnLW9tYWUnLCAnPG91dGZpbGUubWFlPic=

> <r_lp_tautomer_probability>
1

> <r_epik_Ionization_Penalty>
2.01576e-08

> <r_epik_Ionization_Penalty_Charging>
0

> <r_epik_Ionization_Penalty_Neutral>
2.01576e-08

> <r_epik_State_Penalty>
-0

> <r_epik_Charging_Adjusted_Penalty>
0

> <i_epik_Tot_Q>
0

> <i_epik_Tot_abs_Q>
0

> <r_epik_Metal_State_Penalty>
-0

> <b_epik_Metal_Only>
0

> <s_lp_Force_Field>
OPLS_2005

> <r_lp_Energy>
45.5839

> <b_lp_Chiralities_Consistent>
1

> <s_lp_Variant>
AV-unprocessed.smi:1686-7

> <Gold.Version>
5.8.1

> <Gold.Id.Protein>
6NUR|6NUR_protein|mol2

> <Gold.PLP.Fitness>
47.0604

> <Gold.PLP.PLP>
-41.6843

> <Gold.PLP.part.hbond>
-2.0000

> <Gold.PLP.part.metal>
0.0000

> <Gold.PLP.part.buried>
-7.0520

> <Gold.PLP.part.nonpolar>
-32.9719

> <Gold.PLP.part.repulsive>
0.3472

> <Gold.PLP.ligand.clash>
0.0000

> <Gold.PLP.ligand.torsion>
0.3207

> <Gold.PLP.Chemscore.Hbond>
2.0000

> <Gold.PLP.Chemscore.CHOScore>
0.0000

> <Gold.PLP.Chemscore.Metal>
0.0000

> <Gold.Chemscore.Hbonds>
donor molecule, donor type, donor heavy atom, donor atom, acceptor molecule, acceptor atom, score
      P1  H  7989  7998       L1     3  0.40

> <Gold.PLP.Chemscore.Internal.Correction>
0.0174

> <Gold.Rescore>
     Score         DG    S(hbond)    S(metal)    S(lipo)     H(rot)  DE(clash)    DE(int)     intcor
     21.68     -22.72       1.87        0.00     125.99       1.46       0.03       1.01       ----

> <Gold.Chemscore.Fitness>
21.6759

> <Gold.Chemscore.DG>
-22.7199

> <Gold.Chemscore.ZeroCoef>
-5.4800

> <Gold.Chemscore.Hbond>
1.8708

> <Gold.Chemscore.Metal>
0.0000

> <Gold.Chemscore.Lipo>
125.9947

> <Gold.Chemscore.Internal_Hbond>
0.0000

> <Gold.Chemscore.DEClash>
0.0329

> <Gold.Chemscore.DEInternal>
1.0112

> <Gold.Chemscore.Rot>
1.4648

> <Gold.Chemscore.Internal.Correction>
   9.000000E+99

> <Gold.Chemscore.Hbonds>
donor molecule, donor type, donor heavy atom, donor atom, acceptor molecule, acceptor atom, score
      P1  H  7989  7998       L1     3  0.01

> <Gold.Chemscore.Hbond.Weighted>
-6.2485

> <Gold.Chemscore.Metal.Weighted>
-0.0000

> <Gold.Chemscore.Lipo.Weighted>
-14.7414

> <Gold.Chemscore.Internal_Hbond.Weighted>
0.0000

> <Gold.Chemscore.DEClash.Weighted>
0.0329

> <Gold.Chemscore.DEInternal.Weighted>
1.0112

> <Gold.Chemscore.Rot.Weighted>
3.7500

> <Gold.Chemscore.Internal.Correction.Weighted>
   9.000000E+99

> <Gold.Protein.RotatedTorsions>
[ 6907 6896 6895 6894 ] final  110.88 input  -60.11 | X-H torsion
[ 7974 7965 7964 7962 ] final -123.61 input  175.53 | X-H torsion
[ 8008 7997 7996 7995 ] final  -94.93 input   59.86 | X-H torsion
[ 10167 10162 10161 10158 ] final  -88.84 input  -65.29 | X-H torsion
[ 10718 10713 10712 10709 ] final   74.02 input   66.30 | X-H torsion
[ 10763 10752 10751 10750 ] final   64.22 input  -60.55 | X-H torsion
[ 11005 11000 10999 10996 ] final -149.06 input  -57.11 | X-H torsion

> <Gold.Protein.ActiveResidues>
 VAL166  LYS551  ARG553  GLY616  TRP617  ASP618  TYR619  PRO620  LYS621  CYS622 
 ASP623  PHE694  ASN695  SER759  ASP760  ASP761  ALA762  ILE779  LEU786  VAL792 
 PHE793  MET794  SER795  GLU796  ALA797  LYS798  CYS799  TRP800  GLU811  SER814 

> <Gold.Protein.RotatedAtoms>
  152.4997  133.8737  159.7310 H   0  0  0  0  0  0  0  0  0  0  0  0  # atno 6907 bound_to 6896
  150.9217  133.6864  159.2837 H   0  0  0  0  0  0  0  0  0  0  0  0  # atno 6908 bound_to 6896
  151.4239  135.1005  159.9674 H   0  0  0  0  0  0  0  0  0  0  0  0  # atno 6909 bound_to 6896
  145.0169  140.7954  143.4405 H   0  0  0  0  0  0  0  0  0  0  0  0  # atno 7974 bound_to 7965
  154.7548  140.0485  157.0923 H   0  0  0  0  0  0  0  0  0  0  0  0  # atno 8008 bound_to 7997
  155.0012  140.3125  155.4847 H   0  0  0  0  0  0  0  0  0  0  0  0  # atno 8009 bound_to 7997
  156.2892  140.2201  156.5122 H   0  0  0  0  0  0  0  0  0  0  0  0  # atno 8010 bound_to 7997
  140.3707  143.2796  151.9504 H   0  0  0  0  0  0  0  0  0  0  0  0  # atno 10167 bound_to 10162
  157.6574  130.9657  150.1152 H   0  0  0  0  0  0  0  0  0  0  0  0  # atno 10718 bound_to 10713
  153.0047  135.5401  154.6476 H   0  0  0  0  0  0  0  0  0  0  0  0  # atno 10763 bound_to 10752
  154.5716  135.2842  155.0823 H   0  0  0  0  0  0  0  0  0  0  0  0  # atno 10764 bound_to 10752
  154.1987  135.6487  153.5133 H   0  0  0  0  0  0  0  0  0  0  0  0  # atno 10765 bound_to 10752
  140.7547  134.3367  157.5117 H   0  0  0  0  0  0  0  0  0  0  0  0  # atno 11005 bound_to 11000
  145.1948  139.2282  143.5224 LP  0  0  0  0  0  0  0  0  0  0  0  0  # atno 17320 bound_to 7965
  146.3479  140.1752  142.8589 LP  0  0  0  0  0  0  0  0  0  0  0  0  # atno 17321 bound_to 7965
  139.4804  144.5910  151.7772 LP  0  0  0  0  0  0  0  0  0  0  0  0  # atno 17342 bound_to 10162
  140.5036  144.1131  150.5977 LP  0  0  0  0  0  0  0  0  0  0  0  0  # atno 17343 bound_to 10162
  156.2038  130.3662  149.8755 LP  0  0  0  0  0  0  0  0  0  0  0  0  # atno 17370 bound_to 10713
  156.6651  130.8798  151.3553 LP  0  0  0  0  0  0  0  0  0  0  0  0  # atno 17371 bound_to 10713
  139.8781  134.9164  156.3154 LP  0  0  0  0  0  0  0  0  0  0  0  0  # atno 17394 bound_to 11000
  140.9718  133.7322  156.0546 LP  0  0  0  0  0  0  0  0  0  0  0  0  # atno 17395 bound_to 11000

$$$$
