AV-unprocessed.smi:2356|AV-procd|sdf|9397|dock10
  -GOLD-   2272013 33D 1   1.00000     0.00000
 Structure written by MMmdl.
 54 57  0  0  0  0  0  0  0  0  2 V2000
  147.3556  142.3931  154.1254 C   0  0  0  0  0  0  0  0  0  0  0  0
  148.4776  141.4729  154.5729 C   0  0  0  0  0  0  0  0  0  0  0  0
  149.4032  141.9835  155.4150 N   0  3  0  0  0  0  0  0  0  0  0  0
  150.4534  141.2813  155.9037 C   0  0  0  0  0  0  0  0  0  0  0  0
  151.3516  141.9273  156.7777 N   0  0  0  0  0  0  0  0  0  0  0  0
  151.1758  143.3435  157.0537 C   0  0  0  0  0  0  0  0  0  0  0  0
  152.1486  143.6653  158.1912 C   0  0  0  0  0  0  0  0  0  0  0  0
  152.5104  142.3118  158.8179 C   0  0  0  0  0  0  0  0  0  0  0  0
  151.7366  141.2648  158.0115 C   0  0  0  0  0  0  0  0  0  0  0  0
  150.6004  139.9313  155.5080 C   0  0  0  0  0  0  0  0  0  0  0  0
  149.6620  139.3515  154.6308 C   0  0  0  0  0  0  0  0  0  0  0  0
  148.5838  140.1296  154.1418 C   0  0  0  0  0  0  0  0  0  0  0  0
  147.5794  139.6217  153.2729 N   0  0  0  0  0  0  0  0  0  0  0  0
  146.9632  138.4239  153.2888 C   0  0  0  0  0  0  0  0  0  0  0  0
  147.1961  137.5270  154.0959 O   0  0  0  0  0  0  0  0  0  0  0  0
  146.0545  138.2629  152.3096 N   0  0  0  0  0  0  0  0  0  0  0  0
  145.2124  137.0952  152.0383 C   0  0  2  0  0  0  0  0  0  0  0  0
  143.9453  137.1563  152.9012 C   0  0  0  0  0  0  0  0  0  0  0  0
  143.1015  135.8862  152.7141 C   0  0  0  0  0  0  0  0  0  0  0  0
  143.8737  134.7266  153.0184 O   0  0  0  0  0  0  0  0  0  0  0  0
  145.0528  134.5536  152.2303 C   0  0  1  0  0  0  0  0  0  0  0  0
  144.7247  134.1804  150.7908 C   0  0  0  0  0  0  0  0  0  0  0  0
  144.0654  132.8592  150.4724 C   0  0  0  0  0  0  0  0  0  0  0  0
  145.5023  133.1006  150.0754 C   0  0  0  0  0  0  0  0  0  0  0  0
  145.9671  135.7887  152.3471 C   0  0  0  0  0  0  0  0  0  0  0  0
  146.3864  141.9710  154.3927 H   0  0  0  0  0  0  0  0  0  0  0  0
  147.3847  142.5292  153.0441 H   0  0  0  0  0  0  0  0  0  0  0  0
  147.4354  143.3756  154.5917 H   0  0  0  0  0  0  0  0  0  0  0  0
  151.3809  143.9516  156.1719 H   0  0  0  0  0  0  0  0  0  0  0  0
  150.1474  143.5294  157.3670 H   0  0  0  0  0  0  0  0  0  0  0  0
  153.0462  144.1434  157.7971 H   0  0  0  0  0  0  0  0  0  0  0  0
  151.7032  144.3483  158.9153 H   0  0  0  0  0  0  0  0  0  0  0  0
  153.5838  142.1389  158.7308 H   0  0  0  0  0  0  0  0  0  0  0  0
  152.2548  142.2673  159.8769 H   0  0  0  0  0  0  0  0  0  0  0  0
  150.8423  140.9492  158.5511 H   0  0  0  0  0  0  0  0  0  0  0  0
  152.3516  140.3851  157.8196 H   0  0  0  0  0  0  0  0  0  0  0  0
  151.4200  139.3274  155.8677 H   0  0  0  0  0  0  0  0  0  0  0  0
  149.7846  138.3136  154.3641 H   0  0  0  0  0  0  0  0  0  0  0  0
  147.3367  140.2238  152.4997 H   0  0  0  0  0  0  0  0  0  0  0  0
  145.9336  139.0426  151.6791 H   0  0  0  0  0  0  0  0  0  0  0  0
  144.9030  137.1051  150.9920 H   0  0  0  0  0  0  0  0  0  0  0  0
  144.2144  137.2559  153.9539 H   0  0  0  0  0  0  0  0  0  0  0  0
  143.3537  138.0360  152.6449 H   0  0  0  0  0  0  0  0  0  0  0  0
  142.2403  135.9120  153.3817 H   0  0  0  0  0  0  0  0  0  0  0  0
  142.7039  135.8291  151.7007 H   0  0  0  0  0  0  0  0  0  0  0  0
  145.5843  133.7073  152.6673 H   0  0  0  0  0  0  0  0  0  0  0  0
  144.4165  135.0171  150.1681 H   0  0  0  0  0  0  0  0  0  0  0  0
  143.8806  132.1729  151.2964 H   0  0  0  0  0  0  0  0  0  0  0  0
  143.3182  132.8497  149.6815 H   0  0  0  0  0  0  0  0  0  0  0  0
  145.7131  133.2501  149.0184 H   0  0  0  0  0  0  0  0  0  0  0  0
  146.2734  132.5745  150.6347 H   0  0  0  0  0  0  0  0  0  0  0  0
  146.8322  135.6741  151.6933 H   0  0  0  0  0  0  0  0  0  0  0  0
  146.3597  135.8359  153.3639 H   0  0  0  0  0  0  0  0  0  0  0  0
  149.3023  142.9569  155.7025 H   0  0  0  0  0  0  0  0  0  0  0  0
  1  2  1  0  0  0  0
  1 26  1  0  0  0  0
  1 27  1  0  0  0  0
  1 28  1  0  0  0  0
  2 12  1  0  0  0  0
  2  3  2  0  0  0  0
  3  4  1  0  0  0  0
  3 54  1  0  0  0  0
  4  5  1  0  0  0  0
  4 10  2  0  0  0  0
  5  9  1  0  0  0  0
  5  6  1  0  0  0  0
  6  7  1  0  0  0  0
  6 29  1  0  0  0  0
  6 30  1  0  0  0  0
  7  8  1  0  0  0  0
  7 31  1  0  0  0  0
  7 32  1  0  0  0  0
  8  9  1  0  0  0  0
  8 33  1  0  0  0  0
  8 34  1  0  0  0  0
  9 35  1  0  0  0  0
  9 36  1  0  0  0  0
 10 11  1  0  0  0  0
 10 37  1  0  0  0  0
 11 12  2  0  0  0  0
 11 38  1  0  0  0  0
 12 13  1  0  0  0  0
 13 14  1  0  0  0  0
 13 39  1  0  0  0  0
 14 15  2  0  0  0  0
 14 16  1  0  0  0  0
 16 17  1  0  0  0  0
 16 40  1  0  0  0  0
 17 25  1  0  0  0  0
 17 18  1  0  0  0  0
 17 41  1  0  0  0  0
 18 19  1  0  0  0  0
 18 42  1  0  0  0  0
 18 43  1  0  0  0  0
 19 20  1  0  0  0  0
 19 44  1  0  0  0  0
 19 45  1  0  0  0  0
 20 21  1  0  0  0  0
 21 22  1  0  0  0  0
 21 25  1  0  0  0  0
 21 46  1  0  0  0  0
 22 24  1  0  0  0  0
 22 23  1  0  0  0  0
 22 47  1  0  0  0  0
 23 24  1  0  0  0  0
 23 48  1  0  0  0  0
 23 49  1  0  0  0  0
 24 50  1  0  0  0  0
 24 51  1  0  0  0  0
 25 52  1  0  0  0  0
 25 53  1  0  0  0  0
M  CHG  1   3   1
M  END
> <s_m_source_file>
AV-unprocessed.smi

> <i_m_source_file_index>
2356

> <i_lp_mmshare_version>
43012

> <i_f3d_flags>
0

> <s_epik_input>
W0NIMl0xW0NIMl1bQ0gyXVtDSDJdTjFjKG5jMltDSDNdKVtjSF1bY0hdYzJbTkhdQyg9TylbTkhdW0NAQEhdM1tDSDJdW0NIMl1PW0NASF0oW0NIMl0zKVtDSF00W0NIMl1bQ0gyXTQ=

> <s_epik_cmdline>
J2VwaWtfcHl0aG9uJywgJy1waCcsICc3LjAnLCAnLXRuJywgJzgnLCAnLW1hJywgJzIwMCcsICctbWV0YWxfYmluZGluZycsICctaW1hZScsICc8aW5maWxlLm1hZT4nLCAnLW9tYWUnLCAnPG91dGZpbGUubWFlPic=

> <r_lp_tautomer_probability>
0.999994

> <r_epik_Ionization_Penalty>
0.534681

> <r_epik_Ionization_Penalty_Charging>
0.534661

> <r_epik_Ionization_Penalty_Neutral>
1.99132e-05

> <r_epik_State_Penalty>
0.543738

> <r_epik_Charging_Adjusted_Penalty>
1.0784

> <i_epik_Tot_Q>
1

> <i_epik_Tot_abs_Q>
1

> <r_epik_Metal_State_Penalty>
0.74699

> <b_epik_Metal_Only>
0

> <s_lp_Force_Field>
OPLS_2005

> <r_lp_Energy>
60.0457

> <b_lp_Chiralities_Consistent>
1

> <s_lp_Variant>
AV-unprocessed.smi:2356-5

> <Gold.Version>
5.8.1

> <Gold.Id.Protein>
6NUR|6NUR_protein|mol2

> <Gold.PLP.Fitness>
48.3104

> <Gold.PLP.PLP>
-43.8174

> <Gold.PLP.part.hbond>
-2.3114

> <Gold.PLP.part.metal>
0.0000

> <Gold.PLP.part.buried>
-1.1049

> <Gold.PLP.part.nonpolar>
-40.4203

> <Gold.PLP.part.repulsive>
0.5077

> <Gold.PLP.ligand.clash>
0.0000

> <Gold.PLP.ligand.torsion>
1.4247

> <Gold.PLP.Chemscore.Hbond>
2.0000

> <Gold.PLP.Chemscore.CHOScore>
0.0000

> <Gold.PLP.Chemscore.Metal>
0.0000

> <Gold.Chemscore.Hbonds>
donor molecule, donor type, donor heavy atom, donor atom, acceptor molecule, acceptor atom, score
      L1  H     3    54       P1  8028  2.00

> <Gold.PLP.Chemscore.Internal.Correction>
1.3423

> <Gold.Rescore>
     Score         DG    S(hbond)    S(metal)    S(lipo)     H(rot)  DE(clash)    DE(int)     intcor
     15.80     -18.71       1.00        0.00     113.16       1.31       0.14       2.77       ----

> <Gold.Chemscore.Fitness>
15.7969

> <Gold.Chemscore.DG>
-18.7106

> <Gold.Chemscore.ZeroCoef>
-5.4800

> <Gold.Chemscore.Hbond>
0.9983

> <Gold.Chemscore.Metal>
0.0000

> <Gold.Chemscore.Lipo>
113.1584

> <Gold.Chemscore.Internal_Hbond>
0.0000

> <Gold.Chemscore.DEClash>
0.1426

> <Gold.Chemscore.DEInternal>
2.7711

> <Gold.Chemscore.Rot>
1.3060

> <Gold.Chemscore.Internal.Correction>
   9.000000E+99

> <Gold.Chemscore.Hbonds>
donor molecule, donor type, donor heavy atom, donor atom, acceptor molecule, acceptor atom, score
      L1  H     3    54       P1  8028  1.00

> <Gold.Chemscore.Hbond.Weighted>
-3.3343

> <Gold.Chemscore.Metal.Weighted>
-0.0000

> <Gold.Chemscore.Lipo.Weighted>
-13.2395

> <Gold.Chemscore.Internal_Hbond.Weighted>
0.0000

> <Gold.Chemscore.DEClash.Weighted>
0.1426

> <Gold.Chemscore.DEInternal.Weighted>
2.7711

> <Gold.Chemscore.Rot.Weighted>
3.3433

> <Gold.Chemscore.Internal.Correction.Weighted>
   9.000000E+99

> <Gold.Protein.RotatedTorsions>
[ 6907 6896 6895 6894 ] final -152.95 input  -60.11 | X-H torsion
[ 7974 7965 7964 7962 ] final   50.67 input  175.53 | X-H torsion
[ 8008 7997 7996 7995 ] final -143.11 input   59.86 | X-H torsion
[ 10167 10162 10161 10158 ] final  138.43 input  -65.29 | X-H torsion
[ 10718 10713 10712 10709 ] final   78.97 input   66.30 | X-H torsion
[ 10763 10752 10751 10750 ] final  175.60 input  -60.55 | X-H torsion
[ 11005 11000 10999 10996 ] final -138.09 input  -57.11 | X-H torsion

> <Gold.Protein.ActiveResidues>
 VAL166  LYS551  ARG553  GLY616  TRP617  ASP618  TYR619  PRO620  LYS621  CYS622 
 ASP623  PHE694  ASN695  SER759  ASP760  ASP761  ALA762  ILE779  LEU786  VAL792 
 PHE793  MET794  SER795  GLU796  ALA797  LYS798  CYS799  TRP800  GLU811  SER814 

> <Gold.Protein.RotatedAtoms>
  151.2354  133.4428  159.2605 H   0  0  0  0  0  0  0  0  0  0  0  0  # atno 6907 bound_to 6896
  151.0755  134.9825  159.8340 H   0  0  0  0  0  0  0  0  0  0  0  0  # atno 6908 bound_to 6896
  152.5418  134.2297  159.8873 H   0  0  0  0  0  0  0  0  0  0  0  0  # atno 6909 bound_to 6896
  145.9989  139.4418  143.0027 H   0  0  0  0  0  0  0  0  0  0  0  0  # atno 7974 bound_to 7965
  155.5053  140.0579  157.2932 H   0  0  0  0  0  0  0  0  0  0  0  0  # atno 8008 bound_to 7997
  154.4572  140.1978  156.0296 H   0  0  0  0  0  0  0  0  0  0  0  0  # atno 8009 bound_to 7997
  156.0821  140.3245  155.7711 H   0  0  0  0  0  0  0  0  0  0  0  0  # atno 8010 bound_to 7997
  139.5111  144.6354  151.5711 H   0  0  0  0  0  0  0  0  0  0  0  0  # atno 10167 bound_to 10162
  157.6762  130.9893  150.1864 H   0  0  0  0  0  0  0  0  0  0  0  0  # atno 10718 bound_to 10713
  154.4698  135.2770  155.1651 H   0  0  0  0  0  0  0  0  0  0  0  0  # atno 10763 bound_to 10752
  154.3405  135.6171  153.5597 H   0  0  0  0  0  0  0  0  0  0  0  0  # atno 10764 bound_to 10752
  152.9863  135.5787  154.5077 H   0  0  0  0  0  0  0  0  0  0  0  0  # atno 10765 bound_to 10752
  140.8649  134.2122  157.4685 H   0  0  0  0  0  0  0  0  0  0  0  0  # atno 11005 bound_to 11000
  145.7518  140.9969  143.1246 LP  0  0  0  0  0  0  0  0  0  0  0  0  # atno 17320 bound_to 7965
  144.6913  139.9223  143.7468 LP  0  0  0  0  0  0  0  0  0  0  0  0  # atno 17321 bound_to 7965
  140.6101  143.9452  150.6447 LP  0  0  0  0  0  0  0  0  0  0  0  0  # atno 17342 bound_to 10162
  140.2692  143.3468  152.1253 LP  0  0  0  0  0  0  0  0  0  0  0  0  # atno 17343 bound_to 10162
  156.2585  130.3708  149.8155 LP  0  0  0  0  0  0  0  0  0  0  0  0  # atno 17370 bound_to 10713
  156.5907  130.8505  151.3407 LP  0  0  0  0  0  0  0  0  0  0  0  0  # atno 17371 bound_to 10713
  139.8709  134.9747  156.4856 LP  0  0  0  0  0  0  0  0  0  0  0  0  # atno 17394 bound_to 11000
  140.8640  133.8038  155.9294 LP  0  0  0  0  0  0  0  0  0  0  0  0  # atno 17395 bound_to 11000

$$$$
