AV-unprocessed.smi:996|AV-procd|sdf|4347|dock4
  -GOLD-   22720 2243D 1   1.00000     0.00000
 Structure written by MMmdl.
 22 23  0  0  0  0  0  0  0  0  1 V2000
  152.7309  140.0185  157.6715 O   0  0  0  0  0  0  0  0  0  0  0  0
  152.7015  140.8390  158.5870 C   0  0  0  0  0  0  0  0  0  0  0  0
  153.2720  140.6635  159.8218 O   0  0  0  0  0  0  0  0  0  0  0  0
  153.0264  141.7686  160.5830 C   0  0  0  0  0  0  0  0  0  0  0  0
  153.4038  142.0384  161.9093 C   0  0  0  0  0  0  0  0  0  0  0  0
  153.0051  143.2762  162.4666 C   0  0  0  0  0  0  0  0  0  0  0  0
  152.2510  144.2057  161.7050 C   0  0  0  0  0  0  0  0  0  0  0  0
  151.8819  143.9151  160.3713 C   0  0  0  0  0  0  0  0  0  0  0  0
  152.2954  142.6780  159.8482 C   0  0  0  0  0  0  0  0  0  0  0  0
  152.0986  142.0995  158.5972 N   0  0  0  0  0  0  0  0  0  0  0  0
  151.3600  142.6906  157.4862 C   0  0  0  0  0  0  0  0  0  0  0  0
  150.2943  141.7224  156.9542 C   0  0  0  0  0  0  0  0  0  0  0  0
  149.5902  142.3262  155.8914 O   0  0  0  0  0  0  0  0  0  0  0  0
  153.9767  141.3250  162.4831 H   0  0  0  0  0  0  0  0  0  0  0  0
  153.2776  143.5159  163.4840 H   0  0  0  0  0  0  0  0  0  0  0  0
  151.9552  145.1451  162.1483 H   0  0  0  0  0  0  0  0  0  0  0  0
  151.3066  144.6154  159.7842 H   0  0  0  0  0  0  0  0  0  0  0  0
  150.8959  143.6214  157.8147 H   0  0  0  0  0  0  0  0  0  0  0  0
  152.0538  142.9611  156.6886 H   0  0  0  0  0  0  0  0  0  0  0  0
  150.7527  140.7990  156.5985 H   0  0  0  0  0  0  0  0  0  0  0  0
  149.5876  141.4563  157.7409 H   0  0  0  0  0  0  0  0  0  0  0  0
  149.2443  143.1531  156.1910 H   0  0  0  0  0  0  0  0  0  0  0  0
  1  2  2  0  0  0  0
  2 10  1  0  0  0  0
  2  3  1  0  0  0  0
  3  4  1  0  0  0  0
  4  9  2  0  0  0  0
  4  5  1  0  0  0  0
  5  6  2  0  0  0  0
  5 14  1  0  0  0  0
  6  7  1  0  0  0  0
  6 15  1  0  0  0  0
  7  8  2  0  0  0  0
  7 16  1  0  0  0  0
  8  9  1  0  0  0  0
  8 17  1  0  0  0  0
  9 10  1  0  0  0  0
 10 11  1  0  0  0  0
 11 12  1  0  0  0  0
 11 18  1  0  0  0  0
 11 19  1  0  0  0  0
 12 13  1  0  0  0  0
 12 20  1  0  0  0  0
 12 21  1  0  0  0  0
 13 22  1  0  0  0  0
M  END
> <s_m_source_file>
AV-unprocessed.smi

> <i_m_source_file_index>
996

> <i_lp_mmshare_version>
43012

> <i_f3d_flags>
0

> <s_epik_input>
W09IXVtDSDJdW0NIMl1uKGMoPU8pbzEpYyhjMTIpW2NIXVtjSF1bY0hdW2NIXTI=

> <s_epik_cmdline>
J2VwaWtfcHl0aG9uJywgJy1waCcsICc3LjAnLCAnLXRuJywgJzgnLCAnLW1hJywgJzIwMCcsICctbWV0YWxfYmluZGluZycsICctaW1hZScsICc8aW5maWxlLm1hZT4nLCAnLW9tYWUnLCAnPG91dGZpbGUubWFlPic=

> <r_lp_tautomer_probability>
1

> <r_epik_Ionization_Penalty>
1.98202e-07

> <r_epik_Ionization_Penalty_Charging>
1.40767e-14

> <r_epik_Ionization_Penalty_Neutral>
1.98202e-07

> <r_epik_State_Penalty>
-0

> <r_epik_Charging_Adjusted_Penalty>
1.40767e-14

> <i_epik_Tot_Q>
0

> <i_epik_Tot_abs_Q>
0

> <r_epik_Metal_State_Penalty>
-0

> <b_epik_Metal_Only>
0

> <s_lp_Force_Field>
OPLS_2005

> <r_lp_Energy>
24.1442

> <b_lp_Chiralities_Consistent>
1

> <s_lp_Variant>
AV-unprocessed.smi:996-1

> <Gold.Version>
5.8.1

> <Gold.Id.Protein>
6NUR|6NUR_protein|mol2

> <Gold.PLP.Fitness>
39.2467

> <Gold.PLP.PLP>
-33.3817

> <Gold.PLP.part.hbond>
-2.0000

> <Gold.PLP.part.metal>
0.0000

> <Gold.PLP.part.buried>
-4.1523

> <Gold.PLP.part.nonpolar>
-26.0779

> <Gold.PLP.part.repulsive>
0.0000

> <Gold.PLP.ligand.clash>
0.0000

> <Gold.PLP.ligand.torsion>
0.0682

> <Gold.PLP.Chemscore.Hbond>
2.0000

> <Gold.PLP.Chemscore.CHOScore>
0.0000

> <Gold.PLP.Chemscore.Metal>
0.0000

> <Gold.Chemscore.Hbonds>
donor molecule, donor type, donor heavy atom, donor atom, acceptor molecule, acceptor atom, score
      L1  H    13    22       P1  8028  0.85
      P1  H  7997  8008       L1     1  1.00

> <Gold.PLP.Chemscore.Internal.Correction>
0.0012

> <Gold.Rescore>
     Score         DG    S(hbond)    S(metal)    S(lipo)     H(rot)  DE(clash)    DE(int)     intcor
     17.05     -17.18       1.94        0.00      83.85       1.79       0.08       0.05       ----

> <Gold.Chemscore.Fitness>
17.0491

> <Gold.Chemscore.DG>
-17.1827

> <Gold.Chemscore.ZeroCoef>
-5.4800

> <Gold.Chemscore.Hbond>
1.9388

> <Gold.Chemscore.Metal>
0.0000

> <Gold.Chemscore.Lipo>
83.8487

> <Gold.Chemscore.Internal_Hbond>
0.0000

> <Gold.Chemscore.DEClash>
0.0825

> <Gold.Chemscore.DEInternal>
0.0511

> <Gold.Chemscore.Rot>
1.7903

> <Gold.Chemscore.Internal.Correction>
   9.000000E+99

> <Gold.Chemscore.Hbonds>
donor molecule, donor type, donor heavy atom, donor atom, acceptor molecule, acceptor atom, score
      L1  H    13    22       P1  8028  0.83
      P1  H  7997  8008       L1     1  0.58

> <Gold.Chemscore.Hbond.Weighted>
-6.4756

> <Gold.Chemscore.Metal.Weighted>
-0.0000

> <Gold.Chemscore.Lipo.Weighted>
-9.8103

> <Gold.Chemscore.Internal_Hbond.Weighted>
0.0000

> <Gold.Chemscore.DEClash.Weighted>
0.0825

> <Gold.Chemscore.DEInternal.Weighted>
0.0511

> <Gold.Chemscore.Rot.Weighted>
4.5833

> <Gold.Chemscore.Internal.Correction.Weighted>
   9.000000E+99

> <Gold.Protein.RotatedTorsions>
[ 6907 6896 6895 6894 ] final   31.64 input  -60.11 | X-H torsion
[ 7974 7965 7964 7962 ] final   60.65 input  175.53 | X-H torsion
[ 8008 7997 7996 7995 ] final  -78.63 input   59.86 | X-H torsion
[ 10167 10162 10161 10158 ] final  101.02 input  -65.29 | X-H torsion
[ 10718 10713 10712 10709 ] final   69.35 input   66.30 | X-H torsion
[ 10763 10752 10751 10750 ] final  120.82 input  -60.55 | X-H torsion
[ 11005 11000 10999 10996 ] final -178.81 input  -57.11 | X-H torsion

> <Gold.Protein.ActiveResidues>
 VAL166  LYS551  ARG553  GLY616  TRP617  ASP618  TYR619  PRO620  LYS621  CYS622 
 ASP623  PHE694  ASN695  SER759  ASP760  ASP761  ALA762  ILE779  LEU786  VAL792 
 PHE793  MET794  SER795  GLU796  ALA797  LYS798  CYS799  TRP800  GLU811  SER814 

> <Gold.Protein.RotatedAtoms>
  152.0631  134.9581  160.0574 H   0  0  0  0  0  0  0  0  0  0  0  0  # atno 6907 bound_to 6896
  152.0937  133.4209  159.4563 H   0  0  0  0  0  0  0  0  0  0  0  0  # atno 6908 bound_to 6896
  150.6837  134.2761  159.4651 H   0  0  0  0  0  0  0  0  0  0  0  0  # atno 6909 bound_to 6896
  145.8937  139.3529  143.0634 H   0  0  0  0  0  0  0  0  0  0  0  0  # atno 7974 bound_to 7965
  154.5707  140.0691  156.8960 H   0  0  0  0  0  0  0  0  0  0  0  0  # atno 8008 bound_to 7997
  155.2639  140.3360  155.4252 H   0  0  0  0  0  0  0  0  0  0  0  0  # atno 8009 bound_to 7997
  156.2116  140.1761  156.7667 H   0  0  0  0  0  0  0  0  0  0  0  0  # atno 8010 bound_to 7997
  139.7475  144.6994  151.0482 H   0  0  0  0  0  0  0  0  0  0  0  0  # atno 10167 bound_to 10162
  157.6341  130.9421  150.0502 H   0  0  0  0  0  0  0  0  0  0  0  0  # atno 10718 bound_to 10713
  153.6045  135.3442  155.2957 H   0  0  0  0  0  0  0  0  0  0  0  0  # atno 10763 bound_to 10752
  154.8630  135.4235  154.2377 H   0  0  0  0  0  0  0  0  0  0  0  0  # atno 10764 bound_to 10752
  153.3213  135.7038  153.7100 H   0  0  0  0  0  0  0  0  0  0  0  0  # atno 10765 bound_to 10752
  140.4256  134.6565  157.4686 H   0  0  0  0  0  0  0  0  0  0  0  0  # atno 11005 bound_to 11000
  145.8877  140.9323  143.0568 LP  0  0  0  0  0  0  0  0  0  0  0  0  # atno 17320 bound_to 7965
  144.6732  140.0864  143.7467 LP  0  0  0  0  0  0  0  0  0  0  0  0  # atno 17321 bound_to 7965
  140.7794  143.4849  150.9969 LP  0  0  0  0  0  0  0  0  0  0  0  0  # atno 17342 bound_to 10162
  139.8537  143.7405  152.3177 LP  0  0  0  0  0  0  0  0  0  0  0  0  # atno 17343 bound_to 10162
  156.1566  130.3643  149.9359 LP  0  0  0  0  0  0  0  0  0  0  0  0  # atno 17370 bound_to 10713
  156.7367  130.9064  151.3629 LP  0  0  0  0  0  0  0  0  0  0  0  0  # atno 17371 bound_to 10713
  140.0169  134.6605  155.9296 LP  0  0  0  0  0  0  0  0  0  0  0  0  # atno 17394 bound_to 11000
  141.1766  133.6541  156.4854 LP  0  0  0  0  0  0  0  0  0  0  0  0  # atno 17395 bound_to 11000

$$$$
