AV-unprocessed.smi:1471|AV-procd|sdf|5963|dock10
  -GOLD-   22720 6 53D 1   1.00000     0.00000
 Structure written by MMmdl.
 42 43  0  0  0  0  0  0  0  0  1 V2000
  146.6358  137.1255  162.6590 C   0  0  0  0  0  0  0  0  0  0  0  0
  147.3383  136.3928  161.5476 C   0  0  0  0  0  0  0  0  0  0  0  0
  147.9714  137.1173  160.6844 N   0  0  0  0  0  0  0  0  0  0  0  0
  148.6443  136.5465  159.6228 N   0  0  0  0  0  0  0  0  0  0  0  0
  149.3014  137.5189  158.7419 C   0  0  0  0  0  0  0  0  0  0  0  0
  150.7921  137.7119  159.1004 C   0  0  1  0  0  0  0  0  0  0  0  0
  151.4741  136.4918  158.8889 O   0  0  0  0  0  0  0  0  0  0  0  0
  151.4654  138.7691  158.2133 C   0  0  0  0  0  0  0  0  0  0  0  0
  151.5149  139.9977  158.9241 O   0  0  0  0  0  0  0  0  0  0  0  0
  152.4549  140.9269  158.4047 C   0  0  0  0  0  0  0  0  0  0  0  0
  152.1956  142.3543  158.8578 C   0  0  0  0  0  0  0  0  0  0  0  0
  151.6768  143.3005  157.9482 C   0  0  0  0  0  0  0  0  0  0  0  0
  151.4391  144.6256  158.3620 C   0  0  0  0  0  0  0  0  0  0  0  0
  151.7233  145.0118  159.6859 C   0  0  0  0  0  0  0  0  0  0  0  0
  152.2470  144.0727  160.5952 C   0  0  0  0  0  0  0  0  0  0  0  0
  152.4858  142.7469  160.1832 C   0  0  0  0  0  0  0  0  0  0  0  0
  152.9932  141.8543  161.0669 F   0  0  0  0  0  0  0  0  0  0  0  0
  148.7079  135.2076  159.3718 C   0  0  0  0  0  0  0  0  0  0  0  0
  149.3107  134.7423  158.4034 O   0  0  0  0  0  0  0  0  0  0  0  0
  147.9929  134.3921  160.3563 C   0  0  0  0  0  0  0  0  0  0  0  0
  148.0337  132.9831  160.1314 C   0  0  0  0  0  0  0  0  0  0  0  0
  148.0784  131.8381  159.9664 N   0  0  0  0  0  0  0  0  0  0  0  0
  147.3348  134.9400  161.4083 C   0  0  0  0  0  0  0  0  0  0  0  0
  146.5775  134.1366  162.4569 C   0  0  0  0  0  0  0  0  0  0  0  0
  145.5864  136.8347  162.7139 H   0  0  0  0  0  0  0  0  0  0  0  0
  146.6677  138.2070  162.5172 H   0  0  0  0  0  0  0  0  0  0  0  0
  147.0998  136.9037  163.6202 H   0  0  0  0  0  0  0  0  0  0  0  0
  149.1926  137.2348  157.6932 H   0  0  0  0  0  0  0  0  0  0  0  0
  148.7722  138.4701  158.8241 H   0  0  0  0  0  0  0  0  0  0  0  0
  150.9137  138.0002  160.1453 H   0  0  0  0  0  0  0  0  0  0  0  0
  151.1983  136.1335  158.0593 H   0  0  0  0  0  0  0  0  0  0  0  0
  152.4834  138.4632  157.9661 H   0  0  0  0  0  0  0  0  0  0  0  0
  150.9184  138.8755  157.2750 H   0  0  0  0  0  0  0  0  0  0  0  0
  153.4438  140.6373  158.7603 H   0  0  0  0  0  0  0  0  0  0  0  0
  152.4873  140.8620  157.3159 H   0  0  0  0  0  0  0  0  0  0  0  0
  151.4562  143.0130  156.9307 H   0  0  0  0  0  0  0  0  0  0  0  0
  151.0397  145.3459  157.6631 H   0  0  0  0  0  0  0  0  0  0  0  0
  151.5417  146.0282  160.0031 H   0  0  0  0  0  0  0  0  0  0  0  0
  152.4677  144.3698  161.6100 H   0  0  0  0  0  0  0  0  0  0  0  0
  146.7337  133.0641  162.3450 H   0  0  0  0  0  0  0  0  0  0  0  0
  145.5064  134.3258  162.3795 H   0  0  0  0  0  0  0  0  0  0  0  0
  146.9033  134.4067  163.4618 H   0  0  0  0  0  0  0  0  0  0  0  0
  1  2  1  0  0  0  0
  1 25  1  0  0  0  0
  1 26  1  0  0  0  0
  1 27  1  0  0  0  0
  2 23  1  0  0  0  0
  2  3  2  0  0  0  0
  3  4  1  0  0  0  0
  4  5  1  0  0  0  0
  4 18  1  0  0  0  0
  5  6  1  0  0  0  0
  5 28  1  0  0  0  0
  5 29  1  0  0  0  0
  6  7  1  0  0  0  0
  6  8  1  0  0  0  0
  6 30  1  0  0  0  0
  7 31  1  0  0  0  0
  8  9  1  0  0  0  0
  8 32  1  0  0  0  0
  8 33  1  0  0  0  0
  9 10  1  0  0  0  0
 10 11  1  0  0  0  0
 10 34  1  0  0  0  0
 10 35  1  0  0  0  0
 11 16  1  0  0  0  0
 11 12  2  0  0  0  0
 12 13  1  0  0  0  0
 12 36  1  0  0  0  0
 13 14  2  0  0  0  0
 13 37  1  0  0  0  0
 14 15  1  0  0  0  0
 14 38  1  0  0  0  0
 15 16  2  0  0  0  0
 15 39  1  0  0  0  0
 16 17  1  0  0  0  0
 18 19  2  0  0  0  0
 18 20  1  0  0  0  0
 20 21  1  0  0  0  0
 20 23  2  0  0  0  0
 21 22  3  0  0  0  0
 23 24  1  0  0  0  0
 24 40  1  0  0  0  0
 24 41  1  0  0  0  0
 24 42  1  0  0  0  0
M  END
> <s_m_source_file>
AV-unprocessed.smi

> <i_m_source_file_index>
1471

> <i_lp_mmshare_version>
43012

> <i_f3d_flags>
0

> <s_epik_input>
TiNDYyhjMVtDSDNdKWMoPU8pbihuYzFbQ0gzXSlbQ0gyXVtDQEhdKFtPSF0pW0NIMl1PW0NIMl1jMltjSF1bY0hdW2NIXVtjSF1jMkY=

> <s_epik_cmdline>
J2VwaWtfcHl0aG9uJywgJy1waCcsICc3LjAnLCAnLXRuJywgJzgnLCAnLW1hJywgJzIwMCcsICctbWV0YWxfYmluZGluZycsICctaW1hZScsICc8aW5maWxlLm1hZT4nLCAnLW9tYWUnLCAnPG91dGZpbGUubWFlPic=

> <r_lp_tautomer_probability>
1

> <r_epik_Ionization_Penalty>
6.13319e-08

> <r_epik_Ionization_Penalty_Charging>
2.19172e-10

> <r_epik_Ionization_Penalty_Neutral>
6.11128e-08

> <r_epik_State_Penalty>
-0

> <r_epik_Charging_Adjusted_Penalty>
2.19172e-10

> <i_epik_Tot_Q>
0

> <i_epik_Tot_abs_Q>
0

> <r_epik_Metal_State_Penalty>
-0

> <b_epik_Metal_Only>
0

> <s_lp_Force_Field>
OPLS_2005

> <r_lp_Energy>
30.1465

> <b_lp_Chiralities_Consistent>
1

> <s_lp_Variant>
AV-unprocessed.smi:1471-2

> <Gold.Version>
5.8.1

> <Gold.Id.Protein>
6NUR|6NUR_protein|mol2

> <Gold.PLP.Fitness>
60.4847

> <Gold.PLP.PLP>
-53.4261

> <Gold.PLP.part.hbond>
-4.0000

> <Gold.PLP.part.metal>
0.0000

> <Gold.PLP.part.buried>
-5.7154

> <Gold.PLP.part.nonpolar>
-44.4870

> <Gold.PLP.part.repulsive>
0.0000

> <Gold.PLP.ligand.clash>
0.0000

> <Gold.PLP.ligand.torsion>
1.2010

> <Gold.PLP.Chemscore.Hbond>
3.1392

> <Gold.PLP.Chemscore.CHOScore>
0.0000

> <Gold.PLP.Chemscore.Metal>
0.0000

> <Gold.Chemscore.Hbonds>
donor molecule, donor type, donor heavy atom, donor atom, acceptor molecule, acceptor atom, score
      P1  H  6896  6907       L1     7  0.67
      P1  H  6896  6909       L1    19  0.82
      P1  H  6931  6943       L1     3  0.85
      P1  H  6934  6947       L1     3  0.70

> <Gold.PLP.Chemscore.Internal.Correction>
0.0431

> <Gold.Rescore>
     Score         DG    S(hbond)    S(metal)    S(lipo)     H(rot)  DE(clash)    DE(int)     intcor
     17.58     -20.15       1.83        0.00     130.98       2.65       0.05       2.52       ----

> <Gold.Chemscore.Fitness>
17.5791

> <Gold.Chemscore.DG>
-20.1489

> <Gold.Chemscore.ZeroCoef>
-5.4800

> <Gold.Chemscore.Hbond>
1.8324

> <Gold.Chemscore.Metal>
0.0000

> <Gold.Chemscore.Lipo>
130.9821

> <Gold.Chemscore.Internal_Hbond>
0.0000

> <Gold.Chemscore.DEClash>
0.0524

> <Gold.Chemscore.DEInternal>
2.5174

> <Gold.Chemscore.Rot>
2.6470

> <Gold.Chemscore.Internal.Correction>
   9.000000E+99

> <Gold.Chemscore.Hbonds>
donor molecule, donor type, donor heavy atom, donor atom, acceptor molecule, acceptor atom, score
      P1  H  6896  6907       L1     7  0.41
      P1  H  6896  6909       L1    19  0.16
      P1  H  6931  6943       L1     3  0.23
      P1  H  6934  6947       L1     3  0.34

> <Gold.Chemscore.Hbond.Weighted>
-6.1202

> <Gold.Chemscore.Metal.Weighted>
-0.0000

> <Gold.Chemscore.Lipo.Weighted>
-15.3249

> <Gold.Chemscore.Internal_Hbond.Weighted>
0.0000

> <Gold.Chemscore.DEClash.Weighted>
0.0524

> <Gold.Chemscore.DEInternal.Weighted>
2.5174

> <Gold.Chemscore.Rot.Weighted>
6.7762

> <Gold.Chemscore.Internal.Correction.Weighted>
   9.000000E+99

> <Gold.Protein.RotatedTorsions>
[ 6907 6896 6895 6894 ] final    9.71 input  -60.11 | X-H torsion
[ 7974 7965 7964 7962 ] final  122.16 input  175.53 | X-H torsion
[ 8008 7997 7996 7995 ] final    6.55 input   59.86 | X-H torsion
[ 10167 10162 10161 10158 ] final   36.12 input  -65.29 | X-H torsion
[ 10718 10713 10712 10709 ] final  -56.23 input   66.30 | X-H torsion
[ 10763 10752 10751 10750 ] final -128.03 input  -60.55 | X-H torsion
[ 11005 11000 10999 10996 ] final -100.39 input  -57.11 | X-H torsion

> <Gold.Protein.ActiveResidues>
 VAL166  LYS551  ARG553  GLY616  TRP617  ASP618  TYR619  PRO620  LYS621  CYS622 
 ASP623  PHE694  ASN695  SER759  ASP760  ASP761  ALA762  ILE779  LEU786  VAL792 
 PHE793  MET794  SER795  GLU796  ALA797  LYS798  CYS799  TRP800  GLU811  SER814 

> <Gold.Protein.RotatedAtoms>
  151.7266  135.0883  160.0292 H   0  0  0  0  0  0  0  0  0  0  0  0  # atno 6907 bound_to 6896
  152.3568  133.6243  159.5994 H   0  0  0  0  0  0  0  0  0  0  0  0  # atno 6908 bound_to 6896
  150.7577  133.9403  159.3496 H   0  0  0  0  0  0  0  0  0  0  0  0  # atno 6909 bound_to 6896
  145.1108  139.3454  143.4764 H   0  0  0  0  0  0  0  0  0  0  0  0  # atno 7974 bound_to 7965
  154.7424  140.2751  155.6361 H   0  0  0  0  0  0  0  0  0  0  0  0  # atno 8008 bound_to 7997
  156.2877  140.2694  156.2082 H   0  0  0  0  0  0  0  0  0  0  0  0  # atno 8009 bound_to 7997
  155.0241  140.0371  157.2438 H   0  0  0  0  0  0  0  0  0  0  0  0  # atno 8010 bound_to 7997
  140.4157  144.1530  150.6143 H   0  0  0  0  0  0  0  0  0  0  0  0  # atno 10167 bound_to 10162
  156.1305  130.4160  150.0277 H   0  0  0  0  0  0  0  0  0  0  0  0  # atno 10718 bound_to 10713
  154.8755  135.3942  154.3690 H   0  0  0  0  0  0  0  0  0  0  0  0  # atno 10763 bound_to 10752
  153.4452  135.7027  153.6148 H   0  0  0  0  0  0  0  0  0  0  0  0  # atno 10764 bound_to 10752
  153.4712  135.3790  155.2361 H   0  0  0  0  0  0  0  0  0  0  0  0  # atno 10765 bound_to 10752
  141.1272  133.8395  157.1096 H   0  0  0  0  0  0  0  0  0  0  0  0  # atno 11005 bound_to 11000
  146.3526  140.1026  142.8607 LP  0  0  0  0  0  0  0  0  0  0  0  0  # atno 17320 bound_to 7965
  145.0849  140.9246  143.4803 LP  0  0  0  0  0  0  0  0  0  0  0  0  # atno 17321 bound_to 7965
  140.4589  143.2457  151.9247 LP  0  0  0  0  0  0  0  0  0  0  0  0  # atno 17342 bound_to 10162
  139.4782  144.5488  151.8418 LP  0  0  0  0  0  0  0  0  0  0  0  0  # atno 17343 bound_to 10162
  156.8191  130.9352  151.3642 LP  0  0  0  0  0  0  0  0  0  0  0  0  # atno 17370 bound_to 10713
  157.6483  130.8863  149.9582 LP  0  0  0  0  0  0  0  0  0  0  0  0  # atno 17371 bound_to 10713
  140.0283  134.9913  157.0730 LP  0  0  0  0  0  0  0  0  0  0  0  0  # atno 17394 bound_to 11000
  140.4326  134.1764  155.7169 LP  0  0  0  0  0  0  0  0  0  0  0  0  # atno 17395 bound_to 11000

$$$$
