AV-unprocessed.smi:197|AV-procd|sdf|1545|dock2
  -GOLD-   2262019403D 1   1.00000     0.00000
 Structure written by MMmdl.
 54 57  0  0  0  0  0  0  0  0  1 V2000
  151.8408  143.9062  159.2587 C   0  0  0  0  0  0  0  0  0  0  0  0
  151.2525  142.6741  158.8713 O   0  0  0  0  0  0  0  0  0  0  0  0
  151.2445  142.4462  157.4687 C   0  0  0  0  0  0  0  0  0  0  0  0
  151.0312  140.9579  157.1356 C   0  0  0  0  0  0  0  0  0  0  0  0
  149.5720  140.6058  156.7548 C   0  0  1  0  0  0  0  0  0  0  0  0
  149.0230  141.4681  155.5968 C   0  0  0  0  0  0  0  0  0  0  0  0
  149.6885  141.1381  154.3816 O   0  0  0  0  0  0  0  0  0  0  0  0
  149.4614  139.7853  154.0011 C   0  0  0  0  0  0  0  0  0  0  0  0
  149.9976  138.8403  155.0885 C   0  0  0  0  0  0  0  0  0  0  0  0
  149.4264  139.1935  156.3876 N   0  0  0  0  0  0  0  0  0  0  0  0
  149.5218  138.2885  157.3974 C   0  0  0  0  0  0  0  0  0  0  0  0
  150.6938  138.1596  158.0759 N   0  0  0  0  0  0  0  0  0  0  0  0
  150.8005  137.2900  159.0841 C   0  0  0  0  0  0  0  0  0  0  0  0
  149.8759  136.4619  159.5725 N   0  0  0  0  0  0  0  0  0  0  0  0
  148.6991  136.5791  158.8939 C   0  0  0  0  0  0  0  0  0  0  0  0
  148.4395  137.4547  157.8010 C   0  0  0  0  0  0  0  0  0  0  0  0
  147.1359  137.2730  157.3532 N   0  0  0  0  0  0  0  0  0  0  0  0
  146.6511  136.3534  158.1413 C   0  0  0  0  0  0  0  0  0  0  0  0
  147.5172  135.8903  159.1051 N   0  0  0  0  0  0  0  0  0  0  0  0
  147.2391  134.8737  160.1080 C   0  0  0  0  0  0  0  0  0  0  0  0
  147.0922  135.4305  161.5514 C   0  0  1  0  0  0  0  0  0  0  0  0
  148.2464  136.1731  161.8953 O   0  0  0  0  0  0  0  0  0  0  0  0
  145.8632  136.3086  161.7545 C   0  0  0  0  0  0  0  0  0  0  0  0
  144.7605  135.2842  162.0037 C   0  0  0  0  0  0  0  0  0  0  0  0
  145.4011  134.1712  162.6205 O   0  0  0  0  0  0  0  0  0  0  0  0
  146.8153  134.3504  162.6150 C   0  0  1  0  0  0  0  0  0  0  0  0
  147.5337  133.0043  162.4375 C   0  0  0  0  0  0  0  0  0  0  0  0
  151.8414  143.9793  160.3461 H   0  0  0  0  0  0  0  0  0  0  0  0
  151.2901  144.7635  158.8726 H   0  0  0  0  0  0  0  0  0  0  0  0
  152.8754  143.9737  158.9201 H   0  0  0  0  0  0  0  0  0  0  0  0
  150.4982  143.0727  156.9776 H   0  0  0  0  0  0  0  0  0  0  0  0
  152.2148  142.7705  157.0949 H   0  0  0  0  0  0  0  0  0  0  0  0
  151.7125  140.6655  156.3359 H   0  0  0  0  0  0  0  0  0  0  0  0
  151.3176  140.3655  158.0036 H   0  0  0  0  0  0  0  0  0  0  0  0
  148.9505  140.8126  157.6239 H   0  0  0  0  0  0  0  0  0  0  0  0
  147.9500  141.3070  155.4806 H   0  0  0  0  0  0  0  0  0  0  0  0
  149.1486  142.5309  155.7970 H   0  0  0  0  0  0  0  0  0  0  0  0
  148.3957  139.6192  153.8353 H   0  0  0  0  0  0  0  0  0  0  0  0
  149.9643  139.5919  153.0536 H   0  0  0  0  0  0  0  0  0  0  0  0
  149.7424  137.8116  154.8304 H   0  0  0  0  0  0  0  0  0  0  0  0
  151.0854  138.9005  155.1359 H   0  0  0  0  0  0  0  0  0  0  0  0
  151.7644  137.2541  159.5703 H   0  0  0  0  0  0  0  0  0  0  0  0
  145.6383  135.9897  158.0454 H   0  0  0  0  0  0  0  0  0  0  0  0
  146.3304  134.3495  159.8100 H   0  0  0  0  0  0  0  0  0  0  0  0
  148.0411  134.1358  160.0651 H   0  0  0  0  0  0  0  0  0  0  0  0
  149.0089  135.6497  161.7014 H   0  0  0  0  0  0  0  0  0  0  0  0
  145.9814  136.9207  162.6506 H   0  0  0  0  0  0  0  0  0  0  0  0
  145.6426  136.9871  160.9319 H   0  0  0  0  0  0  0  0  0  0  0  0
  143.9616  135.6808  162.6305 H   0  0  0  0  0  0  0  0  0  0  0  0
  144.3202  134.9562  161.0613 H   0  0  0  0  0  0  0  0  0  0  0  0
  147.0719  134.7516  163.5975 H   0  0  0  0  0  0  0  0  0  0  0  0
  148.6148  133.1403  162.3988 H   0  0  0  0  0  0  0  0  0  0  0  0
  147.2226  132.4969  161.5244 H   0  0  0  0  0  0  0  0  0  0  0  0
  147.3134  132.3377  163.2712 H   0  0  0  0  0  0  0  0  0  0  0  0
  1  2  1  0  0  0  0
  1 28  1  0  0  0  0
  1 29  1  0  0  0  0
  1 30  1  0  0  0  0
  2  3  1  0  0  0  0
  3  4  1  0  0  0  0
  3 31  1  0  0  0  0
  3 32  1  0  0  0  0
  4  5  1  0  0  0  0
  4 33  1  0  0  0  0
  4 34  1  0  0  0  0
  5 10  1  0  0  0  0
  5  6  1  0  0  0  0
  5 35  1  0  0  0  0
  6  7  1  0  0  0  0
  6 36  1  0  0  0  0
  6 37  1  0  0  0  0
  7  8  1  0  0  0  0
  8  9  1  0  0  0  0
  8 38  1  0  0  0  0
  8 39  1  0  0  0  0
  9 10  1  0  0  0  0
  9 40  1  0  0  0  0
  9 41  1  0  0  0  0
 10 11  1  0  0  0  0
 11 16  1  0  0  0  0
 11 12  2  0  0  0  0
 12 13  1  0  0  0  0
 13 14  2  0  0  0  0
 13 42  1  0  0  0  0
 14 15  1  0  0  0  0
 15 19  1  0  0  0  0
 15 16  2  0  0  0  0
 16 17  1  0  0  0  0
 17 18  2  0  0  0  0
 18 19  1  0  0  0  0
 18 43  1  0  0  0  0
 19 20  1  0  0  0  0
 20 21  1  0  0  0  0
 20 44  1  0  0  0  0
 20 45  1  0  0  0  0
 21 26  1  0  0  0  0
 21 22  1  0  0  0  0
 21 23  1  0  0  0  0
 22 46  1  0  0  0  0
 23 24  1  0  0  0  0
 23 47  1  0  0  0  0
 23 48  1  0  0  0  0
 24 25  1  0  0  0  0
 24 49  1  0  0  0  0
 24 50  1  0  0  0  0
 25 26  1  0  0  0  0
 26 27  1  0  0  0  0
 26 51  1  0  0  0  0
 27 52  1  0  0  0  0
 27 53  1  0  0  0  0
 27 54  1  0  0  0  0
M  END
> <s_m_source_file>
AV-unprocessed.smi

> <i_m_source_file_index>
197

> <i_lp_mmshare_version>
43012

> <i_f3d_flags>
0

> <s_epik_input>
W0NIM11PW0NIMl1bQ0gyXVtDQEBIXTFbQ0gyXU9bQ0gyXVtDSDJdTjFjKG5bY0hdbjIpYyhjMjMpbltjSF1uM1tDSDJdW0NAQF00KFtPSF0pW0NIMl1bQ0gyXU9bQ0BIXTRbQ0gzXQ==

> <s_epik_cmdline>
J2VwaWtfcHl0aG9uJywgJy1waCcsICc3LjAnLCAnLXRuJywgJzgnLCAnLW1hJywgJzIwMCcsICctbWV0YWxfYmluZGluZycsICctaW1hZScsICc8aW5maWxlLm1hZT4nLCAnLW9tYWUnLCAnPG91dGZpbGUubWFlPic=

> <r_lp_tautomer_probability>
1

> <r_epik_Ionization_Penalty>
0.000106218

> <r_epik_Ionization_Penalty_Charging>
0

> <r_epik_Ionization_Penalty_Neutral>
0.000106218

> <r_epik_State_Penalty>
-0

> <r_epik_Charging_Adjusted_Penalty>
0

> <i_epik_Tot_Q>
0

> <i_epik_Tot_abs_Q>
0

> <r_epik_Metal_State_Penalty>
-0

> <b_epik_Metal_Only>
0

> <s_lp_Force_Field>
OPLS_2005

> <r_lp_Energy>
43.0465

> <b_lp_Chiralities_Consistent>
1

> <s_lp_Variant>
AV-unprocessed.smi:197-2

> <Gold.Version>
5.8.1

> <Gold.Id.Protein>
6NUR|6NUR_protein|mol2

> <Gold.PLP.Fitness>
44.5684

> <Gold.PLP.PLP>
-37.3407

> <Gold.PLP.part.hbond>
-3.8924

> <Gold.PLP.part.metal>
0.0000

> <Gold.PLP.part.buried>
-2.7096

> <Gold.PLP.part.nonpolar>
-31.4658

> <Gold.PLP.part.repulsive>
0.7573

> <Gold.PLP.ligand.clash>
0.0000

> <Gold.PLP.ligand.torsion>
0.7960

> <Gold.PLP.Chemscore.Hbond>
2.7379

> <Gold.PLP.Chemscore.CHOScore>
0.0000

> <Gold.PLP.Chemscore.Metal>
0.0000

> <Gold.Chemscore.Hbonds>
donor molecule, donor type, donor heavy atom, donor atom, acceptor molecule, acceptor atom, score
      P1  H  6896  6909       L1    14  0.85
      P1  H  6931  6943       L1    22  0.54
      P1  H  7989  7998       L1     7  0.11
      P1  H  8011  8017       L1     7  0.03

> <Gold.PLP.Chemscore.Internal.Correction>
0.6060

> <Gold.Rescore>
     Score         DG    S(hbond)    S(metal)    S(lipo)     H(rot)  DE(clash)    DE(int)     intcor
     12.25     -17.13       2.18        0.00      99.35       2.84       2.85       2.03       ----

> <Gold.Chemscore.Fitness>
12.2485

> <Gold.Chemscore.DG>
-17.1310

> <Gold.Chemscore.ZeroCoef>
-5.4800

> <Gold.Chemscore.Hbond>
2.1817

> <Gold.Chemscore.Metal>
0.0000

> <Gold.Chemscore.Lipo>
99.3480

> <Gold.Chemscore.Internal_Hbond>
0.0000

> <Gold.Chemscore.DEClash>
2.8518

> <Gold.Chemscore.DEInternal>
2.0307

> <Gold.Chemscore.Rot>
2.8358

> <Gold.Chemscore.Internal.Correction>
   9.000000E+99

> <Gold.Chemscore.Hbonds>
donor molecule, donor type, donor heavy atom, donor atom, acceptor molecule, acceptor atom, score
      P1  H  6896  6909       L1    14  0.15
      P1  H  6931  6943       L1    22  0.21
      P1  H  8011  8017       L1     7  0.04

> <Gold.Chemscore.Hbond.Weighted>
-7.2869

> <Gold.Chemscore.Metal.Weighted>
-0.0000

> <Gold.Chemscore.Lipo.Weighted>
-11.6237

> <Gold.Chemscore.Internal_Hbond.Weighted>
0.0000

> <Gold.Chemscore.DEClash.Weighted>
2.8518

> <Gold.Chemscore.DEInternal.Weighted>
2.0307

> <Gold.Chemscore.Rot.Weighted>
7.2596

> <Gold.Chemscore.Internal.Correction.Weighted>
   9.000000E+99

> <Gold.Protein.RotatedTorsions>
[ 6907 6896 6895 6894 ] final   84.27 input  -60.11 | X-H torsion
[ 7974 7965 7964 7962 ] final   63.87 input  175.53 | X-H torsion
[ 8008 7997 7996 7995 ] final  125.46 input   59.86 | X-H torsion
[ 10167 10162 10161 10158 ] final   22.29 input  -65.29 | X-H torsion
[ 10718 10713 10712 10709 ] final  138.25 input   66.30 | X-H torsion
[ 10763 10752 10751 10750 ] final -145.94 input  -60.55 | X-H torsion
[ 11005 11000 10999 10996 ] final   79.64 input  -57.11 | X-H torsion

> <Gold.Protein.ActiveResidues>
 VAL166  LYS551  ARG553  GLY616  TRP617  ASP618  TYR619  PRO620  LYS621  CYS622 
 ASP623  PHE694  ASN695  SER759  ASP760  ASP761  ALA762  ILE779  LEU786  VAL792 
 PHE793  MET794  SER795  GLU796  ALA797  LYS798  CYS799  TRP800  GLU811  SER814 

> <Gold.Protein.RotatedAtoms>
  152.5348  134.2766  159.8991 H   0  0  0  0  0  0  0  0  0  0  0  0  # atno 6907 bound_to 6896
  151.2722  133.4243  159.2629 H   0  0  0  0  0  0  0  0  0  0  0  0  # atno 6908 bound_to 6896
  151.0358  134.9587  159.8192 H   0  0  0  0  0  0  0  0  0  0  0  0  # atno 6909 bound_to 6896
  145.8569  139.3289  143.0842 H   0  0  0  0  0  0  0  0  0  0  0  0  # atno 7974 bound_to 7965
  156.2834  140.2716  156.1953 H   0  0  0  0  0  0  0  0  0  0  0  0  # atno 8008 bound_to 7997
  155.0417  140.0386  157.2529 H   0  0  0  0  0  0  0  0  0  0  0  0  # atno 8009 bound_to 7997
  154.7269  140.2699  155.6496 H   0  0  0  0  0  0  0  0  0  0  0  0  # atno 8010 bound_to 7997
  140.5360  143.9760  150.6491 H   0  0  0  0  0  0  0  0  0  0  0  0  # atno 10167 bound_to 10162
  157.4273  131.1045  151.0289 H   0  0  0  0  0  0  0  0  0  0  0  0  # atno 10718 bound_to 10713
  154.8360  135.3400  154.6583 H   0  0  0  0  0  0  0  0  0  0  0  0  # atno 10763 bound_to 10752
  153.7197  135.6959  153.5020 H   0  0  0  0  0  0  0  0  0  0  0  0  # atno 10764 bound_to 10752
  153.2390  135.4391  155.0630 H   0  0  0  0  0  0  0  0  0  0  0  0  # atno 10765 bound_to 10752
  139.9165  134.7858  156.1805 H   0  0  0  0  0  0  0  0  0  0  0  0  # atno 11005 bound_to 11000
  145.9294  140.9059  143.0364 LP  0  0  0  0  0  0  0  0  0  0  0  0  # atno 17320 bound_to 7965
  144.6727  140.1397  143.7438 LP  0  0  0  0  0  0  0  0  0  0  0  0  # atno 17321 bound_to 7965
  140.3148  143.3175  152.0843 LP  0  0  0  0  0  0  0  0  0  0  0  0  # atno 17342 bound_to 10162
  139.4971  144.6613  151.6459 LP  0  0  0  0  0  0  0  0  0  0  0  0  # atno 17343 bound_to 10162
  157.1198  130.6057  149.5502 LP  0  0  0  0  0  0  0  0  0  0  0  0  # atno 17370 bound_to 10713
  155.9901  130.4951  150.7242 LP  0  0  0  0  0  0  0  0  0  0  0  0  # atno 17371 bound_to 10713
  141.0645  133.6826  156.2017 LP  0  0  0  0  0  0  0  0  0  0  0  0  # atno 17394 bound_to 11000
  140.6607  134.4970  157.5583 LP  0  0  0  0  0  0  0  0  0  0  0  0  # atno 17395 bound_to 11000

$$$$
