AV-unprocessed.smi:1107|AV-procd|sdf|4785|dock10
  -GOLD-   22720 3333D 1   1.00000     0.00000
 Structure written by MMmdl.
 48 49  0  0  0  0  0  0  0  0  3 V2000
  147.0510  137.3766  163.5888 C   0  0  0  0  0  0  0  0  0  0  0  0
  147.3048  136.4521  162.4172 C   0  0  0  0  0  0  0  0  0  0  0  0
  147.1159  135.1961  162.5627 N   0  0  0  0  0  0  0  0  0  0  0  0
  147.3595  134.3294  161.4838 C   0  0  0  0  0  0  0  0  0  0  0  0
  147.1503  132.8513  161.7616 C   0  0  0  0  0  0  0  0  0  0  0  0
  147.7754  134.8081  160.2762 C   0  0  0  0  0  0  0  0  0  0  0  0
  148.1248  133.9165  159.0836 C   0  0  0  0  0  0  0  0  0  0  0  0
  147.1583  134.0216  157.9016 C   0  0  0  0  0  0  0  0  0  0  0  0
  145.9644  134.2432  158.0987 O   0  0  0  0  0  0  0  0  0  0  0  0
  147.7012  133.9059  156.6790 N   0  0  0  0  0  0  0  0  0  0  0  0
  147.0419  134.1877  155.4079 C   0  0  2  0  0  0  0  0  0  0  0  0
  147.0280  135.7028  155.1656 C   0  0  0  0  0  0  0  0  0  0  0  0
  145.6138  133.5960  155.4115 C   0  0  0  0  0  0  0  0  0  0  0  0
  145.0802  133.3133  154.0515 N   0  3  0  0  0  0  0  0  0  0  0  0
  144.6418  134.5513  153.3547 C   0  0  0  0  0  0  0  0  0  0  0  0
  144.0017  134.2403  151.9906 C   0  0  0  0  0  0  0  0  0  0  0  0
  144.9427  133.4091  151.1106 C   0  0  0  0  0  0  0  0  0  0  0  0
  145.3824  132.1477  151.8635 C   0  0  0  0  0  0  0  0  0  0  0  0
  146.0134  132.5098  153.2172 C   0  0  0  0  0  0  0  0  0  0  0  0
  147.9731  136.2620  160.1477 C   0  0  0  0  0  0  0  0  0  0  0  0
  148.3559  136.7418  159.0817 O   0  0  0  0  0  0  0  0  0  0  0  0
  147.7397  137.0324  161.2470 N   0  5  0  0  0  0  0  0  0  0  0  0
  146.3351  136.9361  164.2840 H   0  0  0  0  0  0  0  0  0  0  0  0
  146.6486  138.3316  163.2487 H   0  0  0  0  0  0  0  0  0  0  0  0
  147.9813  137.5644  164.1253 H   0  0  0  0  0  0  0  0  0  0  0  0
  148.0551  132.2842  161.5423 H   0  0  0  0  0  0  0  0  0  0  0  0
  146.3380  132.4612  161.1479 H   0  0  0  0  0  0  0  0  0  0  0  0
  146.8931  132.6780  162.8072 H   0  0  0  0  0  0  0  0  0  0  0  0
  149.1246  134.1485  158.7187 H   0  0  0  0  0  0  0  0  0  0  0  0
  148.1795  132.8776  159.4126 H   0  0  0  0  0  0  0  0  0  0  0  0
  148.6893  133.7004  156.6345 H   0  0  0  0  0  0  0  0  0  0  0  0
  147.6060  133.7419  154.5880 H   0  0  0  0  0  0  0  0  0  0  0  0
  146.5515  135.9433  154.2147 H   0  0  0  0  0  0  0  0  0  0  0  0
  148.0415  136.1044  155.1360 H   0  0  0  0  0  0  0  0  0  0  0  0
  146.4850  136.2279  155.9522 H   0  0  0  0  0  0  0  0  0  0  0  0
  145.6415  132.6604  155.9727 H   0  0  0  0  0  0  0  0  0  0  0  0
  144.9268  134.2513  155.9490 H   0  0  0  0  0  0  0  0  0  0  0  0
  143.9167  135.0819  153.9730 H   0  0  0  0  0  0  0  0  0  0  0  0
  145.4969  135.2162  153.2241 H   0  0  0  0  0  0  0  0  0  0  0  0
  143.0679  133.6989  152.1366 H   0  0  0  0  0  0  0  0  0  0  0  0
  143.7394  135.1687  151.4826 H   0  0  0  0  0  0  0  0  0  0  0  0
  144.4458  133.1387  150.1787 H   0  0  0  0  0  0  0  0  0  0  0  0
  145.8171  134.0022  150.8399 H   0  0  0  0  0  0  0  0  0  0  0  0
  144.5238  131.4941  152.0219 H   0  0  0  0  0  0  0  0  0  0  0  0
  146.0933  131.5826  151.2602 H   0  0  0  0  0  0  0  0  0  0  0  0
  146.9373  133.0687  153.0615 H   0  0  0  0  0  0  0  0  0  0  0  0
  146.2849  131.5895  153.7328 H   0  0  0  0  0  0  0  0  0  0  0  0
  144.2473  132.7551  154.1793 H   0  0  0  0  0  0  0  0  0  0  0  0
  1  2  1  0  0  0  0
  1 23  1  0  0  0  0
  1 24  1  0  0  0  0
  1 25  1  0  0  0  0
  2 22  1  0  0  0  0
  2  3  2  0  0  0  0
  3  4  1  0  0  0  0
  4  5  1  0  0  0  0
  4  6  2  0  0  0  0
  5 26  1  0  0  0  0
  5 27  1  0  0  0  0
  5 28  1  0  0  0  0
  6  7  1  0  0  0  0
  6 20  1  0  0  0  0
  7  8  1  0  0  0  0
  7 29  1  0  0  0  0
  7 30  1  0  0  0  0
  8  9  2  0  0  0  0
  8 10  1  0  0  0  0
 10 11  1  0  0  0  0
 10 31  1  0  0  0  0
 11 12  1  0  0  0  0
 11 13  1  0  0  0  0
 11 32  1  0  0  0  0
 12 33  1  0  0  0  0
 12 34  1  0  0  0  0
 12 35  1  0  0  0  0
 13 14  1  0  0  0  0
 13 36  1  0  0  0  0
 13 37  1  0  0  0  0
 14 19  1  0  0  0  0
 14 15  1  0  0  0  0
 14 48  1  0  0  0  0
 15 16  1  0  0  0  0
 15 38  1  0  0  0  0
 15 39  1  0  0  0  0
 16 17  1  0  0  0  0
 16 40  1  0  0  0  0
 16 41  1  0  0  0  0
 17 18  1  0  0  0  0
 17 42  1  0  0  0  0
 17 43  1  0  0  0  0
 18 19  1  0  0  0  0
 18 44  1  0  0  0  0
 18 45  1  0  0  0  0
 19 46  1  0  0  0  0
 19 47  1  0  0  0  0
 20 21  2  0  0  0  0
 20 22  1  0  0  0  0
M  CHG  1  14   1
M  CHG  1  22  -1
M  END
> <s_m_source_file>
AV-unprocessed.smi

> <i_m_source_file_index>
1107

> <i_lp_mmshare_version>
43012

> <i_f3d_flags>
0

> <s_epik_input>
W0NIM11jMW5jKFtDSDNdKWMoYyg9TylbbkhdMSlbQ0gyXUMoPU8pW05IXVtDQEhdKFtDSDNdKVtDSDJdTjJbQ0gyXVtDSDJdW0NIMl1bQ0gyXVtDSDJdMg==

> <s_epik_cmdline>
J2VwaWtfcHl0aG9uJywgJy1waCcsICc3LjAnLCAnLXRuJywgJzgnLCAnLW1hJywgJzIwMCcsICctbWV0YWxfYmluZGluZycsICctaW1hZScsICc8aW5maWxlLm1hZT4nLCAnLW9tYWUnLCAnPG91dGZpbGUubWFlPic=

> <r_lp_tautomer_probability>
0.839158

> <r_epik_Ionization_Penalty>
6.34615

> <r_epik_Ionization_Penalty_Charging>
0.00266072

> <r_epik_Ionization_Penalty_Neutral>
6.34348

> <r_epik_State_Penalty>
4.30851

> <r_epik_Charging_Adjusted_Penalty>
4.31117

> <i_epik_Tot_Q>
0

> <i_epik_Tot_abs_Q>
2

> <r_epik_Metal_State_Penalty>
0.75957

> <b_epik_Metal_Only>
1

> <s_lp_Force_Field>
OPLS_2005

> <r_lp_Energy>
18.3813

> <b_lp_Chiralities_Consistent>
1

> <s_lp_Variant>
AV-unprocessed.smi:1107-5

> <Gold.Version>
5.8.1

> <Gold.Id.Protein>
6NUR|6NUR_protein|mol2

> <Gold.PLP.Fitness>
42.3875

> <Gold.PLP.PLP>
-27.4561

> <Gold.PLP.part.hbond>
-3.0000

> <Gold.PLP.part.metal>
0.0000

> <Gold.PLP.part.buried>
-4.4830

> <Gold.PLP.part.nonpolar>
-19.9009

> <Gold.PLP.part.repulsive>
0.0000

> <Gold.PLP.ligand.clash>
0.0000

> <Gold.PLP.ligand.torsion>
1.0235

> <Gold.PLP.Chemscore.Hbond>
5.6480

> <Gold.PLP.Chemscore.CHOScore>
0.0000

> <Gold.PLP.Chemscore.Metal>
0.0000

> <Gold.Chemscore.Hbonds>
donor molecule, donor type, donor heavy atom, donor atom, acceptor molecule, acceptor atom, score
      L1  H    14    48       P1 10957  2.00
      P1  H  6931  6943       L1    22  2.00
      P1  H  6934  6947       L1    22  1.46

> <Gold.PLP.Chemscore.Internal.Correction>
0.0343

> <Gold.Rescore>
     Score         DG    S(hbond)    S(metal)    S(lipo)     H(rot)  DE(clash)    DE(int)     intcor
     11.23     -14.26       2.01        0.00      59.79       1.92       0.52       2.52       ----

> <Gold.Chemscore.Fitness>
11.2309

> <Gold.Chemscore.DG>
-14.2641

> <Gold.Chemscore.ZeroCoef>
-5.4800

> <Gold.Chemscore.Hbond>
2.0097

> <Gold.Chemscore.Metal>
0.0000

> <Gold.Chemscore.Lipo>
59.7901

> <Gold.Chemscore.Internal_Hbond>
0.0000

> <Gold.Chemscore.DEClash>
0.5173

> <Gold.Chemscore.DEInternal>
2.5159

> <Gold.Chemscore.Rot>
1.9233

> <Gold.Chemscore.Internal.Correction>
   9.000000E+99

> <Gold.Chemscore.Hbonds>
donor molecule, donor type, donor heavy atom, donor atom, acceptor molecule, acceptor atom, score
      L1  H    14    48       P1 10957  0.92
      P1  H  6931  6943       L1    22  0.29
      P1  H  6934  6947       L1    22  0.62

> <Gold.Chemscore.Hbond.Weighted>
-6.7124

> <Gold.Chemscore.Metal.Weighted>
-0.0000

> <Gold.Chemscore.Lipo.Weighted>
-6.9954

> <Gold.Chemscore.Internal_Hbond.Weighted>
0.0000

> <Gold.Chemscore.DEClash.Weighted>
0.5173

> <Gold.Chemscore.DEInternal.Weighted>
2.5159

> <Gold.Chemscore.Rot.Weighted>
4.9237

> <Gold.Chemscore.Internal.Correction.Weighted>
   9.000000E+99

> <Gold.Protein.RotatedTorsions>
[ 6907 6896 6895 6894 ] final   67.35 input  -60.11 | X-H torsion
[ 7974 7965 7964 7962 ] final   93.40 input  175.53 | X-H torsion
[ 8008 7997 7996 7995 ] final   94.61 input   59.86 | X-H torsion
[ 10167 10162 10161 10158 ] final  -95.07 input  -65.29 | X-H torsion
[ 10718 10713 10712 10709 ] final -158.52 input   66.30 | X-H torsion
[ 10763 10752 10751 10750 ] final   89.90 input  -60.55 | X-H torsion
[ 11005 11000 10999 10996 ] final  -20.32 input  -57.11 | X-H torsion

> <Gold.Protein.ActiveResidues>
 VAL166  LYS551  ARG553  GLY616  TRP617  ASP618  TYR619  PRO620  LYS621  CYS622 
 ASP623  PHE694  ASN695  SER759  ASP760  ASP761  ALA762  ILE779  LEU786  VAL792 
 PHE793  MET794  SER795  GLU796  ALA797  LYS798  CYS799  TRP800  GLU811  SER814 

> <Gold.Protein.RotatedAtoms>
  152.4545  134.5321  159.9813 H   0  0  0  0  0  0  0  0  0  0  0  0  # atno 6907 bound_to 6896
  151.5385  133.3431  159.2939 H   0  0  0  0  0  0  0  0  0  0  0  0  # atno 6908 bound_to 6896
  150.8485  134.7833  159.7052 H   0  0  0  0  0  0  0  0  0  0  0  0  # atno 6909 bound_to 6896
  145.4794  139.2279  143.2891 H   0  0  0  0  0  0  0  0  0  0  0  0  # atno 7974 bound_to 7965
  156.0598  140.3297  155.7449 H   0  0  0  0  0  0  0  0  0  0  0  0  # atno 8008 bound_to 7997
  155.5472  140.0607  157.2875 H   0  0  0  0  0  0  0  0  0  0  0  0  # atno 8009 bound_to 7997
  154.4476  140.1900  156.0638 H   0  0  0  0  0  0  0  0  0  0  0  0  # atno 8010 bound_to 7997
  140.3079  143.3122  152.0179 H   0  0  0  0  0  0  0  0  0  0  0  0  # atno 10167 bound_to 10162
  156.5552  130.8623  151.2792 H   0  0  0  0  0  0  0  0  0  0  0  0  # atno 10718 bound_to 10713
  153.1920  135.4453  155.0160 H   0  0  0  0  0  0  0  0  0  0  0  0  # atno 10763 bound_to 10752
  154.8096  135.3288  154.7344 H   0  0  0  0  0  0  0  0  0  0  0  0  # atno 10764 bound_to 10752
  153.7797  135.6978  153.4946 H   0  0  0  0  0  0  0  0  0  0  0  0  # atno 10765 bound_to 10752
  140.8453  133.7896  155.9906 H   0  0  0  0  0  0  0  0  0  0  0  0  # atno 11005 bound_to 11000
  146.2350  140.5579  142.8959 LP  0  0  0  0  0  0  0  0  0  0  0  0  # atno 17320 bound_to 7965
  144.7898  140.6009  143.6549 LP  0  0  0  0  0  0  0  0  0  0  0  0  # atno 17321 bound_to 7965
  139.4900  144.6406  151.6884 LP  0  0  0  0  0  0  0  0  0  0  0  0  # atno 17342 bound_to 10162
  140.5593  144.0295  150.6162 LP  0  0  0  0  0  0  0  0  0  0  0  0  # atno 17343 bound_to 10162
  157.7379  130.9805  150.2223 LP  0  0  0  0  0  0  0  0  0  0  0  0  # atno 17370 bound_to 10713
  156.2848  130.3738  149.7899 LP  0  0  0  0  0  0  0  0  0  0  0  0  # atno 17371 bound_to 10713
  140.8850  134.2565  157.5124 LP  0  0  0  0  0  0  0  0  0  0  0  0  # atno 17394 bound_to 11000
  139.8703  134.9634  156.4459 LP  0  0  0  0  0  0  0  0  0  0  0  0  # atno 17395 bound_to 11000

$$$$
