AV-unprocessed.smi:1664|AV-procd|sdf|6667|dock4
  -GOLD-   22720 7373D 1   1.00000     0.00000
 Structure written by MMmdl.
 35 36  0  0  0  0  0  0  0  0  3 V2000
  152.4935  137.5173  159.0337 C   0  0  0  0  0  0  0  0  0  0  0  0
  151.4366  137.9595  158.0022 C   0  0  1  0  0  0  0  0  0  0  0  0
  151.5864  137.1470  156.7763 C   0  0  0  0  0  0  0  0  0  0  0  0
  151.7035  136.5103  155.8165 N   0  0  0  0  0  0  0  0  0  0  0  0
  150.0998  137.7855  158.5729 N   0  0  0  0  0  0  0  0  0  0  0  0
  149.4739  136.6302  158.8555 C   0  0  0  0  0  0  0  0  0  0  0  0
  149.9823  135.5208  158.7022 O   0  0  0  0  0  0  0  0  0  0  0  0
  148.0417  136.7498  159.3853 C   0  0  0  0  0  0  0  0  0  0  0  0
  147.7544  135.7244  160.4010 N   0  0  0  0  0  0  0  0  0  0  0  0
  147.6130  134.3986  159.9447 C   0  0  0  0  0  0  0  0  0  0  0  0
  147.3682  133.3738  160.7843 C   0  0  0  0  0  0  0  0  0  0  0  0
  147.2396  132.0177  160.2973 N   0  3  0  0  0  0  0  0  0  0  0  0
  147.4187  131.8017  159.1031 O   0  0  0  0  0  0  0  0  0  0  0  0
  146.9546  131.1252  161.0904 O   0  5  0  0  0  0  0  0  0  0  0  0
  147.2458  133.6748  162.1974 C   0  0  0  0  0  0  0  0  0  0  0  0
  147.3831  134.9399  162.6409 C   0  0  0  0  0  0  0  0  0  0  0  0
  147.6573  136.0528  161.7259 C   0  0  0  0  0  0  0  0  0  0  0  0
  147.7915  137.2086  162.1269 O   0  0  0  0  0  0  0  0  0  0  0  0
  151.6680  139.4320  157.6689 C   0  0  0  0  0  0  0  0  0  0  0  0
  151.2913  140.0358  156.3341 C   0  0  0  0  0  0  0  0  0  0  0  0
  152.7485  139.8934  156.7164 C   0  0  0  0  0  0  0  0  0  0  0  0
  153.5024  137.6800  158.6531 H   0  0  0  0  0  0  0  0  0  0  0  0
  152.4102  136.4571  159.2737 H   0  0  0  0  0  0  0  0  0  0  0  0
  152.3993  138.0762  159.9654 H   0  0  0  0  0  0  0  0  0  0  0  0
  149.5844  138.6367  158.7437 H   0  0  0  0  0  0  0  0  0  0  0  0
  147.8878  137.7515  159.7909 H   0  0  0  0  0  0  0  0  0  0  0  0
  147.3443  136.6737  158.5495 H   0  0  0  0  0  0  0  0  0  0  0  0
  147.7271  134.2782  158.8770 H   0  0  0  0  0  0  0  0  0  0  0  0
  147.0445  132.8885  162.9101 H   0  0  0  0  0  0  0  0  0  0  0  0
  147.2897  135.1416  163.6979 H   0  0  0  0  0  0  0  0  0  0  0  0
  151.5094  140.0837  158.5268 H   0  0  0  0  0  0  0  0  0  0  0  0
  150.9082  139.3773  155.5574 H   0  0  0  0  0  0  0  0  0  0  0  0
  150.8656  141.0371  156.3411 H   0  0  0  0  0  0  0  0  0  0  0  0
  153.2901  140.8005  156.9768 H   0  0  0  0  0  0  0  0  0  0  0  0
  153.3338  139.1391  156.1948 H   0  0  0  0  0  0  0  0  0  0  0  0
  1  2  1  0  0  0  0
  1 22  1  0  0  0  0
  1 23  1  0  0  0  0
  1 24  1  0  0  0  0
  2  3  1  0  0  0  0
  2  5  1  0  0  0  0
  2 19  1  0  0  0  0
  3  4  3  0  0  0  0
  5  6  1  0  0  0  0
  5 25  1  0  0  0  0
  6  7  2  0  0  0  0
  6  8  1  0  0  0  0
  8  9  1  0  0  0  0
  8 26  1  0  0  0  0
  8 27  1  0  0  0  0
  9 17  1  0  0  0  0
  9 10  1  0  0  0  0
 10 11  2  0  0  0  0
 10 28  1  0  0  0  0
 11 12  1  0  0  0  0
 11 15  1  0  0  0  0
 12 13  2  0  0  0  0
 12 14  1  0  0  0  0
 15 16  2  0  0  0  0
 15 29  1  0  0  0  0
 16 17  1  0  0  0  0
 16 30  1  0  0  0  0
 17 18  2  0  0  0  0
 19 21  1  0  0  0  0
 19 20  1  0  0  0  0
 19 31  1  0  0  0  0
 20 21  1  0  0  0  0
 20 32  1  0  0  0  0
 20 33  1  0  0  0  0
 21 34  1  0  0  0  0
 21 35  1  0  0  0  0
M  CHG  1  12   1
M  CHG  1  14  -1
M  END
> <s_m_source_file>
AV-unprocessed.smi

> <i_m_source_file_index>
1664

> <i_lp_mmshare_version>
43012

> <i_f3d_flags>
0

> <s_epik_input>
W0NIMl0xW0NIMl1bQ0hdMVtDQF0oW0NIM10pKEMjTilbTkhdQyg9TylbQ0gyXW4yW2NIXWMoW04rXSg9TylbTy1dKVtjSF1bY0hdYzI9Tw==

> <s_epik_cmdline>
J2VwaWtfcHl0aG9uJywgJy1waCcsICc3LjAnLCAnLXRuJywgJzgnLCAnLW1hJywgJzIwMCcsICctbWV0YWxfYmluZGluZycsICctaW1hZScsICc8aW5maWxlLm1hZT4nLCAnLW9tYWUnLCAnPG91dGZpbGUubWFlPic=

> <r_lp_tautomer_probability>
1

> <r_epik_Ionization_Penalty>
4.65324e-07

> <r_epik_Ionization_Penalty_Charging>
6.17383e-11

> <r_epik_Ionization_Penalty_Neutral>
4.65262e-07

> <r_epik_State_Penalty>
-0

> <r_epik_Charging_Adjusted_Penalty>
6.17383e-11

> <i_epik_Tot_Q>
0

> <i_epik_Tot_abs_Q>
2

> <r_epik_Metal_State_Penalty>
-0

> <b_epik_Metal_Only>
0

> <s_lp_Force_Field>
OPLS_2005

> <r_lp_Energy>
25.9803

> <b_lp_Chiralities_Consistent>
1

> <s_lp_Variant>
AV-unprocessed.smi:1664-1

> <Gold.Version>
5.8.1

> <Gold.Id.Protein>
6NUR|6NUR_protein|mol2

> <Gold.PLP.Fitness>
42.4220

> <Gold.PLP.PLP>
-32.6653

> <Gold.PLP.part.hbond>
-3.9843

> <Gold.PLP.part.metal>
0.0000

> <Gold.PLP.part.buried>
-4.7544

> <Gold.PLP.part.nonpolar>
-24.4516

> <Gold.PLP.part.repulsive>
0.1707

> <Gold.PLP.ligand.clash>
0.0000

> <Gold.PLP.ligand.torsion>
1.3455

> <Gold.PLP.Chemscore.Hbond>
3.6320

> <Gold.PLP.Chemscore.CHOScore>
0.0000

> <Gold.PLP.Chemscore.Metal>
0.0000

> <Gold.Chemscore.Hbonds>
donor molecule, donor type, donor heavy atom, donor atom, acceptor molecule, acceptor atom, score
      P1  H  6896  6907       L1     7  0.80
      P1  H  6931  6943       L1    18  1.00
      P1  H  6934  6947       L1    18  0.26
      P1  H 10752 10764       L1     4  1.00

> <Gold.PLP.Chemscore.Internal.Correction>
1.5516

> <Gold.Rescore>
     Score         DG    S(hbond)    S(metal)    S(lipo)     H(rot)  DE(clash)    DE(int)     intcor
     17.76     -19.23       3.75        0.00      52.97       1.94       0.01       1.46       ----

> <Gold.Chemscore.Fitness>
17.7633

> <Gold.Chemscore.DG>
-19.2316

> <Gold.Chemscore.ZeroCoef>
-5.4800

> <Gold.Chemscore.Hbond>
3.7475

> <Gold.Chemscore.Metal>
0.0000

> <Gold.Chemscore.Lipo>
52.9703

> <Gold.Chemscore.Internal_Hbond>
0.0000

> <Gold.Chemscore.DEClash>
0.0057

> <Gold.Chemscore.DEInternal>
1.4626

> <Gold.Chemscore.Rot>
1.9386

> <Gold.Chemscore.Internal.Correction>
   9.000000E+99

> <Gold.Chemscore.Hbonds>
donor molecule, donor type, donor heavy atom, donor atom, acceptor molecule, acceptor atom, score
      P1  H  6896  6907       L1     7  0.76
      P1  H  6931  6943       L1    18  0.94
      P1  H  6934  6947       L1    18  0.26
      P1  H 10752 10764       L1     4  1.00

> <Gold.Chemscore.Hbond.Weighted>
-12.5168

> <Gold.Chemscore.Metal.Weighted>
-0.0000

> <Gold.Chemscore.Lipo.Weighted>
-6.1975

> <Gold.Chemscore.Internal_Hbond.Weighted>
0.0000

> <Gold.Chemscore.DEClash.Weighted>
0.0057

> <Gold.Chemscore.DEInternal.Weighted>
1.4626

> <Gold.Chemscore.Rot.Weighted>
4.9627

> <Gold.Chemscore.Internal.Correction.Weighted>
   9.000000E+99

> <Gold.Protein.RotatedTorsions>
[ 6907 6896 6895 6894 ] final  -73.53 input  -60.11 | X-H torsion
[ 7974 7965 7964 7962 ] final   70.61 input  175.53 | X-H torsion
[ 8008 7997 7996 7995 ] final   65.30 input   59.86 | X-H torsion
[ 10167 10162 10161 10158 ] final -152.44 input  -65.29 | X-H torsion
[ 10718 10713 10712 10709 ] final  -20.26 input   66.30 | X-H torsion
[ 10763 10752 10751 10750 ] final  -38.77 input  -60.55 | X-H torsion
[ 11005 11000 10999 10996 ] final -143.66 input  -57.11 | X-H torsion

> <Gold.Protein.ActiveResidues>
 VAL166  LYS551  ARG553  GLY616  TRP617  ASP618  TYR619  PRO620  LYS621  CYS622 
 ASP623  PHE694  ASN695  SER759  ASP760  ASP761  ALA762  ILE779  LEU786  VAL792 
 PHE793  MET794  SER795  GLU796  ALA797  LYS798  CYS799  TRP800  GLU811  SER814 

> <Gold.Protein.RotatedAtoms>
  150.7127  134.5003  159.5558 H   0  0  0  0  0  0  0  0  0  0  0  0  # atno 6907 bound_to 6896
  152.2602  134.8039  160.0441 H   0  0  0  0  0  0  0  0  0  0  0  0  # atno 6908 bound_to 6896
  151.8755  133.3449  159.3786 H   0  0  0  0  0  0  0  0  0  0  0  0  # atno 6909 bound_to 6896
  145.7760  139.2865  143.1293 H   0  0  0  0  0  0  0  0  0  0  0  0  # atno 7974 bound_to 7965
  155.6596  140.3497  155.4778 H   0  0  0  0  0  0  0  0  0  0  0  0  # atno 8008 bound_to 7997
  155.9779  140.1168  157.0776 H   0  0  0  0  0  0  0  0  0  0  0  0  # atno 8009 bound_to 7997
  154.4183  140.1144  156.5382 H   0  0  0  0  0  0  0  0  0  0  0  0  # atno 8010 bound_to 7997
  139.7181  143.9000  152.2493 H   0  0  0  0  0  0  0  0  0  0  0  0  # atno 10167 bound_to 10162
  156.5343  130.4662  149.6531 H   0  0  0  0  0  0  0  0  0  0  0  0  # atno 10718 bound_to 10713
  153.9184  135.6785  153.4748 H   0  0  0  0  0  0  0  0  0  0  0  0  # atno 10763 bound_to 10752
  153.1041  135.4814  154.8917 H   0  0  0  0  0  0  0  0  0  0  0  0  # atno 10764 bound_to 10752
  154.7491  135.3180  154.8547 H   0  0  0  0  0  0  0  0  0  0  0  0  # atno 10765 bound_to 10752
  140.8103  134.2752  157.4943 H   0  0  0  0  0  0  0  0  0  0  0  0  # atno 11005 bound_to 11000
  146.0122  140.8425  142.9965 LP  0  0  0  0  0  0  0  0  0  0  0  0  # atno 17320 bound_to 7965
  144.6804  140.2506  143.7332 LP  0  0  0  0  0  0  0  0  0  0  0  0  # atno 17321 bound_to 7965
  139.8889  144.6977  150.8793 LP  0  0  0  0  0  0  0  0  0  0  0  0  # atno 17342 bound_to 10162
  140.7748  143.3602  151.1843 LP  0  0  0  0  0  0  0  0  0  0  0  0  # atno 17343 bound_to 10162
  156.3031  130.7188  151.2064 LP  0  0  0  0  0  0  0  0  0  0  0  0  # atno 17370 bound_to 10713
  157.7416  131.0501  150.5082 LP  0  0  0  0  0  0  0  0  0  0  0  0  # atno 17371 bound_to 10713
  139.8714  134.9479  156.3981 LP  0  0  0  0  0  0  0  0  0  0  0  0  # atno 17394 bound_to 11000
  140.9205  133.7648  155.9900 LP  0  0  0  0  0  0  0  0  0  0  0  0  # atno 17395 bound_to 11000

$$$$
