AV-unprocessed.smi:1138|AV-procd|sdf|4867|dock4
  -GOLD-   22720 3433D 1   1.00000     0.00000
 Structure written by MMmdl.
 50 52  0  0  0  0  0  0  0  0  2 V2000
  152.4155  142.3712  158.6981 C   0  0  0  0  0  0  0  0  0  0  0  0
  151.6195  142.9095  157.6026 N   0  0  0  0  0  0  0  0  0  0  0  0
  151.4818  144.3514  157.4318 C   0  0  0  0  0  0  0  0  0  0  0  0
  151.0004  142.0314  156.6867 C   0  0  0  0  0  0  0  0  0  0  0  0
  151.5107  140.7462  156.3795 C   0  0  0  0  0  0  0  0  0  0  0  0
  150.8326  139.9245  155.4560 C   0  0  0  0  0  0  0  0  0  0  0  0
  149.6547  140.3887  154.8348 C   0  0  0  0  0  0  0  0  0  0  0  0
  148.9975  139.5166  153.9252 N   0  0  0  0  0  0  0  0  0  0  0  0
  147.6861  139.4319  153.6430 C   0  0  0  0  0  0  0  0  0  0  0  0
  146.8082  140.1524  154.1174 O   0  0  0  0  0  0  0  0  0  0  0  0
  147.4464  138.4627  152.7485 N   0  0  0  0  0  0  0  0  0  0  0  0
  146.1346  138.1127  152.2120 C   0  0  0  0  0  0  0  0  0  0  0  0
  145.2624  137.5127  153.3362 C   0  0  0  0  0  0  0  0  0  0  0  0
  143.9478  136.9365  152.7806 C   0  0  0  0  0  0  0  0  0  0  0  0
  144.2675  135.9451  151.7465 N   0  0  0  0  0  0  0  0  0  0  0  0
  144.1354  134.6107  151.9522 C   0  0  0  0  0  0  0  0  0  0  0  0
  143.6909  134.1472  153.0034 O   0  0  0  0  0  0  0  0  0  0  0  0
  144.5328  133.7059  150.8282 C   0  0  0  0  0  0  0  0  0  0  0  0
  144.2654  132.2194  150.9804 C   0  0  0  0  0  0  0  0  0  0  0  0
  145.6732  132.7435  151.0882 C   0  0  0  0  0  0  0  0  0  0  0  0
  144.9109  136.5772  150.5862 C   0  0  0  0  0  0  0  0  0  0  0  0
  146.2777  137.1346  151.0224 C   0  0  0  0  0  0  0  0  0  0  0  0
  149.1797  141.6761  155.1805 C   0  0  0  0  0  0  0  0  0  0  0  0
  149.8594  142.4292  156.0723 N   0  3  0  0  0  0  0  0  0  0  0  0
  151.7936  141.7750  159.3666 H   0  0  0  0  0  0  0  0  0  0  0  0
  152.8692  143.1684  159.2874 H   0  0  0  0  0  0  0  0  0  0  0  0
  153.2201  141.7426  158.3150 H   0  0  0  0  0  0  0  0  0  0  0  0
  150.4298  144.6385  157.4175 H   0  0  0  0  0  0  0  0  0  0  0  0
  151.9427  144.6716  156.4970 H   0  0  0  0  0  0  0  0  0  0  0  0
  151.9620  144.8947  158.2461 H   0  0  0  0  0  0  0  0  0  0  0  0
  152.4120  140.3720  156.8414 H   0  0  0  0  0  0  0  0  0  0  0  0
  151.2212  138.9429  155.2261 H   0  0  0  0  0  0  0  0  0  0  0  0
  149.6031  138.9074  153.3946 H   0  0  0  0  0  0  0  0  0  0  0  0
  148.2299  137.9233  152.4104 H   0  0  0  0  0  0  0  0  0  0  0  0
  145.6374  139.0173  151.8564 H   0  0  0  0  0  0  0  0  0  0  0  0
  145.8094  136.7183  153.8467 H   0  0  0  0  0  0  0  0  0  0  0  0
  145.0467  138.2719  154.0889 H   0  0  0  0  0  0  0  0  0  0  0  0
  143.3490  136.5226  153.5930 H   0  0  0  0  0  0  0  0  0  0  0  0
  143.3425  137.7331  152.3456 H   0  0  0  0  0  0  0  0  0  0  0  0
  144.4170  134.1061  149.8225 H   0  0  0  0  0  0  0  0  0  0  0  0
  143.8035  131.8544  151.8962 H   0  0  0  0  0  0  0  0  0  0  0  0
  143.9921  131.6730  150.0800 H   0  0  0  0  0  0  0  0  0  0  0  0
  146.3569  132.5559  150.2629 H   0  0  0  0  0  0  0  0  0  0  0  0
  146.1323  132.7474  152.0755 H   0  0  0  0  0  0  0  0  0  0  0  0
  145.0411  135.9110  149.7348 H   0  0  0  0  0  0  0  0  0  0  0  0
  144.2784  137.3881  150.2225 H   0  0  0  0  0  0  0  0  0  0  0  0
  146.7586  137.6333  150.1802 H   0  0  0  0  0  0  0  0  0  0  0  0
  146.9282  136.3042  151.3016 H   0  0  0  0  0  0  0  0  0  0  0  0
  148.2810  142.1335  154.7953 H   0  0  0  0  0  0  0  0  0  0  0  0
  149.4882  143.3521  156.2985 H   0  0  0  0  0  0  0  0  0  0  0  0
  1  2  1  0  0  0  0
  1 25  1  0  0  0  0
  1 26  1  0  0  0  0
  1 27  1  0  0  0  0
  2  3  1  0  0  0  0
  2  4  1  0  0  0  0
  3 28  1  0  0  0  0
  3 29  1  0  0  0  0
  3 30  1  0  0  0  0
  4 24  1  0  0  0  0
  4  5  2  0  0  0  0
  5  6  1  0  0  0  0
  5 31  1  0  0  0  0
  6  7  2  0  0  0  0
  6 32  1  0  0  0  0
  7  8  1  0  0  0  0
  7 23  1  0  0  0  0
  8  9  1  0  0  0  0
  8 33  1  0  0  0  0
  9 10  2  0  0  0  0
  9 11  1  0  0  0  0
 11 12  1  0  0  0  0
 11 34  1  0  0  0  0
 12 22  1  0  0  0  0
 12 13  1  0  0  0  0
 12 35  1  0  0  0  0
 13 14  1  0  0  0  0
 13 36  1  0  0  0  0
 13 37  1  0  0  0  0
 14 15  1  0  0  0  0
 14 38  1  0  0  0  0
 14 39  1  0  0  0  0
 15 16  1  0  0  0  0
 15 21  1  0  0  0  0
 16 17  2  0  0  0  0
 16 18  1  0  0  0  0
 18 20  1  0  0  0  0
 18 19  1  0  0  0  0
 18 40  1  0  0  0  0
 19 20  1  0  0  0  0
 19 41  1  0  0  0  0
 19 42  1  0  0  0  0
 20 43  1  0  0  0  0
 20 44  1  0  0  0  0
 21 22  1  0  0  0  0
 21 45  1  0  0  0  0
 21 46  1  0  0  0  0
 22 47  1  0  0  0  0
 22 48  1  0  0  0  0
 23 24  2  0  0  0  0
 23 49  1  0  0  0  0
 24 50  1  0  0  0  0
M  CHG  1  24   1
M  END
> <s_m_source_file>
AV-unprocessed.smi

> <i_m_source_file_index>
1138

> <i_lp_mmshare_version>
43012

> <i_f3d_flags>
0

> <s_epik_input>
W0NIM11OKFtDSDNdKWMxW2NIXVtjSF1jKFtjSF1uMSlbTkhdQyg9TylbTkhdW0NIXTJbQ0gyXVtDSDJdTihbQ0gyXVtDSDJdMilDKD1PKVtDSF0zW0NIMl1bQ0gyXTM=

> <s_epik_cmdline>
J2VwaWtfcHl0aG9uJywgJy1waCcsICc3LjAnLCAnLXRuJywgJzgnLCAnLW1hJywgJzIwMCcsICctbWV0YWxfYmluZGluZycsICctaW1hZScsICc8aW5maWxlLm1hZT4nLCAnLW9tYWUnLCAnPG91dGZpbGUubWFlPic=

> <r_lp_tautomer_probability>
0.999994

> <r_epik_Ionization_Penalty>
0.25564

> <r_epik_Ionization_Penalty_Charging>
0.25562

> <r_epik_Ionization_Penalty_Neutral>
1.99621e-05

> <r_epik_State_Penalty>
0.247139

> <r_epik_Charging_Adjusted_Penalty>
0.502759

> <i_epik_Tot_Q>
1

> <i_epik_Tot_abs_Q>
1

> <r_epik_Metal_State_Penalty>
0.536902

> <b_epik_Metal_Only>
0

> <s_lp_Force_Field>
OPLS_2005

> <r_lp_Energy>
38.8624

> <b_lp_Chiralities_Consistent>
1

> <s_lp_Variant>
AV-unprocessed.smi:1138-1

> <Gold.Version>
5.8.1

> <Gold.Id.Protein>
6NUR|6NUR_protein|mol2

> <Gold.PLP.Fitness>
49.5473

> <Gold.PLP.PLP>
-41.7503

> <Gold.PLP.part.hbond>
-3.8684

> <Gold.PLP.part.metal>
0.0000

> <Gold.PLP.part.buried>
5.3255

> <Gold.PLP.part.nonpolar>
-44.1848

> <Gold.PLP.part.repulsive>
0.5483

> <Gold.PLP.ligand.clash>
0.0000

> <Gold.PLP.ligand.torsion>
0.6570

> <Gold.PLP.Chemscore.Hbond>
3.0000

> <Gold.PLP.Chemscore.CHOScore>
0.0000

> <Gold.PLP.Chemscore.Metal>
0.0000

> <Gold.Chemscore.Hbonds>
donor molecule, donor type, donor heavy atom, donor atom, acceptor molecule, acceptor atom, score
      L1  H    11    34       P1  7948  1.00
      L1  H    24    50       P1  8028  1.76

> <Gold.PLP.Chemscore.Internal.Correction>
0.1110

> <Gold.Rescore>
     Score         DG    S(hbond)    S(metal)    S(lipo)     H(rot)  DE(clash)    DE(int)     intcor
     16.62     -21.05       1.94        0.00     104.01       1.21       3.10       1.33       ----

> <Gold.Chemscore.Fitness>
16.6165

> <Gold.Chemscore.DG>
-21.0469

> <Gold.Chemscore.ZeroCoef>
-5.4800

> <Gold.Chemscore.Hbond>
1.9427

> <Gold.Chemscore.Metal>
0.0000

> <Gold.Chemscore.Lipo>
104.0108

> <Gold.Chemscore.Internal_Hbond>
0.0000

> <Gold.Chemscore.DEClash>
3.0973

> <Gold.Chemscore.DEInternal>
1.3330

> <Gold.Chemscore.Rot>
1.2074

> <Gold.Chemscore.Internal.Correction>
   9.000000E+99

> <Gold.Chemscore.Hbonds>
donor molecule, donor type, donor heavy atom, donor atom, acceptor molecule, acceptor atom, score
      L1  H    11    34       P1  7948  0.94
      L1  H    24    50       P1  8028  0.86

> <Gold.Chemscore.Hbond.Weighted>
-6.4885

> <Gold.Chemscore.Metal.Weighted>
-0.0000

> <Gold.Chemscore.Lipo.Weighted>
-12.1693

> <Gold.Chemscore.Internal_Hbond.Weighted>
0.0000

> <Gold.Chemscore.DEClash.Weighted>
3.0973

> <Gold.Chemscore.DEInternal.Weighted>
1.3330

> <Gold.Chemscore.Rot.Weighted>
3.0909

> <Gold.Chemscore.Internal.Correction.Weighted>
   9.000000E+99

> <Gold.Protein.RotatedTorsions>
[ 6907 6896 6895 6894 ] final  -76.06 input  -60.11 | X-H torsion
[ 7974 7965 7964 7962 ] final  -42.33 input  175.53 | X-H torsion
[ 8008 7997 7996 7995 ] final  156.65 input   59.86 | X-H torsion
[ 10167 10162 10161 10158 ] final  -65.28 input  -65.29 | X-H torsion
[ 10718 10713 10712 10709 ] final  145.56 input   66.30 | X-H torsion
[ 10763 10752 10751 10750 ] final   12.15 input  -60.55 | X-H torsion
[ 11005 11000 10999 10996 ] final  -18.01 input  -57.11 | X-H torsion

> <Gold.Protein.ActiveResidues>
 VAL166  LYS551  ARG553  GLY616  TRP617  ASP618  TYR619  PRO620  LYS621  CYS622 
 ASP623  PHE694  ASN695  SER759  ASP760  ASP761  ALA762  ILE779  LEU786  VAL792 
 PHE793  MET794  SER795  GLU796  ALA797  LYS798  CYS799  TRP800  GLU811  SER814 

> <Gold.Protein.RotatedAtoms>
  150.7039  134.4629  159.5388 H   0  0  0  0  0  0  0  0  0  0  0  0  # atno 6907 bound_to 6896
  152.2300  134.8328  160.0484 H   0  0  0  0  0  0  0  0  0  0  0  0  # atno 6908 bound_to 6896
  151.9148  133.3535  159.3913 H   0  0  0  0  0  0  0  0  0  0  0  0  # atno 6909 bound_to 6896
  146.0126  140.6945  142.9217 H   0  0  0  0  0  0  0  0  0  0  0  0  # atno 7974 bound_to 7965
  156.2410  140.1907  156.6987 H   0  0  0  0  0  0  0  0  0  0  0  0  # atno 8008 bound_to 7997
  154.6197  140.0610  156.9626 H   0  0  0  0  0  0  0  0  0  0  0  0  # atno 8009 bound_to 7997
  155.1881  140.3282  155.4366 H   0  0  0  0  0  0  0  0  0  0  0  0  # atno 8010 bound_to 7997
  140.5741  143.2320  151.6478 H   0  0  0  0  0  0  0  0  0  0  0  0  # atno 10167 bound_to 10162
  157.3438  131.0940  151.1059 H   0  0  0  0  0  0  0  0  0  0  0  0  # atno 10718 bound_to 10713
  153.1852  135.6834  153.8425 H   0  0  0  0  0  0  0  0  0  0  0  0  # atno 10763 bound_to 10752
  153.7743  135.3191  155.3358 H   0  0  0  0  0  0  0  0  0  0  0  0  # atno 10764 bound_to 10752
  154.8084  135.4733  154.0548 H   0  0  0  0  0  0  0  0  0  0  0  0  # atno 10765 bound_to 10752
  140.8225  133.8057  155.9674 H   0  0  0  0  0  0  0  0  0  0  0  0  # atno 11005 bound_to 11000
  144.6959  140.3426  143.7196 LP  0  0  0  0  0  0  0  0  0  0  0  0  # atno 17320 bound_to 7965
  145.7318  139.1738  143.2426 LP  0  0  0  0  0  0  0  0  0  0  0  0  # atno 17321 bound_to 7965
  139.5133  144.3447  152.0707 LP  0  0  0  0  0  0  0  0  0  0  0  0  # atno 17342 bound_to 10162
  140.2589  144.4089  150.6193 LP  0  0  0  0  0  0  0  0  0  0  0  0  # atno 17343 bound_to 10162
  157.2261  130.6503  149.5830 LP  0  0  0  0  0  0  0  0  0  0  0  0  # atno 17370 bound_to 10713
  155.9711  130.4613  150.6106 LP  0  0  0  0  0  0  0  0  0  0  0  0  # atno 17371 bound_to 10713
  140.9084  134.2291  157.5000 LP  0  0  0  0  0  0  0  0  0  0  0  0  # atno 17394 bound_to 11000
  139.8708  134.9739  156.4825 LP  0  0  0  0  0  0  0  0  0  0  0  0  # atno 17395 bound_to 11000

$$$$
