AV-unprocessed.smi:1686|AV-procd|sdf|6760|dock2
  -GOLD-   22720 7523D 1   1.00000     0.00000
 Structure written by MMmdl.
 41 43  0  0  0  0  0  0  0  0  1 V2000
  150.5657  130.6258  155.3932 C   0  0  0  0  0  0  0  0  0  0  0  0
  150.3124  131.9988  155.9467 C   0  0  0  0  0  0  0  0  0  0  0  0
  150.5970  132.2496  157.2176 N   0  0  0  0  0  0  0  0  0  0  0  0
  150.2678  133.5918  157.4381 O   0  0  0  0  0  0  0  0  0  0  0  0
  149.7944  134.0807  156.2691 C   0  0  0  0  0  0  0  0  0  0  0  0
  149.2890  135.7141  156.0930 Cl  0  0  0  0  0  0  0  0  0  0  0  0
  149.7882  133.1430  155.2766 C   0  0  0  0  0  0  0  0  0  0  0  0
  149.3636  133.2761  153.8341 C   0  0  0  0  0  0  0  0  0  0  0  0
  147.8412  133.4003  153.7579 C   0  0  0  0  0  0  0  0  0  0  0  0
  147.1266  132.5107  154.2178 O   0  0  0  0  0  0  0  0  0  0  0  0
  147.3669  134.5237  153.1971 N   0  0  0  0  0  0  0  0  0  0  0  0
  145.9708  134.9484  153.1640 C   0  0  2  0  0  0  0  0  0  0  0  0
  145.3105  134.5760  154.5014 C   0  0  0  0  0  0  0  0  0  0  0  0
  145.2683  134.2933  151.9496 C   0  0  1  0  0  0  0  0  0  0  0  0
  146.1488  134.2314  150.6781 C   0  0  0  0  0  0  0  0  0  0  0  0
  146.0953  132.7451  150.2825 C   0  0  2  0  0  0  0  0  0  0  0  0
  144.6816  132.3925  149.7844 C   0  0  0  0  0  0  0  0  0  0  0  0
  143.8539  132.3994  151.0828 C   0  0  0  0  0  0  0  0  0  0  0  0
  144.8947  132.7991  152.1453 C   0  0  1  0  0  0  0  0  0  0  0  0
  146.1344  132.0659  151.6447 C   0  0  0  0  0  0  0  0  0  0  0  0
  150.8510  130.6703  154.3423 H   0  0  0  0  0  0  0  0  0  0  0  0
  149.6727  130.0051  155.4693 H   0  0  0  0  0  0  0  0  0  0  0  0
  151.3700  130.1201  155.9286 H   0  0  0  0  0  0  0  0  0  0  0  0
  149.8119  134.1505  153.3614 H   0  0  0  0  0  0  0  0  0  0  0  0
  149.6848  132.4149  153.2468 H   0  0  0  0  0  0  0  0  0  0  0  0
  148.0418  135.1840  152.8399 H   0  0  0  0  0  0  0  0  0  0  0  0
  145.9166  136.0323  153.0501 H   0  0  0  0  0  0  0  0  0  0  0  0
  144.2698  134.8972  154.5392 H   0  0  0  0  0  0  0  0  0  0  0  0
  145.8266  135.0511  155.3364 H   0  0  0  0  0  0  0  0  0  0  0  0
  145.3311  133.4986  154.6681 H   0  0  0  0  0  0  0  0  0  0  0  0
  144.3620  134.8639  151.7396 H   0  0  0  0  0  0  0  0  0  0  0  0
  145.7819  134.8858  149.8867 H   0  0  0  0  0  0  0  0  0  0  0  0
  147.1795  134.5174  150.8908 H   0  0  0  0  0  0  0  0  0  0  0  0
  146.8885  132.4473  149.5961 H   0  0  0  0  0  0  0  0  0  0  0  0
  144.3116  133.1097  149.0508 H   0  0  0  0  0  0  0  0  0  0  0  0
  144.6651  131.4034  149.3250 H   0  0  0  0  0  0  0  0  0  0  0  0
  143.0111  133.0904  151.0405 H   0  0  0  0  0  0  0  0  0  0  0  0
  143.4569  131.4044  151.2881 H   0  0  0  0  0  0  0  0  0  0  0  0
  144.5863  132.5288  153.1550 H   0  0  0  0  0  0  0  0  0  0  0  0
  146.0057  130.9834  151.5927 H   0  0  0  0  0  0  0  0  0  0  0  0
  147.0354  132.2908  152.2177 H   0  0  0  0  0  0  0  0  0  0  0  0
  1  2  1  0  0  0  0
  1 21  1  0  0  0  0
  1 22  1  0  0  0  0
  1 23  1  0  0  0  0
  2  7  1  0  0  0  0
  2  3  2  0  0  0  0
  3  4  1  0  0  0  0
  4  5  1  0  0  0  0
  5  6  1  0  0  0  0
  5  7  2  0  0  0  0
  7  8  1  0  0  0  0
  8  9  1  0  0  0  0
  8 24  1  0  0  0  0
  8 25  1  0  0  0  0
  9 10  2  0  0  0  0
  9 11  1  0  0  0  0
 11 12  1  0  0  0  0
 11 26  1  0  0  0  0
 12 13  1  0  0  0  0
 12 14  1  0  0  0  0
 12 27  1  0  0  0  0
 13 28  1  0  0  0  0
 13 29  1  0  0  0  0
 13 30  1  0  0  0  0
 14 19  1  0  0  0  0
 14 15  1  0  0  0  0
 14 31  1  0  0  0  0
 15 16  1  0  0  0  0
 15 32  1  0  0  0  0
 15 33  1  0  0  0  0
 16 20  1  0  0  0  0
 16 17  1  0  0  0  0
 16 34  1  0  0  0  0
 17 18  1  0  0  0  0
 17 35  1  0  0  0  0
 17 36  1  0  0  0  0
 18 19  1  0  0  0  0
 18 37  1  0  0  0  0
 18 38  1  0  0  0  0
 19 20  1  0  0  0  0
 19 39  1  0  0  0  0
 20 40  1  0  0  0  0
 20 41  1  0  0  0  0
M  END
> <s_m_source_file>
AV-unprocessed.smi

> <i_m_source_file_index>
1686

> <i_lp_mmshare_version>
43012

> <i_f3d_flags>
0

> <s_epik_input>
W0NIM11jMW5vYyhDbCljMVtDSDJdQyg9TylbTkhdW0NASF0oW0NIM10pW0NASF0oW0NIMl1bQ0BIXTIzKVtDQEhdKFtDSDJdMylbQ0gyXVtDSDJdMg==

> <s_epik_cmdline>
J2VwaWtfcHl0aG9uJywgJy1waCcsICc3LjAnLCAnLXRuJywgJzgnLCAnLW1hJywgJzIwMCcsICctbWV0YWxfYmluZGluZycsICctaW1hZScsICc8aW5maWxlLm1hZT4nLCAnLW9tYWUnLCAnPG91dGZpbGUubWFlPic=

> <r_lp_tautomer_probability>
1

> <r_epik_Ionization_Penalty>
2.01576e-08

> <r_epik_Ionization_Penalty_Charging>
0

> <r_epik_Ionization_Penalty_Neutral>
2.01576e-08

> <r_epik_State_Penalty>
-0

> <r_epik_Charging_Adjusted_Penalty>
0

> <i_epik_Tot_Q>
0

> <i_epik_Tot_abs_Q>
0

> <r_epik_Metal_State_Penalty>
-0

> <b_epik_Metal_Only>
0

> <s_lp_Force_Field>
OPLS_2005

> <r_lp_Energy>
45.33

> <b_lp_Chiralities_Consistent>
1

> <s_lp_Variant>
AV-unprocessed.smi:1686-3

> <Gold.Version>
5.8.1

> <Gold.Id.Protein>
6NUR|6NUR_protein|mol2

> <Gold.PLP.Fitness>
38.4050

> <Gold.PLP.PLP>
-33.9391

> <Gold.PLP.part.hbond>
-2.0000

> <Gold.PLP.part.metal>
0.0000

> <Gold.PLP.part.buried>
-5.0492

> <Gold.PLP.part.nonpolar>
-26.5853

> <Gold.PLP.part.repulsive>
0.0530

> <Gold.PLP.ligand.clash>
0.0000

> <Gold.PLP.ligand.torsion>
0.7763

> <Gold.PLP.Chemscore.Hbond>
2.0000

> <Gold.PLP.Chemscore.CHOScore>
0.0000

> <Gold.PLP.Chemscore.Metal>
0.0000

> <Gold.Chemscore.Hbonds>
donor molecule, donor type, donor heavy atom, donor atom, acceptor molecule, acceptor atom, score
      L1  H    11    26       P1  7948  1.00
      P1  H  6896  6908       L1     4  0.35

> <Gold.PLP.Chemscore.Internal.Correction>
0.0186

> <Gold.Rescore>
     Score         DG    S(hbond)    S(metal)    S(lipo)     H(rot)  DE(clash)    DE(int)     intcor
     15.52     -18.13       1.96        0.00      84.37       1.46       0.00       2.61       ----

> <Gold.Chemscore.Fitness>
15.5174

> <Gold.Chemscore.DG>
-18.1322

> <Gold.Chemscore.ZeroCoef>
-5.4800

> <Gold.Chemscore.Hbond>
1.9554

> <Gold.Chemscore.Metal>
0.0000

> <Gold.Chemscore.Lipo>
84.3684

> <Gold.Chemscore.Internal_Hbond>
0.0000

> <Gold.Chemscore.DEClash>
0.0015

> <Gold.Chemscore.DEInternal>
2.6134

> <Gold.Chemscore.Rot>
1.4648

> <Gold.Chemscore.Internal.Correction>
   9.000000E+99

> <Gold.Chemscore.Hbonds>
donor molecule, donor type, donor heavy atom, donor atom, acceptor molecule, acceptor atom, score
      L1  H    11    26       P1  7948  0.98
      P1  H  6896  6908       L1     4  0.01

> <Gold.Chemscore.Hbond.Weighted>
-6.5311

> <Gold.Chemscore.Metal.Weighted>
-0.0000

> <Gold.Chemscore.Lipo.Weighted>
-9.8711

> <Gold.Chemscore.Internal_Hbond.Weighted>
0.0000

> <Gold.Chemscore.DEClash.Weighted>
0.0015

> <Gold.Chemscore.DEInternal.Weighted>
2.6134

> <Gold.Chemscore.Rot.Weighted>
3.7500

> <Gold.Chemscore.Internal.Correction.Weighted>
   9.000000E+99

> <Gold.Protein.RotatedTorsions>
[ 6907 6896 6895 6894 ] final   91.34 input  -60.11 | X-H torsion
[ 7974 7965 7964 7962 ] final -141.20 input  175.53 | X-H torsion
[ 8008 7997 7996 7995 ] final  129.69 input   59.86 | X-H torsion
[ 10167 10162 10161 10158 ] final   27.08 input  -65.29 | X-H torsion
[ 10718 10713 10712 10709 ] final  159.36 input   66.30 | X-H torsion
[ 10763 10752 10751 10750 ] final   -0.84 input  -60.55 | X-H torsion
[ 11005 11000 10999 10996 ] final   38.88 input  -57.11 | X-H torsion

> <Gold.Protein.ActiveResidues>
 VAL166  LYS551  ARG553  GLY616  TRP617  ASP618  TYR619  PRO620  LYS621  CYS622 
 ASP623  PHE694  ASN695  SER759  ASP760  ASP761  ALA762  ILE779  LEU786  VAL792 
 PHE793  MET794  SER795  GLU796  ALA797  LYS798  CYS799  TRP800  GLU811  SER814 

> <Gold.Protein.RotatedAtoms>
  152.5449  134.1672  159.8581 H   0  0  0  0  0  0  0  0  0  0  0  0  # atno 6907 bound_to 6896
  151.1685  133.4792  159.2601 H   0  0  0  0  0  0  0  0  0  0  0  0  # atno 6908 bound_to 6896
  151.1299  135.0136  159.8633 H   0  0  0  0  0  0  0  0  0  0  0  0  # atno 6909 bound_to 6896
  144.8538  140.6108  143.5373 H   0  0  0  0  0  0  0  0  0  0  0  0  # atno 7974 bound_to 7965
  156.2941  140.2614  156.2640 H   0  0  0  0  0  0  0  0  0  0  0  0  # atno 8008 bound_to 7997
  154.9760  140.0390  157.2275 H   0  0  0  0  0  0  0  0  0  0  0  0  # atno 8009 bound_to 7997
  154.7815  140.2796  155.6065 H   0  0  0  0  0  0  0  0  0  0  0  0  # atno 8010 bound_to 7997
  140.4969  144.0378  150.6317 H   0  0  0  0  0  0  0  0  0  0  0  0  # atno 10167 bound_to 10162
  157.1652  131.0597  151.2211 H   0  0  0  0  0  0  0  0  0  0  0  0  # atno 10718 bound_to 10713
  153.3371  135.6978  153.6899 H   0  0  0  0  0  0  0  0  0  0  0  0  # atno 10763 bound_to 10752
  153.5678  135.3522  155.2826 H   0  0  0  0  0  0  0  0  0  0  0  0  # atno 10764 bound_to 10752
  154.8629  135.4265  154.2574 H   0  0  0  0  0  0  0  0  0  0  0  0  # atno 10765 bound_to 10752
  140.2083  134.3786  155.8061 H   0  0  0  0  0  0  0  0  0  0  0  0  # atno 11005 bound_to 11000
  145.4448  139.1531  143.3951 LP  0  0  0  0  0  0  0  0  0  0  0  0  # atno 17320 bound_to 7965
  146.2806  140.4571  142.8778 LP  0  0  0  0  0  0  0  0  0  0  0  0  # atno 17321 bound_to 7965
  140.3663  143.2879  152.0328 LP  0  0  0  0  0  0  0  0  0  0  0  0  # atno 17342 bound_to 10162
  139.4863  144.6264  151.7155 LP  0  0  0  0  0  0  0  0  0  0  0  0  # atno 17343 bound_to 10162
  157.4095  130.7377  149.6828 LP  0  0  0  0  0  0  0  0  0  0  0  0  # atno 17370 bound_to 10713
  155.9747  130.4099  150.3903 LP  0  0  0  0  0  0  0  0  0  0  0  0  # atno 17371 bound_to 10713
  141.2226  133.7129  156.8374 LP  0  0  0  0  0  0  0  0  0  0  0  0  # atno 17394 bound_to 11000
  140.1979  134.8918  157.3135 LP  0  0  0  0  0  0  0  0  0  0  0  0  # atno 17395 bound_to 11000

$$$$
