AV-unprocessed.smi:2052|AV-procd|sdf|8329|dock1
  -GOLD-   2272010593D 1   1.00000     0.00000
 Structure written by MMmdl.
 41 42  0  0  0  0  0  0  0  0  1 V2000
  145.6682  143.8834  153.2044 C   0  0  0  0  0  0  0  0  0  0  0  0
  144.7698  143.8532  154.7795 S   0  0  0  0  0  0  0  0  0  0  0  0
  146.0030  143.0761  155.8656 C   0  0  1  0  0  0  0  0  0  0  0  0
  145.3511  142.6474  157.1901 C   0  0  0  0  0  0  0  0  0  0  0  0
  146.7027  141.8938  155.1838 C   0  0  0  0  0  0  0  0  0  0  0  0
  146.0544  140.9142  154.8145 O   0  0  0  0  0  0  0  0  0  0  0  0
  148.0307  141.9984  155.0191 N   0  0  0  0  0  0  0  0  0  0  0  0
  148.8769  140.9801  154.4062 C   0  0  0  0  0  0  0  0  0  0  0  0
  150.1111  140.6256  155.2230 C   0  0  0  0  0  0  0  0  0  0  0  0
  150.9658  139.5681  154.8475 C   0  0  0  0  0  0  0  0  0  0  0  0
  152.0894  139.3001  155.6499 C   0  0  0  0  0  0  0  0  0  0  0  0
  152.3853  139.9981  156.7661 N   0  0  0  0  0  0  0  0  0  0  0  0
  151.5637  141.0077  157.1470 C   0  0  0  0  0  0  0  0  0  0  0  0
  151.8852  141.7243  158.3211 N   0  0  0  0  0  0  0  0  0  0  0  0
  151.0941  142.9275  158.5691 C   0  0  0  0  0  0  0  0  0  0  0  0
  151.7345  143.7707  159.6855 C   0  0  0  0  0  0  0  0  0  0  0  0
  151.9092  142.9748  160.8529 O   0  0  0  0  0  0  0  0  0  0  0  0
  152.7768  141.8717  160.6143 C   0  0  0  0  0  0  0  0  0  0  0  0
  152.1706  140.9598  159.5343 C   0  0  0  0  0  0  0  0  0  0  0  0
  150.4149  141.3506  156.3938 C   0  0  0  0  0  0  0  0  0  0  0  0
  145.0681  144.3798  152.4418 H   0  0  0  0  0  0  0  0  0  0  0  0
  145.8850  142.8714  152.8632 H   0  0  0  0  0  0  0  0  0  0  0  0
  146.6078  144.4256  153.3112 H   0  0  0  0  0  0  0  0  0  0  0  0
  146.7506  143.8353  156.1006 H   0  0  0  0  0  0  0  0  0  0  0  0
  146.0733  142.1663  157.8508 H   0  0  0  0  0  0  0  0  0  0  0  0
  144.5300  141.9484  157.0267 H   0  0  0  0  0  0  0  0  0  0  0  0
  144.9480  143.5102  157.7209 H   0  0  0  0  0  0  0  0  0  0  0  0
  148.4876  142.8360  155.3489 H   0  0  0  0  0  0  0  0  0  0  0  0
  148.2878  140.0827  154.2099 H   0  0  0  0  0  0  0  0  0  0  0  0
  149.2058  141.3511  153.4354 H   0  0  0  0  0  0  0  0  0  0  0  0
  150.7739  138.9752  153.9655 H   0  0  0  0  0  0  0  0  0  0  0  0
  152.7688  138.5020  155.3899 H   0  0  0  0  0  0  0  0  0  0  0  0
  150.9979  143.5419  157.6752 H   0  0  0  0  0  0  0  0  0  0  0  0
  150.0858  142.6299  158.8591 H   0  0  0  0  0  0  0  0  0  0  0  0
  152.6940  144.1782  159.3628 H   0  0  0  0  0  0  0  0  0  0  0  0
  151.0946  144.6193  159.9277 H   0  0  0  0  0  0  0  0  0  0  0  0
  153.7633  142.2285  160.3135 H   0  0  0  0  0  0  0  0  0  0  0  0
  152.9088  141.3163  161.5427 H   0  0  0  0  0  0  0  0  0  0  0  0
  151.2481  140.5084  159.9022 H   0  0  0  0  0  0  0  0  0  0  0  0
  152.8665  140.1488  159.3160 H   0  0  0  0  0  0  0  0  0  0  0  0
  149.7783  142.1705  156.6910 H   0  0  0  0  0  0  0  0  0  0  0  0
  1  2  1  0  0  0  0
  1 21  1  0  0  0  0
  1 22  1  0  0  0  0
  1 23  1  0  0  0  0
  2  3  1  0  0  0  0
  3  4  1  0  0  0  0
  3  5  1  0  0  0  0
  3 24  1  0  0  0  0
  4 25  1  0  0  0  0
  4 26  1  0  0  0  0
  4 27  1  0  0  0  0
  5  6  2  0  0  0  0
  5  7  1  0  0  0  0
  7  8  1  0  0  0  0
  7 28  1  0  0  0  0
  8  9  1  0  0  0  0
  8 29  1  0  0  0  0
  8 30  1  0  0  0  0
  9 20  1  0  0  0  0
  9 10  2  0  0  0  0
 10 11  1  0  0  0  0
 10 31  1  0  0  0  0
 11 12  2  0  0  0  0
 11 32  1  0  0  0  0
 12 13  1  0  0  0  0
 13 14  1  0  0  0  0
 13 20  2  0  0  0  0
 14 19  1  0  0  0  0
 14 15  1  0  0  0  0
 15 16  1  0  0  0  0
 15 33  1  0  0  0  0
 15 34  1  0  0  0  0
 16 17  1  0  0  0  0
 16 35  1  0  0  0  0
 16 36  1  0  0  0  0
 17 18  1  0  0  0  0
 18 19  1  0  0  0  0
 18 37  1  0  0  0  0
 18 38  1  0  0  0  0
 19 39  1  0  0  0  0
 19 40  1  0  0  0  0
 20 41  1  0  0  0  0
M  END
> <s_m_source_file>
AV-unprocessed.smi

> <i_m_source_file_index>
2052

> <i_lp_mmshare_version>
43012

> <i_f3d_flags>
0

> <s_epik_input>
W0NIM11TW0NASF0oW0NIM10pQyg9TylbTkhdW0NIMl1jMVtjSF1bY0hdbmMoW2NIXTEpTjJbQ0gyXVtDSDJdT1tDSDJdW0NIMl0y

> <s_epik_cmdline>
J2VwaWtfcHl0aG9uJywgJy1waCcsICc3LjAnLCAnLXRuJywgJzgnLCAnLW1hJywgJzIwMCcsICctbWV0YWxfYmluZGluZycsICctaW1hZScsICc8aW5maWxlLm1hZT4nLCAnLW9tYWUnLCAnPG91dGZpbGUubWFlPic=

> <r_lp_tautomer_probability>
1

> <r_epik_Ionization_Penalty>
0.00463955

> <r_epik_Ionization_Penalty_Charging>
0

> <r_epik_Ionization_Penalty_Neutral>
0.00463955

> <r_epik_State_Penalty>
0.00335544

> <r_epik_Charging_Adjusted_Penalty>
0.00335544

> <i_epik_Tot_Q>
0

> <i_epik_Tot_abs_Q>
0

> <r_epik_Metal_State_Penalty>
-0

> <b_epik_Metal_Only>
0

> <s_lp_Force_Field>
OPLS_2005

> <r_lp_Energy>
15.5355

> <b_lp_Chiralities_Consistent>
1

> <s_lp_Variant>
AV-unprocessed.smi:2052-2

> <Gold.Version>
5.8.1

> <Gold.Id.Protein>
6NUR|6NUR_protein|mol2

> <Gold.PLP.Fitness>
45.1545

> <Gold.PLP.PLP>
-39.5364

> <Gold.PLP.part.hbond>
-2.4184

> <Gold.PLP.part.metal>
0.0000

> <Gold.PLP.part.buried>
-3.8448

> <Gold.PLP.part.nonpolar>
-33.3242

> <Gold.PLP.part.repulsive>
0.3122

> <Gold.PLP.ligand.clash>
0.0000

> <Gold.PLP.ligand.torsion>
0.3797

> <Gold.PLP.Chemscore.Hbond>
2.0000

> <Gold.PLP.Chemscore.CHOScore>
0.0000

> <Gold.PLP.Chemscore.Metal>
0.0000

> <Gold.Chemscore.Hbonds>
donor molecule, donor type, donor heavy atom, donor atom, acceptor molecule, acceptor atom, score
      L1  H     7    28       P1  8028  1.00
      P1  H  7997  8010       L1    12  1.00

> <Gold.PLP.Chemscore.Internal.Correction>
0.3775

> <Gold.Rescore>
     Score         DG    S(hbond)    S(metal)    S(lipo)     H(rot)  DE(clash)    DE(int)     intcor
     16.97     -17.20       1.84        0.00      84.11       1.67       0.01       0.23       ----

> <Gold.Chemscore.Fitness>
16.9710

> <Gold.Chemscore.DG>
-17.2014

> <Gold.Chemscore.ZeroCoef>
-5.4800

> <Gold.Chemscore.Hbond>
1.8417

> <Gold.Chemscore.Metal>
0.0000

> <Gold.Chemscore.Lipo>
84.1088

> <Gold.Chemscore.Internal_Hbond>
0.0000

> <Gold.Chemscore.DEClash>
0.0050

> <Gold.Chemscore.DEInternal>
0.2254

> <Gold.Chemscore.Rot>
1.6682

> <Gold.Chemscore.Internal.Correction>
   9.000000E+99

> <Gold.Chemscore.Hbonds>
donor molecule, donor type, donor heavy atom, donor atom, acceptor molecule, acceptor atom, score
      L1  H     7    28       P1  8028  0.99
      P1  H  7997  8010       L1    12  0.36

> <Gold.Chemscore.Hbond.Weighted>
-6.1514

> <Gold.Chemscore.Metal.Weighted>
-0.0000

> <Gold.Chemscore.Lipo.Weighted>
-9.8407

> <Gold.Chemscore.Internal_Hbond.Weighted>
0.0000

> <Gold.Chemscore.DEClash.Weighted>
0.0050

> <Gold.Chemscore.DEInternal.Weighted>
0.2254

> <Gold.Chemscore.Rot.Weighted>
4.2707

> <Gold.Chemscore.Internal.Correction.Weighted>
   9.000000E+99

> <Gold.Protein.RotatedTorsions>
[ 6907 6896 6895 6894 ] final -175.33 input  -60.11 | X-H torsion
[ 7974 7965 7964 7962 ] final  -26.65 input  175.53 | X-H torsion
[ 8008 7997 7996 7995 ] final   54.27 input   59.86 | X-H torsion
[ 10167 10162 10161 10158 ] final -102.00 input  -65.29 | X-H torsion
[ 10718 10713 10712 10709 ] final -109.52 input   66.30 | X-H torsion
[ 10763 10752 10751 10750 ] final  102.84 input  -60.55 | X-H torsion
[ 11005 11000 10999 10996 ] final -169.19 input  -57.11 | X-H torsion

> <Gold.Protein.ActiveResidues>
 VAL166  LYS551  ARG553  GLY616  TRP617  ASP618  TYR619  PRO620  LYS621  CYS622 
 ASP623  PHE694  ASN695  SER759  ASP760  ASP761  ALA762  ILE779  LEU786  VAL792 
 PHE793  MET794  SER795  GLU796  ALA797  LYS798  CYS799  TRP800  GLU811  SER814 

> <Gold.Protein.RotatedAtoms>
  151.5868  133.3371  159.3019 H   0  0  0  0  0  0  0  0  0  0  0  0  # atno 6907 bound_to 6896
  150.8282  134.7527  159.6843 H   0  0  0  0  0  0  0  0  0  0  0  0  # atno 6908 bound_to 6896
  152.4369  134.5674  159.9963 H   0  0  0  0  0  0  0  0  0  0  0  0  # atno 6909 bound_to 6896
  146.1411  140.5048  142.8652 H   0  0  0  0  0  0  0  0  0  0  0  0  # atno 7974 bound_to 7965
  155.4820  140.3468  155.4341 H   0  0  0  0  0  0  0  0  0  0  0  0  # atno 8008 bound_to 7997
  156.1033  140.1441  156.9467 H   0  0  0  0  0  0  0  0  0  0  0  0  # atno 8009 bound_to 7997
  154.4708  140.0901  156.7117 H   0  0  0  0  0  0  0  0  0  0  0  0  # atno 8010 bound_to 7997
  140.2354  143.3577  152.0850 H   0  0  0  0  0  0  0  0  0  0  0  0  # atno 10167 bound_to 10162
  156.0541  130.5768  150.8111 H   0  0  0  0  0  0  0  0  0  0  0  0  # atno 10718 bound_to 10713
  153.3448  135.3997  155.1600 H   0  0  0  0  0  0  0  0  0  0  0  0  # atno 10763 bound_to 10752
  154.8651  135.3642  154.5299 H   0  0  0  0  0  0  0  0  0  0  0  0  # atno 10764 bound_to 10752
  153.5746  135.7078  153.5549 H   0  0  0  0  0  0  0  0  0  0  0  0  # atno 10765 bound_to 10752
  140.5335  134.5592  157.5081 H   0  0  0  0  0  0  0  0  0  0  0  0  # atno 11005 bound_to 11000
  144.7793  140.5807  143.6616 LP  0  0  0  0  0  0  0  0  0  0  0  0  # atno 17320 bound_to 7965
  145.5045  139.1482  143.3639 LP  0  0  0  0  0  0  0  0  0  0  0  0  # atno 17321 bound_to 7965
  139.5095  144.6869  151.5863 LP  0  0  0  0  0  0  0  0  0  0  0  0  # atno 17342 bound_to 10162
  140.6154  143.9358  150.6484 LP  0  0  0  0  0  0  0  0  0  0  0  0  # atno 17343 bound_to 10162
  157.5495  131.0943  150.9715 LP  0  0  0  0  0  0  0  0  0  0  0  0  # atno 17370 bound_to 10713
  156.9978  130.5588  149.5309 LP  0  0  0  0  0  0  0  0  0  0  0  0  # atno 17371 bound_to 10713
  139.9541  134.7565  156.0381 LP  0  0  0  0  0  0  0  0  0  0  0  0  # atno 17394 bound_to 11000
  141.1268  133.6597  156.3357 LP  0  0  0  0  0  0  0  0  0  0  0  0  # atno 17395 bound_to 11000

$$$$
