AV-unprocessed.smi:240|AV-procd|sdf|1836|dock10
  -GOLD-   2262020443D 1   1.00000     0.00000
 Structure written by MMmdl.
 55 59  0  0  0  0  0  0  0  0  1 V2000
  152.7390  140.3886  158.1250 O   0  0  0  0  0  0  0  0  0  0  0  0
  152.0623  141.6237  158.0179 C   0  0  2  0  0  0  0  0  0  0  0  0
  152.4587  142.5602  159.1576 C   0  0  0  0  0  0  0  0  0  0  0  0
  151.3278  143.5885  159.2022 C   0  0  0  0  0  0  0  0  0  0  0  0
  150.0713  142.8579  158.7034 C   0  0  0  0  0  0  0  0  0  0  0  0
  150.5362  141.4853  158.1746 C   0  0  1  0  0  0  0  0  0  0  0  0
  149.7369  140.9613  156.9379 C   0  0  1  0  0  0  0  0  0  0  0  0
  149.6507  141.9960  155.7854 C   0  0  0  0  0  0  0  0  0  0  0  0
  148.8820  141.4728  154.7097 O   0  0  0  0  0  0  0  0  0  0  0  0
  149.4927  140.3206  154.1460 C   0  0  0  0  0  0  0  0  0  0  0  0
  149.5567  139.2200  155.2126 C   0  0  0  0  0  0  0  0  0  0  0  0
  150.2554  139.6909  156.4051 N   0  0  0  0  0  0  0  0  0  0  0  0
  150.4122  138.6621  157.2719 C   0  0  0  0  0  0  0  0  0  0  0  0
  151.6553  138.2031  157.5780 N   0  0  0  0  0  0  0  0  0  0  0  0
  151.8005  137.1888  158.4360 C   0  0  0  0  0  0  0  0  0  0  0  0
  150.8576  136.5089  159.0927 N   0  0  0  0  0  0  0  0  0  0  0  0
  149.6114  136.9806  158.7995 C   0  0  0  0  0  0  0  0  0  0  0  0
  149.3035  138.0487  157.9122 C   0  0  0  0  0  0  0  0  0  0  0  0
  147.9303  138.2505  157.8656 N   0  0  0  0  0  0  0  0  0  0  0  0
  147.4512  137.3471  158.6768 C   0  0  0  0  0  0  0  0  0  0  0  0
  148.3908  136.5449  159.2852 N   0  0  0  0  0  0  0  0  0  0  0  0
  148.1376  135.4620  160.2231 C   0  0  0  0  0  0  0  0  0  0  0  0
  147.1682  135.8353  161.3737 C   0  0  2  0  0  0  0  0  0  0  0  0
  147.5006  137.1223  161.8613 O   0  0  0  0  0  0  0  0  0  0  0  0
  147.1644  134.8435  162.5352 C   0  0  0  0  0  0  0  0  0  0  0  0
  146.0638  133.8750  162.1312 C   0  0  0  0  0  0  0  0  0  0  0  0
  145.0668  134.7385  161.6105 O   0  0  0  0  0  0  0  0  0  0  0  0
  145.6989  135.8047  160.9067 C   0  0  0  0  0  0  0  0  0  0  0  0
  152.1078  139.7165  158.3318 H   0  0  0  0  0  0  0  0  0  0  0  0
  152.3272  142.0966  157.0736 H   0  0  0  0  0  0  0  0  0  0  0  0
  152.4872  142.0140  160.1020 H   0  0  0  0  0  0  0  0  0  0  0  0
  153.4374  143.0169  159.0072 H   0  0  0  0  0  0  0  0  0  0  0  0
  151.1959  144.0080  160.1999 H   0  0  0  0  0  0  0  0  0  0  0  0
  151.5592  144.4141  158.5280 H   0  0  0  0  0  0  0  0  0  0  0  0
  149.3505  142.7253  159.5112 H   0  0  0  0  0  0  0  0  0  0  0  0
  149.5754  143.4581  157.9422 H   0  0  0  0  0  0  0  0  0  0  0  0
  150.3731  140.8081  159.0133 H   0  0  0  0  0  0  0  0  0  0  0  0
  148.7153  140.7703  157.2698 H   0  0  0  0  0  0  0  0  0  0  0  0
  149.1740  142.9175  156.1148 H   0  0  0  0  0  0  0  0  0  0  0  0
  150.6364  142.2683  155.4088 H   0  0  0  0  0  0  0  0  0  0  0  0
  148.9008  139.9847  153.2945 H   0  0  0  0  0  0  0  0  0  0  0  0
  150.4881  140.5617  153.7693 H   0  0  0  0  0  0  0  0  0  0  0  0
  148.5459  138.9107  155.4828 H   0  0  0  0  0  0  0  0  0  0  0  0
  150.0611  138.3443  154.8014 H   0  0  0  0  0  0  0  0  0  0  0  0
  152.8177  136.8772  158.6225 H   0  0  0  0  0  0  0  0  0  0  0  0
  146.3911  137.2414  158.8573 H   0  0  0  0  0  0  0  0  0  0  0  0
  147.7438  134.6136  159.6617 H   0  0  0  0  0  0  0  0  0  0  0  0
  149.0954  135.1345  160.6294 H   0  0  0  0  0  0  0  0  0  0  0  0
  147.1213  137.2235  162.7210 H   0  0  0  0  0  0  0  0  0  0  0  0
  148.1188  134.3523  162.7195 H   0  0  0  0  0  0  0  0  0  0  0  0
  146.8701  135.3383  163.4624 H   0  0  0  0  0  0  0  0  0  0  0  0
  146.4070  133.1921  161.3525 H   0  0  0  0  0  0  0  0  0  0  0  0
  145.6895  133.2863  162.9689 H   0  0  0  0  0  0  0  0  0  0  0  0
  145.1696  136.7329  161.1267 H   0  0  0  0  0  0  0  0  0  0  0  0
  145.6182  135.6326  159.8326 H   0  0  0  0  0  0  0  0  0  0  0  0
  1  2  1  0  0  0  0
  1 29  1  0  0  0  0
  2  6  1  0  0  0  0
  2  3  1  0  0  0  0
  2 30  1  0  0  0  0
  3  4  1  0  0  0  0
  3 31  1  0  0  0  0
  3 32  1  0  0  0  0
  4  5  1  0  0  0  0
  4 33  1  0  0  0  0
  4 34  1  0  0  0  0
  5  6  1  0  0  0  0
  5 35  1  0  0  0  0
  5 36  1  0  0  0  0
  6  7  1  0  0  0  0
  6 37  1  0  0  0  0
  7 12  1  0  0  0  0
  7  8  1  0  0  0  0
  7 38  1  0  0  0  0
  8  9  1  0  0  0  0
  8 39  1  0  0  0  0
  8 40  1  0  0  0  0
  9 10  1  0  0  0  0
 10 11  1  0  0  0  0
 10 41  1  0  0  0  0
 10 42  1  0  0  0  0
 11 12  1  0  0  0  0
 11 43  1  0  0  0  0
 11 44  1  0  0  0  0
 12 13  1  0  0  0  0
 13 18  1  0  0  0  0
 13 14  2  0  0  0  0
 14 15  1  0  0  0  0
 15 16  2  0  0  0  0
 15 45  1  0  0  0  0
 16 17  1  0  0  0  0
 17 21  1  0  0  0  0
 17 18  2  0  0  0  0
 18 19  1  0  0  0  0
 19 20  2  0  0  0  0
 20 21  1  0  0  0  0
 20 46  1  0  0  0  0
 21 22  1  0  0  0  0
 22 23  1  0  0  0  0
 22 47  1  0  0  0  0
 22 48  1  0  0  0  0
 23 28  1  0  0  0  0
 23 24  1  0  0  0  0
 23 25  1  0  0  0  0
 24 49  1  0  0  0  0
 25 26  1  0  0  0  0
 25 50  1  0  0  0  0
 25 51  1  0  0  0  0
 26 27  1  0  0  0  0
 26 52  1  0  0  0  0
 26 53  1  0  0  0  0
 27 28  1  0  0  0  0
 28 54  1  0  0  0  0
 28 55  1  0  0  0  0
M  END
> <s_m_source_file>
AV-unprocessed.smi

> <i_m_source_file_index>
240

> <i_lp_mmshare_version>
43012

> <i_f3d_flags>
0

> <s_epik_input>
W09IXVtDQEBIXTFbQ0gyXVtDSDJdW0NIMl1bQ0BIXTFbQ0BASF0yW0NIMl1PW0NIMl1bQ0gyXU4yYyhuW2NIXW4zKWMoYzM0KW5bY0hdbjRbQ0gyXVtDQEBdNShbT0hdKVtDSDJdW0NIMl1PW0NIMl01

> <s_epik_cmdline>
J2VwaWtfcHl0aG9uJywgJy1waCcsICc3LjAnLCAnLXRuJywgJzgnLCAnLW1hJywgJzIwMCcsICctbWV0YWxfYmluZGluZycsICctaW1hZScsICc8aW5maWxlLm1hZT4nLCAnLW9tYWUnLCAnPG91dGZpbGUubWFlPic=

> <r_lp_tautomer_probability>
1

> <r_epik_Ionization_Penalty>
0.000130618

> <r_epik_Ionization_Penalty_Charging>
0

> <r_epik_Ionization_Penalty_Neutral>
0.000130618

> <r_epik_State_Penalty>
-0

> <r_epik_Charging_Adjusted_Penalty>
0

> <i_epik_Tot_Q>
0

> <i_epik_Tot_abs_Q>
0

> <r_epik_Metal_State_Penalty>
-0

> <b_epik_Metal_Only>
0

> <s_lp_Force_Field>
OPLS_2005

> <r_lp_Energy>
59.7423

> <b_lp_Chiralities_Consistent>
1

> <s_lp_Variant>
AV-unprocessed.smi:240-13

> <Gold.Version>
5.8.1

> <Gold.Id.Protein>
6NUR|6NUR_protein|mol2

> <Gold.PLP.Fitness>
48.1974

> <Gold.PLP.PLP>
-39.1624

> <Gold.PLP.part.hbond>
-4.0000

> <Gold.PLP.part.metal>
0.0000

> <Gold.PLP.part.buried>
-1.1268

> <Gold.PLP.part.nonpolar>
-33.0764

> <Gold.PLP.part.repulsive>
0.1405

> <Gold.PLP.ligand.clash>
0.0014

> <Gold.PLP.ligand.torsion>
0.4663

> <Gold.PLP.Chemscore.Hbond>
3.2651

> <Gold.PLP.Chemscore.CHOScore>
0.0000

> <Gold.PLP.Chemscore.Metal>
0.0000

> <Gold.Chemscore.Hbonds>
donor molecule, donor type, donor heavy atom, donor atom, acceptor molecule, acceptor atom, score
      P1  H  6896  6908       L1    16  1.00
      P1  H  6931  6943       L1    24  0.98
      P1  H  6934  6947       L1    24  0.56
      P1  H  7997  8009       L1     1  0.61

> <Gold.PLP.Chemscore.Internal.Correction>
0.1736

> <Gold.Rescore>
     Score         DG    S(hbond)    S(metal)    S(lipo)     H(rot)  DE(clash)    DE(int)     intcor
     15.34     -19.44       2.91        0.00     101.85       3.00       1.25       2.86       ----

> <Gold.Chemscore.Fitness>
15.3353

> <Gold.Chemscore.DG>
-19.4416

> <Gold.Chemscore.ZeroCoef>
-5.4800

> <Gold.Chemscore.Hbond>
2.9145

> <Gold.Chemscore.Metal>
0.0000

> <Gold.Chemscore.Lipo>
101.8538

> <Gold.Chemscore.Internal_Hbond>
0.0000

> <Gold.Chemscore.DEClash>
1.2476

> <Gold.Chemscore.DEInternal>
2.8587

> <Gold.Chemscore.Rot>
3.0039

> <Gold.Chemscore.Internal.Correction>
   9.000000E+99

> <Gold.Chemscore.Hbonds>
donor molecule, donor type, donor heavy atom, donor atom, acceptor molecule, acceptor atom, score
      P1  H  6896  6908       L1    16  0.96
      P1  H  6931  6943       L1    24  0.37
      P1  H  6934  6947       L1    24  0.22
      P1  H  7997  8009       L1     1  0.58

> <Gold.Chemscore.Hbond.Weighted>
-9.7346

> <Gold.Chemscore.Metal.Weighted>
-0.0000

> <Gold.Chemscore.Lipo.Weighted>
-11.9169

> <Gold.Chemscore.Internal_Hbond.Weighted>
0.0000

> <Gold.Chemscore.DEClash.Weighted>
1.2476

> <Gold.Chemscore.DEInternal.Weighted>
2.8587

> <Gold.Chemscore.Rot.Weighted>
7.6899

> <Gold.Chemscore.Internal.Correction.Weighted>
   9.000000E+99

> <Gold.Protein.RotatedTorsions>
[ 6907 6896 6895 6894 ] final -151.50 input  -60.11 | X-H torsion
[ 7974 7965 7964 7962 ] final  -69.60 input  175.53 | X-H torsion
[ 8008 7997 7996 7995 ] final  165.50 input   59.86 | X-H torsion
[ 10167 10162 10161 10158 ] final  168.21 input  -65.29 | X-H torsion
[ 10718 10713 10712 10709 ] final  -64.69 input   66.30 | X-H torsion
[ 10763 10752 10751 10750 ] final  -54.12 input  -60.55 | X-H torsion
[ 11005 11000 10999 10996 ] final   77.01 input  -57.11 | X-H torsion

> <Gold.Protein.ActiveResidues>
 VAL166  LYS551  ARG553  GLY616  TRP617  ASP618  TYR619  PRO620  LYS621  CYS622 
 ASP623  PHE694  ASN695  SER759  ASP760  ASP761  ALA762  ILE779  LEU786  VAL792 
 PHE793  MET794  SER795  GLU796  ALA797  LYS798  CYS799  TRP800  GLU811  SER814 

> <Gold.Protein.RotatedAtoms>
  151.2140  133.4539  159.2598 H   0  0  0  0  0  0  0  0  0  0  0  0  # atno 6907 bound_to 6896
  151.0948  134.9938  159.8430 H   0  0  0  0  0  0  0  0  0  0  0  0  # atno 6908 bound_to 6896
  152.5438  134.2071  159.8788 H   0  0  0  0  0  0  0  0  0  0  0  0  # atno 6909 bound_to 6896
  145.7017  140.9114  143.0727 H   0  0  0  0  0  0  0  0  0  0  0  0  # atno 7974 bound_to 7965
  156.1795  140.1668  156.8300 H   0  0  0  0  0  0  0  0  0  0  0  0  # atno 8008 bound_to 7997
  154.5344  140.0750  156.8435 H   0  0  0  0  0  0  0  0  0  0  0  0  # atno 8009 bound_to 7997
  155.3340  140.3381  155.4241 H   0  0  0  0  0  0  0  0  0  0  0  0  # atno 8010 bound_to 7997
  139.4962  144.3839  151.9592 H   0  0  0  0  0  0  0  0  0  0  0  0  # atno 10167 bound_to 10162
  156.0714  130.4237  150.1456 H   0  0  0  0  0  0  0  0  0  0  0  0  # atno 10718 bound_to 10713
  154.1697  135.6461  153.5006 H   0  0  0  0  0  0  0  0  0  0  0  0  # atno 10763 bound_to 10752
  153.0088  135.5380  154.6626 H   0  0  0  0  0  0  0  0  0  0  0  0  # atno 10764 bound_to 10752
  154.5961  135.2939  155.0556 H   0  0  0  0  0  0  0  0  0  0  0  0  # atno 10765 bound_to 10752
  139.9273  134.7648  156.1468 H   0  0  0  0  0  0  0  0  0  0  0  0  # atno 11005 bound_to 11000
  144.6966  139.8957  143.7455 LP  0  0  0  0  0  0  0  0  0  0  0  0  # atno 17320 bound_to 7965
  146.0791  139.3779  143.0475 LP  0  0  0  0  0  0  0  0  0  0  0  0  # atno 17321 bound_to 7965
  140.3276  144.3354  150.5995 LP  0  0  0  0  0  0  0  0  0  0  0  0  # atno 17342 bound_to 10162
  140.5671  143.2185  151.7663 LP  0  0  0  0  0  0  0  0  0  0  0  0  # atno 17343 bound_to 10162
  156.9506  130.9773  151.3499 LP  0  0  0  0  0  0  0  0  0  0  0  0  # atno 17370 bound_to 10713
  157.5787  130.8361  149.8492 LP  0  0  0  0  0  0  0  0  0  0  0  0  # atno 17371 bound_to 10713
  141.0839  133.6742  156.2394 LP  0  0  0  0  0  0  0  0  0  0  0  0  # atno 17394 bound_to 11000
  140.6301  134.5273  157.5558 LP  0  0  0  0  0  0  0  0  0  0  0  0  # atno 17395 bound_to 11000

$$$$
