AV-unprocessed.smi:2195|AV-procd|sdf|8904|dock9
  -GOLD-   2272012123D 1   1.00000     0.00000
 Structure written by MMmdl.
 39 41  0  0  0  0  0  0  0  0  1 V2000
  152.6930  143.1439  160.8857 C   0  0  0  0  0  0  0  0  0  0  0  0
  152.8053  141.8136  160.1702 C   0  0  0  0  0  0  0  0  0  0  0  0
  152.1183  141.5913  158.9603 C   0  0  0  0  0  0  0  0  0  0  0  0
  152.2310  140.3516  158.3024 C   0  0  0  0  0  0  0  0  0  0  0  0
  153.0279  139.3190  158.8373 C   0  0  0  0  0  0  0  0  0  0  0  0
  153.0816  138.1406  158.1253 O   0  0  0  0  0  0  0  0  0  0  0  0
  152.9268  138.1968  156.7125 C   0  0  0  0  0  0  0  0  0  0  0  0
  151.6934  137.3826  156.2884 C   0  0  2  0  0  0  0  0  0  0  0  0
  152.0122  136.0051  156.3103 O   0  0  0  0  0  0  0  0  0  0  0  0
  151.1119  137.8050  154.9250 C   0  0  0  0  0  0  0  0  0  0  0  0
  150.5364  139.1374  154.9600 N   0  0  0  0  0  0  0  0  0  0  0  0
  151.0802  140.2388  155.5127 C   0  0  0  0  0  0  0  0  0  0  0  0
  150.3824  141.3683  155.4345 N   0  0  0  0  0  0  0  0  0  0  0  0
  149.2540  140.9522  154.7491 C   0  0  0  0  0  0  0  0  0  0  0  0
  148.1107  141.6756  154.3407 C   0  0  0  0  0  0  0  0  0  0  0  0
  147.0678  141.0297  153.6444 C   0  0  0  0  0  0  0  0  0  0  0  0
  147.1511  139.6539  153.3468 C   0  0  0  0  0  0  0  0  0  0  0  0
  148.2803  138.9122  153.7436 C   0  0  0  0  0  0  0  0  0  0  0  0
  149.3190  139.5603  154.4374 C   0  0  0  0  0  0  0  0  0  0  0  0
  153.7150  139.5482  160.0561 C   0  0  0  0  0  0  0  0  0  0  0  0
  153.6020  140.7879  160.7154 C   0  0  0  0  0  0  0  0  0  0  0  0
  152.0890  143.8521  160.3175 H   0  0  0  0  0  0  0  0  0  0  0  0
  153.6819  143.5795  161.0300 H   0  0  0  0  0  0  0  0  0  0  0  0
  152.2306  143.0084  161.8636 H   0  0  0  0  0  0  0  0  0  0  0  0
  151.5031  142.3684  158.5306 H   0  0  0  0  0  0  0  0  0  0  0  0
  151.7015  140.1916  157.3746 H   0  0  0  0  0  0  0  0  0  0  0  0
  152.8375  139.2279  156.3661 H   0  0  0  0  0  0  0  0  0  0  0  0
  153.8112  137.7643  156.2417 H   0  0  0  0  0  0  0  0  0  0  0  0
  150.9272  137.5268  157.0511 H   0  0  0  0  0  0  0  0  0  0  0  0
  151.2682  135.5194  155.9886 H   0  0  0  0  0  0  0  0  0  0  0  0
  151.8931  137.7910  154.1638 H   0  0  0  0  0  0  0  0  0  0  0  0
  150.3443  137.1036  154.5962 H   0  0  0  0  0  0  0  0  0  0  0  0
  152.0429  140.2083  156.0019 H   0  0  0  0  0  0  0  0  0  0  0  0
  148.0359  142.7295  154.5640 H   0  0  0  0  0  0  0  0  0  0  0  0
  146.1989  141.5931  153.3377 H   0  0  0  0  0  0  0  0  0  0  0  0
  146.3467  139.1682  152.8138 H   0  0  0  0  0  0  0  0  0  0  0  0
  148.3463  137.8579  153.5187 H   0  0  0  0  0  0  0  0  0  0  0  0
  154.3350  138.7887  160.5072 H   0  0  0  0  0  0  0  0  0  0  0  0
  154.1308  140.9497  161.6433 H   0  0  0  0  0  0  0  0  0  0  0  0
  1  2  1  0  0  0  0
  1 22  1  0  0  0  0
  1 23  1  0  0  0  0
  1 24  1  0  0  0  0
  2 21  1  0  0  0  0
  2  3  2  0  0  0  0
  3  4  1  0  0  0  0
  3 25  1  0  0  0  0
  4  5  2  0  0  0  0
  4 26  1  0  0  0  0
  5  6  1  0  0  0  0
  5 20  1  0  0  0  0
  6  7  1  0  0  0  0
  7  8  1  0  0  0  0
  7 27  1  0  0  0  0
  7 28  1  0  0  0  0
  8  9  1  0  0  0  0
  8 10  1  0  0  0  0
  8 29  1  0  0  0  0
  9 30  1  0  0  0  0
 10 11  1  0  0  0  0
 10 31  1  0  0  0  0
 10 32  1  0  0  0  0
 11 19  1  0  0  0  0
 11 12  1  0  0  0  0
 12 13  2  0  0  0  0
 12 33  1  0  0  0  0
 13 14  1  0  0  0  0
 14 19  2  0  0  0  0
 14 15  1  0  0  0  0
 15 16  2  0  0  0  0
 15 34  1  0  0  0  0
 16 17  1  0  0  0  0
 16 35  1  0  0  0  0
 17 18  2  0  0  0  0
 17 36  1  0  0  0  0
 18 19  1  0  0  0  0
 18 37  1  0  0  0  0
 20 21  2  0  0  0  0
 20 38  1  0  0  0  0
 21 39  1  0  0  0  0
M  END
> <s_m_source_file>
AV-unprocessed.smi

> <i_m_source_file_index>
2195

> <i_lp_mmshare_version>
43012

> <i_f3d_flags>
0

> <s_epik_input>
W0NIM11jMVtjSF1bY0hdYyhbY0hdW2NIXTEpT1tDSDJdW0NASF0oW09IXSlbQ0gyXW4oW2NIXW4yKWMoYzIzKVtjSF1bY0hdW2NIXVtjSF0z

> <s_epik_cmdline>
J2VwaWtfcHl0aG9uJywgJy1waCcsICc3LjAnLCAnLXRuJywgJzgnLCAnLW1hJywgJzIwMCcsICctbWV0YWxfYmluZGluZycsICctaW1hZScsICc8aW5maWxlLm1hZT4nLCAnLW9tYWUnLCAnPG91dGZpbGUubWFlPic=

> <r_lp_tautomer_probability>
1

> <r_epik_Ionization_Penalty>
0.0609831

> <r_epik_Ionization_Penalty_Charging>
0

> <r_epik_Ionization_Penalty_Neutral>
0.0609831

> <r_epik_State_Penalty>
0.0529032

> <r_epik_Charging_Adjusted_Penalty>
0.0529032

> <i_epik_Tot_Q>
0

> <i_epik_Tot_abs_Q>
0

> <r_epik_Metal_State_Penalty>
5.53344e-05

> <b_epik_Metal_Only>
0

> <s_lp_Force_Field>
OPLS_2005

> <r_lp_Energy>
15.928

> <b_lp_Chiralities_Consistent>
1

> <s_lp_Variant>
AV-unprocessed.smi:2195-1

> <Gold.Version>
5.8.1

> <Gold.Id.Protein>
6NUR|6NUR_protein|mol2

> <Gold.PLP.Fitness>
43.4187

> <Gold.PLP.PLP>
-42.6888

> <Gold.PLP.part.hbond>
-2.0000

> <Gold.PLP.part.metal>
0.0000

> <Gold.PLP.part.buried>
-1.2331

> <Gold.PLP.part.nonpolar>
-39.5238

> <Gold.PLP.part.repulsive>
0.0957

> <Gold.PLP.ligand.clash>
0.0000

> <Gold.PLP.ligand.torsion>
1.1680

> <Gold.PLP.Chemscore.Hbond>
1.0000

> <Gold.PLP.Chemscore.CHOScore>
0.0000

> <Gold.PLP.Chemscore.Metal>
0.0000

> <Gold.Chemscore.Hbonds>
donor molecule, donor type, donor heavy atom, donor atom, acceptor molecule, acceptor atom, score
      P1  H 10752 10765       L1     9  1.00

> <Gold.PLP.Chemscore.Internal.Correction>
0.0659

> <Gold.Rescore>
     Score         DG    S(hbond)    S(metal)    S(lipo)     H(rot)  DE(clash)    DE(int)     intcor
     15.12     -16.30       0.95        0.00     113.07       2.19       0.03       1.14       ----

> <Gold.Chemscore.Fitness>
15.1244

> <Gold.Chemscore.DG>
-16.2961

> <Gold.Chemscore.ZeroCoef>
-5.4800

> <Gold.Chemscore.Hbond>
0.9544

> <Gold.Chemscore.Metal>
0.0000

> <Gold.Chemscore.Lipo>
113.0664

> <Gold.Chemscore.Internal_Hbond>
0.0000

> <Gold.Chemscore.DEClash>
0.0313

> <Gold.Chemscore.DEInternal>
1.1405

> <Gold.Chemscore.Rot>
2.1877

> <Gold.Chemscore.Internal.Correction>
   9.000000E+99

> <Gold.Chemscore.Hbonds>
donor molecule, donor type, donor heavy atom, donor atom, acceptor molecule, acceptor atom, score
      P1  H 10752 10765       L1     9  0.42

> <Gold.Chemscore.Hbond.Weighted>
-3.1878

> <Gold.Chemscore.Metal.Weighted>
-0.0000

> <Gold.Chemscore.Lipo.Weighted>
-13.2288

> <Gold.Chemscore.Internal_Hbond.Weighted>
0.0000

> <Gold.Chemscore.DEClash.Weighted>
0.0313

> <Gold.Chemscore.DEInternal.Weighted>
1.1405

> <Gold.Chemscore.Rot.Weighted>
5.6005

> <Gold.Chemscore.Internal.Correction.Weighted>
   9.000000E+99

> <Gold.Protein.RotatedTorsions>
[ 6907 6896 6895 6894 ] final  113.51 input  -60.11 | X-H torsion
[ 7974 7965 7964 7962 ] final   61.57 input  175.53 | X-H torsion
[ 8008 7997 7996 7995 ] final  102.05 input   59.86 | X-H torsion
[ 10167 10162 10161 10158 ] final  -75.78 input  -65.29 | X-H torsion
[ 10718 10713 10712 10709 ] final -149.48 input   66.30 | X-H torsion
[ 10763 10752 10751 10750 ] final -128.53 input  -60.55 | X-H torsion
[ 11005 11000 10999 10996 ] final   32.60 input  -57.11 | X-H torsion

> <Gold.Protein.ActiveResidues>
 VAL166  LYS551  ARG553  GLY616  TRP617  ASP618  TYR619  PRO620  LYS621  CYS622 
 ASP623  PHE694  ASN695  SER759  ASP760  ASP761  ALA762  ILE779  LEU786  VAL792 
 PHE793  MET794  SER795  GLU796  ALA797  LYS798  CYS799  TRP800  GLU811  SER814 

> <Gold.Protein.RotatedAtoms>
  152.4857  133.8366  159.7130 H   0  0  0  0  0  0  0  0  0  0  0  0  # atno 6907 bound_to 6896
  150.8941  133.7195  159.2903 H   0  0  0  0  0  0  0  0  0  0  0  0  # atno 6908 bound_to 6896
  151.4658  135.1046  159.9790 H   0  0  0  0  0  0  0  0  0  0  0  0  # atno 6909 bound_to 6896
  145.8832  139.3458  143.0693 H   0  0  0  0  0  0  0  0  0  0  0  0  # atno 7974 bound_to 7965
  156.1357  140.3187  155.8417 H   0  0  0  0  0  0  0  0  0  0  0  0  # atno 8008 bound_to 7997
  155.4249  140.0515  157.3040 H   0  0  0  0  0  0  0  0  0  0  0  0  # atno 8009 bound_to 7997
  154.4935  140.2101  155.9510 H   0  0  0  0  0  0  0  0  0  0  0  0  # atno 8010 bound_to 7997
  140.4914  143.2379  151.7901 H   0  0  0  0  0  0  0  0  0  0  0  0  # atno 10167 bound_to 10162
  156.4337  130.8088  151.2316 H   0  0  0  0  0  0  0  0  0  0  0  0  # atno 10718 bound_to 10713
  154.8756  135.3925  154.3772 H   0  0  0  0  0  0  0  0  0  0  0  0  # atno 10763 bound_to 10752
  153.4524  135.7028  153.6105 H   0  0  0  0  0  0  0  0  0  0  0  0  # atno 10764 bound_to 10752
  153.4639  135.3805  155.2322 H   0  0  0  0  0  0  0  0  0  0  0  0  # atno 10765 bound_to 10752
  140.2718  134.3074  155.7826 H   0  0  0  0  0  0  0  0  0  0  0  0  # atno 11005 bound_to 11000
  145.8998  140.9250  143.0509 LP  0  0  0  0  0  0  0  0  0  0  0  0  # atno 17320 bound_to 7965
  144.6728  140.1017  143.7460 LP  0  0  0  0  0  0  0  0  0  0  0  0  # atno 17321 bound_to 7965
  139.4852  144.4644  151.9501 LP  0  0  0  0  0  0  0  0  0  0  0  0  # atno 17342 bound_to 10162
  140.3731  144.2830  150.5917 LP  0  0  0  0  0  0  0  0  0  0  0  0  # atno 17343 bound_to 10162
  157.7508  131.0190  150.3649 LP  0  0  0  0  0  0  0  0  0  0  0  0  # atno 17370 bound_to 10713
  156.3992  130.3912  149.6972 LP  0  0  0  0  0  0  0  0  0  0  0  0  # atno 17371 bound_to 10713
  141.2176  133.7471  156.9346 LP  0  0  0  0  0  0  0  0  0  0  0  0  # atno 17394 bound_to 11000
  140.1366  134.9321  157.2410 LP  0  0  0  0  0  0  0  0  0  0  0  0  # atno 17395 bound_to 11000

$$$$
