AV-unprocessed.smi:3155|AV-procd|sdf|12025|dock3
  -GOLD-   2272017443D 1   1.00000     0.00000
 Structure written by MMmdl.
 38 39  0  0  0  0  0  0  0  0  2 V2000
  148.3340  140.9504  154.0483 C   0  0  0  0  0  0  0  0  0  0  0  0
  148.6162  139.4412  154.1443 C   0  0  2  0  0  0  0  0  0  0  0  0
  150.1076  139.1333  154.4187 C   0  0  0  0  0  0  0  0  0  0  0  0
  150.5830  139.6861  155.6742 N   0  0  0  0  0  0  0  0  0  0  0  0
  150.2019  139.3549  156.9577 C   0  0  0  0  0  0  0  0  0  0  0  0
  150.9158  140.1479  157.8098 C   0  0  0  0  0  0  0  0  0  0  0  0
  151.7097  140.9486  156.9422 C   0  0  0  0  0  0  0  0  0  0  0  0
  151.5052  140.6724  155.6641 N   0  0  0  0  0  0  0  0  0  0  0  0
  148.1511  138.7818  152.9036 N   0  3  0  0  0  0  0  0  0  0  0  0
  146.6848  138.6408  152.7622 C   0  0  0  0  0  0  0  0  0  0  0  0
  146.2990  137.7971  151.5383 C   0  0  0  0  0  0  0  0  0  0  0  0
  146.7125  138.1172  150.4227 O   0  0  0  0  0  0  0  0  0  0  0  0
  145.5077  136.7212  151.7281 N   0  0  0  0  0  0  0  0  0  0  0  0
  144.9776  136.3271  153.0321 C   0  0  0  0  0  0  0  0  0  0  0  0
  143.9339  135.2478  152.7442 C   0  0  0  0  0  0  0  0  0  0  0  0
  144.3811  134.6420  151.4209 C   0  0  0  0  0  0  0  0  0  0  0  0
  145.0537  135.8014  150.6855 C   0  0  0  0  0  0  0  0  0  0  0  0
  148.5657  141.4650  154.9813 H   0  0  0  0  0  0  0  0  0  0  0  0
  147.2819  141.1394  153.8318 H   0  0  0  0  0  0  0  0  0  0  0  0
  148.9248  141.4133  153.2572 H   0  0  0  0  0  0  0  0  0  0  0  0
  148.0179  139.0519  154.9695 H   0  0  0  0  0  0  0  0  0  0  0  0
  150.2867  138.0585  154.4450 H   0  0  0  0  0  0  0  0  0  0  0  0
  150.7268  139.5328  153.6144 H   0  0  0  0  0  0  0  0  0  0  0  0
  149.4658  138.5898  157.1568 H   0  0  0  0  0  0  0  0  0  0  0  0
  150.8754  140.1575  158.8888 H   0  0  0  0  0  0  0  0  0  0  0  0
  152.4222  141.7178  157.2017 H   0  0  0  0  0  0  0  0  0  0  0  0
  148.4696  139.3385  152.1232 H   0  0  0  0  0  0  0  0  0  0  0  0
  146.2777  138.1730  153.6581 H   0  0  0  0  0  0  0  0  0  0  0  0
  146.2343  139.6294  152.6666 H   0  0  0  0  0  0  0  0  0  0  0  0
  145.7893  135.9230  153.6389 H   0  0  0  0  0  0  0  0  0  0  0  0
  144.5380  137.1685  153.5704 H   0  0  0  0  0  0  0  0  0  0  0  0
  143.8555  134.5103  153.5434 H   0  0  0  0  0  0  0  0  0  0  0  0
  142.9540  135.7111  152.6203 H   0  0  0  0  0  0  0  0  0  0  0  0
  145.1128  133.8551  151.6091 H   0  0  0  0  0  0  0  0  0  0  0  0
  143.5574  134.2040  150.8563 H   0  0  0  0  0  0  0  0  0  0  0  0
  144.3335  136.3130  150.0456 H   0  0  0  0  0  0  0  0  0  0  0  0
  145.8742  135.4450  150.0612 H   0  0  0  0  0  0  0  0  0  0  0  0
  148.5776  137.8687  152.8338 H   0  0  0  0  0  0  0  0  0  0  0  0
  1  2  1  0  0  0  0
  1 18  1  0  0  0  0
  1 19  1  0  0  0  0
  1 20  1  0  0  0  0
  2  3  1  0  0  0  0
  2  9  1  0  0  0  0
  2 21  1  0  0  0  0
  3  4  1  0  0  0  0
  3 22  1  0  0  0  0
  3 23  1  0  0  0  0
  4  8  1  0  0  0  0
  4  5  1  0  0  0  0
  5  6  2  0  0  0  0
  5 24  1  0  0  0  0
  6  7  1  0  0  0  0
  6 25  1  0  0  0  0
  7  8  2  0  0  0  0
  7 26  1  0  0  0  0
  9 10  1  0  0  0  0
  9 27  1  0  0  0  0
  9 38  1  0  0  0  0
 10 11  1  0  0  0  0
 10 28  1  0  0  0  0
 10 29  1  0  0  0  0
 11 12  2  0  0  0  0
 11 13  1  0  0  0  0
 13 17  1  0  0  0  0
 13 14  1  0  0  0  0
 14 15  1  0  0  0  0
 14 30  1  0  0  0  0
 14 31  1  0  0  0  0
 15 16  1  0  0  0  0
 15 32  1  0  0  0  0
 15 33  1  0  0  0  0
 16 17  1  0  0  0  0
 16 34  1  0  0  0  0
 16 35  1  0  0  0  0
 17 36  1  0  0  0  0
 17 37  1  0  0  0  0
M  CHG  1   9   1
M  END
> <s_m_source_file>
AV-unprocessed.smi

> <i_m_source_file_index>
3155

> <i_lp_mmshare_version>
43012

> <i_f3d_flags>
0

> <s_epik_input>
bjFbY0hdW2NIXVtjSF1uMVtDSDJdW0NAQEhdKFtDSDNdKVtOSF1bQ0gyXUMoPU8pTjJbQ0gyXVtDSDJdW0NIMl1bQ0gyXTI=

> <s_epik_cmdline>
J2VwaWtfcHl0aG9uJywgJy1waCcsICc3LjAnLCAnLXRuJywgJzgnLCAnLW1hJywgJzIwMCcsICctbWV0YWxfYmluZGluZycsICctaW1hZScsICc8aW5maWxlLm1hZT4nLCAnLW9tYWUnLCAnPG91dGZpbGUubWFlPic=

> <r_lp_tautomer_probability>
1

> <r_epik_Ionization_Penalty>
0.120138

> <r_epik_Ionization_Penalty_Charging>
0.120135

> <r_epik_Ionization_Penalty_Neutral>
3.43791e-06

> <r_epik_State_Penalty>
0.109683

> <r_epik_Charging_Adjusted_Penalty>
0.229818

> <i_epik_Tot_Q>
1

> <i_epik_Tot_abs_Q>
1

> <r_epik_Metal_State_Penalty>
0.109693

> <b_epik_Metal_Only>
0

> <s_lp_Force_Field>
OPLS_2005

> <r_lp_Energy>
27.5308

> <b_lp_Chiralities_Consistent>
1

> <s_lp_Variant>
AV-unprocessed.smi:3155-1

> <Gold.Version>
5.8.1

> <Gold.Id.Protein>
6NUR|6NUR_protein|mol2

> <Gold.PLP.Fitness>
42.2505

> <Gold.PLP.PLP>
-29.4707

> <Gold.PLP.part.hbond>
-3.8031

> <Gold.PLP.part.metal>
0.0000

> <Gold.PLP.part.buried>
-0.7508

> <Gold.PLP.part.nonpolar>
-25.9920

> <Gold.PLP.part.repulsive>
1.5987

> <Gold.PLP.ligand.clash>
0.0000

> <Gold.PLP.ligand.torsion>
0.2038

> <Gold.PLP.Chemscore.Hbond>
4.3879

> <Gold.PLP.Chemscore.CHOScore>
0.0000

> <Gold.PLP.Chemscore.Metal>
0.0000

> <Gold.Chemscore.Hbonds>
donor molecule, donor type, donor heavy atom, donor atom, acceptor molecule, acceptor atom, score
      L1  H     9    27       P1  7957  1.00
      L1  H     9    38       P1  7948  2.00
      P1  H  7954  7966       L1    12  0.90
      P1  H  7989  7998       L1     8  0.44

> <Gold.PLP.Chemscore.Internal.Correction>
0.0236

> <Gold.Rescore>
     Score         DG    S(hbond)    S(metal)    S(lipo)     H(rot)  DE(clash)    DE(int)     intcor
     15.91     -17.61       2.96        0.00      59.21       1.84       1.33       0.36       ----

> <Gold.Chemscore.Fitness>
15.9132

> <Gold.Chemscore.DG>
-17.6050

> <Gold.Chemscore.ZeroCoef>
-5.4800

> <Gold.Chemscore.Hbond>
2.9639

> <Gold.Chemscore.Metal>
0.0000

> <Gold.Chemscore.Lipo>
59.2082

> <Gold.Chemscore.Internal_Hbond>
0.0000

> <Gold.Chemscore.DEClash>
1.3303

> <Gold.Chemscore.DEInternal>
0.3615

> <Gold.Chemscore.Rot>
1.8366

> <Gold.Chemscore.Internal.Correction>
   9.000000E+99

> <Gold.Chemscore.Hbonds>
donor molecule, donor type, donor heavy atom, donor atom, acceptor molecule, acceptor atom, score
      L1  H     9    27       P1  7957  0.98
      L1  H     9    38       P1  7948  0.95
      P1  H  7954  7966       L1    12  0.84
      P1  H  7989  7998       L1     8  0.09

> <Gold.Chemscore.Hbond.Weighted>
-9.8993

> <Gold.Chemscore.Metal.Weighted>
-0.0000

> <Gold.Chemscore.Lipo.Weighted>
-6.9274

> <Gold.Chemscore.Internal_Hbond.Weighted>
0.0000

> <Gold.Chemscore.DEClash.Weighted>
1.3303

> <Gold.Chemscore.DEInternal.Weighted>
0.3615

> <Gold.Chemscore.Rot.Weighted>
4.7017

> <Gold.Chemscore.Internal.Correction.Weighted>
   9.000000E+99

> <Gold.Protein.RotatedTorsions>
[ 6907 6896 6895 6894 ] final -116.98 input  -60.11 | X-H torsion
[ 7974 7965 7964 7962 ] final -103.17 input  175.53 | X-H torsion
[ 8008 7997 7996 7995 ] final  124.78 input   59.86 | X-H torsion
[ 10167 10162 10161 10158 ] final   53.85 input  -65.29 | X-H torsion
[ 10718 10713 10712 10709 ] final   59.41 input   66.30 | X-H torsion
[ 10763 10752 10751 10750 ] final   82.45 input  -60.55 | X-H torsion
[ 11005 11000 10999 10996 ] final   -1.75 input  -57.11 | X-H torsion

> <Gold.Protein.ActiveResidues>
 VAL166  LYS551  ARG553  GLY616  TRP617  ASP618  TYR619  PRO620  LYS621  CYS622 
 ASP623  PHE694  ASN695  SER759  ASP760  ASP761  ALA762  ILE779  LEU786  VAL792 
 PHE793  MET794  SER795  GLU796  ALA797  LYS798  CYS799  TRP800  GLU811  SER814 

> <Gold.Protein.RotatedAtoms>
  150.8099  133.8441  159.3187 H   0  0  0  0  0  0  0  0  0  0  0  0  # atno 6907 bound_to 6896
  151.6229  135.1028  160.0115 H   0  0  0  0  0  0  0  0  0  0  0  0  # atno 6908 bound_to 6896
  152.4191  133.7046  159.6500 H   0  0  0  0  0  0  0  0  0  0  0  0  # atno 6909 bound_to 6896
  145.2593  140.9264  143.3050 H   0  0  0  0  0  0  0  0  0  0  0  0  # atno 7974 bound_to 7965
  156.2813  140.2731  156.1844 H   0  0  0  0  0  0  0  0  0  0  0  0  # atno 8008 bound_to 7997
  155.0523  140.0386  157.2566 H   0  0  0  0  0  0  0  0  0  0  0  0  # atno 8009 bound_to 7997
  154.7185  140.2683  155.6568 H   0  0  0  0  0  0  0  0  0  0  0  0  # atno 8010 bound_to 7997
  140.2364  144.3631  150.6396 H   0  0  0  0  0  0  0  0  0  0  0  0  # atno 10167 bound_to 10162
  157.5673  130.8881  149.9209 H   0  0  0  0  0  0  0  0  0  0  0  0  # atno 10718 bound_to 10713
  153.1204  135.4728  154.9186 H   0  0  0  0  0  0  0  0  0  0  0  0  # atno 10763 bound_to 10752
  154.7570  135.3121  154.8454 H   0  0  0  0  0  0  0  0  0  0  0  0  # atno 10764 bound_to 10752
  153.9020  135.6874  153.4808 H   0  0  0  0  0  0  0  0  0  0  0  0  # atno 10765 bound_to 10752
  140.6508  133.9406  155.8379 H   0  0  0  0  0  0  0  0  0  0  0  0  # atno 11005 bound_to 11000
  144.9432  139.4165  143.6438 LP  0  0  0  0  0  0  0  0  0  0  0  0  # atno 17320 bound_to 7965
  146.3280  139.8403  142.8892 LP  0  0  0  0  0  0  0  0  0  0  0  0  # atno 17321 bound_to 7965
  140.6146  143.2171  151.6817 LP  0  0  0  0  0  0  0  0  0  0  0  0  # atno 17342 bound_to 10162
  139.5092  144.3584  152.0585 LP  0  0  0  0  0  0  0  0  0  0  0  0  # atno 17343 bound_to 10162
  156.0720  130.3684  150.0755 LP  0  0  0  0  0  0  0  0  0  0  0  0  # atno 17370 bound_to 10713
  156.8912  130.9589  151.3588 LP  0  0  0  0  0  0  0  0  0  0  0  0  # atno 17371 bound_to 10713
  141.0538  134.0446  157.3749 LP  0  0  0  0  0  0  0  0  0  0  0  0  # atno 17394 bound_to 11000
  139.9046  135.0176  156.7429 LP  0  0  0  0  0  0  0  0  0  0  0  0  # atno 17395 bound_to 11000

$$$$
