AV-unprocessed.smi:94|AV-procd|sdf|851|dock8
  -GOLD-   2262017293D 1   1.00000     0.00000
 Structure written by MMmdl.
 53 55  0  0  0  0  0  0  0  0  1 V2000
  153.6273  138.9749  159.8686 C   0  0  0  0  0  0  0  0  0  0  0  0
  153.2638  139.9033  158.8577 O   0  0  0  0  0  0  0  0  0  0  0  0
  152.8916  141.1772  159.2369 C   0  0  0  0  0  0  0  0  0  0  0  0
  153.2292  141.7447  160.4927 C   0  0  0  0  0  0  0  0  0  0  0  0
  152.8265  143.0516  160.8241 C   0  0  0  0  0  0  0  0  0  0  0  0
  152.0888  143.8176  159.9038 C   0  0  0  0  0  0  0  0  0  0  0  0
  151.6504  145.2251  160.2527 C   0  0  0  0  0  0  0  0  0  0  0  0
  151.7524  143.2656  158.6549 C   0  0  0  0  0  0  0  0  0  0  0  0
  152.1359  141.9455  158.3161 C   0  0  0  0  0  0  0  0  0  0  0  0
  151.7515  141.3565  156.9562 C   0  0  2  0  0  0  0  0  0  0  0  0
  150.8093  142.2966  156.1916 C   0  0  0  0  0  0  0  0  0  0  0  0
  151.1148  140.0499  157.0908 N   0  0  0  0  0  0  0  0  0  0  0  0
  150.6645  139.2626  156.1003 C   0  0  0  0  0  0  0  0  0  0  0  0
  150.6058  139.6204  154.9250 O   0  0  0  0  0  0  0  0  0  0  0  0
  150.2611  137.8261  156.4775 C   0  0  0  0  0  0  0  0  0  0  0  0
  149.0104  137.7506  157.2706 N   0  0  0  0  0  0  0  0  0  0  0  0
  147.7948  138.1117  156.6364 C   0  0  0  0  0  0  0  0  0  0  0  0
  147.7761  138.5171  155.4736 O   0  0  0  0  0  0  0  0  0  0  0  0
  146.5910  137.9470  157.4415 C   0  0  0  0  0  0  0  0  0  0  0  0
  145.3910  138.2443  156.9148 F   0  0  0  0  0  0  0  0  0  0  0  0
  146.6606  137.4855  158.7065 C   0  0  0  0  0  0  0  0  0  0  0  0
  147.8521  137.1567  159.3233 N   0  0  0  0  0  0  0  0  0  0  0  0
  147.8143  136.5810  160.7221 C   0  0  2  0  0  0  0  0  0  0  0  0
  147.0036  135.2816  160.8408 C   0  0  0  0  0  0  0  0  0  0  0  0
  146.4055  135.4357  162.2226 C   0  0  0  0  0  0  0  0  0  0  0  0
  146.1628  136.9395  162.2979 C   0  0  0  0  0  0  0  0  0  0  0  0
  147.2519  137.5242  161.5883 O   0  0  0  0  0  0  0  0  0  0  0  0
  149.0625  137.2606  158.5983 C   0  0  0  0  0  0  0  0  0  0  0  0
  150.1350  136.9138  159.0945 O   0  0  0  0  0  0  0  0  0  0  0  0
  153.8848  138.0231  159.4049 H   0  0  0  0  0  0  0  0  0  0  0  0
  152.8020  138.7925  160.5580 H   0  0  0  0  0  0  0  0  0  0  0  0
  154.4993  139.3152  160.4286 H   0  0  0  0  0  0  0  0  0  0  0  0
  153.8000  141.1958  161.2259 H   0  0  0  0  0  0  0  0  0  0  0  0
  153.0891  143.4638  161.7872 H   0  0  0  0  0  0  0  0  0  0  0  0
  151.6264  145.8557  159.3633 H   0  0  0  0  0  0  0  0  0  0  0  0
  152.3329  145.6797  160.9714 H   0  0  0  0  0  0  0  0  0  0  0  0
  150.6511  145.2102  160.6879 H   0  0  0  0  0  0  0  0  0  0  0  0
  151.1928  143.8720  157.9582 H   0  0  0  0  0  0  0  0  0  0  0  0
  152.6589  141.2425  156.3615 H   0  0  0  0  0  0  0  0  0  0  0  0
  151.2742  143.2688  156.0251 H   0  0  0  0  0  0  0  0  0  0  0  0
  149.8811  142.4613  156.7403 H   0  0  0  0  0  0  0  0  0  0  0  0
  150.5516  141.8848  155.2154 H   0  0  0  0  0  0  0  0  0  0  0  0
  151.0962  139.6642  158.0237 H   0  0  0  0  0  0  0  0  0  0  0  0
  150.1869  137.2432  155.5585 H   0  0  0  0  0  0  0  0  0  0  0  0
  151.0865  137.3594  157.0181 H   0  0  0  0  0  0  0  0  0  0  0  0
  145.7365  137.3716  159.2542 H   0  0  0  0  0  0  0  0  0  0  0  0
  148.8542  136.4342  161.0168 H   0  0  0  0  0  0  0  0  0  0  0  0
  146.2194  135.2239  160.0875 H   0  0  0  0  0  0  0  0  0  0  0  0
  147.6481  134.4083  160.7401 H   0  0  0  0  0  0  0  0  0  0  0  0
  145.4980  134.8486  162.3658 H   0  0  0  0  0  0  0  0  0  0  0  0
  147.1315  135.1358  162.9794 H   0  0  0  0  0  0  0  0  0  0  0  0
  145.2265  137.2018  161.8050 H   0  0  0  0  0  0  0  0  0  0  0  0
  146.1152  137.3049  163.3238 H   0  0  0  0  0  0  0  0  0  0  0  0
  1  2  1  0  0  0  0
  1 30  1  0  0  0  0
  1 31  1  0  0  0  0
  1 32  1  0  0  0  0
  2  3  1  0  0  0  0
  3  9  1  0  0  0  0
  3  4  2  0  0  0  0
  4  5  1  0  0  0  0
  4 33  1  0  0  0  0
  5  6  2  0  0  0  0
  5 34  1  0  0  0  0
  6  7  1  0  0  0  0
  6  8  1  0  0  0  0
  7 35  1  0  0  0  0
  7 36  1  0  0  0  0
  7 37  1  0  0  0  0
  8  9  2  0  0  0  0
  8 38  1  0  0  0  0
  9 10  1  0  0  0  0
 10 11  1  0  0  0  0
 10 12  1  0  0  0  0
 10 39  1  0  0  0  0
 11 40  1  0  0  0  0
 11 41  1  0  0  0  0
 11 42  1  0  0  0  0
 12 13  1  0  0  0  0
 12 43  1  0  0  0  0
 13 14  2  0  0  0  0
 13 15  1  0  0  0  0
 15 16  1  0  0  0  0
 15 44  1  0  0  0  0
 15 45  1  0  0  0  0
 16 28  1  0  0  0  0
 16 17  1  0  0  0  0
 17 18  2  0  0  0  0
 17 19  1  0  0  0  0
 19 20  1  0  0  0  0
 19 21  2  0  0  0  0
 21 22  1  0  0  0  0
 21 46  1  0  0  0  0
 22 23  1  0  0  0  0
 22 28  1  0  0  0  0
 23 27  1  0  0  0  0
 23 24  1  0  0  0  0
 23 47  1  0  0  0  0
 24 25  1  0  0  0  0
 24 48  1  0  0  0  0
 24 49  1  0  0  0  0
 25 26  1  0  0  0  0
 25 50  1  0  0  0  0
 25 51  1  0  0  0  0
 26 27  1  0  0  0  0
 26 52  1  0  0  0  0
 26 53  1  0  0  0  0
 28 29  2  0  0  0  0
M  END
> <s_m_source_file>
AV-unprocessed.smi

> <i_m_source_file_index>
94

> <i_lp_mmshare_version>
43012

> <i_f3d_flags>
0

> <s_epik_input>
W0NIM11PYzFbY0hdW2NIXWMoW0NIM10pW2NIXWMxW0NASF0oW0NIM10pW05IXUMoPU8pW0NIMl1uMmMoPU8pYyhGKVtjSF1uKGMyPU8pW0NAQEhdM1tDSDJdW0NIMl1bQ0gyXU8z

> <s_epik_cmdline>
J2VwaWtfcHl0aG9uJywgJy1waCcsICc3LjAnLCAnLXRuJywgJzgnLCAnLW1hJywgJzIwMCcsICctbWV0YWxfYmluZGluZycsICctaW1hZScsICc8aW5maWxlLm1hZT4nLCAnLW9tYWUnLCAnPG91dGZpbGUubWFlPic=

> <r_lp_tautomer_probability>
1

> <r_epik_Ionization_Penalty>
3.37009e-08

> <r_epik_Ionization_Penalty_Charging>
3.59856e-09

> <r_epik_Ionization_Penalty_Neutral>
3.01024e-08

> <r_epik_State_Penalty>
-0

> <r_epik_Charging_Adjusted_Penalty>
3.59856e-09

> <i_epik_Tot_Q>
0

> <i_epik_Tot_abs_Q>
0

> <r_epik_Metal_State_Penalty>
-0

> <b_epik_Metal_Only>
0

> <s_epik_Chemistry_Notes>
This compound contains an acetal/aminal-like group ( X-CH(R)-Y where X, Y are N, S, or O) that may be acid/base labile, releasing an aldehyde.

> <s_lp_Force_Field>
OPLS_2005

> <r_lp_Energy>
26.0468

> <b_lp_Chiralities_Consistent>
1

> <s_lp_Variant>
AV-unprocessed.smi:94-1

> <Gold.Version>
5.8.1

> <Gold.Id.Protein>
6NUR|6NUR_protein|mol2

> <Gold.PLP.Fitness>
60.2680

> <Gold.PLP.PLP>
-48.1328

> <Gold.PLP.part.hbond>
-4.5783

> <Gold.PLP.part.metal>
0.0000

> <Gold.PLP.part.buried>
-6.2216

> <Gold.PLP.part.nonpolar>
-35.9856

> <Gold.PLP.part.repulsive>
0.1534

> <Gold.PLP.ligand.clash>
0.0000

> <Gold.PLP.ligand.torsion>
0.5495

> <Gold.PLP.Chemscore.Hbond>
4.3737

> <Gold.PLP.Chemscore.CHOScore>
0.0000

> <Gold.PLP.Chemscore.Metal>
0.0000

> <Gold.Chemscore.Hbonds>
donor molecule, donor type, donor heavy atom, donor atom, acceptor molecule, acceptor atom, score
      P1  H  6896  6909       L1    29  0.57
      P1  H  6931  6943       L1    27  0.35
      P1  H  6934  6947       L1    27  0.86
      P1  H  7989  7998       L1    14  0.68
      P1  H  7997  8008       L1     2  0.44

> <Gold.PLP.Chemscore.Internal.Correction>
0.1131

> <Gold.Rescore>
     Score         DG    S(hbond)    S(metal)    S(lipo)     H(rot)  DE(clash)    DE(int)     intcor
     24.21     -27.18       3.89        0.00     125.49       2.34       1.38       1.59       ----

> <Gold.Chemscore.Fitness>
24.2056

> <Gold.Chemscore.DG>
-27.1801

> <Gold.Chemscore.ZeroCoef>
-5.4800

> <Gold.Chemscore.Hbond>
3.8922

> <Gold.Chemscore.Metal>
0.0000

> <Gold.Chemscore.Lipo>
125.4940

> <Gold.Chemscore.Internal_Hbond>
0.0000

> <Gold.Chemscore.DEClash>
1.3817

> <Gold.Chemscore.DEInternal>
1.5929

> <Gold.Chemscore.Rot>
2.3370

> <Gold.Chemscore.Internal.Correction>
   9.000000E+99

> <Gold.Chemscore.Hbonds>
donor molecule, donor type, donor heavy atom, donor atom, acceptor molecule, acceptor atom, score
      P1  H  6896  6909       L1    29  0.56
      P1  H  6931  6943       L1    27  0.02
      P1  H  6934  6947       L1    27  0.74
      P1  H  7989  7998       L1    14  0.69
      P1  H  7997  8008       L1     2  0.25

> <Gold.Chemscore.Hbond.Weighted>
-13.0000

> <Gold.Chemscore.Metal.Weighted>
-0.0000

> <Gold.Chemscore.Lipo.Weighted>
-14.6828

> <Gold.Chemscore.Internal_Hbond.Weighted>
0.0000

> <Gold.Chemscore.DEClash.Weighted>
1.3817

> <Gold.Chemscore.DEInternal.Weighted>
1.5929

> <Gold.Chemscore.Rot.Weighted>
5.9827

> <Gold.Chemscore.Internal.Correction.Weighted>
   9.000000E+99

> <Gold.Protein.RotatedTorsions>
[ 6907 6896 6895 6894 ] final   81.89 input  -60.11 | X-H torsion
[ 7974 7965 7964 7962 ] final  178.08 input  175.53 | X-H torsion
[ 8008 7997 7996 7995 ] final  -99.85 input   59.86 | X-H torsion
[ 10167 10162 10161 10158 ] final  -77.48 input  -65.29 | X-H torsion
[ 10718 10713 10712 10709 ] final   83.99 input   66.30 | X-H torsion
[ 10763 10752 10751 10750 ] final  121.24 input  -60.55 | X-H torsion
[ 11005 11000 10999 10996 ] final  -84.19 input  -57.11 | X-H torsion

> <Gold.Protein.ActiveResidues>
 VAL166  LYS551  ARG553  GLY616  TRP617  ASP618  TYR619  PRO620  LYS621  CYS622 
 ASP623  PHE694  ASN695  SER759  ASP760  ASP761  ALA762  ILE779  LEU786  VAL792 
 PHE793  MET794  SER795  GLU796  ALA797  LYS798  CYS799  TRP800  GLU811  SER814 

> <Gold.Protein.RotatedAtoms>
  152.5282  134.3134  159.9121 H   0  0  0  0  0  0  0  0  0  0  0  0  # atno 6907 bound_to 6896
  151.3084  133.4085  159.2652 H   0  0  0  0  0  0  0  0  0  0  0  0  # atno 6908 bound_to 6896
  151.0059  134.9376  159.8037 H   0  0  0  0  0  0  0  0  0  0  0  0  # atno 6909 bound_to 6896
  144.7160  140.0344  143.6438 H   0  0  0  0  0  0  0  0  0  0  0  0  # atno 7974 bound_to 7965
  154.8205  140.0445  157.1407 H   0  0  0  0  0  0  0  0  0  0  0  0  # atno 8008 bound_to 7997
  154.9265  140.3034  155.5169 H   0  0  0  0  0  0  0  0  0  0  0  0  # atno 8009 bound_to 7997
  156.2979  140.2331  156.4320 H   0  0  0  0  0  0  0  0  0  0  0  0  # atno 8010 bound_to 7997
  140.4767  143.2412  151.8122 H   0  0  0  0  0  0  0  0  0  0  0  0  # atno 10167 bound_to 10162
  157.6890  131.0114  150.2606 H   0  0  0  0  0  0  0  0  0  0  0  0  # atno 10718 bound_to 10713
  153.6109  135.3430  155.2978 H   0  0  0  0  0  0  0  0  0  0  0  0  # atno 10763 bound_to 10752
  154.8618  135.4250  154.2310 H   0  0  0  0  0  0  0  0  0  0  0  0  # atno 10764 bound_to 10752
  153.3161  135.7035  153.7144 H   0  0  0  0  0  0  0  0  0  0  0  0  # atno 10765 bound_to 10752
  141.1652  133.7333  156.8831 H   0  0  0  0  0  0  0  0  0  0  0  0  # atno 11005 bound_to 11000
  146.0076  139.3143  143.0890 LP  0  0  0  0  0  0  0  0  0  0  0  0  # atno 17320 bound_to 7965
  145.8720  140.9414  143.0646 LP  0  0  0  0  0  0  0  0  0  0  0  0  # atno 17321 bound_to 7965
  139.4826  144.4825  151.9289 LP  0  0  0  0  0  0  0  0  0  0  0  0  # atno 17342 bound_to 10162
  140.3910  144.2616  150.5900 LP  0  0  0  0  0  0  0  0  0  0  0  0  # atno 17343 bound_to 10162
  156.3186  130.3782  149.7595 LP  0  0  0  0  0  0  0  0  0  0  0  0  # atno 17370 bound_to 10713
  156.5173  130.8199  151.3191 LP  0  0  0  0  0  0  0  0  0  0  0  0  # atno 17371 bound_to 10713
  140.1701  134.9106  157.2822 LP  0  0  0  0  0  0  0  0  0  0  0  0  # atno 17394 bound_to 11000
  140.2512  134.3681  155.7441 LP  0  0  0  0  0  0  0  0  0  0  0  0  # atno 17395 bound_to 11000

$$$$
