AV-unprocessed.smi:3199|AV-procd|sdf|12231|dock4
  -GOLD-   2272018 63D 1   1.00000     0.00000
 Structure written by MMmdl.
 35 36  0  0  0  0  0  0  0  0  1 V2000
  153.6442  142.6864  163.7290 C   0  0  0  0  0  0  0  0  0  0  0  0
  153.1305  142.9449  162.3282 C   0  0  0  0  0  0  0  0  0  0  0  0
  153.4405  142.0654  161.2693 C   0  0  0  0  0  0  0  0  0  0  0  0
  152.9338  142.3544  159.9875 C   0  0  0  0  0  0  0  0  0  0  0  0
  152.1414  143.5075  159.8136 C   0  0  0  0  0  0  0  0  0  0  0  0
  151.5653  143.8603  158.4564 C   0  0  0  0  0  0  0  0  0  0  0  0
  150.5808  142.7926  157.9523 C   0  0  0  0  0  0  0  0  0  0  0  0
  151.0914  142.1007  156.7750 N   0  0  0  0  0  0  0  0  0  0  0  0
  151.2930  140.7773  156.6805 C   0  0  0  0  0  0  0  0  0  0  0  0
  151.0504  139.9957  157.6006 O   0  0  0  0  0  0  0  0  0  0  0  0
  151.8440  140.2821  155.3351 C   0  0  2  0  0  0  0  0  0  0  0  0
  150.9829  139.2394  154.5909 C   0  0  0  0  0  0  0  0  0  0  0  0
  151.8345  137.9845  154.6140 C   0  0  0  0  0  0  0  0  0  0  0  0
  153.2426  138.5579  154.6732 C   0  0  0  0  0  0  0  0  0  0  0  0
  153.0998  139.6465  155.5707 O   0  0  0  0  0  0  0  0  0  0  0  0
  151.8911  144.3219  160.9383 C   0  0  0  0  0  0  0  0  0  0  0  0
  152.3720  144.0523  162.1711 N   0  0  0  0  0  0  0  0  0  0  0  0
  154.2089  141.7549  163.7779 H   0  0  0  0  0  0  0  0  0  0  0  0
  152.8133  142.6171  164.4319 H   0  0  0  0  0  0  0  0  0  0  0  0
  154.2984  143.4983  164.0483 H   0  0  0  0  0  0  0  0  0  0  0  0
  154.0503  141.1890  161.4326 H   0  0  0  0  0  0  0  0  0  0  0  0
  153.1495  141.7002  159.1555 H   0  0  0  0  0  0  0  0  0  0  0  0
  151.0700  144.8295  158.5293 H   0  0  0  0  0  0  0  0  0  0  0  0
  152.3813  143.9843  157.7431 H   0  0  0  0  0  0  0  0  0  0  0  0
  150.4105  142.0482  158.7306 H   0  0  0  0  0  0  0  0  0  0  0  0
  149.6096  143.2388  157.7316 H   0  0  0  0  0  0  0  0  0  0  0  0
  151.3198  142.6707  155.9732 H   0  0  0  0  0  0  0  0  0  0  0  0
  152.0056  141.1444  154.6861 H   0  0  0  0  0  0  0  0  0  0  0  0
  149.9951  139.0624  155.0168 H   0  0  0  0  0  0  0  0  0  0  0  0
  150.8311  139.5639  153.5606 H   0  0  0  0  0  0  0  0  0  0  0  0
  151.6287  137.4085  155.5171 H   0  0  0  0  0  0  0  0  0  0  0  0
  151.6713  137.3399  153.7498 H   0  0  0  0  0  0  0  0  0  0  0  0
  153.9790  137.8370  155.0283 H   0  0  0  0  0  0  0  0  0  0  0  0
  153.5579  138.9261  153.6957 H   0  0  0  0  0  0  0  0  0  0  0  0
  151.2860  145.2120  160.8479 H   0  0  0  0  0  0  0  0  0  0  0  0
  1  2  1  0  0  0  0
  1 18  1  0  0  0  0
  1 19  1  0  0  0  0
  1 20  1  0  0  0  0
  2 17  1  0  0  0  0
  2  3  2  0  0  0  0
  3  4  1  0  0  0  0
  3 21  1  0  0  0  0
  4  5  2  0  0  0  0
  4 22  1  0  0  0  0
  5  6  1  0  0  0  0
  5 16  1  0  0  0  0
  6  7  1  0  0  0  0
  6 23  1  0  0  0  0
  6 24  1  0  0  0  0
  7  8  1  0  0  0  0
  7 25  1  0  0  0  0
  7 26  1  0  0  0  0
  8  9  1  0  0  0  0
  8 27  1  0  0  0  0
  9 10  2  0  0  0  0
  9 11  1  0  0  0  0
 11 15  1  0  0  0  0
 11 12  1  0  0  0  0
 11 28  1  0  0  0  0
 12 13  1  0  0  0  0
 12 29  1  0  0  0  0
 12 30  1  0  0  0  0
 13 14  1  0  0  0  0
 13 31  1  0  0  0  0
 13 32  1  0  0  0  0
 14 15  1  0  0  0  0
 14 33  1  0  0  0  0
 14 34  1  0  0  0  0
 16 17  2  0  0  0  0
 16 35  1  0  0  0  0
M  END
> <s_m_source_file>
AV-unprocessed.smi

> <i_m_source_file_index>
3199

> <i_lp_mmshare_version>
43012

> <i_f3d_flags>
0

> <s_epik_input>
W0NIM11jMVtjSF1bY0hdYyhbY0hdbjEpW0NIMl1bQ0gyXVtOSF1DKD1PKVtDQEBIXTJbQ0gyXVtDSDJdW0NIMl1PMg==

> <s_epik_cmdline>
J2VwaWtfcHl0aG9uJywgJy1waCcsICc3LjAnLCAnLXRuJywgJzgnLCAnLW1hJywgJzIwMCcsICctbWV0YWxfYmluZGluZycsICctaW1hZScsICc8aW5maWxlLm1hZT4nLCAnLW9tYWUnLCAnPG91dGZpbGUubWFlPic=

> <r_epik_Ionization_Penalty>
0.0519155

> <r_epik_Ionization_Penalty_Charging>
0

> <r_epik_Ionization_Penalty_Neutral>
0.0519155

> <r_epik_State_Penalty>
0.0445047

> <r_epik_Charging_Adjusted_Penalty>
0.0445047

> <i_epik_Tot_Q>
0

> <i_epik_Tot_abs_Q>
0

> <r_epik_Metal_State_Penalty>
0.0408967

> <b_epik_Metal_Only>
0

> <s_lp_Force_Field>
OPLS_2005

> <r_lp_Energy>
17.3487

> <b_lp_Chiralities_Consistent>
1

> <s_lp_Variant>
AV-unprocessed.smi:3199-1

> <Gold.Version>
5.8.1

> <Gold.Id.Protein>
6NUR|6NUR_protein|mol2

> <Gold.PLP.Fitness>
46.5626

> <Gold.PLP.PLP>
-44.3054

> <Gold.PLP.part.hbond>
-1.0000

> <Gold.PLP.part.metal>
0.0000

> <Gold.PLP.part.buried>
-3.2275

> <Gold.PLP.part.nonpolar>
-40.1571

> <Gold.PLP.part.repulsive>
0.2410

> <Gold.PLP.ligand.clash>
0.0000

> <Gold.PLP.ligand.torsion>
0.3796

> <Gold.PLP.Chemscore.Hbond>
1.0000

> <Gold.PLP.Chemscore.CHOScore>
0.0000

> <Gold.PLP.Chemscore.Metal>
0.0000

> <Gold.Chemscore.Hbonds>
donor molecule, donor type, donor heavy atom, donor atom, acceptor molecule, acceptor atom, score
      P1  H  7997  8008       L1    15  0.96

> <Gold.PLP.Chemscore.Internal.Correction>
0.0164

> <Gold.Rescore>
     Score         DG    S(hbond)    S(metal)    S(lipo)     H(rot)  DE(clash)    DE(int)     intcor
     18.17     -19.17       0.97        0.00     121.72       1.49       0.54       0.46       ----

> <Gold.Chemscore.Fitness>
18.1689

> <Gold.Chemscore.DG>
-19.1653

> <Gold.Chemscore.ZeroCoef>
-5.4800

> <Gold.Chemscore.Hbond>
0.9723

> <Gold.Chemscore.Metal>
0.0000

> <Gold.Chemscore.Lipo>
121.7247

> <Gold.Chemscore.Internal_Hbond>
0.0000

> <Gold.Chemscore.DEClash>
0.5366

> <Gold.Chemscore.DEInternal>
0.4597

> <Gold.Chemscore.Rot>
1.4859

> <Gold.Chemscore.Internal.Correction>
   9.000000E+99

> <Gold.Chemscore.Hbonds>
donor molecule, donor type, donor heavy atom, donor atom, acceptor molecule, acceptor atom, score
      P1  H  7997  8008       L1    15  0.84

> <Gold.Chemscore.Hbond.Weighted>
-3.2474

> <Gold.Chemscore.Metal.Weighted>
-0.0000

> <Gold.Chemscore.Lipo.Weighted>
-14.2418

> <Gold.Chemscore.Internal_Hbond.Weighted>
0.0000

> <Gold.Chemscore.DEClash.Weighted>
0.5366

> <Gold.Chemscore.DEInternal.Weighted>
0.4597

> <Gold.Chemscore.Rot.Weighted>
3.8039

> <Gold.Chemscore.Internal.Correction.Weighted>
   9.000000E+99

> <Gold.Protein.RotatedTorsions>
[ 6907 6896 6895 6894 ] final  105.69 input  -60.11 | X-H torsion
[ 7974 7965 7964 7962 ] final   84.73 input  175.53 | X-H torsion
[ 8008 7997 7996 7995 ] final  -41.24 input   59.86 | X-H torsion
[ 10167 10162 10161 10158 ] final -159.29 input  -65.29 | X-H torsion
[ 10718 10713 10712 10709 ] final -111.77 input   66.30 | X-H torsion
[ 10763 10752 10751 10750 ] final -146.81 input  -60.55 | X-H torsion
[ 11005 11000 10999 10996 ] final  105.52 input  -57.11 | X-H torsion

> <Gold.Protein.ActiveResidues>
 VAL166  LYS551  ARG553  GLY616  TRP617  ASP618  TYR619  PRO620  LYS621  CYS622 
 ASP623  PHE694  ASN695  SER759  ASP760  ASP761  ALA762  ILE779  LEU786  VAL792 
 PHE793  MET794  SER795  GLU796  ALA797  LYS798  CYS799  TRP800  GLU811  SER814 

> <Gold.Protein.RotatedAtoms>
  152.5221  133.9491  159.7663 H   0  0  0  0  0  0  0  0  0  0  0  0  # atno 6907 bound_to 6896
  150.9805  133.6242  159.2730 H   0  0  0  0  0  0  0  0  0  0  0  0  # atno 6908 bound_to 6896
  151.3421  135.0872  159.9427 H   0  0  0  0  0  0  0  0  0  0  0  0  # atno 6909 bound_to 6896
  145.5949  139.2343  143.2278 H   0  0  0  0  0  0  0  0  0  0  0  0  # atno 7974 bound_to 7965
  154.4005  140.1504  156.3159 H   0  0  0  0  0  0  0  0  0  0  0  0  # atno 8008 bound_to 7997
  155.8573  140.3455  155.5712 H   0  0  0  0  0  0  0  0  0  0  0  0  # atno 8009 bound_to 7997
  155.7918  140.0858  157.1995 H   0  0  0  0  0  0  0  0  0  0  0  0  # atno 8010 bound_to 7997
  139.6627  143.9885  152.2235 H   0  0  0  0  0  0  0  0  0  0  0  0  # atno 10167 bound_to 10162
  156.0666  130.5884  150.8418 H   0  0  0  0  0  0  0  0  0  0  0  0  # atno 10718 bound_to 10713
  154.8317  135.3376  154.6720 H   0  0  0  0  0  0  0  0  0  0  0  0  # atno 10763 bound_to 10752
  153.7339  135.6950  153.4987 H   0  0  0  0  0  0  0  0  0  0  0  0  # atno 10764 bound_to 10752
  153.2292  135.4422  155.0528 H   0  0  0  0  0  0  0  0  0  0  0  0  # atno 10765 bound_to 10752
  139.8803  134.9338  156.5527 H   0  0  0  0  0  0  0  0  0  0  0  0  # atno 11005 bound_to 11000
  146.1619  140.6775  142.9273 LP  0  0  0  0  0  0  0  0  0  0  0  0  # atno 17320 bound_to 7965
  144.7335  140.4741  143.6920 LP  0  0  0  0  0  0  0  0  0  0  0  0  # atno 17321 bound_to 7965
  139.9628  144.6546  150.8063 LP  0  0  0  0  0  0  0  0  0  0  0  0  # atno 17342 bound_to 10162
  140.7586  143.3112  151.2842 LP  0  0  0  0  0  0  0  0  0  0  0  0  # atno 17343 bound_to 10162
  157.5711  131.0946  150.9416 LP  0  0  0  0  0  0  0  0  0  0  0  0  # atno 17370 bound_to 10713
  156.9631  130.5463  149.5287 LP  0  0  0  0  0  0  0  0  0  0  0  0  # atno 17371 bound_to 10713
  140.8228  133.8340  155.8911 LP  0  0  0  0  0  0  0  0  0  0  0  0  # atno 17394 bound_to 11000
  140.9402  134.1910  157.4803 LP  0  0  0  0  0  0  0  0  0  0  0  0  # atno 17395 bound_to 11000

$$$$
