AV-unprocessed.smi:1196|AV-procd|sdf|5000|dock8
  -GOLD-   22720 4 13D 1   1.00000     0.00000
 Structure written by MMmdl.
 36 37  0  0  0  0  0  0  0  0  2 V2000
  154.4891  140.4300  160.5277 C   0  0  0  0  0  0  0  0  0  0  0  0
  153.5259  141.3626  159.7772 C   0  0  2  0  0  0  0  0  0  0  0  0
  152.9968  142.4821  160.6949 C   0  0  0  0  0  0  0  0  0  0  0  0
  152.2163  143.4699  159.9712 N   0  0  0  0  0  0  0  0  0  0  0  0
  151.7104  144.6678  160.4309 C   0  0  0  0  0  0  0  0  0  0  0  0
  151.0404  145.2505  159.3938 C   0  0  0  0  0  0  0  0  0  0  0  0
  151.1953  144.3213  158.3274 C   0  0  0  0  0  0  0  0  0  0  0  0
  151.9016  143.2578  158.6751 N   0  0  0  0  0  0  0  0  0  0  0  0
  152.4096  140.5913  159.2335 N   0  0  0  0  0  0  0  0  0  0  0  0
  152.4929  139.6883  158.2444 C   0  0  0  0  0  0  0  0  0  0  0  0
  153.5474  139.3998  157.6779 O   0  0  0  0  0  0  0  0  0  0  0  0
  151.1830  139.0154  157.8284 C   0  0  0  0  0  0  0  0  0  0  0  0
  150.6518  139.5424  156.4817 C   0  0  0  0  0  0  0  0  0  0  0  0
  150.2721  141.0374  156.5288 C   0  0  2  0  0  0  0  0  0  0  0  0
  149.5150  141.3581  157.7269 N   0  5  0  0  0  0  0  0  0  0  0  0
  148.3191  141.8723  157.3543 C   0  0  0  0  0  0  0  0  0  0  0  0
  147.4122  142.2697  158.0822 O   0  0  0  0  0  0  0  0  0  0  0  0
  148.2122  141.9042  156.0219 N   0  0  0  0  0  0  0  0  0  0  0  0
  149.2997  141.4214  155.4297 C   0  0  0  0  0  0  0  0  0  0  0  0
  149.5024  141.3013  154.2223 O   0  0  0  0  0  0  0  0  0  0  0  0
  155.3376  140.9847  160.9293 H   0  0  0  0  0  0  0  0  0  0  0  0
  154.8864  139.6579  159.8680 H   0  0  0  0  0  0  0  0  0  0  0  0
  153.9916  139.9328  161.3610 H   0  0  0  0  0  0  0  0  0  0  0  0
  154.0765  141.8281  158.9574 H   0  0  0  0  0  0  0  0  0  0  0  0
  152.3815  142.0658  161.4939 H   0  0  0  0  0  0  0  0  0  0  0  0
  153.8281  142.9964  161.1795 H   0  0  0  0  0  0  0  0  0  0  0  0
  151.8647  144.9999  161.4468 H   0  0  0  0  0  0  0  0  0  0  0  0
  150.5179  146.1955  159.3970 H   0  0  0  0  0  0  0  0  0  0  0  0
  150.8186  144.3879  157.3176 H   0  0  0  0  0  0  0  0  0  0  0  0
  151.5002  140.7578  159.6395 H   0  0  0  0  0  0  0  0  0  0  0  0
  151.3304  137.9357  157.7726 H   0  0  0  0  0  0  0  0  0  0  0  0
  150.4447  139.1873  158.6119 H   0  0  0  0  0  0  0  0  0  0  0  0
  151.4178  139.3948  155.7184 H   0  0  0  0  0  0  0  0  0  0  0  0
  149.7926  138.9481  156.1639 H   0  0  0  0  0  0  0  0  0  0  0  0
  151.1666  141.6529  156.4230 H   0  0  0  0  0  0  0  0  0  0  0  0
  147.4002  142.2429  155.5281 H   0  0  0  0  0  0  0  0  0  0  0  0
  1  2  1  0  0  0  0
  1 21  1  0  0  0  0
  1 22  1  0  0  0  0
  1 23  1  0  0  0  0
  2  3  1  0  0  0  0
  2  9  1  0  0  0  0
  2 24  1  0  0  0  0
  3  4  1  0  0  0  0
  3 25  1  0  0  0  0
  3 26  1  0  0  0  0
  4  8  1  0  0  0  0
  4  5  1  0  0  0  0
  5  6  2  0  0  0  0
  5 27  1  0  0  0  0
  6  7  1  0  0  0  0
  6 28  1  0  0  0  0
  7  8  2  0  0  0  0
  7 29  1  0  0  0  0
  9 10  1  0  0  0  0
  9 30  1  0  0  0  0
 10 11  2  0  0  0  0
 10 12  1  0  0  0  0
 12 13  1  0  0  0  0
 12 31  1  0  0  0  0
 12 32  1  0  0  0  0
 13 14  1  0  0  0  0
 13 33  1  0  0  0  0
 13 34  1  0  0  0  0
 14 19  1  0  0  0  0
 14 15  1  0  0  0  0
 14 35  1  0  0  0  0
 15 16  1  0  0  0  0
 16 17  2  0  0  0  0
 16 18  1  0  0  0  0
 18 19  1  0  0  0  0
 18 36  1  0  0  0  0
 19 20  2  0  0  0  0
M  CHG  1  15  -1
M  END
> <s_m_source_file>
AV-unprocessed.smi

> <i_m_source_file_index>
1196

> <i_lp_mmshare_version>
43012

> <i_f3d_flags>
0

> <s_epik_input>
bjFbY0hdW2NIXVtjSF1uMVtDSDJdW0NAQEhdKFtDSDNdKVtOSF1DKD1PKVtDSDJdW0NIMl1bQ0BASF0yW05IXUMoPU8pW05IXUMyPU8=

> <s_epik_cmdline>
J2VwaWtfcHl0aG9uJywgJy1waCcsICc3LjAnLCAnLXRuJywgJzgnLCAnLW1hJywgJzIwMCcsICctbWV0YWxfYmluZGluZycsICctaW1hZScsICc8aW5maWxlLm1hZT4nLCAnLW9tYWUnLCAnPG91dGZpbGUubWFlPic=

> <r_lp_tautomer_probability>
1

> <r_epik_Ionization_Penalty>
5.79547

> <r_epik_Ionization_Penalty_Charging>
5.79516

> <r_epik_Ionization_Penalty_Neutral>
0.000313087

> <r_epik_State_Penalty>
5.80096

> <r_epik_Charging_Adjusted_Penalty>
11.5961

> <i_epik_Tot_Q>
-1

> <i_epik_Tot_abs_Q>
1

> <r_epik_Metal_State_Penalty>
2.14443

> <b_epik_Metal_Only>
1

> <s_lp_Force_Field>
OPLS_2005

> <r_lp_Energy>
13.4847

> <b_lp_Chiralities_Consistent>
1

> <s_lp_Variant>
AV-unprocessed.smi:1196-5

> <Gold.Version>
5.8.1

> <Gold.Id.Protein>
6NUR|6NUR_protein|mol2

> <Gold.PLP.Fitness>
47.6270

> <Gold.PLP.PLP>
-39.5427

> <Gold.PLP.part.hbond>
-3.8967

> <Gold.PLP.part.metal>
0.0000

> <Gold.PLP.part.buried>
-3.7342

> <Gold.PLP.part.nonpolar>
-32.5148

> <Gold.PLP.part.repulsive>
0.8626

> <Gold.PLP.ligand.clash>
0.0000

> <Gold.PLP.ligand.torsion>
0.4998

> <Gold.PLP.Chemscore.Hbond>
2.0083

> <Gold.PLP.Chemscore.CHOScore>
1.0000

> <Gold.PLP.Chemscore.Metal>
0.0000

> <Gold.Chemscore.Hbonds>
donor molecule, donor type, donor heavy atom, donor atom, acceptor molecule, acceptor atom, score
      P1  H  7989  7998       L1    20  0.16
      P1  H  7997  8009       L1    11  0.80
      P1  H  8011  8017       L1    20  0.39
      L1  C     7    29       P1  8028  0.99

> <Gold.PLP.Chemscore.Internal.Correction>
0.0589

> <Gold.Rescore>
     Score         DG    S(hbond)    S(metal)    S(lipo)     H(rot)  DE(clash)    DE(int)     intcor
     13.15     -13.80       1.86        0.00      81.27       2.89       0.12       0.53       ----

> <Gold.Chemscore.Fitness>
13.1506

> <Gold.Chemscore.DG>
-13.8017

> <Gold.Chemscore.ZeroCoef>
-5.4800

> <Gold.Chemscore.Hbond>
1.8634

> <Gold.Chemscore.Metal>
0.0000

> <Gold.Chemscore.Lipo>
81.2665

> <Gold.Chemscore.Internal_Hbond>
0.0000

> <Gold.Chemscore.DEClash>
0.1241

> <Gold.Chemscore.DEInternal>
0.5270

> <Gold.Chemscore.Rot>
2.8946

> <Gold.Chemscore.Internal.Correction>
   9.000000E+99

> <Gold.Chemscore.Hbonds>
donor molecule, donor type, donor heavy atom, donor atom, acceptor molecule, acceptor atom, score
      P1  H  7989  7998       L1    20  0.15
      P1  H  7997  8009       L1    11  0.76
      P1  H  8011  8017       L1    20  0.39

> <Gold.Chemscore.Hbond.Weighted>
-6.2237

> <Gold.Chemscore.Metal.Weighted>
-0.0000

> <Gold.Chemscore.Lipo.Weighted>
-9.5082

> <Gold.Chemscore.Internal_Hbond.Weighted>
0.0000

> <Gold.Chemscore.DEClash.Weighted>
0.1241

> <Gold.Chemscore.DEInternal.Weighted>
0.5270

> <Gold.Chemscore.Rot.Weighted>
7.4101

> <Gold.Chemscore.Internal.Correction.Weighted>
   9.000000E+99

> <Gold.Protein.RotatedTorsions>
[ 6907 6896 6895 6894 ] final  -74.73 input  -60.11 | X-H torsion
[ 7974 7965 7964 7962 ] final   92.94 input  175.53 | X-H torsion
[ 8008 7997 7996 7995 ] final  141.22 input   59.86 | X-H torsion
[ 10167 10162 10161 10158 ] final  -26.73 input  -65.29 | X-H torsion
[ 10718 10713 10712 10709 ] final -157.49 input   66.30 | X-H torsion
[ 10763 10752 10751 10750 ] final -166.92 input  -60.55 | X-H torsion
[ 11005 11000 10999 10996 ] final   -7.58 input  -57.11 | X-H torsion

> <Gold.Protein.ActiveResidues>
 VAL166  LYS551  ARG553  GLY616  TRP617  ASP618  TYR619  PRO620  LYS621  CYS622 
 ASP623  PHE694  ASN695  SER759  ASP760  ASP761  ALA762  ILE779  LEU786  VAL792 
 PHE793  MET794  SER795  GLU796  ALA797  LYS798  CYS799  TRP800  GLU811  SER814 

> <Gold.Protein.RotatedAtoms>
  150.7083  134.4826  159.5477 H   0  0  0  0  0  0  0  0  0  0  0  0  # atno 6907 bound_to 6896
  152.2460  134.8178  160.0462 H   0  0  0  0  0  0  0  0  0  0  0  0  # atno 6908 bound_to 6896
  151.8942  133.3488  159.3845 H   0  0  0  0  0  0  0  0  0  0  0  0  # atno 6909 bound_to 6896
  145.4855  139.2277  143.2859 H   0  0  0  0  0  0  0  0  0  0  0  0  # atno 7974 bound_to 7965
  156.2969  140.2321  156.4529 H   0  0  0  0  0  0  0  0  0  0  0  0  # atno 8008 bound_to 7997
  154.8086  140.0444  157.1346 H   0  0  0  0  0  0  0  0  0  0  0  0  # atno 8009 bound_to 7997
  154.9450  140.3034  155.5106 H   0  0  0  0  0  0  0  0  0  0  0  0  # atno 8010 bound_to 7997
  140.7281  143.4153  151.1039 H   0  0  0  0  0  0  0  0  0  0  0  0  # atno 10167 bound_to 10162
  156.5410  130.8563  151.2749 H   0  0  0  0  0  0  0  0  0  0  0  0  # atno 10718 bound_to 10713
  154.6785  135.2950  154.9646 H   0  0  0  0  0  0  0  0  0  0  0  0  # atno 10763 bound_to 10752
  154.0649  135.6626  153.4820 H   0  0  0  0  0  0  0  0  0  0  0  0  # atno 10764 bound_to 10752
  153.0532  135.5161  154.7816 H   0  0  0  0  0  0  0  0  0  0  0  0  # atno 10765 bound_to 10752
  140.7143  133.8882  155.8773 H   0  0  0  0  0  0  0  0  0  0  0  0  # atno 11005 bound_to 11000
  146.2315  140.5645  142.8973 LP  0  0  0  0  0  0  0  0  0  0  0  0  # atno 17320 bound_to 7965
  144.7864  140.5944  143.6571 LP  0  0  0  0  0  0  0  0  0  0  0  0  # atno 17321 bound_to 7965
  139.7792  143.8381  152.3134 LP  0  0  0  0  0  0  0  0  0  0  0  0  # atno 17342 bound_to 10162
  139.8326  144.7247  150.9431 LP  0  0  0  0  0  0  0  0  0  0  0  0  # atno 17343 bound_to 10162
  157.7405  130.9852  150.2383 LP  0  0  0  0  0  0  0  0  0  0  0  0  # atno 17370 bound_to 10713
  156.2971  130.3753  149.7785 LP  0  0  0  0  0  0  0  0  0  0  0  0  # atno 17371 bound_to 10713
  141.0058  134.1088  157.4272 LP  0  0  0  0  0  0  0  0  0  0  0  0  # atno 17394 bound_to 11000
  139.8864  135.0081  156.6495 LP  0  0  0  0  0  0  0  0  0  0  0  0  # atno 17395 bound_to 11000

$$$$
