AV-unprocessed.smi:229|AV-procd|sdf|1749|dock2
  -GOLD-   2262020263D 1   1.00000     0.00000
 Structure written by MMmdl.
 58 62  0  0  0  0  0  0  0  0  1 V2000
  147.6128  135.2729  159.8475 C   0  0  0  0  0  0  0  0  0  0  0  0
  147.2577  134.4661  158.5913 C   0  0  0  0  0  0  0  0  0  0  0  0
  148.3776  134.4344  157.5382 C   0  0  2  0  0  0  0  0  0  0  0  0
  149.1169  135.7784  157.4079 C   0  0  0  0  0  0  0  0  0  0  0  0
  150.0803  135.7140  156.3158 N   0  0  0  0  0  0  0  0  0  0  0  0
  151.0087  136.7042  156.3123 C   0  0  0  0  0  0  0  0  0  0  0  0
  151.6297  137.0515  155.1529 N   0  0  0  0  0  0  0  0  0  0  0  0
  152.5327  138.0368  155.1382 C   0  0  0  0  0  0  0  0  0  0  0  0
  152.9599  138.7928  156.1513 N   0  0  0  0  0  0  0  0  0  0  0  0
  152.3497  138.4421  157.3190 C   0  0  0  0  0  0  0  0  0  0  0  0
  151.3742  137.4188  157.4883 C   0  0  0  0  0  0  0  0  0  0  0  0
  150.9942  137.3456  158.8239 N   0  0  0  0  0  0  0  0  0  0  0  0
  151.6933  138.2809  159.4067 C   0  0  0  0  0  0  0  0  0  0  0  0
  152.5310  138.9894  158.5760 N   0  0  0  0  0  0  0  0  0  0  0  0
  153.4111  140.0815  158.9521 C   0  0  0  0  0  0  0  0  0  0  0  0
  153.3192  140.4174  160.4538 C   0  0  1  0  0  0  0  0  0  0  0  0
  154.2785  139.6545  161.1618 O   0  0  0  0  0  0  0  0  0  0  0  0
  153.5702  141.9101  160.7345 C   0  0  2  0  0  0  0  0  0  0  0  0
  153.1691  142.3675  162.1358 C   0  0  0  0  0  0  0  0  0  0  0  0
  153.0244  143.8670  161.9638 C   0  0  0  0  0  0  0  0  0  0  0  0
  152.6764  144.0279  160.4810 C   0  0  0  0  0  0  0  0  0  0  0  0
  152.7389  142.7216  159.9181 O   0  0  0  0  0  0  0  0  0  0  0  0
  149.4691  135.3376  155.0450 C   0  0  0  0  0  0  0  0  0  0  0  0
  148.6839  134.0127  155.1839 C   0  0  1  0  0  0  0  0  0  0  0  0
  147.8648  133.7275  153.9293 C   0  0  0  0  0  0  0  0  0  0  0  0
  148.7717  132.8127  153.1206 C   0  0  0  0  0  0  0  0  0  0  0  0
  149.3225  131.9741  154.1187 O   0  0  0  0  0  0  0  0  0  0  0  0
  149.6000  132.7687  155.2663 C   0  0  0  0  0  0  0  0  0  0  0  0
  147.7745  134.1097  156.2842 O   0  0  0  0  0  0  0  0  0  0  0  0
  146.8121  135.2102  160.5846 H   0  0  0  0  0  0  0  0  0  0  0  0
  147.7644  136.3276  159.6186 H   0  0  0  0  0  0  0  0  0  0  0  0
  148.5230  134.8950  160.3136 H   0  0  0  0  0  0  0  0  0  0  0  0
  147.0312  133.4431  158.8934 H   0  0  0  0  0  0  0  0  0  0  0  0
  146.3426  134.8604  158.1477 H   0  0  0  0  0  0  0  0  0  0  0  0
  149.0893  133.6562  157.8152 H   0  0  0  0  0  0  0  0  0  0  0  0
  148.4065  136.5810  157.2048 H   0  0  0  0  0  0  0  0  0  0  0  0
  149.6065  136.0222  158.3492 H   0  0  0  0  0  0  0  0  0  0  0  0
  152.9741  138.2513  154.1762 H   0  0  0  0  0  0  0  0  0  0  0  0
  151.6134  138.4846  160.4645 H   0  0  0  0  0  0  0  0  0  0  0  0
  154.4336  139.8144  158.6812 H   0  0  0  0  0  0  0  0  0  0  0  0
  153.1470  140.9525  158.3511 H   0  0  0  0  0  0  0  0  0  0  0  0
  152.3309  140.1407  160.8241 H   0  0  0  0  0  0  0  0  0  0  0  0
  154.7015  139.0677  160.5536 H   0  0  0  0  0  0  0  0  0  0  0  0
  154.6134  142.1686  160.5424 H   0  0  0  0  0  0  0  0  0  0  0  0
  152.2075  141.9336  162.4143 H   0  0  0  0  0  0  0  0  0  0  0  0
  153.8991  142.0970  162.8991 H   0  0  0  0  0  0  0  0  0  0  0  0
  152.2626  144.2850  162.6224 H   0  0  0  0  0  0  0  0  0  0  0  0
  153.9695  144.3661  162.1817 H   0  0  0  0  0  0  0  0  0  0  0  0
  151.6801  144.4470  160.3366 H   0  0  0  0  0  0  0  0  0  0  0  0
  153.3942  144.6809  159.9832 H   0  0  0  0  0  0  0  0  0  0  0  0
  148.7942  136.1373  154.7358 H   0  0  0  0  0  0  0  0  0  0  0  0
  150.2309  135.2429  154.2698 H   0  0  0  0  0  0  0  0  0  0  0  0
  146.9553  133.1837  154.1895 H   0  0  0  0  0  0  0  0  0  0  0  0
  147.5680  134.6241  153.3841 H   0  0  0  0  0  0  0  0  0  0  0  0
  148.2319  132.2404  152.3659 H   0  0  0  0  0  0  0  0  0  0  0  0
  149.5658  133.3770  152.6290 H   0  0  0  0  0  0  0  0  0  0  0  0
  150.6543  133.0478  155.2656 H   0  0  0  0  0  0  0  0  0  0  0  0
  149.4189  132.1662  156.1560 H   0  0  0  0  0  0  0  0  0  0  0  0
  1  2  1  0  0  0  0
  1 30  1  0  0  0  0
  1 31  1  0  0  0  0
  1 32  1  0  0  0  0
  2  3  1  0  0  0  0
  2 33  1  0  0  0  0
  2 34  1  0  0  0  0
  3 29  1  0  0  0  0
  3  4  1  0  0  0  0
  3 35  1  0  0  0  0
  4  5  1  0  0  0  0
  4 36  1  0  0  0  0
  4 37  1  0  0  0  0
  5  6  1  0  0  0  0
  5 23  1  0  0  0  0
  6 11  1  0  0  0  0
  6  7  2  0  0  0  0
  7  8  1  0  0  0  0
  8  9  2  0  0  0  0
  8 38  1  0  0  0  0
  9 10  1  0  0  0  0
 10 14  1  0  0  0  0
 10 11  2  0  0  0  0
 11 12  1  0  0  0  0
 12 13  2  0  0  0  0
 13 14  1  0  0  0  0
 13 39  1  0  0  0  0
 14 15  1  0  0  0  0
 15 16  1  0  0  0  0
 15 40  1  0  0  0  0
 15 41  1  0  0  0  0
 16 17  1  0  0  0  0
 16 18  1  0  0  0  0
 16 42  1  0  0  0  0
 17 43  1  0  0  0  0
 18 22  1  0  0  0  0
 18 19  1  0  0  0  0
 18 44  1  0  0  0  0
 19 20  1  0  0  0  0
 19 45  1  0  0  0  0
 19 46  1  0  0  0  0
 20 21  1  0  0  0  0
 20 47  1  0  0  0  0
 20 48  1  0  0  0  0
 21 22  1  0  0  0  0
 21 49  1  0  0  0  0
 21 50  1  0  0  0  0
 23 24  1  0  0  0  0
 23 51  1  0  0  0  0
 23 52  1  0  0  0  0
 24 28  1  0  0  0  0
 24 25  1  0  0  0  0
 24 29  1  0  0  0  0
 25 26  1  0  0  0  0
 25 53  1  0  0  0  0
 25 54  1  0  0  0  0
 26 27  1  0  0  0  0
 26 55  1  0  0  0  0
 26 56  1  0  0  0  0
 27 28  1  0  0  0  0
 28 57  1  0  0  0  0
 28 58  1  0  0  0  0
M  END
> <s_m_source_file>
AV-unprocessed.smi

> <i_m_source_file_index>
229

> <i_lp_mmshare_version>
43012

> <i_f3d_flags>
0

> <s_epik_input>
W0NIMl0xT1tDSDJdW0NIMl1bQ0BdMTJbQ0gyXU4oW0NIMl1bQ0BIXShPMilbQ0gyXVtDSDNdKWMobltjSF1uMyljKGMzNCluW2NIXW40W0NIMl1bQ0BIXShbT0hdKVtDQEBIXTVbQ0gyXVtDSDJdW0NIMl1PNQ==

> <s_epik_cmdline>
J2VwaWtfcHl0aG9uJywgJy1waCcsICc3LjAnLCAnLXRuJywgJzgnLCAnLW1hJywgJzIwMCcsICctbWV0YWxfYmluZGluZycsICctaW1hZScsICc8aW5maWxlLm1hZT4nLCAnLW9tYWUnLCAnPG91dGZpbGUubWFlPic=

> <r_lp_tautomer_probability>
1

> <r_epik_Ionization_Penalty>
0.00318402

> <r_epik_Ionization_Penalty_Charging>
0

> <r_epik_Ionization_Penalty_Neutral>
0.00318402

> <r_epik_State_Penalty>
0.00215642

> <r_epik_Charging_Adjusted_Penalty>
0.00215642

> <i_epik_Tot_Q>
0

> <i_epik_Tot_abs_Q>
0

> <r_epik_Metal_State_Penalty>
-0

> <b_epik_Metal_Only>
0

> <s_lp_Force_Field>
OPLS_2005

> <r_lp_Energy>
54.6587

> <b_lp_Chiralities_Consistent>
1

> <s_lp_Variant>
AV-unprocessed.smi:229-3

> <Gold.Version>
5.8.1

> <Gold.Id.Protein>
6NUR|6NUR_protein|mol2

> <Gold.PLP.Fitness>
47.2910

> <Gold.PLP.PLP>
-42.5318

> <Gold.PLP.part.hbond>
-2.4700

> <Gold.PLP.part.metal>
0.0000

> <Gold.PLP.part.buried>
-5.9649

> <Gold.PLP.part.nonpolar>
-33.2459

> <Gold.PLP.part.repulsive>
0.1562

> <Gold.PLP.ligand.clash>
0.0000

> <Gold.PLP.ligand.torsion>
1.3223

> <Gold.PLP.Chemscore.Hbond>
2.3369

> <Gold.PLP.Chemscore.CHOScore>
0.0000

> <Gold.PLP.Chemscore.Metal>
0.0000

> <Gold.Chemscore.Hbonds>
donor molecule, donor type, donor heavy atom, donor atom, acceptor molecule, acceptor atom, score
      P1  H  7997  8008       L1     9  1.00
      P1  H 10752 10763       L1     7  0.66

> <Gold.PLP.Chemscore.Internal.Correction>
0.3932

> <Gold.Rescore>
     Score         DG    S(hbond)    S(metal)    S(lipo)     H(rot)  DE(clash)    DE(int)     intcor
     13.82     -16.72       1.57        0.00     105.09       2.46       0.28       2.61       ----

> <Gold.Chemscore.Fitness>
13.8233

> <Gold.Chemscore.DG>
-16.7180

> <Gold.Chemscore.ZeroCoef>
-5.4800

> <Gold.Chemscore.Hbond>
1.5681

> <Gold.Chemscore.Metal>
0.0000

> <Gold.Chemscore.Lipo>
105.0947

> <Gold.Chemscore.Internal_Hbond>
0.0000

> <Gold.Chemscore.DEClash>
0.2806

> <Gold.Chemscore.DEInternal>
2.6142

> <Gold.Chemscore.Rot>
2.4591

> <Gold.Chemscore.Internal.Correction>
   9.000000E+99

> <Gold.Chemscore.Hbonds>
donor molecule, donor type, donor heavy atom, donor atom, acceptor molecule, acceptor atom, score
      P1  H  6896  6909       L1    12  0.01
      P1  H  7997  8008       L1     9  0.92
      P1  H 10752 10763       L1     7  0.06

> <Gold.Chemscore.Hbond.Weighted>
-5.2373

> <Gold.Chemscore.Metal.Weighted>
-0.0000

> <Gold.Chemscore.Lipo.Weighted>
-12.2961

> <Gold.Chemscore.Internal_Hbond.Weighted>
0.0000

> <Gold.Chemscore.DEClash.Weighted>
0.2806

> <Gold.Chemscore.DEInternal.Weighted>
2.6142

> <Gold.Chemscore.Rot.Weighted>
6.2953

> <Gold.Chemscore.Internal.Correction.Weighted>
   9.000000E+99

> <Gold.Protein.RotatedTorsions>
[ 6907 6896 6895 6894 ] final  117.03 input  -60.11 | X-H torsion
[ 7974 7965 7964 7962 ] final  -96.62 input  175.53 | X-H torsion
[ 8008 7997 7996 7995 ] final  -27.56 input   59.86 | X-H torsion
[ 10167 10162 10161 10158 ] final  -69.50 input  -65.29 | X-H torsion
[ 10718 10713 10712 10709 ] final   44.56 input   66.30 | X-H torsion
[ 10763 10752 10751 10750 ] final   49.63 input  -60.55 | X-H torsion
[ 11005 11000 10999 10996 ] final   42.09 input  -57.11 | X-H torsion

> <Gold.Protein.ActiveResidues>
 VAL166  LYS551  ARG553  GLY616  TRP617  ASP618  TYR619  PRO620  LYS621  CYS622 
 ASP623  PHE694  ASN695  SER759  ASP760  ASP761  ALA762  ILE779  LEU786  VAL792 
 PHE793  MET794  SER795  GLU796  ALA797  LYS798  CYS799  TRP800  GLU811  SER814 

> <Gold.Protein.RotatedAtoms>
  152.4639  133.7880  159.6886 H   0  0  0  0  0  0  0  0  0  0  0  0  # atno 6907 bound_to 6896
  150.8594  133.7656  159.3004 H   0  0  0  0  0  0  0  0  0  0  0  0  # atno 6908 bound_to 6896
  151.5226  135.1070  159.9934 H   0  0  0  0  0  0  0  0  0  0  0  0  # atno 6909 bound_to 6896
  145.3445  140.9466  143.2589 H   0  0  0  0  0  0  0  0  0  0  0  0  # atno 7974 bound_to 7965
  154.4372  140.1869  156.0951 H   0  0  0  0  0  0  0  0  0  0  0  0  # atno 8008 bound_to 7997
  156.0336  140.3328  155.7140 H   0  0  0  0  0  0  0  0  0  0  0  0  # atno 8009 bound_to 7997
  155.5804  140.0621  157.2775 H   0  0  0  0  0  0  0  0  0  0  0  0  # atno 8010 bound_to 7997
  140.5426  143.2314  151.7061 H   0  0  0  0  0  0  0  0  0  0  0  0  # atno 10167 bound_to 10162
  157.4281  130.8009  149.7578 H   0  0  0  0  0  0  0  0  0  0  0  0  # atno 10718 bound_to 10713
  152.9786  135.5905  154.4121 H   0  0  0  0  0  0  0  0  0  0  0  0  # atno 10763 bound_to 10752
  154.3755  135.2767  155.2243 H   0  0  0  0  0  0  0  0  0  0  0  0  # atno 10764 bound_to 10752
  154.4180  135.6066  153.6047 H   0  0  0  0  0  0  0  0  0  0  0  0  # atno 10765 bound_to 10752
  140.1772  134.4148  155.8221 H   0  0  0  0  0  0  0  0  0  0  0  0  # atno 11005 bound_to 11000
  144.8765  139.4964  143.6743 LP  0  0  0  0  0  0  0  0  0  0  0  0  # atno 17320 bound_to 7965
  146.2994  139.7378  142.9103 LP  0  0  0  0  0  0  0  0  0  0  0  0  # atno 17321 bound_to 7965
  139.4994  144.3945  152.0245 LP  0  0  0  0  0  0  0  0  0  0  0  0  # atno 17342 bound_to 10162
  140.3055  144.3597  150.6048 LP  0  0  0  0  0  0  0  0  0  0  0  0  # atno 17343 bound_to 10162
  155.9904  130.3945  150.3032 LP  0  0  0  0  0  0  0  0  0  0  0  0  # atno 17370 bound_to 10713
  157.1186  131.0240  151.3019 LP  0  0  0  0  0  0  0  0  0  0  0  0  # atno 17371 bound_to 10713
  141.2221  133.6983  156.7868 LP  0  0  0  0  0  0  0  0  0  0  0  0  # atno 17394 bound_to 11000
  140.2308  134.8687  157.3475 LP  0  0  0  0  0  0  0  0  0  0  0  0  # atno 17395 bound_to 11000

$$$$
