AV-unprocessed.smi:1672|AV-procd|sdf|6704|dock6
  -GOLD-   22720 7443D 1   1.00000     0.00000
 Structure written by MMmdl.
 48 50  0  0  0  0  0  0  0  0  2 V2000
  144.5982  132.1162  151.3038 C   0  0  0  0  0  0  0  0  0  0  0  0
  146.0029  132.6735  151.0135 C   0  0  2  0  0  0  0  0  0  0  0  0
  146.7196  133.1722  152.2813 C   0  0  0  0  0  0  0  0  0  0  0  0
  146.1432  134.5059  152.7894 C   0  0  0  0  0  0  0  0  0  0  0  0
  146.1841  135.5462  151.7277 N   0  3  2  0  0  0  0  0  0  0  0  0
  145.7628  136.8900  152.2015 C   0  0  0  0  0  0  0  0  0  0  0  0
  146.9570  137.8067  152.5337 C   0  0  1  0  0  0  0  0  0  0  0  0
  147.2355  138.6158  151.4074 O   0  0  0  0  0  0  0  0  0  0  0  0
  146.6622  138.7050  153.7513 C   0  0  0  0  0  0  0  0  0  0  0  0
  147.7836  139.5711  154.0915 N   0  0  0  0  0  0  0  0  0  0  0  0
  147.8494  140.9269  154.0599 C   0  0  0  0  0  0  0  0  0  0  0  0
  146.6884  141.7779  153.6446 C   0  0  0  0  0  0  0  0  0  0  0  0
  145.5232  141.5080  154.3934 O   0  0  0  0  0  0  0  0  0  0  0  0
  149.0155  141.4590  154.4268 N   0  0  0  0  0  0  0  0  0  0  0  0
  149.7758  140.3474  154.7327 C   0  0  0  0  0  0  0  0  0  0  0  0
  151.1096  140.2426  155.1875 C   0  0  0  0  0  0  0  0  0  0  0  0
  151.6812  138.9777  155.4377 C   0  0  0  0  0  0  0  0  0  0  0  0
  150.9291  137.8022  155.2374 C   0  0  0  0  0  0  0  0  0  0  0  0
  149.5983  137.8839  154.7841 C   0  0  0  0  0  0  0  0  0  0  0  0
  149.0331  139.1492  154.5353 C   0  0  0  0  0  0  0  0  0  0  0  0
  145.4402  135.1181  150.5150 C   0  0  0  0  0  0  0  0  0  0  0  0
  145.9932  133.7939  149.9576 C   0  0  0  0  0  0  0  0  0  0  0  0
  143.9284  132.8755  151.7063 H   0  0  0  0  0  0  0  0  0  0  0  0
  144.6441  131.3011  152.0266 H   0  0  0  0  0  0  0  0  0  0  0  0
  144.1406  131.7213  150.3963 H   0  0  0  0  0  0  0  0  0  0  0  0
  146.5859  131.8445  150.6095 H   0  0  0  0  0  0  0  0  0  0  0  0
  146.6677  132.4172  153.0666 H   0  0  0  0  0  0  0  0  0  0  0  0
  147.7800  133.3070  152.0628 H   0  0  0  0  0  0  0  0  0  0  0  0
  145.1167  134.3714  153.1327 H   0  0  0  0  0  0  0  0  0  0  0  0
  146.7196  134.8247  153.6566 H   0  0  0  0  0  0  0  0  0  0  0  0
  145.1600  137.3785  151.4339 H   0  0  0  0  0  0  0  0  0  0  0  0
  145.1126  136.7766  153.0703 H   0  0  0  0  0  0  0  0  0  0  0  0
  147.8445  137.2130  152.7491 H   0  0  0  0  0  0  0  0  0  0  0  0
  148.0807  139.0218  151.5309 H   0  0  0  0  0  0  0  0  0  0  0  0
  145.7698  139.3064  153.5790 H   0  0  0  0  0  0  0  0  0  0  0  0
  146.4424  138.0866  154.6226 H   0  0  0  0  0  0  0  0  0  0  0  0
  146.9484  142.8290  153.7745 H   0  0  0  0  0  0  0  0  0  0  0  0
  146.4822  141.6370  152.5839 H   0  0  0  0  0  0  0  0  0  0  0  0
  144.9134  141.0410  153.8433 H   0  0  0  0  0  0  0  0  0  0  0  0
  151.6940  141.1370  155.3453 H   0  0  0  0  0  0  0  0  0  0  0  0
  152.7013  138.9098  155.7864 H   0  0  0  0  0  0  0  0  0  0  0  0
  151.3746  136.8377  155.4330 H   0  0  0  0  0  0  0  0  0  0  0  0
  149.0198  136.9851  154.6313 H   0  0  0  0  0  0  0  0  0  0  0  0
  144.3789  135.0244  150.7490 H   0  0  0  0  0  0  0  0  0  0  0  0
  145.5240  135.8852  149.7442 H   0  0  0  0  0  0  0  0  0  0  0  0
  147.0117  133.9586  149.6034 H   0  0  0  0  0  0  0  0  0  0  0  0
  145.4171  133.4851  149.0846 H   0  0  0  0  0  0  0  0  0  0  0  0
  147.1492  135.6413  151.4439 H   0  0  0  0  0  0  0  0  0  0  0  0
  1  2  1  0  0  0  0
  1 23  1  0  0  0  0
  1 24  1  0  0  0  0
  1 25  1  0  0  0  0
  2 22  1  0  0  0  0
  2  3  1  0  0  0  0
  2 26  1  0  0  0  0
  3  4  1  0  0  0  0
  3 27  1  0  0  0  0
  3 28  1  0  0  0  0
  4  5  1  0  0  0  0
  4 29  1  0  0  0  0
  4 30  1  0  0  0  0
  5  6  1  0  0  0  0
  5 21  1  0  0  0  0
  5 48  1  0  0  0  0
  6  7  1  0  0  0  0
  6 31  1  0  0  0  0
  6 32  1  0  0  0  0
  7  8  1  0  0  0  0
  7  9  1  0  0  0  0
  7 33  1  0  0  0  0
  8 34  1  0  0  0  0
  9 10  1  0  0  0  0
  9 35  1  0  0  0  0
  9 36  1  0  0  0  0
 10 20  1  0  0  0  0
 10 11  1  0  0  0  0
 11 12  1  0  0  0  0
 11 14  2  0  0  0  0
 12 13  1  0  0  0  0
 12 37  1  0  0  0  0
 12 38  1  0  0  0  0
 13 39  1  0  0  0  0
 14 15  1  0  0  0  0
 15 20  2  0  0  0  0
 15 16  1  0  0  0  0
 16 17  2  0  0  0  0
 16 40  1  0  0  0  0
 17 18  1  0  0  0  0
 17 41  1  0  0  0  0
 18 19  2  0  0  0  0
 18 42  1  0  0  0  0
 19 20  1  0  0  0  0
 19 43  1  0  0  0  0
 21 22  1  0  0  0  0
 21 44  1  0  0  0  0
 21 45  1  0  0  0  0
 22 46  1  0  0  0  0
 22 47  1  0  0  0  0
M  CHG  1   5   1
M  END
> <s_m_source_file>
AV-unprocessed.smi

> <i_m_source_file_index>
1672

> <i_lp_mmshare_version>
43012

> <i_f3d_flags>
0

> <s_epik_input>
W0NIM11bQ0hdMVtDSDJdW0NIMl1OKFtDSDJdW0NIMl0xKVtDSDJdW0NASF0oW09IXSlbQ0gyXW4oYyhuMilbQ0gyXVtPSF0pYyhjMjMpW2NIXVtjSF1bY0hdW2NIXTM=

> <s_epik_cmdline>
J2VwaWtfcHl0aG9uJywgJy1waCcsICc3LjAnLCAnLXRuJywgJzgnLCAnLW1hJywgJzIwMCcsICctbWV0YWxfYmluZGluZycsICctaW1hZScsICc8aW5maWxlLm1hZT4nLCAnLW9tYWUnLCAnPG91dGZpbGUubWFlPic=

> <r_epik_Ionization_Penalty>
0.0498263

> <r_epik_Ionization_Penalty_Charging>
0.00181365

> <r_epik_Ionization_Penalty_Neutral>
0.0480127

> <r_epik_State_Penalty>
0.0408546

> <r_epik_Charging_Adjusted_Penalty>
0.0426682

> <i_epik_Tot_Q>
1

> <i_epik_Tot_abs_Q>
1

> <r_epik_Metal_State_Penalty>
4.22946e-05

> <b_epik_Metal_Only>
0

> <s_lp_Force_Field>
OPLS_2005

> <r_lp_Energy>
24.4653

> <b_lp_Chiralities_Consistent>
1

> <s_lp_Variant>
AV-unprocessed.smi:1672-4

> <Gold.Version>
5.8.1

> <Gold.Id.Protein>
6NUR|6NUR_protein|mol2

> <Gold.PLP.Fitness>
47.4109

> <Gold.PLP.PLP>
-36.2678

> <Gold.PLP.part.hbond>
-6.7001

> <Gold.PLP.part.metal>
0.0000

> <Gold.PLP.part.buried>
4.9794

> <Gold.PLP.part.nonpolar>
-35.1885

> <Gold.PLP.part.repulsive>
0.2142

> <Gold.PLP.ligand.clash>
0.0000

> <Gold.PLP.ligand.torsion>
1.1369

> <Gold.PLP.Chemscore.Hbond>
4.4477

> <Gold.PLP.Chemscore.CHOScore>
0.0000

> <Gold.PLP.Chemscore.Metal>
0.0000

> <Gold.Chemscore.Hbonds>
donor molecule, donor type, donor heavy atom, donor atom, acceptor molecule, acceptor atom, score
      L1  H     5    48       P1  7948  2.00
      L1  H     8    34       P1  7957  1.00
      L1  H    13    39       P1 10175  1.00
      P1  H  8011  8017       L1    14  0.01

> <Gold.PLP.Chemscore.Internal.Correction>
0.0738

> <Gold.Rescore>
     Score         DG    S(hbond)    S(metal)    S(lipo)     H(rot)  DE(clash)    DE(int)     intcor
     13.81     -18.00       2.62        0.00      95.03       2.88       3.18       1.02       ----

> <Gold.Chemscore.Fitness>
13.8050

> <Gold.Chemscore.DG>
-17.9967

> <Gold.Chemscore.ZeroCoef>
-5.4800

> <Gold.Chemscore.Hbond>
2.6242

> <Gold.Chemscore.Metal>
0.0000

> <Gold.Chemscore.Lipo>
95.0346

> <Gold.Chemscore.Internal_Hbond>
0.0000

> <Gold.Chemscore.DEClash>
3.1756

> <Gold.Chemscore.DEInternal>
1.0161

> <Gold.Chemscore.Rot>
2.8778

> <Gold.Chemscore.Internal.Correction>
   9.000000E+99

> <Gold.Chemscore.Hbonds>
donor molecule, donor type, donor heavy atom, donor atom, acceptor molecule, acceptor atom, score
      L1  H     5    48       P1  7948  0.94
      L1  H     8    34       P1  7957  0.81
      L1  H    13    39       P1 10175  0.78
      P1  H  8011  8017       L1    14  0.01

> <Gold.Chemscore.Hbond.Weighted>
-8.7647

> <Gold.Chemscore.Metal.Weighted>
-0.0000

> <Gold.Chemscore.Lipo.Weighted>
-11.1190

> <Gold.Chemscore.Internal_Hbond.Weighted>
0.0000

> <Gold.Chemscore.DEClash.Weighted>
3.1756

> <Gold.Chemscore.DEInternal.Weighted>
1.0161

> <Gold.Chemscore.Rot.Weighted>
7.3671

> <Gold.Chemscore.Internal.Correction.Weighted>
   9.000000E+99

> <Gold.Protein.RotatedTorsions>
[ 6907 6896 6895 6894 ] final  121.56 input  -60.11 | X-H torsion
[ 7974 7965 7964 7962 ] final  -78.64 input  175.53 | X-H torsion
[ 8008 7997 7996 7995 ] final    7.83 input   59.86 | X-H torsion
[ 10167 10162 10161 10158 ] final  -52.99 input  -65.29 | X-H torsion
[ 10718 10713 10712 10709 ] final   58.10 input   66.30 | X-H torsion
[ 10763 10752 10751 10750 ] final  -96.52 input  -60.55 | X-H torsion
[ 11005 11000 10999 10996 ] final -171.70 input  -57.11 | X-H torsion

> <Gold.Protein.ActiveResidues>
 VAL166  LYS551  ARG553  GLY616  TRP617  ASP618  TYR619  PRO620  LYS621  CYS622 
 ASP623  PHE694  ASN695  SER759  ASP760  ASP761  ALA762  ILE779  LEU786  VAL792 
 PHE793  MET794  SER795  GLU796  ALA797  LYS798  CYS799  TRP800  GLU811  SER814 

> <Gold.Protein.RotatedAtoms>
  152.4312  133.7281  159.6571 H   0  0  0  0  0  0  0  0  0  0  0  0  # atno 6907 bound_to 6896
  150.8191  133.8273  159.3153 H   0  0  0  0  0  0  0  0  0  0  0  0  # atno 6908 bound_to 6896
  151.5961  135.1052  160.0101 H   0  0  0  0  0  0  0  0  0  0  0  0  # atno 6909 bound_to 6896
  145.5838  140.9443  143.1329 H   0  0  0  0  0  0  0  0  0  0  0  0  # atno 7974 bound_to 7965
  154.7589  140.2781  155.6230 H   0  0  0  0  0  0  0  0  0  0  0  0  # atno 8008 bound_to 7997
  156.2911  140.2664  156.2290 H   0  0  0  0  0  0  0  0  0  0  0  0  # atno 8009 bound_to 7997
  155.0042  140.0372  157.2362 H   0  0  0  0  0  0  0  0  0  0  0  0  # atno 8010 bound_to 7997
  140.6508  143.2565  151.4728 H   0  0  0  0  0  0  0  0  0  0  0  0  # atno 10167 bound_to 10162
  157.5569  130.8806  149.9049 H   0  0  0  0  0  0  0  0  0  0  0  0  # atno 10718 bound_to 10713
  154.7247  135.5080  153.8867 H   0  0  0  0  0  0  0  0  0  0  0  0  # atno 10763 bound_to 10752
  153.0894  135.6655  153.9893 H   0  0  0  0  0  0  0  0  0  0  0  0  # atno 10764 bound_to 10752
  153.9708  135.3038  155.3407 H   0  0  0  0  0  0  0  0  0  0  0  0  # atno 10765 bound_to 10752
  140.5052  134.5854  157.5001 H   0  0  0  0  0  0  0  0  0  0  0  0  # atno 11005 bound_to 11000
  144.7382  139.7525  143.7321 LP  0  0  0  0  0  0  0  0  0  0  0  0  # atno 17320 bound_to 7965
  146.1697  139.4842  142.9936 LP  0  0  0  0  0  0  0  0  0  0  0  0  # atno 17321 bound_to 7965
  139.5723  144.1899  152.1854 LP  0  0  0  0  0  0  0  0  0  0  0  0  # atno 17342 bound_to 10162
  140.1199  144.5382  150.6869 LP  0  0  0  0  0  0  0  0  0  0  0  0  # atno 17343 bound_to 10162
  156.0626  130.3697  150.0948 LP  0  0  0  0  0  0  0  0  0  0  0  0  # atno 17370 bound_to 10713
  156.9116  130.9653  151.3562 LP  0  0  0  0  0  0  0  0  0  0  0  0  # atno 17371 bound_to 10713
  139.9690  134.7324  156.0080 LP  0  0  0  0  0  0  0  0  0  0  0  0  # atno 17394 bound_to 11000
  141.1414  133.6564  156.3742 LP  0  0  0  0  0  0  0  0  0  0  0  0  # atno 17395 bound_to 11000

$$$$
