AV-unprocessed.smi:1734|AV-procd|sdf|6986|dock3
  -GOLD-   22720 8203D 1   1.00000     0.00000
 Structure written by MMmdl.
 51 53  0  0  0  0  0  0  0  0  2 V2000
  149.9928  138.6627  154.0447 C   0  0  0  0  0  0  0  0  0  0  0  0
  148.7518  139.5399  154.0762 C   0  0  0  0  0  0  0  0  0  0  0  0
  148.8623  140.8738  154.5229 C   0  0  0  0  0  0  0  0  0  0  0  0
  147.7155  141.6852  154.5508 C   0  0  0  0  0  0  0  0  0  0  0  0
  146.4981  141.1244  154.1287 C   0  0  0  0  0  0  0  0  0  0  0  0
  146.3832  139.8504  153.7017 N   0  0  0  0  0  0  0  0  0  0  0  0
  147.4806  139.0530  153.6691 C   0  0  0  0  0  0  0  0  0  0  0  0
  147.4336  137.7001  153.2275 N   0  0  0  0  0  0  0  0  0  0  0  0
  146.3711  136.8779  153.1660 C   0  0  0  0  0  0  0  0  0  0  0  0
  145.2280  137.1620  153.5239 O   0  0  0  0  0  0  0  0  0  0  0  0
  146.7110  135.6854  152.6548 N   0  0  0  0  0  0  0  0  0  0  0  0
  145.7981  134.5659  152.4442 C   0  0  0  0  0  0  0  0  0  0  0  0
  146.3606  133.5077  151.4570 C   0  0  2  0  0  0  0  0  0  0  0  0
  145.2680  132.7611  150.6376 C   0  0  1  0  0  0  0  0  0  0  0  0
  144.1947  133.6293  149.9990 C   0  0  0  0  0  0  0  0  0  0  0  0
  143.6339  132.7300  148.9007 C   0  0  0  0  0  0  0  0  0  0  0  0
  144.6852  131.8409  148.5425 O   0  0  0  0  0  0  0  0  0  0  0  0
  145.8073  132.0566  149.3874 C   0  0  0  0  0  0  0  0  0  0  0  0
  147.2341  132.5128  152.1510 N   0  3  0  0  0  0  0  0  0  0  0  0
  148.1802  133.1093  153.1254 C   0  0  0  0  0  0  0  0  0  0  0  0
  149.1618  132.0380  153.6306 C   0  0  0  0  0  0  0  0  0  0  0  0
  148.4378  130.9527  154.1984 O   0  0  0  0  0  0  0  0  0  0  0  0
  147.5849  130.3225  153.2498 C   0  0  0  0  0  0  0  0  0  0  0  0
  146.5464  131.3354  152.7404 C   0  0  0  0  0  0  0  0  0  0  0  0
  150.8722  139.2068  154.3908 H   0  0  0  0  0  0  0  0  0  0  0  0
  150.1905  138.3169  153.0297 H   0  0  0  0  0  0  0  0  0  0  0  0
  149.8619  137.7933  154.6895 H   0  0  0  0  0  0  0  0  0  0  0  0
  149.8139  141.2738  154.8409 H   0  0  0  0  0  0  0  0  0  0  0  0
  147.7681  142.7101  154.8868 H   0  0  0  0  0  0  0  0  0  0  0  0
  145.5928  141.7133  154.1333 H   0  0  0  0  0  0  0  0  0  0  0  0
  148.3143  137.3189  152.9156 H   0  0  0  0  0  0  0  0  0  0  0  0
  147.6755  135.5411  152.3931 H   0  0  0  0  0  0  0  0  0  0  0  0
  145.6155  134.1212  153.4220 H   0  0  0  0  0  0  0  0  0  0  0  0
  144.8338  134.9262  152.0838 H   0  0  0  0  0  0  0  0  0  0  0  0
  146.9930  134.0282  150.7358 H   0  0  0  0  0  0  0  0  0  0  0  0
  144.7721  132.0206  151.2666 H   0  0  0  0  0  0  0  0  0  0  0  0
  143.4158  133.9404  150.6942 H   0  0  0  0  0  0  0  0  0  0  0  0
  144.6387  134.5232  149.5582 H   0  0  0  0  0  0  0  0  0  0  0  0
  142.7967  132.1414  149.2778 H   0  0  0  0  0  0  0  0  0  0  0  0
  143.2848  133.3006  148.0397 H   0  0  0  0  0  0  0  0  0  0  0  0
  146.5176  132.6954  148.8602 H   0  0  0  0  0  0  0  0  0  0  0  0
  146.3068  131.1150  149.6167 H   0  0  0  0  0  0  0  0  0  0  0  0
  148.7375  133.9218  152.6582 H   0  0  0  0  0  0  0  0  0  0  0  0
  147.6356  133.5358  153.9682 H   0  0  0  0  0  0  0  0  0  0  0  0
  149.7989  131.6803  152.8198 H   0  0  0  0  0  0  0  0  0  0  0  0
  149.8205  132.4595  154.3903 H   0  0  0  0  0  0  0  0  0  0  0  0
  148.1725  129.9174  152.4243 H   0  0  0  0  0  0  0  0  0  0  0  0
  147.0851  129.4803  153.7287 H   0  0  0  0  0  0  0  0  0  0  0  0
  145.9101  131.6431  153.5710 H   0  0  0  0  0  0  0  0  0  0  0  0
  145.9051  130.8568  152.0011 H   0  0  0  0  0  0  0  0  0  0  0  0
  147.8231  132.1407  151.4198 H   0  0  0  0  0  0  0  0  0  0  0  0
  1  2  1  0  0  0  0
  1 25  1  0  0  0  0
  1 26  1  0  0  0  0
  1 27  1  0  0  0  0
  2  7  1  0  0  0  0
  2  3  2  0  0  0  0
  3  4  1  0  0  0  0
  3 28  1  0  0  0  0
  4  5  2  0  0  0  0
  4 29  1  0  0  0  0
  5  6  1  0  0  0  0
  5 30  1  0  0  0  0
  6  7  2  0  0  0  0
  7  8  1  0  0  0  0
  8  9  1  0  0  0  0
  8 31  1  0  0  0  0
  9 10  2  0  0  0  0
  9 11  1  0  0  0  0
 11 12  1  0  0  0  0
 11 32  1  0  0  0  0
 12 13  1  0  0  0  0
 12 33  1  0  0  0  0
 12 34  1  0  0  0  0
 13 14  1  0  0  0  0
 13 19  1  0  0  0  0
 13 35  1  0  0  0  0
 14 18  1  0  0  0  0
 14 15  1  0  0  0  0
 14 36  1  0  0  0  0
 15 16  1  0  0  0  0
 15 37  1  0  0  0  0
 15 38  1  0  0  0  0
 16 17  1  0  0  0  0
 16 39  1  0  0  0  0
 16 40  1  0  0  0  0
 17 18  1  0  0  0  0
 18 41  1  0  0  0  0
 18 42  1  0  0  0  0
 19 24  1  0  0  0  0
 19 20  1  0  0  0  0
 19 51  1  0  0  0  0
 20 21  1  0  0  0  0
 20 43  1  0  0  0  0
 20 44  1  0  0  0  0
 21 22  1  0  0  0  0
 21 45  1  0  0  0  0
 21 46  1  0  0  0  0
 22 23  1  0  0  0  0
 23 24  1  0  0  0  0
 23 47  1  0  0  0  0
 23 48  1  0  0  0  0
 24 49  1  0  0  0  0
 24 50  1  0  0  0  0
M  CHG  1  19   1
M  END
> <s_m_source_file>
AV-unprocessed.smi

> <i_m_source_file_index>
1734

> <i_lp_mmshare_version>
43012

> <i_f3d_flags>
0

> <s_epik_input>
W0NIM11jMVtjSF1bY0hdW2NIXW5jMVtOSF1DKD1PKVtOSF1bQ0gyXVtDQEhdKFtDQEBIXTJbQ0gyXVtDSDJdT1tDSDJdMilOM1tDSDJdW0NIMl1PW0NIMl1bQ0gyXTM=

> <s_epik_cmdline>
J2VwaWtfcHl0aG9uJywgJy1waCcsICc3LjAnLCAnLXRuJywgJzgnLCAnLW1hJywgJzIwMCcsICctbWV0YWxfYmluZGluZycsICctaW1hZScsICc8aW5maWxlLm1hZT4nLCAnLW9tYWUnLCAnPG91dGZpbGUubWFlPic=

> <r_epik_Ionization_Penalty>
0.983302

> <r_epik_Ionization_Penalty_Charging>
0.98326

> <r_epik_Ionization_Penalty_Neutral>
4.21967e-05

> <r_epik_State_Penalty>
1.0303

> <r_epik_Charging_Adjusted_Penalty>
2.01356

> <i_epik_Tot_Q>
1

> <i_epik_Tot_abs_Q>
1

> <r_epik_Metal_State_Penalty>
1.03031

> <b_epik_Metal_Only>
0

> <s_lp_Force_Field>
OPLS_2005

> <r_lp_Energy>
41.1253

> <b_lp_Chiralities_Consistent>
1

> <s_lp_Variant>
AV-unprocessed.smi:1734-7

> <Gold.Version>
5.8.1

> <Gold.Id.Protein>
6NUR|6NUR_protein|mol2

> <Gold.PLP.Fitness>
48.0067

> <Gold.PLP.PLP>
-40.7888

> <Gold.PLP.part.hbond>
-4.4137

> <Gold.PLP.part.metal>
0.0000

> <Gold.PLP.part.buried>
-1.7308

> <Gold.PLP.part.nonpolar>
-36.4062

> <Gold.PLP.part.repulsive>
1.3590

> <Gold.PLP.ligand.clash>
0.0000

> <Gold.PLP.ligand.torsion>
1.0595

> <Gold.PLP.Chemscore.Hbond>
2.6905

> <Gold.PLP.Chemscore.CHOScore>
0.2693

> <Gold.PLP.Chemscore.Metal>
0.0000

> <Gold.Chemscore.Hbonds>
donor molecule, donor type, donor heavy atom, donor atom, acceptor molecule, acceptor atom, score
      L1  H     8    31       P1  7948  0.85
      L1  H    11    32       P1  7948  0.90
      L1  H    19    51       P1 10747  0.91
      P1  H 10785 10796       L1    17  0.05
      L1  C     5    30       P1 10175  0.20

> <Gold.PLP.Chemscore.Internal.Correction>
0.4575

> <Gold.Rescore>
     Score         DG    S(hbond)    S(metal)    S(lipo)     H(rot)  DE(clash)    DE(int)     intcor
     18.18     -22.11       2.74        0.00     101.19       1.70       0.47       3.46       ----

> <Gold.Chemscore.Fitness>
18.1760

> <Gold.Chemscore.DG>
-22.1066

> <Gold.Chemscore.ZeroCoef>
-5.4800

> <Gold.Chemscore.Hbond>
2.7353

> <Gold.Chemscore.Metal>
0.0000

> <Gold.Chemscore.Lipo>
101.1881

> <Gold.Chemscore.Internal_Hbond>
0.0000

> <Gold.Chemscore.DEClash>
0.4663

> <Gold.Chemscore.DEInternal>
3.4642

> <Gold.Chemscore.Rot>
1.6986

> <Gold.Chemscore.Internal.Correction>
   9.000000E+99

> <Gold.Chemscore.Hbonds>
donor molecule, donor type, donor heavy atom, donor atom, acceptor molecule, acceptor atom, score
      L1  H     8    31       P1  7948  0.84
      L1  H    11    32       P1  7948  0.83
      L1  H    19    51       P1 10747  0.87

> <Gold.Chemscore.Hbond.Weighted>
-9.1360

> <Gold.Chemscore.Metal.Weighted>
-0.0000

> <Gold.Chemscore.Lipo.Weighted>
-11.8390

> <Gold.Chemscore.Internal_Hbond.Weighted>
0.0000

> <Gold.Chemscore.DEClash.Weighted>
0.4663

> <Gold.Chemscore.DEInternal.Weighted>
3.4642

> <Gold.Chemscore.Rot.Weighted>
4.3485

> <Gold.Chemscore.Internal.Correction.Weighted>
   9.000000E+99

> <Gold.Protein.RotatedTorsions>
[ 6907 6896 6895 6894 ] final -135.29 input  -60.11 | X-H torsion
[ 7974 7965 7964 7962 ] final    6.07 input  175.53 | X-H torsion
[ 8008 7997 7996 7995 ] final  154.30 input   59.86 | X-H torsion
[ 10167 10162 10161 10158 ] final  157.50 input  -65.29 | X-H torsion
[ 10718 10713 10712 10709 ] final  117.94 input   66.30 | X-H torsion
[ 10763 10752 10751 10750 ] final   65.79 input  -60.55 | X-H torsion
[ 11005 11000 10999 10996 ] final   -7.77 input  -57.11 | X-H torsion

> <Gold.Protein.ActiveResidues>
 VAL166  LYS551  ARG553  GLY616  TRP617  ASP618  TYR619  PRO620  LYS621  CYS622 
 ASP623  PHE694  ASN695  SER759  ASP760  ASP761  ALA762  ILE779  LEU786  VAL792 
 PHE793  MET794  SER795  GLU796  ALA797  LYS798  CYS799  TRP800  GLU811  SER814 

> <Gold.Protein.RotatedAtoms>
  150.9961  133.6102  159.2701 H   0  0  0  0  0  0  0  0  0  0  0  0  # atno 6907 bound_to 6896
  151.3305  135.0839  159.9346 H   0  0  0  0  0  0  0  0  0  0  0  0  # atno 6908 bound_to 6896
  152.5260  133.9591  159.7763 H   0  0  0  0  0  0  0  0  0  0  0  0  # atno 6909 bound_to 6896
  146.2437  140.0288  142.8391 H   0  0  0  0  0  0  0  0  0  0  0  0  # atno 7974 bound_to 7965
  156.2538  140.1970  156.6625 H   0  0  0  0  0  0  0  0  0  0  0  0  # atno 8008 bound_to 7997
  154.6454  140.0578  156.9919 H   0  0  0  0  0  0  0  0  0  0  0  0  # atno 8009 bound_to 7997
  155.1499  140.3250  155.4436 H   0  0  0  0  0  0  0  0  0  0  0  0  # atno 8010 bound_to 7997
  139.4823  144.4912  151.8306 H   0  0  0  0  0  0  0  0  0  0  0  0  # atno 10167 bound_to 10162
  157.6063  131.1043  150.7686 H   0  0  0  0  0  0  0  0  0  0  0  0  # atno 10718 bound_to 10713
  153.0111  135.5344  154.6722 H   0  0  0  0  0  0  0  0  0  0  0  0  # atno 10763 bound_to 10752
  154.5903  135.2858  155.0644 H   0  0  0  0  0  0  0  0  0  0  0  0  # atno 10764 bound_to 10752
  154.1739  135.6527  153.5069 H   0  0  0  0  0  0  0  0  0  0  0  0  # atno 10765 bound_to 10752
  140.7164  133.8865  155.8788 H   0  0  0  0  0  0  0  0  0  0  0  0  # atno 11005 bound_to 11000
  145.1173  140.9441  143.4621 LP  0  0  0  0  0  0  0  0  0  0  0  0  # atno 17320 bound_to 7965
  145.0516  139.3177  143.5926 LP  0  0  0  0  0  0  0  0  0  0  0  0  # atno 17321 bound_to 7965
  140.4396  144.2005  150.5891 LP  0  0  0  0  0  0  0  0  0  0  0  0  # atno 17342 bound_to 10162
  140.4697  143.2418  151.9106 LP  0  0  0  0  0  0  0  0  0  0  0  0  # atno 17343 bound_to 10162
  156.8074  130.4941  149.5361 LP  0  0  0  0  0  0  0  0  0  0  0  0  # atno 17370 bound_to 10713
  156.1150  130.6068  151.0107 LP  0  0  0  0  0  0  0  0  0  0  0  0  # atno 17371 bound_to 10713
  141.0041  134.1110  157.4288 LP  0  0  0  0  0  0  0  0  0  0  0  0  # atno 17394 bound_to 11000
  139.8859  135.0076  156.6463 LP  0  0  0  0  0  0  0  0  0  0  0  0  # atno 17395 bound_to 11000

$$$$
