AV-unprocessed.smi:3245|AV-procd|sdf|12403|dock4
  -GOLD-   2272018283D 1   1.00000     0.00000
 Structure written by MMmdl.
 36 37  0  0  0  0  0  0  0  0  2 V2000
  151.3527  141.2493  157.3985 C   0  0  0  0  0  0  0  0  0  0  0  0
  150.4690  142.1708  158.2500 C   0  0  1  0  0  0  0  0  0  0  0  0
  151.3053  143.3195  158.8553 C   0  0  0  0  0  0  0  0  0  0  0  0
  152.0366  142.9233  160.0456 N   0  0  0  0  0  0  0  0  0  0  0  0
  153.0342  141.9788  160.1650 C   0  0  0  0  0  0  0  0  0  0  0  0
  153.4015  141.9408  161.4796 C   0  0  0  0  0  0  0  0  0  0  0  0
  152.5650  142.9146  162.0937 C   0  0  0  0  0  0  0  0  0  0  0  0
  151.7488  143.5009  161.2325 N   0  0  0  0  0  0  0  0  0  0  0  0
  149.3614  142.6956  157.4189 N   0  3  0  0  0  0  0  0  0  0  0  0
  148.6165  141.6738  156.6552 C   0  0  0  0  0  0  0  0  0  0  0  0
  149.1929  141.5192  155.2407 C   0  0  0  0  0  0  0  0  0  0  0  0
  148.5910  140.3799  154.5440 N   0  0  0  0  0  0  0  0  0  0  0  0
  147.3669  140.3871  154.0013 C   0  0  0  0  0  0  0  0  0  0  0  0
  146.5579  141.3141  153.9931 O   0  0  0  0  0  0  0  0  0  0  0  0
  147.1185  139.0380  153.3626 C   0  0  0  0  0  0  0  0  0  0  0  0
  148.3843  138.4017  153.6581 N   0  0  0  0  0  0  0  0  0  0  0  0
  149.2129  139.2043  154.3383 C   0  0  0  0  0  0  0  0  0  0  0  0
  150.3508  138.9088  154.7000 O   0  0  0  0  0  0  0  0  0  0  0  0
  152.1570  140.8166  157.9944 H   0  0  0  0  0  0  0  0  0  0  0  0
  151.8086  141.7903  156.5684 H   0  0  0  0  0  0  0  0  0  0  0  0
  150.7744  140.4243  156.9810 H   0  0  0  0  0  0  0  0  0  0  0  0
  150.0556  141.5656  159.0587 H   0  0  0  0  0  0  0  0  0  0  0  0
  152.0310  143.6773  158.1237 H   0  0  0  0  0  0  0  0  0  0  0  0
  150.6678  144.1716  159.0980 H   0  0  0  0  0  0  0  0  0  0  0  0
  153.3922  141.4153  159.3159 H   0  0  0  0  0  0  0  0  0  0  0  0
  154.1539  141.3136  161.9344 H   0  0  0  0  0  0  0  0  0  0  0  0
  152.5253  143.2083  163.1322 H   0  0  0  0  0  0  0  0  0  0  0  0
  148.7184  143.1856  158.0250 H   0  0  0  0  0  0  0  0  0  0  0  0
  148.6623  140.7256  157.1926 H   0  0  0  0  0  0  0  0  0  0  0  0
  147.5645  141.9509  156.5914 H   0  0  0  0  0  0  0  0  0  0  0  0
  149.0187  142.4309  154.6663 H   0  0  0  0  0  0  0  0  0  0  0  0
  150.2770  141.4022  155.2894 H   0  0  0  0  0  0  0  0  0  0  0  0
  146.2852  138.5161  153.8344 H   0  0  0  0  0  0  0  0  0  0  0  0
  146.9515  139.1242  152.2885 H   0  0  0  0  0  0  0  0  0  0  0  0
  148.6061  137.4589  153.3718 H   0  0  0  0  0  0  0  0  0  0  0  0
  149.7430  143.3548  156.7554 H   0  0  0  0  0  0  0  0  0  0  0  0
  1  2  1  0  0  0  0
  1 19  1  0  0  0  0
  1 20  1  0  0  0  0
  1 21  1  0  0  0  0
  2  3  1  0  0  0  0
  2  9  1  0  0  0  0
  2 22  1  0  0  0  0
  3  4  1  0  0  0  0
  3 23  1  0  0  0  0
  3 24  1  0  0  0  0
  4  8  1  0  0  0  0
  4  5  1  0  0  0  0
  5  6  2  0  0  0  0
  5 25  1  0  0  0  0
  6  7  1  0  0  0  0
  6 26  1  0  0  0  0
  7  8  2  0  0  0  0
  7 27  1  0  0  0  0
  9 10  1  0  0  0  0
  9 28  1  0  0  0  0
  9 36  1  0  0  0  0
 10 11  1  0  0  0  0
 10 29  1  0  0  0  0
 10 30  1  0  0  0  0
 11 12  1  0  0  0  0
 11 31  1  0  0  0  0
 11 32  1  0  0  0  0
 12 17  1  0  0  0  0
 12 13  1  0  0  0  0
 13 14  2  0  0  0  0
 13 15  1  0  0  0  0
 15 16  1  0  0  0  0
 15 33  1  0  0  0  0
 15 34  1  0  0  0  0
 16 17  1  0  0  0  0
 16 35  1  0  0  0  0
 17 18  2  0  0  0  0
M  CHG  1   9   1
M  END
> <s_m_source_file>
AV-unprocessed.smi

> <i_m_source_file_index>
3245

> <i_lp_mmshare_version>
43012

> <i_f3d_flags>
0

> <s_epik_input>
bjFbY0hdW2NIXVtjSF1uMVtDSDJdW0NAQEhdKFtDSDNdKVtOSF1bQ0gyXVtDSDJdTjJDKD1PKVtDSDJdW05IXUMyPU8=

> <s_epik_cmdline>
J2VwaWtfcHl0aG9uJywgJy1waCcsICc3LjAnLCAnLXRuJywgJzgnLCAnLW1hJywgJzIwMCcsICctbWV0YWxfYmluZGluZycsICctaW1hZScsICc8aW5maWxlLm1hZT4nLCAnLW9tYWUnLCAnPG91dGZpbGUubWFlPic=

> <r_lp_tautomer_probability>
1

> <r_epik_Ionization_Penalty>
0.0160742

> <r_epik_Ionization_Penalty_Charging>
0.0159586

> <r_epik_Ionization_Penalty_Neutral>
0.000115543

> <r_epik_State_Penalty>
0.0125702

> <r_epik_Charging_Adjusted_Penalty>
0.0285288

> <i_epik_Tot_Q>
1

> <i_epik_Tot_abs_Q>
1

> <r_epik_Metal_State_Penalty>
0.0881892

> <b_epik_Metal_Only>
0

> <s_lp_Force_Field>
OPLS_2005

> <r_lp_Energy>
19.8129

> <b_lp_Chiralities_Consistent>
1

> <s_lp_Variant>
AV-unprocessed.smi:3245-2

> <Gold.Version>
5.8.1

> <Gold.Id.Protein>
6NUR|6NUR_protein|mol2

> <Gold.PLP.Fitness>
48.7138

> <Gold.PLP.PLP>
-38.1378

> <Gold.PLP.part.hbond>
-4.5443

> <Gold.PLP.part.metal>
0.0000

> <Gold.PLP.part.buried>
-3.5279

> <Gold.PLP.part.nonpolar>
-30.5850

> <Gold.PLP.part.repulsive>
0.5676

> <Gold.PLP.ligand.clash>
0.0000

> <Gold.PLP.ligand.torsion>
0.7153

> <Gold.PLP.Chemscore.Hbond>
3.9840

> <Gold.PLP.Chemscore.CHOScore>
0.0000

> <Gold.PLP.Chemscore.Metal>
0.0000

> <Gold.Chemscore.Hbonds>
donor molecule, donor type, donor heavy atom, donor atom, acceptor molecule, acceptor atom, score
      L1  H     9    36       P1  8028  1.25
      L1  H    16    35       P1  7948  0.93

> <Gold.PLP.Chemscore.Internal.Correction>
0.0546

> <Gold.Rescore>
     Score         DG    S(hbond)    S(metal)    S(lipo)     H(rot)  DE(clash)    DE(int)     intcor
     14.48     -16.69       2.84        0.00      74.77       2.74       1.18       1.03       ----

> <Gold.Chemscore.Fitness>
14.4767

> <Gold.Chemscore.DG>
-16.6928

> <Gold.Chemscore.ZeroCoef>
-5.4800

> <Gold.Chemscore.Hbond>
2.8356

> <Gold.Chemscore.Metal>
0.0000

> <Gold.Chemscore.Lipo>
74.7725

> <Gold.Chemscore.Internal_Hbond>
0.0000

> <Gold.Chemscore.DEClash>
1.1846

> <Gold.Chemscore.DEInternal>
1.0316

> <Gold.Chemscore.Rot>
2.7369

> <Gold.Chemscore.Internal.Correction>
   9.000000E+99

> <Gold.Chemscore.Hbonds>
donor molecule, donor type, donor heavy atom, donor atom, acceptor molecule, acceptor atom, score
      L1  H     9    36       P1  8028  0.61
      L1  H    16    35       P1  7948  0.88

> <Gold.Chemscore.Hbond.Weighted>
-9.4709

> <Gold.Chemscore.Metal.Weighted>
-0.0000

> <Gold.Chemscore.Lipo.Weighted>
-8.7484

> <Gold.Chemscore.Internal_Hbond.Weighted>
0.0000

> <Gold.Chemscore.DEClash.Weighted>
1.1846

> <Gold.Chemscore.DEInternal.Weighted>
1.0316

> <Gold.Chemscore.Rot.Weighted>
7.0065

> <Gold.Chemscore.Internal.Correction.Weighted>
   9.000000E+99

> <Gold.Protein.RotatedTorsions>
[ 6907 6896 6895 6894 ] final  158.22 input  -60.11 | X-H torsion
[ 7974 7965 7964 7962 ] final  -57.33 input  175.53 | X-H torsion
[ 8008 7997 7996 7995 ] final  175.90 input   59.86 | X-H torsion
[ 10167 10162 10161 10158 ] final -100.60 input  -65.29 | X-H torsion
[ 10718 10713 10712 10709 ] final   85.49 input   66.30 | X-H torsion
[ 10763 10752 10751 10750 ] final -169.80 input  -60.55 | X-H torsion
[ 11005 11000 10999 10996 ] final  159.86 input  -57.11 | X-H torsion

> <Gold.Protein.ActiveResidues>
 VAL166  LYS551  ARG553  GLY616  TRP617  ASP618  TYR619  PRO620  LYS621  CYS622 
 ASP623  PHE694  ASN695  SER759  ASP760  ASP761  ALA762  ILE779  LEU786  VAL792 
 PHE793  MET794  SER795  GLU796  ALA797  LYS798  CYS799  TRP800  GLU811  SER814 

> <Gold.Protein.RotatedAtoms>
  152.0037  133.3835  159.4191 H   0  0  0  0  0  0  0  0  0  0  0  0  # atno 6907 bound_to 6896
  150.6907  134.3806  159.5042 H   0  0  0  0  0  0  0  0  0  0  0  0  # atno 6908 bound_to 6896
  152.1557  134.8952  160.0596 H   0  0  0  0  0  0  0  0  0  0  0  0  # atno 6909 bound_to 6896
  145.8523  140.8343  142.9979 H   0  0  0  0  0  0  0  0  0  0  0  0  # atno 7974 bound_to 7965
  156.0822  140.1397  156.9698 H   0  0  0  0  0  0  0  0  0  0  0  0  # atno 8008 bound_to 7997
  154.4592  140.0949  156.6893 H   0  0  0  0  0  0  0  0  0  0  0  0  # atno 8009 bound_to 7997
  155.5057  140.3452  155.4381 H   0  0  0  0  0  0  0  0  0  0  0  0  # atno 8010 bound_to 7997
  140.2502  143.3477  152.0721 H   0  0  0  0  0  0  0  0  0  0  0  0  # atno 10167 bound_to 10162
  157.6915  131.0177  150.2830 H   0  0  0  0  0  0  0  0  0  0  0  0  # atno 10718 bound_to 10713
  154.6484  135.2908  155.0017 H   0  0  0  0  0  0  0  0  0  0  0  0  # atno 10763 bound_to 10752
  154.1119  135.6561  153.4890 H   0  0  0  0  0  0  0  0  0  0  0  0  # atno 10764 bound_to 10752
  153.0363  135.5267  154.7381 H   0  0  0  0  0  0  0  0  0  0  0  0  # atno 10765 bound_to 10752
  140.2003  134.8342  157.3011 H   0  0  0  0  0  0  0  0  0  0  0  0  # atno 11005 bound_to 11000
  144.6729  140.0972  143.7462 LP  0  0  0  0  0  0  0  0  0  0  0  0  # atno 17320 bound_to 7965
  145.9343  139.2627  143.1306 LP  0  0  0  0  0  0  0  0  0  0  0  0  # atno 17321 bound_to 7965
  139.5049  144.6784  151.6072 LP  0  0  0  0  0  0  0  0  0  0  0  0  # atno 17342 bound_to 10162
  140.6046  143.9547  150.6410 LP  0  0  0  0  0  0  0  0  0  0  0  0  # atno 17343 bound_to 10162
  156.3373  130.3810  149.7439 LP  0  0  0  0  0  0  0  0  0  0  0  0  # atno 17370 bound_to 10713
  156.4959  130.8106  151.3113 LP  0  0  0  0  0  0  0  0  0  0  0  0  # atno 17371 bound_to 10713
  140.2061  134.4195  155.7637 LP  0  0  0  0  0  0  0  0  0  0  0  0  # atno 17394 bound_to 11000
  141.2227  133.7095  156.8263 LP  0  0  0  0  0  0  0  0  0  0  0  0  # atno 17395 bound_to 11000

$$$$
