AV-unprocessed.smi:1144|AV-procd|sdf|4880|dock3
  -GOLD-   22720 3453D 1   1.00000     0.00000
 Structure written by MMmdl.
 34 35  0  0  0  0  0  0  0  0  1 V2000
  152.8574  138.6087  154.9118 C   0  0  0  0  0  0  0  0  0  0  0  0
  151.6015  139.3090  154.6894 N   0  0  0  0  0  0  0  0  0  0  0  0
  150.5563  138.4027  154.2328 C   0  0  0  0  0  0  0  0  0  0  0  0
  149.2219  139.1364  154.0185 C   0  0  0  0  0  0  0  0  0  0  0  0
  148.8487  139.8035  155.2204 O   0  0  0  0  0  0  0  0  0  0  0  0
  149.8225  140.7474  155.6629 C   0  0  1  0  0  0  0  0  0  0  0  0
  149.3129  141.4029  156.9533 C   0  0  0  0  0  0  0  0  0  0  0  0
  149.6612  142.8146  157.0133 N   0  0  0  0  0  0  0  0  0  0  0  0
  150.6341  143.3382  157.8431 C   0  0  0  0  0  0  0  0  0  0  0  0
  150.7209  144.6702  157.8594 N   0  0  0  0  0  0  0  0  0  0  0  0
  151.6620  145.2145  158.6605 C   0  0  0  0  0  0  0  0  0  0  0  0
  152.5183  144.4195  159.4474 C   0  0  0  0  0  0  0  0  0  0  0  0
  152.3378  143.0215  159.3517 C   0  0  0  0  0  0  0  0  0  0  0  0
  153.1892  142.0392  160.1416 C   0  0  0  0  0  0  0  0  0  0  0  0
  152.7121  140.8039  159.9859 F   0  0  0  0  0  0  0  0  0  0  0  0
  154.4591  142.0560  159.7351 F   0  0  0  0  0  0  0  0  0  0  0  0
  153.1560  142.3539  161.4366 F   0  0  0  0  0  0  0  0  0  0  0  0
  151.3917  142.4877  158.5448 N   0  0  0  0  0  0  0  0  0  0  0  0
  151.1550  140.0052  155.8894 C   0  0  0  0  0  0  0  0  0  0  0  0
  153.1918  138.1164  153.9981 H   0  0  0  0  0  0  0  0  0  0  0  0
  152.7533  137.8497  155.6883 H   0  0  0  0  0  0  0  0  0  0  0  0
  153.6387  139.3042  155.2193 H   0  0  0  0  0  0  0  0  0  0  0  0
  150.8618  137.9236  153.3017 H   0  0  0  0  0  0  0  0  0  0  0  0
  150.4140  137.6047  154.9633 H   0  0  0  0  0  0  0  0  0  0  0  0
  149.3023  139.8578  153.2039 H   0  0  0  0  0  0  0  0  0  0  0  0
  148.4392  138.4286  153.7453 H   0  0  0  0  0  0  0  0  0  0  0  0
  149.9616  141.5130  154.8970 H   0  0  0  0  0  0  0  0  0  0  0  0
  148.2313  141.2882  157.0349 H   0  0  0  0  0  0  0  0  0  0  0  0
  149.7555  140.9041  157.8163 H   0  0  0  0  0  0  0  0  0  0  0  0
  149.1224  143.4652  156.4604 H   0  0  0  0  0  0  0  0  0  0  0  0
  151.7319  146.2921  158.6742 H   0  0  0  0  0  0  0  0  0  0  0  0
  153.2680  144.8642  160.0849 H   0  0  0  0  0  0  0  0  0  0  0  0
  151.0377  139.2914  156.7066 H   0  0  0  0  0  0  0  0  0  0  0  0
  151.9180  140.7173  156.2060 H   0  0  0  0  0  0  0  0  0  0  0  0
  1  2  1  0  0  0  0
  1 20  1  0  0  0  0
  1 21  1  0  0  0  0
  1 22  1  0  0  0  0
  2 19  1  0  0  0  0
  2  3  1  0  0  0  0
  3  4  1  0  0  0  0
  3 23  1  0  0  0  0
  3 24  1  0  0  0  0
  4  5  1  0  0  0  0
  4 25  1  0  0  0  0
  4 26  1  0  0  0  0
  5  6  1  0  0  0  0
  6  7  1  0  0  0  0
  6 19  1  0  0  0  0
  6 27  1  0  0  0  0
  7  8  1  0  0  0  0
  7 28  1  0  0  0  0
  7 29  1  0  0  0  0
  8  9  1  0  0  0  0
  8 30  1  0  0  0  0
  9 18  1  0  0  0  0
  9 10  2  0  0  0  0
 10 11  1  0  0  0  0
 11 12  2  0  0  0  0
 11 31  1  0  0  0  0
 12 13  1  0  0  0  0
 12 32  1  0  0  0  0
 13 14  1  0  0  0  0
 13 18  2  0  0  0  0
 14 15  1  0  0  0  0
 14 16  1  0  0  0  0
 14 17  1  0  0  0  0
 19 33  1  0  0  0  0
 19 34  1  0  0  0  0
M  END
> <s_m_source_file>
AV-unprocessed.smi

> <i_m_source_file_index>
1144

> <i_lp_mmshare_version>
43012

> <i_f3d_flags>
0

> <s_epik_input>
W0NIM11OMVtDSDJdW0NIMl1PW0NASF0oW0NIMl0xKVtDSDJdW05IXWMybltjSF1bY0hdYyhuMilDKEYpKEYpRg==

> <s_epik_cmdline>
J2VwaWtfcHl0aG9uJywgJy1waCcsICc3LjAnLCAnLXRuJywgJzgnLCAnLW1hJywgJzIwMCcsICctbWV0YWxfYmluZGluZycsICctaW1hZScsICc8aW5maWxlLm1hZT4nLCAnLW9tYWUnLCAnPG91dGZpbGUubWFlPic=

> <r_lp_tautomer_probability>
1

> <r_epik_Ionization_Penalty>
0.797829

> <r_epik_Ionization_Penalty_Charging>
0

> <r_epik_Ionization_Penalty_Neutral>
0.797829

> <r_epik_State_Penalty>
0.828842

> <r_epik_Charging_Adjusted_Penalty>
0.828842

> <i_epik_Tot_Q>
0

> <i_epik_Tot_abs_Q>
0

> <r_epik_Metal_State_Penalty>
0.828842

> <b_epik_Metal_Only>
0

> <s_lp_Force_Field>
OPLS_2005

> <r_lp_Energy>
13.1173

> <b_lp_Chiralities_Consistent>
1

> <s_lp_Variant>
AV-unprocessed.smi:1144-5

> <Gold.Version>
5.8.1

> <Gold.Id.Protein>
6NUR|6NUR_protein|mol2

> <Gold.PLP.Fitness>
46.7198

> <Gold.PLP.PLP>
-42.1865

> <Gold.PLP.part.hbond>
-2.0000

> <Gold.PLP.part.metal>
0.0000

> <Gold.PLP.part.buried>
-5.4688

> <Gold.PLP.part.nonpolar>
-35.9917

> <Gold.PLP.part.repulsive>
0.3228

> <Gold.PLP.ligand.clash>
0.0000

> <Gold.PLP.ligand.torsion>
0.7447

> <Gold.PLP.Chemscore.Hbond>
2.0000

> <Gold.PLP.Chemscore.CHOScore>
0.0000

> <Gold.PLP.Chemscore.Metal>
0.0000

> <Gold.Chemscore.Hbonds>
donor molecule, donor type, donor heavy atom, donor atom, acceptor molecule, acceptor atom, score
      L1  H     8    30       P1  8028  0.93
      P1  H  7989  7998       L1     2  0.90

> <Gold.PLP.Chemscore.Internal.Correction>
0.0227

> <Gold.Rescore>
     Score         DG    S(hbond)    S(metal)    S(lipo)     H(rot)  DE(clash)    DE(int)     intcor
     15.10     -16.40       1.20        0.00      87.90       1.31       0.67       0.63       ----

> <Gold.Chemscore.Fitness>
15.0962

> <Gold.Chemscore.DG>
-16.3952

> <Gold.Chemscore.ZeroCoef>
-5.4800

> <Gold.Chemscore.Hbond>
1.1967

> <Gold.Chemscore.Metal>
0.0000

> <Gold.Chemscore.Lipo>
87.9009

> <Gold.Chemscore.Internal_Hbond>
0.0000

> <Gold.Chemscore.DEClash>
0.6704

> <Gold.Chemscore.DEInternal>
0.6285

> <Gold.Chemscore.Rot>
1.3149

> <Gold.Chemscore.Internal.Correction>
   9.000000E+99

> <Gold.Chemscore.Hbonds>
donor molecule, donor type, donor heavy atom, donor atom, acceptor molecule, acceptor atom, score
      L1  H     8    30       P1  8028  0.86
      P1  H  7989  7998       L1     2  0.12

> <Gold.Chemscore.Hbond.Weighted>
-3.9970

> <Gold.Chemscore.Metal.Weighted>
-0.0000

> <Gold.Chemscore.Lipo.Weighted>
-10.2844

> <Gold.Chemscore.Internal_Hbond.Weighted>
0.0000

> <Gold.Chemscore.DEClash.Weighted>
0.6704

> <Gold.Chemscore.DEInternal.Weighted>
0.6285

> <Gold.Chemscore.Rot.Weighted>
3.3662

> <Gold.Chemscore.Internal.Correction.Weighted>
   9.000000E+99

> <Gold.Protein.RotatedTorsions>
[ 6907 6896 6895 6894 ] final -116.85 input  -60.11 | X-H torsion
[ 7974 7965 7964 7962 ] final -133.37 input  175.53 | X-H torsion
[ 8008 7997 7996 7995 ] final  161.64 input   59.86 | X-H torsion
[ 10167 10162 10161 10158 ] final  -65.20 input  -65.29 | X-H torsion
[ 10718 10713 10712 10709 ] final  -34.34 input   66.30 | X-H torsion
[ 10763 10752 10751 10750 ] final   59.87 input  -60.55 | X-H torsion
[ 11005 11000 10999 10996 ] final  -62.91 input  -57.11 | X-H torsion

> <Gold.Protein.ActiveResidues>
 VAL166  LYS551  ARG553  GLY616  TRP617  ASP618  TYR619  PRO620  LYS621  CYS622 
 ASP623  PHE694  ASN695  SER759  ASP760  ASP761  ALA762  ILE779  LEU786  VAL792 
 PHE793  MET794  SER795  GLU796  ALA797  LYS798  CYS799  TRP800  GLU811  SER814 

> <Gold.Protein.RotatedAtoms>
  150.8089  133.8458  159.3191 H   0  0  0  0  0  0  0  0  0  0  0  0  # atno 6907 bound_to 6896
  151.6249  135.1027  160.0119 H   0  0  0  0  0  0  0  0  0  0  0  0  # atno 6908 bound_to 6896
  152.4181  133.7031  159.6492 H   0  0  0  0  0  0  0  0  0  0  0  0  # atno 6909 bound_to 6896
  144.9199  140.7001  143.4971 H   0  0  0  0  0  0  0  0  0  0  0  0  # atno 7974 bound_to 7965
  156.2089  140.1772  156.7739 H   0  0  0  0  0  0  0  0  0  0  0  0  # atno 8008 bound_to 7997
  154.5694  140.0685  156.8971 H   0  0  0  0  0  0  0  0  0  0  0  0  # atno 8009 bound_to 7997
  155.2701  140.3342  155.4268 H   0  0  0  0  0  0  0  0  0  0  0  0  # atno 8010 bound_to 7997
  140.5746  143.2321  151.6467 H   0  0  0  0  0  0  0  0  0  0  0  0  # atno 10167 bound_to 10162
  156.3517  130.4309  149.7698 H   0  0  0  0  0  0  0  0  0  0  0  0  # atno 10718 bound_to 10713
  152.9906  135.5556  154.5782 H   0  0  0  0  0  0  0  0  0  0  0  0  # atno 10763 bound_to 10752
  154.5169  135.2805  155.1298 H   0  0  0  0  0  0  0  0  0  0  0  0  # atno 10764 bound_to 10752
  154.2667  135.6371  153.5347 H   0  0  0  0  0  0  0  0  0  0  0  0  # atno 10765 bound_to 10752
  141.1376  133.6645  156.5600 H   0  0  0  0  0  0  0  0  0  0  0  0  # atno 11005 bound_to 11000
  145.3313  139.1759  143.4535 LP  0  0  0  0  0  0  0  0  0  0  0  0  # atno 17320 bound_to 7965
  146.3200  140.3343  142.8643 LP  0  0  0  0  0  0  0  0  0  0  0  0  # atno 17321 bound_to 7965
  139.5136  144.3438  152.0716 LP  0  0  0  0  0  0  0  0  0  0  0  0  # atno 17342 bound_to 10162
  140.2580  144.4098  150.6196 LP  0  0  0  0  0  0  0  0  0  0  0  0  # atno 17343 bound_to 10162
  156.4896  130.8079  151.3089 LP  0  0  0  0  0  0  0  0  0  0  0  0  # atno 17370 bound_to 10713
  157.7462  130.9979  150.2835 LP  0  0  0  0  0  0  0  0  0  0  0  0  # atno 17371 bound_to 10713
  140.3996  134.7369  157.4771 LP  0  0  0  0  0  0  0  0  0  0  0  0  # atno 17394 bound_to 11000
  140.0506  134.6136  155.8866 LP  0  0  0  0  0  0  0  0  0  0  0  0  # atno 17395 bound_to 11000

$$$$
