AV-unprocessed.smi:2261|AV-procd|sdf|9137|dock10
  -GOLD-   2272012343D 1   1.00000     0.00000
 Structure written by MMmdl.
 41 42  0  0  0  0  0  0  0  0  1 V2000
  144.2999  131.3099  151.1210 C   0  0  0  0  0  0  0  0  0  0  0  0
  144.1897  132.7487  150.5881 C   0  0  0  0  0  0  0  0  0  0  0  0
  143.8123  132.7577  149.0988 C   0  0  0  0  0  0  0  0  0  0  0  0
  143.2359  133.6013  151.4347 C   0  0  0  0  0  0  0  0  0  0  0  0
  144.1525  134.2030  152.4806 C   0  0  2  0  0  0  0  0  0  0  0  0
  143.6041  135.4380  153.0339 N   0  0  0  0  0  0  0  0  0  0  0  0
  142.5297  135.5197  153.8329 C   0  0  0  0  0  0  0  0  0  0  0  0
  141.8255  134.5555  154.1302 O   0  0  0  0  0  0  0  0  0  0  0  0
  142.2178  136.9015  154.4061 C   0  0  0  0  0  0  0  0  0  0  0  0
  140.7978  137.2997  154.0450 C   0  0  0  0  0  0  0  0  0  0  0  0
  139.6964  136.5518  154.5107 C   0  0  0  0  0  0  0  0  0  0  0  0
  138.3973  136.9721  154.1668 C   0  0  0  0  0  0  0  0  0  0  0  0
  138.2544  138.1257  153.3703 C   0  0  0  0  0  0  0  0  0  0  0  0
  139.3012  138.8489  152.9176 N   0  0  0  0  0  0  0  0  0  0  0  0
  140.5435  138.4376  153.2495 C   0  0  0  0  0  0  0  0  0  0  0  0
  145.4635  134.4106  151.6923 C   0  0  0  0  0  0  0  0  0  0  0  0
  145.5245  135.7304  150.8930 C   0  0  0  0  0  0  0  0  0  0  0  0
  146.7076  134.2612  152.5816 C   0  0  0  0  0  0  0  0  0  0  0  0
  145.4744  133.3534  150.7343 O   0  0  0  0  0  0  0  0  0  0  0  0
  143.3440  130.7899  151.0541 H   0  0  0  0  0  0  0  0  0  0  0  0
  144.6145  131.2931  152.1647 H   0  0  0  0  0  0  0  0  0  0  0  0
  145.0304  130.7350  150.5511 H   0  0  0  0  0  0  0  0  0  0  0  0
  142.8228  132.3279  148.9405 H   0  0  0  0  0  0  0  0  0  0  0  0
  144.5248  132.1807  148.5088 H   0  0  0  0  0  0  0  0  0  0  0  0
  143.8030  133.7724  148.6998 H   0  0  0  0  0  0  0  0  0  0  0  0
  142.7936  134.3924  150.8268 H   0  0  0  0  0  0  0  0  0  0  0  0
  142.4163  133.0275  151.8690 H   0  0  0  0  0  0  0  0  0  0  0  0
  144.3000  133.4612  153.2682 H   0  0  0  0  0  0  0  0  0  0  0  0
  144.1185  136.2861  152.8463 H   0  0  0  0  0  0  0  0  0  0  0  0
  142.3422  136.8929  155.4900 H   0  0  0  0  0  0  0  0  0  0  0  0
  142.9209  137.6361  154.0110 H   0  0  0  0  0  0  0  0  0  0  0  0
  139.8436  135.6755  155.1251 H   0  0  0  0  0  0  0  0  0  0  0  0
  137.5307  136.4252  154.5078 H   0  0  0  0  0  0  0  0  0  0  0  0
  137.2727  138.4772  153.0891 H   0  0  0  0  0  0  0  0  0  0  0  0
  141.3584  139.0422  152.8791 H   0  0  0  0  0  0  0  0  0  0  0  0
  145.5758  136.5976  151.5518 H   0  0  0  0  0  0  0  0  0  0  0  0
  144.6546  135.8538  150.2478 H   0  0  0  0  0  0  0  0  0  0  0  0
  146.4080  135.7582  150.2548 H   0  0  0  0  0  0  0  0  0  0  0  0
  146.7505  135.0473  153.3359 H   0  0  0  0  0  0  0  0  0  0  0  0
  147.6223  134.3188  151.9910 H   0  0  0  0  0  0  0  0  0  0  0  0
  146.7114  133.3020  153.0999 H   0  0  0  0  0  0  0  0  0  0  0  0
  1  2  1  0  0  0  0
  1 20  1  0  0  0  0
  1 21  1  0  0  0  0
  1 22  1  0  0  0  0
  2 19  1  0  0  0  0
  2  3  1  0  0  0  0
  2  4  1  0  0  0  0
  3 23  1  0  0  0  0
  3 24  1  0  0  0  0
  3 25  1  0  0  0  0
  4  5  1  0  0  0  0
  4 26  1  0  0  0  0
  4 27  1  0  0  0  0
  5  6  1  0  0  0  0
  5 16  1  0  0  0  0
  5 28  1  0  0  0  0
  6  7  1  0  0  0  0
  6 29  1  0  0  0  0
  7  8  2  0  0  0  0
  7  9  1  0  0  0  0
  9 10  1  0  0  0  0
  9 30  1  0  0  0  0
  9 31  1  0  0  0  0
 10 15  1  0  0  0  0
 10 11  2  0  0  0  0
 11 12  1  0  0  0  0
 11 32  1  0  0  0  0
 12 13  2  0  0  0  0
 12 33  1  0  0  0  0
 13 14  1  0  0  0  0
 13 34  1  0  0  0  0
 14 15  2  0  0  0  0
 15 35  1  0  0  0  0
 16 17  1  0  0  0  0
 16 18  1  0  0  0  0
 16 19  1  0  0  0  0
 17 36  1  0  0  0  0
 17 37  1  0  0  0  0
 17 38  1  0  0  0  0
 18 39  1  0  0  0  0
 18 40  1  0  0  0  0
 18 41  1  0  0  0  0
M  END
> <s_m_source_file>
AV-unprocessed.smi

> <i_m_source_file_index>
2261

> <i_lp_mmshare_version>
43012

> <i_f3d_flags>
0

> <s_epik_input>
W0NIM11DMShbQ0gzXSlbQ0gyXVtDQEhdKEMoTzEpKFtDSDNdKVtDSDNdKVtOSF1DKD1PKVtDSDJdYzJbY0hdW2NIXVtjSF1uW2NIXTI=

> <s_epik_cmdline>
J2VwaWtfcHl0aG9uJywgJy1waCcsICc3LjAnLCAnLXRuJywgJzgnLCAnLW1hJywgJzIwMCcsICctbWV0YWxfYmluZGluZycsICctaW1hZScsICc8aW5maWxlLm1hZT4nLCAnLW9tYWUnLCAnPG91dGZpbGUubWFlPic=

> <r_epik_Ionization_Penalty>
0.00420617

> <r_epik_Ionization_Penalty_Charging>
0

> <r_epik_Ionization_Penalty_Neutral>
0.00420617

> <r_epik_State_Penalty>
0.0030219

> <r_epik_Charging_Adjusted_Penalty>
0.0030219

> <i_epik_Tot_Q>
0

> <i_epik_Tot_abs_Q>
0

> <r_epik_Metal_State_Penalty>
-0

> <b_epik_Metal_Only>
0

> <s_lp_Force_Field>
OPLS_2005

> <r_lp_Energy>
16.2034

> <b_lp_Chiralities_Consistent>
1

> <s_lp_Variant>
AV-unprocessed.smi:2261-2

> <Gold.Version>
5.8.1

> <Gold.Id.Protein>
6NUR|6NUR_protein|mol2

> <Gold.PLP.Fitness>
37.9239

> <Gold.PLP.PLP>
-31.8692

> <Gold.PLP.part.hbond>
-1.0000

> <Gold.PLP.part.metal>
0.0000

> <Gold.PLP.part.buried>
-4.1286

> <Gold.PLP.part.nonpolar>
-30.3919

> <Gold.PLP.part.repulsive>
3.5103

> <Gold.PLP.ligand.clash>
0.0000

> <Gold.PLP.ligand.torsion>
0.0730

> <Gold.PLP.Chemscore.Hbond>
0.7800

> <Gold.PLP.Chemscore.CHOScore>
1.2822

> <Gold.PLP.Chemscore.Metal>
0.0000

> <Gold.Chemscore.Hbonds>
donor molecule, donor type, donor heavy atom, donor atom, acceptor molecule, acceptor atom, score
      P1  H 11000 11005       L1     8  0.84
      L1  C    15    35       P1 10160  0.42
      L1  C    15    35       P1 10175  0.67

> <Gold.PLP.Chemscore.Internal.Correction>
0.0140

> <Gold.Rescore>
     Score         DG    S(hbond)    S(metal)    S(lipo)     H(rot)  DE(clash)    DE(int)     intcor
     14.24     -15.95       0.90        0.00      91.91       1.28       0.32       1.40       ----

> <Gold.Chemscore.Fitness>
14.2405

> <Gold.Chemscore.DG>
-15.9545

> <Gold.Chemscore.ZeroCoef>
-5.4800

> <Gold.Chemscore.Hbond>
0.9007

> <Gold.Chemscore.Metal>
0.0000

> <Gold.Chemscore.Lipo>
91.9131

> <Gold.Chemscore.Internal_Hbond>
0.0000

> <Gold.Chemscore.DEClash>
0.3167

> <Gold.Chemscore.DEInternal>
1.3973

> <Gold.Chemscore.Rot>
1.2842

> <Gold.Chemscore.Internal.Correction>
   9.000000E+99

> <Gold.Chemscore.Hbonds>
donor molecule, donor type, donor heavy atom, donor atom, acceptor molecule, acceptor atom, score
      P1  H 11000 11005       L1     8  0.80

> <Gold.Chemscore.Hbond.Weighted>
-3.0082

> <Gold.Chemscore.Metal.Weighted>
-0.0000

> <Gold.Chemscore.Lipo.Weighted>
-10.7538

> <Gold.Chemscore.Internal_Hbond.Weighted>
0.0000

> <Gold.Chemscore.DEClash.Weighted>
0.3167

> <Gold.Chemscore.DEInternal.Weighted>
1.3973

> <Gold.Chemscore.Rot.Weighted>
3.2875

> <Gold.Chemscore.Internal.Correction.Weighted>
   9.000000E+99

> <Gold.Protein.RotatedTorsions>
[ 6907 6896 6895 6894 ] final   14.13 input  -60.11 | X-H torsion
[ 7974 7965 7964 7962 ] final -168.45 input  175.53 | X-H torsion
[ 8008 7997 7996 7995 ] final  133.31 input   59.86 | X-H torsion
[ 10167 10162 10161 10158 ] final   35.74 input  -65.29 | X-H torsion
[ 10718 10713 10712 10709 ] final  -94.93 input   66.30 | X-H torsion
[ 10763 10752 10751 10750 ] final -124.52 input  -60.55 | X-H torsion
[ 11005 11000 10999 10996 ] final    5.15 input  -57.11 | X-H torsion

> <Gold.Protein.ActiveResidues>
 VAL166  LYS551  ARG553  GLY616  TRP617  ASP618  TYR619  PRO620  LYS621  CYS622 
 ASP623  PHE694  ASN695  SER759  ASP760  ASP761  ALA762  ILE779  LEU786  VAL792 
 PHE793  MET794  SER795  GLU796  ALA797  LYS798  CYS799  TRP800  GLU811  SER814 

> <Gold.Protein.RotatedAtoms>
  151.7973  135.0719  160.0395 H   0  0  0  0  0  0  0  0  0  0  0  0  # atno 6907 bound_to 6896
  152.3114  133.5752  159.5692 H   0  0  0  0  0  0  0  0  0  0  0  0  # atno 6908 bound_to 6896
  150.7322  134.0062  159.3696 H   0  0  0  0  0  0  0  0  0  0  0  0  # atno 6909 bound_to 6896
  144.7203  140.2368  143.6297 H   0  0  0  0  0  0  0  0  0  0  0  0  # atno 7974 bound_to 7965
  156.2991  140.2524  156.3232 H   0  0  0  0  0  0  0  0  0  0  0  0  # atno 8008 bound_to 7997
  154.9215  140.0400  157.2019 H   0  0  0  0  0  0  0  0  0  0  0  0  # atno 8009 bound_to 7997
  154.8306  140.2875  155.5729 H   0  0  0  0  0  0  0  0  0  0  0  0  # atno 8010 bound_to 7997
  140.4194  144.1481  150.6146 H   0  0  0  0  0  0  0  0  0  0  0  0  # atno 10167 bound_to 10162
  156.0035  130.5088  150.6000 H   0  0  0  0  0  0  0  0  0  0  0  0  # atno 10718 bound_to 10713
  154.8724  135.4061  154.3119 H   0  0  0  0  0  0  0  0  0  0  0  0  # atno 10763 bound_to 10752
  153.3961  135.7016  153.6465 H   0  0  0  0  0  0  0  0  0  0  0  0  # atno 10764 bound_to 10752
  153.5227  135.3684  155.2610 H   0  0  0  0  0  0  0  0  0  0  0  0  # atno 10765 bound_to 10752
  140.5740  134.0076  155.8020 H   0  0  0  0  0  0  0  0  0  0  0  0  # atno 11005 bound_to 11000
  145.8358  139.2106  143.1856 LP  0  0  0  0  0  0  0  0  0  0  0  0  # atno 17320 bound_to 7965
  146.0391  140.8183  142.9838 LP  0  0  0  0  0  0  0  0  0  0  0  0  # atno 17321 bound_to 7965
  140.4551  143.2471  151.9296 LP  0  0  0  0  0  0  0  0  0  0  0  0  # atno 17342 bound_to 10162
  139.4782  144.5524  151.8365 LP  0  0  0  0  0  0  0  0  0  0  0  0  # atno 17343 bound_to 10162
  157.3850  131.0787  151.1443 LP  0  0  0  0  0  0  0  0  0  0  0  0  # atno 17370 bound_to 10713
  157.2153  130.6456  149.5790 LP  0  0  0  0  0  0  0  0  0  0  0  0  # atno 17371 bound_to 10713
  141.1038  133.9725  157.3032 LP  0  0  0  0  0  0  0  0  0  0  0  0  # atno 17394 bound_to 11000
  139.9348  135.0197  156.8521 LP  0  0  0  0  0  0  0  0  0  0  0  0  # atno 17395 bound_to 11000

$$$$
