AV-unprocessed.smi:1965|AV-procd|sdf|7937|dock3
  -GOLD-   2272010103D 1   1.00000     0.00000
 Structure written by MMmdl.
 37 39  0  0  0  0  0  0  0  0  2 V2000
  144.7781  135.1507  152.4627 O   0  0  0  0  0  0  0  0  0  0  0  0
  144.1818  134.2049  152.9746 C   0  0  0  0  0  0  0  0  0  0  0  0
  142.9500  134.3629  153.5043 N   0  0  0  0  0  0  0  0  0  0  0  0
  142.1046  135.5059  153.6121 C   0  0  0  0  0  0  0  0  0  0  0  0
  140.8743  135.5123  154.1416 N   0  0  0  0  0  0  0  0  0  0  0  0
  140.2886  136.7803  154.1030 C   0  0  0  0  0  0  0  0  0  0  0  0
  141.0906  137.7369  153.5337 C   0  0  0  0  0  0  0  0  0  0  0  0
  142.6216  137.0793  153.0220 S   0  0  0  0  0  0  0  0  0  0  0  0
  144.7043  132.9695  153.0386 N   0  0  0  0  0  0  0  0  0  0  0  0
  146.0080  132.5695  152.5195 C   0  0  1  0  0  0  0  0  0  0  0  0
  147.1700  133.3506  153.1584 C   0  0  0  0  0  0  0  0  0  0  0  0
  148.3073  132.3244  153.3300 C   0  0  0  0  0  0  0  0  0  0  0  0
  147.8093  131.0820  152.7098 N   0  3  1  0  0  0  0  0  0  0  0  0
  148.4062  129.8107  153.1743 C   0  0  0  0  0  0  0  0  0  0  0  0
  147.8207  128.6445  152.3531 C   0  0  0  0  0  0  0  0  0  0  0  0
  146.2787  128.6465  152.3762 C   0  0  0  0  0  0  0  0  0  0  0  0
  145.7174  130.0240  151.9740 C   0  0  0  0  0  0  0  0  0  0  0  0
  146.3465  131.1153  152.8571 C   0  0  2  0  0  0  0  0  0  0  0  0
  142.5647  133.5249  153.9154 H   0  0  0  0  0  0  0  0  0  0  0  0
  139.2943  136.9128  154.5035 H   0  0  0  0  0  0  0  0  0  0  0  0
  140.8745  138.7845  153.3846 H   0  0  0  0  0  0  0  0  0  0  0  0
  144.1470  132.2505  153.4786 H   0  0  0  0  0  0  0  0  0  0  0  0
  146.0519  132.7129  151.4377 H   0  0  0  0  0  0  0  0  0  0  0  0
  147.4711  134.1888  152.5289 H   0  0  0  0  0  0  0  0  0  0  0  0
  146.8911  133.7569  154.1319 H   0  0  0  0  0  0  0  0  0  0  0  0
  149.2351  132.6475  152.8573 H   0  0  0  0  0  0  0  0  0  0  0  0
  148.5061  132.1610  154.3904 H   0  0  0  0  0  0  0  0  0  0  0  0
  149.4893  129.8490  153.0548 H   0  0  0  0  0  0  0  0  0  0  0  0
  148.2022  129.6705  154.2370 H   0  0  0  0  0  0  0  0  0  0  0  0
  148.1635  128.7233  151.3204 H   0  0  0  0  0  0  0  0  0  0  0  0
  148.1992  127.6941  152.7305 H   0  0  0  0  0  0  0  0  0  0  0  0
  145.8916  127.8742  151.7108 H   0  0  0  0  0  0  0  0  0  0  0  0
  145.9316  128.3929  153.3786 H   0  0  0  0  0  0  0  0  0  0  0  0
  145.9305  130.2206  150.9224 H   0  0  0  0  0  0  0  0  0  0  0  0
  144.6324  130.0265  152.0800 H   0  0  0  0  0  0  0  0  0  0  0  0
  146.0980  130.9235  153.9038 H   0  0  0  0  0  0  0  0  0  0  0  0
  147.9971  131.1597  151.7204 H   0  0  0  0  0  0  0  0  0  0  0  0
  1  2  2  0  0  0  0
  2  3  1  0  0  0  0
  2  9  1  0  0  0  0
  3  4  1  0  0  0  0
  3 19  1  0  0  0  0
  4  8  1  0  0  0  0
  4  5  2  0  0  0  0
  5  6  1  0  0  0  0
  6  7  2  0  0  0  0
  6 20  1  0  0  0  0
  7  8  1  0  0  0  0
  7 21  1  0  0  0  0
  9 10  1  0  0  0  0
  9 22  1  0  0  0  0
 10 18  1  0  0  0  0
 10 11  1  0  0  0  0
 10 23  1  0  0  0  0
 11 12  1  0  0  0  0
 11 24  1  0  0  0  0
 11 25  1  0  0  0  0
 12 13  1  0  0  0  0
 12 26  1  0  0  0  0
 12 27  1  0  0  0  0
 13 18  1  0  0  0  0
 13 14  1  0  0  0  0
 13 37  1  0  0  0  0
 14 15  1  0  0  0  0
 14 28  1  0  0  0  0
 14 29  1  0  0  0  0
 15 16  1  0  0  0  0
 15 30  1  0  0  0  0
 15 31  1  0  0  0  0
 16 17  1  0  0  0  0
 16 32  1  0  0  0  0
 16 33  1  0  0  0  0
 17 18  1  0  0  0  0
 17 34  1  0  0  0  0
 17 35  1  0  0  0  0
 18 36  1  0  0  0  0
M  CHG  1  13   1
M  END
> <s_m_source_file>
AV-unprocessed.smi

> <i_m_source_file_index>
1965

> <i_lp_mmshare_version>
43012

> <i_f3d_flags>
0

> <s_epik_input>
czFbY0hdW2NIXW5jMVtOSF1DKD1PKVtOSF1bQ0BIXShbQ0gyXVtDSDJdMilbQ0BASF0oTjIzKVtDSDJdW0NIMl1bQ0gyXVtDSDJdMw==

> <s_epik_cmdline>
J2VwaWtfcHl0aG9uJywgJy1waCcsICc3LjAnLCAnLXRuJywgJzgnLCAnLW1hJywgJzIwMCcsICctbWV0YWxfYmluZGluZycsICctaW1hZScsICc8aW5maWxlLm1hZT4nLCAnLW9tYWUnLCAnPG91dGZpbGUubWFlPic=

> <r_lp_tautomer_probability>
1

> <r_epik_Ionization_Penalty>
0.00125962

> <r_epik_Ionization_Penalty_Charging>
0.00107044

> <r_epik_Ionization_Penalty_Neutral>
0.000189176

> <r_epik_State_Penalty>
-0

> <r_epik_Charging_Adjusted_Penalty>
0.00107044

> <i_epik_Tot_Q>
1

> <i_epik_Tot_abs_Q>
1

> <r_epik_Metal_State_Penalty>
0.0179285

> <b_epik_Metal_Only>
0

> <s_lp_Force_Field>
OPLS_2005

> <r_lp_Energy>
35.2761

> <b_lp_Chiralities_Consistent>
1

> <s_lp_Variant>
AV-unprocessed.smi:1965-6

> <Gold.Version>
5.8.1

> <Gold.Id.Protein>
6NUR|6NUR_protein|mol2

> <Gold.PLP.Fitness>
43.2347

> <Gold.PLP.PLP>
-32.3204

> <Gold.PLP.part.hbond>
-4.0000

> <Gold.PLP.part.metal>
0.0000

> <Gold.PLP.part.buried>
-4.7067

> <Gold.PLP.part.nonpolar>
-23.9668

> <Gold.PLP.part.repulsive>
0.2319

> <Gold.PLP.ligand.clash>
0.0000

> <Gold.PLP.ligand.torsion>
0.0112

> <Gold.PLP.Chemscore.Hbond>
3.6425

> <Gold.PLP.Chemscore.CHOScore>
0.0000

> <Gold.PLP.Chemscore.Metal>
0.0000

> <Gold.Chemscore.Hbonds>
donor molecule, donor type, donor heavy atom, donor atom, acceptor molecule, acceptor atom, score
      L1  H     3    19       P1 10957  1.00
      L1  H     9    22       P1 10957  0.69
      L1  H    13    37       P1 10747  1.00
      P1  H 11000 11005       L1     5  0.93

> <Gold.PLP.Chemscore.Internal.Correction>
0.0093

> <Gold.Rescore>
     Score         DG    S(hbond)    S(metal)    S(lipo)     H(rot)  DE(clash)    DE(int)     intcor
     19.66     -20.87       2.99        0.00      68.21       1.00       0.02       1.20       ----

> <Gold.Chemscore.Fitness>
19.6574

> <Gold.Chemscore.DG>
-20.8735

> <Gold.Chemscore.ZeroCoef>
-5.4800

> <Gold.Chemscore.Hbond>
2.9858

> <Gold.Chemscore.Metal>
0.0000

> <Gold.Chemscore.Lipo>
68.2133

> <Gold.Chemscore.Internal_Hbond>
0.0000

> <Gold.Chemscore.DEClash>
0.0174

> <Gold.Chemscore.DEInternal>
1.1986

> <Gold.Chemscore.Rot>
1.0000

> <Gold.Chemscore.Internal.Correction>
   9.000000E+99

> <Gold.Chemscore.Hbonds>
donor molecule, donor type, donor heavy atom, donor atom, acceptor molecule, acceptor atom, score
      L1  H     3    19       P1 10957  0.97
      L1  H     9    22       P1 10957  0.07
      L1  H    13    37       P1 10747  0.96
      P1  H 11000 11005       L1     5  0.75

> <Gold.Chemscore.Hbond.Weighted>
-9.9725

> <Gold.Chemscore.Metal.Weighted>
-0.0000

> <Gold.Chemscore.Lipo.Weighted>
-7.9810

> <Gold.Chemscore.Internal_Hbond.Weighted>
0.0000

> <Gold.Chemscore.DEClash.Weighted>
0.0174

> <Gold.Chemscore.DEInternal.Weighted>
1.1986

> <Gold.Chemscore.Rot.Weighted>
2.5600

> <Gold.Chemscore.Internal.Correction.Weighted>
   9.000000E+99

> <Gold.Protein.RotatedTorsions>
[ 6907 6896 6895 6894 ] final -154.84 input  -60.11 | X-H torsion
[ 7974 7965 7964 7962 ] final  115.95 input  175.53 | X-H torsion
[ 8008 7997 7996 7995 ] final   83.12 input   59.86 | X-H torsion
[ 10167 10162 10161 10158 ] final  -77.68 input  -65.29 | X-H torsion
[ 10718 10713 10712 10709 ] final  -22.96 input   66.30 | X-H torsion
[ 10763 10752 10751 10750 ] final   52.52 input  -60.55 | X-H torsion
[ 11005 11000 10999 10996 ] final   33.24 input  -57.11 | X-H torsion

> <Gold.Protein.ActiveResidues>
 VAL166  LYS551  ARG553  GLY616  TRP617  ASP618  TYR619  PRO620  LYS621  CYS622 
 ASP623  PHE694  ASN695  SER759  ASP760  ASP761  ALA762  ILE779  LEU786  VAL792 
 PHE793  MET794  SER795  GLU796  ALA797  LYS798  CYS799  TRP800  GLU811  SER814 

> <Gold.Protein.RotatedAtoms>
  151.2636  133.4290  159.2617 H   0  0  0  0  0  0  0  0  0  0  0  0  # atno 6907 bound_to 6896
  151.0509  134.9672  159.8221 H   0  0  0  0  0  0  0  0  0  0  0  0  # atno 6908 bound_to 6896
  152.5382  134.2590  159.8980 H   0  0  0  0  0  0  0  0  0  0  0  0  # atno 6909 bound_to 6896
  145.1856  139.3027  143.4395 H   0  0  0  0  0  0  0  0  0  0  0  0  # atno 7974 bound_to 7965
  155.9197  140.3422  155.6163 H   0  0  0  0  0  0  0  0  0  0  0  0  # atno 8008 bound_to 7997
  155.7288  140.0793  157.2317 H   0  0  0  0  0  0  0  0  0  0  0  0  # atno 8009 bound_to 7997
  154.4068  140.1592  156.2472 H   0  0  0  0  0  0  0  0  0  0  0  0  # atno 8010 bound_to 7997
  140.4749  143.2417  151.8148 H   0  0  0  0  0  0  0  0  0  0  0  0  # atno 10167 bound_to 10162
  156.4975  130.4580  149.6720 H   0  0  0  0  0  0  0  0  0  0  0  0  # atno 10718 bound_to 10713
  152.9789  135.5809  154.4592 H   0  0  0  0  0  0  0  0  0  0  0  0  # atno 10763 bound_to 10752
  154.4171  135.2771  155.2002 H   0  0  0  0  0  0  0  0  0  0  0  0  # atno 10764 bound_to 10752
  154.3767  135.6156  153.5822 H   0  0  0  0  0  0  0  0  0  0  0  0  # atno 10765 bound_to 10752
  140.2652  134.3146  155.7845 H   0  0  0  0  0  0  0  0  0  0  0  0  # atno 11005 bound_to 11000
  146.3445  140.2051  142.8589 LP  0  0  0  0  0  0  0  0  0  0  0  0  # atno 17320 bound_to 7965
  145.0092  140.8699  143.5234 LP  0  0  0  0  0  0  0  0  0  0  0  0  # atno 17321 bound_to 7965
  139.4824  144.4845  151.9264 LP  0  0  0  0  0  0  0  0  0  0  0  0  # atno 17342 bound_to 10162
  140.3931  144.2590  150.5898 LP  0  0  0  0  0  0  0  0  0  0  0  0  # atno 17343 bound_to 10162
  156.3365  130.7359  151.2297 LP  0  0  0  0  0  0  0  0  0  0  0  0  # atno 17370 bound_to 10713
  157.7467  131.0415  150.4651 LP  0  0  0  0  0  0  0  0  0  0  0  0  # atno 17371 bound_to 10713
  141.2185  133.7433  156.9249 LP  0  0  0  0  0  0  0  0  0  0  0  0  # atno 17394 bound_to 11000
  140.1426  134.9283  157.2487 LP  0  0  0  0  0  0  0  0  0  0  0  0  # atno 17395 bound_to 11000

$$$$
