AV-unprocessed.smi:1859|AV-procd|sdf|7543|dock6
  -GOLD-   22720 9253D 1   1.00000     0.00000
 Structure written by MMmdl.
 45 47  0  0  0  0  0  0  0  0  1 V2000
  148.6184  139.5897  158.0173 O   0  0  0  0  0  0  0  0  0  0  0  0
  148.7996  139.0235  156.9392 C   0  0  0  0  0  0  0  0  0  0  0  0
  148.5839  137.7103  156.7591 N   0  0  0  0  0  0  0  0  0  0  0  0
  148.1389  136.7734  157.7881 C   0  0  0  0  0  0  0  0  0  0  0  0
  148.8023  137.0346  159.1534 C   0  0  0  0  0  0  0  0  0  0  0  0
  148.2078  136.2269  160.2949 C   0  0  0  0  0  0  0  0  0  0  0  0
  148.1485  134.8183  160.2284 C   0  0  0  0  0  0  0  0  0  0  0  0
  147.5986  134.1184  161.3194 C   0  0  0  0  0  0  0  0  0  0  0  0
  147.1257  134.8496  162.4260 C   0  0  0  0  0  0  0  0  0  0  0  0
  147.2244  136.2545  162.3923 C   0  0  0  0  0  0  0  0  0  0  0  0
  147.7596  136.9352  161.3560 N   0  0  0  0  0  0  0  0  0  0  0  0
  149.3047  139.8073  155.7121 C   0  0  2  0  0  0  0  0  0  0  0  0
  149.8877  138.8676  154.6256 C   0  0  0  0  0  0  0  0  0  0  0  0
  151.3295  138.4042  154.9219 C   0  0  0  0  0  0  0  0  0  0  0  0
  152.2185  139.6039  155.2842 C   0  0  0  0  0  0  0  0  0  0  0  0
  151.6303  140.3078  156.4317 N   0  0  0  0  0  0  0  0  0  0  0  0
  152.1777  140.4133  157.6679 C   0  0  0  0  0  0  0  0  0  0  0  0
  153.1092  139.6922  158.0266 O   0  0  0  0  0  0  0  0  0  0  0  0
  151.6425  141.4835  158.5755 C   0  0  0  0  0  0  0  0  0  0  0  0
  152.5665  142.6282  158.9494 C   0  0  0  0  0  0  0  0  0  0  0  0
  152.2326  141.5680  159.9674 C   0  0  0  0  0  0  0  0  0  0  0  0
  150.3318  140.9081  156.0870 C   0  0  0  0  0  0  0  0  0  0  0  0
  148.7559  137.3270  155.8410 H   0  0  0  0  0  0  0  0  0  0  0  0
  147.0583  136.8759  157.8874 H   0  0  0  0  0  0  0  0  0  0  0  0
  148.3146  135.7422  157.4773 H   0  0  0  0  0  0  0  0  0  0  0  0
  149.8703  136.8238  159.0855 H   0  0  0  0  0  0  0  0  0  0  0  0
  148.7217  138.0939  159.3999 H   0  0  0  0  0  0  0  0  0  0  0  0
  148.5143  134.2848  159.3635 H   0  0  0  0  0  0  0  0  0  0  0  0
  147.5336  133.0406  161.3049 H   0  0  0  0  0  0  0  0  0  0  0  0
  146.6896  134.3463  163.2761 H   0  0  0  0  0  0  0  0  0  0  0  0
  146.8673  136.8469  163.2216 H   0  0  0  0  0  0  0  0  0  0  0  0
  148.4379  140.3071  155.2761 H   0  0  0  0  0  0  0  0  0  0  0  0
  149.2429  137.9994  154.4807 H   0  0  0  0  0  0  0  0  0  0  0  0
  149.8843  139.3995  153.6734 H   0  0  0  0  0  0  0  0  0  0  0  0
  151.3365  137.6809  155.7376 H   0  0  0  0  0  0  0  0  0  0  0  0
  151.7368  137.8869  154.0528 H   0  0  0  0  0  0  0  0  0  0  0  0
  153.2495  139.2908  155.4421 H   0  0  0  0  0  0  0  0  0  0  0  0
  152.2647  140.2913  154.4381 H   0  0  0  0  0  0  0  0  0  0  0  0
  150.6009  141.7711  158.4514 H   0  0  0  0  0  0  0  0  0  0  0  0
  153.5813  142.6418  158.5556 H   0  0  0  0  0  0  0  0  0  0  0  0
  152.1106  143.6091  159.0671 H   0  0  0  0  0  0  0  0  0  0  0  0
  151.5529  141.8289  160.7759 H   0  0  0  0  0  0  0  0  0  0  0  0
  153.0217  140.8679  160.2366 H   0  0  0  0  0  0  0  0  0  0  0  0
  150.4694  141.5866  155.2438 H   0  0  0  0  0  0  0  0  0  0  0  0
  149.9257  141.5257  156.8901 H   0  0  0  0  0  0  0  0  0  0  0  0
  1  2  2  0  0  0  0
  2  3  1  0  0  0  0
  2 12  1  0  0  0  0
  3  4  1  0  0  0  0
  3 23  1  0  0  0  0
  4  5  1  0  0  0  0
  4 24  1  0  0  0  0
  4 25  1  0  0  0  0
  5  6  1  0  0  0  0
  5 26  1  0  0  0  0
  5 27  1  0  0  0  0
  6 11  1  0  0  0  0
  6  7  2  0  0  0  0
  7  8  1  0  0  0  0
  7 28  1  0  0  0  0
  8  9  2  0  0  0  0
  8 29  1  0  0  0  0
  9 10  1  0  0  0  0
  9 30  1  0  0  0  0
 10 11  2  0  0  0  0
 10 31  1  0  0  0  0
 12 22  1  0  0  0  0
 12 13  1  0  0  0  0
 12 32  1  0  0  0  0
 13 14  1  0  0  0  0
 13 33  1  0  0  0  0
 13 34  1  0  0  0  0
 14 15  1  0  0  0  0
 14 35  1  0  0  0  0
 14 36  1  0  0  0  0
 15 16  1  0  0  0  0
 15 37  1  0  0  0  0
 15 38  1  0  0  0  0
 16 17  1  0  0  0  0
 16 22  1  0  0  0  0
 17 18  2  0  0  0  0
 17 19  1  0  0  0  0
 19 21  1  0  0  0  0
 19 20  1  0  0  0  0
 19 39  1  0  0  0  0
 20 21  1  0  0  0  0
 20 40  1  0  0  0  0
 20 41  1  0  0  0  0
 21 42  1  0  0  0  0
 21 43  1  0  0  0  0
 22 44  1  0  0  0  0
 22 45  1  0  0  0  0
M  END
> <s_m_source_file>
AV-unprocessed.smi

> <i_m_source_file_index>
1859

> <i_lp_mmshare_version>
43012

> <i_f3d_flags>
0

> <s_epik_input>
W0NIMl0xW0NIMl1bQ0hdMUMoPU8pTihbQ0gyXTIpW0NIMl1bQ0gyXVtDSDJdW0NASF0yQyg9TylbTkhdW0NIMl1bQ0gyXWMzW2NIXVtjSF1bY0hdW2NIXW4z

> <s_epik_cmdline>
J2VwaWtfcHl0aG9uJywgJy1waCcsICc3LjAnLCAnLXRuJywgJzgnLCAnLW1hJywgJzIwMCcsICctbWV0YWxfYmluZGluZycsICctaW1hZScsICc8aW5maWxlLm1hZT4nLCAnLW9tYWUnLCAnPG91dGZpbGUubWFlPic=

> <r_epik_Ionization_Penalty>
0.0268048

> <r_epik_Ionization_Penalty_Charging>
0

> <r_epik_Ionization_Penalty_Neutral>
0.0268048

> <r_epik_State_Penalty>
0.0219025

> <r_epik_Charging_Adjusted_Penalty>
0.0219025

> <i_epik_Tot_Q>
0

> <i_epik_Tot_abs_Q>
0

> <r_epik_Metal_State_Penalty>
0.020951

> <b_epik_Metal_Only>
0

> <s_lp_Force_Field>
OPLS_2005

> <r_lp_Energy>
24.9831

> <b_lp_Chiralities_Consistent>
1

> <s_lp_Variant>
AV-unprocessed.smi:1859-1

> <Gold.Version>
5.8.1

> <Gold.Id.Protein>
6NUR|6NUR_protein|mol2

> <Gold.PLP.Fitness>
50.8022

> <Gold.PLP.PLP>
-43.8712

> <Gold.PLP.part.hbond>
-3.5173

> <Gold.PLP.part.metal>
0.0000

> <Gold.PLP.part.buried>
-4.0049

> <Gold.PLP.part.nonpolar>
-35.9535

> <Gold.PLP.part.repulsive>
0.0058

> <Gold.PLP.ligand.clash>
0.0000

> <Gold.PLP.ligand.torsion>
0.9178

> <Gold.PLP.Chemscore.Hbond>
2.8000

> <Gold.PLP.Chemscore.CHOScore>
0.0000

> <Gold.PLP.Chemscore.Metal>
0.0000

> <Gold.Chemscore.Hbonds>
donor molecule, donor type, donor heavy atom, donor atom, acceptor molecule, acceptor atom, score
      P1  H  6931  6943       L1    11  1.00
      P1  H  6934  6947       L1    11  0.47
      P1  H  7997  8010       L1    18  1.00

> <Gold.PLP.Chemscore.Internal.Correction>
0.3665

> <Gold.Rescore>
     Score         DG    S(hbond)    S(metal)    S(lipo)     H(rot)  DE(clash)    DE(int)     intcor
     18.18     -20.65       2.11        0.00     104.23       1.59       0.10       2.38       ----

> <Gold.Chemscore.Fitness>
18.1763

> <Gold.Chemscore.DG>
-20.6530

> <Gold.Chemscore.ZeroCoef>
-5.4800

> <Gold.Chemscore.Hbond>
2.1135

> <Gold.Chemscore.Metal>
0.0000

> <Gold.Chemscore.Lipo>
104.2321

> <Gold.Chemscore.Internal_Hbond>
0.0000

> <Gold.Chemscore.DEClash>
0.0997

> <Gold.Chemscore.DEInternal>
2.3770

> <Gold.Chemscore.Rot>
1.5943

> <Gold.Chemscore.Internal.Correction>
   9.000000E+99

> <Gold.Chemscore.Hbonds>
donor molecule, donor type, donor heavy atom, donor atom, acceptor molecule, acceptor atom, score
      P1  H  6931  6943       L1    11  0.69
      P1  H  6934  6947       L1    11  0.42
      P1  H  7997  8010       L1    18  0.85

> <Gold.Chemscore.Hbond.Weighted>
-7.0592

> <Gold.Chemscore.Metal.Weighted>
-0.0000

> <Gold.Chemscore.Lipo.Weighted>
-12.1952

> <Gold.Chemscore.Internal_Hbond.Weighted>
0.0000

> <Gold.Chemscore.DEClash.Weighted>
0.0997

> <Gold.Chemscore.DEInternal.Weighted>
2.3770

> <Gold.Chemscore.Rot.Weighted>
4.0814

> <Gold.Chemscore.Internal.Correction.Weighted>
   9.000000E+99

> <Gold.Protein.RotatedTorsions>
[ 6907 6896 6895 6894 ] final -119.51 input  -60.11 | X-H torsion
[ 7974 7965 7964 7962 ] final -157.67 input  175.53 | X-H torsion
[ 8008 7997 7996 7995 ] final   22.97 input   59.86 | X-H torsion
[ 10167 10162 10161 10158 ] final  133.61 input  -65.29 | X-H torsion
[ 10718 10713 10712 10709 ] final   40.57 input   66.30 | X-H torsion
[ 10763 10752 10751 10750 ] final  -12.20 input  -60.55 | X-H torsion
[ 11005 11000 10999 10996 ] final -161.57 input  -57.11 | X-H torsion

> <Gold.Protein.ActiveResidues>
 VAL166  LYS551  ARG553  GLY616  TRP617  ASP618  TYR619  PRO620  LYS621  CYS622 
 ASP623  PHE694  ASN695  SER759  ASP760  ASP761  ALA762  ILE779  LEU786  VAL792 
 PHE793  MET794  SER795  GLU796  ALA797  LYS798  CYS799  TRP800  GLU811  SER814 

> <Gold.Protein.RotatedAtoms>
  150.8311  133.8089  159.3098 H   0  0  0  0  0  0  0  0  0  0  0  0  # atno 6907 bound_to 6896
  151.5819  135.1056  160.0029 H   0  0  0  0  0  0  0  0  0  0  0  0  # atno 6908 bound_to 6896
  152.4390  133.7372  159.6677 H   0  0  0  0  0  0  0  0  0  0  0  0  # atno 6909 bound_to 6896
  144.7538  140.3936  143.6028 H   0  0  0  0  0  0  0  0  0  0  0  0  # atno 7974 bound_to 7965
  154.9739  140.3093  155.4976 H   0  0  0  0  0  0  0  0  0  0  0  0  # atno 8008 bound_to 7997
  156.2962  140.2279  156.4772 H   0  0  0  0  0  0  0  0  0  0  0  0  # atno 8009 bound_to 7997
  154.7852  140.0443  157.1146 H   0  0  0  0  0  0  0  0  0  0  0  0  # atno 8010 bound_to 7997
  139.5290  144.6607  151.5020 H   0  0  0  0  0  0  0  0  0  0  0  0  # atno 10167 bound_to 10162
  157.3836  130.7767  149.7213 H   0  0  0  0  0  0  0  0  0  0  0  0  # atno 10718 bound_to 10713
  153.4950  135.7017  153.5863 H   0  0  0  0  0  0  0  0  0  0  0  0  # atno 10763 bound_to 10752
  153.4019  135.3870  155.1993 H   0  0  0  0  0  0  0  0  0  0  0  0  # atno 10764 bound_to 10752
  154.8714  135.3883  154.4414 H   0  0  0  0  0  0  0  0  0  0  0  0  # atno 10765 bound_to 10752
  140.6189  134.4771  157.5222 H   0  0  0  0  0  0  0  0  0  0  0  0  # atno 11005 bound_to 11000
  145.6850  139.1626  143.2679 LP  0  0  0  0  0  0  0  0  0  0  0  0  # atno 17320 bound_to 7965
  146.1523  140.6908  142.9316 LP  0  0  0  0  0  0  0  0  0  0  0  0  # atno 17321 bound_to 7965
  140.6454  143.8804  150.6732 LP  0  0  0  0  0  0  0  0  0  0  0  0  # atno 17342 bound_to 10162
  140.2152  143.3852  152.1687 LP  0  0  0  0  0  0  0  0  0  0  0  0  # atno 17343 bound_to 10162
  155.9781  130.4055  150.3667 LP  0  0  0  0  0  0  0  0  0  0  0  0  # atno 17370 bound_to 10713
  157.1774  131.0384  151.2765 LP  0  0  0  0  0  0  0  0  0  0  0  0  # atno 17371 bound_to 10713
  139.9161  134.8243  156.1361 LP  0  0  0  0  0  0  0  0  0  0  0  0  # atno 17394 bound_to 11000
  141.0756  133.6777  156.2229 LP  0  0  0  0  0  0  0  0  0  0  0  0  # atno 17395 bound_to 11000

$$$$
