AV-unprocessed.smi:223|AV-procd|sdf|1705|dock9
  -GOLD-   2262020163D 1   1.00000     0.00000
 Structure written by MMmdl.
 47 50  0  0  0  0  0  0  0  0  1 V2000
  148.6247  141.2650  156.2906 C   0  0  0  0  0  0  0  0  0  0  0  0
  148.6893  141.4793  154.7740 C   0  0  2  0  0  0  0  0  0  0  0  0
  147.4104  142.0002  154.2649 C   0  0  0  0  0  0  0  0  0  0  0  0
  146.4047  142.4092  153.8652 N   0  0  0  0  0  0  0  0  0  0  0  0
  149.0928  140.1835  154.0452 C   0  0  0  0  0  0  0  0  0  0  0  0
  149.1506  139.0260  154.9372 N   0  0  0  0  0  0  0  0  0  0  0  0
  148.2555  138.0027  154.7956 C   0  0  0  0  0  0  0  0  0  0  0  0
  148.2589  137.0350  155.7513 N   0  0  0  0  0  0  0  0  0  0  0  0
  147.4124  136.0049  155.6965 C   0  0  0  0  0  0  0  0  0  0  0  0
  146.4810  135.7429  154.7818 N   0  0  0  0  0  0  0  0  0  0  0  0
  146.4604  136.7002  153.8124 C   0  0  0  0  0  0  0  0  0  0  0  0
  147.3050  137.8483  153.7348 C   0  0  0  0  0  0  0  0  0  0  0  0
  146.9869  138.5652  152.5838 N   0  0  0  0  0  0  0  0  0  0  0  0
  146.0144  137.8959  152.0310 C   0  0  0  0  0  0  0  0  0  0  0  0
  145.6259  136.7660  152.7099 N   0  0  0  0  0  0  0  0  0  0  0  0
  144.5724  135.8372  152.3273 C   0  0  0  0  0  0  0  0  0  0  0  0
  144.8967  135.0195  151.0541 C   0  0  2  0  0  0  0  0  0  0  0  0
  144.8497  135.8772  149.9271 O   0  0  0  0  0  0  0  0  0  0  0  0
  143.9219  133.8721  150.8225 C   0  0  0  0  0  0  0  0  0  0  0  0
  144.7679  132.8626  150.0587 C   0  0  0  0  0  0  0  0  0  0  0  0
  146.0287  132.9539  150.7004 O   0  0  0  0  0  0  0  0  0  0  0  0
  146.2665  134.3099  151.0685 C   0  0  0  0  0  0  0  0  0  0  0  0
  150.4734  138.6652  155.4484 C   0  0  0  0  0  0  0  0  0  0  0  0
  151.6338  139.6260  155.2757 C   0  0  0  0  0  0  0  0  0  0  0  0
  151.5837  138.3590  154.4642 C   0  0  0  0  0  0  0  0  0  0  0  0
  148.3626  142.1897  156.8050 H   0  0  0  0  0  0  0  0  0  0  0  0
  149.5866  140.9306  156.6800 H   0  0  0  0  0  0  0  0  0  0  0  0
  147.8776  140.5148  156.5515 H   0  0  0  0  0  0  0  0  0  0  0  0
  149.4217  142.2610  154.5778 H   0  0  0  0  0  0  0  0  0  0  0  0
  148.4250  139.9739  153.2108 H   0  0  0  0  0  0  0  0  0  0  0  0
  150.0706  140.3354  153.5874 H   0  0  0  0  0  0  0  0  0  0  0  0
  147.4913  135.2901  156.5022 H   0  0  0  0  0  0  0  0  0  0  0  0
  145.5520  138.2126  151.1075 H   0  0  0  0  0  0  0  0  0  0  0  0
  144.3939  135.1652  153.1677 H   0  0  0  0  0  0  0  0  0  0  0  0
  143.6498  136.4023  152.1881 H   0  0  0  0  0  0  0  0  0  0  0  0
  145.5092  135.5987  149.3104 H   0  0  0  0  0  0  0  0  0  0  0  0
  143.6189  133.4335  151.7744 H   0  0  0  0  0  0  0  0  0  0  0  0
  143.0165  134.1649  150.2892 H   0  0  0  0  0  0  0  0  0  0  0  0
  144.3645  131.8510  150.1047 H   0  0  0  0  0  0  0  0  0  0  0  0
  144.8679  133.1481  149.0103 H   0  0  0  0  0  0  0  0  0  0  0  0
  146.9799  134.7698  150.3825 H   0  0  0  0  0  0  0  0  0  0  0  0
  146.7207  134.3100  152.0588 H   0  0  0  0  0  0  0  0  0  0  0  0
  150.4757  138.0771  156.3643 H   0  0  0  0  0  0  0  0  0  0  0  0
  151.4531  140.5599  154.7470 H   0  0  0  0  0  0  0  0  0  0  0  0
  152.3622  139.6809  156.0819 H   0  0  0  0  0  0  0  0  0  0  0  0
  152.2809  137.5660  154.7264 H   0  0  0  0  0  0  0  0  0  0  0  0
  151.3724  138.4604  153.4013 H   0  0  0  0  0  0  0  0  0  0  0  0
  1  2  1  0  0  0  0
  1 26  1  0  0  0  0
  1 27  1  0  0  0  0
  1 28  1  0  0  0  0
  2  3  1  0  0  0  0
  2  5  1  0  0  0  0
  2 29  1  0  0  0  0
  3  4  3  0  0  0  0
  5  6  1  0  0  0  0
  5 30  1  0  0  0  0
  5 31  1  0  0  0  0
  6  7  1  0  0  0  0
  6 23  1  0  0  0  0
  7 12  1  0  0  0  0
  7  8  2  0  0  0  0
  8  9  1  0  0  0  0
  9 10  2  0  0  0  0
  9 32  1  0  0  0  0
 10 11  1  0  0  0  0
 11 15  1  0  0  0  0
 11 12  2  0  0  0  0
 12 13  1  0  0  0  0
 13 14  2  0  0  0  0
 14 15  1  0  0  0  0
 14 33  1  0  0  0  0
 15 16  1  0  0  0  0
 16 17  1  0  0  0  0
 16 34  1  0  0  0  0
 16 35  1  0  0  0  0
 17 22  1  0  0  0  0
 17 18  1  0  0  0  0
 17 19  1  0  0  0  0
 18 36  1  0  0  0  0
 19 20  1  0  0  0  0
 19 37  1  0  0  0  0
 19 38  1  0  0  0  0
 20 21  1  0  0  0  0
 20 39  1  0  0  0  0
 20 40  1  0  0  0  0
 21 22  1  0  0  0  0
 22 41  1  0  0  0  0
 22 42  1  0  0  0  0
 23 25  1  0  0  0  0
 23 24  1  0  0  0  0
 23 43  1  0  0  0  0
 24 25  1  0  0  0  0
 24 44  1  0  0  0  0
 24 45  1  0  0  0  0
 25 46  1  0  0  0  0
 25 47  1  0  0  0  0
M  END
> <s_m_source_file>
AV-unprocessed.smi

> <i_m_source_file_index>
223

> <i_lp_mmshare_version>
43012

> <i_f3d_flags>
0

> <s_epik_input>
TiNDW0NAQEhdKFtDSDNdKVtDSDJdTihbQ0hdMVtDSDJdW0NIMl0xKWMobltjSF1uMiljKGMyMyluW2NIXW4zW0NIMl1bQ0BAXTQoW09IXSlbQ0gyXVtDSDJdT1tDSDJdNA==

> <s_epik_cmdline>
J2VwaWtfcHl0aG9uJywgJy1waCcsICc3LjAnLCAnLXRuJywgJzgnLCAnLW1hJywgJzIwMCcsICctbWV0YWxfYmluZGluZycsICctaW1hZScsICc8aW5maWxlLm1hZT4nLCAnLW9tYWUnLCAnPG91dGZpbGUubWFlPic=

> <r_lp_tautomer_probability>
1

> <r_epik_Ionization_Penalty>
0.000756152

> <r_epik_Ionization_Penalty_Charging>
0

> <r_epik_Ionization_Penalty_Neutral>
0.000756152

> <r_epik_State_Penalty>
0.00038036

> <r_epik_Charging_Adjusted_Penalty>
0.00038036

> <i_epik_Tot_Q>
0

> <i_epik_Tot_abs_Q>
0

> <r_epik_Metal_State_Penalty>
-0

> <b_epik_Metal_Only>
0

> <s_lp_Force_Field>
OPLS_2005

> <r_lp_Energy>
38.8251

> <b_lp_Chiralities_Consistent>
1

> <s_lp_Variant>
AV-unprocessed.smi:223-3

> <Gold.Version>
5.8.1

> <Gold.Id.Protein>
6NUR|6NUR_protein|mol2

> <Gold.PLP.Fitness>
39.0204

> <Gold.PLP.PLP>
-35.1190

> <Gold.PLP.part.hbond>
-2.0000

> <Gold.PLP.part.metal>
0.0000

> <Gold.PLP.part.buried>
-1.6449

> <Gold.PLP.part.nonpolar>
-33.2661

> <Gold.PLP.part.repulsive>
0.9441

> <Gold.PLP.ligand.clash>
0.0000

> <Gold.PLP.ligand.torsion>
1.7347

> <Gold.PLP.Chemscore.Hbond>
1.0000

> <Gold.PLP.Chemscore.CHOScore>
1.0000

> <Gold.PLP.Chemscore.Metal>
0.0000

> <Gold.Chemscore.Hbonds>
donor molecule, donor type, donor heavy atom, donor atom, acceptor molecule, acceptor atom, score
      L1  H    18    36       P1  7921  1.00
      L1  C    14    33       P1 10171  1.00

> <Gold.PLP.Chemscore.Internal.Correction>
1.3709

> <Gold.Rescore>
     Score         DG    S(hbond)    S(metal)    S(lipo)     H(rot)  DE(clash)    DE(int)     intcor
      7.43     -10.47       0.99        0.00      73.69       2.72       0.38       2.65       ----

> <Gold.Chemscore.Fitness>
7.4325

> <Gold.Chemscore.DG>
-10.4655

> <Gold.Chemscore.ZeroCoef>
-5.4800

> <Gold.Chemscore.Hbond>
0.9939

> <Gold.Chemscore.Metal>
0.0000

> <Gold.Chemscore.Lipo>
73.6893

> <Gold.Chemscore.Internal_Hbond>
0.0000

> <Gold.Chemscore.DEClash>
0.3825

> <Gold.Chemscore.DEInternal>
2.6505

> <Gold.Chemscore.Rot>
2.7171

> <Gold.Chemscore.Internal.Correction>
   9.000000E+99

> <Gold.Chemscore.Hbonds>
donor molecule, donor type, donor heavy atom, donor atom, acceptor molecule, acceptor atom, score
      L1  H    18    36       P1  7921  0.97

> <Gold.Chemscore.Hbond.Weighted>
-3.3196

> <Gold.Chemscore.Metal.Weighted>
-0.0000

> <Gold.Chemscore.Lipo.Weighted>
-8.6217

> <Gold.Chemscore.Internal_Hbond.Weighted>
0.0000

> <Gold.Chemscore.DEClash.Weighted>
0.3825

> <Gold.Chemscore.DEInternal.Weighted>
2.6505

> <Gold.Chemscore.Rot.Weighted>
6.9558

> <Gold.Chemscore.Internal.Correction.Weighted>
   9.000000E+99

> <Gold.Protein.RotatedTorsions>
[ 6907 6896 6895 6894 ] final  -33.62 input  -60.11 | X-H torsion
[ 7974 7965 7964 7962 ] final   64.86 input  175.53 | X-H torsion
[ 8008 7997 7996 7995 ] final -107.27 input   59.86 | X-H torsion
[ 10167 10162 10161 10158 ] final   42.32 input  -65.29 | X-H torsion
[ 10718 10713 10712 10709 ] final -135.61 input   66.30 | X-H torsion
[ 10763 10752 10751 10750 ] final   69.18 input  -60.55 | X-H torsion
[ 11005 11000 10999 10996 ] final   79.54 input  -57.11 | X-H torsion

> <Gold.Protein.ActiveResidues>
 VAL166  LYS551  ARG553  GLY616  TRP617  ASP618  TYR619  PRO620  LYS621  CYS622 
 ASP623  PHE694  ASN695  SER759  ASP760  ASP761  ALA762  ILE779  LEU786  VAL792 
 PHE793  MET794  SER795  GLU796  ALA797  LYS798  CYS799  TRP800  GLU811  SER814 

> <Gold.Protein.RotatedAtoms>
  151.0632  134.9750  159.8270 H   0  0  0  0  0  0  0  0  0  0  0  0  # atno 6907 bound_to 6896
  152.5398  134.2391  159.8865 H   0  0  0  0  0  0  0  0  0  0  0  0  # atno 6908 bound_to 6896
  151.2412  133.4355  159.2641 H   0  0  0  0  0  0  0  0  0  0  0  0  # atno 6909 bound_to 6896
  145.8453  139.3220  143.0907 H   0  0  0  0  0  0  0  0  0  0  0  0  # atno 7974 bound_to 7965
  154.9269  140.0406  157.2027 H   0  0  0  0  0  0  0  0  0  0  0  0  # atno 8008 bound_to 7997
  154.8199  140.2882  155.5772 H   0  0  0  0  0  0  0  0  0  0  0  0  # atno 8009 bound_to 7997
  156.2979  140.2521  156.3104 H   0  0  0  0  0  0  0  0  0  0  0  0  # atno 8010 bound_to 7997
  140.3556  144.2294  150.6142 H   0  0  0  0  0  0  0  0  0  0  0  0  # atno 10167 bound_to 10162
  156.2680  130.7249  151.1206 H   0  0  0  0  0  0  0  0  0  0  0  0  # atno 10718 bound_to 10713
  153.0273  135.5220  154.7249 H   0  0  0  0  0  0  0  0  0  0  0  0  # atno 10763 bound_to 10752
  154.6293  135.2898  155.0237 H   0  0  0  0  0  0  0  0  0  0  0  0  # atno 10764 bound_to 10752
  154.1195  135.6610  153.4953 H   0  0  0  0  0  0  0  0  0  0  0  0  # atno 10765 bound_to 10752
  139.9169  134.7850  156.1792 H   0  0  0  0  0  0  0  0  0  0  0  0  # atno 11005 bound_to 11000
  145.9419  140.8973  143.0303 LP  0  0  0  0  0  0  0  0  0  0  0  0  # atno 17320 bound_to 7965
  144.6731  140.1561  143.7426 LP  0  0  0  0  0  0  0  0  0  0  0  0  # atno 17321 bound_to 7965
  140.5177  143.2274  151.8438 LP  0  0  0  0  0  0  0  0  0  0  0  0  # atno 17342 bound_to 10162
  139.4820  144.4874  151.9228 LP  0  0  0  0  0  0  0  0  0  0  0  0  # atno 17343 bound_to 10162
  157.7274  131.0639  150.5867 LP  0  0  0  0  0  0  0  0  0  0  0  0  # atno 17370 bound_to 10713
  156.5961  130.4342  149.5916 LP  0  0  0  0  0  0  0  0  0  0  0  0  # atno 17371 bound_to 10713
  141.0653  133.6822  156.2032 LP  0  0  0  0  0  0  0  0  0  0  0  0  # atno 17394 bound_to 11000
  140.6596  134.4982  157.5582 LP  0  0  0  0  0  0  0  0  0  0  0  0  # atno 17395 bound_to 11000

$$$$
