AV-unprocessed.smi:514|AV-procd|sdf|2778|dock6
  -GOLD-   2262023243D 1   1.00000     0.00000
 Structure written by MMmdl.
 45 47  0  0  0  0  0  0  0  0  3 V2000
  148.6271  141.6846  155.2748 C   0  0  0  0  0  0  0  0  0  0  0  0
  149.7643  141.2188  156.1867 C   0  0  0  0  0  0  0  0  0  0  0  0
  149.3866  141.4297  157.5365 O   0  0  0  0  0  0  0  0  0  0  0  0
  150.2446  140.7721  158.4533 C   0  0  0  0  0  0  0  0  0  0  0  0
  151.6782  141.2833  158.2366 C   0  0  0  0  0  0  0  0  0  0  0  0
  152.6163  140.7431  159.2171 N   0  0  0  0  0  0  0  0  0  0  0  0
  153.4305  141.4096  160.0873 C   0  0  0  0  0  0  0  0  0  0  0  0
  153.4785  142.8075  160.1970 N   0  0  0  0  0  0  0  0  0  0  0  0
  153.7763  143.6839  159.0628 C   0  0  0  0  0  0  0  0  0  0  0  0
  152.7426  144.8169  158.9314 C   0  0  0  0  0  0  0  0  0  0  0  0
  152.6680  145.6008  160.1805 N   0  3  0  0  0  0  0  0  0  0  0  0
  152.4487  144.7507  161.3675 C   0  0  0  0  0  0  0  0  0  0  0  0
  153.4904  143.6173  161.4177 C   0  0  0  0  0  0  0  0  0  0  0  0
  154.2205  140.6141  160.8125 N   0  0  0  0  0  0  0  0  0  0  0  0
  153.8734  139.3420  160.3899 C   0  0  0  0  0  0  0  0  0  0  0  0
  152.9171  139.3916  159.4259 C   0  0  0  0  0  0  0  0  0  0  0  0
  152.3666  138.1913  158.7554 C   0  0  0  0  0  0  0  0  0  0  0  0
  151.5213  138.2901  157.8685 O   0  0  0  0  0  0  0  0  0  0  0  0
  152.9110  137.0309  159.2409 N   0  5  0  0  0  0  0  0  0  0  0  0
  153.8755  136.9365  160.2208 C   0  0  0  0  0  0  0  0  0  0  0  0
  154.3121  135.8493  160.6013 O   0  0  0  0  0  0  0  0  0  0  0  0
  154.3729  138.0753  160.7977 N   0  0  0  0  0  0  0  0  0  0  0  0
  155.4068  138.0067  161.8343 C   0  0  0  0  0  0  0  0  0  0  0  0
  148.8845  141.5372  154.2259 H   0  0  0  0  0  0  0  0  0  0  0  0
  148.4171  142.7441  155.4221 H   0  0  0  0  0  0  0  0  0  0  0  0
  147.7109  141.1293  155.4767 H   0  0  0  0  0  0  0  0  0  0  0  0
  149.9703  140.1616  156.0134 H   0  0  0  0  0  0  0  0  0  0  0  0
  150.6747  141.7754  155.9592 H   0  0  0  0  0  0  0  0  0  0  0  0
  149.9117  140.9636  159.4735 H   0  0  0  0  0  0  0  0  0  0  0  0
  150.1951  139.6935  158.3040 H   0  0  0  0  0  0  0  0  0  0  0  0
  152.0235  141.0248  157.2359 H   0  0  0  0  0  0  0  0  0  0  0  0
  151.7090  142.3695  158.2639 H   0  0  0  0  0  0  0  0  0  0  0  0
  154.7790  144.0960  159.1825 H   0  0  0  0  0  0  0  0  0  0  0  0
  153.7897  143.1080  158.1370 H   0  0  0  0  0  0  0  0  0  0  0  0
  153.0039  145.4795  158.1061 H   0  0  0  0  0  0  0  0  0  0  0  0
  151.7577  144.4028  158.7110 H   0  0  0  0  0  0  0  0  0  0  0  0
  153.5446  146.0879  160.2992 H   0  0  0  0  0  0  0  0  0  0  0  0
  152.5093  145.3653  162.2656 H   0  0  0  0  0  0  0  0  0  0  0  0
  151.4387  144.3417  161.3278 H   0  0  0  0  0  0  0  0  0  0  0  0
  153.3351  143.0044  162.2999 H   0  0  0  0  0  0  0  0  0  0  0  0
  154.4875  144.0439  161.5374 H   0  0  0  0  0  0  0  0  0  0  0  0
  155.0300  137.4831  162.7138 H   0  0  0  0  0  0  0  0  0  0  0  0
  155.7438  138.9910  162.1582 H   0  0  0  0  0  0  0  0  0  0  0  0
  156.2832  137.4708  161.4672 H   0  0  0  0  0  0  0  0  0  0  0  0
  151.9229  146.2787  160.1087 H   0  0  0  0  0  0  0  0  0  0  0  0
  1  2  1  0  0  0  0
  1 24  1  0  0  0  0
  1 25  1  0  0  0  0
  1 26  1  0  0  0  0
  2  3  1  0  0  0  0
  2 27  1  0  0  0  0
  2 28  1  0  0  0  0
  3  4  1  0  0  0  0
  4  5  1  0  0  0  0
  4 29  1  0  0  0  0
  4 30  1  0  0  0  0
  5  6  1  0  0  0  0
  5 31  1  0  0  0  0
  5 32  1  0  0  0  0
  6 16  1  0  0  0  0
  6  7  1  0  0  0  0
  7  8  1  0  0  0  0
  7 14  2  0  0  0  0
  8 13  1  0  0  0  0
  8  9  1  0  0  0  0
  9 10  1  0  0  0  0
  9 33  1  0  0  0  0
  9 34  1  0  0  0  0
 10 11  1  0  0  0  0
 10 35  1  0  0  0  0
 10 36  1  0  0  0  0
 11 12  1  0  0  0  0
 11 37  1  0  0  0  0
 11 45  1  0  0  0  0
 12 13  1  0  0  0  0
 12 38  1  0  0  0  0
 12 39  1  0  0  0  0
 13 40  1  0  0  0  0
 13 41  1  0  0  0  0
 14 15  1  0  0  0  0
 15 22  1  0  0  0  0
 15 16  2  0  0  0  0
 16 17  1  0  0  0  0
 17 18  2  0  0  0  0
 17 19  1  0  0  0  0
 19 20  1  0  0  0  0
 20 21  2  0  0  0  0
 20 22  1  0  0  0  0
 22 23  1  0  0  0  0
 23 42  1  0  0  0  0
 23 43  1  0  0  0  0
 23 44  1  0  0  0  0
M  CHG  1  11   1
M  CHG  1  19  -1
M  END
> <s_m_source_file>
AV-unprocessed.smi

> <i_m_source_file_index>
514

> <i_lp_mmshare_version>
43012

> <i_f3d_flags>
0

> <s_epik_input>
W0NIM11uMWMoPU8pW25IXWMoPU8pYyhjMTIpbihbQ0gyXVtDSDJdT1tDSDJdW0NIM10pYyhuMilOM1tDSDJdW0NIMl1bTkhdW0NIMl1bQ0gyXTM=

> <s_epik_cmdline>
J2VwaWtfcHl0aG9uJywgJy1waCcsICc3LjAnLCAnLXRuJywgJzgnLCAnLW1hJywgJzIwMCcsICctbWV0YWxfYmluZGluZycsICctaW1hZScsICc8aW5maWxlLm1hZT4nLCAnLW9tYWUnLCAnPG91dGZpbGUubWFlPic=

> <r_epik_Ionization_Penalty>
5.92505

> <r_epik_Ionization_Penalty_Charging>
0.0655308

> <r_epik_Ionization_Penalty_Neutral>
5.85952

> <r_epik_State_Penalty>
5.86593

> <r_epik_Charging_Adjusted_Penalty>
5.93146

> <i_epik_Tot_Q>
0

> <i_epik_Tot_abs_Q>
2

> <r_epik_Metal_State_Penalty>
1.83024

> <b_epik_Metal_Only>
1

> <s_lp_Force_Field>
OPLS_2005

> <r_lp_Energy>
48.6867

> <b_lp_Chiralities_Consistent>
1

> <s_lp_Variant>
AV-unprocessed.smi:514-3

> <Gold.Version>
5.8.1

> <Gold.Id.Protein>
6NUR|6NUR_protein|mol2

> <Gold.PLP.Fitness>
45.1837

> <Gold.PLP.PLP>
-44.0423

> <Gold.PLP.part.hbond>
-1.0664

> <Gold.PLP.part.metal>
0.0000

> <Gold.PLP.part.buried>
-5.9992

> <Gold.PLP.part.nonpolar>
-36.9412

> <Gold.PLP.part.repulsive>
0.2659

> <Gold.PLP.ligand.clash>
0.0000

> <Gold.PLP.ligand.torsion>
0.9763

> <Gold.PLP.Chemscore.Hbond>
1.0000

> <Gold.PLP.Chemscore.CHOScore>
0.0000

> <Gold.PLP.Chemscore.Metal>
0.0000

> <Gold.Chemscore.Hbonds>
donor molecule, donor type, donor heavy atom, donor atom, acceptor molecule, acceptor atom, score
      P1  H  6896  6908       L1    21  0.24

> <Gold.PLP.Chemscore.Internal.Correction>
0.0940

> <Gold.Rescore>
     Score         DG    S(hbond)    S(metal)    S(lipo)     H(rot)  DE(clash)    DE(int)     intcor
     13.03     -14.18       0.75        0.00      90.55       1.72       0.16       0.99       ----

> <Gold.Chemscore.Fitness>
13.0296

> <Gold.Chemscore.DG>
-14.1843

> <Gold.Chemscore.ZeroCoef>
-5.4800

> <Gold.Chemscore.Hbond>
0.7535

> <Gold.Chemscore.Metal>
0.0000

> <Gold.Chemscore.Lipo>
90.5515

> <Gold.Chemscore.Internal_Hbond>
0.0000

> <Gold.Chemscore.DEClash>
0.1633

> <Gold.Chemscore.DEInternal>
0.9914

> <Gold.Chemscore.Rot>
1.7214

> <Gold.Chemscore.Internal.Correction>
   9.000000E+99

> <Gold.Chemscore.Hbonds>
donor molecule, donor type, donor heavy atom, donor atom, acceptor molecule, acceptor atom, score
      P1  H  6896  6908       L1    21  0.02

> <Gold.Chemscore.Hbond.Weighted>
-2.5166

> <Gold.Chemscore.Metal.Weighted>
-0.0000

> <Gold.Chemscore.Lipo.Weighted>
-10.5945

> <Gold.Chemscore.Internal_Hbond.Weighted>
0.0000

> <Gold.Chemscore.DEClash.Weighted>
0.1633

> <Gold.Chemscore.DEInternal.Weighted>
0.9914

> <Gold.Chemscore.Rot.Weighted>
4.4069

> <Gold.Chemscore.Internal.Correction.Weighted>
   9.000000E+99

> <Gold.Protein.RotatedTorsions>
[ 6907 6896 6895 6894 ] final  -67.76 input  -60.11 | X-H torsion
[ 7974 7965 7964 7962 ] final -142.65 input  175.53 | X-H torsion
[ 8008 7997 7996 7995 ] final   39.78 input   59.86 | X-H torsion
[ 10167 10162 10161 10158 ] final  134.24 input  -65.29 | X-H torsion
[ 10718 10713 10712 10709 ] final  141.43 input   66.30 | X-H torsion
[ 10763 10752 10751 10750 ] final  129.94 input  -60.55 | X-H torsion
[ 11005 11000 10999 10996 ] final  -27.51 input  -57.11 | X-H torsion

> <Gold.Protein.ActiveResidues>
 VAL166  LYS551  ARG553  GLY616  TRP617  ASP618  TYR619  PRO620  LYS621  CYS622 
 ASP623  PHE694  ASN695  SER759  ASP760  ASP761  ALA762  ILE779  LEU786  VAL792 
 PHE793  MET794  SER795  GLU796  ALA797  LYS798  CYS799  TRP800  GLU811  SER814 

> <Gold.Protein.RotatedAtoms>
  150.7392  134.5834  159.5950 H   0  0  0  0  0  0  0  0  0  0  0  0  # atno 6907 bound_to 6896
  152.3242  134.7339  160.0315 H   0  0  0  0  0  0  0  0  0  0  0  0  # atno 6908 bound_to 6896
  151.7845  133.3317  159.3517 H   0  0  0  0  0  0  0  0  0  0  0  0  # atno 6909 bound_to 6896
  144.8427  140.5932  143.5441 H   0  0  0  0  0  0  0  0  0  0  0  0  # atno 7974 bound_to 7965
  155.2422  140.3346  155.4291 H   0  0  0  0  0  0  0  0  0  0  0  0  # atno 8008 bound_to 7997
  156.2251  140.1825  156.7428 H   0  0  0  0  0  0  0  0  0  0  0  0  # atno 8009 bound_to 7997
  154.5886  140.0642  156.9191 H   0  0  0  0  0  0  0  0  0  0  0  0  # atno 8010 bound_to 7997
  139.5264  144.6577  151.5111 H   0  0  0  0  0  0  0  0  0  0  0  0  # atno 10167 bound_to 10162
  157.3921  131.1006  151.0636 H   0  0  0  0  0  0  0  0  0  0  0  0  # atno 10718 bound_to 10713
  153.7499  135.3211  155.3319 H   0  0  0  0  0  0  0  0  0  0  0  0  # atno 10763 bound_to 10752
  154.8267  135.4564  154.0943 H   0  0  0  0  0  0  0  0  0  0  0  0  # atno 10764 bound_to 10752
  153.2142  135.6940  153.8160 H   0  0  0  0  0  0  0  0  0  0  0  0  # atno 10765 bound_to 10752
  140.9126  133.7451  156.0691 H   0  0  0  0  0  0  0  0  0  0  0  0  # atno 11005 bound_to 11000
  145.4660  139.1508  143.3840 LP  0  0  0  0  0  0  0  0  0  0  0  0  # atno 17320 bound_to 7965
  146.2717  140.4791  142.8812 LP  0  0  0  0  0  0  0  0  0  0  0  0  # atno 17321 bound_to 7965
  140.6410  143.8889  150.6692 LP  0  0  0  0  0  0  0  0  0  0  0  0  # atno 17342 bound_to 10162
  140.2223  143.3799  152.1632 LP  0  0  0  0  0  0  0  0  0  0  0  0  # atno 17343 bound_to 10162
  157.1666  130.6249  149.5627 LP  0  0  0  0  0  0  0  0  0  0  0  0  # atno 17370 bound_to 10713
  155.9801  130.4799  150.6753 LP  0  0  0  0  0  0  0  0  0  0  0  0  # atno 17371 bound_to 10713
  140.8091  134.3420  157.5417 LP  0  0  0  0  0  0  0  0  0  0  0  0  # atno 17394 bound_to 11000
  139.8760  134.9243  156.3346 LP  0  0  0  0  0  0  0  0  0  0  0  0  # atno 17395 bound_to 11000

$$$$
