AV-unprocessed.smi:1897|AV-procd|sdf|7692|dock2
  -GOLD-   22720 9433D 1   1.00000     0.00000
 Structure written by MMmdl.
 38 40  0  0  0  0  0  0  0  0  3 V2000
  147.0710  133.4360  161.2164 C   0  0  0  0  0  0  0  0  0  0  0  0
  147.5001  134.8162  160.8538 C   0  0  0  0  0  0  0  0  0  0  0  0
  147.2872  135.8698  161.6457 N   0  0  0  0  0  0  0  0  0  0  0  0
  147.7754  137.0451  161.0944 N   0  0  0  0  0  0  0  0  0  0  0  0
  148.3368  136.8675  159.8901 C   0  0  0  0  0  0  0  0  0  0  0  0
  148.8608  137.8835  159.1794 N   0  5  0  0  0  0  0  0  0  0  0  0
  148.3651  138.2637  157.9731 C   0  0  0  0  0  0  0  0  0  0  0  0
  147.6534  137.5424  157.2755 O   0  0  0  0  0  0  0  0  0  0  0  0
  148.6762  139.4955  157.5281 N   0  0  0  0  0  0  0  0  0  0  0  0
  148.2447  140.0821  156.2655 C   0  0  2  0  0  0  0  0  0  0  0  0
  149.2075  139.8189  155.0983 C   0  0  0  0  0  0  0  0  0  0  0  0
  149.2032  141.1170  154.2671 C   0  0  0  0  0  0  0  0  0  0  0  0
  148.2489  142.0424  154.9223 N   0  3  1  0  0  0  0  0  0  0  0  0
  146.9243  142.0529  154.2426 C   0  0  0  0  0  0  0  0  0  0  0  0
  145.8662  142.8176  155.0480 C   0  0  0  0  0  0  0  0  0  0  0  0
  145.7176  142.2004  156.4406 C   0  0  0  0  0  0  0  0  0  0  0  0
  147.0686  142.2400  157.1621 C   0  0  0  0  0  0  0  0  0  0  0  0
  148.2154  141.6097  156.3402 C   0  0  1  0  0  0  0  0  0  0  0  0
  148.3188  135.1902  159.3466 S   0  0  0  0  0  0  0  0  0  0  0  0
  146.0099  133.3082  161.0026 H   0  0  0  0  0  0  0  0  0  0  0  0
  147.2409  133.2537  162.2779 H   0  0  0  0  0  0  0  0  0  0  0  0
  147.6359  132.7012  160.6427 H   0  0  0  0  0  0  0  0  0  0  0  0
  149.2643  140.0649  158.1189 H   0  0  0  0  0  0  0  0  0  0  0  0
  147.2510  139.7119  156.0069 H   0  0  0  0  0  0  0  0  0  0  0  0
  150.2176  139.6149  155.4574 H   0  0  0  0  0  0  0  0  0  0  0  0
  148.8884  138.9566  154.5120 H   0  0  0  0  0  0  0  0  0  0  0  0
  150.1949  141.5702  154.2908 H   0  0  0  0  0  0  0  0  0  0  0  0
  148.9564  140.9370  153.2198 H   0  0  0  0  0  0  0  0  0  0  0  0
  147.0357  142.5042  153.2561 H   0  0  0  0  0  0  0  0  0  0  0  0
  146.5825  141.0294  154.0796 H   0  0  0  0  0  0  0  0  0  0  0  0
  146.1462  143.8686  155.1312 H   0  0  0  0  0  0  0  0  0  0  0  0
  144.9097  142.7901  154.5251 H   0  0  0  0  0  0  0  0  0  0  0  0
  144.9688  142.7446  157.0168 H   0  0  0  0  0  0  0  0  0  0  0  0
  145.3624  141.1725  156.3600 H   0  0  0  0  0  0  0  0  0  0  0  0
  147.3192  143.2814  157.3677 H   0  0  0  0  0  0  0  0  0  0  0  0
  146.9901  141.7535  158.1350 H   0  0  0  0  0  0  0  0  0  0  0  0
  149.1562  141.9384  156.7870 H   0  0  0  0  0  0  0  0  0  0  0  0
  148.6138  142.9832  154.8814 H   0  0  0  0  0  0  0  0  0  0  0  0
  1  2  1  0  0  0  0
  1 20  1  0  0  0  0
  1 21  1  0  0  0  0
  1 22  1  0  0  0  0
  2 19  1  0  0  0  0
  2  3  2  0  0  0  0
  3  4  1  0  0  0  0
  4  5  2  0  0  0  0
  5  6  1  0  0  0  0
  5 19  1  0  0  0  0
  6  7  1  0  0  0  0
  7  8  2  0  0  0  0
  7  9  1  0  0  0  0
  9 10  1  0  0  0  0
  9 23  1  0  0  0  0
 10 18  1  0  0  0  0
 10 11  1  0  0  0  0
 10 24  1  0  0  0  0
 11 12  1  0  0  0  0
 11 25  1  0  0  0  0
 11 26  1  0  0  0  0
 12 13  1  0  0  0  0
 12 27  1  0  0  0  0
 12 28  1  0  0  0  0
 13 18  1  0  0  0  0
 13 14  1  0  0  0  0
 13 38  1  0  0  0  0
 14 15  1  0  0  0  0
 14 29  1  0  0  0  0
 14 30  1  0  0  0  0
 15 16  1  0  0  0  0
 15 31  1  0  0  0  0
 15 32  1  0  0  0  0
 16 17  1  0  0  0  0
 16 33  1  0  0  0  0
 16 34  1  0  0  0  0
 17 18  1  0  0  0  0
 17 35  1  0  0  0  0
 17 36  1  0  0  0  0
 18 37  1  0  0  0  0
M  CHG  1   6  -1
M  CHG  1  13   1
M  END
> <s_m_source_file>
AV-unprocessed.smi

> <i_m_source_file_index>
1897

> <i_lp_mmshare_version>
43012

> <i_f3d_flags>
0

> <s_epik_input>
W0NIM11jMW5uYyhzMSlbTkhdQyg9TylbTkhdW0NASF0oW0NIMl1bQ0gyXTIpW0NAQEhdKE4yMylbQ0gyXVtDSDJdW0NIMl1bQ0gyXTM=

> <s_epik_cmdline>
J2VwaWtfcHl0aG9uJywgJy1waCcsICc3LjAnLCAnLXRuJywgJzgnLCAnLW1hJywgJzIwMCcsICctbWV0YWxfYmluZGluZycsICctaW1hZScsICc8aW5maWxlLm1hZT4nLCAnLW9tYWUnLCAnPG91dGZpbGUubWFlPic=

> <r_lp_tautomer_probability>
1

> <r_epik_Ionization_Penalty>
3.77712

> <r_epik_Ionization_Penalty_Charging>
3.67739

> <r_epik_Ionization_Penalty_Neutral>
0.0997294

> <r_epik_State_Penalty>
3.67514

> <r_epik_Charging_Adjusted_Penalty>
7.35254

> <i_epik_Tot_Q>
0

> <i_epik_Tot_abs_Q>
2

> <r_epik_Metal_State_Penalty>
0.540795

> <b_epik_Metal_Only>
1

> <s_lp_Force_Field>
OPLS_2005

> <r_lp_Energy>
31.3184

> <b_lp_Chiralities_Consistent>
1

> <s_lp_Variant>
AV-unprocessed.smi:1897-9

> <Gold.Version>
5.8.1

> <Gold.Id.Protein>
6NUR|6NUR_protein|mol2

> <Gold.PLP.Fitness>
35.8883

> <Gold.PLP.PLP>
-26.3970

> <Gold.PLP.part.hbond>
-4.6542

> <Gold.PLP.part.metal>
0.0000

> <Gold.PLP.part.buried>
-3.1285

> <Gold.PLP.part.nonpolar>
-18.9594

> <Gold.PLP.part.repulsive>
0.2694

> <Gold.PLP.ligand.clash>
0.0000

> <Gold.PLP.ligand.torsion>
1.0472

> <Gold.PLP.Chemscore.Hbond>
3.8560

> <Gold.PLP.Chemscore.CHOScore>
0.0000

> <Gold.PLP.Chemscore.Metal>
0.0000

> <Gold.Chemscore.Hbonds>
donor molecule, donor type, donor heavy atom, donor atom, acceptor molecule, acceptor atom, score
      L1  H    13    38       P1  8028  2.00
      P1  H  6931  6943       L1     4  1.00
      P1  H  6934  6947       L1     4  0.79

> <Gold.PLP.Chemscore.Internal.Correction>
0.0178

> <Gold.Rescore>
     Score         DG    S(hbond)    S(metal)    S(lipo)     H(rot)  DE(clash)    DE(int)     intcor
     14.94     -16.12       2.21        0.00      49.74       1.00       0.10       1.09       ----

> <Gold.Chemscore.Fitness>
14.9384

> <Gold.Chemscore.DG>
-16.1240

> <Gold.Chemscore.ZeroCoef>
-5.4800

> <Gold.Chemscore.Hbond>
2.2108

> <Gold.Chemscore.Metal>
0.0000

> <Gold.Chemscore.Lipo>
49.7430

> <Gold.Chemscore.Internal_Hbond>
0.0000

> <Gold.Chemscore.DEClash>
0.0962

> <Gold.Chemscore.DEInternal>
1.0895

> <Gold.Chemscore.Rot>
1.0000

> <Gold.Chemscore.Internal.Correction>
   9.000000E+99

> <Gold.Chemscore.Hbonds>
donor molecule, donor type, donor heavy atom, donor atom, acceptor molecule, acceptor atom, score
      L1  H    13    38       P1  8028  0.96
      P1  H  6931  6943       L1     4  0.28
      P1  H  6934  6947       L1     4  0.19

> <Gold.Chemscore.Hbond.Weighted>
-7.3841

> <Gold.Chemscore.Metal.Weighted>
-0.0000

> <Gold.Chemscore.Lipo.Weighted>
-5.8199

> <Gold.Chemscore.Internal_Hbond.Weighted>
0.0000

> <Gold.Chemscore.DEClash.Weighted>
0.0962

> <Gold.Chemscore.DEInternal.Weighted>
1.0895

> <Gold.Chemscore.Rot.Weighted>
2.5600

> <Gold.Chemscore.Internal.Correction.Weighted>
   9.000000E+99

> <Gold.Protein.RotatedTorsions>
[ 6907 6896 6895 6894 ] final -113.98 input  -60.11 | X-H torsion
[ 7974 7965 7964 7962 ] final   11.23 input  175.53 | X-H torsion
[ 8008 7997 7996 7995 ] final   41.65 input   59.86 | X-H torsion
[ 10167 10162 10161 10158 ] final  142.90 input  -65.29 | X-H torsion
[ 10718 10713 10712 10709 ] final -132.09 input   66.30 | X-H torsion
[ 10763 10752 10751 10750 ] final   22.46 input  -60.55 | X-H torsion
[ 11005 11000 10999 10996 ] final  -52.86 input  -57.11 | X-H torsion

> <Gold.Protein.ActiveResidues>
 VAL166  LYS551  ARG553  GLY616  TRP617  ASP618  TYR619  PRO620  LYS621  CYS622 
 ASP623  PHE694  ASN695  SER759  ASP760  ASP761  ALA762  ILE779  LEU786  VAL792 
 PHE793  MET794  SER795  GLU796  ALA797  LYS798  CYS799  TRP800  GLU811  SER814 

> <Gold.Protein.RotatedAtoms>
  150.7868  133.8867  159.3301 H   0  0  0  0  0  0  0  0  0  0  0  0  # atno 6907 bound_to 6896
  151.6715  135.0973  160.0208 H   0  0  0  0  0  0  0  0  0  0  0  0  # atno 6908 bound_to 6896
  152.3934  133.6673  159.6291 H   0  0  0  0  0  0  0  0  0  0  0  0  # atno 6909 bound_to 6896
  146.2374  139.9515  142.8470 H   0  0  0  0  0  0  0  0  0  0  0  0  # atno 7974 bound_to 7965
  155.2732  140.3367  155.4263 H   0  0  0  0  0  0  0  0  0  0  0  0  # atno 8008 bound_to 7997
  156.2123  140.1775  156.7709 H   0  0  0  0  0  0  0  0  0  0  0  0  # atno 8009 bound_to 7997
  154.5704  140.0671  156.8940 H   0  0  0  0  0  0  0  0  0  0  0  0  # atno 8010 bound_to 7997
  139.4982  144.6076  151.6344 H   0  0  0  0  0  0  0  0  0  0  0  0  # atno 10167 bound_to 10162
  156.2310  130.7037  151.0858 H   0  0  0  0  0  0  0  0  0  0  0  0  # atno 10718 bound_to 10713
  153.0914  135.6647  153.9847 H   0  0  0  0  0  0  0  0  0  0  0  0  # atno 10763 bound_to 10752
  153.9443  135.2990  155.3443 H   0  0  0  0  0  0  0  0  0  0  0  0  # atno 10764 bound_to 10752
  154.7328  135.5115  153.9066 H   0  0  0  0  0  0  0  0  0  0  0  0  # atno 10765 bound_to 10752
  141.0946  133.6627  156.4086 H   0  0  0  0  0  0  0  0  0  0  0  0  # atno 11005 bound_to 11000
  145.1856  140.9788  143.4240 LP  0  0  0  0  0  0  0  0  0  0  0  0  # atno 17320 bound_to 7965
  144.9903  139.3696  143.6218 LP  0  0  0  0  0  0  0  0  0  0  0  0  # atno 17321 bound_to 7965
  140.5742  144.0057  150.6233 LP  0  0  0  0  0  0  0  0  0  0  0  0  # atno 17342 bound_to 10162
  140.3185  143.3152  152.0808 LP  0  0  0  0  0  0  0  0  0  0  0  0  # atno 17343 bound_to 10162
  157.7133  131.0723  150.6421 LP  0  0  0  0  0  0  0  0  0  0  0  0  # atno 17370 bound_to 10713
  156.6489  130.4479  149.5726 LP  0  0  0  0  0  0  0  0  0  0  0  0  # atno 17371 bound_to 10713
  140.5171  134.6340  157.5305 LP  0  0  0  0  0  0  0  0  0  0  0  0  # atno 17394 bound_to 11000
  139.9780  134.7184  155.9914 LP  0  0  0  0  0  0  0  0  0  0  0  0  # atno 17395 bound_to 11000

$$$$
