AV-unprocessed.smi:2307|AV-procd|sdf|9250|dock3
  -GOLD-   2272012473D 1   1.00000     0.00000
 Structure written by MMmdl.
 38 39  0  0  0  0  0  0  0  0  1 V2000
  150.3917  143.4044  158.1195 C   0  0  0  0  0  0  0  0  0  0  0  0
  150.7702  142.1419  157.3655 C   0  0  0  0  0  0  0  0  0  0  0  0
  150.0655  141.9122  156.1806 N   0  0  0  0  0  0  0  0  0  0  0  0
  150.3178  140.8595  155.4741 C   0  0  0  0  0  0  0  0  0  0  0  0
  151.2892  139.9215  155.8663 N   0  0  0  0  0  0  0  0  0  0  0  0
  151.4733  138.7474  154.9924 C   0  0  0  0  0  0  0  0  0  0  0  0
  150.2909  137.7515  155.0596 C   0  0  2  0  0  0  0  0  0  0  0  0
  149.3739  138.0809  154.0368 O   0  0  0  0  0  0  0  0  0  0  0  0
  149.6314  137.7030  156.4315 C   0  0  0  0  0  0  0  0  0  0  0  0
  150.3869  137.3934  157.5815 C   0  0  0  0  0  0  0  0  0  0  0  0
  149.7636  137.3256  158.8418 C   0  0  0  0  0  0  0  0  0  0  0  0
  148.3804  137.5607  158.9792 C   0  0  0  0  0  0  0  0  0  0  0  0
  147.8563  137.4672  160.2527 O   0  0  0  0  0  0  0  0  0  0  0  0
  147.0553  136.4268  160.6104 C   0  0  0  0  0  0  0  0  0  0  0  0
  146.8463  136.4586  161.9486 F   0  0  0  0  0  0  0  0  0  0  0  0
  145.8365  136.4994  160.0188 F   0  0  0  0  0  0  0  0  0  0  0  0
  147.6261  135.2283  160.3292 F   0  0  0  0  0  0  0  0  0  0  0  0
  147.6254  137.8720  157.8203 C   0  0  0  0  0  0  0  0  0  0  0  0
  148.2478  137.9422  156.5592 C   0  0  0  0  0  0  0  0  0  0  0  0
  152.0285  140.0755  157.0024 C   0  0  0  0  0  0  0  0  0  0  0  0
  152.8827  139.2516  157.3342 O   0  0  0  0  0  0  0  0  0  0  0  0
  151.7295  141.2782  157.7963 C   0  0  0  0  0  0  0  0  0  0  0  0
  152.5301  141.4774  159.0770 C   0  0  0  0  0  0  0  0  0  0  0  0
  151.2501  144.0717  158.2002 H   0  0  0  0  0  0  0  0  0  0  0  0
  150.0426  143.1605  159.1232 H   0  0  0  0  0  0  0  0  0  0  0  0
  149.5938  143.9473  157.6113 H   0  0  0  0  0  0  0  0  0  0  0  0
  149.7917  140.6342  154.5451 H   0  0  0  0  0  0  0  0  0  0  0  0
  151.6231  139.0553  153.9554 H   0  0  0  0  0  0  0  0  0  0  0  0
  152.3996  138.2369  155.2629 H   0  0  0  0  0  0  0  0  0  0  0  0
  150.6572  136.7513  154.8253 H   0  0  0  0  0  0  0  0  0  0  0  0
  149.4665  137.4509  153.3385 H   0  0  0  0  0  0  0  0  0  0  0  0
  151.4465  137.1993  157.5002 H   0  0  0  0  0  0  0  0  0  0  0  0
  150.3546  137.0861  159.7137 H   0  0  0  0  0  0  0  0  0  0  0  0
  146.5640  138.0586  157.8715 H   0  0  0  0  0  0  0  0  0  0  0  0
  147.6542  138.1716  155.6863 H   0  0  0  0  0  0  0  0  0  0  0  0
  152.3616  140.6428  159.7582 H   0  0  0  0  0  0  0  0  0  0  0  0
  152.2715  142.3921  159.6076 H   0  0  0  0  0  0  0  0  0  0  0  0
  153.5960  141.5210  158.8513 H   0  0  0  0  0  0  0  0  0  0  0  0
  1  2  1  0  0  0  0
  1 24  1  0  0  0  0
  1 25  1  0  0  0  0
  1 26  1  0  0  0  0
  2 22  2  0  0  0  0
  2  3  1  0  0  0  0
  3  4  2  0  0  0  0
  4  5  1  0  0  0  0
  4 27  1  0  0  0  0
  5  6  1  0  0  0  0
  5 20  1  0  0  0  0
  6  7  1  0  0  0  0
  6 28  1  0  0  0  0
  6 29  1  0  0  0  0
  7  8  1  0  0  0  0
  7  9  1  0  0  0  0
  7 30  1  0  0  0  0
  8 31  1  0  0  0  0
  9 19  1  0  0  0  0
  9 10  2  0  0  0  0
 10 11  1  0  0  0  0
 10 32  1  0  0  0  0
 11 12  2  0  0  0  0
 11 33  1  0  0  0  0
 12 13  1  0  0  0  0
 12 18  1  0  0  0  0
 13 14  1  0  0  0  0
 14 15  1  0  0  0  0
 14 16  1  0  0  0  0
 14 17  1  0  0  0  0
 18 19  2  0  0  0  0
 18 34  1  0  0  0  0
 19 35  1  0  0  0  0
 20 21  2  0  0  0  0
 20 22  1  0  0  0  0
 22 23  1  0  0  0  0
 23 36  1  0  0  0  0
 23 37  1  0  0  0  0
 23 38  1  0  0  0  0
M  END
> <s_m_source_file>
AV-unprocessed.smi

> <i_m_source_file_index>
2307

> <i_lp_mmshare_version>
43012

> <i_f3d_flags>
0

> <s_epik_input>
W0NIM11jMW5bY0hdbihjKD1PKWMxW0NIM10pW0NIMl1bQ0BIXShbT0hdKWMyW2NIXVtjSF1jKE9DKEYpKEYpRilbY0hdW2NIXTI=

> <s_epik_cmdline>
J2VwaWtfcHl0aG9uJywgJy1waCcsICc3LjAnLCAnLXRuJywgJzgnLCAnLW1hJywgJzIwMCcsICctbWV0YWxfYmluZGluZycsICctaW1hZScsICc8aW5maWxlLm1hZT4nLCAnLW9tYWUnLCAnPG91dGZpbGUubWFlPic=

> <r_lp_tautomer_probability>
1

> <r_epik_Ionization_Penalty>
5.07003e-05

> <r_epik_Ionization_Penalty_Charging>
7.56727e-08

> <r_epik_Ionization_Penalty_Neutral>
5.06246e-05

> <r_epik_State_Penalty>
-0

> <r_epik_Charging_Adjusted_Penalty>
7.56727e-08

> <i_epik_Tot_Q>
0

> <i_epik_Tot_abs_Q>
0

> <r_epik_Metal_State_Penalty>
-0

> <b_epik_Metal_Only>
0

> <s_lp_Force_Field>
OPLS_2005

> <r_lp_Energy>
16.6377

> <b_lp_Chiralities_Consistent>
1

> <s_lp_Variant>
AV-unprocessed.smi:2307-1

> <Gold.Version>
5.8.1

> <Gold.Id.Protein>
6NUR|6NUR_protein|mol2

> <Gold.PLP.Fitness>
44.3869

> <Gold.PLP.PLP>
-35.9846

> <Gold.PLP.part.hbond>
-4.0000

> <Gold.PLP.part.metal>
0.0000

> <Gold.PLP.part.buried>
-5.3423

> <Gold.PLP.part.nonpolar>
-27.7579

> <Gold.PLP.part.repulsive>
0.1050

> <Gold.PLP.ligand.clash>
0.0000

> <Gold.PLP.ligand.torsion>
0.6975

> <Gold.PLP.Chemscore.Hbond>
3.2370

> <Gold.PLP.Chemscore.CHOScore>
0.0000

> <Gold.PLP.Chemscore.Metal>
0.0000

> <Gold.Chemscore.Hbonds>
donor molecule, donor type, donor heavy atom, donor atom, acceptor molecule, acceptor atom, score
      L1  H     8    31       P1  7948  1.00
      P1  H  6931  6943       L1    13  0.37
      P1  H  6934  6947       L1    13  0.75
      P1  H  7997  8008       L1    21  1.00

> <Gold.PLP.Chemscore.Internal.Correction>
0.0862

> <Gold.Rescore>
     Score         DG    S(hbond)    S(metal)    S(lipo)     H(rot)  DE(clash)    DE(int)     intcor
     14.76     -15.32       2.85        0.00      61.50       2.69       0.01       0.56       ----

> <Gold.Chemscore.Fitness>
14.7556

> <Gold.Chemscore.DG>
-15.3238

> <Gold.Chemscore.ZeroCoef>
-5.4800

> <Gold.Chemscore.Hbond>
2.8512

> <Gold.Chemscore.Metal>
0.0000

> <Gold.Chemscore.Lipo>
61.5049

> <Gold.Chemscore.Internal_Hbond>
0.0000

> <Gold.Chemscore.DEClash>
0.0101

> <Gold.Chemscore.DEInternal>
0.5581

> <Gold.Chemscore.Rot>
2.6856

> <Gold.Chemscore.Internal.Correction>
   9.000000E+99

> <Gold.Chemscore.Hbonds>
donor molecule, donor type, donor heavy atom, donor atom, acceptor molecule, acceptor atom, score
      L1  H     8    31       P1  7948  0.91
      P1  H  6931  6943       L1    13  0.31
      P1  H  6934  6947       L1    13  0.52
      P1  H  7997  8008       L1    21  0.45

> <Gold.Chemscore.Hbond.Weighted>
-9.5229

> <Gold.Chemscore.Metal.Weighted>
-0.0000

> <Gold.Chemscore.Lipo.Weighted>
-7.1961

> <Gold.Chemscore.Internal_Hbond.Weighted>
0.0000

> <Gold.Chemscore.DEClash.Weighted>
0.0101

> <Gold.Chemscore.DEInternal.Weighted>
0.5581

> <Gold.Chemscore.Rot.Weighted>
6.8751

> <Gold.Chemscore.Internal.Correction.Weighted>
   9.000000E+99

> <Gold.Protein.RotatedTorsions>
[ 6907 6896 6895 6894 ] final  103.77 input  -60.11 | X-H torsion
[ 7974 7965 7964 7962 ] final   73.71 input  175.53 | X-H torsion
[ 8008 7997 7996 7995 ] final  -75.74 input   59.86 | X-H torsion
[ 10167 10162 10161 10158 ] final  -10.54 input  -65.29 | X-H torsion
[ 10718 10713 10712 10709 ] final  118.05 input   66.30 | X-H torsion
[ 10763 10752 10751 10750 ] final  124.56 input  -60.55 | X-H torsion
[ 11005 11000 10999 10996 ] final -153.78 input  -57.11 | X-H torsion

> <Gold.Protein.ActiveResidues>
 VAL166  LYS551  ARG553  GLY616  TRP617  ASP618  TYR619  PRO620  LYS621  CYS622 
 ASP623  PHE694  ASN695  SER759  ASP760  ASP761  ALA762  ILE779  LEU786  VAL792 
 PHE793  MET794  SER795  GLU796  ALA797  LYS798  CYS799  TRP800  GLU811  SER814 

> <Gold.Protein.RotatedAtoms>
  152.5285  133.9776  159.7791 H   0  0  0  0  0  0  0  0  0  0  0  0  # atno 6907 bound_to 6896
  151.0036  133.6024  159.2699 H   0  0  0  0  0  0  0  0  0  0  0  0  # atno 6908 bound_to 6896
  151.3124  135.0804  159.9330 H   0  0  0  0  0  0  0  0  0  0  0  0  # atno 6909 bound_to 6896
  145.7374  139.2707  143.1506 H   0  0  0  0  0  0  0  0  0  0  0  0  # atno 7974 bound_to 7965
  154.5443  140.0739  156.8563 H   0  0  0  0  0  0  0  0  0  0  0  0  # atno 8008 bound_to 7997
  155.3118  140.3390  155.4225 H   0  0  0  0  0  0  0  0  0  0  0  0  # atno 8009 bound_to 7997
  156.1904  140.1684  156.8090 H   0  0  0  0  0  0  0  0  0  0  0  0  # atno 8010 bound_to 7997
  140.7116  143.5737  150.9065 H   0  0  0  0  0  0  0  0  0  0  0  0  # atno 10167 bound_to 10162
  157.6056  131.1044  150.7701 H   0  0  0  0  0  0  0  0  0  0  0  0  # atno 10718 bound_to 10713
  153.6633  135.3343  155.3133 H   0  0  0  0  0  0  0  0  0  0  0  0  # atno 10763 bound_to 10752
  154.8509  135.4369  154.1782 H   0  0  0  0  0  0  0  0  0  0  0  0  # atno 10764 bound_to 10752
  153.2754  135.7004  153.7514 H   0  0  0  0  0  0  0  0  0  0  0  0  # atno 10765 bound_to 10752
  140.7044  134.3902  157.5206 H   0  0  0  0  0  0  0  0  0  0  0  0  # atno 11005 bound_to 11000
  146.0480  140.8098  142.9796 LP  0  0  0  0  0  0  0  0  0  0  0  0  # atno 17320 bound_to 7965
  144.6878  140.3010  143.7263 LP  0  0  0  0  0  0  0  0  0  0  0  0  # atno 17321 bound_to 7965
  139.9463  143.6324  152.3041 LP  0  0  0  0  0  0  0  0  0  0  0  0  # atno 17342 bound_to 10162
  139.6826  144.7654  151.1580 LP  0  0  0  0  0  0  0  0  0  0  0  0  # atno 17343 bound_to 10162
  156.8090  130.4946  149.5358 LP  0  0  0  0  0  0  0  0  0  0  0  0  # atno 17370 bound_to 10713
  156.1141  130.6062  151.0094 LP  0  0  0  0  0  0  0  0  0  0  0  0  # atno 17371 bound_to 10713
  139.8888  134.8847  156.2455 LP  0  0  0  0  0  0  0  0  0  0  0  0  # atno 17394 bound_to 11000
  141.0137  133.7081  156.1153 LP  0  0  0  0  0  0  0  0  0  0  0  0  # atno 17395 bound_to 11000

$$$$
