AV-unprocessed.smi:234|AV-procd|sdf|1797|dock1
  -GOLD-   2262020363D 1   1.00000     0.00000
 Structure written by MMmdl.
 59 62  0  0  0  0  0  0  0  0  1 V2000
  153.0984  142.1622  159.2397 C   0  0  0  0  0  0  0  0  0  0  0  0
  153.0148  140.6336  159.1321 C   0  0  0  0  0  0  0  0  0  0  0  0
  152.8349  140.2124  157.7876 O   0  0  0  0  0  0  0  0  0  0  0  0
  151.5393  140.4773  157.2571 C   0  0  2  0  0  0  0  0  0  0  0  0
  150.4808  139.7346  158.0734 C   0  0  0  0  0  0  0  0  0  0  0  0
  150.6893  138.5579  157.1096 C   0  0  1  0  0  0  0  0  0  0  0  0
  149.4581  137.8411  156.7600 N   0  0  0  0  0  0  0  0  0  0  0  0
  149.5839  136.5125  156.1700 C   0  0  0  0  0  0  0  0  0  0  0  0
  148.4133  137.9184  157.6209 C   0  0  0  0  0  0  0  0  0  0  0  0
  147.3378  138.6958  157.3242 N   0  0  0  0  0  0  0  0  0  0  0  0
  146.3139  138.7802  158.1785 C   0  0  0  0  0  0  0  0  0  0  0  0
  146.1631  138.1823  159.3620 N   0  0  0  0  0  0  0  0  0  0  0  0
  147.2411  137.4035  159.6649 C   0  0  0  0  0  0  0  0  0  0  0  0
  148.4016  137.2235  158.8611 C   0  0  0  0  0  0  0  0  0  0  0  0
  149.2904  136.3636  159.4943 N   0  0  0  0  0  0  0  0  0  0  0  0
  148.6866  136.0485  160.6079 C   0  0  0  0  0  0  0  0  0  0  0  0
  147.4468  136.6204  160.7874 N   0  0  0  0  0  0  0  0  0  0  0  0
  146.5576  136.4312  161.9239 C   0  0  0  0  0  0  0  0  0  0  0  0
  146.4735  134.9560  162.3977 C   0  0  2  0  0  0  0  0  0  0  0  0
  147.5062  134.7460  163.3471 O   0  0  0  0  0  0  0  0  0  0  0  0
  146.6566  133.9395  161.2748 C   0  0  0  0  0  0  0  0  0  0  0  0
  145.8934  132.7274  161.7855 C   0  0  0  0  0  0  0  0  0  0  0  0
  144.7512  133.3143  162.3840 O   0  0  0  0  0  0  0  0  0  0  0  0
  145.1357  134.5131  163.0545 C   0  0  2  0  0  0  0  0  0  0  0  0
  143.9577  135.4943  162.9502 C   0  0  0  0  0  0  0  0  0  0  0  0
  151.1739  139.5813  156.0447 C   0  0  0  0  0  0  0  0  0  0  0  0
  150.1170  140.1965  155.1126 C   0  0  0  0  0  0  0  0  0  0  0  0
  152.3405  139.1439  155.1544 C   0  0  0  0  0  0  0  0  0  0  0  0
  153.2891  142.4669  160.2687 H   0  0  0  0  0  0  0  0  0  0  0  0
  152.1726  142.6408  158.9203 H   0  0  0  0  0  0  0  0  0  0  0  0
  153.9077  142.5523  158.6222 H   0  0  0  0  0  0  0  0  0  0  0  0
  153.9479  140.2009  159.4931 H   0  0  0  0  0  0  0  0  0  0  0  0
  152.2227  140.2360  159.7688 H   0  0  0  0  0  0  0  0  0  0  0  0
  151.3061  141.5350  157.1208 H   0  0  0  0  0  0  0  0  0  0  0  0
  150.7592  139.5333  159.1085 H   0  0  0  0  0  0  0  0  0  0  0  0
  149.4930  140.1938  158.0055 H   0  0  0  0  0  0  0  0  0  0  0  0
  151.4962  137.9027  157.4434 H   0  0  0  0  0  0  0  0  0  0  0  0
  149.1368  135.7418  156.8003 H   0  0  0  0  0  0  0  0  0  0  0  0
  150.6291  136.2436  156.0220 H   0  0  0  0  0  0  0  0  0  0  0  0
  149.0890  136.4873  155.1990 H   0  0  0  0  0  0  0  0  0  0  0  0
  145.4988  139.4175  157.8689 H   0  0  0  0  0  0  0  0  0  0  0  0
  149.1272  135.3772  161.3307 H   0  0  0  0  0  0  0  0  0  0  0  0
  146.9046  137.0721  162.7354 H   0  0  0  0  0  0  0  0  0  0  0  0
  145.5723  136.8002  161.6383 H   0  0  0  0  0  0  0  0  0  0  0  0
  147.9730  133.9585  163.1118 H   0  0  0  0  0  0  0  0  0  0  0  0
  146.1733  134.2957  160.3644 H   0  0  0  0  0  0  0  0  0  0  0  0
  147.6995  133.7257  161.0362 H   0  0  0  0  0  0  0  0  0  0  0  0
  145.6203  132.0334  160.9904 H   0  0  0  0  0  0  0  0  0  0  0  0
  146.4693  132.1862  162.5375 H   0  0  0  0  0  0  0  0  0  0  0  0
  145.2889  134.2713  164.1080 H   0  0  0  0  0  0  0  0  0  0  0  0
  144.1751  136.4346  163.4570 H   0  0  0  0  0  0  0  0  0  0  0  0
  143.0660  135.0735  163.4157 H   0  0  0  0  0  0  0  0  0  0  0  0
  143.7102  135.7142  161.9114 H   0  0  0  0  0  0  0  0  0  0  0  0
  149.8134  139.5018  154.3293 H   0  0  0  0  0  0  0  0  0  0  0  0
  150.4974  141.0925  154.6211 H   0  0  0  0  0  0  0  0  0  0  0  0
  149.2140  140.4870  155.6501 H   0  0  0  0  0  0  0  0  0  0  0  0
  152.0188  138.4511  154.3770 H   0  0  0  0  0  0  0  0  0  0  0  0
  153.1190  138.6401  155.7273 H   0  0  0  0  0  0  0  0  0  0  0  0
  152.8040  139.9962  154.6574 H   0  0  0  0  0  0  0  0  0  0  0  0
  1  2  1  0  0  0  0
  1 29  1  0  0  0  0
  1 30  1  0  0  0  0
  1 31  1  0  0  0  0
  2  3  1  0  0  0  0
  2 32  1  0  0  0  0
  2 33  1  0  0  0  0
  3  4  1  0  0  0  0
  4 26  1  0  0  0  0
  4  5  1  0  0  0  0
  4 34  1  0  0  0  0
  5  6  1  0  0  0  0
  5 35  1  0  0  0  0
  5 36  1  0  0  0  0
  6  7  1  0  0  0  0
  6 26  1  0  0  0  0
  6 37  1  0  0  0  0
  7  8  1  0  0  0  0
  7  9  1  0  0  0  0
  8 38  1  0  0  0  0
  8 39  1  0  0  0  0
  8 40  1  0  0  0  0
  9 14  1  0  0  0  0
  9 10  2  0  0  0  0
 10 11  1  0  0  0  0
 11 12  2  0  0  0  0
 11 41  1  0  0  0  0
 12 13  1  0  0  0  0
 13 17  1  0  0  0  0
 13 14  2  0  0  0  0
 14 15  1  0  0  0  0
 15 16  2  0  0  0  0
 16 17  1  0  0  0  0
 16 42  1  0  0  0  0
 17 18  1  0  0  0  0
 18 19  1  0  0  0  0
 18 43  1  0  0  0  0
 18 44  1  0  0  0  0
 19 24  1  0  0  0  0
 19 20  1  0  0  0  0
 19 21  1  0  0  0  0
 20 45  1  0  0  0  0
 21 22  1  0  0  0  0
 21 46  1  0  0  0  0
 21 47  1  0  0  0  0
 22 23  1  0  0  0  0
 22 48  1  0  0  0  0
 22 49  1  0  0  0  0
 23 24  1  0  0  0  0
 24 25  1  0  0  0  0
 24 50  1  0  0  0  0
 25 51  1  0  0  0  0
 25 52  1  0  0  0  0
 25 53  1  0  0  0  0
 26 27  1  0  0  0  0
 26 28  1  0  0  0  0
 27 54  1  0  0  0  0
 27 55  1  0  0  0  0
 27 56  1  0  0  0  0
 28 57  1  0  0  0  0
 28 58  1  0  0  0  0
 28 59  1  0  0  0  0
M  END
> <s_m_source_file>
AV-unprocessed.smi

> <i_m_source_file_index>
234

> <i_lp_mmshare_version>
43012

> <i_f3d_flags>
0

> <s_epik_input>
W0NIM11bQ0gyXU9bQ0BASF0oQzEoW0NIM10pW0NIM10pW0NIMl1bQ0BIXTFOKFtDSDNdKWMobltjSF1uMiljKGMyMyluW2NIXW4zW0NIMl1bQ0BAXTQoW09IXSlbQ0gyXVtDSDJdT1tDQEhdNFtDSDNd

> <s_epik_cmdline>
J2VwaWtfcHl0aG9uJywgJy1waCcsICc3LjAnLCAnLXRuJywgJzgnLCAnLW1hJywgJzIwMCcsICctbWV0YWxfYmluZGluZycsICctaW1hZScsICc8aW5maWxlLm1hZT4nLCAnLW9tYWUnLCAnPG91dGZpbGUubWFlPic=

> <r_lp_tautomer_probability>
1

> <r_epik_Ionization_Penalty>
0.00349132

> <r_epik_Ionization_Penalty_Charging>
0

> <r_epik_Ionization_Penalty_Neutral>
0.00349132

> <r_epik_State_Penalty>
0.00242418

> <r_epik_Charging_Adjusted_Penalty>
0.00242418

> <i_epik_Tot_Q>
0

> <i_epik_Tot_abs_Q>
0

> <r_epik_Metal_State_Penalty>
-0

> <b_epik_Metal_Only>
0

> <s_lp_Force_Field>
OPLS_2005

> <r_lp_Energy>
49.2938

> <b_lp_Chiralities_Consistent>
1

> <s_lp_Variant>
AV-unprocessed.smi:234-13

> <Gold.Version>
5.8.1

> <Gold.Id.Protein>
6NUR|6NUR_protein|mol2

> <Gold.PLP.Fitness>
43.8651

> <Gold.PLP.PLP>
-40.5994

> <Gold.PLP.part.hbond>
-4.4178

> <Gold.PLP.part.metal>
0.0000

> <Gold.PLP.part.buried>
-4.0479

> <Gold.PLP.part.nonpolar>
-32.4777

> <Gold.PLP.part.repulsive>
0.0869

> <Gold.PLP.ligand.clash>
0.0000

> <Gold.PLP.ligand.torsion>
2.0817

> <Gold.PLP.Chemscore.Hbond>
2.0000

> <Gold.PLP.Chemscore.CHOScore>
0.0000

> <Gold.PLP.Chemscore.Metal>
0.0000

> <Gold.Chemscore.Hbonds>
donor molecule, donor type, donor heavy atom, donor atom, acceptor molecule, acceptor atom, score
      P1  H  6896  6907       L1    15  0.48
      P1  H  7997  8010       L1     3  0.98

> <Gold.PLP.Chemscore.Internal.Correction>
1.4292

> <Gold.Rescore>
     Score         DG    S(hbond)    S(metal)    S(lipo)     H(rot)  DE(clash)    DE(int)     intcor
     12.36     -14.39       1.16        0.00     100.47       2.62       0.11       1.91       ----

> <Gold.Chemscore.Fitness>
12.3643

> <Gold.Chemscore.DG>
-14.3878

> <Gold.Chemscore.ZeroCoef>
-5.4800

> <Gold.Chemscore.Hbond>
1.1573

> <Gold.Chemscore.Metal>
0.0000

> <Gold.Chemscore.Lipo>
100.4669

> <Gold.Chemscore.Internal_Hbond>
0.0000

> <Gold.Chemscore.DEClash>
0.1115

> <Gold.Chemscore.DEInternal>
1.9120

> <Gold.Chemscore.Rot>
2.6219

> <Gold.Chemscore.Internal.Correction>
   9.000000E+99

> <Gold.Chemscore.Hbonds>
donor molecule, donor type, donor heavy atom, donor atom, acceptor molecule, acceptor atom, score
      P1  H  6896  6907       L1    15  0.05
      P1  H  7997  8010       L1     3  0.73

> <Gold.Chemscore.Hbond.Weighted>
-3.8653

> <Gold.Chemscore.Metal.Weighted>
-0.0000

> <Gold.Chemscore.Lipo.Weighted>
-11.7546

> <Gold.Chemscore.Internal_Hbond.Weighted>
0.0000

> <Gold.Chemscore.DEClash.Weighted>
0.1115

> <Gold.Chemscore.DEInternal.Weighted>
1.9120

> <Gold.Chemscore.Rot.Weighted>
6.7121

> <Gold.Chemscore.Internal.Correction.Weighted>
   9.000000E+99

> <Gold.Protein.RotatedTorsions>
[ 6907 6896 6895 6894 ] final  -50.37 input  -60.11 | X-H torsion
[ 7974 7965 7964 7962 ] final  -30.95 input  175.53 | X-H torsion
[ 8008 7997 7996 7995 ] final   43.94 input   59.86 | X-H torsion
[ 10167 10162 10161 10158 ] final  -96.99 input  -65.29 | X-H torsion
[ 10718 10713 10712 10709 ] final  -71.41 input   66.30 | X-H torsion
[ 10763 10752 10751 10750 ] final  -66.28 input  -60.55 | X-H torsion
[ 11005 11000 10999 10996 ] final   67.61 input  -57.11 | X-H torsion

> <Gold.Protein.ActiveResidues>
 VAL166  LYS551  ARG553  GLY616  TRP617  ASP618  TYR619  PRO620  LYS621  CYS622 
 ASP623  PHE694  ASN695  SER759  ASP760  ASP761  ALA762  ILE779  LEU786  VAL792 
 PHE793  MET794  SER795  GLU796  ALA797  LYS798  CYS799  TRP800  GLU811  SER814 

> <Gold.Protein.RotatedAtoms>
  150.8713  134.8088  159.7156 H   0  0  0  0  0  0  0  0  0  0  0  0  # atno 6907 bound_to 6896
  152.4717  134.4941  159.9714 H   0  0  0  0  0  0  0  0  0  0  0  0  # atno 6908 bound_to 6896
  151.5030  133.3462  159.2907 H   0  0  0  0  0  0  0  0  0  0  0  0  # atno 6909 bound_to 6896
  146.1104  140.5606  142.8780 H   0  0  0  0  0  0  0  0  0  0  0  0  # atno 7974 bound_to 7965
  155.3111  140.3391  155.4244 H   0  0  0  0  0  0  0  0  0  0  0  0  # atno 8008 bound_to 7997
  156.1955  140.1713  156.8045 H   0  0  0  0  0  0  0  0  0  0  0  0  # atno 8009 bound_to 7997
  154.5494  140.0709  156.8626 H   0  0  0  0  0  0  0  0  0  0  0  0  # atno 8010 bound_to 7997
  140.2880  143.3239  152.0374 H   0  0  0  0  0  0  0  0  0  0  0  0  # atno 10167 bound_to 10162
  156.0364  130.4351  150.2440 H   0  0  0  0  0  0  0  0  0  0  0  0  # atno 10718 bound_to 10713
  154.3575  135.6123  153.5674 H   0  0  0  0  0  0  0  0  0  0  0  0  # atno 10763 bound_to 10752
  152.9795  135.5807  154.4671 H   0  0  0  0  0  0  0  0  0  0  0  0  # atno 10764 bound_to 10752
  154.4403  135.2850  155.1829 H   0  0  0  0  0  0  0  0  0  0  0  0  # atno 10765 bound_to 10752
  139.9761  134.6821  156.0352 H   0  0  0  0  0  0  0  0  0  0  0  0  # atno 11005 bound_to 11000
  144.7507  140.5182  143.6804 LP  0  0  0  0  0  0  0  0  0  0  0  0  # atno 17320 bound_to 7965
  145.5675  139.1482  143.3307 LP  0  0  0  0  0  0  0  0  0  0  0  0  # atno 17321 bound_to 7965
  139.4945  144.6545  151.6603 LP  0  0  0  0  0  0  0  0  0  0  0  0  # atno 17342 bound_to 10162
  140.5756  144.0034  150.6240 LP  0  0  0  0  0  0  0  0  0  0  0  0  # atno 17343 bound_to 10162
  157.0538  131.0070  151.3245 LP  0  0  0  0  0  0  0  0  0  0  0  0  # atno 17370 bound_to 10713
  157.5120  130.7945  149.7716 LP  0  0  0  0  0  0  0  0  0  0  0  0  # atno 17371 bound_to 10713
  141.1437  133.6560  156.3805 LP  0  0  0  0  0  0  0  0  0  0  0  0  # atno 17394 bound_to 11000
  140.5193  134.6320  157.5312 LP  0  0  0  0  0  0  0  0  0  0  0  0  # atno 17395 bound_to 11000

$$$$
