AV-unprocessed.smi:525|AV-procd|sdf|2810|dock2
  -GOLD-   2262023283D 1   1.00000     0.00000
 Structure written by MMmdl.
 44 46  0  0  0  0  0  0  0  0  2 V2000
  152.1350  138.7019  154.7154 C   0  0  0  0  0  0  0  0  0  0  0  0
  152.8803  139.2422  155.7918 O   0  0  0  0  0  0  0  0  0  0  0  0
  152.3467  138.8825  157.0558 C   0  0  0  0  0  0  0  0  0  0  0  0
  150.9232  139.4388  157.1966 C   0  0  0  0  0  0  0  0  0  0  0  0
  150.8992  140.9071  157.1329 N   0  0  0  0  0  0  0  0  0  0  0  0
  150.2712  141.7338  156.2530 C   0  0  0  0  0  0  0  0  0  0  0  0
  149.2670  141.2336  154.8927 S   0  0  0  0  0  0  0  0  0  0  0  0
  147.5716  141.7432  155.3236 C   0  0  1  0  0  0  0  0  0  0  0  0
  146.6245  141.8727  154.1173 C   0  0  0  0  0  0  0  0  0  0  0  0
  146.3289  140.7493  153.4576 N   0  0  0  0  0  0  0  0  0  0  0  0
  146.1514  142.9593  153.7887 O   0  0  0  0  0  0  0  0  0  0  0  0
  147.0030  140.7749  156.3550 C   0  0  0  0  0  0  0  0  0  0  0  0
  147.7120  139.6076  156.7205 C   0  0  0  0  0  0  0  0  0  0  0  0
  147.1791  138.7219  157.6768 C   0  0  0  0  0  0  0  0  0  0  0  0
  145.9346  138.9962  158.2750 C   0  0  0  0  0  0  0  0  0  0  0  0
  145.2237  140.1574  157.9168 C   0  0  0  0  0  0  0  0  0  0  0  0
  145.7565  141.0444  156.9614 C   0  0  0  0  0  0  0  0  0  0  0  0
  150.5749  143.0154  156.5971 N   0  3  0  0  0  0  0  0  0  0  0  0
  151.4174  143.0099  157.7097 C   0  0  0  0  0  0  0  0  0  0  0  0
  151.9948  144.0591  158.4183 C   0  0  0  0  0  0  0  0  0  0  0  0
  152.8213  143.7089  159.5060 C   0  0  0  0  0  0  0  0  0  0  0  0
  153.0489  142.3608  159.8508 C   0  0  0  0  0  0  0  0  0  0  0  0
  152.4565  141.3054  159.1268 C   0  0  0  0  0  0  0  0  0  0  0  0
  151.6361  141.6591  158.0557 C   0  0  0  0  0  0  0  0  0  0  0  0
  152.5890  138.9990  153.7702 H   0  0  0  0  0  0  0  0  0  0  0  0
  151.1079  139.0690  154.7247 H   0  0  0  0  0  0  0  0  0  0  0  0
  152.1193  137.6121  154.7544 H   0  0  0  0  0  0  0  0  0  0  0  0
  152.3290  137.7963  157.1578 H   0  0  0  0  0  0  0  0  0  0  0  0
  152.9790  139.2731  157.8542 H   0  0  0  0  0  0  0  0  0  0  0  0
  150.2924  139.0612  156.3913 H   0  0  0  0  0  0  0  0  0  0  0  0
  150.4627  139.1069  158.1266 H   0  0  0  0  0  0  0  0  0  0  0  0
  147.6503  142.7308  155.7799 H   0  0  0  0  0  0  0  0  0  0  0  0
  145.6951  140.7758  152.6718 H   0  0  0  0  0  0  0  0  0  0  0  0
  146.7249  139.8713  153.7614 H   0  0  0  0  0  0  0  0  0  0  0  0
  148.6682  139.3882  156.2676 H   0  0  0  0  0  0  0  0  0  0  0  0
  147.7257  137.8318  157.9515 H   0  0  0  0  0  0  0  0  0  0  0  0
  145.5257  138.3167  159.0084 H   0  0  0  0  0  0  0  0  0  0  0  0
  144.2691  140.3684  158.3761 H   0  0  0  0  0  0  0  0  0  0  0  0
  145.2016  141.9323  156.6965 H   0  0  0  0  0  0  0  0  0  0  0  0
  151.8262  145.0926  158.1531 H   0  0  0  0  0  0  0  0  0  0  0  0
  153.2932  144.4894  160.0851 H   0  0  0  0  0  0  0  0  0  0  0  0
  153.6929  142.1304  160.6871 H   0  0  0  0  0  0  0  0  0  0  0  0
  152.6444  140.2770  159.3971 H   0  0  0  0  0  0  0  0  0  0  0  0
  150.2342  143.8303  156.1043 H   0  0  0  0  0  0  0  0  0  0  0  0
  1  2  1  0  0  0  0
  1 25  1  0  0  0  0
  1 26  1  0  0  0  0
  1 27  1  0  0  0  0
  2  3  1  0  0  0  0
  3  4  1  0  0  0  0
  3 28  1  0  0  0  0
  3 29  1  0  0  0  0
  4  5  1  0  0  0  0
  4 30  1  0  0  0  0
  4 31  1  0  0  0  0
  5 24  1  0  0  0  0
  5  6  1  0  0  0  0
  6  7  1  0  0  0  0
  6 18  2  0  0  0  0
  7  8  1  0  0  0  0
  8  9  1  0  0  0  0
  8 12  1  0  0  0  0
  8 32  1  0  0  0  0
  9 10  1  0  0  0  0
  9 11  2  0  0  0  0
 10 33  1  0  0  0  0
 10 34  1  0  0  0  0
 12 17  1  0  0  0  0
 12 13  2  0  0  0  0
 13 14  1  0  0  0  0
 13 35  1  0  0  0  0
 14 15  2  0  0  0  0
 14 36  1  0  0  0  0
 15 16  1  0  0  0  0
 15 37  1  0  0  0  0
 16 17  2  0  0  0  0
 16 38  1  0  0  0  0
 17 39  1  0  0  0  0
 18 19  1  0  0  0  0
 18 44  1  0  0  0  0
 19 24  2  0  0  0  0
 19 20  1  0  0  0  0
 20 21  2  0  0  0  0
 20 40  1  0  0  0  0
 21 22  1  0  0  0  0
 21 41  1  0  0  0  0
 22 23  2  0  0  0  0
 22 42  1  0  0  0  0
 23 24  1  0  0  0  0
 23 43  1  0  0  0  0
M  CHG  1  18   1
M  END
> <s_m_source_file>
AV-unprocessed.smi

> <i_m_source_file_index>
525

> <i_lp_mmshare_version>
43012

> <i_f3d_flags>
0

> <s_epik_input>
W2NIXTFbY0hdW2NIXVtjSF1jKGMxMiluKFtDSDJdW0NIMl1PW0NIM10pYyhuMilTW0NASF0oQyg9TylbTkgyXSljM1tjSF1bY0hdW2NIXVtjSF1bY0hdMw==

> <s_epik_cmdline>
J2VwaWtfcHl0aG9uJywgJy1waCcsICc3LjAnLCAnLXRuJywgJzgnLCAnLW1hJywgJzIwMCcsICctbWV0YWxfYmluZGluZycsICctaW1hZScsICc8aW5maWxlLm1hZT4nLCAnLW9tYWUnLCAnPG91dGZpbGUubWFlPic=

> <r_epik_Ionization_Penalty>
1.29485

> <r_epik_Ionization_Penalty_Charging>
1.29485

> <r_epik_Ionization_Penalty_Neutral>
1.02965e-06

> <r_epik_State_Penalty>
1.36828

> <r_epik_Charging_Adjusted_Penalty>
2.66313

> <i_epik_Tot_Q>
1

> <i_epik_Tot_abs_Q>
1

> <r_epik_Metal_State_Penalty>
1.43316

> <b_epik_Metal_Only>
0

> <s_lp_Force_Field>
OPLS_2005

> <r_lp_Energy>
11.9794

> <b_lp_Chiralities_Consistent>
1

> <s_lp_Variant>
AV-unprocessed.smi:525-4

> <Gold.Version>
5.8.1

> <Gold.Id.Protein>
6NUR|6NUR_protein|mol2

> <Gold.PLP.Fitness>
53.7524

> <Gold.PLP.PLP>
-43.3404

> <Gold.PLP.part.hbond>
-3.0000

> <Gold.PLP.part.metal>
0.0000

> <Gold.PLP.part.buried>
-7.6824

> <Gold.PLP.part.nonpolar>
-35.3131

> <Gold.PLP.part.repulsive>
0.2760

> <Gold.PLP.ligand.clash>
0.0000

> <Gold.PLP.ligand.torsion>
0.3239

> <Gold.PLP.Chemscore.Hbond>
3.6240

> <Gold.PLP.Chemscore.CHOScore>
0.0000

> <Gold.PLP.Chemscore.Metal>
0.0000

> <Gold.Chemscore.Hbonds>
donor molecule, donor type, donor heavy atom, donor atom, acceptor molecule, acceptor atom, score
      L1  H    10    33       P1 10175  0.68
      L1  H    18    44       P1  8028  1.89
      P1  H  7997  8010       L1     2  1.00

> <Gold.PLP.Chemscore.Internal.Correction>
0.1878

> <Gold.Rescore>
     Score         DG    S(hbond)    S(metal)    S(lipo)     H(rot)  DE(clash)    DE(int)     intcor
     18.31     -19.15       2.72        0.00      94.08       2.51       0.40       0.44       ----

> <Gold.Chemscore.Fitness>
18.3113

> <Gold.Chemscore.DG>
-19.1502

> <Gold.Chemscore.ZeroCoef>
-5.4800

> <Gold.Chemscore.Hbond>
2.7247

> <Gold.Chemscore.Metal>
0.0000

> <Gold.Chemscore.Lipo>
94.0765

> <Gold.Chemscore.Internal_Hbond>
0.0000

> <Gold.Chemscore.DEClash>
0.3991

> <Gold.Chemscore.DEInternal>
0.4398

> <Gold.Chemscore.Rot>
2.5145

> <Gold.Chemscore.Internal.Correction>
   9.000000E+99

> <Gold.Chemscore.Hbonds>
donor molecule, donor type, donor heavy atom, donor atom, acceptor molecule, acceptor atom, score
      L1  H    10    33       P1 10175  0.19
      L1  H    18    44       P1  8028  0.91
      P1  H  7997  8010       L1     2  0.65

> <Gold.Chemscore.Hbond.Weighted>
-9.1004

> <Gold.Chemscore.Metal.Weighted>
-0.0000

> <Gold.Chemscore.Lipo.Weighted>
-11.0069

> <Gold.Chemscore.Internal_Hbond.Weighted>
0.0000

> <Gold.Chemscore.DEClash.Weighted>
0.3991

> <Gold.Chemscore.DEInternal.Weighted>
0.4398

> <Gold.Chemscore.Rot.Weighted>
6.4372

> <Gold.Chemscore.Internal.Correction.Weighted>
   9.000000E+99

> <Gold.Protein.RotatedTorsions>
[ 6907 6896 6895 6894 ] final  -76.25 input  -60.11 | X-H torsion
[ 7974 7965 7964 7962 ] final  154.85 input  175.53 | X-H torsion
[ 8008 7997 7996 7995 ] final   92.88 input   59.86 | X-H torsion
[ 10167 10162 10161 10158 ] final  -34.77 input  -65.29 | X-H torsion
[ 10718 10713 10712 10709 ] final   88.67 input   66.30 | X-H torsion
[ 10763 10752 10751 10750 ] final  -56.88 input  -60.55 | X-H torsion
[ 11005 11000 10999 10996 ] final   76.72 input  -57.11 | X-H torsion

> <Gold.Protein.ActiveResidues>
 VAL166  LYS551  ARG553  GLY616  TRP617  ASP618  TYR619  PRO620  LYS621  CYS622 
 ASP623  PHE694  ASN695  SER759  ASP760  ASP761  ALA762  ILE779  LEU786  VAL792 
 PHE793  MET794  SER795  GLU796  ALA797  LYS798  CYS799  TRP800  GLU811  SER814 

> <Gold.Protein.RotatedAtoms>
  150.7033  134.4600  159.5375 H   0  0  0  0  0  0  0  0  0  0  0  0  # atno 6907 bound_to 6896
  152.2276  134.8350  160.0487 H   0  0  0  0  0  0  0  0  0  0  0  0  # atno 6908 bound_to 6896
  151.9177  133.3542  159.3923 H   0  0  0  0  0  0  0  0  0  0  0  0  # atno 6909 bound_to 6896
  144.8062  139.6988  143.6161 H   0  0  0  0  0  0  0  0  0  0  0  0  # atno 7974 bound_to 7965
  156.0404  140.3320  155.7237 H   0  0  0  0  0  0  0  0  0  0  0  0  # atno 8008 bound_to 7997
  155.5753  140.0632  157.2814 H   0  0  0  0  0  0  0  0  0  0  0  0  # atno 8009 bound_to 7997
  154.4390  140.1853  156.0909 H   0  0  0  0  0  0  0  0  0  0  0  0  # atno 8010 bound_to 7997
  140.7179  143.3525  151.2127 H   0  0  0  0  0  0  0  0  0  0  0  0  # atno 10167 bound_to 10162
  157.6950  131.0304  150.3310 H   0  0  0  0  0  0  0  0  0  0  0  0  # atno 10718 bound_to 10713
  154.2136  135.6390  153.5123 H   0  0  0  0  0  0  0  0  0  0  0  0  # atno 10763 bound_to 10752
  152.9984  135.5480  154.6189 H   0  0  0  0  0  0  0  0  0  0  0  0  # atno 10764 bound_to 10752
  154.5632  135.2910  155.0873 H   0  0  0  0  0  0  0  0  0  0  0  0  # atno 10765 bound_to 10752
  139.9286  134.7624  156.1431 H   0  0  0  0  0  0  0  0  0  0  0  0  # atno 11005 bound_to 11000
  146.2354  139.5895  142.9527 LP  0  0  0  0  0  0  0  0  0  0  0  0  # atno 17320 bound_to 7965
  145.5432  141.0419  143.2319 LP  0  0  0  0  0  0  0  0  0  0  0  0  # atno 17321 bound_to 7965
  139.7058  143.9457  152.2926 LP  0  0  0  0  0  0  0  0  0  0  0  0  # atno 17342 bound_to 10162
  139.9165  144.6825  150.8506 LP  0  0  0  0  0  0  0  0  0  0  0  0  # atno 17343 bound_to 10162
  156.3783  130.3876  149.7121 LP  0  0  0  0  0  0  0  0  0  0  0  0  # atno 17370 bound_to 10713
  156.4512  130.7907  151.2929 LP  0  0  0  0  0  0  0  0  0  0  0  0  # atno 17371 bound_to 10713
  141.0860  133.6734  156.2437 LP  0  0  0  0  0  0  0  0  0  0  0  0  # atno 17394 bound_to 11000
  140.6266  134.5307  157.5554 LP  0  0  0  0  0  0  0  0  0  0  0  0  # atno 17395 bound_to 11000

$$$$
