AV-unprocessed.smi:915|AV-procd|sdf|4154|dock4
  -GOLD-   22720 2 63D 1   1.00000     0.00000
 Structure written by MMmdl.
 34 35  0  0  0  0  0  0  0  0  1 V2000
  153.3951  140.1653  160.0028 C   0  0  0  0  0  0  0  0  0  0  0  0
  153.5849  141.6162  160.4587 C   0  0  0  0  0  0  0  0  0  0  0  0
  152.8134  142.5838  159.6136 C   0  0  0  0  0  0  0  0  0  0  0  0
  152.7772  143.9501  159.7495 C   0  0  0  0  0  0  0  0  0  0  0  0
  151.7444  144.6987  158.5611 S   0  0  0  0  0  0  0  0  0  0  0  0
  151.3980  143.1029  157.9140 C   0  0  0  0  0  0  0  0  0  0  0  0
  150.5299  142.9134  156.8069 N   0  0  0  0  0  0  0  0  0  0  0  0
  150.3736  141.8110  156.0534 C   0  0  0  0  0  0  0  0  0  0  0  0
  150.9828  140.7520  156.2073 O   0  0  0  0  0  0  0  0  0  0  0  0
  149.4554  142.0050  155.0954 N   0  0  0  0  0  0  0  0  0  0  0  0
  149.0470  141.0166  154.1014 C   0  0  0  0  0  0  0  0  0  0  0  0
  147.5321  140.7455  154.1434 C   0  0  2  0  0  0  0  0  0  0  0  0
  147.0041  140.3005  155.5158 C   0  0  0  0  0  0  0  0  0  0  0  0
  145.6837  139.5708  155.2696 C   0  0  0  0  0  0  0  0  0  0  0  0
  145.9320  138.6204  154.0985 C   0  0  0  0  0  0  0  0  0  0  0  0
  147.0525  139.4628  152.9520 S   0  0  0  0  0  0  0  0  0  0  0  0
  152.0215  142.1124  158.5619 N   0  0  0  0  0  0  0  0  0  0  0  0
  153.9621  139.4820  160.6352 H   0  0  0  0  0  0  0  0  0  0  0  0
  153.7346  140.0271  158.9760 H   0  0  0  0  0  0  0  0  0  0  0  0
  152.3461  139.8721  160.0519 H   0  0  0  0  0  0  0  0  0  0  0  0
  153.2809  141.7061  161.5022 H   0  0  0  0  0  0  0  0  0  0  0  0
  154.6465  141.8647  160.4350 H   0  0  0  0  0  0  0  0  0  0  0  0
  153.2931  144.5594  160.4766 H   0  0  0  0  0  0  0  0  0  0  0  0
  149.9641  143.7113  156.5586 H   0  0  0  0  0  0  0  0  0  0  0  0
  149.0053  142.9072  155.0462 H   0  0  0  0  0  0  0  0  0  0  0  0
  149.3188  141.4081  153.1209 H   0  0  0  0  0  0  0  0  0  0  0  0
  149.6053  140.0863  154.2204 H   0  0  0  0  0  0  0  0  0  0  0  0
  146.9980  141.6495  153.8477 H   0  0  0  0  0  0  0  0  0  0  0  0
  147.7103  139.6117  155.9818 H   0  0  0  0  0  0  0  0  0  0  0  0
  146.8788  141.1440  156.1952 H   0  0  0  0  0  0  0  0  0  0  0  0
  145.3388  139.0395  156.1570 H   0  0  0  0  0  0  0  0  0  0  0  0
  144.9119  140.2932  155.0006 H   0  0  0  0  0  0  0  0  0  0  0  0
  146.4251  137.7143  154.4515 H   0  0  0  0  0  0  0  0  0  0  0  0
  145.0073  138.3258  153.6018 H   0  0  0  0  0  0  0  0  0  0  0  0
  1  2  1  0  0  0  0
  1 18  1  0  0  0  0
  1 19  1  0  0  0  0
  1 20  1  0  0  0  0
  2  3  1  0  0  0  0
  2 21  1  0  0  0  0
  2 22  1  0  0  0  0
  3 17  1  0  0  0  0
  3  4  2  0  0  0  0
  4  5  1  0  0  0  0
  4 23  1  0  0  0  0
  5  6  1  0  0  0  0
  6  7  1  0  0  0  0
  6 17  2  0  0  0  0
  7  8  1  0  0  0  0
  7 24  1  0  0  0  0
  8  9  2  0  0  0  0
  8 10  1  0  0  0  0
 10 11  1  0  0  0  0
 10 25  1  0  0  0  0
 11 12  1  0  0  0  0
 11 26  1  0  0  0  0
 11 27  1  0  0  0  0
 12 16  1  0  0  0  0
 12 13  1  0  0  0  0
 12 28  1  0  0  0  0
 13 14  1  0  0  0  0
 13 29  1  0  0  0  0
 13 30  1  0  0  0  0
 14 15  1  0  0  0  0
 14 31  1  0  0  0  0
 14 32  1  0  0  0  0
 15 16  1  0  0  0  0
 15 33  1  0  0  0  0
 15 34  1  0  0  0  0
M  END
> <s_m_source_file>
AV-unprocessed.smi

> <i_m_source_file_index>
915

> <i_lp_mmshare_version>
43012

> <i_f3d_flags>
0

> <s_epik_input>
W0NIM11bQ0gyXWMxW2NIXXNjKG4xKVtOSF1DKD1PKVtOSF1bQ0gyXVtDQEBIXTJbQ0gyXVtDSDJdW0NIMl1TMg==

> <s_epik_cmdline>
J2VwaWtfcHl0aG9uJywgJy1waCcsICc3LjAnLCAnLXRuJywgJzgnLCAnLW1hJywgJzIwMCcsICctbWV0YWxfYmluZGluZycsICctaW1hZScsICc8aW5maWxlLm1hZT4nLCAnLW9tYWUnLCAnPG91dGZpbGUubWFlPic=

> <r_lp_tautomer_probability>
0.999

> <r_epik_Ionization_Penalty>
0.000460048

> <r_epik_Ionization_Penalty_Charging>
0

> <r_epik_Ionization_Penalty_Neutral>
0.000460048

> <r_epik_State_Penalty>
0.000177984

> <r_epik_Charging_Adjusted_Penalty>
0.000177984

> <i_epik_Tot_Q>
0

> <i_epik_Tot_abs_Q>
0

> <r_epik_Metal_State_Penalty>
0.00612978

> <b_epik_Metal_Only>
0

> <s_lp_Force_Field>
OPLS_2005

> <r_lp_Energy>
7.49707

> <b_lp_Chiralities_Consistent>
1

> <s_lp_Variant>
AV-unprocessed.smi:915-1

> <Gold.Version>
5.8.1

> <Gold.Id.Protein>
6NUR|6NUR_protein|mol2

> <Gold.PLP.Fitness>
41.2203

> <Gold.PLP.PLP>
-35.3232

> <Gold.PLP.part.hbond>
-2.0000

> <Gold.PLP.part.metal>
0.0000

> <Gold.PLP.part.buried>
-3.6956

> <Gold.PLP.part.nonpolar>
-29.6390

> <Gold.PLP.part.repulsive>
0.2705

> <Gold.PLP.ligand.clash>
0.0000

> <Gold.PLP.ligand.torsion>
0.0548

> <Gold.PLP.Chemscore.Hbond>
2.0000

> <Gold.PLP.Chemscore.CHOScore>
0.0000

> <Gold.PLP.Chemscore.Metal>
0.0000

> <Gold.Chemscore.Hbonds>
donor molecule, donor type, donor heavy atom, donor atom, acceptor molecule, acceptor atom, score
      L1  H     7    24       P1  8028  1.00
      L1  H    10    25       P1  8028  1.00

> <Gold.PLP.Chemscore.Internal.Correction>
0.0068

> <Gold.Rescore>
     Score         DG    S(hbond)    S(metal)    S(lipo)     H(rot)  DE(clash)    DE(int)     intcor
     17.17     -18.57       1.96        0.00      85.65       1.36       0.05       1.36       ----

> <Gold.Chemscore.Fitness>
17.1660

> <Gold.Chemscore.DG>
-18.5731

> <Gold.Chemscore.ZeroCoef>
-5.4800

> <Gold.Chemscore.Hbond>
1.9624

> <Gold.Chemscore.Metal>
0.0000

> <Gold.Chemscore.Lipo>
85.6518

> <Gold.Chemscore.Internal_Hbond>
0.0000

> <Gold.Chemscore.DEClash>
0.0508

> <Gold.Chemscore.DEInternal>
1.3564

> <Gold.Chemscore.Rot>
1.3603

> <Gold.Chemscore.Internal.Correction>
   9.000000E+99

> <Gold.Chemscore.Hbonds>
donor molecule, donor type, donor heavy atom, donor atom, acceptor molecule, acceptor atom, score
      L1  H     7    24       P1  8028  1.00
      L1  H    10    25       P1  8028  0.94

> <Gold.Chemscore.Hbond.Weighted>
-6.5543

> <Gold.Chemscore.Metal.Weighted>
-0.0000

> <Gold.Chemscore.Lipo.Weighted>
-10.0213

> <Gold.Chemscore.Internal_Hbond.Weighted>
0.0000

> <Gold.Chemscore.DEClash.Weighted>
0.0508

> <Gold.Chemscore.DEInternal.Weighted>
1.3564

> <Gold.Chemscore.Rot.Weighted>
3.4824

> <Gold.Chemscore.Internal.Correction.Weighted>
   9.000000E+99

> <Gold.Protein.RotatedTorsions>
[ 6907 6896 6895 6894 ] final  -52.50 input  -60.11 | X-H torsion
[ 7974 7965 7964 7962 ] final   52.79 input  175.53 | X-H torsion
[ 8008 7997 7996 7995 ] final   49.55 input   59.86 | X-H torsion
[ 10167 10162 10161 10158 ] final -147.68 input  -65.29 | X-H torsion
[ 10718 10713 10712 10709 ] final  -39.68 input   66.30 | X-H torsion
[ 10763 10752 10751 10750 ] final   92.48 input  -60.55 | X-H torsion
[ 11005 11000 10999 10996 ] final -116.53 input  -57.11 | X-H torsion

> <Gold.Protein.ActiveResidues>
 VAL166  LYS551  ARG553  GLY616  TRP617  ASP618  TYR619  PRO620  LYS621  CYS622 
 ASP623  PHE694  ASN695  SER759  ASP760  ASP761  ALA762  ILE779  LEU786  VAL792 
 PHE793  MET794  SER795  GLU796  ALA797  LYS798  CYS799  TRP800  GLU811  SER814 

> <Gold.Protein.RotatedAtoms>
  150.8512  134.7837  159.7009 H   0  0  0  0  0  0  0  0  0  0  0  0  # atno 6907 bound_to 6896
  152.4576  134.5253  159.9805 H   0  0  0  0  0  0  0  0  0  0  0  0  # atno 6908 bound_to 6896
  151.5374  133.3400  159.2965 H   0  0  0  0  0  0  0  0  0  0  0  0  # atno 6909 bound_to 6896
  145.9778  139.4212  143.0150 H   0  0  0  0  0  0  0  0  0  0  0  0  # atno 7974 bound_to 7965
  155.4041  140.3439  155.4259 H   0  0  0  0  0  0  0  0  0  0  0  0  # atno 8008 bound_to 7997
  156.1487  140.1564  156.8837 H   0  0  0  0  0  0  0  0  0  0  0  0  # atno 8009 bound_to 7997
  154.5033  140.0809  156.7824 H   0  0  0  0  0  0  0  0  0  0  0  0  # atno 8010 bound_to 7997
  139.7600  143.8391  152.2605 H   0  0  0  0  0  0  0  0  0  0  0  0  # atno 10167 bound_to 10162
  156.2898  130.4227  149.8251 H   0  0  0  0  0  0  0  0  0  0  0  0  # atno 10718 bound_to 10713
  153.2196  135.4360  155.0474 H   0  0  0  0  0  0  0  0  0  0  0  0  # atno 10763 bound_to 10752
  154.8243  135.3353  154.6946 H   0  0  0  0  0  0  0  0  0  0  0  0  # atno 10764 bound_to 10752
  153.7379  135.7006  153.5030 H   0  0  0  0  0  0  0  0  0  0  0  0  # atno 10765 bound_to 10752
  141.0416  133.9827  157.2985 H   0  0  0  0  0  0  0  0  0  0  0  0  # atno 11005 bound_to 11000
  145.7813  140.9855  143.1097 LP  0  0  0  0  0  0  0  0  0  0  0  0  # atno 17320 bound_to 7965
  144.6853  139.9568  143.7479 LP  0  0  0  0  0  0  0  0  0  0  0  0  # atno 17321 bound_to 7965
  139.8394  144.7217  150.9350 LP  0  0  0  0  0  0  0  0  0  0  0  0  # atno 17342 bound_to 10162
  140.7806  143.3997  151.1170 LP  0  0  0  0  0  0  0  0  0  0  0  0  # atno 17343 bound_to 10162
  156.5668  130.8407  151.3345 LP  0  0  0  0  0  0  0  0  0  0  0  0  # atno 17370 bound_to 10713
  157.7339  130.9737  150.2001 LP  0  0  0  0  0  0  0  0  0  0  0  0  # atno 17371 bound_to 10713
  139.9280  135.0201  156.8302 LP  0  0  0  0  0  0  0  0  0  0  0  0  # atno 17394 bound_to 11000
  140.6224  133.9982  155.7624 LP  0  0  0  0  0  0  0  0  0  0  0  0  # atno 17395 bound_to 11000

$$$$
