AV-unprocessed.smi:1518|AV-procd|sdf|6126|dock2
  -GOLD-   22720 6263D 1   1.00000     0.00000
 Structure written by MMmdl.
 46 48  0  0  0  0  0  0  0  0  2 V2000
  151.2317  144.7280  158.4038 C   0  0  0  0  0  0  0  0  0  0  0  0
  151.6445  144.2604  159.7986 C   0  0  0  0  0  0  0  0  0  0  0  0
  151.4731  145.0219  160.7499 O   0  0  0  0  0  0  0  0  0  0  0  0
  152.2364  142.8980  159.9324 C   0  0  0  0  0  0  0  0  0  0  0  0
  152.9595  142.5721  161.1020 C   0  0  0  0  0  0  0  0  0  0  0  0
  153.5305  141.2960  161.2547 C   0  0  0  0  0  0  0  0  0  0  0  0
  153.3830  140.3324  160.2413 C   0  0  0  0  0  0  0  0  0  0  0  0
  152.6650  140.6294  159.0664 C   0  0  0  0  0  0  0  0  0  0  0  0
  152.5676  139.6246  158.1279 O   0  0  0  0  0  0  0  0  0  0  0  0
  151.8808  139.8958  156.9130 C   0  0  0  0  0  0  0  0  0  0  0  0
  152.0330  138.6866  155.9792 C   0  0  2  0  0  0  0  0  0  0  0  0
  153.3903  138.5780  155.5996 O   0  0  0  0  0  0  0  0  0  0  0  0
  151.1375  138.7947  154.7284 C   0  0  0  0  0  0  0  0  0  0  0  0
  149.7120  138.5858  155.0279 N   0  0  0  0  0  0  0  0  0  0  0  0
  149.0694  137.4714  155.4821 C   0  0  0  0  0  0  0  0  0  0  0  0
  149.6849  136.1485  155.7997 C   0  0  0  0  0  0  0  0  0  0  0  0
  148.7246  135.1882  156.1794 O   0  0  0  0  0  0  0  0  0  0  0  0
  147.7502  137.7886  155.6079 N   0  3  0  0  0  0  0  0  0  0  0  0
  147.5450  139.1157  155.2288 C   0  0  0  0  0  0  0  0  0  0  0  0
  146.3833  139.8807  155.1867 C   0  0  0  0  0  0  0  0  0  0  0  0
  146.5190  141.2139  154.7480 C   0  0  0  0  0  0  0  0  0  0  0  0
  147.7726  141.7385  154.3719 C   0  0  0  0  0  0  0  0  0  0  0  0
  148.9434  140.9534  154.4190 C   0  0  0  0  0  0  0  0  0  0  0  0
  148.8014  139.6358  154.8549 C   0  0  0  0  0  0  0  0  0  0  0  0
  152.0945  141.9196  158.9184 C   0  0  0  0  0  0  0  0  0  0  0  0
  150.4809  144.0595  157.9821 H   0  0  0  0  0  0  0  0  0  0  0  0
  152.0946  144.7526  157.7380 H   0  0  0  0  0  0  0  0  0  0  0  0
  150.8078  145.7314  158.4480 H   0  0  0  0  0  0  0  0  0  0  0  0
  153.0848  143.2966  161.8940 H   0  0  0  0  0  0  0  0  0  0  0  0
  154.0827  141.0557  162.1512 H   0  0  0  0  0  0  0  0  0  0  0  0
  153.8246  139.3547  160.3676 H   0  0  0  0  0  0  0  0  0  0  0  0
  150.8235  140.0927  157.0991 H   0  0  0  0  0  0  0  0  0  0  0  0
  152.3145  140.7806  156.4437 H   0  0  0  0  0  0  0  0  0  0  0  0
  151.7798  137.7816  156.5323 H   0  0  0  0  0  0  0  0  0  0  0  0
  153.9293  138.7596  156.3539 H   0  0  0  0  0  0  0  0  0  0  0  0
  151.2277  139.7897  154.2913 H   0  0  0  0  0  0  0  0  0  0  0  0
  151.4527  138.0974  153.9522 H   0  0  0  0  0  0  0  0  0  0  0  0
  150.2290  135.7824  154.9287 H   0  0  0  0  0  0  0  0  0  0  0  0
  150.4108  136.2646  156.6043 H   0  0  0  0  0  0  0  0  0  0  0  0
  148.9802  134.8200  157.0117 H   0  0  0  0  0  0  0  0  0  0  0  0
  145.4218  139.4807  155.4735 H   0  0  0  0  0  0  0  0  0  0  0  0
  145.6443  141.8461  154.6979 H   0  0  0  0  0  0  0  0  0  0  0  0
  147.8380  142.7645  154.0394 H   0  0  0  0  0  0  0  0  0  0  0  0
  149.8962  141.3670  154.1251 H   0  0  0  0  0  0  0  0  0  0  0  0
  151.5454  142.1628  158.0230 H   0  0  0  0  0  0  0  0  0  0  0  0
  147.0438  137.1419  155.9345 H   0  0  0  0  0  0  0  0  0  0  0  0
  1  2  1  0  0  0  0
  1 26  1  0  0  0  0
  1 27  1  0  0  0  0
  1 28  1  0  0  0  0
  2  3  2  0  0  0  0
  2  4  1  0  0  0  0
  4 25  1  0  0  0  0
  4  5  2  0  0  0  0
  5  6  1  0  0  0  0
  5 29  1  0  0  0  0
  6  7  2  0  0  0  0
  6 30  1  0  0  0  0
  7  8  1  0  0  0  0
  7 31  1  0  0  0  0
  8  9  1  0  0  0  0
  8 25  2  0  0  0  0
  9 10  1  0  0  0  0
 10 11  1  0  0  0  0
 10 32  1  0  0  0  0
 10 33  1  0  0  0  0
 11 12  1  0  0  0  0
 11 13  1  0  0  0  0
 11 34  1  0  0  0  0
 12 35  1  0  0  0  0
 13 14  1  0  0  0  0
 13 36  1  0  0  0  0
 13 37  1  0  0  0  0
 14 24  1  0  0  0  0
 14 15  1  0  0  0  0
 15 16  1  0  0  0  0
 15 18  2  0  0  0  0
 16 17  1  0  0  0  0
 16 38  1  0  0  0  0
 16 39  1  0  0  0  0
 17 40  1  0  0  0  0
 18 19  1  0  0  0  0
 18 46  1  0  0  0  0
 19 24  2  0  0  0  0
 19 20  1  0  0  0  0
 20 21  2  0  0  0  0
 20 41  1  0  0  0  0
 21 22  1  0  0  0  0
 21 42  1  0  0  0  0
 22 23  2  0  0  0  0
 22 43  1  0  0  0  0
 23 24  1  0  0  0  0
 23 44  1  0  0  0  0
 25 45  1  0  0  0  0
M  CHG  1  18   1
M  END
> <s_m_source_file>
AV-unprocessed.smi

> <i_m_source_file_index>
1518

> <i_lp_mmshare_version>
43012

> <i_f3d_flags>
0

> <s_epik_input>
W0NIM11DKD1PKWMxW2NIXVtjSF1bY0hdYyhbY0hdMSlPW0NIMl1bQ0BIXShbT0hdKVtDSDJdbihjKG4yKVtDSDJdW09IXSljKGMyMylbY0hdW2NIXVtjSF1bY0hdMw==

> <s_epik_cmdline>
J2VwaWtfcHl0aG9uJywgJy1waCcsICc3LjAnLCAnLXRuJywgJzgnLCAnLW1hJywgJzIwMCcsICctbWV0YWxfYmluZGluZycsICctaW1hZScsICc8aW5maWxlLm1hZT4nLCAnLW9tYWUnLCAnPG91dGZpbGUubWFlPic=

> <r_lp_tautomer_probability>
0.99995

> <r_epik_Ionization_Penalty>
1.40416

> <r_epik_Ionization_Penalty_Charging>
1.4033

> <r_epik_Ionization_Penalty_Neutral>
0.000858184

> <r_epik_State_Penalty>
1.48564

> <r_epik_Charging_Adjusted_Penalty>
2.88894

> <i_epik_Tot_Q>
1

> <i_epik_Tot_abs_Q>
1

> <r_epik_Metal_State_Penalty>
5.52809

> <b_epik_Metal_Only>
0

> <s_lp_Force_Field>
OPLS_2005

> <r_lp_Energy>
23.9778

> <b_lp_Chiralities_Consistent>
1

> <s_lp_Variant>
AV-unprocessed.smi:1518-3

> <Gold.Version>
5.8.1

> <Gold.Id.Protein>
6NUR|6NUR_protein|mol2

> <Gold.PLP.Fitness>
51.4544

> <Gold.PLP.PLP>
-49.6178

> <Gold.PLP.part.hbond>
-2.0000

> <Gold.PLP.part.metal>
0.0000

> <Gold.PLP.part.buried>
-2.4232

> <Gold.PLP.part.nonpolar>
-43.4674

> <Gold.PLP.part.repulsive>
0.1940

> <Gold.PLP.ligand.clash>
0.0000

> <Gold.PLP.ligand.torsion>
0.3019

> <Gold.PLP.Chemscore.Hbond>
0.7589

> <Gold.PLP.Chemscore.CHOScore>
0.0000

> <Gold.PLP.Chemscore.Metal>
0.0000

> <Gold.Chemscore.Hbonds>
donor molecule, donor type, donor heavy atom, donor atom, acceptor molecule, acceptor atom, score
      P1  H  7997  8010       L1     9  0.08

> <Gold.PLP.Chemscore.Internal.Correction>
0.1636

> <Gold.Rescore>
     Score         DG    S(hbond)    S(metal)    S(lipo)     H(rot)  DE(clash)    DE(int)     intcor
     11.33     -12.03       0.00        0.00     129.07       3.34       0.11       0.60       ----

> <Gold.Chemscore.Fitness>
11.3288

> <Gold.Chemscore.DG>
-12.0343

> <Gold.Chemscore.ZeroCoef>
-5.4800

> <Gold.Chemscore.Hbond>
0.0000

> <Gold.Chemscore.Metal>
0.0000

> <Gold.Chemscore.Lipo>
129.0720

> <Gold.Chemscore.Internal_Hbond>
0.0000

> <Gold.Chemscore.DEClash>
0.1085

> <Gold.Chemscore.DEInternal>
0.5970

> <Gold.Chemscore.Rot>
3.3387

> <Gold.Chemscore.Internal.Correction>
   9.000000E+99

> <Gold.Chemscore.Hbond.Weighted>
-0.0000

> <Gold.Chemscore.Metal.Weighted>
-0.0000

> <Gold.Chemscore.Lipo.Weighted>
-15.1014

> <Gold.Chemscore.Internal_Hbond.Weighted>
0.0000

> <Gold.Chemscore.DEClash.Weighted>
0.1085

> <Gold.Chemscore.DEInternal.Weighted>
0.5970

> <Gold.Chemscore.Rot.Weighted>
8.5471

> <Gold.Chemscore.Internal.Correction.Weighted>
   9.000000E+99

> <Gold.Protein.RotatedTorsions>
[ 6907 6896 6895 6894 ] final   45.76 input  -60.11 | X-H torsion
[ 7974 7965 7964 7962 ] final  -89.77 input  175.53 | X-H torsion
[ 8008 7997 7996 7995 ] final   30.05 input   59.86 | X-H torsion
[ 10167 10162 10161 10158 ] final  -58.96 input  -65.29 | X-H torsion
[ 10718 10713 10712 10709 ] final -111.29 input   66.30 | X-H torsion
[ 10763 10752 10751 10750 ] final -165.53 input  -60.55 | X-H torsion
[ 11005 11000 10999 10996 ] final  -64.10 input  -57.11 | X-H torsion

> <Gold.Protein.ActiveResidues>
 VAL166  LYS551  ARG553  GLY616  TRP617  ASP618  TYR619  PRO620  LYS621  CYS622 
 ASP623  PHE694  ASN695  SER759  ASP760  ASP761  ALA762  ILE779  LEU786  VAL792 
 PHE793  MET794  SER795  GLU796  ALA797  LYS798  CYS799  TRP800  GLU811  SER814 

> <Gold.Protein.RotatedAtoms>
  152.2484  134.8158  160.0449 H   0  0  0  0  0  0  0  0  0  0  0  0  # atno 6907 bound_to 6896
  151.8847  133.3498  159.3786 H   0  0  0  0  0  0  0  0  0  0  0  0  # atno 6908 bound_to 6896
  150.7076  134.4910  159.5559 H   0  0  0  0  0  0  0  0  0  0  0  0  # atno 6909 bound_to 6896
  145.4354  140.9557  143.2105 H   0  0  0  0  0  0  0  0  0  0  0  0  # atno 7974 bound_to 7965
  155.0842  140.3213  155.4592 H   0  0  0  0  0  0  0  0  0  0  0  0  # atno 8008 bound_to 7997
  156.2759  140.2089  156.5916 H   0  0  0  0  0  0  0  0  0  0  0  0  # atno 8009 bound_to 7997
  154.6954  140.0512  157.0393 H   0  0  0  0  0  0  0  0  0  0  0  0  # atno 8010 bound_to 7997
  140.6165  143.2404  151.5584 H   0  0  0  0  0  0  0  0  0  0  0  0  # atno 10167 bound_to 10162
  156.0639  130.5860  150.8354 H   0  0  0  0  0  0  0  0  0  0  0  0  # atno 10718 bound_to 10713
  154.6923  135.2973  154.9462 H   0  0  0  0  0  0  0  0  0  0  0  0  # atno 10763 bound_to 10752
  154.0421  135.6656  153.4795 H   0  0  0  0  0  0  0  0  0  0  0  0  # atno 10764 bound_to 10752
  153.0620  135.5110  154.8021 H   0  0  0  0  0  0  0  0  0  0  0  0  # atno 10765 bound_to 10752
  141.1414  133.6661  156.5781 H   0  0  0  0  0  0  0  0  0  0  0  0  # atno 11005 bound_to 11000
  144.8156  139.5884  143.7010 LP  0  0  0  0  0  0  0  0  0  0  0  0  # atno 17320 bound_to 7965
  146.2585  139.6356  142.9378 LP  0  0  0  0  0  0  0  0  0  0  0  0  # atno 17321 bound_to 7965
  139.5403  144.2667  152.1336 LP  0  0  0  0  0  0  0  0  0  0  0  0  # atno 17342 bound_to 10162
  140.1877  144.4782  150.6495 LP  0  0  0  0  0  0  0  0  0  0  0  0  # atno 17343 bound_to 10162
  157.5667  131.0946  150.9479 LP  0  0  0  0  0  0  0  0  0  0  0  0  # atno 17370 bound_to 10713
  156.9704  130.5489  149.5290 LP  0  0  0  0  0  0  0  0  0  0  0  0  # atno 17371 bound_to 10713
  140.3859  134.7482  157.4691 LP  0  0  0  0  0  0  0  0  0  0  0  0  # atno 17394 bound_to 11000
  140.0602  134.6006  155.8757 LP  0  0  0  0  0  0  0  0  0  0  0  0  # atno 17395 bound_to 11000

$$$$
