AV-unprocessed.smi:1056|AV-procd|sdf|4637|dock1
  -GOLD-   22720 3143D 1   1.00000     0.00000
 Structure written by MMmdl.
 46 48  0  0  0  0  0  0  0  0  3 V2000
  152.4590  143.8508  161.1452 C   0  0  0  0  0  0  0  0  0  0  0  0
  152.2083  143.0035  159.9090 C   0  0  0  0  0  0  0  0  0  0  0  0
  151.3091  143.4869  158.9316 C   0  0  0  0  0  0  0  0  0  0  0  0
  151.1003  142.6904  157.8123 C   0  0  0  0  0  0  0  0  0  0  0  0
  150.2905  142.8810  156.6903 N   0  3  0  0  0  0  0  0  0  0  0  0
  150.4213  141.8182  155.8489 C   0  0  0  0  0  0  0  0  0  0  0  0
  151.2990  140.9486  156.4204 N   0  0  0  0  0  0  0  0  0  0  0  0
  151.7990  139.6557  155.9351 C   0  0  0  0  0  0  0  0  0  0  0  0
  150.7345  138.8457  155.1648 C   0  0  1  0  0  0  0  0  0  0  0  0
  150.4884  139.4658  153.9194 O   0  0  0  0  0  0  0  0  0  0  0  0
  151.1724  137.3920  154.8915 C   0  0  0  0  0  0  0  0  0  0  0  0
  150.0262  136.4701  154.6895 N   0  3  1  0  0  0  0  0  0  0  0  0
  150.3589  135.0418  154.9066 C   0  0  0  0  0  0  0  0  0  0  0  0
  149.1839  134.1521  154.4635 C   0  0  0  0  0  0  0  0  0  0  0  0
  147.8858  134.6621  154.8983 N   0  0  0  0  0  0  0  0  0  0  0  0
  147.6511  135.9016  155.3593 C   0  0  0  0  0  0  0  0  0  0  0  0
  146.5271  136.2644  155.6955 O   0  0  0  0  0  0  0  0  0  0  0  0
  148.8292  136.8819  155.4668 C   0  0  0  0  0  0  0  0  0  0  0  0
  151.7508  141.4523  157.6451 C   0  0  0  0  0  0  0  0  0  0  0  0
  152.6398  140.9605  158.5977 C   0  0  0  0  0  0  0  0  0  0  0  0
  152.8632  141.7552  159.7451 C   0  0  0  0  0  0  0  0  0  0  0  0
  153.8241  141.2434  160.8045 C   0  0  0  0  0  0  0  0  0  0  0  0
  151.9379  144.8070  161.0860 H   0  0  0  0  0  0  0  0  0  0  0  0
  153.5228  144.0601  161.2606 H   0  0  0  0  0  0  0  0  0  0  0  0
  152.1085  143.3343  162.0391 H   0  0  0  0  0  0  0  0  0  0  0  0
  150.8066  144.4360  159.0506 H   0  0  0  0  0  0  0  0  0  0  0  0
  149.9192  141.6891  154.9007 H   0  0  0  0  0  0  0  0  0  0  0  0
  152.6576  139.8591  155.2933 H   0  0  0  0  0  0  0  0  0  0  0  0
  152.1784  139.0965  156.7913 H   0  0  0  0  0  0  0  0  0  0  0  0
  149.7923  138.8593  155.7112 H   0  0  0  0  0  0  0  0  0  0  0  0
  149.7520  139.0382  153.5089 H   0  0  0  0  0  0  0  0  0  0  0  0
  151.8288  137.3440  154.0209 H   0  0  0  0  0  0  0  0  0  0  0  0
  151.7661  137.0467  155.7398 H   0  0  0  0  0  0  0  0  0  0  0  0
  151.2528  134.7528  154.3555 H   0  0  0  0  0  0  0  0  0  0  0  0
  150.5738  134.8817  155.9646 H   0  0  0  0  0  0  0  0  0  0  0  0
  149.1638  134.0897  153.3749 H   0  0  0  0  0  0  0  0  0  0  0  0
  149.3166  133.1350  154.8333 H   0  0  0  0  0  0  0  0  0  0  0  0
  147.1019  134.0272  154.8384 H   0  0  0  0  0  0  0  0  0  0  0  0
  149.0948  136.9759  156.5208 H   0  0  0  0  0  0  0  0  0  0  0  0
  148.4998  137.8659  155.1299 H   0  0  0  0  0  0  0  0  0  0  0  0
  153.1404  140.0122  158.4723 H   0  0  0  0  0  0  0  0  0  0  0  0
  154.1946  140.2473  160.5608 H   0  0  0  0  0  0  0  0  0  0  0  0
  153.3308  141.1857  161.7752 H   0  0  0  0  0  0  0  0  0  0  0  0
  154.6840  141.9078  160.8922 H   0  0  0  0  0  0  0  0  0  0  0  0
  149.7610  136.5556  153.7189 H   0  0  0  0  0  0  0  0  0  0  0  0
  149.6940  143.6785  156.5082 H   0  0  0  0  0  0  0  0  0  0  0  0
  1  2  1  0  0  0  0
  1 23  1  0  0  0  0
  1 24  1  0  0  0  0
  1 25  1  0  0  0  0
  2 21  1  0  0  0  0
  2  3  2  0  0  0  0
  3  4  1  0  0  0  0
  3 26  1  0  0  0  0
  4 19  2  0  0  0  0
  4  5  1  0  0  0  0
  5  6  2  0  0  0  0
  5 46  1  0  0  0  0
  6  7  1  0  0  0  0
  6 27  1  0  0  0  0
  7  8  1  0  0  0  0
  7 19  1  0  0  0  0
  8  9  1  0  0  0  0
  8 28  1  0  0  0  0
  8 29  1  0  0  0  0
  9 10  1  0  0  0  0
  9 11  1  0  0  0  0
  9 30  1  0  0  0  0
 10 31  1  0  0  0  0
 11 12  1  0  0  0  0
 11 32  1  0  0  0  0
 11 33  1  0  0  0  0
 12 18  1  0  0  0  0
 12 13  1  0  0  0  0
 12 45  1  0  0  0  0
 13 14  1  0  0  0  0
 13 34  1  0  0  0  0
 13 35  1  0  0  0  0
 14 15  1  0  0  0  0
 14 36  1  0  0  0  0
 14 37  1  0  0  0  0
 15 16  1  0  0  0  0
 15 38  1  0  0  0  0
 16 17  2  0  0  0  0
 16 18  1  0  0  0  0
 18 39  1  0  0  0  0
 18 40  1  0  0  0  0
 19 20  1  0  0  0  0
 20 21  2  0  0  0  0
 20 41  1  0  0  0  0
 21 22  1  0  0  0  0
 22 42  1  0  0  0  0
 22 43  1  0  0  0  0
 22 44  1  0  0  0  0
M  CHG  1   5   1
M  CHG  1  12   1
M  END
> <s_m_source_file>
AV-unprocessed.smi

> <i_m_source_file_index>
1056

> <i_lp_mmshare_version>
43012

> <i_f3d_flags>
0

> <s_epik_input>
W0NIM11jKFtjSF0xKWMoW0NIM10pW2NIXWMoYzEyKW4oW2NIXW4yKVtDSDJdW0NASF0oW09IXSlbQ0gyXU4zW0NIMl1bQ0gyXVtOSF1DKD1PKVtDSDJdMw==

> <s_epik_cmdline>
J2VwaWtfcHl0aG9uJywgJy1waCcsICc3LjAnLCAnLXRuJywgJzgnLCAnLW1hJywgJzIwMCcsICctbWV0YWxfYmluZGluZycsICctaW1hZScsICc8aW5maWxlLm1hZT4nLCAnLW9tYWUnLCAnPG91dGZpbGUubWFlPic=

> <r_epik_Ionization_Penalty>
1.262

> <r_epik_Ionization_Penalty_Charging>
1.26188

> <r_epik_Ionization_Penalty_Neutral>
0.000125436

> <r_epik_State_Penalty>
1.3387

> <r_epik_Charging_Adjusted_Penalty>
2.60058

> <i_epik_Tot_Q>
2

> <i_epik_Tot_abs_Q>
2

> <r_epik_Metal_State_Penalty>
1.58938

> <b_epik_Metal_Only>
0

> <s_lp_Force_Field>
OPLS_2005

> <r_lp_Energy>
35.3979

> <b_lp_Chiralities_Consistent>
1

> <s_lp_Variant>
AV-unprocessed.smi:1056-8

> <Gold.Version>
5.8.1

> <Gold.Id.Protein>
6NUR|6NUR_protein|mol2

> <Gold.PLP.Fitness>
57.3858

> <Gold.PLP.PLP>
-44.1842

> <Gold.PLP.part.hbond>
-4.0000

> <Gold.PLP.part.metal>
0.0000

> <Gold.PLP.part.buried>
-4.8860

> <Gold.PLP.part.nonpolar>
-35.2799

> <Gold.PLP.part.repulsive>
0.1143

> <Gold.PLP.ligand.clash>
0.0000

> <Gold.PLP.ligand.torsion>
0.9376

> <Gold.PLP.Chemscore.Hbond>
5.0000

> <Gold.PLP.Chemscore.CHOScore>
0.0000

> <Gold.PLP.Chemscore.Metal>
0.0000

> <Gold.Chemscore.Hbonds>
donor molecule, donor type, donor heavy atom, donor atom, acceptor molecule, acceptor atom, score
      L1  H     5    46       P1  8028  2.00
      L1  H    12    45       P1  7948  2.00
      P1  H  7989  7998       L1    10  1.00

> <Gold.PLP.Chemscore.Internal.Correction>
0.0768

> <Gold.Rescore>
     Score         DG    S(hbond)    S(metal)    S(lipo)     H(rot)  DE(clash)    DE(int)     intcor
     19.27     -20.89       2.67        0.00     108.73       2.44       0.02       1.60       ----

> <Gold.Chemscore.Fitness>
19.2699

> <Gold.Chemscore.DG>
-20.8884

> <Gold.Chemscore.ZeroCoef>
-5.4800

> <Gold.Chemscore.Hbond>
2.6712

> <Gold.Chemscore.Metal>
0.0000

> <Gold.Chemscore.Lipo>
108.7330

> <Gold.Chemscore.Internal_Hbond>
0.0000

> <Gold.Chemscore.DEClash>
0.0218

> <Gold.Chemscore.DEInternal>
1.5967

> <Gold.Chemscore.Rot>
2.4357

> <Gold.Chemscore.Internal.Correction>
   9.000000E+99

> <Gold.Chemscore.Hbonds>
donor molecule, donor type, donor heavy atom, donor atom, acceptor molecule, acceptor atom, score
      L1  H     5    46       P1  8028  0.95
      L1  H    12    45       P1  7948  0.42
      P1  H  7989  7998       L1    10  0.90

> <Gold.Chemscore.Hbond.Weighted>
-8.9220

> <Gold.Chemscore.Metal.Weighted>
-0.0000

> <Gold.Chemscore.Lipo.Weighted>
-12.7218

> <Gold.Chemscore.Internal_Hbond.Weighted>
0.0000

> <Gold.Chemscore.DEClash.Weighted>
0.0218

> <Gold.Chemscore.DEInternal.Weighted>
1.5967

> <Gold.Chemscore.Rot.Weighted>
6.2353

> <Gold.Chemscore.Internal.Correction.Weighted>
   9.000000E+99

> <Gold.Protein.RotatedTorsions>
[ 6907 6896 6895 6894 ] final -125.13 input  -60.11 | X-H torsion
[ 7974 7965 7964 7962 ] final  173.08 input  175.53 | X-H torsion
[ 8008 7997 7996 7995 ] final   84.90 input   59.86 | X-H torsion
[ 10167 10162 10161 10158 ] final -176.78 input  -65.29 | X-H torsion
[ 10718 10713 10712 10709 ] final  -88.73 input   66.30 | X-H torsion
[ 10763 10752 10751 10750 ] final  -46.93 input  -60.55 | X-H torsion
[ 11005 11000 10999 10996 ] final  -40.86 input  -57.11 | X-H torsion

> <Gold.Protein.ActiveResidues>
 VAL166  LYS551  ARG553  GLY616  TRP617  ASP618  TYR619  PRO620  LYS621  CYS622 
 ASP623  PHE694  ASN695  SER759  ASP760  ASP761  ALA762  ILE779  LEU786  VAL792 
 PHE793  MET794  SER795  GLU796  ALA797  LYS798  CYS799  TRP800  GLU811  SER814 

> <Gold.Protein.RotatedAtoms>
  150.8837  133.7337  159.2924 H   0  0  0  0  0  0  0  0  0  0  0  0  # atno 6907 bound_to 6896
  151.4910  135.1056  159.9813 H   0  0  0  0  0  0  0  0  0  0  0  0  # atno 6908 bound_to 6896
  152.4776  133.8130  159.7069 H   0  0  0  0  0  0  0  0  0  0  0  0  # atno 6909 bound_to 6896
  144.7252  139.9594  143.6434 H   0  0  0  0  0  0  0  0  0  0  0  0  # atno 7974 bound_to 7965
  155.9431  140.3406  155.6344 H   0  0  0  0  0  0  0  0  0  0  0  0  # atno 8008 bound_to 7997
  155.7014  140.0761  157.2427 H   0  0  0  0  0  0  0  0  0  0  0  0  # atno 8009 bound_to 7997
  154.4106  140.1639  156.2183 H   0  0  0  0  0  0  0  0  0  0  0  0  # atno 8010 bound_to 7997
  139.5512  144.2104  152.1081 H   0  0  0  0  0  0  0  0  0  0  0  0  # atno 10167 bound_to 10162
  155.9983  130.4846  150.5063 H   0  0  0  0  0  0  0  0  0  0  0  0  # atno 10718 bound_to 10713
  154.0531  135.6628  153.4802 H   0  0  0  0  0  0  0  0  0  0  0  0  # atno 10763 bound_to 10752
  153.0456  135.5117  154.7732 H   0  0  0  0  0  0  0  0  0  0  0  0  # atno 10764 bound_to 10752
  154.6745  135.3035  154.9664 H   0  0  0  0  0  0  0  0  0  0  0  0  # atno 10765 bound_to 10752
  141.0205  133.6865  156.2378 H   0  0  0  0  0  0  0  0  0  0  0  0  # atno 11005 bound_to 11000
  146.0649  139.3641  143.0558 LP  0  0  0  0  0  0  0  0  0  0  0  0  # atno 17320 bound_to 7965
  145.8044  140.9756  143.0982 LP  0  0  0  0  0  0  0  0  0  0  0  0  # atno 17321 bound_to 7965
  140.1599  144.5035  150.6638 LP  0  0  0  0  0  0  0  0  0  0  0  0  # atno 17342 bound_to 10162
  140.6775  143.2312  151.5469 LP  0  0  0  0  0  0  0  0  0  0  0  0  # atno 17343 bound_to 10162
  157.3041  131.0651  151.2047 LP  0  0  0  0  0  0  0  0  0  0  0  0  # atno 17370 bound_to 10713
  157.3016  130.6845  149.6167 LP  0  0  0  0  0  0  0  0  0  0  0  0  # atno 17371 bound_to 10713
  140.6582  134.4996  157.5582 LP  0  0  0  0  0  0  0  0  0  0  0  0  # atno 17394 bound_to 11000
  139.9143  134.8279  156.1420 LP  0  0  0  0  0  0  0  0  0  0  0  0  # atno 17395 bound_to 11000

$$$$
