AV-unprocessed.smi:2867|AV-procd|sdf|11024|dock7
  -GOLD-   2272015483D 1   1.00000     0.00000
 Structure written by MMmdl.
 41 43  0  0  0  0  0  0  0  0  2 V2000
  152.5856  138.8000  154.8121 C   0  0  0  0  0  0  0  0  0  0  0  0
  152.9815  139.0408  156.1504 O   0  0  0  0  0  0  0  0  0  0  0  0
  152.2509  138.2631  157.0853 C   0  0  0  0  0  0  0  0  0  0  0  0
  151.3651  139.1856  157.9336 C   0  0  0  0  0  0  0  0  0  0  0  0
  150.5928  140.1243  157.1042 N   0  0  0  0  0  0  0  0  0  0  0  0
  150.5824  141.4868  157.0575 C   0  0  0  0  0  0  0  0  0  0  0  0
  151.3809  142.4018  157.8870 C   0  0  0  0  0  0  0  0  0  0  0  0
  151.4679  143.7708  157.5527 C   0  0  0  0  0  0  0  0  0  0  0  0
  152.2312  144.6566  158.3379 C   0  0  0  0  0  0  0  0  0  0  0  0
  152.9135  144.1811  159.4730 C   0  0  0  0  0  0  0  0  0  0  0  0
  152.8287  142.8202  159.8207 C   0  0  0  0  0  0  0  0  0  0  0  0
  153.4803  142.3585  160.9142 F   0  0  0  0  0  0  0  0  0  0  0  0
  152.0648  141.9384  159.0322 C   0  0  0  0  0  0  0  0  0  0  0  0
  149.7275  141.8812  156.0760 N   0  3  0  0  0  0  0  0  0  0  0  0
  149.1686  140.7485  155.4810 C   0  0  0  0  0  0  0  0  0  0  0  0
  148.2474  140.6295  154.4453 C   0  0  0  0  0  0  0  0  0  0  0  0
  147.8929  139.3165  154.0698 C   0  0  0  0  0  0  0  0  0  0  0  0
  146.7064  139.0784  152.7522 S   0  0  0  0  0  0  0  0  0  0  0  0
  147.6682  138.3395  151.5324 N   0  0  0  0  0  0  0  0  0  0  0  0
  145.7100  138.0898  153.1918 O   0  0  0  0  0  0  0  0  0  0  0  0
  146.2880  140.3963  152.2502 O   0  0  0  0  0  0  0  0  0  0  0  0
  148.4447  138.1851  154.7069 C   0  0  0  0  0  0  0  0  0  0  0  0
  149.3782  138.3209  155.7555 C   0  0  0  0  0  0  0  0  0  0  0  0
  149.7223  139.6202  156.1298 C   0  0  0  0  0  0  0  0  0  0  0  0
  153.1857  139.4113  154.1380 H   0  0  0  0  0  0  0  0  0  0  0  0
  151.5372  139.0592  154.6590 H   0  0  0  0  0  0  0  0  0  0  0  0
  152.7322  137.7544  154.5387 H   0  0  0  0  0  0  0  0  0  0  0  0
  151.6346  137.5307  156.5614 H   0  0  0  0  0  0  0  0  0  0  0  0
  152.9361  137.7120  157.7309 H   0  0  0  0  0  0  0  0  0  0  0  0
  150.6799  138.6098  158.5558 H   0  0  0  0  0  0  0  0  0  0  0  0
  151.9833  139.7624  158.6192 H   0  0  0  0  0  0  0  0  0  0  0  0
  150.9518  144.1470  156.6813 H   0  0  0  0  0  0  0  0  0  0  0  0
  152.2938  145.7007  158.0683 H   0  0  0  0  0  0  0  0  0  0  0  0
  153.4993  144.8588  160.0763 H   0  0  0  0  0  0  0  0  0  0  0  0
  152.0023  140.8974  159.3135 H   0  0  0  0  0  0  0  0  0  0  0  0
  147.8257  141.4937  153.9532 H   0  0  0  0  0  0  0  0  0  0  0  0
  147.8218  137.3460  151.7032 H   0  0  0  0  0  0  0  0  0  0  0  0
  148.5257  138.8577  151.3429 H   0  0  0  0  0  0  0  0  0  0  0  0
  148.1507  137.1948  154.3897 H   0  0  0  0  0  0  0  0  0  0  0  0
  149.7980  137.4501  156.2371 H   0  0  0  0  0  0  0  0  0  0  0  0
  149.5431  142.8467  155.8361 H   0  0  0  0  0  0  0  0  0  0  0  0
  1  2  1  0  0  0  0
  1 25  1  0  0  0  0
  1 26  1  0  0  0  0
  1 27  1  0  0  0  0
  2  3  1  0  0  0  0
  3  4  1  0  0  0  0
  3 28  1  0  0  0  0
  3 29  1  0  0  0  0
  4  5  1  0  0  0  0
  4 30  1  0  0  0  0
  4 31  1  0  0  0  0
  5 24  1  0  0  0  0
  5  6  1  0  0  0  0
  6  7  1  0  0  0  0
  6 14  2  0  0  0  0
  7 13  1  0  0  0  0
  7  8  2  0  0  0  0
  8  9  1  0  0  0  0
  8 32  1  0  0  0  0
  9 10  2  0  0  0  0
  9 33  1  0  0  0  0
 10 11  1  0  0  0  0
 10 34  1  0  0  0  0
 11 12  1  0  0  0  0
 11 13  2  0  0  0  0
 13 35  1  0  0  0  0
 14 15  1  0  0  0  0
 14 41  1  0  0  0  0
 15 24  2  0  0  0  0
 15 16  1  0  0  0  0
 16 17  2  0  0  0  0
 16 36  1  0  0  0  0
 17 18  1  0  0  0  0
 17 22  1  0  0  0  0
 18 19  1  0  0  0  0
 18 20  2  0  0  0  0
 18 21  2  0  0  0  0
 19 37  1  0  0  0  0
 19 38  1  0  0  0  0
 22 23  2  0  0  0  0
 22 39  1  0  0  0  0
 23 24  1  0  0  0  0
 23 40  1  0  0  0  0
M  CHG  1  14   1
M  END
> <s_m_source_file>
AV-unprocessed.smi

> <i_m_source_file_index>
2867

> <i_lp_mmshare_version>
43012

> <i_f3d_flags>
0

> <s_epik_input>
W05IMl1TKD1PKSg9TyljKFtjSF0xKVtjSF1bY0hdYyhjMTIpbihbQ0gyXVtDSDJdT1tDSDNdKWMobjIpLWMzW2NIXVtjSF1bY0hdYyhGKVtjSF0z

> <s_epik_cmdline>
J2VwaWtfcHl0aG9uJywgJy1waCcsICc3LjAnLCAnLXRuJywgJzgnLCAnLW1hJywgJzIwMCcsICctbWV0YWxfYmluZGluZycsICctaW1hZScsICc8aW5maWxlLm1hZT4nLCAnLW9tYWUnLCAnPG91dGZpbGUubWFlPic=

> <r_epik_Ionization_Penalty>
1.25825

> <r_epik_Ionization_Penalty_Charging>
1.24336

> <r_epik_Ionization_Penalty_Neutral>
0.014884

> <r_epik_State_Penalty>
1.4115

> <r_epik_Charging_Adjusted_Penalty>
2.65486

> <i_epik_Tot_Q>
1

> <i_epik_Tot_abs_Q>
1

> <r_epik_Metal_State_Penalty>
3.65574

> <b_epik_Metal_Only>
0

> <s_lp_Force_Field>
OPLS_2005

> <r_lp_Energy>
21.7235

> <b_lp_Chiralities_Consistent>
1

> <s_lp_Variant>
AV-unprocessed.smi:2867-2

> <Gold.Version>
5.8.1

> <Gold.Id.Protein>
6NUR|6NUR_protein|mol2

> <Gold.PLP.Fitness>
53.7798

> <Gold.PLP.PLP>
-40.1938

> <Gold.PLP.part.hbond>
-4.6155

> <Gold.PLP.part.metal>
0.0000

> <Gold.PLP.part.buried>
-5.0196

> <Gold.PLP.part.nonpolar>
-36.4543

> <Gold.PLP.part.repulsive>
3.6458

> <Gold.PLP.ligand.clash>
0.0000

> <Gold.PLP.ligand.torsion>
1.4902

> <Gold.PLP.Chemscore.Hbond>
4.8548

> <Gold.PLP.Chemscore.CHOScore>
0.0000

> <Gold.PLP.Chemscore.Metal>
0.0000

> <Gold.Chemscore.Hbonds>
donor molecule, donor type, donor heavy atom, donor atom, acceptor molecule, acceptor atom, score
      L1  H    14    41       P1  8028  2.00
      L1  H    19    37       P1  7948  0.85
      L1  H    19    38       P1  7957  1.00
      P1  H  7997  8009       L1     2  1.00

> <Gold.PLP.Chemscore.Internal.Correction>
2.0022

> <Gold.Rescore>
     Score         DG    S(hbond)    S(metal)    S(lipo)     H(rot)  DE(clash)    DE(int)     intcor
     21.72     -26.80       3.70        0.00     108.85       1.47       2.10       2.98       ----

> <Gold.Chemscore.Fitness>
21.7170

> <Gold.Chemscore.DG>
-26.7994

> <Gold.Chemscore.ZeroCoef>
-5.4800

> <Gold.Chemscore.Hbond>
3.6996

> <Gold.Chemscore.Metal>
0.0000

> <Gold.Chemscore.Lipo>
108.8524

> <Gold.Chemscore.Internal_Hbond>
0.0000

> <Gold.Chemscore.DEClash>
2.1011

> <Gold.Chemscore.DEInternal>
2.9814

> <Gold.Chemscore.Rot>
1.4738

> <Gold.Chemscore.Internal.Correction>
   9.000000E+99

> <Gold.Chemscore.Hbonds>
donor molecule, donor type, donor heavy atom, donor atom, acceptor molecule, acceptor atom, score
      L1  H    14    41       P1  8028  0.97
      L1  H    19    37       P1  7948  0.80
      L1  H    19    38       P1  7957  0.25
      P1  H  7997  8009       L1     2  0.93

> <Gold.Chemscore.Hbond.Weighted>
-12.3567

> <Gold.Chemscore.Metal.Weighted>
-0.0000

> <Gold.Chemscore.Lipo.Weighted>
-12.7357

> <Gold.Chemscore.Internal_Hbond.Weighted>
0.0000

> <Gold.Chemscore.DEClash.Weighted>
2.1011

> <Gold.Chemscore.DEInternal.Weighted>
2.9814

> <Gold.Chemscore.Rot.Weighted>
3.7730

> <Gold.Chemscore.Internal.Correction.Weighted>
   9.000000E+99

> <Gold.Protein.RotatedTorsions>
[ 6907 6896 6895 6894 ] final   39.13 input  -60.11 | X-H torsion
[ 7974 7965 7964 7962 ] final   77.60 input  175.53 | X-H torsion
[ 8008 7997 7996 7995 ] final -163.64 input   59.86 | X-H torsion
[ 10167 10162 10161 10158 ] final -134.00 input  -65.29 | X-H torsion
[ 10718 10713 10712 10709 ] final  131.99 input   66.30 | X-H torsion
[ 10763 10752 10751 10750 ] final  -63.64 input  -60.55 | X-H torsion
[ 11005 11000 10999 10996 ] final   23.06 input  -57.11 | X-H torsion

> <Gold.Protein.ActiveResidues>
 VAL166  LYS551  ARG553  GLY616  TRP617  ASP618  TYR619  PRO620  LYS621  CYS622 
 ASP623  PHE694  ASN695  SER759  ASP760  ASP761  ALA762  ILE779  LEU786  VAL792 
 PHE793  MET794  SER795  GLU796  ALA797  LYS798  CYS799  TRP800  GLU811  SER814 

> <Gold.Protein.RotatedAtoms>
  152.1655  134.8877  160.0538 H   0  0  0  0  0  0  0  0  0  0  0  0  # atno 6907 bound_to 6896
  151.9857  133.3768  159.4133 H   0  0  0  0  0  0  0  0  0  0  0  0  # atno 6908 bound_to 6896
  150.6894  134.3914  159.5122 H   0  0  0  0  0  0  0  0  0  0  0  0  # atno 6909 bound_to 6896
  145.6880  139.2543  143.1776 H   0  0  0  0  0  0  0  0  0  0  0  0  # atno 7974 bound_to 7965
  155.8242  140.0924  157.1831 H   0  0  0  0  0  0  0  0  0  0  0  0  # atno 8008 bound_to 7997
  154.3979  140.1431  156.3597 H   0  0  0  0  0  0  0  0  0  0  0  0  # atno 8009 bound_to 7997
  155.8234  140.3445  155.5530 H   0  0  0  0  0  0  0  0  0  0  0  0  # atno 8010 bound_to 7997
  139.8925  143.6705  152.2609 H   0  0  0  0  0  0  0  0  0  0  0  0  # atno 10167 bound_to 10162
  157.4915  131.1090  150.9550 H   0  0  0  0  0  0  0  0  0  0  0  0  # atno 10718 bound_to 10713
  154.3181  135.6202  153.5495 H   0  0  0  0  0  0  0  0  0  0  0  0  # atno 10763 bound_to 10752
  152.9822  135.5717  154.5101 H   0  0  0  0  0  0  0  0  0  0  0  0  # atno 10764 bound_to 10752
  154.4764  135.2861  155.1581 H   0  0  0  0  0  0  0  0  0  0  0  0  # atno 10765 bound_to 10752
  140.3737  134.1995  155.7666 H   0  0  0  0  0  0  0  0  0  0  0  0  # atno 11005 bound_to 11000
  146.0907  140.7659  142.9597 LP  0  0  0  0  0  0  0  0  0  0  0  0  # atno 17320 bound_to 7965
  144.7005  140.3632  143.7160 LP  0  0  0  0  0  0  0  0  0  0  0  0  # atno 17321 bound_to 7965
  139.7097  144.7622  151.1134 LP  0  0  0  0  0  0  0  0  0  0  0  0  # atno 17342 bound_to 10162
  140.7723  143.5348  150.9381 LP  0  0  0  0  0  0  0  0  0  0  0  0  # atno 17343 bound_to 10162
  157.0250  130.5689  149.5336 LP  0  0  0  0  0  0  0  0  0  0  0  0  # atno 17370 bound_to 10713
  156.0176  130.5270  150.8181 LP  0  0  0  0  0  0  0  0  0  0  0  0  # atno 17371 bound_to 10713
  141.1946  133.8124  157.0750 LP  0  0  0  0  0  0  0  0  0  0  0  0  # atno 17394 bound_to 11000
  140.0532  134.9794  157.1173 LP  0  0  0  0  0  0  0  0  0  0  0  0  # atno 17395 bound_to 11000

$$$$
