AV-unprocessed.smi:3157|AV-procd|sdf|12040|dock2
  -GOLD-   2272017463D 1   1.00000     0.00000
 Structure written by MMmdl.
 40 41  0  0  0  0  0  0  0  0  2 V2000
  151.1965  140.0798  156.9652 C   0  0  0  0  0  0  0  0  0  0  0  0
  150.0316  140.8676  156.3440 C   0  0  1  0  0  0  0  0  0  0  0  0
  150.2378  142.3086  156.6214 N   0  3  0  0  0  0  0  0  0  0  0  0
  149.9407  142.7267  158.0070 C   0  0  0  0  0  0  0  0  0  0  0  0
  151.1060  143.5267  158.6091 C   0  0  0  0  0  0  0  0  0  0  0  0
  152.0913  142.6634  159.4018 C   0  0  0  0  0  0  0  0  0  0  0  0
  152.8308  143.6375  160.3274 C   0  0  0  0  0  0  0  0  0  0  0  0
  151.9467  144.8893  160.4325 C   0  0  0  0  0  0  0  0  0  0  0  0
  150.6773  144.5808  159.6341 C   0  0  0  0  0  0  0  0  0  0  0  0
  149.8887  140.6230  154.8177 C   0  0  1  0  0  0  0  0  0  0  0  0
  150.2098  139.1767  154.3957 C   0  0  0  0  0  0  0  0  0  0  0  0
  148.5575  140.9907  154.3473 N   0  0  0  0  0  0  0  0  0  0  0  0
  147.8004  142.1011  154.6661 C   0  0  0  0  0  0  0  0  0  0  0  0
  146.6413  142.0252  153.9487 C   0  0  0  0  0  0  0  0  0  0  0  0
  146.7828  140.8219  153.2038 C   0  0  0  0  0  0  0  0  0  0  0  0
  147.9336  140.2117  153.4359 N   0  0  0  0  0  0  0  0  0  0  0  0
  151.0362  139.0037  156.9008 H   0  0  0  0  0  0  0  0  0  0  0  0
  151.3097  140.3200  158.0230 H   0  0  0  0  0  0  0  0  0  0  0  0
  152.1408  140.3088  156.4699 H   0  0  0  0  0  0  0  0  0  0  0  0
  149.1161  140.5378  156.8386 H   0  0  0  0  0  0  0  0  0  0  0  0
  151.2014  142.5380  156.4243 H   0  0  0  0  0  0  0  0  0  0  0  0
  149.0272  143.3218  158.0305 H   0  0  0  0  0  0  0  0  0  0  0  0
  149.7549  141.8342  158.6059 H   0  0  0  0  0  0  0  0  0  0  0  0
  151.6587  144.0211  157.8080 H   0  0  0  0  0  0  0  0  0  0  0  0
  151.5453  141.9371  160.0062 H   0  0  0  0  0  0  0  0  0  0  0  0
  152.7714  142.1066  158.7560 H   0  0  0  0  0  0  0  0  0  0  0  0
  153.0141  143.1883  161.3041 H   0  0  0  0  0  0  0  0  0  0  0  0
  153.8005  143.9029  159.9045 H   0  0  0  0  0  0  0  0  0  0  0  0
  151.7180  145.1457  161.4677 H   0  0  0  0  0  0  0  0  0  0  0  0
  152.4651  145.7421  159.9922 H   0  0  0  0  0  0  0  0  0  0  0  0
  150.2497  145.4709  159.1714 H   0  0  0  0  0  0  0  0  0  0  0  0
  149.9247  144.1633  160.3043 H   0  0  0  0  0  0  0  0  0  0  0  0
  150.6045  141.2686  154.3047 H   0  0  0  0  0  0  0  0  0  0  0  0
  151.2579  138.9313  154.5647 H   0  0  0  0  0  0  0  0  0  0  0  0
  150.0186  139.0301  153.3319 H   0  0  0  0  0  0  0  0  0  0  0  0
  149.6053  138.4537  154.9443 H   0  0  0  0  0  0  0  0  0  0  0  0
  148.1454  142.8468  155.3670 H   0  0  0  0  0  0  0  0  0  0  0  0
  145.8178  142.7241  153.9535 H   0  0  0  0  0  0  0  0  0  0  0  0
  146.0920  140.3814  152.5002 H   0  0  0  0  0  0  0  0  0  0  0  0
  149.6483  142.8360  155.9926 H   0  0  0  0  0  0  0  0  0  0  0  0
  1  2  1  0  0  0  0
  1 17  1  0  0  0  0
  1 18  1  0  0  0  0
  1 19  1  0  0  0  0
  2  3  1  0  0  0  0
  2 10  1  0  0  0  0
  2 20  1  0  0  0  0
  3  4  1  0  0  0  0
  3 21  1  0  0  0  0
  3 40  1  0  0  0  0
  4  5  1  0  0  0  0
  4 22  1  0  0  0  0
  4 23  1  0  0  0  0
  5  9  1  0  0  0  0
  5  6  1  0  0  0  0
  5 24  1  0  0  0  0
  6  7  1  0  0  0  0
  6 25  1  0  0  0  0
  6 26  1  0  0  0  0
  7  8  1  0  0  0  0
  7 27  1  0  0  0  0
  7 28  1  0  0  0  0
  8  9  1  0  0  0  0
  8 29  1  0  0  0  0
  8 30  1  0  0  0  0
  9 31  1  0  0  0  0
  9 32  1  0  0  0  0
 10 11  1  0  0  0  0
 10 12  1  0  0  0  0
 10 33  1  0  0  0  0
 11 34  1  0  0  0  0
 11 35  1  0  0  0  0
 11 36  1  0  0  0  0
 12 16  1  0  0  0  0
 12 13  1  0  0  0  0
 13 14  2  0  0  0  0
 13 37  1  0  0  0  0
 14 15  1  0  0  0  0
 14 38  1  0  0  0  0
 15 16  2  0  0  0  0
 15 39  1  0  0  0  0
M  CHG  1   3   1
M  END
> <s_m_source_file>
AV-unprocessed.smi

> <i_m_source_file_index>
3157

> <i_lp_mmshare_version>
43012

> <i_f3d_flags>
0

> <s_epik_input>
bjFbY0hdW2NIXVtjSF1uMVtDQEBIXShbQ0gzXSlbQ0BIXShbQ0gzXSlbTkhdW0NIMl1bQ0hdMltDSDJdW0NIMl1bQ0gyXVtDSDJdMg==

> <s_epik_cmdline>
J2VwaWtfcHl0aG9uJywgJy1waCcsICc3LjAnLCAnLXRuJywgJzgnLCAnLW1hJywgJzIwMCcsICctbWV0YWxfYmluZGluZycsICctaW1hZScsICc8aW5maWxlLm1hZT4nLCAnLW9tYWUnLCAnPG91dGZpbGUubWFlPic=

> <r_lp_tautomer_probability>
1

> <r_epik_Ionization_Penalty>
0.00132192

> <r_epik_Ionization_Penalty_Charging>
0.0013111

> <r_epik_Ionization_Penalty_Neutral>
1.08112e-05

> <r_epik_State_Penalty>
-0

> <r_epik_Charging_Adjusted_Penalty>
0.0013111

> <i_epik_Tot_Q>
1

> <i_epik_Tot_abs_Q>
1

> <r_epik_Metal_State_Penalty>
-0

> <b_epik_Metal_Only>
0

> <s_lp_Force_Field>
OPLS_2005

> <r_lp_Energy>
31.1459

> <b_lp_Chiralities_Consistent>
1

> <s_lp_Variant>
AV-unprocessed.smi:3157-4

> <Gold.Version>
5.8.1

> <Gold.Id.Protein>
6NUR|6NUR_protein|mol2

> <Gold.PLP.Fitness>
42.9086

> <Gold.PLP.PLP>
-35.3511

> <Gold.PLP.part.hbond>
-1.0000

> <Gold.PLP.part.metal>
0.0000

> <Gold.PLP.part.buried>
-2.1670

> <Gold.PLP.part.nonpolar>
-33.8188

> <Gold.PLP.part.repulsive>
2.0149

> <Gold.PLP.ligand.clash>
0.0000

> <Gold.PLP.ligand.torsion>
1.7104

> <Gold.PLP.Chemscore.Hbond>
1.6640

> <Gold.PLP.Chemscore.CHOScore>
1.9632

> <Gold.PLP.Chemscore.Metal>
0.0000

> <Gold.Chemscore.Hbonds>
donor molecule, donor type, donor heavy atom, donor atom, acceptor molecule, acceptor atom, score
      L1  H     3    40       P1  8028  1.57
      L1  C    13    37       P1  8028  0.96
      L1  C    15    39       P1 10175  0.99

> <Gold.PLP.Chemscore.Internal.Correction>
0.0964

> <Gold.Rescore>
     Score         DG    S(hbond)    S(metal)    S(lipo)     H(rot)  DE(clash)    DE(int)     intcor
     14.76     -16.85       0.80        0.00     107.38       1.50       0.49       1.60       ----

> <Gold.Chemscore.Fitness>
14.7571

> <Gold.Chemscore.DG>
-16.8502

> <Gold.Chemscore.ZeroCoef>
-5.4800

> <Gold.Chemscore.Hbond>
0.7962

> <Gold.Chemscore.Metal>
0.0000

> <Gold.Chemscore.Lipo>
107.3756

> <Gold.Chemscore.Internal_Hbond>
0.0000

> <Gold.Chemscore.DEClash>
0.4947

> <Gold.Chemscore.DEInternal>
1.5984

> <Gold.Chemscore.Rot>
1.5047

> <Gold.Chemscore.Internal.Correction>
   9.000000E+99

> <Gold.Chemscore.Hbonds>
donor molecule, donor type, donor heavy atom, donor atom, acceptor molecule, acceptor atom, score
      L1  H     3    40       P1  8028  0.75

> <Gold.Chemscore.Hbond.Weighted>
-2.6592

> <Gold.Chemscore.Metal.Weighted>
-0.0000

> <Gold.Chemscore.Lipo.Weighted>
-12.5629

> <Gold.Chemscore.Internal_Hbond.Weighted>
0.0000

> <Gold.Chemscore.DEClash.Weighted>
0.4947

> <Gold.Chemscore.DEInternal.Weighted>
1.5984

> <Gold.Chemscore.Rot.Weighted>
3.8520

> <Gold.Chemscore.Internal.Correction.Weighted>
   9.000000E+99

> <Gold.Protein.RotatedTorsions>
[ 6907 6896 6895 6894 ] final  170.19 input  -60.11 | X-H torsion
[ 7974 7965 7964 7962 ] final   17.45 input  175.53 | X-H torsion
[ 8008 7997 7996 7995 ] final   35.24 input   59.86 | X-H torsion
[ 10167 10162 10161 10158 ] final -153.74 input  -65.29 | X-H torsion
[ 10718 10713 10712 10709 ] final   63.54 input   66.30 | X-H torsion
[ 10763 10752 10751 10750 ] final  -44.36 input  -60.55 | X-H torsion
[ 11005 11000 10999 10996 ] final  -52.64 input  -57.11 | X-H torsion

> <Gold.Protein.ActiveResidues>
 VAL166  LYS551  ARG553  GLY616  TRP617  ASP618  TYR619  PRO620  LYS621  CYS622 
 ASP623  PHE694  ASN695  SER759  ASP760  ASP761  ALA762  ILE779  LEU786  VAL792 
 PHE793  MET794  SER795  GLU796  ALA797  LYS798  CYS799  TRP800  GLU811  SER814 

> <Gold.Protein.RotatedAtoms>
  151.8200  133.3393  159.3580 H   0  0  0  0  0  0  0  0  0  0  0  0  # atno 6907 bound_to 6896
  150.7298  134.5583  159.5838 H   0  0  0  0  0  0  0  0  0  0  0  0  # atno 6908 bound_to 6896
  152.3013  134.7609  160.0408 H   0  0  0  0  0  0  0  0  0  0  0  0  # atno 6909 bound_to 6896
  146.2218  139.8601  142.8606 H   0  0  0  0  0  0  0  0  0  0  0  0  # atno 7974 bound_to 7965
  155.1679  140.3289  155.4398 H   0  0  0  0  0  0  0  0  0  0  0  0  # atno 8008 bound_to 7997
  156.2520  140.1948  156.6734 H   0  0  0  0  0  0  0  0  0  0  0  0  # atno 8009 bound_to 7997
  154.6358  140.0576  156.9773 H   0  0  0  0  0  0  0  0  0  0  0  0  # atno 8010 bound_to 7997
  139.7072  143.9168  152.2453 H   0  0  0  0  0  0  0  0  0  0  0  0  # atno 10167 bound_to 10162
  157.5978  130.9111  149.9729 H   0  0  0  0  0  0  0  0  0  0  0  0  # atno 10718 bound_to 10713
  154.0108  135.6681  153.4765 H   0  0  0  0  0  0  0  0  0  0  0  0  # atno 10763 bound_to 10752
  153.0621  135.5021  154.8114 H   0  0  0  0  0  0  0  0  0  0  0  0  # atno 10764 bound_to 10752
  154.6996  135.3076  154.9324 H   0  0  0  0  0  0  0  0  0  0  0  0  # atno 10765 bound_to 10752
  141.0935  133.6628  156.4054 H   0  0  0  0  0  0  0  0  0  0  0  0  # atno 11005 bound_to 11000
  145.2713  141.0109  143.3770 LP  0  0  0  0  0  0  0  0  0  0  0  0  # atno 17320 bound_to 7965
  144.9221  139.4399  143.6536 LP  0  0  0  0  0  0  0  0  0  0  0  0  # atno 17321 bound_to 7965
  139.9027  144.6903  150.8648 LP  0  0  0  0  0  0  0  0  0  0  0  0  # atno 17342 bound_to 10162
  140.7724  143.3502  151.2030 LP  0  0  0  0  0  0  0  0  0  0  0  0  # atno 17343 bound_to 10162
  156.1045  130.3653  150.0159 LP  0  0  0  0  0  0  0  0  0  0  0  0  # atno 17370 bound_to 10713
  156.8268  130.9378  151.3639 LP  0  0  0  0  0  0  0  0  0  0  0  0  # atno 17371 bound_to 10713
  140.5197  134.6316  157.5313 LP  0  0  0  0  0  0  0  0  0  0  0  0  # atno 17394 bound_to 11000
  139.9766  134.7206  155.9939 LP  0  0  0  0  0  0  0  0  0  0  0  0  # atno 17395 bound_to 11000

$$$$
