AV-unprocessed.smi:2768|AV-procd|sdf|10653|dock10
  -GOLD-   2272015103D 1   1.00000     0.00000
 Structure written by MMmdl.
 34 35  0  0  0  0  0  0  0  0  2 V2000
  149.3821  140.5556  158.5814 O   0  0  0  0  0  0  0  0  0  0  0  0
  149.6942  140.3658  157.4003 C   0  0  0  0  0  0  0  0  0  0  0  0
  149.0390  139.6717  156.4251 N   0  5  0  0  0  0  0  0  0  0  0  0
  147.9106  140.1965  155.6508 C   0  0  1  0  0  0  0  0  0  0  0  0
  147.6031  141.6602  156.0578 C   0  0  0  0  0  0  0  0  0  0  0  0
  146.4954  142.3132  155.1925 C   0  0  0  0  0  0  0  0  0  0  0  0
  146.8118  142.2655  153.6826 C   0  0  0  0  0  0  0  0  0  0  0  0
  147.1174  140.8120  153.2565 C   0  0  0  0  0  0  0  0  0  0  0  0
  148.2105  140.1324  154.1251 C   0  0  1  0  0  0  0  0  0  0  0  0
  149.4602  140.7309  153.8322 O   0  0  0  0  0  0  0  0  0  0  0  0
  151.0050  140.9922  156.8781 C   0  0  0  0  0  0  0  0  0  0  0  0
  151.8143  140.0175  156.4538 F   0  0  0  0  0  0  0  0  0  0  0  0
  150.7454  141.7766  155.8264 F   0  0  0  0  0  0  0  0  0  0  0  0
  151.6961  141.7929  157.9810 C   0  0  0  0  0  0  0  0  0  0  0  0
  152.1438  141.1631  159.1650 C   0  0  0  0  0  0  0  0  0  0  0  0
  152.7863  141.9429  160.1453 C   0  0  0  0  0  0  0  0  0  0  0  0
  152.9571  143.3205  159.9119 C   0  0  0  0  0  0  0  0  0  0  0  0
  152.4791  143.8573  158.7005 C   0  0  0  0  0  0  0  0  0  0  0  0
  151.8639  143.1183  157.7533 N   0  0  0  0  0  0  0  0  0  0  0  0
  147.0024  139.6154  155.8195 H   0  0  0  0  0  0  0  0  0  0  0  0
  148.2888  139.0852  153.8298 H   0  0  0  0  0  0  0  0  0  0  0  0
  147.3072  141.6951  157.1069 H   0  0  0  0  0  0  0  0  0  0  0  0
  148.5100  142.2619  155.9812 H   0  0  0  0  0  0  0  0  0  0  0  0
  145.5373  141.8232  155.3779 H   0  0  0  0  0  0  0  0  0  0  0  0
  146.3613  143.3507  155.4999 H   0  0  0  0  0  0  0  0  0  0  0  0
  145.9766  142.6630  153.1055 H   0  0  0  0  0  0  0  0  0  0  0  0
  147.6716  142.9009  153.4675 H   0  0  0  0  0  0  0  0  0  0  0  0
  146.1957  140.2292  153.3075 H   0  0  0  0  0  0  0  0  0  0  0  0
  147.4150  140.7941  152.2073 H   0  0  0  0  0  0  0  0  0  0  0  0
  149.5853  140.6746  152.8963 H   0  0  0  0  0  0  0  0  0  0  0  0
  152.0088  140.1018  159.3137 H   0  0  0  0  0  0  0  0  0  0  0  0
  153.1435  141.4919  161.0592 H   0  0  0  0  0  0  0  0  0  0  0  0
  153.4447  143.9498  160.6415 H   0  0  0  0  0  0  0  0  0  0  0  0
  152.5936  144.9098  158.4870 H   0  0  0  0  0  0  0  0  0  0  0  0
  1  2  2  0  0  0  0
  2  3  1  0  0  0  0
  2 11  1  0  0  0  0
  3  4  1  0  0  0  0
  4 20  1  0  0  0  0
  4  9  1  0  0  0  0
  4  5  1  0  0  0  0
  5  6  1  0  0  0  0
  5 22  1  0  0  0  0
  5 23  1  0  0  0  0
  6  7  1  0  0  0  0
  6 24  1  0  0  0  0
  6 25  1  0  0  0  0
  7  8  1  0  0  0  0
  7 26  1  0  0  0  0
  7 27  1  0  0  0  0
  8  9  1  0  0  0  0
  8 28  1  0  0  0  0
  8 29  1  0  0  0  0
  9 21  1  0  0  0  0
  9 10  1  0  0  0  0
 10 30  1  0  0  0  0
 11 12  1  0  0  0  0
 11 13  1  0  0  0  0
 11 14  1  0  0  0  0
 14 19  1  0  0  0  0
 14 15  2  0  0  0  0
 15 16  1  0  0  0  0
 15 31  1  0  0  0  0
 16 17  2  0  0  0  0
 16 32  1  0  0  0  0
 17 18  1  0  0  0  0
 17 33  1  0  0  0  0
 18 19  2  0  0  0  0
 18 34  1  0  0  0  0
M  CHG  1   3  -1
M  END
> <s_m_source_file>
AV-unprocessed.smi

> <i_m_source_file_index>
2768

> <i_lp_mmshare_version>
43012

> <i_f3d_flags>
0

> <s_epik_input>
bjFbY0hdW2NIXVtjSF1bY0hdYzFDKEYpKEYpQyg9TylbTkhdW0NAQEhdMltDSDJdW0NIMl1bQ0gyXVtDSDJdW0NASF0yW09IXQ==

> <s_epik_cmdline>
J2VwaWtfcHl0aG9uJywgJy1waCcsICc3LjAnLCAnLXRuJywgJzgnLCAnLW1hJywgJzIwMCcsICctbWV0YWxfYmluZGluZycsICctaW1hZScsICc8aW5maWxlLm1hZT4nLCAnLW9tYWUnLCAnPG91dGZpbGUubWFlPic=

> <r_lp_tautomer_probability>
1

> <r_epik_Ionization_Penalty>
5.70553

> <r_epik_Ionization_Penalty_Charging>
5.70553

> <r_epik_Ionization_Penalty_Neutral>
5.5493e-06

> <r_epik_State_Penalty>
5.70549

> <r_epik_Charging_Adjusted_Penalty>
11.411

> <i_epik_Tot_Q>
-1

> <i_epik_Tot_abs_Q>
1

> <r_epik_Metal_State_Penalty>
1.6859

> <b_epik_Metal_Only>
1

> <s_lp_Force_Field>
OPLS_2005

> <r_lp_Energy>
27.4562

> <b_lp_Chiralities_Consistent>
1

> <s_lp_Variant>
AV-unprocessed.smi:2768-6

> <Gold.Version>
5.8.1

> <Gold.Id.Protein>
6NUR|6NUR_protein|mol2

> <Gold.PLP.Fitness>
39.4208

> <Gold.PLP.PLP>
-37.9411

> <Gold.PLP.part.hbond>
-3.7268

> <Gold.PLP.part.metal>
0.0000

> <Gold.PLP.part.buried>
-3.9935

> <Gold.PLP.part.nonpolar>
-29.0676

> <Gold.PLP.part.repulsive>
0.0728

> <Gold.PLP.ligand.clash>
0.0000

> <Gold.PLP.ligand.torsion>
0.7705

> <Gold.PLP.Chemscore.Hbond>
1.0000

> <Gold.PLP.Chemscore.CHOScore>
0.0000

> <Gold.PLP.Chemscore.Metal>
0.0000

> <Gold.Chemscore.Hbonds>
donor molecule, donor type, donor heavy atom, donor atom, acceptor molecule, acceptor atom, score
      L1  H    10    30       P1  7957  1.00

> <Gold.PLP.Chemscore.Internal.Correction>
0.0207

> <Gold.Rescore>
     Score         DG    S(hbond)    S(metal)    S(lipo)     H(rot)  DE(clash)    DE(int)     intcor
     11.20     -14.88       1.00        0.00      94.52       1.95       0.41       3.27       ----

> <Gold.Chemscore.Fitness>
11.1991

> <Gold.Chemscore.DG>
-14.8830

> <Gold.Chemscore.ZeroCoef>
-5.4800

> <Gold.Chemscore.Hbond>
0.9992

> <Gold.Chemscore.Metal>
0.0000

> <Gold.Chemscore.Lipo>
94.5174

> <Gold.Chemscore.Internal_Hbond>
0.0000

> <Gold.Chemscore.DEClash>
0.4149

> <Gold.Chemscore.DEInternal>
3.2689

> <Gold.Chemscore.Rot>
1.9503

> <Gold.Chemscore.Internal.Correction>
   9.000000E+99

> <Gold.Chemscore.Hbonds>
donor molecule, donor type, donor heavy atom, donor atom, acceptor molecule, acceptor atom, score
      L1  H    10    30       P1  7957  1.00

> <Gold.Chemscore.Hbond.Weighted>
-3.3372

> <Gold.Chemscore.Metal.Weighted>
-0.0000

> <Gold.Chemscore.Lipo.Weighted>
-11.0585

> <Gold.Chemscore.Internal_Hbond.Weighted>
0.0000

> <Gold.Chemscore.DEClash.Weighted>
0.4149

> <Gold.Chemscore.DEInternal.Weighted>
3.2689

> <Gold.Chemscore.Rot.Weighted>
4.9928

> <Gold.Chemscore.Internal.Correction.Weighted>
   9.000000E+99

> <Gold.Protein.RotatedTorsions>
[ 6907 6896 6895 6894 ] final   74.59 input  -60.11 | X-H torsion
[ 7974 7965 7964 7962 ] final  -71.67 input  175.53 | X-H torsion
[ 8008 7997 7996 7995 ] final -133.57 input   59.86 | X-H torsion
[ 10167 10162 10161 10158 ] final  -61.74 input  -65.29 | X-H torsion
[ 10718 10713 10712 10709 ] final  139.85 input   66.30 | X-H torsion
[ 10763 10752 10751 10750 ] final  -69.59 input  -60.55 | X-H torsion
[ 11005 11000 10999 10996 ] final  -98.92 input  -57.11 | X-H torsion

> <Gold.Protein.ActiveResidues>
 VAL166  LYS551  ARG553  GLY616  TRP617  ASP618  TYR619  PRO620  LYS621  CYS622 
 ASP623  PHE694  ASN695  SER759  ASP760  ASP761  ALA762  ILE779  LEU786  VAL792 
 PHE793  MET794  SER795  GLU796  ALA797  LYS798  CYS799  TRP800  GLU811  SER814 

> <Gold.Protein.RotatedAtoms>
  152.4984  134.4248  159.9492 H   0  0  0  0  0  0  0  0  0  0  0  0  # atno 6907 bound_to 6896
  151.4222  133.3688  159.2765 H   0  0  0  0  0  0  0  0  0  0  0  0  # atno 6908 bound_to 6896
  150.9214  134.8654  159.7551 H   0  0  0  0  0  0  0  0  0  0  0  0  # atno 6909 bound_to 6896
  145.6751  140.9207  143.0862 H   0  0  0  0  0  0  0  0  0  0  0  0  # atno 7974 bound_to 7965
  155.3476  140.0475  157.3046 H   0  0  0  0  0  0  0  0  0  0  0  0  # atno 8008 bound_to 7997
  154.5244  140.2236  155.8881 H   0  0  0  0  0  0  0  0  0  0  0  0  # atno 8009 bound_to 7997
  156.1723  140.3093  155.9003 H   0  0  0  0  0  0  0  0  0  0  0  0  # atno 8010 bound_to 7997
  140.5986  143.2356  151.5980 H   0  0  0  0  0  0  0  0  0  0  0  0  # atno 10167 bound_to 10162
  157.4098  131.1026  151.0466 H   0  0  0  0  0  0  0  0  0  0  0  0  # atno 10718 bound_to 10713
  154.4055  135.6021  153.5922 H   0  0  0  0  0  0  0  0  0  0  0  0  # atno 10763 bound_to 10752
  152.9789  135.5917  154.4133 H   0  0  0  0  0  0  0  0  0  0  0  0  # atno 10764 bound_to 10752
  154.3937  135.2842  155.2117 H   0  0  0  0  0  0  0  0  0  0  0  0  # atno 10765 bound_to 10752
  141.1327  133.8282  157.0904 H   0  0  0  0  0  0  0  0  0  0  0  0  # atno 11005 bound_to 11000
  144.7044  139.8623  143.7434 LP  0  0  0  0  0  0  0  0  0  0  0  0  # atno 17320 bound_to 7965
  146.1012  139.4008  143.0345 LP  0  0  0  0  0  0  0  0  0  0  0  0  # atno 17321 bound_to 7965
  139.5275  144.3015  152.1070 LP  0  0  0  0  0  0  0  0  0  0  0  0  # atno 17342 bound_to 10162
  140.2191  144.4484  150.6350 LP  0  0  0  0  0  0  0  0  0  0  0  0  # atno 17343 bound_to 10162
  157.1434  130.6153  149.5562 LP  0  0  0  0  0  0  0  0  0  0  0  0  # atno 17370 bound_to 10713
  155.9847  130.4873  150.6996 LP  0  0  0  0  0  0  0  0  0  0  0  0  # atno 17371 bound_to 10713
  140.0396  134.9861  157.0936 LP  0  0  0  0  0  0  0  0  0  0  0  0  # atno 17394 bound_to 11000
  140.4156  134.1935  155.7163 LP  0  0  0  0  0  0  0  0  0  0  0  0  # atno 17395 bound_to 11000

$$$$
