AV-unprocessed.smi:1652|AV-procd|sdf|6639|dock7
  -GOLD-   22720 7343D 1   1.00000     0.00000
 Structure written by MMmdl.
 38 40  0  0  0  0  0  0  0  0  1 V2000
  153.4266  139.4721  158.3903 O   0  0  0  0  0  0  0  0  0  0  0  0
  153.0799  140.5238  158.9291 C   0  0  0  0  0  0  0  0  0  0  0  0
  153.5946  140.9747  160.2314 C   0  0  0  0  0  0  0  0  0  0  0  0
  154.6110  140.0875  160.9455 C   0  0  0  0  0  0  0  0  0  0  0  0
  155.7817  140.0657  160.3070 F   0  0  0  0  0  0  0  0  0  0  0  0
  154.8316  140.5280  162.1846 F   0  0  0  0  0  0  0  0  0  0  0  0
  154.1646  138.8333  161.0221 F   0  0  0  0  0  0  0  0  0  0  0  0
  153.1630  142.1433  160.7653 C   0  0  0  0  0  0  0  0  0  0  0  0
  152.1932  142.9562  160.0594 C   0  0  0  0  0  0  0  0  0  0  0  0
  151.6648  144.2556  160.5964 C   0  0  0  0  0  0  0  0  0  0  0  0
  150.4960  144.9746  159.9620 C   0  0  0  0  0  0  0  0  0  0  0  0
  151.8855  145.5620  159.8701 C   0  0  0  0  0  0  0  0  0  0  0  0
  151.7477  142.5621  158.9143 N   0  0  0  0  0  0  0  0  0  0  0  0
  152.1764  141.3727  158.3567 N   0  0  0  0  0  0  0  0  0  0  0  0
  151.5521  141.0643  157.0637 C   0  0  0  0  0  0  0  0  0  0  0  0
  150.2139  140.3116  157.2301 C   0  0  2  0  0  0  0  0  0  0  0  0
  150.4230  138.9356  156.9800 O   0  0  0  0  0  0  0  0  0  0  0  0
  149.1497  140.8848  156.3058 C   0  0  0  0  0  0  0  0  0  0  0  0
  147.9464  141.3889  156.8453 C   0  0  0  0  0  0  0  0  0  0  0  0
  146.9600  141.9304  155.9981 C   0  0  0  0  0  0  0  0  0  0  0  0
  147.1714  141.9731  154.6066 C   0  0  0  0  0  0  0  0  0  0  0  0
  146.2230  142.4942  153.7928 F   0  0  0  0  0  0  0  0  0  0  0  0
  148.3709  141.4753  154.0626 C   0  0  0  0  0  0  0  0  0  0  0  0
  149.3581  140.9347  154.9093 C   0  0  0  0  0  0  0  0  0  0  0  0
  153.5298  142.4907  161.7193 H   0  0  0  0  0  0  0  0  0  0  0  0
  151.7238  144.2759  161.6832 H   0  0  0  0  0  0  0  0  0  0  0  0
  150.0698  144.5640  159.0484 H   0  0  0  0  0  0  0  0  0  0  0  0
  149.7871  145.4621  160.6280 H   0  0  0  0  0  0  0  0  0  0  0  0
  152.1003  146.4419  160.4733 H   0  0  0  0  0  0  0  0  0  0  0  0
  152.3787  145.5303  158.9001 H   0  0  0  0  0  0  0  0  0  0  0  0
  151.3605  142.0167  156.5654 H   0  0  0  0  0  0  0  0  0  0  0  0
  152.2225  140.5294  156.3883 H   0  0  0  0  0  0  0  0  0  0  0  0
  149.8603  140.4083  158.2576 H   0  0  0  0  0  0  0  0  0  0  0  0
  150.4399  138.4792  157.8072 H   0  0  0  0  0  0  0  0  0  0  0  0
  147.7757  141.3649  157.9116 H   0  0  0  0  0  0  0  0  0  0  0  0
  146.0414  142.3145  156.4166 H   0  0  0  0  0  0  0  0  0  0  0  0
  148.5350  141.5096  152.9955 H   0  0  0  0  0  0  0  0  0  0  0  0
  150.2777  140.5605  154.4835 H   0  0  0  0  0  0  0  0  0  0  0  0
  1  2  2  0  0  0  0
  2 14  1  0  0  0  0
  2  3  1  0  0  0  0
  3  4  1  0  0  0  0
  3  8  2  0  0  0  0
  4  5  1  0  0  0  0
  4  6  1  0  0  0  0
  4  7  1  0  0  0  0
  8  9  1  0  0  0  0
  8 25  1  0  0  0  0
  9 10  1  0  0  0  0
  9 13  2  0  0  0  0
 10 12  1  0  0  0  0
 10 11  1  0  0  0  0
 10 26  1  0  0  0  0
 11 12  1  0  0  0  0
 11 27  1  0  0  0  0
 11 28  1  0  0  0  0
 12 29  1  0  0  0  0
 12 30  1  0  0  0  0
 13 14  1  0  0  0  0
 14 15  1  0  0  0  0
 15 16  1  0  0  0  0
 15 31  1  0  0  0  0
 15 32  1  0  0  0  0
 16 17  1  0  0  0  0
 16 18  1  0  0  0  0
 16 33  1  0  0  0  0
 17 34  1  0  0  0  0
 18 24  1  0  0  0  0
 18 19  2  0  0  0  0
 19 20  1  0  0  0  0
 19 35  1  0  0  0  0
 20 21  2  0  0  0  0
 20 36  1  0  0  0  0
 21 22  1  0  0  0  0
 21 23  1  0  0  0  0
 23 24  2  0  0  0  0
 23 37  1  0  0  0  0
 24 38  1  0  0  0  0
M  END
> <s_m_source_file>
AV-unprocessed.smi

> <i_m_source_file_index>
1652

> <i_lp_mmshare_version>
43012

> <i_f3d_flags>
0

> <s_epik_input>
Tz1jMWMoQyhGKShGKUYpW2NIXWMoW0NIXTJbQ0gyXVtDSDJdMilubjFbQ0gyXVtDQEhdKFtPSF0pYzNbY0hdW2NIXWMoRilbY0hdW2NIXTM=

> <s_epik_cmdline>
J2VwaWtfcHl0aG9uJywgJy1waCcsICc3LjAnLCAnLXRuJywgJzgnLCAnLW1hJywgJzIwMCcsICctbWV0YWxfYmluZGluZycsICctaW1hZScsICc8aW5maWxlLm1hZT4nLCAnLW9tYWUnLCAnPG91dGZpbGUubWFlPic=

> <r_lp_tautomer_probability>
1

> <r_epik_Ionization_Penalty>
9.17026e-08

> <r_epik_Ionization_Penalty_Charging>
9.677e-10

> <r_epik_Ionization_Penalty_Neutral>
9.07349e-08

> <r_epik_State_Penalty>
-0

> <r_epik_Charging_Adjusted_Penalty>
9.677e-10

> <i_epik_Tot_Q>
0

> <i_epik_Tot_abs_Q>
0

> <r_epik_Metal_State_Penalty>
-0

> <b_epik_Metal_Only>
0

> <s_lp_Force_Field>
OPLS_2005

> <r_lp_Energy>
34.1346

> <b_lp_Chiralities_Consistent>
1

> <s_lp_Variant>
AV-unprocessed.smi:1652-1

> <Gold.Version>
5.8.1

> <Gold.Id.Protein>
6NUR|6NUR_protein|mol2

> <Gold.PLP.Fitness>
53.3698

> <Gold.PLP.PLP>
-53.3912

> <Gold.PLP.part.hbond>
-1.0000

> <Gold.PLP.part.metal>
0.0000

> <Gold.PLP.part.buried>
-5.7060

> <Gold.PLP.part.nonpolar>
-45.8661

> <Gold.PLP.part.repulsive>
0.0061

> <Gold.PLP.ligand.clash>
1.0202

> <Gold.PLP.ligand.torsion>
1.3221

> <Gold.PLP.Chemscore.Hbond>
1.0000

> <Gold.PLP.Chemscore.CHOScore>
0.0000

> <Gold.PLP.Chemscore.Metal>
0.0000

> <Gold.Chemscore.Hbonds>
donor molecule, donor type, donor heavy atom, donor atom, acceptor molecule, acceptor atom, score
      P1  H  7997  8008       L1     1  1.00

> <Gold.PLP.Chemscore.Internal.Correction>
0.6429

> <Gold.Rescore>
     Score         DG    S(hbond)    S(metal)    S(lipo)     H(rot)  DE(clash)    DE(int)     intcor
     13.26     -16.10       0.85        0.00     114.69       2.20       0.08       2.76       ----

> <Gold.Chemscore.Fitness>
13.2616

> <Gold.Chemscore.DG>
-16.0969

> <Gold.Chemscore.ZeroCoef>
-5.4800

> <Gold.Chemscore.Hbond>
0.8478

> <Gold.Chemscore.Metal>
0.0000

> <Gold.Chemscore.Lipo>
114.6852

> <Gold.Chemscore.Internal_Hbond>
0.0000

> <Gold.Chemscore.DEClash>
0.0790

> <Gold.Chemscore.DEInternal>
2.7563

> <Gold.Chemscore.Rot>
2.2003

> <Gold.Chemscore.Internal.Correction>
   9.000000E+99

> <Gold.Chemscore.Hbonds>
donor molecule, donor type, donor heavy atom, donor atom, acceptor molecule, acceptor atom, score
      P1  H  7997  8008       L1     1  0.43

> <Gold.Chemscore.Hbond.Weighted>
-2.8315

> <Gold.Chemscore.Metal.Weighted>
-0.0000

> <Gold.Chemscore.Lipo.Weighted>
-13.4182

> <Gold.Chemscore.Internal_Hbond.Weighted>
0.0000

> <Gold.Chemscore.DEClash.Weighted>
0.0790

> <Gold.Chemscore.DEInternal.Weighted>
2.7563

> <Gold.Chemscore.Rot.Weighted>
5.6328

> <Gold.Chemscore.Internal.Correction.Weighted>
   9.000000E+99

> <Gold.Protein.RotatedTorsions>
[ 6907 6896 6895 6894 ] final  -29.63 input  -60.11 | X-H torsion
[ 7974 7965 7964 7962 ] final -159.20 input  175.53 | X-H torsion
[ 8008 7997 7996 7995 ] final  -73.14 input   59.86 | X-H torsion
[ 10167 10162 10161 10158 ] final   65.01 input  -65.29 | X-H torsion
[ 10718 10713 10712 10709 ] final   60.20 input   66.30 | X-H torsion
[ 10763 10752 10751 10750 ] final -163.01 input  -60.55 | X-H torsion
[ 11005 11000 10999 10996 ] final -175.34 input  -57.11 | X-H torsion

> <Gold.Protein.ActiveResidues>
 VAL166  LYS551  ARG553  GLY616  TRP617  ASP618  TYR619  PRO620  LYS621  CYS622 
 ASP623  PHE694  ASN695  SER759  ASP760  ASP761  ALA762  ILE779  LEU786  VAL792 
 PHE793  MET794  SER795  GLU796  ALA797  LYS798  CYS799  TRP800  GLU811  SER814 

> <Gold.Protein.RotatedAtoms>
  151.1165  135.0056  159.8518 H   0  0  0  0  0  0  0  0  0  0  0  0  # atno 6907 bound_to 6896
  152.5446  134.1773  159.8631 H   0  0  0  0  0  0  0  0  0  0  0  0  # atno 6908 bound_to 6896
  151.1828  133.4670  159.2627 H   0  0  0  0  0  0  0  0  0  0  0  0  # atno 6909 bound_to 6896
  144.7475  140.3719  143.6074 H   0  0  0  0  0  0  0  0  0  0  0  0  # atno 7974 bound_to 7965
  154.5223  140.0784  156.8194 H   0  0  0  0  0  0  0  0  0  0  0  0  # atno 8008 bound_to 7997
  155.3550  140.3415  155.4221 H   0  0  0  0  0  0  0  0  0  0  0  0  # atno 8009 bound_to 7997
  156.1694  140.1614  156.8461 H   0  0  0  0  0  0  0  0  0  0  0  0  # atno 8010 bound_to 7997
  140.1159  144.4775  150.6949 H   0  0  0  0  0  0  0  0  0  0  0  0  # atno 10167 bound_to 10162
  157.5734  130.8925  149.9306 H   0  0  0  0  0  0  0  0  0  0  0  0  # atno 10718 bound_to 10713
  154.7162  135.3016  154.9120 H   0  0  0  0  0  0  0  0  0  0  0  0  # atno 10763 bound_to 10752
  154.0006  135.6707  153.4763 H   0  0  0  0  0  0  0  0  0  0  0  0  # atno 10764 bound_to 10752
  153.0795  135.5016  154.8390 H   0  0  0  0  0  0  0  0  0  0  0  0  # atno 10765 bound_to 10752
  140.4644  134.6224  157.4856 H   0  0  0  0  0  0  0  0  0  0  0  0  # atno 11005 bound_to 11000
  145.7068  139.1675  143.2561 LP  0  0  0  0  0  0  0  0  0  0  0  0  # atno 17320 bound_to 7965
  146.1375  140.7102  142.9382 LP  0  0  0  0  0  0  0  0  0  0  0  0  # atno 17321 bound_to 7965
  140.6899  143.2370  151.5159 LP  0  0  0  0  0  0  0  0  0  0  0  0  # atno 17342 bound_to 10162
  139.5594  144.2194  152.1666 LP  0  0  0  0  0  0  0  0  0  0  0  0  # atno 17343 bound_to 10162
  156.0779  130.3676  150.0640 LP  0  0  0  0  0  0  0  0  0  0  0  0  # atno 17370 bound_to 10713
  156.8789  130.9550  151.3601 LP  0  0  0  0  0  0  0  0  0  0  0  0  # atno 17371 bound_to 10713
  139.9924  134.6963  155.9666 LP  0  0  0  0  0  0  0  0  0  0  0  0  # atno 17394 bound_to 11000
  141.1606  133.6539  156.4306 LP  0  0  0  0  0  0  0  0  0  0  0  0  # atno 17395 bound_to 11000

$$$$
