AV-unprocessed.smi:2157|AV-procd|sdf|8786|dock8
  -GOLD-   2272011563D 1   1.00000     0.00000
 Structure written by MMmdl.
 41 42  0  0  0  0  0  0  0  0  1 V2000
  153.3422  142.3175  161.4368 C   0  0  0  0  0  0  0  0  0  0  0  0
  152.3271  142.9707  160.4881 C   0  0  1  0  0  0  0  0  0  0  0  0
  152.0321  144.4269  160.8956 C   0  0  0  0  0  0  0  0  0  0  0  0
  151.0176  145.0849  159.9472 C   0  0  0  0  0  0  0  0  0  0  0  0
  151.4901  145.0152  158.4847 C   0  0  0  0  0  0  0  0  0  0  0  0
  151.8114  143.5738  158.0448 C   0  0  2  0  0  0  0  0  0  0  0  0
  150.5794  142.7965  157.9206 N   0  0  0  0  0  0  0  0  0  0  0  0
  150.4749  141.5844  157.3557 C   0  0  0  0  0  0  0  0  0  0  0  0
  151.4332  140.9775  156.8751 O   0  0  0  0  0  0  0  0  0  0  0  0
  149.0723  140.9617  157.3617 C   0  0  0  0  0  0  0  0  0  0  0  0
  148.1702  141.5571  156.3676 N   0  0  0  0  0  0  0  0  0  0  0  0
  148.4703  141.4524  155.0216 C   0  0  0  0  0  0  0  0  0  0  0  0
  147.7042  141.9837  154.0441 C   0  0  0  0  0  0  0  0  0  0  0  0
  146.4833  142.7128  154.3638 C   0  0  0  0  0  0  0  0  0  0  0  0
  145.7660  143.2328  153.5082 O   0  0  0  0  0  0  0  0  0  0  0  0
  146.1902  142.7910  155.7459 N   0  0  0  0  0  0  0  0  0  0  0  0
  145.0029  143.5191  156.1438 C   0  0  0  0  0  0  0  0  0  0  0  0
  147.0069  142.2507  156.7655 C   0  0  0  0  0  0  0  0  0  0  0  0
  146.7329  142.3777  157.9615 O   0  0  0  0  0  0  0  0  0  0  0  0
  152.8048  142.9075  159.0222 C   0  0  0  0  0  0  0  0  0  0  0  0
  154.3010  142.8361  161.4100 H   0  0  0  0  0  0  0  0  0  0  0  0
  153.5190  141.2762  161.1655 H   0  0  0  0  0  0  0  0  0  0  0  0
  152.9835  142.3330  162.4662 H   0  0  0  0  0  0  0  0  0  0  0  0
  151.3982  142.4041  160.5679 H   0  0  0  0  0  0  0  0  0  0  0  0
  151.6504  144.4588  161.9168 H   0  0  0  0  0  0  0  0  0  0  0  0
  152.9572  145.0053  160.8943 H   0  0  0  0  0  0  0  0  0  0  0  0
  150.0500  144.5920  160.0476 H   0  0  0  0  0  0  0  0  0  0  0  0
  150.8623  146.1247  160.2357 H   0  0  0  0  0  0  0  0  0  0  0  0
  150.7387  145.4535  157.8266 H   0  0  0  0  0  0  0  0  0  0  0  0
  152.3846  145.6292  158.3723 H   0  0  0  0  0  0  0  0  0  0  0  0
  152.2767  143.6249  157.0587 H   0  0  0  0  0  0  0  0  0  0  0  0
  149.7405  143.2160  158.2947 H   0  0  0  0  0  0  0  0  0  0  0  0
  149.1761  139.8919  157.1755 H   0  0  0  0  0  0  0  0  0  0  0  0
  148.6364  141.0451  158.3592 H   0  0  0  0  0  0  0  0  0  0  0  0
  149.3679  140.9248  154.7337 H   0  0  0  0  0  0  0  0  0  0  0  0
  148.0004  141.8707  153.0116 H   0  0  0  0  0  0  0  0  0  0  0  0
  144.6086  143.0988  157.0698 H   0  0  0  0  0  0  0  0  0  0  0  0
  144.2358  143.4136  155.3755 H   0  0  0  0  0  0  0  0  0  0  0  0
  145.2995  144.5611  156.2726 H   0  0  0  0  0  0  0  0  0  0  0  0
  153.7694  143.4105  158.9392 H   0  0  0  0  0  0  0  0  0  0  0  0
  152.9832  141.8719  158.7299 H   0  0  0  0  0  0  0  0  0  0  0  0
  1  2  1  0  0  0  0
  1 21  1  0  0  0  0
  1 22  1  0  0  0  0
  1 23  1  0  0  0  0
  2 20  1  0  0  0  0
  2  3  1  0  0  0  0
  2 24  1  0  0  0  0
  3  4  1  0  0  0  0
  3 25  1  0  0  0  0
  3 26  1  0  0  0  0
  4  5  1  0  0  0  0
  4 27  1  0  0  0  0
  4 28  1  0  0  0  0
  5  6  1  0  0  0  0
  5 29  1  0  0  0  0
  5 30  1  0  0  0  0
  6  7  1  0  0  0  0
  6 20  1  0  0  0  0
  6 31  1  0  0  0  0
  7  8  1  0  0  0  0
  7 32  1  0  0  0  0
  8  9  2  0  0  0  0
  8 10  1  0  0  0  0
 10 11  1  0  0  0  0
 10 33  1  0  0  0  0
 10 34  1  0  0  0  0
 11 18  1  0  0  0  0
 11 12  1  0  0  0  0
 12 13  2  0  0  0  0
 12 35  1  0  0  0  0
 13 14  1  0  0  0  0
 13 36  1  0  0  0  0
 14 15  2  0  0  0  0
 14 16  1  0  0  0  0
 16 17  1  0  0  0  0
 16 18  1  0  0  0  0
 17 37  1  0  0  0  0
 17 38  1  0  0  0  0
 17 39  1  0  0  0  0
 18 19  2  0  0  0  0
 20 40  1  0  0  0  0
 20 41  1  0  0  0  0
M  END
> <s_m_source_file>
AV-unprocessed.smi

> <i_m_source_file_index>
2157

> <i_lp_mmshare_version>
43012

> <i_f3d_flags>
0

> <s_epik_input>
W0NIM11bQ0BASF0xW0NIMl1bQ0gyXVtDSDJdW0NASF0oW0NIMl0xKVtOSF1DKD1PKVtDSDJdbjJbY0hdW2NIXWMoPU8pbihbQ0gzXSljMj1P

> <s_epik_cmdline>
J2VwaWtfcHl0aG9uJywgJy1waCcsICc3LjAnLCAnLXRuJywgJzgnLCAnLW1hJywgJzIwMCcsICctbWV0YWxfYmluZGluZycsICctaW1hZScsICc8aW5maWxlLm1hZT4nLCAnLW9tYWUnLCAnPG91dGZpbGUubWFlPic=

> <r_lp_tautomer_probability>
1

> <r_epik_Ionization_Penalty>
3.1838e-08

> <r_epik_Ionization_Penalty_Charging>
1.27911e-08

> <r_epik_Ionization_Penalty_Neutral>
1.90469e-08

> <r_epik_State_Penalty>
-0

> <r_epik_Charging_Adjusted_Penalty>
1.27911e-08

> <i_epik_Tot_Q>
0

> <i_epik_Tot_abs_Q>
0

> <r_epik_Metal_State_Penalty>
-0

> <b_epik_Metal_Only>
0

> <s_lp_Force_Field>
OPLS_2005

> <r_lp_Energy>
16.1054

> <b_lp_Chiralities_Consistent>
1

> <s_lp_Variant>
AV-unprocessed.smi:2157-4

> <Gold.Version>
5.8.1

> <Gold.Id.Protein>
6NUR|6NUR_protein|mol2

> <Gold.PLP.Fitness>
43.7385

> <Gold.PLP.PLP>
-44.2981

> <Gold.PLP.part.hbond>
0.0000

> <Gold.PLP.part.metal>
0.0000

> <Gold.PLP.part.buried>
-7.4756

> <Gold.PLP.part.nonpolar>
-37.3682

> <Gold.PLP.part.repulsive>
0.3806

> <Gold.PLP.ligand.clash>
0.0000

> <Gold.PLP.ligand.torsion>
0.2844

> <Gold.PLP.Chemscore.Hbond>
0.0000

> <Gold.PLP.Chemscore.CHOScore>
0.0000

> <Gold.PLP.Chemscore.Metal>
0.0000

> <Gold.PLP.Chemscore.Internal.Correction>
0.0091

> <Gold.Rescore>
     Score         DG    S(hbond)    S(metal)    S(lipo)     H(rot)  DE(clash)    DE(int)     intcor
     13.46     -13.86       0.00        0.00     104.95       1.52       0.12       0.28       ----

> <Gold.Chemscore.Fitness>
13.4640

> <Gold.Chemscore.DG>
-13.8573

> <Gold.Chemscore.ZeroCoef>
-5.4800

> <Gold.Chemscore.Hbond>
0.0000

> <Gold.Chemscore.Metal>
0.0000

> <Gold.Chemscore.Lipo>
104.9501

> <Gold.Chemscore.Internal_Hbond>
0.0000

> <Gold.Chemscore.DEClash>
0.1159

> <Gold.Chemscore.DEInternal>
0.2774

> <Gold.Chemscore.Rot>
1.5242

> <Gold.Chemscore.Internal.Correction>
   9.000000E+99

> <Gold.Chemscore.Hbond.Weighted>
-0.0000

> <Gold.Chemscore.Metal.Weighted>
-0.0000

> <Gold.Chemscore.Lipo.Weighted>
-12.2792

> <Gold.Chemscore.Internal_Hbond.Weighted>
0.0000

> <Gold.Chemscore.DEClash.Weighted>
0.1159

> <Gold.Chemscore.DEInternal.Weighted>
0.2774

> <Gold.Chemscore.Rot.Weighted>
3.9019

> <Gold.Chemscore.Internal.Correction.Weighted>
   9.000000E+99

> <Gold.Protein.RotatedTorsions>
[ 6907 6896 6895 6894 ] final -117.19 input  -60.11 | X-H torsion
[ 7974 7965 7964 7962 ] final   42.29 input  175.53 | X-H torsion
[ 8008 7997 7996 7995 ] final  -75.18 input   59.86 | X-H torsion
[ 10167 10162 10161 10158 ] final   94.49 input  -65.29 | X-H torsion
[ 10718 10713 10712 10709 ] final   71.17 input   66.30 | X-H torsion
[ 10763 10752 10751 10750 ] final  -58.12 input  -60.55 | X-H torsion
[ 11005 11000 10999 10996 ] final -158.74 input  -57.11 | X-H torsion

> <Gold.Protein.ActiveResidues>
 VAL166  LYS551  ARG553  GLY616  TRP617  ASP618  TYR619  PRO620  LYS621  CYS622 
 ASP623  PHE694  ASN695  SER759  ASP760  ASP761  ALA762  ILE779  LEU786  VAL792 
 PHE793  MET794  SER795  GLU796  ALA797  LYS798  CYS799  TRP800  GLU811  SER814 

> <Gold.Protein.RotatedAtoms>
  150.8117  133.8410  159.3179 H   0  0  0  0  0  0  0  0  0  0  0  0  # atno 6907 bound_to 6896
  151.6194  135.1031  160.0108 H   0  0  0  0  0  0  0  0  0  0  0  0  # atno 6908 bound_to 6896
  152.4208  133.7074  159.6515 H   0  0  0  0  0  0  0  0  0  0  0  0  # atno 6909 bound_to 6896
  146.0753  139.5317  142.9572 H   0  0  0  0  0  0  0  0  0  0  0  0  # atno 7974 bound_to 7965
  154.5395  140.0748  156.8485 H   0  0  0  0  0  0  0  0  0  0  0  0  # atno 8008 bound_to 7997
  155.3210  140.3396  155.4223 H   0  0  0  0  0  0  0  0  0  0  0  0  # atno 8009 bound_to 7997
  156.1860  140.1669  156.8170 H   0  0  0  0  0  0  0  0  0  0  0  0  # atno 8010 bound_to 7997
  139.8079  144.6786  150.9679 H   0  0  0  0  0  0  0  0  0  0  0  0  # atno 10167 bound_to 10162
  157.6438  130.9515  150.0753 H   0  0  0  0  0  0  0  0  0  0  0  0  # atno 10718 bound_to 10713
  154.2331  135.6357  153.5182 H   0  0  0  0  0  0  0  0  0  0  0  0  # atno 10763 bound_to 10752
  152.9945  135.5524  154.5991 H   0  0  0  0  0  0  0  0  0  0  0  0  # atno 10764 bound_to 10752
  154.5479  135.2899  155.1010 H   0  0  0  0  0  0  0  0  0  0  0  0  # atno 10765 bound_to 10752
  140.6503  134.4458  157.5235 H   0  0  0  0  0  0  0  0  0  0  0  0  # atno 11005 bound_to 11000
  145.6318  141.0302  143.1859 LP  0  0  0  0  0  0  0  0  0  0  0  0  # atno 17320 bound_to 7965
  144.7257  139.7883  143.7366 LP  0  0  0  0  0  0  0  0  0  0  0  0  # atno 17321 bound_to 7965
  140.7818  143.4215  151.0834 LP  0  0  0  0  0  0  0  0  0  0  0  0  # atno 17342 bound_to 10162
  139.7883  143.8255  152.3148 LP  0  0  0  0  0  0  0  0  0  0  0  0  # atno 17343 bound_to 10162
  156.1745  130.3647  149.9120 LP  0  0  0  0  0  0  0  0  0  0  0  0  # atno 17370 bound_to 10713
  156.7087  130.8961  151.3607 LP  0  0  0  0  0  0  0  0  0  0  0  0  # atno 17371 bound_to 10713
  139.9048  134.8473  156.1749 LP  0  0  0  0  0  0  0  0  0  0  0  0  # atno 17394 bound_to 11000
  141.0542  133.6873  156.1828 LP  0  0  0  0  0  0  0  0  0  0  0  0  # atno 17395 bound_to 11000

$$$$
