AV-unprocessed.smi:488|AV-procd|sdf|2701|dock5
  -GOLD-   2262023133D 1   1.00000     0.00000
 Structure written by MMmdl.
 45 46  0  0  0  0  0  0  0  0  1 V2000
  147.0055  137.7649  154.5804 C   0  0  0  0  0  0  0  0  0  0  0  0
  148.4481  137.4579  154.8790 C   0  0  0  0  0  0  0  0  0  0  0  0
  148.7080  136.2745  155.3296 N   0  0  0  0  0  0  0  0  0  0  0  0
  149.9977  135.8911  155.6448 N   0  0  0  0  0  0  0  0  0  0  0  0
  150.1060  134.5172  156.1546 C   0  0  0  0  0  0  0  0  0  0  0  0
  149.4701  133.5046  155.1960 C   0  0  0  0  0  0  0  0  0  0  0  0
  149.6776  132.3019  155.3661 O   0  0  0  0  0  0  0  0  0  0  0  0
  148.7117  134.0324  154.2131 N   0  0  0  0  0  0  0  0  0  0  0  0
  148.0311  133.3728  153.2568 C   0  0  0  0  0  0  0  0  0  0  0  0
  147.9337  132.1477  153.1583 O   0  0  0  0  0  0  0  0  0  0  0  0
  147.4544  134.2295  152.4008 N   0  0  0  0  0  0  0  0  0  0  0  0
  146.3400  133.9128  151.5127 C   0  0  0  0  0  0  0  0  0  0  0  0
  145.1236  133.4700  152.3473 C   0  0  0  0  0  0  0  0  0  0  0  0
  143.9410  133.0744  151.4487 C   0  0  0  0  0  0  0  0  0  0  0  0
  144.3442  131.9803  150.4478 C   0  0  0  0  0  0  0  0  0  0  0  0
  145.5576  132.4144  149.6103 C   0  0  0  0  0  0  0  0  0  0  0  0
  146.7416  132.8150  150.5060 C   0  0  0  0  0  0  0  0  0  0  0  0
  151.0977  136.6878  155.5148 C   0  0  0  0  0  0  0  0  0  0  0  0
  152.2316  136.3062  155.8078 O   0  0  0  0  0  0  0  0  0  0  0  0
  150.7960  138.0255  155.0006 C   0  0  0  0  0  0  0  0  0  0  0  0
  151.9190  138.8946  154.8543 C   0  0  0  0  0  0  0  0  0  0  0  0
  152.8402  139.5880  154.7512 N   0  0  0  0  0  0  0  0  0  0  0  0
  149.5345  138.4129  154.6867 C   0  0  0  0  0  0  0  0  0  0  0  0
  149.1710  139.7914  154.1519 C   0  0  0  0  0  0  0  0  0  0  0  0
  146.8562  137.9140  153.5109 H   0  0  0  0  0  0  0  0  0  0  0  0
  146.6863  138.6703  155.0970 H   0  0  0  0  0  0  0  0  0  0  0  0
  146.3436  136.9573  154.8969 H   0  0  0  0  0  0  0  0  0  0  0  0
  151.1536  134.2495  156.3067 H   0  0  0  0  0  0  0  0  0  0  0  0
  149.6421  134.4310  157.1391 H   0  0  0  0  0  0  0  0  0  0  0  0
  148.6442  135.0393  154.1970 H   0  0  0  0  0  0  0  0  0  0  0  0
  147.8163  135.1707  152.3535 H   0  0  0  0  0  0  0  0  0  0  0  0
  146.0581  134.8111  150.9597 H   0  0  0  0  0  0  0  0  0  0  0  0
  145.3957  132.6231  152.9792 H   0  0  0  0  0  0  0  0  0  0  0  0
  144.8199  134.2728  153.0204 H   0  0  0  0  0  0  0  0  0  0  0  0
  143.1077  132.7296  152.0615 H   0  0  0  0  0  0  0  0  0  0  0  0
  143.5844  133.9517  150.9073 H   0  0  0  0  0  0  0  0  0  0  0  0
  144.5807  131.0618  150.9860 H   0  0  0  0  0  0  0  0  0  0  0  0
  143.5042  131.7473  149.7927 H   0  0  0  0  0  0  0  0  0  0  0  0
  145.8544  131.6072  148.9403 H   0  0  0  0  0  0  0  0  0  0  0  0
  145.2804  133.2568  148.9753 H   0  0  0  0  0  0  0  0  0  0  0  0
  147.5690  133.1582  149.8836 H   0  0  0  0  0  0  0  0  0  0  0  0
  147.1028  131.9359  151.0419 H   0  0  0  0  0  0  0  0  0  0  0  0
  150.0527  140.3786  153.8967 H   0  0  0  0  0  0  0  0  0  0  0  0
  148.6047  140.3495  154.8980 H   0  0  0  0  0  0  0  0  0  0  0  0
  148.5656  139.7115  153.2486 H   0  0  0  0  0  0  0  0  0  0  0  0
  1  2  1  0  0  0  0
  1 25  1  0  0  0  0
  1 26  1  0  0  0  0
  1 27  1  0  0  0  0
  2 23  1  0  0  0  0
  2  3  2  0  0  0  0
  3  4  1  0  0  0  0
  4  5  1  0  0  0  0
  4 18  1  0  0  0  0
  5  6  1  0  0  0  0
  5 28  1  0  0  0  0
  5 29  1  0  0  0  0
  6  7  2  0  0  0  0
  6  8  1  0  0  0  0
  8  9  1  0  0  0  0
  8 30  1  0  0  0  0
  9 10  2  0  0  0  0
  9 11  1  0  0  0  0
 11 12  1  0  0  0  0
 11 31  1  0  0  0  0
 12 17  1  0  0  0  0
 12 13  1  0  0  0  0
 12 32  1  0  0  0  0
 13 14  1  0  0  0  0
 13 33  1  0  0  0  0
 13 34  1  0  0  0  0
 14 15  1  0  0  0  0
 14 35  1  0  0  0  0
 14 36  1  0  0  0  0
 15 16  1  0  0  0  0
 15 37  1  0  0  0  0
 15 38  1  0  0  0  0
 16 17  1  0  0  0  0
 16 39  1  0  0  0  0
 16 40  1  0  0  0  0
 17 41  1  0  0  0  0
 17 42  1  0  0  0  0
 18 19  2  0  0  0  0
 18 20  1  0  0  0  0
 20 21  1  0  0  0  0
 20 23  2  0  0  0  0
 21 22  3  0  0  0  0
 23 24  1  0  0  0  0
 24 43  1  0  0  0  0
 24 44  1  0  0  0  0
 24 45  1  0  0  0  0
M  END
> <s_m_source_file>
AV-unprocessed.smi

> <i_m_source_file_index>
488

> <i_lp_mmshare_version>
43012

> <i_f3d_flags>
0

> <s_epik_input>
TiNDYyhjMVtDSDNdKWMoPU8pbihuYzFbQ0gzXSlbQ0gyXUMoPU8pW05IXUMoPU8pW05IXVtDSF0yW0NIMl1bQ0gyXVtDSDJdW0NIMl1bQ0gyXTI=

> <s_epik_cmdline>
J2VwaWtfcHl0aG9uJywgJy1waCcsICc3LjAnLCAnLXRuJywgJzgnLCAnLW1hJywgJzIwMCcsICctbWV0YWxfYmluZGluZycsICctaW1hZScsICc8aW5maWxlLm1hZT4nLCAnLW9tYWUnLCAnPG91dGZpbGUubWFlPic=

> <r_lp_tautomer_probability>
1

> <r_epik_Ionization_Penalty>
3.27035e-05

> <r_epik_Ionization_Penalty_Charging>
1.69167e-11

> <r_epik_Ionization_Penalty_Neutral>
3.27035e-05

> <r_epik_State_Penalty>
-0

> <r_epik_Charging_Adjusted_Penalty>
1.69167e-11

> <i_epik_Tot_Q>
0

> <i_epik_Tot_abs_Q>
0

> <r_epik_Metal_State_Penalty>
-0

> <b_epik_Metal_Only>
0

> <s_lp_Force_Field>
OPLS_2005

> <r_lp_Energy>
25.832

> <b_lp_Chiralities_Consistent>
1

> <s_lp_Variant>
AV-unprocessed.smi:488-1

> <Gold.Version>
5.8.1

> <Gold.Id.Protein>
6NUR|6NUR_protein|mol2

> <Gold.PLP.Fitness>
46.5154

> <Gold.PLP.PLP>
-37.7941

> <Gold.PLP.part.hbond>
-4.1250

> <Gold.PLP.part.metal>
0.0000

> <Gold.PLP.part.buried>
-3.8736

> <Gold.PLP.part.nonpolar>
-30.7415

> <Gold.PLP.part.repulsive>
0.2727

> <Gold.PLP.ligand.clash>
0.0000

> <Gold.PLP.ligand.torsion>
0.2590

> <Gold.PLP.Chemscore.Hbond>
3.0758

> <Gold.PLP.Chemscore.CHOScore>
0.0000

> <Gold.PLP.Chemscore.Metal>
0.0000

> <Gold.Chemscore.Hbonds>
donor molecule, donor type, donor heavy atom, donor atom, acceptor molecule, acceptor atom, score
      L1  H    11    31       P1  7948  0.98
      P1  H  7989  7998       L1    22  0.16
      P1  H  7997  8009       L1    22  0.93
      P1  H 10752 10764       L1    19  0.91

> <Gold.PLP.Chemscore.Internal.Correction>
0.0120

> <Gold.Rescore>
     Score         DG    S(hbond)    S(metal)    S(lipo)     H(rot)  DE(clash)    DE(int)     intcor
     16.29     -18.96       2.87        0.00      67.96       1.59       0.04       2.62       ----

> <Gold.Chemscore.Fitness>
16.2911

> <Gold.Chemscore.DG>
-18.9564

> <Gold.Chemscore.ZeroCoef>
-5.4800

> <Gold.Chemscore.Hbond>
2.8700

> <Gold.Chemscore.Metal>
0.0000

> <Gold.Chemscore.Lipo>
67.9599

> <Gold.Chemscore.Internal_Hbond>
0.0000

> <Gold.Chemscore.DEClash>
0.0434

> <Gold.Chemscore.DEInternal>
2.6220

> <Gold.Chemscore.Rot>
1.5862

> <Gold.Chemscore.Internal.Correction>
   9.000000E+99

> <Gold.Chemscore.Hbonds>
donor molecule, donor type, donor heavy atom, donor atom, acceptor molecule, acceptor atom, score
      L1  H    11    31       P1  7948  0.89
      P1  H  7989  7998       L1    22  0.01
      P1  H  7997  8009       L1    22  0.89
      P1  H 10752 10764       L1    19  0.78

> <Gold.Chemscore.Hbond.Weighted>
-9.5858

> <Gold.Chemscore.Metal.Weighted>
-0.0000

> <Gold.Chemscore.Lipo.Weighted>
-7.9513

> <Gold.Chemscore.Internal_Hbond.Weighted>
0.0000

> <Gold.Chemscore.DEClash.Weighted>
0.0434

> <Gold.Chemscore.DEInternal.Weighted>
2.6220

> <Gold.Chemscore.Rot.Weighted>
4.0607

> <Gold.Chemscore.Internal.Correction.Weighted>
   9.000000E+99

> <Gold.Protein.RotatedTorsions>
[ 6907 6896 6895 6894 ] final   98.29 input  -60.11 | X-H torsion
[ 7974 7965 7964 7962 ] final    5.22 input  175.53 | X-H torsion
[ 8008 7997 7996 7995 ] final -134.47 input   59.86 | X-H torsion
[ 10167 10162 10161 10158 ] final  144.67 input  -65.29 | X-H torsion
[ 10718 10713 10712 10709 ] final -149.95 input   66.30 | X-H torsion
[ 10763 10752 10751 10750 ] final  -51.17 input  -60.55 | X-H torsion
[ 11005 11000 10999 10996 ] final   15.12 input  -57.11 | X-H torsion

> <Gold.Protein.ActiveResidues>
 VAL166  LYS551  ARG553  GLY616  TRP617  ASP618  TYR619  PRO620  LYS621  CYS622 
 ASP623  PHE694  ASN695  SER759  ASP760  ASP761  ALA762  ILE779  LEU786  VAL792 
 PHE793  MET794  SER795  GLU796  ALA797  LYS798  CYS799  TRP800  GLU811  SER814 

> <Gold.Protein.RotatedAtoms>
  152.5411  134.0604  159.8149 H   0  0  0  0  0  0  0  0  0  0  0  0  # atno 6907 bound_to 6896
  151.0732  133.5441  159.2633 H   0  0  0  0  0  0  0  0  0  0  0  0  # atno 6908 bound_to 6896
  151.2297  135.0558  159.9036 H   0  0  0  0  0  0  0  0  0  0  0  0  # atno 6909 bound_to 6896
  146.2441  140.0417  142.8381 H   0  0  0  0  0  0  0  0  0  0  0  0  # atno 7974 bound_to 7965
  155.3627  140.0483  157.3046 H   0  0  0  0  0  0  0  0  0  0  0  0  # atno 8008 bound_to 7997
  154.5170  140.2212  155.9011 H   0  0  0  0  0  0  0  0  0  0  0  0  # atno 8009 bound_to 7997
  156.1647  140.3109  155.8874 H   0  0  0  0  0  0  0  0  0  0  0  0  # atno 8010 bound_to 7997
  139.4942  144.5956  151.6590 H   0  0  0  0  0  0  0  0  0  0  0  0  # atno 10167 bound_to 10162
  156.4398  130.8116  151.2345 H   0  0  0  0  0  0  0  0  0  0  0  0  # atno 10718 bound_to 10713
  154.1222  135.6533  153.4905 H   0  0  0  0  0  0  0  0  0  0  0  0  # atno 10763 bound_to 10752
  153.0222  135.5273  154.7085 H   0  0  0  0  0  0  0  0  0  0  0  0  # atno 10764 bound_to 10752
  154.6296  135.2974  155.0202 H   0  0  0  0  0  0  0  0  0  0  0  0  # atno 10765 bound_to 10752
  140.4619  134.1119  155.7718 H   0  0  0  0  0  0  0  0  0  0  0  0  # atno 11005 bound_to 11000
  145.1064  140.9378  143.4682 LP  0  0  0  0  0  0  0  0  0  0  0  0  # atno 17320 bound_to 7965
  145.0621  139.3097  143.5875 LP  0  0  0  0  0  0  0  0  0  0  0  0  # atno 17321 bound_to 7965
  140.5593  144.0295  150.6162 LP  0  0  0  0  0  0  0  0  0  0  0  0  # atno 17342 bound_to 10162
  140.3376  143.3039  152.0622 LP  0  0  0  0  0  0  0  0  0  0  0  0  # atno 17343 bound_to 10162
  157.7506  131.0172  150.3575 LP  0  0  0  0  0  0  0  0  0  0  0  0  # atno 17370 bound_to 10713
  156.3930  130.3901  149.7016 LP  0  0  0  0  0  0  0  0  0  0  0  0  # atno 17371 bound_to 10713
  141.1617  133.8780  157.1828 LP  0  0  0  0  0  0  0  0  0  0  0  0  # atno 17394 bound_to 11000
  139.9940  135.0054  157.0040 LP  0  0  0  0  0  0  0  0  0  0  0  0  # atno 17395 bound_to 11000

$$$$
