AV-unprocessed.smi:1196|AV-procd|sdf|5005|dock4
  -GOLD-   22720 4 13D 1   1.00000     0.00000
 Structure written by MMmdl.
 36 37  0  0  0  0  0  0  0  0  2 V2000
  149.7185  142.1446  155.3236 C   0  0  0  0  0  0  0  0  0  0  0  0
  150.8130  141.3247  156.0201 C   0  0  1  0  0  0  0  0  0  0  0  0
  150.7412  141.4805  157.5535 C   0  0  0  0  0  0  0  0  0  0  0  0
  151.5111  142.6129  158.0381 N   0  0  0  0  0  0  0  0  0  0  0  0
  151.4821  143.9193  157.5973 C   0  0  0  0  0  0  0  0  0  0  0  0
  152.3842  144.6204  158.3449 C   0  0  0  0  0  0  0  0  0  0  0  0
  152.9185  143.6446  159.2322 C   0  0  0  0  0  0  0  0  0  0  0  0
  152.3915  142.4447  159.0487 N   0  0  0  0  0  0  0  0  0  0  0  0
  150.6758  139.9218  155.6297 N   0  0  0  0  0  0  0  0  0  0  0  0
  151.6479  139.1498  155.1174 C   0  0  0  0  0  0  0  0  0  0  0  0
  152.7957  139.5481  154.9180 O   0  0  0  0  0  0  0  0  0  0  0  0
  151.2664  137.7031  154.7953 C   0  0  0  0  0  0  0  0  0  0  0  0
  150.5582  137.0025  155.9701 C   0  0  0  0  0  0  0  0  0  0  0  0
  150.1707  135.5445  155.6533 C   0  0  2  0  0  0  0  0  0  0  0  0
  149.2680  135.4762  154.5243 N   0  0  0  0  0  0  0  0  0  0  0  0
  148.1270  134.8726  154.8511 C   0  0  0  0  0  0  0  0  0  0  0  0
  147.2322  134.6920  154.0282 O   0  0  0  0  0  0  0  0  0  0  0  0
  148.1396  134.5297  156.1538 N   0  5  0  0  0  0  0  0  0  0  0  0
  149.3057  134.8915  156.7312 C   0  0  0  0  0  0  0  0  0  0  0  0
  149.6962  134.7545  157.8896 O   0  0  0  0  0  0  0  0  0  0  0  0
  149.8068  143.2034  155.5683 H   0  0  0  0  0  0  0  0  0  0  0  0
  148.7227  141.8160  155.6236 H   0  0  0  0  0  0  0  0  0  0  0  0
  149.7882  142.0516  154.2393 H   0  0  0  0  0  0  0  0  0  0  0  0
  151.7725  141.7144  155.6748 H   0  0  0  0  0  0  0  0  0  0  0  0
  149.7065  141.6287  157.8647 H   0  0  0  0  0  0  0  0  0  0  0  0
  151.0860  140.5708  158.0484 H   0  0  0  0  0  0  0  0  0  0  0  0
  150.8344  144.2353  156.7929 H   0  0  0  0  0  0  0  0  0  0  0  0
  152.6260  145.6700  158.2688 H   0  0  0  0  0  0  0  0  0  0  0  0
  153.6678  143.7714  159.9994 H   0  0  0  0  0  0  0  0  0  0  0  0
  149.7673  139.5024  155.7632 H   0  0  0  0  0  0  0  0  0  0  0  0
  150.6205  137.7108  153.9168 H   0  0  0  0  0  0  0  0  0  0  0  0
  152.1606  137.1416  154.5204 H   0  0  0  0  0  0  0  0  0  0  0  0
  151.2233  137.0107  156.8354 H   0  0  0  0  0  0  0  0  0  0  0  0
  149.6704  137.5650  156.2652 H   0  0  0  0  0  0  0  0  0  0  0  0
  151.0521  134.9289  155.4690 H   0  0  0  0  0  0  0  0  0  0  0  0
  149.4952  135.8262  153.6055 H   0  0  0  0  0  0  0  0  0  0  0  0
  1  2  1  0  0  0  0
  1 21  1  0  0  0  0
  1 22  1  0  0  0  0
  1 23  1  0  0  0  0
  2  3  1  0  0  0  0
  2  9  1  0  0  0  0
  2 24  1  0  0  0  0
  3  4  1  0  0  0  0
  3 25  1  0  0  0  0
  3 26  1  0  0  0  0
  4  8  1  0  0  0  0
  4  5  1  0  0  0  0
  5  6  2  0  0  0  0
  5 27  1  0  0  0  0
  6  7  1  0  0  0  0
  6 28  1  0  0  0  0
  7  8  2  0  0  0  0
  7 29  1  0  0  0  0
  9 10  1  0  0  0  0
  9 30  1  0  0  0  0
 10 11  2  0  0  0  0
 10 12  1  0  0  0  0
 12 13  1  0  0  0  0
 12 31  1  0  0  0  0
 12 32  1  0  0  0  0
 13 14  1  0  0  0  0
 13 33  1  0  0  0  0
 13 34  1  0  0  0  0
 14 19  1  0  0  0  0
 14 15  1  0  0  0  0
 14 35  1  0  0  0  0
 15 16  1  0  0  0  0
 15 36  1  0  0  0  0
 16 17  2  0  0  0  0
 16 18  1  0  0  0  0
 18 19  1  0  0  0  0
 19 20  2  0  0  0  0
M  CHG  1  18  -1
M  END
> <s_m_source_file>
AV-unprocessed.smi

> <i_m_source_file_index>
1196

> <i_lp_mmshare_version>
43012

> <i_f3d_flags>
0

> <s_epik_input>
bjFbY0hdW2NIXVtjSF1uMVtDSDJdW0NAQEhdKFtDSDNdKVtOSF1DKD1PKVtDSDJdW0NIMl1bQ0BASF0yW05IXUMoPU8pW05IXUMyPU8=

> <s_epik_cmdline>
J2VwaWtfcHl0aG9uJywgJy1waCcsICc3LjAnLCAnLXRuJywgJzgnLCAnLW1hJywgJzIwMCcsICctbWV0YWxfYmluZGluZycsICctaW1hZScsICc8aW5maWxlLm1hZT4nLCAnLW9tYWUnLCAnPG91dGZpbGUubWFlPic=

> <r_lp_tautomer_probability>
1

> <r_epik_Ionization_Penalty>
2.57056

> <r_epik_Ionization_Penalty_Charging>
2.57023

> <r_epik_Ionization_Penalty_Neutral>
0.000331301

> <r_epik_State_Penalty>
2.56828

> <r_epik_Charging_Adjusted_Penalty>
5.13851

> <i_epik_Tot_Q>
-1

> <i_epik_Tot_abs_Q>
1

> <r_epik_Metal_State_Penalty>
0.444883

> <b_epik_Metal_Only>
1

> <s_lp_Force_Field>
OPLS_2005

> <r_lp_Energy>
8.81211

> <b_lp_Chiralities_Consistent>
1

> <s_lp_Variant>
AV-unprocessed.smi:1196-10

> <Gold.Version>
5.8.1

> <Gold.Id.Protein>
6NUR|6NUR_protein|mol2

> <Gold.PLP.Fitness>
47.0035

> <Gold.PLP.PLP>
-36.2593

> <Gold.PLP.part.hbond>
-4.0000

> <Gold.PLP.part.metal>
0.0000

> <Gold.PLP.part.buried>
-3.4470

> <Gold.PLP.part.nonpolar>
-30.0783

> <Gold.PLP.part.repulsive>
0.2700

> <Gold.PLP.ligand.clash>
0.0000

> <Gold.PLP.ligand.torsion>
0.6134

> <Gold.PLP.Chemscore.Hbond>
2.9440

> <Gold.PLP.Chemscore.CHOScore>
1.0000

> <Gold.PLP.Chemscore.Metal>
0.0000

> <Gold.Chemscore.Hbonds>
donor molecule, donor type, donor heavy atom, donor atom, acceptor molecule, acceptor atom, score
      L1  H    15    36       P1  7948  1.00
      P1  H  6896  6909       L1    20  1.00
      P1  H  7989  7998       L1    11  0.01
      P1  H  7997  8009       L1    11  0.96
      L1  C     5    27       P1  8028  1.00

> <Gold.PLP.Chemscore.Internal.Correction>
0.1389

> <Gold.Rescore>
     Score         DG    S(hbond)    S(metal)    S(lipo)     H(rot)  DE(clash)    DE(int)     intcor
     13.89     -16.17       2.78        0.00      75.32       2.89       1.75       0.54       ----

> <Gold.Chemscore.Fitness>
13.8874

> <Gold.Chemscore.DG>
-16.1746

> <Gold.Chemscore.ZeroCoef>
-5.4800

> <Gold.Chemscore.Hbond>
2.7823

> <Gold.Chemscore.Metal>
0.0000

> <Gold.Chemscore.Lipo>
75.3157

> <Gold.Chemscore.Internal_Hbond>
0.0000

> <Gold.Chemscore.DEClash>
1.7514

> <Gold.Chemscore.DEInternal>
0.5358

> <Gold.Chemscore.Rot>
2.8946

> <Gold.Chemscore.Internal.Correction>
   9.000000E+99

> <Gold.Chemscore.Hbonds>
donor molecule, donor type, donor heavy atom, donor atom, acceptor molecule, acceptor atom, score
      L1  H    15    36       P1  7948  0.33
      P1  H  6896  6909       L1    20  0.96
      P1  H  7997  8009       L1    11  0.91

> <Gold.Chemscore.Hbond.Weighted>
-9.2928

> <Gold.Chemscore.Metal.Weighted>
-0.0000

> <Gold.Chemscore.Lipo.Weighted>
-8.8119

> <Gold.Chemscore.Internal_Hbond.Weighted>
0.0000

> <Gold.Chemscore.DEClash.Weighted>
1.7514

> <Gold.Chemscore.DEInternal.Weighted>
0.5358

> <Gold.Chemscore.Rot.Weighted>
7.4101

> <Gold.Chemscore.Internal.Correction.Weighted>
   9.000000E+99

> <Gold.Protein.RotatedTorsions>
[ 6907 6896 6895 6894 ] final   24.81 input  -60.11 | X-H torsion
[ 7974 7965 7964 7962 ] final -122.49 input  175.53 | X-H torsion
[ 8008 7997 7996 7995 ] final -125.60 input   59.86 | X-H torsion
[ 10167 10162 10161 10158 ] final  -99.98 input  -65.29 | X-H torsion
[ 10718 10713 10712 10709 ] final  -86.18 input   66.30 | X-H torsion
[ 10763 10752 10751 10750 ] final   -4.75 input  -60.55 | X-H torsion
[ 11005 11000 10999 10996 ] final  -51.83 input  -57.11 | X-H torsion

> <Gold.Protein.ActiveResidues>
 VAL166  LYS551  ARG553  GLY616  TRP617  ASP618  TYR619  PRO620  LYS621  CYS622 
 ASP623  PHE694  ASN695  SER759  ASP760  ASP761  ALA762  ILE779  LEU786  VAL792 
 PHE793  MET794  SER795  GLU796  ALA797  LYS798  CYS799  TRP800  GLU811  SER814 

> <Gold.Protein.RotatedAtoms>
  151.9631  135.0114  160.0548 H   0  0  0  0  0  0  0  0  0  0  0  0  # atno 6907 bound_to 6896
  152.1850  133.4729  159.4986 H   0  0  0  0  0  0  0  0  0  0  0  0  # atno 6908 bound_to 6896
  150.6924  134.1702  159.4252 H   0  0  0  0  0  0  0  0  0  0  0  0  # atno 6909 bound_to 6896
  145.0289  140.8051  143.4336 H   0  0  0  0  0  0  0  0  0  0  0  0  # atno 7974 bound_to 7965
  155.2160  140.0420  157.2941 H   0  0  0  0  0  0  0  0  0  0  0  0  # atno 8008 bound_to 7997
  154.5981  140.2444  155.7801 H   0  0  0  0  0  0  0  0  0  0  0  0  # atno 8009 bound_to 7997
  156.2303  140.2940  156.0180 H   0  0  0  0  0  0  0  0  0  0  0  0  # atno 8010 bound_to 7997
  140.2567  143.3435  152.0664 H   0  0  0  0  0  0  0  0  0  0  0  0  # atno 10167 bound_to 10162
  155.9991  130.4756  150.4675 H   0  0  0  0  0  0  0  0  0  0  0  0  # atno 10718 bound_to 10713
  153.3891  135.7001  153.6508 H   0  0  0  0  0  0  0  0  0  0  0  0  # atno 10763 bound_to 10752
  153.5088  135.3636  155.2577 H   0  0  0  0  0  0  0  0  0  0  0  0  # atno 10764 bound_to 10752
  154.8700  135.4130  154.3204 H   0  0  0  0  0  0  0  0  0  0  0  0  # atno 10765 bound_to 10752
  141.0892  133.6636  156.3935 H   0  0  0  0  0  0  0  0  0  0  0  0  # atno 11005 bound_to 11000
  145.1797  139.2358  143.5299 LP  0  0  0  0  0  0  0  0  0  0  0  0  # atno 17320 bound_to 7965
  146.3496  140.1568  142.8591 LP  0  0  0  0  0  0  0  0  0  0  0  0  # atno 17321 bound_to 7965
  139.5029  144.6745  151.6162 LP  0  0  0  0  0  0  0  0  0  0  0  0  # atno 17342 bound_to 10162
  140.5998  143.9630  150.6379 LP  0  0  0  0  0  0  0  0  0  0  0  0  # atno 17343 bound_to 10162
  157.2693  131.0583  151.2270 LP  0  0  0  0  0  0  0  0  0  0  0  0  # atno 17370 bound_to 10713
  157.3356  130.7007  149.6350 LP  0  0  0  0  0  0  0  0  0  0  0  0  # atno 17371 bound_to 10713
  140.5292  134.6229  157.5344 LP  0  0  0  0  0  0  0  0  0  0  0  0  # atno 17394 bound_to 11000
  139.9715  134.7285  156.0032 LP  0  0  0  0  0  0  0  0  0  0  0  0  # atno 17395 bound_to 11000

$$$$
