AV-unprocessed.smi:3194|AV-procd|sdf|12211|dock3
  -GOLD-   2272018 43D 1   1.00000     0.00000
 Structure written by MMmdl.
 27 27  0  0  0  0  0  0  0  0  2 V2000
  150.2219  138.8045  154.4240 C   0  0  0  0  0  0  0  0  0  0  0  0
  150.2587  140.3058  154.7463 C   0  0  1  0  0  0  0  0  0  0  0  0
  148.8662  140.9458  154.5826 C   0  0  0  0  0  0  0  0  0  0  0  0
  148.5750  141.2036  153.2230 O   0  0  0  0  0  0  0  0  0  0  0  0
  150.7225  140.4758  156.1251 N   0  5  0  0  0  0  0  0  0  0  0  0
  151.9186  140.0203  156.5990 C   0  0  0  0  0  0  0  0  0  0  0  0
  152.8624  139.4974  155.9953 O   0  0  0  0  0  0  0  0  0  0  0  0
  152.0366  140.2056  158.1267 C   0  0  0  0  0  0  0  0  0  0  0  0
  150.9998  139.6088  158.7215 F   0  0  0  0  0  0  0  0  0  0  0  0
  153.1464  139.6022  158.5648 F   0  0  0  0  0  0  0  0  0  0  0  0
  152.0477  141.6890  158.4958 C   0  0  0  0  0  0  0  0  0  0  0  0
  153.1108  142.2462  159.2435 C   0  0  0  0  0  0  0  0  0  0  0  0
  153.0788  143.6210  159.5445 C   0  0  0  0  0  0  0  0  0  0  0  0
  151.9898  144.3899  159.0925 C   0  0  0  0  0  0  0  0  0  0  0  0
  150.9781  143.7457  158.3539 C   0  0  0  0  0  0  0  0  0  0  0  0
  150.9990  142.4286  158.0595 N   0  0  0  0  0  0  0  0  0  0  0  0
  150.9273  140.7731  154.0213 H   0  0  0  0  0  0  0  0  0  0  0  0
  149.8871  138.6328  153.4008 H   0  0  0  0  0  0  0  0  0  0  0  0
  149.5440  138.2688  155.0897 H   0  0  0  0  0  0  0  0  0  0  0  0
  151.2110  138.3559  154.5236 H   0  0  0  0  0  0  0  0  0  0  0  0
  148.0966  140.2777  154.9697 H   0  0  0  0  0  0  0  0  0  0  0  0
  148.7942  141.8759  155.1482 H   0  0  0  0  0  0  0  0  0  0  0  0
  148.7689  140.4264  152.7234 H   0  0  0  0  0  0  0  0  0  0  0  0
  153.9405  141.6365  159.5690 H   0  0  0  0  0  0  0  0  0  0  0  0
  153.8772  144.0779  160.1102 H   0  0  0  0  0  0  0  0  0  0  0  0
  151.9323  145.4472  159.3040 H   0  0  0  0  0  0  0  0  0  0  0  0
  150.1280  144.3036  157.9902 H   0  0  0  0  0  0  0  0  0  0  0  0
  1  2  1  0  0  0  0
  1 18  1  0  0  0  0
  1 19  1  0  0  0  0
  1 20  1  0  0  0  0
  2 17  1  0  0  0  0
  2  3  1  0  0  0  0
  2  5  1  0  0  0  0
  3  4  1  0  0  0  0
  3 21  1  0  0  0  0
  3 22  1  0  0  0  0
  4 23  1  0  0  0  0
  5  6  1  0  0  0  0
  6  7  2  0  0  0  0
  6  8  1  0  0  0  0
  8  9  1  0  0  0  0
  8 10  1  0  0  0  0
  8 11  1  0  0  0  0
 11 16  1  0  0  0  0
 11 12  2  0  0  0  0
 12 13  1  0  0  0  0
 12 24  1  0  0  0  0
 13 14  2  0  0  0  0
 13 25  1  0  0  0  0
 14 15  1  0  0  0  0
 14 26  1  0  0  0  0
 15 16  2  0  0  0  0
 15 27  1  0  0  0  0
M  CHG  1   5  -1
M  END
> <s_m_source_file>
AV-unprocessed.smi

> <i_m_source_file_index>
3194

> <i_lp_mmshare_version>
43012

> <i_f3d_flags>
0

> <s_epik_input>
W09IXVtDSDJdW0NASF0oW0NIM10pW05IXUMoPU8pQyhGKShGKWMxW2NIXVtjSF1bY0hdW2NIXW4x

> <s_epik_cmdline>
J2VwaWtfcHl0aG9uJywgJy1waCcsICc3LjAnLCAnLXRuJywgJzgnLCAnLW1hJywgJzIwMCcsICctbWV0YWxfYmluZGluZycsICctaW1hZScsICc8aW5maWxlLm1hZT4nLCAnLW9tYWUnLCAnPG91dGZpbGUubWFlPic=

> <r_lp_tautomer_probability>
1

> <r_epik_Ionization_Penalty>
5.78943

> <r_epik_Ionization_Penalty_Charging>
5.78942

> <r_epik_Ionization_Penalty_Neutral>
4.0054e-06

> <r_epik_State_Penalty>
5.78939

> <r_epik_Charging_Adjusted_Penalty>
11.5788

> <i_epik_Tot_Q>
-1

> <i_epik_Tot_abs_Q>
1

> <r_epik_Metal_State_Penalty>
1.76064

> <b_epik_Metal_Only>
1

> <s_lp_Force_Field>
OPLS_2005

> <r_lp_Energy>
17.1269

> <b_lp_Chiralities_Consistent>
1

> <s_lp_Variant>
AV-unprocessed.smi:3194-3

> <Gold.Version>
5.8.1

> <Gold.Id.Protein>
6NUR|6NUR_protein|mol2

> <Gold.PLP.Fitness>
43.3222

> <Gold.PLP.PLP>
-33.2374

> <Gold.PLP.part.hbond>
-2.7706

> <Gold.PLP.part.metal>
0.0000

> <Gold.PLP.part.buried>
-1.4137

> <Gold.PLP.part.nonpolar>
-28.9034

> <Gold.PLP.part.repulsive>
0.0918

> <Gold.PLP.ligand.clash>
0.7275

> <Gold.PLP.ligand.torsion>
0.3254

> <Gold.PLP.Chemscore.Hbond>
2.6880

> <Gold.PLP.Chemscore.CHOScore>
1.1164

> <Gold.PLP.Chemscore.Metal>
0.0000

> <Gold.Chemscore.Hbonds>
donor molecule, donor type, donor heavy atom, donor atom, acceptor molecule, acceptor atom, score
      L1  H     4    23       P1  7957  0.72
      P1  H  7997  8009       L1     7  1.00
      P1  H  8011  8017       L1     4  0.85
      L1  C    15    27       P1  8028  0.69
      L1  C    15    27       P1  8029  0.10

> <Gold.PLP.Chemscore.Internal.Correction>
0.0500

> <Gold.Rescore>
     Score         DG    S(hbond)    S(metal)    S(lipo)     H(rot)  DE(clash)    DE(int)     intcor
     14.74     -16.76       2.29        0.00      84.03       2.43       0.13       1.88       ----

> <Gold.Chemscore.Fitness>
14.7436

> <Gold.Chemscore.DG>
-16.7565

> <Gold.Chemscore.ZeroCoef>
-5.4800

> <Gold.Chemscore.Hbond>
2.2935

> <Gold.Chemscore.Metal>
0.0000

> <Gold.Chemscore.Lipo>
84.0265

> <Gold.Chemscore.Internal_Hbond>
0.0000

> <Gold.Chemscore.DEClash>
0.1334

> <Gold.Chemscore.DEInternal>
1.8795

> <Gold.Chemscore.Rot>
2.4277

> <Gold.Chemscore.Internal.Correction>
   9.000000E+99

> <Gold.Chemscore.Hbonds>
donor molecule, donor type, donor heavy atom, donor atom, acceptor molecule, acceptor atom, score
      L1  H     4    23       P1  7957  0.72
      P1  H  7997  8009       L1     7  0.88
      P1  H  8011  8017       L1     4  0.15

> <Gold.Chemscore.Hbond.Weighted>
-7.6603

> <Gold.Chemscore.Metal.Weighted>
-0.0000

> <Gold.Chemscore.Lipo.Weighted>
-9.8311

> <Gold.Chemscore.Internal_Hbond.Weighted>
0.0000

> <Gold.Chemscore.DEClash.Weighted>
0.1334

> <Gold.Chemscore.DEInternal.Weighted>
1.8795

> <Gold.Chemscore.Rot.Weighted>
6.2149

> <Gold.Chemscore.Internal.Correction.Weighted>
   9.000000E+99

> <Gold.Protein.RotatedTorsions>
[ 6907 6896 6895 6894 ] final -168.73 input  -60.11 | X-H torsion
[ 7974 7965 7964 7962 ] final  100.33 input  175.53 | X-H torsion
[ 8008 7997 7996 7995 ] final -166.29 input   59.86 | X-H torsion
[ 10167 10162 10161 10158 ] final  -76.88 input  -65.29 | X-H torsion
[ 10718 10713 10712 10709 ] final  162.73 input   66.30 | X-H torsion
[ 10763 10752 10751 10750 ] final  111.80 input  -60.55 | X-H torsion
[ 11005 11000 10999 10996 ] final  -95.63 input  -57.11 | X-H torsion

> <Gold.Protein.ActiveResidues>
 VAL166  LYS551  ARG553  GLY616  TRP617  ASP618  TYR619  PRO620  LYS621  CYS622 
 ASP623  PHE694  ASN695  SER759  ASP760  ASP761  ALA762  ILE779  LEU786  VAL792 
 PHE793  MET794  SER795  GLU796  ALA797  LYS798  CYS799  TRP800  GLU811  SER814 

> <Gold.Protein.RotatedAtoms>
  151.4802  133.3548  159.2836 H   0  0  0  0  0  0  0  0  0  0  0  0  # atno 6907 bound_to 6896
  150.8902  134.8307  159.7299 H   0  0  0  0  0  0  0  0  0  0  0  0  # atno 6908 bound_to 6896
  152.4818  134.4711  159.9687 H   0  0  0  0  0  0  0  0  0  0  0  0  # atno 6909 bound_to 6896
  145.3870  139.2369  143.3372 H   0  0  0  0  0  0  0  0  0  0  0  0  # atno 7974 bound_to 7965
  155.8618  140.0979  157.1608 H   0  0  0  0  0  0  0  0  0  0  0  0  # atno 8008 bound_to 7997
  154.3991  140.1364  156.4032 H   0  0  0  0  0  0  0  0  0  0  0  0  # atno 8009 bound_to 7997
  155.7848  140.3457  155.5319 H   0  0  0  0  0  0  0  0  0  0  0  0  # atno 8010 bound_to 7997
  140.4818  143.2400  151.8045 H   0  0  0  0  0  0  0  0  0  0  0  0  # atno 10167 bound_to 10162
  157.1184  131.0486  151.2426 H   0  0  0  0  0  0  0  0  0  0  0  0  # atno 10718 bound_to 10713
  153.4685  135.3706  155.2378 H   0  0  0  0  0  0  0  0  0  0  0  0  # atno 10763 bound_to 10752
  154.8757  135.3926  154.3840 H   0  0  0  0  0  0  0  0  0  0  0  0  # atno 10764 bound_to 10752
  153.4424  135.7084  153.6225 H   0  0  0  0  0  0  0  0  0  0  0  0  # atno 10765 bound_to 10752
  141.1436  133.8040  157.0462 H   0  0  0  0  0  0  0  0  0  0  0  0  # atno 11005 bound_to 11000
  146.2815  140.4547  142.8774 LP  0  0  0  0  0  0  0  0  0  0  0  0  # atno 17320 bound_to 7965
  144.8467  140.6939  143.6195 LP  0  0  0  0  0  0  0  0  0  0  0  0  # atno 17321 bound_to 7965
  139.4835  144.4762  151.9364 LP  0  0  0  0  0  0  0  0  0  0  0  0  # atno 17342 bound_to 10162
  140.3848  144.2691  150.5905 LP  0  0  0  0  0  0  0  0  0  0  0  0  # atno 17343 bound_to 10162
  157.4498  130.7592  149.7141 LP  0  0  0  0  0  0  0  0  0  0  0  0  # atno 17370 bound_to 10713
  155.9834  130.4001  150.3365 LP  0  0  0  0  0  0  0  0  0  0  0  0  # atno 17371 bound_to 10713
  140.0661  134.9728  157.1388 LP  0  0  0  0  0  0  0  0  0  0  0  0  # atno 17394 bound_to 11000
  140.3777  134.2320  155.7173 LP  0  0  0  0  0  0  0  0  0  0  0  0  # atno 17395 bound_to 11000

$$$$
