AV-unprocessed.smi:1518|AV-procd|sdf|6124|dock6
  -GOLD-   22720 6263D 1   1.00000     0.00000
 Structure written by MMmdl.
 45 47  0  0  0  0  0  0  0  0  1 V2000
  154.8257  145.1842  168.5259 C   0  0  0  0  0  0  0  0  0  0  0  0
  154.8192  144.8249  167.0408 C   0  0  0  0  0  0  0  0  0  0  0  0
  154.6401  145.7226  166.2183 O   0  0  0  0  0  0  0  0  0  0  0  0
  155.0276  143.3964  166.6664 C   0  0  0  0  0  0  0  0  0  0  0  0
  155.1290  142.4241  167.6867 C   0  0  0  0  0  0  0  0  0  0  0  0
  155.3277  141.0696  167.3643 C   0  0  0  0  0  0  0  0  0  0  0  0
  155.4255  140.6735  166.0187 C   0  0  0  0  0  0  0  0  0  0  0  0
  155.3243  141.6210  164.9815 C   0  0  0  0  0  0  0  0  0  0  0  0
  155.4311  141.1432  163.6931 O   0  0  0  0  0  0  0  0  0  0  0  0
  156.1244  139.9204  163.4766 C   0  0  0  0  0  0  0  0  0  0  0  0
  155.8989  139.4429  162.0332 C   0  0  2  0  0  0  0  0  0  0  0  0
  156.4383  140.3965  161.1399 O   0  0  0  0  0  0  0  0  0  0  0  0
  154.4226  139.1281  161.7136 C   0  0  0  0  0  0  0  0  0  0  0  0
  153.9605  139.7717  160.4914 N   0  0  0  0  0  0  0  0  0  0  0  0
  153.9823  139.2792  159.2272 C   0  0  0  0  0  0  0  0  0  0  0  0
  154.5209  137.9080  158.9306 C   0  0  0  0  0  0  0  0  0  0  0  0
  155.6731  137.9080  158.1120 O   0  0  0  0  0  0  0  0  0  0  0  0
  153.4843  140.0854  158.2864 N   0  0  0  0  0  0  0  0  0  0  0  0
  153.1071  141.2015  159.0067 C   0  0  0  0  0  0  0  0  0  0  0  0
  152.5111  142.4106  158.5822 C   0  0  0  0  0  0  0  0  0  0  0  0
  152.2090  143.4239  159.5154 C   0  0  0  0  0  0  0  0  0  0  0  0
  152.4977  143.2430  160.8835 C   0  0  0  0  0  0  0  0  0  0  0  0
  153.0907  142.0456  161.3275 C   0  0  0  0  0  0  0  0  0  0  0  0
  153.3905  141.0373  160.3917 C   0  0  0  0  0  0  0  0  0  0  0  0
  155.1237  142.9851  165.3146 C   0  0  0  0  0  0  0  0  0  0  0  0
  155.8009  144.9733  168.9647 H   0  0  0  0  0  0  0  0  0  0  0  0
  154.0667  144.6138  169.0617 H   0  0  0  0  0  0  0  0  0  0  0  0
  154.6127  146.2446  168.6630 H   0  0  0  0  0  0  0  0  0  0  0  0
  155.0573  142.7061  168.7275 H   0  0  0  0  0  0  0  0  0  0  0  0
  155.4053  140.3334  168.1505 H   0  0  0  0  0  0  0  0  0  0  0  0
  155.5785  139.6312  165.7800 H   0  0  0  0  0  0  0  0  0  0  0  0
  157.1911  140.0324  163.6787 H   0  0  0  0  0  0  0  0  0  0  0  0
  155.7342  139.1626  164.1578 H   0  0  0  0  0  0  0  0  0  0  0  0
  156.4891  138.5374  161.8914 H   0  0  0  0  0  0  0  0  0  0  0  0
  156.7563  141.1310  161.6426 H   0  0  0  0  0  0  0  0  0  0  0  0
  154.2773  138.0514  161.6230 H   0  0  0  0  0  0  0  0  0  0  0  0
  153.7774  139.4494  162.5321 H   0  0  0  0  0  0  0  0  0  0  0  0
  154.7695  137.4042  159.8640 H   0  0  0  0  0  0  0  0  0  0  0  0
  153.7439  137.3218  158.4396 H   0  0  0  0  0  0  0  0  0  0  0  0
  155.8237  137.0276  157.8042 H   0  0  0  0  0  0  0  0  0  0  0  0
  152.2856  142.5581  157.5363 H   0  0  0  0  0  0  0  0  0  0  0  0
  151.7538  144.3442  159.1798 H   0  0  0  0  0  0  0  0  0  0  0  0
  152.2636  144.0242  161.5919 H   0  0  0  0  0  0  0  0  0  0  0  0
  153.3142  141.9049  162.3745 H   0  0  0  0  0  0  0  0  0  0  0  0
  155.0431  143.7215  164.5310 H   0  0  0  0  0  0  0  0  0  0  0  0
  1  2  1  0  0  0  0
  1 26  1  0  0  0  0
  1 27  1  0  0  0  0
  1 28  1  0  0  0  0
  2  3  2  0  0  0  0
  2  4  1  0  0  0  0
  4 25  1  0  0  0  0
  4  5  2  0  0  0  0
  5  6  1  0  0  0  0
  5 29  1  0  0  0  0
  6  7  2  0  0  0  0
  6 30  1  0  0  0  0
  7  8  1  0  0  0  0
  7 31  1  0  0  0  0
  8  9  1  0  0  0  0
  8 25  2  0  0  0  0
  9 10  1  0  0  0  0
 10 11  1  0  0  0  0
 10 32  1  0  0  0  0
 10 33  1  0  0  0  0
 11 12  1  0  0  0  0
 11 13  1  0  0  0  0
 11 34  1  0  0  0  0
 12 35  1  0  0  0  0
 13 14  1  0  0  0  0
 13 36  1  0  0  0  0
 13 37  1  0  0  0  0
 14 24  1  0  0  0  0
 14 15  1  0  0  0  0
 15 16  1  0  0  0  0
 15 18  2  0  0  0  0
 16 17  1  0  0  0  0
 16 38  1  0  0  0  0
 16 39  1  0  0  0  0
 17 40  1  0  0  0  0
 18 19  1  0  0  0  0
 19 24  2  0  0  0  0
 19 20  1  0  0  0  0
 20 21  2  0  0  0  0
 20 41  1  0  0  0  0
 21 22  1  0  0  0  0
 21 42  1  0  0  0  0
 22 23  2  0  0  0  0
 22 43  1  0  0  0  0
 23 24  1  0  0  0  0
 23 44  1  0  0  0  0
 25 45  1  0  0  0  0
M  END
> <s_m_source_file>
AV-unprocessed.smi

> <i_m_source_file_index>
1518

> <i_lp_mmshare_version>
43012

> <i_f3d_flags>
0

> <s_epik_input>
W0NIM11DKD1PKWMxW2NIXVtjSF1bY0hdYyhbY0hdMSlPW0NIMl1bQ0BIXShbT0hdKVtDSDJdbihjKG4yKVtDSDJdW09IXSljKGMyMylbY0hdW2NIXVtjSF1bY0hdMw==

> <s_epik_cmdline>
J2VwaWtfcHl0aG9uJywgJy1waCcsICc3LjAnLCAnLXRuJywgJzgnLCAnLW1hJywgJzIwMCcsICctbWV0YWxfYmluZGluZycsICctaW1hZScsICc8aW5maWxlLm1hZT4nLCAnLW9tYWUnLCAnPG91dGZpbGUubWFlPic=

> <r_lp_tautomer_probability>
0.99995

> <r_epik_Ionization_Penalty>
0.0583159

> <r_epik_Ionization_Penalty_Charging>
0

> <r_epik_Ionization_Penalty_Neutral>
0.0583159

> <r_epik_State_Penalty>
0.0503525

> <r_epik_Charging_Adjusted_Penalty>
0.0503525

> <i_epik_Tot_Q>
0

> <i_epik_Tot_abs_Q>
0

> <r_epik_Metal_State_Penalty>
5.25517e-05

> <b_epik_Metal_Only>
0

> <s_lp_Force_Field>
OPLS_2005

> <r_lp_Energy>
22.7276

> <b_lp_Chiralities_Consistent>
1

> <s_lp_Variant>
AV-unprocessed.smi:1518-1

> <Gold.Version>
5.8.1

> <Gold.Id.Protein>
6NUR|6NUR_protein|mol2

> <Gold.PLP.Fitness>
50.4540

> <Gold.PLP.PLP>
-51.6281

> <Gold.PLP.part.hbond>
-5.0000

> <Gold.PLP.part.metal>
0.0000

> <Gold.PLP.part.buried>
-4.3806

> <Gold.PLP.part.nonpolar>
-42.5471

> <Gold.PLP.part.repulsive>
0.1107

> <Gold.PLP.ligand.clash>
0.2938

> <Gold.PLP.ligand.torsion>
1.4912

> <Gold.PLP.Chemscore.Hbond>
0.6699

> <Gold.PLP.Chemscore.CHOScore>
0.0000

> <Gold.PLP.Chemscore.Metal>
0.0000

> <Gold.Chemscore.Hbonds>
donor molecule, donor type, donor heavy atom, donor atom, acceptor molecule, acceptor atom, score
      P1  H  7997  8009       L1    18  0.78

> <Gold.PLP.Chemscore.Internal.Correction>
0.0924

> <Gold.Rescore>
     Score         DG    S(hbond)    S(metal)    S(lipo)     H(rot)  DE(clash)    DE(int)     intcor
     13.33     -14.66       0.80        0.00     126.78       3.25       0.17       1.17       ----

> <Gold.Chemscore.Fitness>
13.3257

> <Gold.Chemscore.DG>
-14.6629

> <Gold.Chemscore.ZeroCoef>
-5.4800

> <Gold.Chemscore.Hbond>
0.7978

> <Gold.Chemscore.Metal>
0.0000

> <Gold.Chemscore.Lipo>
126.7844

> <Gold.Chemscore.Internal_Hbond>
0.0000

> <Gold.Chemscore.DEClash>
0.1663

> <Gold.Chemscore.DEInternal>
1.1709

> <Gold.Chemscore.Rot>
3.2482

> <Gold.Chemscore.Internal.Correction>
   9.000000E+99

> <Gold.Chemscore.Hbonds>
donor molecule, donor type, donor heavy atom, donor atom, acceptor molecule, acceptor atom, score
      P1  H  7997  8009       L1    18  0.64

> <Gold.Chemscore.Hbond.Weighted>
-2.6646

> <Gold.Chemscore.Metal.Weighted>
-0.0000

> <Gold.Chemscore.Lipo.Weighted>
-14.8338

> <Gold.Chemscore.Internal_Hbond.Weighted>
0.0000

> <Gold.Chemscore.DEClash.Weighted>
0.1663

> <Gold.Chemscore.DEInternal.Weighted>
1.1709

> <Gold.Chemscore.Rot.Weighted>
8.3155

> <Gold.Chemscore.Internal.Correction.Weighted>
   9.000000E+99

> <Gold.Protein.RotatedTorsions>
[ 6907 6896 6895 6894 ] final   -9.88 input  -60.11 | X-H torsion
[ 7974 7965 7964 7962 ] final  -79.94 input  175.53 | X-H torsion
[ 8008 7997 7996 7995 ] final  170.39 input   59.86 | X-H torsion
[ 10167 10162 10161 10158 ] final  -19.22 input  -65.29 | X-H torsion
[ 10718 10713 10712 10709 ] final   57.76 input   66.30 | X-H torsion
[ 10763 10752 10751 10750 ] final   39.91 input  -60.55 | X-H torsion
[ 11005 11000 10999 10996 ] final  148.63 input  -57.11 | X-H torsion

> <Gold.Protein.ActiveResidues>
 VAL166  LYS551  ARG553  GLY616  TRP617  ASP618  TYR619  PRO620  LYS621  CYS622 
 ASP623  PHE694  ASN695  SER759  ASP760  ASP761  ALA762  ILE779  LEU786  VAL792 
 PHE793  MET794  SER795  GLU796  ALA797  LYS798  CYS799  TRP800  GLU811  SER814 

> <Gold.Protein.RotatedAtoms>
  151.4108  135.0984  159.9584 H   0  0  0  0  0  0  0  0  0  0  0  0  # atno 6907 bound_to 6896
  152.5020  133.8799  159.7351 H   0  0  0  0  0  0  0  0  0  0  0  0  # atno 6908 bound_to 6896
  150.9294  133.6728  159.2842 H   0  0  0  0  0  0  0  0  0  0  0  0  # atno 6909 bound_to 6896
  145.5665  140.9473  143.1419 H   0  0  0  0  0  0  0  0  0  0  0  0  # atno 7974 bound_to 7965
  156.1370  140.1539  156.8979 H   0  0  0  0  0  0  0  0  0  0  0  0  # atno 8008 bound_to 7997
  154.4955  140.0839  156.7727 H   0  0  0  0  0  0  0  0  0  0  0  0  # atno 8009 bound_to 7997
  155.4150  140.3420  155.4269 H   0  0  0  0  0  0  0  0  0  0  0  0  # atno 8010 bound_to 7997
  140.7266  143.4840  151.0079 H   0  0  0  0  0  0  0  0  0  0  0  0  # atno 10167 bound_to 10162
  157.5541  130.8787  149.9008 H   0  0  0  0  0  0  0  0  0  0  0  0  # atno 10718 bound_to 10713
  152.9952  135.6207  154.2541 H   0  0  0  0  0  0  0  0  0  0  0  0  # atno 10763 bound_to 10752
  154.2279  135.2793  155.2902 H   0  0  0  0  0  0  0  0  0  0  0  0  # atno 10764 bound_to 10752
  154.5474  135.5743  153.6950 H   0  0  0  0  0  0  0  0  0  0  0  0  # atno 10765 bound_to 10752
  140.0976  134.9003  157.1746 H   0  0  0  0  0  0  0  0  0  0  0  0  # atno 11005 bound_to 11000
  144.7458  139.7325  143.7293 LP  0  0  0  0  0  0  0  0  0  0  0  0  # atno 17320 bound_to 7965
  146.1814  139.5008  142.9864 LP  0  0  0  0  0  0  0  0  0  0  0  0  # atno 17321 bound_to 7965
  139.8540  143.7400  152.3177 LP  0  0  0  0  0  0  0  0  0  0  0  0  # atno 17342 bound_to 10162
  139.7593  144.7511  151.0388 LP  0  0  0  0  0  0  0  0  0  0  0  0  # atno 17343 bound_to 10162
  156.0603  130.3701  150.0998 LP  0  0  0  0  0  0  0  0  0  0  0  0  # atno 17370 bound_to 10713
  156.9168  130.9670  151.3554 LP  0  0  0  0  0  0  0  0  0  0  0  0  # atno 17371 bound_to 10713
  140.3265  134.2858  155.7236 LP  0  0  0  0  0  0  0  0  0  0  0  0  # atno 17394 bound_to 11000
  141.2096  133.7743  156.9984 LP  0  0  0  0  0  0  0  0  0  0  0  0  # atno 17395 bound_to 11000

$$$$
