AV-unprocessed.smi:2713|AV-procd|sdf|10478|dock6
  -GOLD-   2272014523D 1   1.00000     0.00000
 Structure written by MMmdl.
 53 54  0  0  0  0  0  0  0  0  2 V2000
  150.2332  132.5361  155.9603 C   0  0  0  0  0  0  0  0  0  0  0  0
  149.0770  133.0522  155.0755 C   0  0  0  0  0  0  0  0  0  0  0  0
  148.9159  132.0440  153.9178 C   0  0  0  0  0  0  0  0  0  0  0  0
  147.7650  133.0423  155.8848 C   0  0  0  0  0  0  0  0  0  0  0  0
  149.4050  134.4414  154.4336 C   0  0  0  0  0  0  0  0  0  0  0  0
  149.6317  135.7269  155.2966 C   0  0  0  0  0  0  0  0  0  0  0  0
  148.4623  136.0012  156.2604 C   0  0  0  0  0  0  0  0  0  0  0  0
  150.8855  135.5020  156.1715 C   0  0  0  0  0  0  0  0  0  0  0  0
  149.8191  136.9470  154.4641 N   0  3  0  0  0  0  0  0  0  0  0  0
  151.1826  137.5137  154.3426 C   0  0  0  0  0  0  0  0  0  0  0  0
  151.3534  138.6753  155.2993 C   0  0  0  0  0  0  0  0  0  0  0  0
  150.5961  139.8575  155.1777 C   0  0  0  0  0  0  0  0  0  0  0  0
  150.7566  140.8914  156.0298 N   0  0  0  0  0  0  0  0  0  0  0  0
  151.6641  140.7646  157.0085 C   0  0  0  0  0  0  0  0  0  0  0  0
  151.8271  141.8427  157.8878 N   0  0  0  0  0  0  0  0  0  0  0  0
  151.3812  143.1955  157.5444 C   0  0  0  0  0  0  0  0  0  0  0  0
  152.2743  144.2540  158.2131 C   0  0  0  0  0  0  0  0  0  0  0  0
  152.3130  144.0343  159.6175 O   0  0  0  0  0  0  0  0  0  0  0  0
  152.8720  142.7650  159.9314 C   0  0  0  0  0  0  0  0  0  0  0  0
  152.0005  141.6493  159.3300 C   0  0  0  0  0  0  0  0  0  0  0  0
  152.4279  139.6808  157.2059 N   0  0  0  0  0  0  0  0  0  0  0  0
  152.2769  138.6379  156.3631 C   0  0  0  0  0  0  0  0  0  0  0  0
  150.0678  131.4984  156.2527 H   0  0  0  0  0  0  0  0  0  0  0  0
  150.3457  133.0956  156.8852 H   0  0  0  0  0  0  0  0  0  0  0  0
  151.1873  132.5723  155.4336 H   0  0  0  0  0  0  0  0  0  0  0  0
  149.8178  131.9925  153.3063 H   0  0  0  0  0  0  0  0  0  0  0  0
  148.0897  132.3161  153.2597 H   0  0  0  0  0  0  0  0  0  0  0  0
  148.7151  131.0367  154.2855 H   0  0  0  0  0  0  0  0  0  0  0  0
  147.5295  132.0370  156.2362 H   0  0  0  0  0  0  0  0  0  0  0  0
  146.9210  133.3759  155.2817 H   0  0  0  0  0  0  0  0  0  0  0  0
  147.8231  133.6760  156.7689 H   0  0  0  0  0  0  0  0  0  0  0  0
  150.2957  134.2997  153.8193 H   0  0  0  0  0  0  0  0  0  0  0  0
  148.6314  134.6697  153.7008 H   0  0  0  0  0  0  0  0  0  0  0  0
  148.1925  135.1101  156.8282 H   0  0  0  0  0  0  0  0  0  0  0  0
  147.5758  136.3550  155.7364 H   0  0  0  0  0  0  0  0  0  0  0  0
  148.7205  136.7784  156.9810 H   0  0  0  0  0  0  0  0  0  0  0  0
  150.7186  134.7091  156.9018 H   0  0  0  0  0  0  0  0  0  0  0  0
  151.1552  136.4017  156.7264 H   0  0  0  0  0  0  0  0  0  0  0  0
  151.7528  135.2050  155.5815 H   0  0  0  0  0  0  0  0  0  0  0  0
  149.4912  136.7325  153.5331 H   0  0  0  0  0  0  0  0  0  0  0  0
  151.9391  136.7634  154.5707 H   0  0  0  0  0  0  0  0  0  0  0  0
  151.3701  137.8679  153.3297 H   0  0  0  0  0  0  0  0  0  0  0  0
  149.8638  139.9781  154.3931 H   0  0  0  0  0  0  0  0  0  0  0  0
  151.3891  143.3730  156.4694 H   0  0  0  0  0  0  0  0  0  0  0  0
  150.3490  143.3149  157.8755 H   0  0  0  0  0  0  0  0  0  0  0  0
  153.2841  144.2282  157.8005 H   0  0  0  0  0  0  0  0  0  0  0  0
  151.8790  145.2517  158.0218 H   0  0  0  0  0  0  0  0  0  0  0  0
  153.8959  142.7031  159.5589 H   0  0  0  0  0  0  0  0  0  0  0  0
  152.9215  142.6584  161.0151 H   0  0  0  0  0  0  0  0  0  0  0  0
  151.0181  141.6449  159.8033 H   0  0  0  0  0  0  0  0  0  0  0  0
  152.4678  140.6923  159.5609 H   0  0  0  0  0  0  0  0  0  0  0  0
  152.9012  137.7741  156.5368 H   0  0  0  0  0  0  0  0  0  0  0  0
  149.2231  137.6676  154.8461 H   0  0  0  0  0  0  0  0  0  0  0  0
  1  2  1  0  0  0  0
  1 23  1  0  0  0  0
  1 24  1  0  0  0  0
  1 25  1  0  0  0  0
  2  3  1  0  0  0  0
  2  4  1  0  0  0  0
  2  5  1  0  0  0  0
  3 26  1  0  0  0  0
  3 27  1  0  0  0  0
  3 28  1  0  0  0  0
  4 29  1  0  0  0  0
  4 30  1  0  0  0  0
  4 31  1  0  0  0  0
  5  6  1  0  0  0  0
  5 32  1  0  0  0  0
  5 33  1  0  0  0  0
  6  7  1  0  0  0  0
  6  8  1  0  0  0  0
  6  9  1  0  0  0  0
  7 34  1  0  0  0  0
  7 35  1  0  0  0  0
  7 36  1  0  0  0  0
  8 37  1  0  0  0  0
  8 38  1  0  0  0  0
  8 39  1  0  0  0  0
  9 10  1  0  0  0  0
  9 40  1  0  0  0  0
  9 53  1  0  0  0  0
 10 11  1  0  0  0  0
 10 41  1  0  0  0  0
 10 42  1  0  0  0  0
 11 22  1  0  0  0  0
 11 12  2  0  0  0  0
 12 13  1  0  0  0  0
 12 43  1  0  0  0  0
 13 14  2  0  0  0  0
 14 15  1  0  0  0  0
 14 21  1  0  0  0  0
 15 20  1  0  0  0  0
 15 16  1  0  0  0  0
 16 17  1  0  0  0  0
 16 44  1  0  0  0  0
 16 45  1  0  0  0  0
 17 18  1  0  0  0  0
 17 46  1  0  0  0  0
 17 47  1  0  0  0  0
 18 19  1  0  0  0  0
 19 20  1  0  0  0  0
 19 48  1  0  0  0  0
 19 49  1  0  0  0  0
 20 50  1  0  0  0  0
 20 51  1  0  0  0  0
 21 22  2  0  0  0  0
 22 52  1  0  0  0  0
M  CHG  1   9   1
M  END
> <s_m_source_file>
AV-unprocessed.smi

> <i_m_source_file_index>
2713

> <i_lp_mmshare_version>
43012

> <i_f3d_flags>
0

> <s_epik_input>
W0NIM11DKFtDSDNdKShbQ0gzXSlbQ0gyXUMoW0NIM10pKFtDSDNdKVtOSF1bQ0gyXWMxW2NIXW5jKG5bY0hdMSlOMltDSDJdW0NIMl1PW0NIMl1bQ0gyXTI=

> <s_epik_cmdline>
J2VwaWtfcHl0aG9uJywgJy1waCcsICc3LjAnLCAnLXRuJywgJzgnLCAnLW1hJywgJzIwMCcsICctbWV0YWxfYmluZGluZycsICctaW1hZScsICc8aW5maWxlLm1hZT4nLCAnLW9tYWUnLCAnPG91dGZpbGUubWFlPic=

> <r_lp_tautomer_probability>
1

> <r_epik_Ionization_Penalty>
0.036663

> <r_epik_Ionization_Penalty_Charging>
0.0366608

> <r_epik_Ionization_Penalty_Neutral>
2.19352e-06

> <r_epik_State_Penalty>
0.0306388

> <r_epik_Charging_Adjusted_Penalty>
0.0672996

> <i_epik_Tot_Q>
1

> <i_epik_Tot_abs_Q>
1

> <r_epik_Metal_State_Penalty>
0.0306391

> <b_epik_Metal_Only>
0

> <s_lp_Force_Field>
OPLS_2005

> <r_lp_Energy>
26.4039

> <b_lp_Chiralities_Consistent>
1

> <s_lp_Variant>
AV-unprocessed.smi:2713-1

> <Gold.Version>
5.8.1

> <Gold.Id.Protein>
6NUR|6NUR_protein|mol2

> <Gold.PLP.Fitness>
46.5515

> <Gold.PLP.PLP>
-41.4536

> <Gold.PLP.part.hbond>
-2.0000

> <Gold.PLP.part.metal>
0.0000

> <Gold.PLP.part.buried>
-4.1791

> <Gold.PLP.part.nonpolar>
-35.6686

> <Gold.PLP.part.repulsive>
0.0823

> <Gold.PLP.ligand.clash>
0.5475

> <Gold.PLP.ligand.torsion>
1.7160

> <Gold.PLP.Chemscore.Hbond>
2.9500

> <Gold.PLP.Chemscore.CHOScore>
0.0000

> <Gold.PLP.Chemscore.Metal>
0.0000

> <Gold.Chemscore.Hbonds>
donor molecule, donor type, donor heavy atom, donor atom, acceptor molecule, acceptor atom, score
      L1  H     9    40       P1  7948  2.00
      P1  H  7997  8009       L1    21  0.74

> <Gold.PLP.Chemscore.Internal.Correction>
0.2274

> <Gold.Rescore>
     Score         DG    S(hbond)    S(metal)    S(lipo)     H(rot)  DE(clash)    DE(int)     intcor
     16.22     -19.10       1.45        0.00     108.45       1.53       0.04       2.83       ----

> <Gold.Chemscore.Fitness>
16.2242

> <Gold.Chemscore.DG>
-19.0967

> <Gold.Chemscore.ZeroCoef>
-5.4800

> <Gold.Chemscore.Hbond>
1.4531

> <Gold.Chemscore.Metal>
0.0000

> <Gold.Chemscore.Lipo>
108.4494

> <Gold.Chemscore.Internal_Hbond>
0.0000

> <Gold.Chemscore.DEClash>
0.0440

> <Gold.Chemscore.DEInternal>
2.8285

> <Gold.Chemscore.Rot>
1.5332

> <Gold.Chemscore.Internal.Correction>
   9.000000E+99

> <Gold.Chemscore.Hbonds>
donor molecule, donor type, donor heavy atom, donor atom, acceptor molecule, acceptor atom, score
      L1  H     9    40       P1  7948  0.82
      P1  H  7997  8009       L1    21  0.14

> <Gold.Chemscore.Hbond.Weighted>
-4.8532

> <Gold.Chemscore.Metal.Weighted>
-0.0000

> <Gold.Chemscore.Lipo.Weighted>
-12.6886

> <Gold.Chemscore.Internal_Hbond.Weighted>
0.0000

> <Gold.Chemscore.DEClash.Weighted>
0.0440

> <Gold.Chemscore.DEInternal.Weighted>
2.8285

> <Gold.Chemscore.Rot.Weighted>
3.9251

> <Gold.Chemscore.Internal.Correction.Weighted>
   9.000000E+99

> <Gold.Protein.RotatedTorsions>
[ 6907 6896 6895 6894 ] final   82.79 input  -60.11 | X-H torsion
[ 7974 7965 7964 7962 ] final  122.38 input  175.53 | X-H torsion
[ 8008 7997 7996 7995 ] final  163.49 input   59.86 | X-H torsion
[ 10167 10162 10161 10158 ] final  -30.35 input  -65.29 | X-H torsion
[ 10718 10713 10712 10709 ] final  -46.57 input   66.30 | X-H torsion
[ 10763 10752 10751 10750 ] final   52.83 input  -60.55 | X-H torsion
[ 11005 11000 10999 10996 ] final -129.07 input  -57.11 | X-H torsion

> <Gold.Protein.ActiveResidues>
 VAL166  LYS551  ARG553  GLY616  TRP617  ASP618  TYR619  PRO620  LYS621  CYS622 
 ASP623  PHE694  ASN695  SER759  ASP760  ASP761  ALA762  ILE779  LEU786  VAL792 
 PHE793  MET794  SER795  GLU796  ALA797  LYS798  CYS799  TRP800  GLU811  SER814 

> <Gold.Protein.RotatedAtoms>
  152.5309  134.2995  159.9072 H   0  0  0  0  0  0  0  0  0  0  0  0  # atno 6907 bound_to 6896
  151.2946  133.4143  159.2643 H   0  0  0  0  0  0  0  0  0  0  0  0  # atno 6908 bound_to 6896
  151.0171  134.9457  159.8096 H   0  0  0  0  0  0  0  0  0  0  0  0  # atno 6909 bound_to 6896
  145.1083  139.3470  143.4776 H   0  0  0  0  0  0  0  0  0  0  0  0  # atno 7974 bound_to 7965
  156.1953  140.1722  156.8010 H   0  0  0  0  0  0  0  0  0  0  0  0  # atno 8008 bound_to 7997
  154.5522  140.0715  156.8717 H   0  0  0  0  0  0  0  0  0  0  0  0  # atno 8009 bound_to 7997
  155.3007  140.3361  155.4250 H   0  0  0  0  0  0  0  0  0  0  0  0  # atno 8010 bound_to 7997
  140.7250  143.3855  151.1522 H   0  0  0  0  0  0  0  0  0  0  0  0  # atno 10167 bound_to 10162
  156.2170  130.4164  149.9041 H   0  0  0  0  0  0  0  0  0  0  0  0  # atno 10718 bound_to 10713
  152.9791  135.5799  154.4643 H   0  0  0  0  0  0  0  0  0  0  0  0  # atno 10763 bound_to 10752
  154.4215  135.2771  155.1974 H   0  0  0  0  0  0  0  0  0  0  0  0  # atno 10764 bound_to 10752
  154.3721  135.6165  153.5799 H   0  0  0  0  0  0  0  0  0  0  0  0  # atno 10765 bound_to 10752
  140.9463  134.1126  157.4104 H   0  0  0  0  0  0  0  0  0  0  0  0  # atno 11005 bound_to 11000
  146.3527  140.0990  142.8609 LP  0  0  0  0  0  0  0  0  0  0  0  0  # atno 17320 bound_to 7965
  145.0876  140.9263  143.4788 LP  0  0  0  0  0  0  0  0  0  0  0  0  # atno 17321 bound_to 7965
  139.7452  143.8863  152.3061 LP  0  0  0  0  0  0  0  0  0  0  0  0  # atno 17342 bound_to 10162
  139.8698  144.7074  150.9001 LP  0  0  0  0  0  0  0  0  0  0  0  0  # atno 17343 bound_to 10162
  156.6700  130.8816  151.3561 LP  0  0  0  0  0  0  0  0  0  0  0  0  # atno 17370 bound_to 10713
  157.7068  130.9394  150.0958 LP  0  0  0  0  0  0  0  0  0  0  0  0  # atno 17371 bound_to 10713
  139.8834  135.0052  156.6299 LP  0  0  0  0  0  0  0  0  0  0  0  0  # atno 17394 bound_to 11000
  140.7665  133.8774  155.8458 LP  0  0  0  0  0  0  0  0  0  0  0  0  # atno 17395 bound_to 11000

$$$$
