AV-unprocessed.smi:180|AV-procd|sdf|1452|dock5
  -GOLD-   2262019253D 1   1.00000     0.00000
 Structure written by MMmdl.
 54 57  0  0  0  0  0  0  0  0  1 V2000
  146.3025  133.9928  151.8964 C   0  0  0  0  0  0  0  0  0  0  0  0
  147.2515  133.1154  152.7058 C   0  0  0  0  0  0  0  0  0  0  0  0
  147.0137  131.9163  152.8461 O   0  0  0  0  0  0  0  0  0  0  0  0
  148.3204  133.7270  153.2375 N   0  0  0  0  0  0  0  0  0  0  0  0
  149.3388  133.0739  154.0527 C   0  0  0  0  0  0  0  0  0  0  0  0
  149.7429  133.9384  155.2590 C   0  0  1  0  0  0  0  0  0  0  0  0
  150.1812  135.3506  154.8276 C   0  0  0  0  0  0  0  0  0  0  0  0
  150.4682  136.1626  156.0030 N   0  0  0  0  0  0  0  0  0  0  0  0
  151.0034  137.3691  155.7240 C   0  0  0  0  0  0  0  0  0  0  0  0
  152.1042  137.3866  154.9339 N   0  0  0  0  0  0  0  0  0  0  0  0
  152.6827  138.5502  154.6216 C   0  0  0  0  0  0  0  0  0  0  0  0
  152.3270  139.7844  154.9854 N   0  0  0  0  0  0  0  0  0  0  0  0
  151.2178  139.7679  155.7794 C   0  0  0  0  0  0  0  0  0  0  0  0
  150.5000  138.6130  156.1992 C   0  0  0  0  0  0  0  0  0  0  0  0
  149.4339  138.9856  157.0091 N   0  0  0  0  0  0  0  0  0  0  0  0
  149.5145  140.2872  157.0610 C   0  0  0  0  0  0  0  0  0  0  0  0
  150.5475  140.8419  156.3387 N   0  0  0  0  0  0  0  0  0  0  0  0
  150.8668  142.2562  156.2204 C   0  0  0  0  0  0  0  0  0  0  0  0
  151.2554  142.9416  157.5555 C   0  0  0  0  0  0  0  0  0  0  0  0
  150.0381  143.1031  158.2611 O   0  0  0  0  0  0  0  0  0  0  0  0
  152.2078  142.0865  158.4191 C   0  0  0  0  0  0  0  0  0  0  0  0
  152.6503  142.8283  159.6933 C   0  0  0  0  0  0  0  0  0  0  0  0
  153.2458  144.0743  159.3498 O   0  0  0  0  0  0  0  0  0  0  0  0
  152.3452  144.9550  158.6882 C   0  0  0  0  0  0  0  0  0  0  0  0
  151.8878  144.3360  157.3549 C   0  0  0  0  0  0  0  0  0  0  0  0
  149.3540  136.2167  156.9393 C   0  0  0  0  0  0  0  0  0  0  0  0
  148.9218  134.7899  157.3145 C   0  0  0  0  0  0  0  0  0  0  0  0
  148.6187  134.0576  156.1306 O   0  0  0  0  0  0  0  0  0  0  0  0
  146.8572  134.7127  151.2938 H   0  0  0  0  0  0  0  0  0  0  0  0
  145.6351  134.5405  152.5621 H   0  0  0  0  0  0  0  0  0  0  0  0
  145.6944  133.3853  151.2252 H   0  0  0  0  0  0  0  0  0  0  0  0
  148.4315  134.7175  153.0761 H   0  0  0  0  0  0  0  0  0  0  0  0
  148.9730  132.1019  154.3883 H   0  0  0  0  0  0  0  0  0  0  0  0
  150.2084  132.8759  153.4256 H   0  0  0  0  0  0  0  0  0  0  0  0
  150.5649  133.4556  155.7914 H   0  0  0  0  0  0  0  0  0  0  0  0
  151.0692  135.2915  154.1965 H   0  0  0  0  0  0  0  0  0  0  0  0
  149.3938  135.8174  154.2349 H   0  0  0  0  0  0  0  0  0  0  0  0
  153.5549  138.4827  153.9885 H   0  0  0  0  0  0  0  0  0  0  0  0
  148.8127  140.8841  157.6251 H   0  0  0  0  0  0  0  0  0  0  0  0
  151.6792  142.3554  155.4988 H   0  0  0  0  0  0  0  0  0  0  0  0
  150.0069  142.7603  155.7761 H   0  0  0  0  0  0  0  0  0  0  0  0
  150.2382  143.3543  159.1499 H   0  0  0  0  0  0  0  0  0  0  0  0
  151.7406  141.1358  158.6792 H   0  0  0  0  0  0  0  0  0  0  0  0
  153.1046  141.8426  157.8502 H   0  0  0  0  0  0  0  0  0  0  0  0
  151.8099  142.9878  160.3706 H   0  0  0  0  0  0  0  0  0  0  0  0
  153.3815  142.2295  160.2363 H   0  0  0  0  0  0  0  0  0  0  0  0
  151.4946  145.1772  159.3340 H   0  0  0  0  0  0  0  0  0  0  0  0
  152.8543  145.9010  158.5033 H   0  0  0  0  0  0  0  0  0  0  0  0
  152.7621  144.2574  156.7092 H   0  0  0  0  0  0  0  0  0  0  0  0
  151.1908  145.0047  156.8484 H   0  0  0  0  0  0  0  0  0  0  0  0
  149.6455  136.7676  157.8346 H   0  0  0  0  0  0  0  0  0  0  0  0
  148.5164  136.7502  156.4882 H   0  0  0  0  0  0  0  0  0  0  0  0
  149.7048  134.2814  157.8793 H   0  0  0  0  0  0  0  0  0  0  0  0
  148.0373  134.8199  157.9507 H   0  0  0  0  0  0  0  0  0  0  0  0
  1  2  1  0  0  0  0
  1 29  1  0  0  0  0
  1 30  1  0  0  0  0
  1 31  1  0  0  0  0
  2  3  2  0  0  0  0
  2  4  1  0  0  0  0
  4  5  1  0  0  0  0
  4 32  1  0  0  0  0
  5  6  1  0  0  0  0
  5 33  1  0  0  0  0
  5 34  1  0  0  0  0
  6 28  1  0  0  0  0
  6  7  1  0  0  0  0
  6 35  1  0  0  0  0
  7  8  1  0  0  0  0
  7 36  1  0  0  0  0
  7 37  1  0  0  0  0
  8  9  1  0  0  0  0
  8 26  1  0  0  0  0
  9 14  1  0  0  0  0
  9 10  2  0  0  0  0
 10 11  1  0  0  0  0
 11 12  2  0  0  0  0
 11 38  1  0  0  0  0
 12 13  1  0  0  0  0
 13 17  1  0  0  0  0
 13 14  2  0  0  0  0
 14 15  1  0  0  0  0
 15 16  2  0  0  0  0
 16 17  1  0  0  0  0
 16 39  1  0  0  0  0
 17 18  1  0  0  0  0
 18 19  1  0  0  0  0
 18 40  1  0  0  0  0
 18 41  1  0  0  0  0
 19 25  1  0  0  0  0
 19 20  1  0  0  0  0
 19 21  1  0  0  0  0
 20 42  1  0  0  0  0
 21 22  1  0  0  0  0
 21 43  1  0  0  0  0
 21 44  1  0  0  0  0
 22 23  1  0  0  0  0
 22 45  1  0  0  0  0
 22 46  1  0  0  0  0
 23 24  1  0  0  0  0
 24 25  1  0  0  0  0
 24 47  1  0  0  0  0
 24 48  1  0  0  0  0
 25 49  1  0  0  0  0
 25 50  1  0  0  0  0
 26 27  1  0  0  0  0
 26 51  1  0  0  0  0
 26 52  1  0  0  0  0
 27 28  1  0  0  0  0
 27 53  1  0  0  0  0
 27 54  1  0  0  0  0
M  END
> <s_m_source_file>
AV-unprocessed.smi

> <i_m_source_file_index>
180

> <i_lp_mmshare_version>
43012

> <i_f3d_flags>
0

> <s_epik_input>
W0NIM11DKD1PKVtOSF1bQ0gyXVtDQEBIXTFbQ0gyXU4oW0NIMl1bQ0gyXU8xKWMobltjSF1uMiljKGMyMyluW2NIXW4zW0NIMl1DNChbT0hdKVtDSDJdW0NIMl1PW0NIMl1bQ0gyXTQ=

> <s_epik_cmdline>
J2VwaWtfcHl0aG9uJywgJy1waCcsICc3LjAnLCAnLXRuJywgJzgnLCAnLW1hJywgJzIwMCcsICctbWV0YWxfYmluZGluZycsICctaW1hZScsICc8aW5maWxlLm1hZT4nLCAnLW9tYWUnLCAnPG91dGZpbGUubWFlPic=

> <r_lp_tautomer_probability>
1

> <r_epik_Ionization_Penalty>
7.38871e-05

> <r_epik_Ionization_Penalty_Charging>
0

> <r_epik_Ionization_Penalty_Neutral>
7.38871e-05

> <r_epik_State_Penalty>
-0

> <r_epik_Charging_Adjusted_Penalty>
0

> <i_epik_Tot_Q>
0

> <i_epik_Tot_abs_Q>
0

> <r_epik_Metal_State_Penalty>
-0

> <b_epik_Metal_Only>
0

> <s_lp_Force_Field>
OPLS_2005

> <r_lp_Energy>
30.2573

> <b_lp_Chiralities_Consistent>
1

> <s_lp_Variant>
AV-unprocessed.smi:180-2

> <Gold.Version>
5.8.1

> <Gold.Id.Protein>
6NUR|6NUR_protein|mol2

> <Gold.PLP.Fitness>
55.5017

> <Gold.PLP.PLP>
-47.9880

> <Gold.PLP.part.hbond>
-3.0000

> <Gold.PLP.part.metal>
0.0000

> <Gold.PLP.part.buried>
-7.8914

> <Gold.PLP.part.nonpolar>
-38.9139

> <Gold.PLP.part.repulsive>
0.3080

> <Gold.PLP.ligand.clash>
0.0000

> <Gold.PLP.ligand.torsion>
0.3840

> <Gold.PLP.Chemscore.Hbond>
2.6960

> <Gold.PLP.Chemscore.CHOScore>
0.0000

> <Gold.PLP.Chemscore.Metal>
0.0000

> <Gold.Chemscore.Hbonds>
donor molecule, donor type, donor heavy atom, donor atom, acceptor molecule, acceptor atom, score
      L1  H     4    32       P1  7948  0.96
      P1  H  7989  7998       L1    12  0.72
      P1  H  7997  8009       L1    12  0.11
      P1  H 10752 10765       L1    10  0.83

> <Gold.PLP.Chemscore.Internal.Correction>
0.1937

> <Gold.Rescore>
     Score         DG    S(hbond)    S(metal)    S(lipo)     H(rot)  DE(clash)    DE(int)     intcor
     13.46     -15.20       1.98        0.00      92.03       2.99       0.00       1.74       ----

> <Gold.Chemscore.Fitness>
13.4603

> <Gold.Chemscore.DG>
-15.2014

> <Gold.Chemscore.ZeroCoef>
-5.4800

> <Gold.Chemscore.Hbond>
1.9774

> <Gold.Chemscore.Metal>
0.0000

> <Gold.Chemscore.Lipo>
92.0292

> <Gold.Chemscore.Internal_Hbond>
0.0000

> <Gold.Chemscore.DEClash>
0.0004

> <Gold.Chemscore.DEInternal>
1.7406

> <Gold.Chemscore.Rot>
2.9885

> <Gold.Chemscore.Internal.Correction>
   9.000000E+99

> <Gold.Chemscore.Hbonds>
donor molecule, donor type, donor heavy atom, donor atom, acceptor molecule, acceptor atom, score
      L1  H     4    32       P1  7948  0.50
      P1  H  7989  7998       L1    12  0.18
      P1  H  7997  8009       L1    12  0.01
      P1  H 10752 10765       L1    10  0.75

> <Gold.Chemscore.Hbond.Weighted>
-6.6045

> <Gold.Chemscore.Metal.Weighted>
-0.0000

> <Gold.Chemscore.Lipo.Weighted>
-10.7674

> <Gold.Chemscore.Internal_Hbond.Weighted>
0.0000

> <Gold.Chemscore.DEClash.Weighted>
0.0004

> <Gold.Chemscore.DEInternal.Weighted>
1.7406

> <Gold.Chemscore.Rot.Weighted>
7.6506

> <Gold.Chemscore.Internal.Correction.Weighted>
   9.000000E+99

> <Gold.Protein.RotatedTorsions>
[ 6907 6896 6895 6894 ] final -108.57 input  -60.11 | X-H torsion
[ 7974 7965 7964 7962 ] final   46.93 input  175.53 | X-H torsion
[ 8008 7997 7996 7995 ] final -130.76 input   59.86 | X-H torsion
[ 10167 10162 10161 10158 ] final  -62.64 input  -65.29 | X-H torsion
[ 10718 10713 10712 10709 ] final  -15.54 input   66.30 | X-H torsion
[ 10763 10752 10751 10750 ] final  174.16 input  -60.55 | X-H torsion
[ 11005 11000 10999 10996 ] final  -91.31 input  -57.11 | X-H torsion

> <Gold.Protein.ActiveResidues>
 VAL166  LYS551  ARG553  GLY616  TRP617  ASP618  TYR619  PRO620  LYS621  CYS622 
 ASP623  PHE694  ASN695  SER759  ASP760  ASP761  ALA762  ILE779  LEU786  VAL792 
 PHE793  MET794  SER795  GLU796  ALA797  LYS798  CYS799  TRP800  GLU811  SER814 

> <Gold.Protein.RotatedAtoms>
  150.7509  133.9658  159.3529 H   0  0  0  0  0  0  0  0  0  0  0  0  # atno 6907 bound_to 6896
  151.7587  135.0813  160.0351 H   0  0  0  0  0  0  0  0  0  0  0  0  # atno 6908 bound_to 6896
  152.3417  133.6038  159.5917 H   0  0  0  0  0  0  0  0  0  0  0  0  # atno 6909 bound_to 6896
  146.0345  139.4803  142.9817 H   0  0  0  0  0  0  0  0  0  0  0  0  # atno 7974 bound_to 7965
  155.3012  140.0453  157.3029 H   0  0  0  0  0  0  0  0  0  0  0  0  # atno 8008 bound_to 7997
  154.5486  140.2310  155.8489 H   0  0  0  0  0  0  0  0  0  0  0  0  # atno 8009 bound_to 7997
  156.1946  140.3041  155.9408 H   0  0  0  0  0  0  0  0  0  0  0  0  # atno 8010 bound_to 7997
  140.5925  143.2344  151.6108 H   0  0  0  0  0  0  0  0  0  0  0  0  # atno 10167 bound_to 10162
  156.6003  130.4822  149.6243 H   0  0  0  0  0  0  0  0  0  0  0  0  # atno 10718 bound_to 10713
  154.4501  135.2764  155.1787 H   0  0  0  0  0  0  0  0  0  0  0  0  # atno 10763 bound_to 10752
  154.3618  135.6128  153.5698 H   0  0  0  0  0  0  0  0  0  0  0  0  # atno 10764 bound_to 10752
  152.9846  135.5836  154.4843 H   0  0  0  0  0  0  0  0  0  0  0  0  # atno 10765 bound_to 10752
  141.1547  133.7748  156.9861 H   0  0  0  0  0  0  0  0  0  0  0  0  # atno 11005 bound_to 11000
  145.6987  141.0142  143.1516 LP  0  0  0  0  0  0  0  0  0  0  0  0  # atno 17320 bound_to 7965
  144.7045  139.8618  143.7434 LP  0  0  0  0  0  0  0  0  0  0  0  0  # atno 17321 bound_to 7965
  139.5237  144.3126  152.0979 LP  0  0  0  0  0  0  0  0  0  0  0  0  # atno 17342 bound_to 10162
  140.2293  144.4385  150.6307 LP  0  0  0  0  0  0  0  0  0  0  0  0  # atno 17343 bound_to 10162
  156.2475  130.6887  151.1614 LP  0  0  0  0  0  0  0  0  0  0  0  0  # atno 17370 bound_to 10713
  157.7281  131.0634  150.5834 LP  0  0  0  0  0  0  0  0  0  0  0  0  # atno 17371 bound_to 10713
  140.1033  134.9522  157.1956 LP  0  0  0  0  0  0  0  0  0  0  0  0  # atno 17394 bound_to 11000
  140.3289  134.2832  155.7231 LP  0  0  0  0  0  0  0  0  0  0  0  0  # atno 17395 bound_to 11000

$$$$
