AV-unprocessed.smi:2419|AV-procd|sdf|9552|dock1
  -GOLD-   2272013183D 1   1.00000     0.00000
 Structure written by MMmdl.
 28 29  0  0  0  0  0  0  0  0  1 V2000
  150.9205  140.7720  156.7141 O   0  0  0  0  0  0  0  0  0  0  0  0
  150.5179  141.8870  156.3807 C   0  0  0  0  0  0  0  0  0  0  0  0
  149.7972  142.1093  155.2741 N   0  0  0  0  0  0  0  0  0  0  0  0
  149.3931  141.0739  154.3306 C   0  0  0  0  0  0  0  0  0  0  0  0
  147.8656  140.9716  154.2430 C   0  0  0  0  0  0  0  0  0  0  0  0
  147.6146  140.0609  153.1905 O   0  0  0  0  0  0  0  0  0  0  0  0
  147.0680  140.7038  155.5333 C   0  0  0  0  0  0  0  0  0  0  0  0
  146.0313  141.7340  155.0823 C   0  0  0  0  0  0  0  0  0  0  0  0
  147.0769  142.2869  154.1120 C   0  0  0  0  0  0  0  0  0  0  0  0
  150.7338  143.0278  157.0586 N   0  0  0  0  0  0  0  0  0  0  0  0
  151.4547  143.2072  158.2684 C   0  0  0  0  0  0  0  0  0  0  0  0
  152.1171  142.2338  158.9043 N   0  0  0  0  0  0  0  0  0  0  0  0
  152.7359  142.6947  160.0690 C   0  0  0  0  0  0  0  0  0  0  0  0
  152.5330  144.0316  160.3064 C   0  0  0  0  0  0  0  0  0  0  0  0
  151.5505  144.7689  159.0694 S   0  0  0  0  0  0  0  0  0  0  0  0
  149.4992  143.0522  155.0717 H   0  0  0  0  0  0  0  0  0  0  0  0
  149.8057  141.3301  153.3533 H   0  0  0  0  0  0  0  0  0  0  0  0
  149.8452  140.1205  154.6104 H   0  0  0  0  0  0  0  0  0  0  0  0
  148.4242  139.9595  152.7138 H   0  0  0  0  0  0  0  0  0  0  0  0
  146.6795  139.6894  155.6303 H   0  0  0  0  0  0  0  0  0  0  0  0
  147.6002  141.0137  156.4341 H   0  0  0  0  0  0  0  0  0  0  0  0
  145.1804  141.2807  154.5720 H   0  0  0  0  0  0  0  0  0  0  0  0
  145.7155  142.4321  155.8581 H   0  0  0  0  0  0  0  0  0  0  0  0
  147.6086  143.1485  154.5189 H   0  0  0  0  0  0  0  0  0  0  0  0
  146.6929  142.4958  153.1126 H   0  0  0  0  0  0  0  0  0  0  0  0
  150.3376  143.8669  156.6618 H   0  0  0  0  0  0  0  0  0  0  0  0
  153.3030  142.0011  160.6721 H   0  0  0  0  0  0  0  0  0  0  0  0
  152.9002  144.6243  161.1310 H   0  0  0  0  0  0  0  0  0  0  0  0
  1  2  2  0  0  0  0
  2  3  1  0  0  0  0
  2 10  1  0  0  0  0
  3  4  1  0  0  0  0
  3 16  1  0  0  0  0
  4  5  1  0  0  0  0
  4 17  1  0  0  0  0
  4 18  1  0  0  0  0
  5  9  1  0  0  0  0
  5  6  1  0  0  0  0
  5  7  1  0  0  0  0
  6 19  1  0  0  0  0
  7  8  1  0  0  0  0
  7 20  1  0  0  0  0
  7 21  1  0  0  0  0
  8  9  1  0  0  0  0
  8 22  1  0  0  0  0
  8 23  1  0  0  0  0
  9 24  1  0  0  0  0
  9 25  1  0  0  0  0
 10 11  1  0  0  0  0
 10 26  1  0  0  0  0
 11 15  1  0  0  0  0
 11 12  2  0  0  0  0
 12 13  1  0  0  0  0
 13 14  2  0  0  0  0
 13 27  1  0  0  0  0
 14 15  1  0  0  0  0
 14 28  1  0  0  0  0
M  END
> <s_m_source_file>
AV-unprocessed.smi

> <i_m_source_file_index>
2419

> <i_lp_mmshare_version>
43012

> <i_f3d_flags>
0

> <s_epik_input>
czFbY0hdW2NIXW5jMVtOSF1DKD1PKVtOSF1bQ0gyXUMyKFtPSF0pW0NIMl1bQ0gyXVtDSDJdMg==

> <s_epik_cmdline>
J2VwaWtfcHl0aG9uJywgJy1waCcsICc3LjAnLCAnLXRuJywgJzgnLCAnLW1hJywgJzIwMCcsICctbWV0YWxfYmluZGluZycsICctaW1hZScsICc8aW5maWxlLm1hZT4nLCAnLW9tYWUnLCAnPG91dGZpbGUubWFlPic=

> <r_lp_tautomer_probability>
0.999

> <r_epik_Ionization_Penalty>
0.000351348

> <r_epik_Ionization_Penalty_Charging>
0

> <r_epik_Ionization_Penalty_Neutral>
0.000351348

> <r_epik_State_Penalty>
0.000177984

> <r_epik_Charging_Adjusted_Penalty>
0.000177984

> <i_epik_Tot_Q>
0

> <i_epik_Tot_abs_Q>
0

> <r_epik_Metal_State_Penalty>
0.00728824

> <b_epik_Metal_Only>
0

> <s_lp_Force_Field>
OPLS_2005

> <r_lp_Energy>
10.8103

> <b_lp_Chiralities_Consistent>
1

> <s_lp_Variant>
AV-unprocessed.smi:2419-1

> <Gold.Version>
5.8.1

> <Gold.Id.Protein>
6NUR|6NUR_protein|mol2

> <Gold.PLP.Fitness>
41.5775

> <Gold.PLP.PLP>
-32.6595

> <Gold.PLP.part.hbond>
-3.0000

> <Gold.PLP.part.metal>
0.0000

> <Gold.PLP.part.buried>
-4.1279

> <Gold.PLP.part.nonpolar>
-25.5353

> <Gold.PLP.part.repulsive>
0.2429

> <Gold.PLP.ligand.clash>
0.0000

> <Gold.PLP.ligand.torsion>
0.0666

> <Gold.PLP.Chemscore.Hbond>
2.9920

> <Gold.PLP.Chemscore.CHOScore>
0.0000

> <Gold.PLP.Chemscore.Metal>
0.0000

> <Gold.Chemscore.Hbonds>
donor molecule, donor type, donor heavy atom, donor atom, acceptor molecule, acceptor atom, score
      L1  H     3    16       P1  8028  1.00
      L1  H     6    19       P1  7957  1.00
      L1  H    10    26       P1  8028  0.99

> <Gold.PLP.Chemscore.Internal.Correction>
0.0753

> <Gold.Rescore>
     Score         DG    S(hbond)    S(metal)    S(lipo)     H(rot)  DE(clash)    DE(int)     intcor
     16.64     -18.06       2.93        0.00      65.66       1.91       0.07       1.36       ----

> <Gold.Chemscore.Fitness>
16.6363

> <Gold.Chemscore.DG>
-18.0604

> <Gold.Chemscore.ZeroCoef>
-5.4800

> <Gold.Chemscore.Hbond>
2.9286

> <Gold.Chemscore.Metal>
0.0000

> <Gold.Chemscore.Lipo>
65.6647

> <Gold.Chemscore.Internal_Hbond>
0.0000

> <Gold.Chemscore.DEClash>
0.0690

> <Gold.Chemscore.DEInternal>
1.3551

> <Gold.Chemscore.Rot>
1.9077

> <Gold.Chemscore.Internal.Correction>
   9.000000E+99

> <Gold.Chemscore.Hbonds>
donor molecule, donor type, donor heavy atom, donor atom, acceptor molecule, acceptor atom, score
      L1  H     3    16       P1  8028  0.95
      L1  H     6    19       P1  7957  0.97
      L1  H    10    26       P1  8028  0.94

> <Gold.Chemscore.Hbond.Weighted>
-9.7814

> <Gold.Chemscore.Metal.Weighted>
-0.0000

> <Gold.Chemscore.Lipo.Weighted>
-7.6828

> <Gold.Chemscore.Internal_Hbond.Weighted>
0.0000

> <Gold.Chemscore.DEClash.Weighted>
0.0690

> <Gold.Chemscore.DEInternal.Weighted>
1.3551

> <Gold.Chemscore.Rot.Weighted>
4.8837

> <Gold.Chemscore.Internal.Correction.Weighted>
   9.000000E+99

> <Gold.Protein.RotatedTorsions>
[ 6907 6896 6895 6894 ] final  -71.43 input  -60.11 | X-H torsion
[ 7974 7965 7964 7962 ] final   65.45 input  175.53 | X-H torsion
[ 8008 7997 7996 7995 ] final   28.68 input   59.86 | X-H torsion
[ 10167 10162 10161 10158 ] final  111.26 input  -65.29 | X-H torsion
[ 10718 10713 10712 10709 ] final   24.43 input   66.30 | X-H torsion
[ 10763 10752 10751 10750 ] final   -4.32 input  -60.55 | X-H torsion
[ 11005 11000 10999 10996 ] final -136.48 input  -57.11 | X-H torsion

> <Gold.Protein.ActiveResidues>
 VAL166  LYS551  ARG553  GLY616  TRP617  ASP618  TYR619  PRO620  LYS621  CYS622 
 ASP623  PHE694  ASN695  SER759  ASP760  ASP761  ALA762  ILE779  LEU786  VAL792 
 PHE793  MET794  SER795  GLU796  ALA797  LYS798  CYS799  TRP800  GLU811  SER814 

> <Gold.Protein.RotatedAtoms>
  150.7213  134.5310  159.5699 H   0  0  0  0  0  0  0  0  0  0  0  0  # atno 6907 bound_to 6896
  152.2843  134.7791  160.0399 H   0  0  0  0  0  0  0  0  0  0  0  0  # atno 6908 bound_to 6896
  151.8426  133.3391  159.3684 H   0  0  0  0  0  0  0  0  0  0  0  0  # atno 6909 bound_to 6896
  145.8383  139.3180  143.0946 H   0  0  0  0  0  0  0  0  0  0  0  0  # atno 7974 bound_to 7965
  155.0625  140.3191  155.4656 H   0  0  0  0  0  0  0  0  0  0  0  0  # atno 8008 bound_to 7997
  156.2810  140.2126  156.5696 H   0  0  0  0  0  0  0  0  0  0  0  0  # atno 8009 bound_to 7997
  154.7121  140.0497  157.0547 H   0  0  0  0  0  0  0  0  0  0  0  0  # atno 8010 bound_to 7997
  139.6625  144.7128  151.1838 H   0  0  0  0  0  0  0  0  0  0  0  0  # atno 10167 bound_to 10162
  157.1797  130.6797  149.6108 H   0  0  0  0  0  0  0  0  0  0  0  0  # atno 10718 bound_to 10713
  153.3833  135.6999  153.6549 H   0  0  0  0  0  0  0  0  0  0  0  0  # atno 10763 bound_to 10752
  153.5152  135.3623  155.2606 H   0  0  0  0  0  0  0  0  0  0  0  0  # atno 10764 bound_to 10752
  154.8695  135.4144  154.3135 H   0  0  0  0  0  0  0  0  0  0  0  0  # atno 10765 bound_to 10752
  140.8801  134.1943  157.4597 H   0  0  0  0  0  0  0  0  0  0  0  0  # atno 11005 bound_to 11000
  145.9494  140.8920  143.0267 LP  0  0  0  0  0  0  0  0  0  0  0  0  # atno 17320 bound_to 7965
  144.6735  140.1658  143.7418 LP  0  0  0  0  0  0  0  0  0  0  0  0  # atno 17321 bound_to 7965
  140.7586  143.5971  150.8737 LP  0  0  0  0  0  0  0  0  0  0  0  0  # atno 17342 bound_to 10162
  139.9630  143.6142  152.2996 LP  0  0  0  0  0  0  0  0  0  0  0  0  # atno 17343 bound_to 10162
  155.9726  130.4651  150.6241 LP  0  0  0  0  0  0  0  0  0  0  0  0  # atno 17370 bound_to 10713
  157.3964  131.0803  151.1348 LP  0  0  0  0  0  0  0  0  0  0  0  0  # atno 17371 bound_to 10713
  139.8719  134.9813  156.5111 LP  0  0  0  0  0  0  0  0  0  0  0  0  # atno 17394 bound_to 11000
  140.8472  133.8160  155.9132 LP  0  0  0  0  0  0  0  0  0  0  0  0  # atno 17395 bound_to 11000

$$$$
