AV-unprocessed.smi:3333|AV-procd|sdf|12833|dock7
  -GOLD-   2272019213D 1   1.00000     0.00000
 Structure written by MMmdl.
 41 43  0  0  0  0  0  0  0  0  1 V2000
  147.7559  133.4851  160.9391 C   0  0  0  0  0  0  0  0  0  0  0  0
  147.8432  135.0147  160.9137 C   0  0  0  0  0  0  0  0  0  0  0  0
  148.2377  135.5439  159.5755 C   0  0  0  0  0  0  0  0  0  0  0  0
  149.2189  136.4314  159.3935 N   0  0  0  0  0  0  0  0  0  0  0  0
  149.3688  136.8035  158.0525 C   0  0  0  0  0  0  0  0  0  0  0  0
  150.4207  137.8005  157.6605 C   0  0  0  0  0  0  0  0  0  0  0  0
  149.8381  139.2130  157.7096 C   0  0  0  0  0  0  0  0  0  0  0  0
  148.6239  139.3847  157.6018 O   0  0  0  0  0  0  0  0  0  0  0  0
  150.7151  140.2120  157.8922 N   0  0  0  0  0  0  0  0  0  0  0  0
  150.3665  141.6156  158.0742 C   0  0  0  0  0  0  0  0  0  0  0  0
  151.6236  142.5047  158.1817 C   0  0  2  0  0  0  0  0  0  0  0  0
  152.6242  142.0681  159.2723 C   0  0  0  0  0  0  0  0  0  0  0  0
  152.8868  143.3787  160.0391 C   0  0  2  0  0  0  0  0  0  0  0  0
  151.6538  143.7150  160.8977 C   0  0  0  0  0  0  0  0  0  0  0  0
  150.6241  144.1689  159.8470 C   0  0  0  0  0  0  0  0  0  0  0  0
  151.3914  143.9980  158.5194 C   0  0  1  0  0  0  0  0  0  0  0  0
  152.7955  144.4257  158.9337 C   0  0  0  0  0  0  0  0  0  0  0  0
  148.4775  136.1775  157.2164 C   0  0  0  0  0  0  0  0  0  0  0  0
  147.4082  135.1119  158.0851 S   0  0  0  0  0  0  0  0  0  0  0  0
  147.4727  133.1283  161.9293 H   0  0  0  0  0  0  0  0  0  0  0  0
  148.7133  133.0311  160.6813 H   0  0  0  0  0  0  0  0  0  0  0  0
  147.0118  133.1235  160.2304 H   0  0  0  0  0  0  0  0  0  0  0  0
  146.8822  135.4468  161.1958 H   0  0  0  0  0  0  0  0  0  0  0  0
  148.5687  135.3581  161.6516 H   0  0  0  0  0  0  0  0  0  0  0  0
  151.2855  137.7372  158.3223 H   0  0  0  0  0  0  0  0  0  0  0  0
  150.7873  137.5978  156.6536 H   0  0  0  0  0  0  0  0  0  0  0  0
  151.6931  139.9724  157.9706 H   0  0  0  0  0  0  0  0  0  0  0  0
  149.7445  141.9235  157.2343 H   0  0  0  0  0  0  0  0  0  0  0  0
  149.7460  141.7343  158.9638 H   0  0  0  0  0  0  0  0  0  0  0  0
  152.1391  142.4629  157.2205 H   0  0  0  0  0  0  0  0  0  0  0  0
  152.2306  141.2871  159.9243 H   0  0  0  0  0  0  0  0  0  0  0  0
  153.5415  141.6891  158.8197 H   0  0  0  0  0  0  0  0  0  0  0  0
  153.8223  143.3780  160.5993 H   0  0  0  0  0  0  0  0  0  0  0  0
  151.3070  142.8588  161.4776 H   0  0  0  0  0  0  0  0  0  0  0  0
  151.8727  144.5251  161.5947 H   0  0  0  0  0  0  0  0  0  0  0  0
  149.6970  143.5988  159.8880 H   0  0  0  0  0  0  0  0  0  0  0  0
  150.3649  145.2163  160.0059 H   0  0  0  0  0  0  0  0  0  0  0  0
  150.9697  144.5706  157.6925 H   0  0  0  0  0  0  0  0  0  0  0  0
  152.8459  145.4517  159.3030 H   0  0  0  0  0  0  0  0  0  0  0  0
  153.5412  144.2918  158.1481 H   0  0  0  0  0  0  0  0  0  0  0  0
  148.3795  136.2872  156.1465 H   0  0  0  0  0  0  0  0  0  0  0  0
  1  2  1  0  0  0  0
  1 20  1  0  0  0  0
  1 21  1  0  0  0  0
  1 22  1  0  0  0  0
  2  3  1  0  0  0  0
  2 23  1  0  0  0  0
  2 24  1  0  0  0  0
  3 19  1  0  0  0  0
  3  4  2  0  0  0  0
  4  5  1  0  0  0  0
  5  6  1  0  0  0  0
  5 18  2  0  0  0  0
  6  7  1  0  0  0  0
  6 25  1  0  0  0  0
  6 26  1  0  0  0  0
  7  8  2  0  0  0  0
  7  9  1  0  0  0  0
  9 10  1  0  0  0  0
  9 27  1  0  0  0  0
 10 11  1  0  0  0  0
 10 28  1  0  0  0  0
 10 29  1  0  0  0  0
 11 16  1  0  0  0  0
 11 12  1  0  0  0  0
 11 30  1  0  0  0  0
 12 13  1  0  0  0  0
 12 31  1  0  0  0  0
 12 32  1  0  0  0  0
 13 17  1  0  0  0  0
 13 14  1  0  0  0  0
 13 33  1  0  0  0  0
 14 15  1  0  0  0  0
 14 34  1  0  0  0  0
 14 35  1  0  0  0  0
 15 16  1  0  0  0  0
 15 36  1  0  0  0  0
 15 37  1  0  0  0  0
 16 17  1  0  0  0  0
 16 38  1  0  0  0  0
 17 39  1  0  0  0  0
 17 40  1  0  0  0  0
 18 19  1  0  0  0  0
 18 41  1  0  0  0  0
M  END
> <s_m_source_file>
AV-unprocessed.smi

> <i_m_source_file_index>
3333

> <i_lp_mmshare_version>
43012

> <i_f3d_flags>
0

> <s_epik_input>
W0NIM11bQ0gyXWMxbmMoW2NIXXMxKVtDSDJdQyg9TylbTkhdW0NIMl1bQ0BIXShbQ0gyXVtDQEBIXTIzKVtDQEBIXShbQ0gyXTMpW0NIMl1bQ0gyXTI=

> <s_epik_cmdline>
J2VwaWtfcHl0aG9uJywgJy1waCcsICc3LjAnLCAnLXRuJywgJzgnLCAnLW1hJywgJzIwMCcsICctbWV0YWxfYmluZGluZycsICctaW1hZScsICc8aW5maWxlLm1hZT4nLCAnLW9tYWUnLCAnPG91dGZpbGUubWFlPic=

> <r_lp_tautomer_probability>
1

> <r_epik_Ionization_Penalty>
6.68371e-05

> <r_epik_Ionization_Penalty_Charging>
0

> <r_epik_Ionization_Penalty_Neutral>
6.68371e-05

> <r_epik_State_Penalty>
-0

> <r_epik_Charging_Adjusted_Penalty>
0

> <i_epik_Tot_Q>
0

> <i_epik_Tot_abs_Q>
0

> <r_epik_Metal_State_Penalty>
-0

> <b_epik_Metal_Only>
0

> <s_lp_Force_Field>
OPLS_2005

> <r_lp_Energy>
42.1731

> <b_lp_Chiralities_Consistent>
1

> <s_lp_Variant>
AV-unprocessed.smi:3333-3

> <Gold.Version>
5.8.1

> <Gold.Id.Protein>
6NUR|6NUR_protein|mol2

> <Gold.PLP.Fitness>
45.8089

> <Gold.PLP.PLP>
-45.1241

> <Gold.PLP.part.hbond>
-1.5925

> <Gold.PLP.part.metal>
0.0000

> <Gold.PLP.part.buried>
-6.6329

> <Gold.PLP.part.nonpolar>
-38.0417

> <Gold.PLP.part.repulsive>
0.1459

> <Gold.PLP.ligand.clash>
0.0000

> <Gold.PLP.ligand.torsion>
0.8081

> <Gold.PLP.Chemscore.Hbond>
0.7520

> <Gold.PLP.Chemscore.CHOScore>
0.0000

> <Gold.PLP.Chemscore.Metal>
0.0000

> <Gold.PLP.Chemscore.Internal.Correction>
0.0450

> <Gold.Rescore>
     Score         DG    S(hbond)    S(metal)    S(lipo)     H(rot)  DE(clash)    DE(int)     intcor
     18.91     -19.83       0.91        0.00     127.91       1.42       0.02       0.90       ----

> <Gold.Chemscore.Fitness>
18.9104

> <Gold.Chemscore.DG>
-19.8289

> <Gold.Chemscore.ZeroCoef>
-5.4800

> <Gold.Chemscore.Hbond>
0.9057

> <Gold.Chemscore.Metal>
0.0000

> <Gold.Chemscore.Lipo>
127.9141

> <Gold.Chemscore.Internal_Hbond>
0.0000

> <Gold.Chemscore.DEClash>
0.0202

> <Gold.Chemscore.DEInternal>
0.8982

> <Gold.Chemscore.Rot>
1.4227

> <Gold.Chemscore.Internal.Correction>
   9.000000E+99

> <Gold.Chemscore.Hbond.Weighted>
-3.0250

> <Gold.Chemscore.Metal.Weighted>
-0.0000

> <Gold.Chemscore.Lipo.Weighted>
-14.9659

> <Gold.Chemscore.Internal_Hbond.Weighted>
0.0000

> <Gold.Chemscore.DEClash.Weighted>
0.0202

> <Gold.Chemscore.DEInternal.Weighted>
0.8982

> <Gold.Chemscore.Rot.Weighted>
3.6421

> <Gold.Chemscore.Internal.Correction.Weighted>
   9.000000E+99

> <Gold.Protein.RotatedTorsions>
[ 6907 6896 6895 6894 ] final  154.32 input  -60.11 | X-H torsion
[ 7974 7965 7964 7962 ] final  -51.48 input  175.53 | X-H torsion
[ 8008 7997 7996 7995 ] final   71.20 input   59.86 | X-H torsion
[ 10167 10162 10161 10158 ] final  117.41 input  -65.29 | X-H torsion
[ 10718 10713 10712 10709 ] final  -53.27 input   66.30 | X-H torsion
[ 10763 10752 10751 10750 ] final    2.55 input  -60.55 | X-H torsion
[ 11005 11000 10999 10996 ] final   88.73 input  -57.11 | X-H torsion

> <Gold.Protein.ActiveResidues>
 VAL166  LYS551  ARG553  GLY616  TRP617  ASP618  TYR619  PRO620  LYS621  CYS622 
 ASP623  PHE694  ASN695  SER759  ASP760  ASP761  ALA762  ILE779  LEU786  VAL792 
 PHE793  MET794  SER795  GLU796  ALA797  LYS798  CYS799  TRP800  GLU811  SER814 

> <Gold.Protein.RotatedAtoms>
  152.0602  133.4058  159.4414 H   0  0  0  0  0  0  0  0  0  0  0  0  # atno 6907 bound_to 6896
  150.6866  134.3209  159.4795 H   0  0  0  0  0  0  0  0  0  0  0  0  # atno 6908 bound_to 6896
  152.1029  134.9328  160.0619 H   0  0  0  0  0  0  0  0  0  0  0  0  # atno 6909 bound_to 6896
  145.9185  140.7854  142.9659 H   0  0  0  0  0  0  0  0  0  0  0  0  # atno 7974 bound_to 7965
  155.7503  140.3488  155.5147 H   0  0  0  0  0  0  0  0  0  0  0  0  # atno 8008 bound_to 7997
  155.9011  140.1034  157.1370 H   0  0  0  0  0  0  0  0  0  0  0  0  # atno 8009 bound_to 7997
  154.4044  140.1286  156.4424 H   0  0  0  0  0  0  0  0  0  0  0  0  # atno 8010 bound_to 7997
  139.6180  144.7096  151.2696 H   0  0  0  0  0  0  0  0  0  0  0  0  # atno 10167 bound_to 10162
  156.1550  130.4150  149.9884 H   0  0  0  0  0  0  0  0  0  0  0  0  # atno 10718 bound_to 10713
  153.2942  135.6951  153.7264 H   0  0  0  0  0  0  0  0  0  0  0  0  # atno 10763 bound_to 10752
  153.6203  135.3428  155.3009 H   0  0  0  0  0  0  0  0  0  0  0  0  # atno 10764 bound_to 10752
  154.8532  135.4384  154.2034 H   0  0  0  0  0  0  0  0  0  0  0  0  # atno 10765 bound_to 10752
  139.8890  134.8506  156.3042 H   0  0  0  0  0  0  0  0  0  0  0  0  # atno 11005 bound_to 11000
  144.6750  140.1937  143.7394 LP  0  0  0  0  0  0  0  0  0  0  0  0  # atno 17320 bound_to 7965
  145.8581  139.2209  143.1733 LP  0  0  0  0  0  0  0  0  0  0  0  0  # atno 17321 bound_to 7965
  140.7364  143.6710  150.8082 LP  0  0  0  0  0  0  0  0  0  0  0  0  # atno 17342 bound_to 10162
  140.0316  143.5438  152.2757 LP  0  0  0  0  0  0  0  0  0  0  0  0  # atno 17343 bound_to 10162
  156.7730  130.9193  151.3644 LP  0  0  0  0  0  0  0  0  0  0  0  0  # atno 17370 bound_to 10713
  157.6687  130.9031  149.9991 LP  0  0  0  0  0  0  0  0  0  0  0  0  # atno 17371 bound_to 10713
  140.9893  133.7218  156.0790 LP  0  0  0  0  0  0  0  0  0  0  0  0  # atno 17394 bound_to 11000
  140.7646  134.3901  157.5519 LP  0  0  0  0  0  0  0  0  0  0  0  0  # atno 17395 bound_to 11000

$$$$
