AV-unprocessed.smi:100|AV-procd|sdf|909|dock1
  -GOLD-   2262017403D 1   1.00000     0.00000
 Structure written by MMmdl.
 31 33  0  0  0  0  0  0  0  0  1 V2000
  149.6599  138.2366  153.2925 N   0  0  0  0  0  0  0  0  0  0  0  0
  149.9392  138.3857  154.5947 C   0  0  0  0  0  0  0  0  0  0  0  0
  150.0394  137.2753  155.3618 N   0  0  0  0  0  0  0  0  0  0  0  0
  150.3168  137.3986  156.6636 C   0  0  0  0  0  0  0  0  0  0  0  0
  150.5249  138.5120  157.3709 N   0  0  0  0  0  0  0  0  0  0  0  0
  150.4240  139.6325  156.5975 C   0  0  0  0  0  0  0  0  0  0  0  0
  150.1329  139.6509  155.2046 C   0  0  0  0  0  0  0  0  0  0  0  0
  150.1027  140.9594  154.7435 N   0  0  0  0  0  0  0  0  0  0  0  0
  150.3620  141.6715  155.8067 C   0  0  0  0  0  0  0  0  0  0  0  0
  150.5694  140.9566  156.9668 N   0  0  0  0  0  0  0  0  0  0  0  0
  150.8814  141.5151  158.3246 C   0  0  2  0  0  0  0  0  0  0  0  0
  151.0797  142.8966  158.2366 O   0  0  0  0  0  0  0  0  0  0  0  0
  152.4104  143.2240  158.6286 C   0  0  1  0  0  0  0  0  0  0  0  0
  152.4787  144.6500  159.1961 C   0  0  0  0  0  0  0  0  0  0  0  0
  151.5858  144.7903  160.2808 O   0  0  0  0  0  0  0  0  0  0  0  0
  152.7984  142.1038  159.5967 C   0  0  1  0  0  0  0  0  0  0  0  0
  152.2671  142.3108  160.8039 F   0  0  0  0  0  0  0  0  0  0  0  0
  152.1409  140.8921  158.9625 C   0  0  2  0  0  0  0  0  0  0  0  0
  153.0159  140.2612  158.0437 O   0  0  0  0  0  0  0  0  0  0  0  0
  149.5789  139.0500  152.6996 H   0  0  0  0  0  0  0  0  0  0  0  0
  149.5319  137.3122  152.9071 H   0  0  0  0  0  0  0  0  0  0  0  0
  150.3809  136.4744  157.2183 H   0  0  0  0  0  0  0  0  0  0  0  0
  150.4084  142.7504  155.7740 H   0  0  0  0  0  0  0  0  0  0  0  0
  149.9793  141.3331  158.9104 H   0  0  0  0  0  0  0  0  0  0  0  0
  153.0471  143.1595  157.7459 H   0  0  0  0  0  0  0  0  0  0  0  0
  153.4873  144.8594  159.5535 H   0  0  0  0  0  0  0  0  0  0  0  0
  152.2494  145.3935  158.4323 H   0  0  0  0  0  0  0  0  0  0  0  0
  151.7399  144.0848  160.8902 H   0  0  0  0  0  0  0  0  0  0  0  0
  153.8761  142.0011  159.7305 H   0  0  0  0  0  0  0  0  0  0  0  0
  151.8457  140.1521  159.7073 H   0  0  0  0  0  0  0  0  0  0  0  0
  152.6097  139.4621  157.7440 H   0  0  0  0  0  0  0  0  0  0  0  0
  1  2  1  0  0  0  0
  1 20  1  0  0  0  0
  1 21  1  0  0  0  0
  2  7  1  0  0  0  0
  2  3  2  0  0  0  0
  3  4  1  0  0  0  0
  4  5  2  0  0  0  0
  4 22  1  0  0  0  0
  5  6  1  0  0  0  0
  6 10  1  0  0  0  0
  6  7  2  0  0  0  0
  7  8  1  0  0  0  0
  8  9  2  0  0  0  0
  9 10  1  0  0  0  0
  9 23  1  0  0  0  0
 10 11  1  0  0  0  0
 11 18  1  0  0  0  0
 11 12  1  0  0  0  0
 11 24  1  0  0  0  0
 12 13  1  0  0  0  0
 13 14  1  0  0  0  0
 13 16  1  0  0  0  0
 13 25  1  0  0  0  0
 14 15  1  0  0  0  0
 14 26  1  0  0  0  0
 14 27  1  0  0  0  0
 15 28  1  0  0  0  0
 16 17  1  0  0  0  0
 16 18  1  0  0  0  0
 16 29  1  0  0  0  0
 18 19  1  0  0  0  0
 18 30  1  0  0  0  0
 19 31  1  0  0  0  0
M  END
> <s_m_source_file>
AV-unprocessed.smi

> <i_m_source_file_index>
100

> <i_lp_mmshare_version>
43012

> <i_f3d_flags>
0

> <s_epik_input>
bjFbY0hdbmMoW05IMl0pYyhjMTIpbltjSF1uMltDQEBIXTNPW0NAQEhdKFtDSDJdW09IXSlbQ0BIXShGKVtDQEhdM1tPSF0=

> <s_epik_cmdline>
J2VwaWtfcHl0aG9uJywgJy1waCcsICc3LjAnLCAnLXRuJywgJzgnLCAnLW1hJywgJzIwMCcsICctbWV0YWxfYmluZGluZycsICctaW1hZScsICc8aW5maWxlLm1hZT4nLCAnLW9tYWUnLCAnPG91dGZpbGUubWFlPic=

> <r_lp_tautomer_probability>
1

> <r_epik_Ionization_Penalty>
0.000750324

> <r_epik_Ionization_Penalty_Charging>
0

> <r_epik_Ionization_Penalty_Neutral>
0.000750324

> <r_epik_State_Penalty>
-0

> <r_epik_Charging_Adjusted_Penalty>
0

> <i_epik_Tot_Q>
0

> <i_epik_Tot_abs_Q>
0

> <r_epik_Metal_State_Penalty>
-0

> <b_epik_Metal_Only>
0

> <s_epik_Chemistry_Notes>
This compound contains an acetal/aminal-like group ( X-CH(R)-Y where X, Y are N, S, or O) that may be acid/base labile, releasing an aldehyde.

> <s_lp_Force_Field>
OPLS_2005

> <r_lp_Energy>
35.7638

> <b_lp_Chiralities_Consistent>
1

> <s_lp_Variant>
AV-unprocessed.smi:100-13

> <Gold.Version>
5.8.1

> <Gold.Id.Protein>
6NUR|6NUR_protein|mol2

> <Gold.PLP.Fitness>
45.0625

> <Gold.PLP.PLP>
-31.6221

> <Gold.PLP.part.hbond>
-4.1192

> <Gold.PLP.part.metal>
0.0000

> <Gold.PLP.part.buried>
-4.0902

> <Gold.PLP.part.nonpolar>
-24.5579

> <Gold.PLP.part.repulsive>
0.3825

> <Gold.PLP.ligand.clash>
0.0000

> <Gold.PLP.ligand.torsion>
0.0902

> <Gold.PLP.Chemscore.Hbond>
3.5392

> <Gold.PLP.Chemscore.CHOScore>
1.0000

> <Gold.PLP.Chemscore.Metal>
0.0000

> <Gold.Chemscore.Hbonds>
donor molecule, donor type, donor heavy atom, donor atom, acceptor molecule, acceptor atom, score
      L1  H     1    20       P1  7957  1.00
      L1  H     1    21       P1  7948  1.00
      P1  H  7989  7998       L1     8  0.69
      P1  H  7997  8009       L1    19  0.70
      L1  C     9    23       P1  8028  1.00

> <Gold.PLP.Chemscore.Internal.Correction>
0.0032

> <Gold.Rescore>
     Score         DG    S(hbond)    S(metal)    S(lipo)     H(rot)  DE(clash)    DE(int)     intcor
     11.44     -13.08       3.00        0.00      49.24       3.19       0.16       1.49       ----

> <Gold.Chemscore.Fitness>
11.4416

> <Gold.Chemscore.DG>
-13.0843

> <Gold.Chemscore.ZeroCoef>
-5.4800

> <Gold.Chemscore.Hbond>
2.9971

> <Gold.Chemscore.Metal>
0.0000

> <Gold.Chemscore.Lipo>
49.2370

> <Gold.Chemscore.Internal_Hbond>
0.0000

> <Gold.Chemscore.DEClash>
0.1551

> <Gold.Chemscore.DEInternal>
1.4876

> <Gold.Chemscore.Rot>
3.1901

> <Gold.Chemscore.Internal.Correction>
   9.000000E+99

> <Gold.Chemscore.Hbonds>
donor molecule, donor type, donor heavy atom, donor atom, acceptor molecule, acceptor atom, score
      L1  H     1    20       P1  7957  0.95
      L1  H     1    21       P1  7948  0.71
      P1  H  7989  7998       L1     8  0.14
      P1  H  7997  8009       L1    19  0.10

> <Gold.Chemscore.Hbond.Weighted>
-10.0102

> <Gold.Chemscore.Metal.Weighted>
-0.0000

> <Gold.Chemscore.Lipo.Weighted>
-5.7607

> <Gold.Chemscore.Internal_Hbond.Weighted>
0.0000

> <Gold.Chemscore.DEClash.Weighted>
0.1551

> <Gold.Chemscore.DEInternal.Weighted>
1.4876

> <Gold.Chemscore.Rot.Weighted>
8.1667

> <Gold.Chemscore.Internal.Correction.Weighted>
   9.000000E+99

> <Gold.Protein.RotatedTorsions>
[ 6907 6896 6895 6894 ] final   77.18 input  -60.11 | X-H torsion
[ 7974 7965 7964 7962 ] final  -50.16 input  175.53 | X-H torsion
[ 8008 7997 7996 7995 ] final  151.18 input   59.86 | X-H torsion
[ 10167 10162 10161 10158 ] final -123.33 input  -65.29 | X-H torsion
[ 10718 10713 10712 10709 ] final -131.31 input   66.30 | X-H torsion
[ 10763 10752 10751 10750 ] final  -53.00 input  -60.55 | X-H torsion
[ 11005 11000 10999 10996 ] final -125.30 input  -57.11 | X-H torsion

> <Gold.Protein.ActiveResidues>
 VAL166  LYS551  ARG553  GLY616  TRP617  ASP618  TYR619  PRO620  LYS621  CYS622 
 ASP623  PHE694  ASN695  SER759  ASP760  ASP761  ALA762  ILE779  LEU786  VAL792 
 PHE793  MET794  SER795  GLU796  ALA797  LYS798  CYS799  TRP800  GLU811  SER814 

> <Gold.Protein.RotatedAtoms>
  152.5106  134.3856  159.9365 H   0  0  0  0  0  0  0  0  0  0  0  0  # atno 6907 bound_to 6896
  151.3814  133.3814  159.2718 H   0  0  0  0  0  0  0  0  0  0  0  0  # atno 6908 bound_to 6896
  150.9502  134.8923  159.7726 H   0  0  0  0  0  0  0  0  0  0  0  0  # atno 6909 bound_to 6896
  145.9328  140.7733  142.9591 H   0  0  0  0  0  0  0  0  0  0  0  0  # atno 7974 bound_to 7965
  156.2684  140.2054  156.6135 H   0  0  0  0  0  0  0  0  0  0  0  0  # atno 8008 bound_to 7997
  154.6812  140.0540  157.0292 H   0  0  0  0  0  0  0  0  0  0  0  0  # atno 8009 bound_to 7997
  155.0997  140.3205  155.4553 H   0  0  0  0  0  0  0  0  0  0  0  0  # atno 8010 bound_to 7997
  140.0047  143.5504  152.2289 H   0  0  0  0  0  0  0  0  0  0  0  0  # atno 10167 bound_to 10162
  156.2232  130.6991  151.0778 H   0  0  0  0  0  0  0  0  0  0  0  0  # atno 10718 bound_to 10713
  154.1517  135.6489  153.4965 H   0  0  0  0  0  0  0  0  0  0  0  0  # atno 10763 bound_to 10752
  153.0136  135.5340  154.6801 H   0  0  0  0  0  0  0  0  0  0  0  0  # atno 10764 bound_to 10752
  154.6090  135.2952  155.0424 H   0  0  0  0  0  0  0  0  0  0  0  0  # atno 10765 bound_to 10752
  140.9773  134.0723  157.3805 H   0  0  0  0  0  0  0  0  0  0  0  0  # atno 11005 bound_to 11000
  144.6767  140.2155  143.7372 LP  0  0  0  0  0  0  0  0  0  0  0  0  # atno 17320 bound_to 7965
  145.8403  139.2127  143.1831 LP  0  0  0  0  0  0  0  0  0  0  0  0  # atno 17321 bound_to 7965
  139.6247  144.7635  151.2664 LP  0  0  0  0  0  0  0  0  0  0  0  0  # atno 17342 bound_to 10162
  140.7405  143.6586  150.8185 LP  0  0  0  0  0  0  0  0  0  0  0  0  # atno 17343 bound_to 10162
  157.7097  131.0740  150.6542 LP  0  0  0  0  0  0  0  0  0  0  0  0  # atno 17370 bound_to 10713
  156.6606  130.4511  149.5689 LP  0  0  0  0  0  0  0  0  0  0  0  0  # atno 17371 bound_to 10713
  139.8935  135.0131  156.6905 LP  0  0  0  0  0  0  0  0  0  0  0  0  # atno 17394 bound_to 11000
  140.7240  133.9116  155.8166 LP  0  0  0  0  0  0  0  0  0  0  0  0  # atno 17395 bound_to 11000

$$$$
