AV-unprocessed.smi:113|AV-procd|sdf|1106|dock7
  -GOLD-   2262018223D 1   1.00000     0.00000
 Structure written by MMmdl.
 53 56  0  0  0  0  0  0  0  0  2 V2000
  149.9961  141.7017  155.3505 C   0  0  0  0  0  0  0  0  0  0  0  0
  150.6710  141.9138  156.6890 C   0  0  0  0  0  0  0  0  0  0  0  0
  151.3700  140.8844  157.3484 C   0  0  0  0  0  0  0  0  0  0  0  0
  151.9853  141.1361  158.5998 C   0  0  0  0  0  0  0  0  0  0  0  0
  152.7483  140.0344  159.3432 C   0  0  0  0  0  0  0  0  0  0  0  0
  152.8645  138.7465  158.6738 N   0  0  0  0  0  0  0  0  0  0  0  0
  154.1610  138.2922  158.3309 C   0  0  0  0  0  0  0  0  0  0  0  0
  155.1650  138.9637  158.5782 O   0  0  0  0  0  0  0  0  0  0  0  0
  154.2059  136.9958  157.6504 C   0  0  0  0  0  0  0  0  0  0  0  0
  155.5659  136.4383  157.2607 C   0  0  0  0  0  0  0  0  0  0  0  0
  153.0539  136.3349  157.3833 C   0  0  0  0  0  0  0  0  0  0  0  0
  151.7949  136.8121  157.7144 N   0  0  0  0  0  0  0  0  0  0  0  0
  150.5275  136.0506  157.3747 C   0  0  1  0  0  0  0  0  0  0  0  0
  149.5961  136.9137  156.5230 C   0  0  0  0  0  0  0  0  0  0  0  0
  150.0552  136.5628  155.1234 C   0  0  2  0  0  0  0  0  0  0  0  0
  149.0533  136.8394  154.1652 O   0  0  0  0  0  0  0  0  0  0  0  0
  150.4411  135.0778  155.2540 C   0  0  2  0  0  0  0  0  0  0  0  0
  149.3077  134.0644  154.9960 C   0  0  0  0  0  0  0  0  0  0  0  0
  148.8543  134.1495  153.6613 O   0  0  0  0  0  0  0  0  0  0  0  0
  150.8404  134.9167  156.6183 O   0  0  0  0  0  0  0  0  0  0  0  0
  151.6715  138.0546  158.3692 C   0  0  0  0  0  0  0  0  0  0  0  0
  150.5623  138.5203  158.6418 O   0  0  0  0  0  0  0  0  0  0  0  0
  151.8787  142.4418  159.1528 C   0  0  0  0  0  0  0  0  0  0  0  0
  152.4653  142.7850  160.3946 C   0  0  0  0  0  0  0  0  0  0  0  0
  152.3402  144.0907  160.9084 C   0  0  0  0  0  0  0  0  0  0  0  0
  151.6279  145.0704  160.1920 C   0  0  0  0  0  0  0  0  0  0  0  0
  151.0369  144.7460  158.9569 C   0  0  0  0  0  0  0  0  0  0  0  0
  151.1619  143.4410  158.4403 C   0  0  0  0  0  0  0  0  0  0  0  0
  150.5951  143.1363  157.2535 N   0  3  0  0  0  0  0  0  0  0  0  0
  149.8936  140.6390  155.1285 H   0  0  0  0  0  0  0  0  0  0  0  0
  150.5825  142.1619  154.5549 H   0  0  0  0  0  0  0  0  0  0  0  0
  149.0000  142.1454  155.3468 H   0  0  0  0  0  0  0  0  0  0  0  0
  151.4255  139.9114  156.8834 H   0  0  0  0  0  0  0  0  0  0  0  0
  153.7584  140.3715  159.5814 H   0  0  0  0  0  0  0  0  0  0  0  0
  152.2903  139.8508  160.3164 H   0  0  0  0  0  0  0  0  0  0  0  0
  155.4828  135.4658  156.7745 H   0  0  0  0  0  0  0  0  0  0  0  0
  156.1953  136.3158  158.1429 H   0  0  0  0  0  0  0  0  0  0  0  0
  156.0710  137.1138  156.5696 H   0  0  0  0  0  0  0  0  0  0  0  0
  153.1370  135.3863  156.8755 H   0  0  0  0  0  0  0  0  0  0  0  0
  150.0989  135.7427  158.3298 H   0  0  0  0  0  0  0  0  0  0  0  0
  148.5705  136.5832  156.6943 H   0  0  0  0  0  0  0  0  0  0  0  0
  149.6699  137.9748  156.7641 H   0  0  0  0  0  0  0  0  0  0  0  0
  150.9432  137.1467  154.8784 H   0  0  0  0  0  0  0  0  0  0  0  0
  149.3065  136.4460  153.3438 H   0  0  0  0  0  0  0  0  0  0  0  0
  151.2914  134.8428  154.6124 H   0  0  0  0  0  0  0  0  0  0  0  0
  149.6763  133.0497  155.1483 H   0  0  0  0  0  0  0  0  0  0  0  0
  148.4761  134.2078  155.6866 H   0  0  0  0  0  0  0  0  0  0  0  0
  149.1111  134.9885  153.3101 H   0  0  0  0  0  0  0  0  0  0  0  0
  153.0197  142.0611  160.9723 H   0  0  0  0  0  0  0  0  0  0  0  0
  152.7940  144.3411  161.8565 H   0  0  0  0  0  0  0  0  0  0  0  0
  151.5360  146.0704  160.5900 H   0  0  0  0  0  0  0  0  0  0  0  0
  150.4912  145.5025  158.4114 H   0  0  0  0  0  0  0  0  0  0  0  0
  150.0848  143.8674  156.7585 H   0  0  0  0  0  0  0  0  0  0  0  0
  1  2  1  0  0  0  0
  1 30  1  0  0  0  0
  1 31  1  0  0  0  0
  1 32  1  0  0  0  0
  2 29  1  0  0  0  0
  2  3  2  0  0  0  0
  3  4  1  0  0  0  0
  3 33  1  0  0  0  0
  4  5  1  0  0  0  0
  4 23  2  0  0  0  0
  5  6  1  0  0  0  0
  5 34  1  0  0  0  0
  5 35  1  0  0  0  0
  6 21  1  0  0  0  0
  6  7  1  0  0  0  0
  7  8  2  0  0  0  0
  7  9  1  0  0  0  0
  9 10  1  0  0  0  0
  9 11  2  0  0  0  0
 10 36  1  0  0  0  0
 10 37  1  0  0  0  0
 10 38  1  0  0  0  0
 11 12  1  0  0  0  0
 11 39  1  0  0  0  0
 12 13  1  0  0  0  0
 12 21  1  0  0  0  0
 13 20  1  0  0  0  0
 13 14  1  0  0  0  0
 13 40  1  0  0  0  0
 14 15  1  0  0  0  0
 14 41  1  0  0  0  0
 14 42  1  0  0  0  0
 15 16  1  0  0  0  0
 15 17  1  0  0  0  0
 15 43  1  0  0  0  0
 16 44  1  0  0  0  0
 17 18  1  0  0  0  0
 17 20  1  0  0  0  0
 17 45  1  0  0  0  0
 18 19  1  0  0  0  0
 18 46  1  0  0  0  0
 18 47  1  0  0  0  0
 19 48  1  0  0  0  0
 21 22  2  0  0  0  0
 23 28  1  0  0  0  0
 23 24  1  0  0  0  0
 24 25  2  0  0  0  0
 24 49  1  0  0  0  0
 25 26  1  0  0  0  0
 25 50  1  0  0  0  0
 26 27  2  0  0  0  0
 26 51  1  0  0  0  0
 27 28  1  0  0  0  0
 27 52  1  0  0  0  0
 28 29  2  0  0  0  0
 29 53  1  0  0  0  0
M  CHG  1  29   1
M  END
> <s_m_source_file>
AV-unprocessed.smi

> <i_m_source_file_index>
113

> <i_lp_mmshare_version>
43012

> <i_f3d_flags>
0

> <s_epik_input>
W2NIXTFbY0hdW2NIXVtjSF1jKGMxMiluYyhbQ0gzXSlbY0hdYzJbQ0gyXW4zYyg9TyljKFtDSDNdKVtjSF1uKGMzPU8pW0NAQEhdNFtDSDJdW0NAQEhdKFtPSF0pW0NASF0oTzQpW0NIMl1bT0hd

> <s_epik_cmdline>
J2VwaWtfcHl0aG9uJywgJy1waCcsICc3LjAnLCAnLXRuJywgJzgnLCAnLW1hJywgJzIwMCcsICctbWV0YWxfYmluZGluZycsICctaW1hZScsICc8aW5maWxlLm1hZT4nLCAnLW9tYWUnLCAnPG91dGZpbGUubWFlPic=

> <r_lp_tautomer_probability>
1

> <r_epik_Ionization_Penalty>
0.705471

> <r_epik_Ionization_Penalty_Charging>
0.70547

> <r_epik_Ionization_Penalty_Neutral>
1.19947e-07

> <r_epik_State_Penalty>
0.728574

> <r_epik_Charging_Adjusted_Penalty>
1.43404

> <i_epik_Tot_Q>
1

> <i_epik_Tot_abs_Q>
1

> <r_epik_Metal_State_Penalty>
4.61665

> <b_epik_Metal_Only>
0

> <s_epik_Chemistry_Notes>
This compound contains an acetal/aminal-like group ( X-CH(R)-Y where X, Y are N, S, or O) that may be acid/base labile, releasing an aldehyde.

> <s_lp_Force_Field>
OPLS_2005

> <r_lp_Energy>
45.4749

> <b_lp_Chiralities_Consistent>
1

> <s_lp_Variant>
AV-unprocessed.smi:113-16

> <Gold.Version>
5.8.1

> <Gold.Id.Protein>
6NUR|6NUR_protein|mol2

> <Gold.PLP.Fitness>
61.1073

> <Gold.PLP.PLP>
-46.3257

> <Gold.PLP.part.hbond>
-3.6784

> <Gold.PLP.part.metal>
0.0000

> <Gold.PLP.part.buried>
-6.0880

> <Gold.PLP.part.nonpolar>
-35.7404

> <Gold.PLP.part.repulsive>
0.0053

> <Gold.PLP.ligand.clash>
0.0000

> <Gold.PLP.ligand.torsion>
0.0570

> <Gold.PLP.Chemscore.Hbond>
4.9600

> <Gold.PLP.Chemscore.CHOScore>
0.0000

> <Gold.PLP.Chemscore.Metal>
0.0000

> <Gold.Chemscore.Hbonds>
donor molecule, donor type, donor heavy atom, donor atom, acceptor molecule, acceptor atom, score
      L1  H    16    44       P1  7948  0.92
      L1  H    19    48       P1  7948  0.79
      L1  H    29    53       P1  8028  2.00
      P1  H  7997  8009       L1     8  1.00

> <Gold.PLP.Chemscore.Internal.Correction>
0.0156

> <Gold.Rescore>
     Score         DG    S(hbond)    S(metal)    S(lipo)     H(rot)  DE(clash)    DE(int)     intcor
     20.12     -25.02       3.64        0.00     129.01       3.01       0.19       4.71       ----

> <Gold.Chemscore.Fitness>
20.1191

> <Gold.Chemscore.DG>
-25.0183

> <Gold.Chemscore.ZeroCoef>
-5.4800

> <Gold.Chemscore.Hbond>
3.6392

> <Gold.Chemscore.Metal>
0.0000

> <Gold.Chemscore.Lipo>
129.0113

> <Gold.Chemscore.Internal_Hbond>
0.0000

> <Gold.Chemscore.DEClash>
0.1863

> <Gold.Chemscore.DEInternal>
4.7130

> <Gold.Chemscore.Rot>
3.0120

> <Gold.Chemscore.Internal.Correction>
   9.000000E+99

> <Gold.Chemscore.Hbonds>
donor molecule, donor type, donor heavy atom, donor atom, acceptor molecule, acceptor atom, score
      L1  H    16    44       P1  7948  0.74
      L1  H    19    48       P1  7948  0.13
      L1  H    29    53       P1  8028  1.00
      P1  H  7997  8009       L1     8  0.77

> <Gold.Chemscore.Hbond.Weighted>
-12.1548

> <Gold.Chemscore.Metal.Weighted>
-0.0000

> <Gold.Chemscore.Lipo.Weighted>
-15.0943

> <Gold.Chemscore.Internal_Hbond.Weighted>
0.0000

> <Gold.Chemscore.DEClash.Weighted>
0.1863

> <Gold.Chemscore.DEInternal.Weighted>
4.7130

> <Gold.Chemscore.Rot.Weighted>
7.7108

> <Gold.Chemscore.Internal.Correction.Weighted>
   9.000000E+99

> <Gold.Protein.RotatedTorsions>
[ 6907 6896 6895 6894 ] final -161.76 input  -60.11 | X-H torsion
[ 7974 7965 7964 7962 ] final  -92.96 input  175.53 | X-H torsion
[ 8008 7997 7996 7995 ] final   97.42 input   59.86 | X-H torsion
[ 10167 10162 10161 10158 ] final -162.15 input  -65.29 | X-H torsion
[ 10718 10713 10712 10709 ] final   97.47 input   66.30 | X-H torsion
[ 10763 10752 10751 10750 ] final  -42.47 input  -60.55 | X-H torsion
[ 11005 11000 10999 10996 ] final -140.70 input  -57.11 | X-H torsion

> <Gold.Protein.ActiveResidues>
 VAL166  LYS551  ARG553  GLY616  TRP617  ASP618  TYR619  PRO620  LYS621  CYS622 
 ASP623  PHE694  ASN695  SER759  ASP760  ASP761  ALA762  ILE779  LEU786  VAL792 
 PHE793  MET794  SER795  GLU796  ALA797  LYS798  CYS799  TRP800  GLU811  SER814 

> <Gold.Protein.RotatedAtoms>
  151.3698  133.3859  159.2698 H   0  0  0  0  0  0  0  0  0  0  0  0  # atno 6907 bound_to 6896
  150.9660  134.9042  159.7770 H   0  0  0  0  0  0  0  0  0  0  0  0  # atno 6908 bound_to 6896
  152.5167  134.3658  159.9353 H   0  0  0  0  0  0  0  0  0  0  0  0  # atno 6909 bound_to 6896
  145.3929  140.9530  143.2330 H   0  0  0  0  0  0  0  0  0  0  0  0  # atno 7974 bound_to 7965
  156.0900  140.3258  155.7803 H   0  0  0  0  0  0  0  0  0  0  0  0  # atno 8008 bound_to 7997
  155.5012  140.0569  157.2956 H   0  0  0  0  0  0  0  0  0  0  0  0  # atno 8009 bound_to 7997
  154.4632  140.1976  156.0205 H   0  0  0  0  0  0  0  0  0  0  0  0  # atno 8010 bound_to 7997
  139.6413  144.0254  152.2094 H   0  0  0  0  0  0  0  0  0  0  0  0  # atno 10167 bound_to 10162
  157.6912  131.0610  150.4648 H   0  0  0  0  0  0  0  0  0  0  0  0  # atno 10718 bound_to 10713
  153.9796  135.6718  153.4749 H   0  0  0  0  0  0  0  0  0  0  0  0  # atno 10763 bound_to 10752
  153.0754  135.4951  154.8390 H   0  0  0  0  0  0  0  0  0  0  0  0  # atno 10764 bound_to 10752
  154.7172  135.3109  154.9066 H   0  0  0  0  0  0  0  0  0  0  0  0  # atno 10765 bound_to 10752
  140.8397  134.2417  157.4816 H   0  0  0  0  0  0  0  0  0  0  0  0  # atno 11005 bound_to 11000
  144.8427  139.5446  143.6892 LP  0  0  0  0  0  0  0  0  0  0  0  0  # atno 17320 bound_to 7965
  146.2789  139.6824  142.9243 LP  0  0  0  0  0  0  0  0  0  0  0  0  # atno 17321 bound_to 7965
  139.9944  144.6338  150.7785 LP  0  0  0  0  0  0  0  0  0  0  0  0  # atno 17342 bound_to 10162
  140.7492  143.2935  151.3267 LP  0  0  0  0  0  0  0  0  0  0  0  0  # atno 17343 bound_to 10162
  156.4990  130.4113  149.6363 LP  0  0  0  0  0  0  0  0  0  0  0  0  # atno 17370 bound_to 10713
  156.3346  130.7349  151.2285 LP  0  0  0  0  0  0  0  0  0  0  0  0  # atno 17371 bound_to 10713
  139.8703  134.9629  156.4444 LP  0  0  0  0  0  0  0  0  0  0  0  0  # atno 17394 bound_to 11000
  140.8909  133.7849  155.9570 LP  0  0  0  0  0  0  0  0  0  0  0  0  # atno 17395 bound_to 11000

$$$$
