AV-unprocessed.smi:1589|AV-procd|sdf|6394|dock7
  -GOLD-   22720 7 33D 1   1.00000     0.00000
 Structure written by MMmdl.
 43 44  0  0  0  0  0  0  0  0  1 V2000
  151.7344  144.0279  159.1207 C   0  0  0  0  0  0  0  0  0  0  0  0
  151.8125  142.5011  159.3425 C   0  0  0  0  0  0  0  0  0  0  0  0
  152.9502  142.2132  160.3465 C   0  0  0  0  0  0  0  0  0  0  0  0
  152.0016  141.7715  158.0719 N   0  0  0  0  0  0  0  0  0  0  0  0
  150.8009  141.8510  157.2217 C   0  0  0  0  0  0  0  0  0  0  0  0
  151.0007  141.0890  155.8980 C   0  0  0  0  0  0  0  0  0  0  0  0
  151.2828  139.6824  156.2063 N   0  0  0  0  0  0  0  0  0  0  0  0
  150.4665  138.6175  156.0040 C   0  0  0  0  0  0  0  0  0  0  0  0
  149.2531  138.7344  155.8285 O   0  0  0  0  0  0  0  0  0  0  0  0
  151.0957  137.4274  156.0276 N   0  0  0  0  0  0  0  0  0  0  0  0
  150.5281  136.1416  155.8454 C   0  0  0  0  0  0  0  0  0  0  0  0
  150.8851  134.9011  156.4455 C   0  0  0  0  0  0  0  0  0  0  0  0
  150.1098  133.9207  156.0064 N   0  0  0  0  0  0  0  0  0  0  0  0
  149.2600  134.5073  155.1264 N   0  0  0  0  0  0  0  0  0  0  0  0
  148.2542  133.7030  154.4500 C   0  0  0  0  0  0  0  0  0  0  0  0
  148.8656  132.5902  153.5891 C   0  0  0  0  0  0  0  0  0  0  0  0
  148.5468  132.5967  152.2925 N   0  0  0  0  0  0  0  0  0  0  0  0
  149.6075  131.7366  154.0731 O   0  0  0  0  0  0  0  0  0  0  0  0
  149.4892  135.8648  155.0091 C   0  0  0  0  0  0  0  0  0  0  0  0
  152.5235  139.5967  156.9765 C   0  0  0  0  0  0  0  0  0  0  0  0
  152.3337  140.3546  158.3046 C   0  0  0  0  0  0  0  0  0  0  0  0
  151.7452  144.5623  160.0710 H   0  0  0  0  0  0  0  0  0  0  0  0
  150.8147  144.3302  158.6213 H   0  0  0  0  0  0  0  0  0  0  0  0
  152.5789  144.3896  158.5327 H   0  0  0  0  0  0  0  0  0  0  0  0
  150.8739  142.1759  159.7941 H   0  0  0  0  0  0  0  0  0  0  0  0
  152.8782  142.8660  161.2169 H   0  0  0  0  0  0  0  0  0  0  0  0
  153.9303  142.3756  159.8964 H   0  0  0  0  0  0  0  0  0  0  0  0
  152.9148  141.1957  160.7346 H   0  0  0  0  0  0  0  0  0  0  0  0
  149.9359  141.4565  157.7573 H   0  0  0  0  0  0  0  0  0  0  0  0
  150.5786  142.8853  156.9662 H   0  0  0  0  0  0  0  0  0  0  0  0
  150.1300  141.2362  155.2595 H   0  0  0  0  0  0  0  0  0  0  0  0
  151.8392  141.5133  155.3430 H   0  0  0  0  0  0  0  0  0  0  0  0
  152.0938  137.4507  156.1771 H   0  0  0  0  0  0  0  0  0  0  0  0
  151.6573  134.6732  157.1648 H   0  0  0  0  0  0  0  0  0  0  0  0
  147.5853  133.2588  155.1892 H   0  0  0  0  0  0  0  0  0  0  0  0
  147.6514  134.3645  153.8265 H   0  0  0  0  0  0  0  0  0  0  0  0
  148.9240  131.8923  151.6752 H   0  0  0  0  0  0  0  0  0  0  0  0
  147.9321  133.3125  151.9320 H   0  0  0  0  0  0  0  0  0  0  0  0
  148.9072  136.4970  154.3545 H   0  0  0  0  0  0  0  0  0  0  0  0
  152.8211  138.5674  157.1809 H   0  0  0  0  0  0  0  0  0  0  0  0
  153.3434  140.0331  156.4037 H   0  0  0  0  0  0  0  0  0  0  0  0
  153.2643  140.2644  158.8619 H   0  0  0  0  0  0  0  0  0  0  0  0
  151.5519  139.8806  158.9004 H   0  0  0  0  0  0  0  0  0  0  0  0
  1  2  1  0  0  0  0
  1 22  1  0  0  0  0
  1 23  1  0  0  0  0
  1 24  1  0  0  0  0
  2  3  1  0  0  0  0
  2  4  1  0  0  0  0
  2 25  1  0  0  0  0
  3 26  1  0  0  0  0
  3 27  1  0  0  0  0
  3 28  1  0  0  0  0
  4 21  1  0  0  0  0
  4  5  1  0  0  0  0
  5  6  1  0  0  0  0
  5 29  1  0  0  0  0
  5 30  1  0  0  0  0
  6  7  1  0  0  0  0
  6 31  1  0  0  0  0
  6 32  1  0  0  0  0
  7  8  1  0  0  0  0
  7 20  1  0  0  0  0
  8  9  2  0  0  0  0
  8 10  1  0  0  0  0
 10 11  1  0  0  0  0
 10 33  1  0  0  0  0
 11 19  2  0  0  0  0
 11 12  1  0  0  0  0
 12 13  2  0  0  0  0
 12 34  1  0  0  0  0
 13 14  1  0  0  0  0
 14 15  1  0  0  0  0
 14 19  1  0  0  0  0
 15 16  1  0  0  0  0
 15 35  1  0  0  0  0
 15 36  1  0  0  0  0
 16 17  1  0  0  0  0
 16 18  2  0  0  0  0
 17 37  1  0  0  0  0
 17 38  1  0  0  0  0
 19 39  1  0  0  0  0
 20 21  1  0  0  0  0
 20 40  1  0  0  0  0
 20 41  1  0  0  0  0
 21 42  1  0  0  0  0
 21 43  1  0  0  0  0
M  END
> <s_m_source_file>
AV-unprocessed.smi

> <i_m_source_file_index>
1589

> <i_lp_mmshare_version>
43012

> <i_f3d_flags>
0

> <s_epik_input>
W0NIM11bQ0hdKFtDSDNdKU4xW0NIMl1bQ0gyXU4oW0NIMl1bQ0gyXTEpQyg9TylbTkhdYzJbY0hdbm4oW2NIXTIpW0NIMl1DKD1PKVtOSDJd

> <s_epik_cmdline>
J2VwaWtfcHl0aG9uJywgJy1waCcsICc3LjAnLCAnLXRuJywgJzgnLCAnLW1hJywgJzIwMCcsICctbWV0YWxfYmluZGluZycsICctaW1hZScsICc8aW5maWxlLm1hZT4nLCAnLW9tYWUnLCAnPG91dGZpbGUubWFlPic=

> <r_lp_tautomer_probability>
1

> <r_epik_Ionization_Penalty>
0.648545

> <r_epik_Ionization_Penalty_Charging>
0

> <r_epik_Ionization_Penalty_Neutral>
0.648545

> <r_epik_State_Penalty>
0.6668

> <r_epik_Charging_Adjusted_Penalty>
0.6668

> <i_epik_Tot_Q>
0

> <i_epik_Tot_abs_Q>
0

> <r_epik_Metal_State_Penalty>
0.666798

> <b_epik_Metal_Only>
0

> <s_lp_Force_Field>
OPLS_2005

> <r_lp_Energy>
50.3263

> <b_lp_Chiralities_Consistent>
1

> <s_lp_Variant>
AV-unprocessed.smi:1589-2

> <Gold.Version>
5.8.1

> <Gold.Id.Protein>
6NUR|6NUR_protein|mol2

> <Gold.PLP.Fitness>
36.1974

> <Gold.PLP.PLP>
-31.8910

> <Gold.PLP.part.hbond>
-1.0000

> <Gold.PLP.part.metal>
0.0000

> <Gold.PLP.part.buried>
-1.7332

> <Gold.PLP.part.nonpolar>
-28.8792

> <Gold.PLP.part.repulsive>
0.1493

> <Gold.PLP.ligand.clash>
0.0000

> <Gold.PLP.ligand.torsion>
0.5929

> <Gold.PLP.Chemscore.Hbond>
1.0000

> <Gold.PLP.Chemscore.CHOScore>
0.8167

> <Gold.PLP.Chemscore.Metal>
0.0000

> <Gold.Chemscore.Hbonds>
donor molecule, donor type, donor heavy atom, donor atom, acceptor molecule, acceptor atom, score
      L1  H    17    37       P1 10747  1.00
      L1  C    19    39       P1  7948  0.83

> <Gold.PLP.Chemscore.Internal.Correction>
0.0419

> <Gold.Rescore>
     Score         DG    S(hbond)    S(metal)    S(lipo)     H(rot)  DE(clash)    DE(int)     intcor
     10.78     -12.86       1.00        0.00      74.39       1.82       0.36       1.72       ----

> <Gold.Chemscore.Fitness>
10.7822

> <Gold.Chemscore.DG>
-12.8599

> <Gold.Chemscore.ZeroCoef>
-5.4800

> <Gold.Chemscore.Hbond>
0.9983

> <Gold.Chemscore.Metal>
0.0000

> <Gold.Chemscore.Lipo>
74.3853

> <Gold.Chemscore.Internal_Hbond>
0.0000

> <Gold.Chemscore.DEClash>
0.3577

> <Gold.Chemscore.DEInternal>
1.7200

> <Gold.Chemscore.Rot>
1.8193

> <Gold.Chemscore.Internal.Correction>
   9.000000E+99

> <Gold.Chemscore.Hbonds>
donor molecule, donor type, donor heavy atom, donor atom, acceptor molecule, acceptor atom, score
      L1  H    17    37       P1 10747  0.92

> <Gold.Chemscore.Hbond.Weighted>
-3.3343

> <Gold.Chemscore.Metal.Weighted>
-0.0000

> <Gold.Chemscore.Lipo.Weighted>
-8.7031

> <Gold.Chemscore.Internal_Hbond.Weighted>
0.0000

> <Gold.Chemscore.DEClash.Weighted>
0.3577

> <Gold.Chemscore.DEInternal.Weighted>
1.7200

> <Gold.Chemscore.Rot.Weighted>
4.6575

> <Gold.Chemscore.Internal.Correction.Weighted>
   9.000000E+99

> <Gold.Protein.RotatedTorsions>
[ 6907 6896 6895 6894 ] final  -13.50 input  -60.11 | X-H torsion
[ 7974 7965 7964 7962 ] final  157.37 input  175.53 | X-H torsion
[ 8008 7997 7996 7995 ] final   39.06 input   59.86 | X-H torsion
[ 10167 10162 10161 10158 ] final   21.78 input  -65.29 | X-H torsion
[ 10718 10713 10712 10709 ] final  116.83 input   66.30 | X-H torsion
[ 10763 10752 10751 10750 ] final -121.05 input  -60.55 | X-H torsion
[ 11005 11000 10999 10996 ] final -137.14 input  -57.11 | X-H torsion

> <Gold.Protein.ActiveResidues>
 VAL166  LYS551  ARG553  GLY616  TRP617  ASP618  TYR619  PRO620  LYS621  CYS622 
 ASP623  PHE694  ASN695  SER759  ASP760  ASP761  ALA762  ILE779  LEU786  VAL792 
 PHE793  MET794  SER795  GLU796  ALA797  LYS798  CYS799  TRP800  GLU811  SER814 

> <Gold.Protein.RotatedAtoms>
  151.3540  135.0890  159.9412 H   0  0  0  0  0  0  0  0  0  0  0  0  # atno 6907 bound_to 6896
  152.5180  133.9324  159.7597 H   0  0  0  0  0  0  0  0  0  0  0  0  # atno 6908 bound_to 6896
  150.9705  133.6295  159.2768 H   0  0  0  0  0  0  0  0  0  0  0  0  # atno 6909 bound_to 6896
  144.7907  139.7331  143.6222 H   0  0  0  0  0  0  0  0  0  0  0  0  # atno 7974 bound_to 7965
  155.2304  140.3338  155.4304 H   0  0  0  0  0  0  0  0  0  0  0  0  # atno 8008 bound_to 7997
  156.2297  140.1845  156.7320 H   0  0  0  0  0  0  0  0  0  0  0  0  # atno 8009 bound_to 7997
  154.5957  140.0631  156.9286 H   0  0  0  0  0  0  0  0  0  0  0  0  # atno 8010 bound_to 7997
  140.5400  143.9693  150.6514 H   0  0  0  0  0  0  0  0  0  0  0  0  # atno 10167 bound_to 10162
  157.6136  131.1030  150.7528 H   0  0  0  0  0  0  0  0  0  0  0  0  # atno 10718 bound_to 10713
  154.8659  135.4181  154.2557 H   0  0  0  0  0  0  0  0  0  0  0  0  # atno 10763 bound_to 10752
  153.3495  135.6998  153.6806 H   0  0  0  0  0  0  0  0  0  0  0  0  # atno 10764 bound_to 10752
  153.5752  135.3583  155.2826 H   0  0  0  0  0  0  0  0  0  0  0  0  # atno 10765 bound_to 10752
  140.8739  134.2017  157.4634 H   0  0  0  0  0  0  0  0  0  0  0  0  # atno 11005 bound_to 11000
  146.2158  139.5547  142.9651 LP  0  0  0  0  0  0  0  0  0  0  0  0  # atno 17320 bound_to 7965
  145.5801  141.0383  143.2127 LP  0  0  0  0  0  0  0  0  0  0  0  0  # atno 17321 bound_to 7965
  140.3091  143.3210  152.0896 LP  0  0  0  0  0  0  0  0  0  0  0  0  # atno 17342 bound_to 10162
  139.4985  144.6647  151.6383 LP  0  0  0  0  0  0  0  0  0  0  0  0  # atno 17343 bound_to 10162
  156.7900  130.4887  149.5386 LP  0  0  0  0  0  0  0  0  0  0  0  0  # atno 17370 bound_to 10713
  156.1248  130.6136  151.0247 LP  0  0  0  0  0  0  0  0  0  0  0  0  # atno 17371 bound_to 10713
  139.8714  134.9786  156.5006 LP  0  0  0  0  0  0  0  0  0  0  0  0  # atno 17394 bound_to 11000
  140.8541  133.8109  155.9198 LP  0  0  0  0  0  0  0  0  0  0  0  0  # atno 17395 bound_to 11000

$$$$
