AV-unprocessed.smi:1395|AV-procd|sdf|5672|dock7
  -GOLD-   22720 5293D 1   1.00000     0.00000
 Structure written by MMmdl.
 42 43  0  0  0  0  0  0  0  0  3 V2000
  150.4508  145.1219  159.1915 C   0  0  0  0  0  0  0  0  0  0  0  0
  151.3504  143.9178  159.4193 C   0  0  0  0  0  0  0  0  0  0  0  0
  152.3429  143.9772  160.4207 C   0  0  0  0  0  0  0  0  0  0  0  0
  153.1723  142.8624  160.6317 C   0  0  0  0  0  0  0  0  0  0  0  0
  152.9727  141.7278  159.8269 C   0  0  0  0  0  0  0  0  0  0  0  0
  152.0271  141.6625  158.8675 N   0  0  0  0  0  0  0  0  0  0  0  0
  151.2184  142.7302  158.6507 C   0  0  0  0  0  0  0  0  0  0  0  0
  150.1962  142.7295  157.6599 N   0  0  0  0  0  0  0  0  0  0  0  0
  149.7874  141.7120  156.8814 C   0  0  0  0  0  0  0  0  0  0  0  0
  150.2693  140.5787  156.8749 O   0  0  0  0  0  0  0  0  0  0  0  0
  148.7674  142.0832  156.0935 N   0  0  0  0  0  0  0  0  0  0  0  0
  148.0810  141.2124  155.1437 C   0  0  2  0  0  0  0  0  0  0  0  0
  149.1039  140.5653  154.1958 C   0  0  0  0  0  0  0  0  0  0  0  0
  148.4082  139.7160  153.1190 C   0  0  0  0  0  0  0  0  0  0  0  0
  147.4261  140.5244  152.3539 N   0  3  1  0  0  0  0  0  0  0  0  0
  146.8506  139.7817  151.2034 C   0  0  0  0  0  0  0  0  0  0  0  0
  146.5702  138.3221  151.5794 C   0  0  0  0  0  0  0  0  0  0  0  0
  146.8279  137.4708  150.5657 N   0  5  0  0  0  0  0  0  0  0  0  0
  146.1577  138.0528  152.7050 O   0  0  0  0  0  0  0  0  0  0  0  0
  146.3967  141.1227  153.2448 C   0  0  0  0  0  0  0  0  0  0  0  0
  147.0464  142.0047  154.3228 C   0  0  0  0  0  0  0  0  0  0  0  0
  150.7169  145.9473  159.8527 H   0  0  0  0  0  0  0  0  0  0  0  0
  149.4096  144.8606  159.3835 H   0  0  0  0  0  0  0  0  0  0  0  0
  150.5366  145.4757  158.1636 H   0  0  0  0  0  0  0  0  0  0  0  0
  152.4694  144.8648  161.0231 H   0  0  0  0  0  0  0  0  0  0  0  0
  153.9408  142.8765  161.3904 H   0  0  0  0  0  0  0  0  0  0  0  0
  153.5874  140.8494  159.9555 H   0  0  0  0  0  0  0  0  0  0  0  0
  149.7123  143.6068  157.5401 H   0  0  0  0  0  0  0  0  0  0  0  0
  148.4349  143.0341  156.1620 H   0  0  0  0  0  0  0  0  0  0  0  0
  147.5707  140.4181  155.6923 H   0  0  0  0  0  0  0  0  0  0  0  0
  149.7030  141.3386  153.7119 H   0  0  0  0  0  0  0  0  0  0  0  0
  149.7998  139.9444  154.7614 H   0  0  0  0  0  0  0  0  0  0  0  0
  149.1612  139.3132  152.4407 H   0  0  0  0  0  0  0  0  0  0  0  0
  147.9021  138.8641  153.5761 H   0  0  0  0  0  0  0  0  0  0  0  0
  145.9058  140.2323  150.8944 H   0  0  0  0  0  0  0  0  0  0  0  0
  147.5188  139.8374  150.3423 H   0  0  0  0  0  0  0  0  0  0  0  0
  147.7840  137.1116  150.4560 H   0  0  0  0  0  0  0  0  0  0  0  0
  145.6997  141.7281  152.6646 H   0  0  0  0  0  0  0  0  0  0  0  0
  145.8113  140.3288  153.7112 H   0  0  0  0  0  0  0  0  0  0  0  0
  146.2722  142.4085  154.9764 H   0  0  0  0  0  0  0  0  0  0  0  0
  147.5265  142.8615  153.8472 H   0  0  0  0  0  0  0  0  0  0  0  0
  147.9420  141.2901  151.9423 H   0  0  0  0  0  0  0  0  0  0  0  0
  1  2  1  0  0  0  0
  1 22  1  0  0  0  0
  1 23  1  0  0  0  0
  1 24  1  0  0  0  0
  2  7  1  0  0  0  0
  2  3  2  0  0  0  0
  3  4  1  0  0  0  0
  3 25  1  0  0  0  0
  4  5  2  0  0  0  0
  4 26  1  0  0  0  0
  5  6  1  0  0  0  0
  5 27  1  0  0  0  0
  6  7  2  0  0  0  0
  7  8  1  0  0  0  0
  8  9  1  0  0  0  0
  8 28  1  0  0  0  0
  9 10  2  0  0  0  0
  9 11  1  0  0  0  0
 11 12  1  0  0  0  0
 11 29  1  0  0  0  0
 12 21  1  0  0  0  0
 12 13  1  0  0  0  0
 12 30  1  0  0  0  0
 13 14  1  0  0  0  0
 13 31  1  0  0  0  0
 13 32  1  0  0  0  0
 14 15  1  0  0  0  0
 14 33  1  0  0  0  0
 14 34  1  0  0  0  0
 15 16  1  0  0  0  0
 15 20  1  0  0  0  0
 15 42  1  0  0  0  0
 16 17  1  0  0  0  0
 16 35  1  0  0  0  0
 16 36  1  0  0  0  0
 17 18  1  0  0  0  0
 17 19  2  0  0  0  0
 18 37  1  0  0  0  0
 20 21  1  0  0  0  0
 20 38  1  0  0  0  0
 20 39  1  0  0  0  0
 21 40  1  0  0  0  0
 21 41  1  0  0  0  0
M  CHG  1  15   1
M  CHG  1  18  -1
M  END
> <s_m_source_file>
AV-unprocessed.smi

> <i_m_source_file_index>
1395

> <i_lp_mmshare_version>
43012

> <i_f3d_flags>
0

> <s_epik_input>
W0NIM11jMVtjSF1bY0hdW2NIXW5jMVtOSF1DKD1PKVtOSF1bQ0hdMltDSDJdW0NIMl1OKFtDSDJdW0NIMl0yKVtDSDJdQyg9TylbTkgyXQ==

> <s_epik_cmdline>
J2VwaWtfcHl0aG9uJywgJy1waCcsICc3LjAnLCAnLXRuJywgJzgnLCAnLW1hJywgJzIwMCcsICctbWV0YWxfYmluZGluZycsICctaW1hZScsICc8aW5maWxlLm1hZT4nLCAnLW9tYWUnLCAnPG91dGZpbGUubWFlPic=

> <r_epik_Ionization_Penalty>
5.72885

> <r_epik_Ionization_Penalty_Charging>
5.7288

> <r_epik_Ionization_Penalty_Neutral>
4.54304e-05

> <r_epik_State_Penalty>
6.54882

> <r_epik_Charging_Adjusted_Penalty>
12.2776

> <i_epik_Tot_Q>
0

> <i_epik_Tot_abs_Q>
2

> <r_epik_Metal_State_Penalty>
2.51297

> <b_epik_Metal_Only>
1

> <s_lp_Force_Field>
OPLS_2005

> <r_lp_Energy>
9.01588

> <b_lp_Chiralities_Consistent>
1

> <s_lp_Variant>
AV-unprocessed.smi:1395-4

> <Gold.Version>
5.8.1

> <Gold.Id.Protein>
6NUR|6NUR_protein|mol2

> <Gold.PLP.Fitness>
49.6814

> <Gold.PLP.PLP>
-41.6696

> <Gold.PLP.part.hbond>
-4.0445

> <Gold.PLP.part.metal>
0.0000

> <Gold.PLP.part.buried>
0.3094

> <Gold.PLP.part.nonpolar>
-37.6555

> <Gold.PLP.part.repulsive>
0.4381

> <Gold.PLP.ligand.clash>
0.0000

> <Gold.PLP.ligand.torsion>
0.6253

> <Gold.PLP.Chemscore.Hbond>
3.0813

> <Gold.PLP.Chemscore.CHOScore>
0.0000

> <Gold.PLP.Chemscore.Metal>
0.0000

> <Gold.Chemscore.Hbonds>
donor molecule, donor type, donor heavy atom, donor atom, acceptor molecule, acceptor atom, score
      L1  H     8    28       P1  8028  0.19
      L1  H    11    29       P1  8028  0.83
      L1  H    18    37       P1  7948  0.59

> <Gold.PLP.Chemscore.Internal.Correction>
0.0186

> <Gold.Rescore>
     Score         DG    S(hbond)    S(metal)    S(lipo)     H(rot)  DE(clash)    DE(int)     intcor
     18.20     -23.79       3.51        0.00      98.48       1.93       1.27       4.32       ----

> <Gold.Chemscore.Fitness>
18.1953

> <Gold.Chemscore.DG>
-23.7888

> <Gold.Chemscore.ZeroCoef>
-5.4800

> <Gold.Chemscore.Hbond>
3.5145

> <Gold.Chemscore.Metal>
0.0000

> <Gold.Chemscore.Lipo>
98.4753

> <Gold.Chemscore.Internal_Hbond>
0.0000

> <Gold.Chemscore.DEClash>
1.2705

> <Gold.Chemscore.DEInternal>
4.3230

> <Gold.Chemscore.Rot>
1.9341

> <Gold.Chemscore.Internal.Correction>
   9.000000E+99

> <Gold.Chemscore.Hbonds>
donor molecule, donor type, donor heavy atom, donor atom, acceptor molecule, acceptor atom, score
      L1  H     8    28       P1  8028  0.14
      L1  H    11    29       P1  8028  0.75
      L1  H    15    42       P1  7957  0.02
      L1  H    18    37       P1  7948  0.33

> <Gold.Chemscore.Hbond.Weighted>
-11.7384

> <Gold.Chemscore.Metal.Weighted>
-0.0000

> <Gold.Chemscore.Lipo.Weighted>
-11.5216

> <Gold.Chemscore.Internal_Hbond.Weighted>
0.0000

> <Gold.Chemscore.DEClash.Weighted>
1.2705

> <Gold.Chemscore.DEInternal.Weighted>
4.3230

> <Gold.Chemscore.Rot.Weighted>
4.9512

> <Gold.Chemscore.Internal.Correction.Weighted>
   9.000000E+99

> <Gold.Protein.RotatedTorsions>
[ 6907 6896 6895 6894 ] final  -13.85 input  -60.11 | X-H torsion
[ 7974 7965 7964 7962 ] final -176.37 input  175.53 | X-H torsion
[ 8008 7997 7996 7995 ] final   17.07 input   59.86 | X-H torsion
[ 10167 10162 10161 10158 ] final    7.07 input  -65.29 | X-H torsion
[ 10718 10713 10712 10709 ] final  163.21 input   66.30 | X-H torsion
[ 10763 10752 10751 10750 ] final  -53.26 input  -60.55 | X-H torsion
[ 11005 11000 10999 10996 ] final -109.88 input  -57.11 | X-H torsion

> <Gold.Protein.ActiveResidues>
 VAL166  LYS551  ARG553  GLY616  TRP617  ASP618  TYR619  PRO620  LYS621  CYS622 
 ASP623  PHE694  ASN695  SER759  ASP760  ASP761  ALA762  ILE779  LEU786  VAL792 
 PHE793  MET794  SER795  GLU796  ALA797  LYS798  CYS799  TRP800  GLU811  SER814 

> <Gold.Protein.RotatedAtoms>
  151.3484  135.0879  159.9394 H   0  0  0  0  0  0  0  0  0  0  0  0  # atno 6907 bound_to 6896
  152.5193  133.9377  159.7621 H   0  0  0  0  0  0  0  0  0  0  0  0  # atno 6908 bound_to 6896
  150.9747  133.6253  159.2761 H   0  0  0  0  0  0  0  0  0  0  0  0  # atno 6909 bound_to 6896
  144.7127  140.1181  143.6407 H   0  0  0  0  0  0  0  0  0  0  0  0  # atno 7974 bound_to 7965
  154.8861  140.2980  155.5397 H   0  0  0  0  0  0  0  0  0  0  0  0  # atno 8008 bound_to 7997
  156.3021  140.2433  156.3805 H   0  0  0  0  0  0  0  0  0  0  0  0  # atno 8009 bound_to 7997
  154.8666  140.0403  157.1687 H   0  0  0  0  0  0  0  0  0  0  0  0  # atno 8010 bound_to 7997
  140.6392  143.7814  150.7403 H   0  0  0  0  0  0  0  0  0  0  0  0  # atno 10167 bound_to 10162
  157.1116  131.0469  151.2454 H   0  0  0  0  0  0  0  0  0  0  0  0  # atno 10718 bound_to 10713
  154.1560  135.6482  153.4974 H   0  0  0  0  0  0  0  0  0  0  0  0  # atno 10763 bound_to 10752
  153.0124  135.5349  154.6760 H   0  0  0  0  0  0  0  0  0  0  0  0  # atno 10764 bound_to 10752
  154.6060  135.2949  155.0455 H   0  0  0  0  0  0  0  0  0  0  0  0  # atno 10765 bound_to 10752
  141.0823  133.9199  157.2262 H   0  0  0  0  0  0  0  0  0  0  0  0  # atno 11005 bound_to 11000
  145.9395  139.2659  143.1277 LP  0  0  0  0  0  0  0  0  0  0  0  0  # atno 17320 bound_to 7965
  145.9438  140.8960  143.0294 LP  0  0  0  0  0  0  0  0  0  0  0  0  # atno 17321 bound_to 7965
  140.1442  143.4414  152.2174 LP  0  0  0  0  0  0  0  0  0  0  0  0  # atno 17342 bound_to 10162
  139.5602  144.7400  151.4178 LP  0  0  0  0  0  0  0  0  0  0  0  0  # atno 17343 bound_to 10162
  157.4554  130.7622  149.7188 LP  0  0  0  0  0  0  0  0  0  0  0  0  # atno 17370 bound_to 10713
  155.9849  130.3987  150.3288 LP  0  0  0  0  0  0  0  0  0  0  0  0  # atno 17371 bound_to 10713
  139.9638  135.0147  156.9332 LP  0  0  0  0  0  0  0  0  0  0  0  0  # atno 17394 bound_to 11000
  140.5441  134.0691  155.7350 LP  0  0  0  0  0  0  0  0  0  0  0  0  # atno 17395 bound_to 11000

$$$$
