AV-unprocessed.smi:2079|AV-procd|sdf|8486|dock9
  -GOLD-   2272011193D 1   1.00000     0.00000
 Structure written by MMmdl.
 41 42  0  0  0  0  0  0  0  0  3 V2000
  153.7480  140.4602  160.4293 C   0  0  0  0  0  0  0  0  0  0  0  0
  152.9837  140.0782  159.2086 C   0  0  0  0  0  0  0  0  0  0  0  0
  151.7344  140.3968  158.7563 C   0  0  0  0  0  0  0  0  0  0  0  0
  151.6475  139.6907  157.5271 C   0  0  0  0  0  0  0  0  0  0  0  0
  150.4731  139.7627  156.7321 N   0  0  0  0  0  0  0  0  0  0  0  0
  150.3263  139.5007  155.4206 C   0  0  0  0  0  0  0  0  0  0  0  0
  151.2979  139.1486  154.7408 O   0  0  0  0  0  0  0  0  0  0  0  0
  149.0410  139.6669  155.0013 N   0  5  0  0  0  0  0  0  0  0  0  0
  148.4196  138.9262  153.9046 C   0  0  0  0  0  0  0  0  0  0  0  0
  147.3714  137.9357  154.4513 C   0  0  0  0  0  0  0  0  0  0  0  0
  146.9887  136.9300  153.4193 N   0  3  1  0  0  0  0  0  0  0  0  0
  146.5945  135.6383  154.0506 C   0  0  0  0  0  0  0  0  0  0  0  0
  146.3373  134.5412  153.0103 C   0  0  0  0  0  0  0  0  0  0  0  0
  145.2535  134.9873  152.0288 C   0  0  0  0  0  0  0  0  0  0  0  0
  145.6755  136.3054  151.3745 C   0  0  0  0  0  0  0  0  0  0  0  0
  145.9835  137.4075  152.4136 C   0  0  2  0  0  0  0  0  0  0  0  0
  146.4475  138.6708  151.6573 C   0  0  0  0  0  0  0  0  0  0  0  0
  152.7461  139.0020  157.2551 N   0  0  0  0  0  0  0  0  0  0  0  0
  153.6079  139.2476  158.3306 O   0  0  0  0  0  0  0  0  0  0  0  0
  153.0787  140.8231  161.2095 H   0  0  0  0  0  0  0  0  0  0  0  0
  154.4645  141.2497  160.2033 H   0  0  0  0  0  0  0  0  0  0  0  0
  154.2975  139.6067  160.8267 H   0  0  0  0  0  0  0  0  0  0  0  0
  151.0018  141.0333  159.2292 H   0  0  0  0  0  0  0  0  0  0  0  0
  149.6360  140.0500  157.2167 H   0  0  0  0  0  0  0  0  0  0  0  0
  147.9286  139.6031  153.2050 H   0  0  0  0  0  0  0  0  0  0  0  0
  149.1526  138.3793  153.3097 H   0  0  0  0  0  0  0  0  0  0  0  0
  147.7787  137.4324  155.3301 H   0  0  0  0  0  0  0  0  0  0  0  0
  146.5009  138.4726  154.8267 H   0  0  0  0  0  0  0  0  0  0  0  0
  147.3845  135.3076  154.7268 H   0  0  0  0  0  0  0  0  0  0  0  0
  145.7008  135.7899  154.6584 H   0  0  0  0  0  0  0  0  0  0  0  0
  147.2594  134.3165  152.4724 H   0  0  0  0  0  0  0  0  0  0  0  0
  146.0335  133.6196  153.5075 H   0  0  0  0  0  0  0  0  0  0  0  0
  145.0941  134.2220  151.2685 H   0  0  0  0  0  0  0  0  0  0  0  0
  144.3045  135.1160  152.5511 H   0  0  0  0  0  0  0  0  0  0  0  0
  146.5558  136.1296  150.7540 H   0  0  0  0  0  0  0  0  0  0  0  0
  144.8879  136.6398  150.6981 H   0  0  0  0  0  0  0  0  0  0  0  0
  145.0623  137.6438  152.9490 H   0  0  0  0  0  0  0  0  0  0  0  0
  145.7273  138.9478  150.8870 H   0  0  0  0  0  0  0  0  0  0  0  0
  147.4063  138.5066  151.1644 H   0  0  0  0  0  0  0  0  0  0  0  0
  146.5526  139.5393  152.3062 H   0  0  0  0  0  0  0  0  0  0  0  0
  147.8349  136.7418  152.9009 H   0  0  0  0  0  0  0  0  0  0  0  0
  1  2  1  0  0  0  0
  1 20  1  0  0  0  0
  1 21  1  0  0  0  0
  1 22  1  0  0  0  0
  2 19  1  0  0  0  0
  2  3  2  0  0  0  0
  3  4  1  0  0  0  0
  3 23  1  0  0  0  0
  4  5  1  0  0  0  0
  4 18  2  0  0  0  0
  5  6  1  0  0  0  0
  5 24  1  0  0  0  0
  6  7  2  0  0  0  0
  6  8  1  0  0  0  0
  8  9  1  0  0  0  0
  9 10  1  0  0  0  0
  9 25  1  0  0  0  0
  9 26  1  0  0  0  0
 10 11  1  0  0  0  0
 10 27  1  0  0  0  0
 10 28  1  0  0  0  0
 11 16  1  0  0  0  0
 11 12  1  0  0  0  0
 11 41  1  0  0  0  0
 12 13  1  0  0  0  0
 12 29  1  0  0  0  0
 12 30  1  0  0  0  0
 13 14  1  0  0  0  0
 13 31  1  0  0  0  0
 13 32  1  0  0  0  0
 14 15  1  0  0  0  0
 14 33  1  0  0  0  0
 14 34  1  0  0  0  0
 15 16  1  0  0  0  0
 15 35  1  0  0  0  0
 15 36  1  0  0  0  0
 16 17  1  0  0  0  0
 16 37  1  0  0  0  0
 17 38  1  0  0  0  0
 17 39  1  0  0  0  0
 17 40  1  0  0  0  0
 18 19  1  0  0  0  0
M  CHG  1   8  -1
M  CHG  1  11   1
M  END
> <s_m_source_file>
AV-unprocessed.smi

> <i_m_source_file_index>
2079

> <i_lp_mmshare_version>
43012

> <i_f3d_flags>
0

> <s_epik_input>
W0NIM11jMVtjSF1jKG5vMSlbTkhdQyg9TylbTkhdW0NIMl1bQ0gyXU4yW0NIMl1bQ0gyXVtDSDJdW0NIMl1bQ0BIXTJbQ0gzXQ==

> <s_epik_cmdline>
J2VwaWtfcHl0aG9uJywgJy1waCcsICc3LjAnLCAnLXRuJywgJzgnLCAnLW1hJywgJzIwMCcsICctbWV0YWxfYmluZGluZycsICctaW1hZScsICc8aW5maWxlLm1hZT4nLCAnLW9tYWUnLCAnPG91dGZpbGUubWFlPic=

> <r_epik_Ionization_Penalty>
6.7666

> <r_epik_Ionization_Penalty_Charging>
6.7666

> <r_epik_Ionization_Penalty_Neutral>
5.77131e-06

> <r_epik_State_Penalty>
6.79217

> <r_epik_Charging_Adjusted_Penalty>
13.5588

> <i_epik_Tot_Q>
0

> <i_epik_Tot_abs_Q>
2

> <r_epik_Metal_State_Penalty>
2.72569

> <b_epik_Metal_Only>
1

> <s_lp_Force_Field>
OPLS_2005

> <r_lp_Energy>
14.3166

> <b_lp_Chiralities_Consistent>
1

> <s_lp_Variant>
AV-unprocessed.smi:2079-12

> <Gold.Version>
5.8.1

> <Gold.Id.Protein>
6NUR|6NUR_protein|mol2

> <Gold.PLP.Fitness>
37.6027

> <Gold.PLP.PLP>
-27.4735

> <Gold.PLP.part.hbond>
-4.0000

> <Gold.PLP.part.metal>
0.0000

> <Gold.PLP.part.buried>
-0.1046

> <Gold.PLP.part.nonpolar>
-24.0506

> <Gold.PLP.part.repulsive>
0.2316

> <Gold.PLP.ligand.clash>
0.0000

> <Gold.PLP.ligand.torsion>
0.6664

> <Gold.PLP.Chemscore.Hbond>
3.8056

> <Gold.PLP.Chemscore.CHOScore>
0.0000

> <Gold.PLP.Chemscore.Metal>
0.0000

> <Gold.Chemscore.Hbonds>
donor molecule, donor type, donor heavy atom, donor atom, acceptor molecule, acceptor atom, score
      L1  H    11    41       P1  7948  2.00
      P1  H  7989  7998       L1     7  0.71
      P1  H  7997  8010       L1    19  0.76

> <Gold.PLP.Chemscore.Internal.Correction>
0.0452

> <Gold.Rescore>
     Score         DG    S(hbond)    S(metal)    S(lipo)     H(rot)  DE(clash)    DE(int)     intcor
     12.93     -15.96       2.34        0.00      56.61       1.54       0.01       3.02       ----

> <Gold.Chemscore.Fitness>
12.9291

> <Gold.Chemscore.DG>
-15.9622

> <Gold.Chemscore.ZeroCoef>
-5.4800

> <Gold.Chemscore.Hbond>
2.3364

> <Gold.Chemscore.Metal>
0.0000

> <Gold.Chemscore.Lipo>
56.6082

> <Gold.Chemscore.Internal_Hbond>
0.0000

> <Gold.Chemscore.DEClash>
0.0144

> <Gold.Chemscore.DEInternal>
3.0187

> <Gold.Chemscore.Rot>
1.5409

> <Gold.Chemscore.Internal.Correction>
   9.000000E+99

> <Gold.Chemscore.Hbonds>
donor molecule, donor type, donor heavy atom, donor atom, acceptor molecule, acceptor atom, score
      L1  H    11    41       P1  7948  0.99
      P1  H  7989  7998       L1     7  0.29
      P1  H  7997  8010       L1    19  0.10

> <Gold.Chemscore.Hbond.Weighted>
-7.8037

> <Gold.Chemscore.Metal.Weighted>
-0.0000

> <Gold.Chemscore.Lipo.Weighted>
-6.6232

> <Gold.Chemscore.Internal_Hbond.Weighted>
0.0000

> <Gold.Chemscore.DEClash.Weighted>
0.0144

> <Gold.Chemscore.DEInternal.Weighted>
3.0187

> <Gold.Chemscore.Rot.Weighted>
3.9446

> <Gold.Chemscore.Internal.Correction.Weighted>
   9.000000E+99

> <Gold.Protein.RotatedTorsions>
[ 6907 6896 6895 6894 ] final -170.84 input  -60.11 | X-H torsion
[ 7974 7965 7964 7962 ] final -136.44 input  175.53 | X-H torsion
[ 8008 7997 7996 7995 ] final    3.88 input   59.86 | X-H torsion
[ 10167 10162 10161 10158 ] final -122.01 input  -65.29 | X-H torsion
[ 10718 10713 10712 10709 ] final -155.69 input   66.30 | X-H torsion
[ 10763 10752 10751 10750 ] final  -36.94 input  -60.55 | X-H torsion
[ 11005 11000 10999 10996 ] final   70.62 input  -57.11 | X-H torsion

> <Gold.Protein.ActiveResidues>
 VAL166  LYS551  ARG553  GLY616  TRP617  ASP618  TYR619  PRO620  LYS621  CYS622 
 ASP623  PHE694  ASN695  SER759  ASP760  ASP761  ALA762  ILE779  LEU786  VAL792 
 PHE793  MET794  SER795  GLU796  ALA797  LYS798  CYS799  TRP800  GLU811  SER814 

> <Gold.Protein.RotatedAtoms>
  151.5142  133.3479  159.2889 H   0  0  0  0  0  0  0  0  0  0  0  0  # atno 6907 bound_to 6896
  150.8693  134.8065  159.7153 H   0  0  0  0  0  0  0  0  0  0  0  0  # atno 6908 bound_to 6896
  152.4687  134.5024  159.9780 H   0  0  0  0  0  0  0  0  0  0  0  0  # atno 6909 bound_to 6896
  144.8927  140.6664  143.5135 H   0  0  0  0  0  0  0  0  0  0  0  0  # atno 7974 bound_to 7965
  154.7090  140.2689  155.6647 H   0  0  0  0  0  0  0  0  0  0  0  0  # atno 8008 bound_to 7997
  156.2789  140.2757  156.1650 H   0  0  0  0  0  0  0  0  0  0  0  0  # atno 8009 bound_to 7997
  155.0660  140.0371  157.2583 H   0  0  0  0  0  0  0  0  0  0  0  0  # atno 8010 bound_to 7997
  140.0189  143.5365  152.2230 H   0  0  0  0  0  0  0  0  0  0  0  0  # atno 10167 bound_to 10162
  156.5164  130.8458  151.2665 H   0  0  0  0  0  0  0  0  0  0  0  0  # atno 10718 bound_to 10713
  153.8881  135.6815  153.4762 H   0  0  0  0  0  0  0  0  0  0  0  0  # atno 10763 bound_to 10752
  153.1196  135.4746  154.9171 H   0  0  0  0  0  0  0  0  0  0  0  0  # atno 10764 bound_to 10752
  154.7636  135.3218  154.8283 H   0  0  0  0  0  0  0  0  0  0  0  0  # atno 10765 bound_to 10752
  139.9588  134.7098  156.0693 H   0  0  0  0  0  0  0  0  0  0  0  0  # atno 11005 bound_to 11000
  145.3754  139.1649  143.4309 LP  0  0  0  0  0  0  0  0  0  0  0  0  # atno 17320 bound_to 7965
  146.3063  140.3830  142.8686 LP  0  0  0  0  0  0  0  0  0  0  0  0  # atno 17321 bound_to 7965
  139.6153  144.7618  151.2859 LP  0  0  0  0  0  0  0  0  0  0  0  0  # atno 17342 bound_to 10162
  140.7351  143.6747  150.8051 LP  0  0  0  0  0  0  0  0  0  0  0  0  # atno 17343 bound_to 10162
  157.7443  130.9932  150.2664 LP  0  0  0  0  0  0  0  0  0  0  0  0  # atno 17370 bound_to 10713
  156.3191  130.3783  149.7591 LP  0  0  0  0  0  0  0  0  0  0  0  0  # atno 17371 bound_to 10713
  141.1263  133.6598  156.3344 LP  0  0  0  0  0  0  0  0  0  0  0  0  # atno 17394 bound_to 11000
  140.5548  134.5992  157.5418 LP  0  0  0  0  0  0  0  0  0  0  0  0  # atno 17395 bound_to 11000

$$$$
