AV-unprocessed.smi:1821|AV-procd|sdf|7386|dock5
  -GOLD-   22720 9 53D 1   1.00000     0.00000
 Structure written by MMmdl.
 35 37  0  0  0  0  0  0  0  0  1 V2000
  153.3145  139.0031  158.5719 C   0  0  0  0  0  0  0  0  0  0  0  0
  153.1458  140.2001  159.4529 C   0  0  0  0  0  0  0  0  0  0  0  0
  153.7412  140.2964  160.6420 N   0  0  0  0  0  0  0  0  0  0  0  0
  153.3181  141.5318  161.0931 C   0  0  0  0  0  0  0  0  0  0  0  0
  153.6016  142.2173  162.2960 C   0  0  0  0  0  0  0  0  0  0  0  0
  153.0456  143.4903  162.5404 C   0  0  0  0  0  0  0  0  0  0  0  0
  152.2002  144.0952  161.5876 C   0  0  0  0  0  0  0  0  0  0  0  0
  151.9057  143.4301  160.3819 C   0  0  0  0  0  0  0  0  0  0  0  0
  152.4631  142.1595  160.1434 C   0  0  0  0  0  0  0  0  0  0  0  0
  152.3775  141.2566  159.0889 N   0  0  0  0  0  0  0  0  0  0  0  0
  151.6143  141.4387  157.8617 C   0  0  0  0  0  0  0  0  0  0  0  0
  150.2234  140.7749  157.9230 C   0  0  2  0  0  0  0  0  0  0  0  0
  150.3484  139.3964  158.2179 O   0  0  0  0  0  0  0  0  0  0  0  0
  149.4287  141.0289  156.6464 C   0  0  0  0  0  0  0  0  0  0  0  0
  148.1958  141.7235  156.6869 C   0  0  0  0  0  0  0  0  0  0  0  0
  147.6957  142.1732  157.8631 F   0  0  0  0  0  0  0  0  0  0  0  0
  147.4690  141.9511  155.5024 C   0  0  0  0  0  0  0  0  0  0  0  0
  147.9608  141.4834  154.2699 C   0  0  0  0  0  0  0  0  0  0  0  0
  149.1800  140.7830  154.2227 C   0  0  0  0  0  0  0  0  0  0  0  0
  149.9113  140.5538  155.4044 C   0  0  0  0  0  0  0  0  0  0  0  0
  151.0793  139.8704  155.3353 F   0  0  0  0  0  0  0  0  0  0  0  0
  153.8875  138.2292  159.0835 H   0  0  0  0  0  0  0  0  0  0  0  0
  153.8457  139.2787  157.6606 H   0  0  0  0  0  0  0  0  0  0  0  0
  152.3431  138.5880  158.3034 H   0  0  0  0  0  0  0  0  0  0  0  0
  154.2482  141.7628  163.0320 H   0  0  0  0  0  0  0  0  0  0  0  0
  153.2695  144.0051  163.4633 H   0  0  0  0  0  0  0  0  0  0  0  0
  151.7784  145.0703  161.7827 H   0  0  0  0  0  0  0  0  0  0  0  0
  151.2589  143.8900  159.6495 H   0  0  0  0  0  0  0  0  0  0  0  0
  151.5041  142.5107  157.6933 H   0  0  0  0  0  0  0  0  0  0  0  0
  152.1873  141.0590  157.0161 H   0  0  0  0  0  0  0  0  0  0  0  0
  149.6774  141.2031  158.7637 H   0  0  0  0  0  0  0  0  0  0  0  0
  151.2523  139.2142  158.4246 H   0  0  0  0  0  0  0  0  0  0  0  0
  146.5304  142.4842  155.5404 H   0  0  0  0  0  0  0  0  0  0  0  0
  147.4015  141.6583  153.3628 H   0  0  0  0  0  0  0  0  0  0  0  0
  149.5555  140.4193  153.2775 H   0  0  0  0  0  0  0  0  0  0  0  0
  1  2  1  0  0  0  0
  1 22  1  0  0  0  0
  1 23  1  0  0  0  0
  1 24  1  0  0  0  0
  2 10  1  0  0  0  0
  2  3  2  0  0  0  0
  3  4  1  0  0  0  0
  4  9  2  0  0  0  0
  4  5  1  0  0  0  0
  5  6  2  0  0  0  0
  5 25  1  0  0  0  0
  6  7  1  0  0  0  0
  6 26  1  0  0  0  0
  7  8  2  0  0  0  0
  7 27  1  0  0  0  0
  8  9  1  0  0  0  0
  8 28  1  0  0  0  0
  9 10  1  0  0  0  0
 10 11  1  0  0  0  0
 11 12  1  0  0  0  0
 11 29  1  0  0  0  0
 11 30  1  0  0  0  0
 12 13  1  0  0  0  0
 12 14  1  0  0  0  0
 12 31  1  0  0  0  0
 13 32  1  0  0  0  0
 14 20  1  0  0  0  0
 14 15  2  0  0  0  0
 15 16  1  0  0  0  0
 15 17  1  0  0  0  0
 17 18  2  0  0  0  0
 17 33  1  0  0  0  0
 18 19  1  0  0  0  0
 18 34  1  0  0  0  0
 19 20  2  0  0  0  0
 19 35  1  0  0  0  0
 20 21  1  0  0  0  0
M  END
> <s_m_source_file>
AV-unprocessed.smi

> <i_m_source_file_index>
1821

> <i_lp_mmshare_version>
43012

> <i_f3d_flags>
0

> <s_epik_input>
W2NIXTFbY0hdW2NIXVtjSF1jKGMxMiluKGMobjIpW0NIM10pW0NIMl1bQ0BIXShbT0hdKWMzYyhGKVtjSF1bY0hdW2NIXWMzRg==

> <s_epik_cmdline>
J2VwaWtfcHl0aG9uJywgJy1waCcsICc3LjAnLCAnLXRuJywgJzgnLCAnLW1hJywgJzIwMCcsICctbWV0YWxfYmluZGluZycsICctaW1hZScsICc8aW5maWxlLm1hZT4nLCAnLW9tYWUnLCAnPG91dGZpbGUubWFlPic=

> <r_epik_Ionization_Penalty>
0.129663

> <r_epik_Ionization_Penalty_Charging>
0

> <r_epik_Ionization_Penalty_Neutral>
0.129663

> <r_epik_State_Penalty>
0.119073

> <r_epik_Charging_Adjusted_Penalty>
0.119073

> <i_epik_Tot_Q>
0

> <i_epik_Tot_abs_Q>
0

> <r_epik_Metal_State_Penalty>
0.000131867

> <b_epik_Metal_Only>
0

> <s_lp_Force_Field>
OPLS_2005

> <r_lp_Energy>
13.297

> <b_lp_Chiralities_Consistent>
1

> <s_lp_Variant>
AV-unprocessed.smi:1821-1

> <Gold.Version>
5.8.1

> <Gold.Id.Protein>
6NUR|6NUR_protein|mol2

> <Gold.PLP.Fitness>
44.6666

> <Gold.PLP.PLP>
-45.3477

> <Gold.PLP.part.hbond>
0.0000

> <Gold.PLP.part.metal>
0.0000

> <Gold.PLP.part.buried>
-2.1235

> <Gold.PLP.part.nonpolar>
-41.3206

> <Gold.PLP.part.repulsive>
0.0000

> <Gold.PLP.ligand.clash>
0.0000

> <Gold.PLP.ligand.torsion>
0.3575

> <Gold.PLP.Chemscore.Hbond>
0.0000

> <Gold.PLP.Chemscore.CHOScore>
0.0000

> <Gold.PLP.Chemscore.Metal>
0.0000

> <Gold.PLP.Chemscore.Internal.Correction>
0.0338

> <Gold.Rescore>
     Score         DG    S(hbond)    S(metal)    S(lipo)     H(rot)  DE(clash)    DE(int)     intcor
     12.09     -13.75       0.00        0.00     111.91       1.88       0.05       1.61       ----

> <Gold.Chemscore.Fitness>
12.0908

> <Gold.Chemscore.DG>
-13.7503

> <Gold.Chemscore.ZeroCoef>
-5.4800

> <Gold.Chemscore.Hbond>
0.0000

> <Gold.Chemscore.Metal>
0.0000

> <Gold.Chemscore.Lipo>
111.9064

> <Gold.Chemscore.Internal_Hbond>
0.0000

> <Gold.Chemscore.DEClash>
0.0538

> <Gold.Chemscore.DEInternal>
1.6057

> <Gold.Chemscore.Rot>
1.8839

> <Gold.Chemscore.Internal.Correction>
   9.000000E+99

> <Gold.Chemscore.Hbond.Weighted>
-0.0000

> <Gold.Chemscore.Metal.Weighted>
-0.0000

> <Gold.Chemscore.Lipo.Weighted>
-13.0931

> <Gold.Chemscore.Internal_Hbond.Weighted>
0.0000

> <Gold.Chemscore.DEClash.Weighted>
0.0538

> <Gold.Chemscore.DEInternal.Weighted>
1.6057

> <Gold.Chemscore.Rot.Weighted>
4.8227

> <Gold.Chemscore.Internal.Correction.Weighted>
   9.000000E+99

> <Gold.Protein.RotatedTorsions>
[ 6907 6896 6895 6894 ] final  106.46 input  -60.11 | X-H torsion
[ 7974 7965 7964 7962 ] final  -51.31 input  175.53 | X-H torsion
[ 8008 7997 7996 7995 ] final   67.28 input   59.86 | X-H torsion
[ 10167 10162 10161 10158 ] final  -27.59 input  -65.29 | X-H torsion
[ 10718 10713 10712 10709 ] final -125.07 input   66.30 | X-H torsion
[ 10763 10752 10751 10750 ] final   39.44 input  -60.55 | X-H torsion
[ 11005 11000 10999 10996 ] final  -80.60 input  -57.11 | X-H torsion

> <Gold.Protein.ActiveResidues>
 VAL166  LYS551  ARG553  GLY616  TRP617  ASP618  TYR619  PRO620  LYS621  CYS622 
 ASP623  PHE694  ASN695  SER759  ASP760  ASP761  ALA762  ILE779  LEU786  VAL792 
 PHE793  MET794  SER795  GLU796  ALA797  LYS798  CYS799  TRP800  GLU811  SER814 

> <Gold.Protein.RotatedAtoms>
  152.5193  133.9378  159.7611 H   0  0  0  0  0  0  0  0  0  0  0  0  # atno 6907 bound_to 6896
  150.9714  133.6331  159.2744 H   0  0  0  0  0  0  0  0  0  0  0  0  # atno 6908 bound_to 6896
  151.3541  135.0896  159.9466 H   0  0  0  0  0  0  0  0  0  0  0  0  # atno 6909 bound_to 6896
  145.9204  140.7838  142.9650 H   0  0  0  0  0  0  0  0  0  0  0  0  # atno 7974 bound_to 7965
  155.6904  140.3496  155.4891 H   0  0  0  0  0  0  0  0  0  0  0  0  # atno 8008 bound_to 7997
  155.9529  140.1122  157.0984 H   0  0  0  0  0  0  0  0  0  0  0  0  # atno 8009 bound_to 7997
  154.4126  140.1190  156.5063 H   0  0  0  0  0  0  0  0  0  0  0  0  # atno 8010 bound_to 7997
  140.7276  143.4081  151.1151 H   0  0  0  0  0  0  0  0  0  0  0  0  # atno 10167 bound_to 10162
  156.1643  130.6623  151.0093 H   0  0  0  0  0  0  0  0  0  0  0  0  # atno 10718 bound_to 10713
  152.9967  135.6220  154.2465 H   0  0  0  0  0  0  0  0  0  0  0  0  # atno 10763 bound_to 10752
  154.2204  135.2796  155.2928 H   0  0  0  0  0  0  0  0  0  0  0  0  # atno 10764 bound_to 10752
  154.5533  135.5727  153.7000 H   0  0  0  0  0  0  0  0  0  0  0  0  # atno 10765 bound_to 10752
  141.1668  133.7158  156.8297 H   0  0  0  0  0  0  0  0  0  0  0  0  # atno 11005 bound_to 11000
  144.6752  140.1967  143.7391 LP  0  0  0  0  0  0  0  0  0  0  0  0  # atno 17320 bound_to 7965
  145.8557  139.2197  143.1746 LP  0  0  0  0  0  0  0  0  0  0  0  0  # atno 17321 bound_to 7965
  139.7710  143.8494  152.3120 LP  0  0  0  0  0  0  0  0  0  0  0  0  # atno 17342 bound_to 10162
  139.8412  144.7209  150.9328 LP  0  0  0  0  0  0  0  0  0  0  0  0  # atno 17343 bound_to 10162
  157.6756  131.0851  150.7503 LP  0  0  0  0  0  0  0  0  0  0  0  0  # atno 17370 bound_to 10713
  156.7564  130.4785  149.5446 LP  0  0  0  0  0  0  0  0  0  0  0  0  # atno 17371 bound_to 10713
  140.2060  134.8862  157.3221 LP  0  0  0  0  0  0  0  0  0  0  0  0  # atno 17394 bound_to 11000
  140.2137  134.4107  155.7600 LP  0  0  0  0  0  0  0  0  0  0  0  0  # atno 17395 bound_to 11000

$$$$
