AV-unprocessed.smi:1824|AV-procd|sdf|7406|dock5
  -GOLD-   22720 9 83D 1   1.00000     0.00000
 Structure written by MMmdl.
 45 47  0  0  0  0  0  0  0  0  2 V2000
  147.3265  134.0866  153.5017 C   0  0  0  0  0  0  0  0  0  0  0  0
  145.8833  134.5936  153.6724 C   0  0  1  0  0  0  0  0  0  0  0  0
  145.7655  136.1300  153.6588 C   0  0  0  0  0  0  0  0  0  0  0  0
  145.9507  136.6647  152.2875 N   0  3  2  0  0  0  0  0  0  0  0  0
  145.9243  138.1481  152.2165 C   0  0  0  0  0  0  0  0  0  0  0  0
  146.9174  138.7990  153.1996 C   0  0  1  0  0  0  0  0  0  0  0  0
  148.2329  138.4333  152.8269 O   0  0  0  0  0  0  0  0  0  0  0  0
  146.7938  140.3350  153.2108 C   0  0  0  0  0  0  0  0  0  0  0  0
  147.2369  140.9176  154.4653 N   0  0  0  0  0  0  0  0  0  0  0  0
  146.4899  141.6186  155.3401 C   0  0  0  0  0  0  0  0  0  0  0  0
  147.0935  142.0620  156.4387 N   0  0  0  0  0  0  0  0  0  0  0  0
  148.3837  141.5947  156.2576 C   0  0  0  0  0  0  0  0  0  0  0  0
  149.5290  141.7233  157.0753 C   0  0  0  0  0  0  0  0  0  0  0  0
  150.7565  141.1508  156.6816 C   0  0  0  0  0  0  0  0  0  0  0  0
  151.8435  141.2809  157.4786 F   0  0  0  0  0  0  0  0  0  0  0  0
  150.8573  140.4437  155.4651 C   0  0  0  0  0  0  0  0  0  0  0  0
  152.0391  139.8960  155.0951 F   0  0  0  0  0  0  0  0  0  0  0  0
  149.7302  140.3043  154.6327 C   0  0  0  0  0  0  0  0  0  0  0  0
  148.5072  140.8753  155.0306 C   0  0  0  0  0  0  0  0  0  0  0  0
  144.9921  136.0280  151.3558 C   0  0  0  0  0  0  0  0  0  0  0  0
  145.1583  134.4976  151.3806 C   0  0  2  0  0  0  0  0  0  0  0  0
  144.1249  133.7919  150.4953 C   0  0  0  0  0  0  0  0  0  0  0  0
  144.9910  134.0235  152.7146 O   0  0  0  0  0  0  0  0  0  0  0  0
  147.9568  134.4323  154.3212 H   0  0  0  0  0  0  0  0  0  0  0  0
  147.7828  134.4345  152.5752 H   0  0  0  0  0  0  0  0  0  0  0  0
  147.3577  132.9968  153.5017 H   0  0  0  0  0  0  0  0  0  0  0  0
  145.5420  134.2447  154.6475 H   0  0  0  0  0  0  0  0  0  0  0  0
  144.7797  136.4232  154.0242 H   0  0  0  0  0  0  0  0  0  0  0  0
  146.4930  136.5581  154.3475 H   0  0  0  0  0  0  0  0  0  0  0  0
  146.1730  138.4745  151.2052 H   0  0  0  0  0  0  0  0  0  0  0  0
  144.9088  138.4986  152.4066 H   0  0  0  0  0  0  0  0  0  0  0  0
  146.7412  138.4343  154.2112 H   0  0  0  0  0  0  0  0  0  0  0  0
  148.4572  138.8795  152.0244 H   0  0  0  0  0  0  0  0  0  0  0  0
  147.3711  140.7752  152.3965 H   0  0  0  0  0  0  0  0  0  0  0  0
  145.7557  140.6284  153.0491 H   0  0  0  0  0  0  0  0  0  0  0  0
  145.4421  141.8119  155.1611 H   0  0  0  0  0  0  0  0  0  0  0  0
  149.4639  142.2624  158.0089 H   0  0  0  0  0  0  0  0  0  0  0  0
  149.8061  139.7628  153.7018 H   0  0  0  0  0  0  0  0  0  0  0  0
  143.9738  136.3069  151.6326 H   0  0  0  0  0  0  0  0  0  0  0  0
  145.1613  136.3954  150.3428 H   0  0  0  0  0  0  0  0  0  0  0  0
  146.1509  134.2314  151.0167 H   0  0  0  0  0  0  0  0  0  0  0  0
  144.2144  134.1100  149.4564 H   0  0  0  0  0  0  0  0  0  0  0  0
  143.1079  134.0065  150.8247 H   0  0  0  0  0  0  0  0  0  0  0  0
  144.2617  132.7104  150.5233 H   0  0  0  0  0  0  0  0  0  0  0  0
  146.8717  136.3846  151.9803 H   0  0  0  0  0  0  0  0  0  0  0  0
  1  2  1  0  0  0  0
  1 24  1  0  0  0  0
  1 25  1  0  0  0  0
  1 26  1  0  0  0  0
  2 23  1  0  0  0  0
  2  3  1  0  0  0  0
  2 27  1  0  0  0  0
  3  4  1  0  0  0  0
  3 28  1  0  0  0  0
  3 29  1  0  0  0  0
  4  5  1  0  0  0  0
  4 20  1  0  0  0  0
  4 45  1  0  0  0  0
  5  6  1  0  0  0  0
  5 30  1  0  0  0  0
  5 31  1  0  0  0  0
  6  7  1  0  0  0  0
  6  8  1  0  0  0  0
  6 32  1  0  0  0  0
  7 33  1  0  0  0  0
  8  9  1  0  0  0  0
  8 34  1  0  0  0  0
  8 35  1  0  0  0  0
  9 19  1  0  0  0  0
  9 10  1  0  0  0  0
 10 11  2  0  0  0  0
 10 36  1  0  0  0  0
 11 12  1  0  0  0  0
 12 19  2  0  0  0  0
 12 13  1  0  0  0  0
 13 14  2  0  0  0  0
 13 37  1  0  0  0  0
 14 15  1  0  0  0  0
 14 16  1  0  0  0  0
 16 17  1  0  0  0  0
 16 18  2  0  0  0  0
 18 19  1  0  0  0  0
 18 38  1  0  0  0  0
 20 21  1  0  0  0  0
 20 39  1  0  0  0  0
 20 40  1  0  0  0  0
 21 22  1  0  0  0  0
 21 23  1  0  0  0  0
 21 41  1  0  0  0  0
 22 42  1  0  0  0  0
 22 43  1  0  0  0  0
 22 44  1  0  0  0  0
M  CHG  1   4   1
M  END
> <s_m_source_file>
AV-unprocessed.smi

> <i_m_source_file_index>
1824

> <i_lp_mmshare_version>
43012

> <i_f3d_flags>
0

> <s_epik_input>
W0NIM11bQ0BASF0xW0NIMl1OKFtDSDJdW0NASF0oTzEpW0NIM10pW0NIMl1bQ0BIXShbT0hdKVtDSDJdbihbY0hdbjIpYyhjMjMpW2NIXWMoRiljKEYpW2NIXTM=

> <s_epik_cmdline>
J2VwaWtfcHl0aG9uJywgJy1waCcsICc3LjAnLCAnLXRuJywgJzgnLCAnLW1hJywgJzIwMCcsICctbWV0YWxfYmluZGluZycsICctaW1hZScsICc8aW5maWxlLm1hZT4nLCAnLW9tYWUnLCAnPG91dGZpbGUubWFlPic=

> <r_epik_Ionization_Penalty>
0.61967

> <r_epik_Ionization_Penalty_Charging>
0.608065

> <r_epik_Ionization_Penalty_Neutral>
0.0116057

> <r_epik_State_Penalty>
0.664205

> <r_epik_Charging_Adjusted_Penalty>
1.27227

> <i_epik_Tot_Q>
1

> <i_epik_Tot_abs_Q>
1

> <r_epik_Metal_State_Penalty>
0.654947

> <b_epik_Metal_Only>
0

> <s_lp_Force_Field>
OPLS_2005

> <r_lp_Energy>
22.8883

> <b_lp_Chiralities_Consistent>
1

> <s_lp_Variant>
AV-unprocessed.smi:1824-14

> <Gold.Version>
5.8.1

> <Gold.Id.Protein>
6NUR|6NUR_protein|mol2

> <Gold.PLP.Fitness>
48.0495

> <Gold.PLP.PLP>
-39.6053

> <Gold.PLP.part.hbond>
-2.6459

> <Gold.PLP.part.metal>
0.0000

> <Gold.PLP.part.buried>
-0.6053

> <Gold.PLP.part.nonpolar>
-36.9552

> <Gold.PLP.part.repulsive>
0.7608

> <Gold.PLP.ligand.clash>
0.0000

> <Gold.PLP.ligand.torsion>
0.3102

> <Gold.PLP.Chemscore.Hbond>
3.0000

> <Gold.PLP.Chemscore.CHOScore>
0.0000

> <Gold.PLP.Chemscore.Metal>
0.0000

> <Gold.Chemscore.Hbonds>
donor molecule, donor type, donor heavy atom, donor atom, acceptor molecule, acceptor atom, score
      L1  H     4    45       P1  7948  1.82
      L1  H     7    33       P1  7957  0.98

> <Gold.PLP.Chemscore.Internal.Correction>
0.0646

> <Gold.Rescore>
     Score         DG    S(hbond)    S(metal)    S(lipo)     H(rot)  DE(clash)    DE(int)     intcor
     13.90     -15.50       1.92        0.00      81.67       2.33       0.18       1.42       ----

> <Gold.Chemscore.Fitness>
13.9041

> <Gold.Chemscore.DG>
-15.5044

> <Gold.Chemscore.ZeroCoef>
-5.4800

> <Gold.Chemscore.Hbond>
1.9226

> <Gold.Chemscore.Metal>
0.0000

> <Gold.Chemscore.Lipo>
81.6687

> <Gold.Chemscore.Internal_Hbond>
0.0000

> <Gold.Chemscore.DEClash>
0.1772

> <Gold.Chemscore.DEInternal>
1.4231

> <Gold.Chemscore.Rot>
2.3251

> <Gold.Chemscore.Internal.Correction>
   9.000000E+99

> <Gold.Chemscore.Hbonds>
donor molecule, donor type, donor heavy atom, donor atom, acceptor molecule, acceptor atom, score
      L1  H     4    45       P1  7948  0.87
      L1  H     7    33       P1  7957  0.88

> <Gold.Chemscore.Hbond.Weighted>
-6.4215

> <Gold.Chemscore.Metal.Weighted>
-0.0000

> <Gold.Chemscore.Lipo.Weighted>
-9.5552

> <Gold.Chemscore.Internal_Hbond.Weighted>
0.0000

> <Gold.Chemscore.DEClash.Weighted>
0.1772

> <Gold.Chemscore.DEInternal.Weighted>
1.4231

> <Gold.Chemscore.Rot.Weighted>
5.9523

> <Gold.Chemscore.Internal.Correction.Weighted>
   9.000000E+99

> <Gold.Protein.RotatedTorsions>
[ 6907 6896 6895 6894 ] final -147.72 input  -60.11 | X-H torsion
[ 7974 7965 7964 7962 ] final   35.35 input  175.53 | X-H torsion
[ 8008 7997 7996 7995 ] final   69.28 input   59.86 | X-H torsion
[ 10167 10162 10161 10158 ] final  -52.07 input  -65.29 | X-H torsion
[ 10718 10713 10712 10709 ] final  138.76 input   66.30 | X-H torsion
[ 10763 10752 10751 10750 ] final  -85.44 input  -60.55 | X-H torsion
[ 11005 11000 10999 10996 ] final -162.98 input  -57.11 | X-H torsion

> <Gold.Protein.ActiveResidues>
 VAL166  LYS551  ARG553  GLY616  TRP617  ASP618  TYR619  PRO620  LYS621  CYS622 
 ASP623  PHE694  ASN695  SER759  ASP760  ASP761  ALA762  ILE779  LEU786  VAL792 
 PHE793  MET794  SER795  GLU796  ALA797  LYS798  CYS799  TRP800  GLU811  SER814 

> <Gold.Protein.RotatedAtoms>
  151.1596  133.4853  159.2594 H   0  0  0  0  0  0  0  0  0  0  0  0  # atno 6907 bound_to 6896
  151.1468  135.0207  159.8660 H   0  0  0  0  0  0  0  0  0  0  0  0  # atno 6908 bound_to 6896
  152.5463  134.1484  159.8561 H   0  0  0  0  0  0  0  0  0  0  0  0  # atno 6909 bound_to 6896
  146.1289  139.6154  142.9240 H   0  0  0  0  0  0  0  0  0  0  0  0  # atno 7974 bound_to 7965
  155.7212  140.3493  155.5017 H   0  0  0  0  0  0  0  0  0  0  0  0  # atno 8008 bound_to 7997
  155.9268  140.1077  157.1185 H   0  0  0  0  0  0  0  0  0  0  0  0  # atno 8009 bound_to 7997
  154.4078  140.1239  156.4737 H   0  0  0  0  0  0  0  0  0  0  0  0  # atno 8010 bound_to 7997
  140.6556  143.2597  151.4595 H   0  0  0  0  0  0  0  0  0  0  0  0  # atno 10167 bound_to 10162
  157.4218  131.1039  151.0345 H   0  0  0  0  0  0  0  0  0  0  0  0  # atno 10718 bound_to 10713
  154.6111  135.5485  153.7475 H   0  0  0  0  0  0  0  0  0  0  0  0  # atno 10763 bound_to 10752
  153.0196  135.6390  154.1576 H   0  0  0  0  0  0  0  0  0  0  0  0  # atno 10764 bound_to 10752
  154.1514  135.2902  155.3114 H   0  0  0  0  0  0  0  0  0  0  0  0  # atno 10765 bound_to 10752
  140.6032  134.4926  157.5207 H   0  0  0  0  0  0  0  0  0  0  0  0  # atno 11005 bound_to 11000
  145.5304  141.0427  143.2386 LP  0  0  0  0  0  0  0  0  0  0  0  0  # atno 17320 bound_to 7965
  144.7670  139.6821  143.7210 LP  0  0  0  0  0  0  0  0  0  0  0  0  # atno 17321 bound_to 7965
  139.5778  144.1779  152.1927 LP  0  0  0  0  0  0  0  0  0  0  0  0  # atno 17342 bound_to 10162
  140.1095  144.5470  150.6935 LP  0  0  0  0  0  0  0  0  0  0  0  0  # atno 17343 bound_to 10162
  157.1272  130.6087  149.5520 LP  0  0  0  0  0  0  0  0  0  0  0  0  # atno 17370 bound_to 10713
  155.9883  130.4926  150.7165 LP  0  0  0  0  0  0  0  0  0  0  0  0  # atno 17371 bound_to 10713
  139.9223  134.8124  156.1172 LP  0  0  0  0  0  0  0  0  0  0  0  0  # atno 17394 bound_to 11000
  141.0858  133.6735  156.2433 LP  0  0  0  0  0  0  0  0  0  0  0  0  # atno 17395 bound_to 11000

$$$$
