AV-unprocessed.smi:2424|AV-procd|sdf|9564|dock1
  -GOLD-   2272013193D 1   1.00000     0.00000
 Structure written by MMmdl.
 50 51  0  0  0  0  0  0  0  0  1 V2000
  147.7579  138.9600  157.5368 C   0  0  0  0  0  0  0  0  0  0  0  0
  148.8006  138.3298  156.5976 C   0  0  0  0  0  0  0  0  0  0  0  0
  148.8988  138.9121  155.1663 C   0  0  0  0  0  0  0  0  0  0  0  0
  150.1057  138.2144  154.4755 C   0  0  0  0  0  0  0  0  0  0  0  0
  151.4967  138.5047  155.0707 C   0  0  0  0  0  0  0  0  0  0  0  0
  147.5820  138.9624  154.3319 C   0  0  2  0  0  0  0  0  0  0  0  0
  147.4574  137.9287  153.3095 N   0  0  0  0  0  0  0  0  0  0  0  0
  146.4483  137.0504  153.2388 C   0  0  0  0  0  0  0  0  0  0  0  0
  145.5121  137.0385  154.0368 O   0  0  0  0  0  0  0  0  0  0  0  0
  146.6191  136.2084  152.2035 N   0  0  0  0  0  0  0  0  0  0  0  0
  145.8091  135.1449  151.7812 C   0  0  0  0  0  0  0  0  0  0  0  0
  144.6514  135.4469  151.1682 C   0  0  0  0  0  0  0  0  0  0  0  0
  143.7829  134.4535  150.7102 N   0  0  0  0  0  0  0  0  0  0  0  0
  144.0128  133.1267  150.8342 C   0  0  0  0  0  0  0  0  0  0  0  0
  143.2007  132.3107  150.4018 O   0  0  0  0  0  0  0  0  0  0  0  0
  145.2705  132.7627  151.5068 C   0  0  0  0  0  0  0  0  0  0  0  0
  145.5827  131.2874  151.6848 C   0  0  0  0  0  0  0  0  0  0  0  0
  146.1107  133.7268  151.9500 C   0  0  0  0  0  0  0  0  0  0  0  0
  148.0116  140.3125  153.7499 C   0  0  1  0  0  0  0  0  0  0  0  0
  146.9349  141.3339  153.4057 C   0  0  0  0  0  0  0  0  0  0  0  0
  148.8285  140.4616  155.0437 C   0  0  2  0  0  0  0  0  0  0  0  0
  150.0957  141.0771  154.8718 O   0  0  0  0  0  0  0  0  0  0  0  0
  150.8066  141.2578  156.0837 C   0  0  0  0  0  0  0  0  0  0  0  0
  142.9336  134.7589  150.2574 H   0  0  0  0  0  0  0  0  0  0  0  0
  147.8484  138.5371  158.5375 H   0  0  0  0  0  0  0  0  0  0  0  0
  146.7403  138.7603  157.2023 H   0  0  0  0  0  0  0  0  0  0  0  0
  147.8838  140.0379  157.6303 H   0  0  0  0  0  0  0  0  0  0  0  0
  149.7687  138.4220  157.0902 H   0  0  0  0  0  0  0  0  0  0  0  0
  148.5929  137.2597  156.5519 H   0  0  0  0  0  0  0  0  0  0  0  0
  149.9642  137.1333  154.4880 H   0  0  0  0  0  0  0  0  0  0  0  0
  150.1407  138.4809  153.4193 H   0  0  0  0  0  0  0  0  0  0  0  0
  152.2717  138.0426  154.4591 H   0  0  0  0  0  0  0  0  0  0  0  0
  151.6026  138.0959  156.0752 H   0  0  0  0  0  0  0  0  0  0  0  0
  151.7160  139.5699  155.1180 H   0  0  0  0  0  0  0  0  0  0  0  0
  146.6765  139.0873  154.9273 H   0  0  0  0  0  0  0  0  0  0  0  0
  148.1918  137.8756  152.6189 H   0  0  0  0  0  0  0  0  0  0  0  0
  147.4507  136.3494  151.6492 H   0  0  0  0  0  0  0  0  0  0  0  0
  144.3053  136.4526  150.9792 H   0  0  0  0  0  0  0  0  0  0  0  0
  146.5365  131.1396  152.1918 H   0  0  0  0  0  0  0  0  0  0  0  0
  145.6360  130.7899  150.7160 H   0  0  0  0  0  0  0  0  0  0  0  0
  144.8071  130.8023  152.2783 H   0  0  0  0  0  0  0  0  0  0  0  0
  147.0153  133.4069  152.4401 H   0  0  0  0  0  0  0  0  0  0  0  0
  148.6850  140.1647  152.9037 H   0  0  0  0  0  0  0  0  0  0  0  0
  146.3112  141.5623  154.2704 H   0  0  0  0  0  0  0  0  0  0  0  0
  146.2802  140.9615  152.6179 H   0  0  0  0  0  0  0  0  0  0  0  0
  147.3679  142.2698  153.0547 H   0  0  0  0  0  0  0  0  0  0  0  0
  148.2516  140.9194  155.8494 H   0  0  0  0  0  0  0  0  0  0  0  0
  151.7905  141.6738  155.8680 H   0  0  0  0  0  0  0  0  0  0  0  0
  150.9496  140.3109  156.6055 H   0  0  0  0  0  0  0  0  0  0  0  0
  150.2920  141.9518  156.7471 H   0  0  0  0  0  0  0  0  0  0  0  0
  1  2  1  0  0  0  0
  1 25  1  0  0  0  0
  1 26  1  0  0  0  0
  1 27  1  0  0  0  0
  2  3  1  0  0  0  0
  2 28  1  0  0  0  0
  2 29  1  0  0  0  0
  3 21  1  0  0  0  0
  3  4  1  0  0  0  0
  3  6  1  0  0  0  0
  4  5  1  0  0  0  0
  4 30  1  0  0  0  0
  4 31  1  0  0  0  0
  5 32  1  0  0  0  0
  5 33  1  0  0  0  0
  5 34  1  0  0  0  0
  6  7  1  0  0  0  0
  6 19  1  0  0  0  0
  6 35  1  0  0  0  0
  7  8  1  0  0  0  0
  7 36  1  0  0  0  0
  8  9  2  0  0  0  0
  8 10  1  0  0  0  0
 10 11  1  0  0  0  0
 10 37  1  0  0  0  0
 11 18  1  0  0  0  0
 11 12  2  0  0  0  0
 12 13  1  0  0  0  0
 12 38  1  0  0  0  0
 13 24  1  0  0  0  0
 13 14  1  0  0  0  0
 14 15  2  0  0  0  0
 14 16  1  0  0  0  0
 16 17  1  0  0  0  0
 16 18  2  0  0  0  0
 17 39  1  0  0  0  0
 17 40  1  0  0  0  0
 17 41  1  0  0  0  0
 18 42  1  0  0  0  0
 19 20  1  0  0  0  0
 19 21  1  0  0  0  0
 19 43  1  0  0  0  0
 20 44  1  0  0  0  0
 20 45  1  0  0  0  0
 20 46  1  0  0  0  0
 21 22  1  0  0  0  0
 21 47  1  0  0  0  0
 22 23  1  0  0  0  0
 23 48  1  0  0  0  0
 23 49  1  0  0  0  0
 23 50  1  0  0  0  0
M  END
> <s_m_source_file>
AV-unprocessed.smi

> <i_m_source_file_index>
2424

> <i_lp_mmshare_version>
43012

> <i_f3d_flags>
0

> <s_epik_input>
W0NIM11PW0NAQEhdMVtDQEhdKFtDSDNdKVtDQEBIXShDMShbQ0gyXVtDSDNdKVtDSDJdW0NIM10pW05IXUMoPU8pW05IXWMyW2NIXVtuSF1jKD1PKWMoW0NIM10pW2NIXTI=

> <s_epik_cmdline>
J2VwaWtfcHl0aG9uJywgJy1waCcsICc3LjAnLCAnLXRuJywgJzgnLCAnLW1hJywgJzIwMCcsICctbWV0YWxfYmluZGluZycsICctaW1hZScsICc8aW5maWxlLm1hZT4nLCAnLW9tYWUnLCAnPG91dGZpbGUubWFlPic=

> <r_lp_tautomer_probability>
1

> <r_epik_Ionization_Penalty>
4.7326e-05

> <r_epik_Ionization_Penalty_Charging>
2.70169e-05

> <r_epik_Ionization_Penalty_Neutral>
2.0309e-05

> <r_epik_State_Penalty>
-0

> <r_epik_Charging_Adjusted_Penalty>
2.70169e-05

> <i_epik_Tot_Q>
0

> <i_epik_Tot_abs_Q>
0

> <r_epik_Metal_State_Penalty>
0.0198736

> <b_epik_Metal_Only>
0

> <s_lp_Force_Field>
OPLS_2005

> <r_lp_Energy>
36.5029

> <b_lp_Chiralities_Consistent>
1

> <s_lp_Variant>
AV-unprocessed.smi:2424-6

> <Gold.Version>
5.8.1

> <Gold.Id.Protein>
6NUR|6NUR_protein|mol2

> <Gold.PLP.Fitness>
43.9064

> <Gold.PLP.PLP>
-33.8900

> <Gold.PLP.part.hbond>
-3.4246

> <Gold.PLP.part.metal>
0.0000

> <Gold.PLP.part.buried>
-4.7384

> <Gold.PLP.part.nonpolar>
-26.8779

> <Gold.PLP.part.repulsive>
0.5238

> <Gold.PLP.ligand.clash>
0.0000

> <Gold.PLP.ligand.torsion>
1.0971

> <Gold.PLP.Chemscore.Hbond>
2.8257

> <Gold.PLP.Chemscore.CHOScore>
1.0000

> <Gold.PLP.Chemscore.Metal>
0.0000

> <Gold.Chemscore.Hbonds>
donor molecule, donor type, donor heavy atom, donor atom, acceptor molecule, acceptor atom, score
      L1  H     7    36       P1  7948  0.54
      L1  H    10    37       P1  7948  0.69
      L1  H    13    24       P1 10186  0.91
      P1  H  7989  7998       L1    22  0.60
      L1  C    12    38       P1 10171  1.00

> <Gold.PLP.Chemscore.Internal.Correction>
0.7336

> <Gold.Rescore>
     Score         DG    S(hbond)    S(metal)    S(lipo)     H(rot)  DE(clash)    DE(int)     intcor
     18.24     -21.11       3.29        0.00      73.51       1.55       1.74       1.13       ----

> <Gold.Chemscore.Fitness>
18.2411

> <Gold.Chemscore.DG>
-21.1124

> <Gold.Chemscore.ZeroCoef>
-5.4800

> <Gold.Chemscore.Hbond>
3.2936

> <Gold.Chemscore.Metal>
0.0000

> <Gold.Chemscore.Lipo>
73.5063

> <Gold.Chemscore.Internal_Hbond>
0.0000

> <Gold.Chemscore.DEClash>
1.7411

> <Gold.Chemscore.DEInternal>
1.1301

> <Gold.Chemscore.Rot>
1.5502

> <Gold.Chemscore.Internal.Correction>
   9.000000E+99

> <Gold.Chemscore.Hbonds>
donor molecule, donor type, donor heavy atom, donor atom, acceptor molecule, acceptor atom, score
      L1  H     7    36       P1  7948  0.56
      L1  H    10    37       P1  7948  0.66
      L1  H    13    24       P1 10186  0.38
      P1  H  7989  7998       L1    22  0.20

> <Gold.Chemscore.Hbond.Weighted>
-11.0006

> <Gold.Chemscore.Metal.Weighted>
-0.0000

> <Gold.Chemscore.Lipo.Weighted>
-8.6002

> <Gold.Chemscore.Internal_Hbond.Weighted>
0.0000

> <Gold.Chemscore.DEClash.Weighted>
1.7411

> <Gold.Chemscore.DEInternal.Weighted>
1.1301

> <Gold.Chemscore.Rot.Weighted>
3.9685

> <Gold.Chemscore.Internal.Correction.Weighted>
   9.000000E+99

> <Gold.Protein.RotatedTorsions>
[ 6907 6896 6895 6894 ] final  142.76 input  -60.11 | X-H torsion
[ 7974 7965 7964 7962 ] final   90.56 input  175.53 | X-H torsion
[ 8008 7997 7996 7995 ] final -117.69 input   59.86 | X-H torsion
[ 10167 10162 10161 10158 ] final   52.86 input  -65.29 | X-H torsion
[ 10718 10713 10712 10709 ] final -128.74 input   66.30 | X-H torsion
[ 10763 10752 10751 10750 ] final -119.66 input  -60.55 | X-H torsion
[ 11005 11000 10999 10996 ] final  112.32 input  -57.11 | X-H torsion

> <Gold.Protein.ActiveResidues>
 VAL166  LYS551  ARG553  GLY616  TRP617  ASP618  TYR619  PRO620  LYS621  CYS622 
 ASP623  PHE694  ASN695  SER759  ASP760  ASP761  ALA762  ILE779  LEU786  VAL792 
 PHE793  MET794  SER795  GLU796  ALA797  LYS798  CYS799  TRP800  GLU811  SER814 

> <Gold.Protein.RotatedAtoms>
  152.2147  133.4937  159.5129 H   0  0  0  0  0  0  0  0  0  0  0  0  # atno 6907 bound_to 6896
  150.6998  134.1421  159.4118 H   0  0  0  0  0  0  0  0  0  0  0  0  # atno 6908 bound_to 6896
  151.9341  135.0243  160.0582 H   0  0  0  0  0  0  0  0  0  0  0  0  # atno 6909 bound_to 6896
  145.5174  139.2278  143.2691 H   0  0  0  0  0  0  0  0  0  0  0  0  # atno 7974 bound_to 7965
  155.0877  140.0394  157.2659 H   0  0  0  0  0  0  0  0  0  0  0  0  # atno 8008 bound_to 7997
  154.6856  140.2642  155.6839 H   0  0  0  0  0  0  0  0  0  0  0  0  # atno 8009 bound_to 7997
  156.2711  140.2769  156.1416 H   0  0  0  0  0  0  0  0  0  0  0  0  # atno 8010 bound_to 7997
  140.2469  144.3522  150.6361 H   0  0  0  0  0  0  0  0  0  0  0  0  # atno 10167 bound_to 10162
  156.1980  130.6838  151.0505 H   0  0  0  0  0  0  0  0  0  0  0  0  # atno 10718 bound_to 10713
  154.8623  135.4230  154.2334 H   0  0  0  0  0  0  0  0  0  0  0  0  # atno 10763 bound_to 10752
  153.3314  135.6988  153.6950 H   0  0  0  0  0  0  0  0  0  0  0  0  # atno 10764 bound_to 10752
  153.5965  135.3545  155.2903 H   0  0  0  0  0  0  0  0  0  0  0  0  # atno 10765 bound_to 10752
  139.8924  134.9527  156.6568 H   0  0  0  0  0  0  0  0  0  0  0  0  # atno 11005 bound_to 11000
  146.2128  140.5984  142.9052 LP  0  0  0  0  0  0  0  0  0  0  0  0  # atno 17320 bound_to 7965
  144.7694  140.5605  143.6680 LP  0  0  0  0  0  0  0  0  0  0  0  0  # atno 17321 bound_to 7965
  140.6071  143.2168  151.6959 LP  0  0  0  0  0  0  0  0  0  0  0  0  # atno 17342 bound_to 10162
  139.5059  144.3701  152.0478 LP  0  0  0  0  0  0  0  0  0  0  0  0  # atno 17343 bound_to 10162
  157.6969  131.0791  150.6942 LP  0  0  0  0  0  0  0  0  0  0  0  0  # atno 17370 bound_to 10713
  156.6999  130.4620  149.5576 LP  0  0  0  0  0  0  0  0  0  0  0  0  # atno 17371 bound_to 10713
  140.7478  133.8923  155.8324 LP  0  0  0  0  0  0  0  0  0  0  0  0  # atno 17394 bound_to 11000
  141.0025  134.1130  157.4303 LP  0  0  0  0  0  0  0  0  0  0  0  0  # atno 17395 bound_to 11000

$$$$
