AV-unprocessed.smi:3036|AV-procd|sdf|11583|dock8
  -GOLD-   2272016553D 1   1.00000     0.00000
 Structure written by MMmdl.
 42 43  0  0  0  0  0  0  0  0  2 V2000
  143.9770  136.4636  152.3132 C   0  0  0  0  0  0  0  0  0  0  0  0
  145.3591  136.0925  151.7591 C   0  0  1  0  0  0  0  0  0  0  0  0
  145.2380  135.3723  150.4027 C   0  0  0  0  0  0  0  0  0  0  0  0
  145.0634  133.9393  150.5534 N   0  0  0  0  0  0  0  0  0  0  0  0
  143.8986  133.2344  150.7722 C   0  0  0  0  0  0  0  0  0  0  0  0
  144.2343  131.9140  150.8609 C   0  0  0  0  0  0  0  0  0  0  0  0
  145.6450  131.9102  150.6741 C   0  0  0  0  0  0  0  0  0  0  0  0
  146.1372  133.1244  150.4882 N   0  0  0  0  0  0  0  0  0  0  0  0
  146.1900  137.3125  151.6379 N   0  3  0  0  0  0  0  0  0  0  0  0
  146.3185  138.0994  152.8842 C   0  0  0  0  0  0  0  0  0  0  0  0
  147.1937  139.3556  152.6963 C   0  0  0  0  0  0  0  0  0  0  0  0
  148.1411  139.6725  153.8690 C   0  0  0  0  0  0  0  0  0  0  0  0
  148.9357  138.8097  154.2427 O   0  0  0  0  0  0  0  0  0  0  0  0
  148.0723  140.8899  154.4593 N   0  0  0  0  0  0  0  0  0  0  0  0
  147.1043  141.9187  154.0663 C   0  0  0  0  0  0  0  0  0  0  0  0
  146.1587  142.1775  155.2529 C   0  0  0  0  0  0  0  0  0  0  0  0
  146.9174  142.5707  156.3938 O   0  0  0  0  0  0  0  0  0  0  0  0
  147.8852  141.5997  156.7842 C   0  0  0  0  0  0  0  0  0  0  0  0
  148.8540  141.3354  155.6175 C   0  0  0  0  0  0  0  0  0  0  0  0
  143.3540  135.5775  152.4386 H   0  0  0  0  0  0  0  0  0  0  0  0
  143.4510  137.1473  151.6458 H   0  0  0  0  0  0  0  0  0  0  0  0
  144.0604  136.9462  153.2878 H   0  0  0  0  0  0  0  0  0  0  0  0
  145.8226  135.4057  152.4699 H   0  0  0  0  0  0  0  0  0  0  0  0
  144.3794  135.7560  149.8501 H   0  0  0  0  0  0  0  0  0  0  0  0
  146.1163  135.5652  149.7840 H   0  0  0  0  0  0  0  0  0  0  0  0
  142.9397  133.7255  150.8503 H   0  0  0  0  0  0  0  0  0  0  0  0
  143.5728  131.0775  151.0315 H   0  0  0  0  0  0  0  0  0  0  0  0
  146.3213  131.0680  150.6690 H   0  0  0  0  0  0  0  0  0  0  0  0
  147.1157  137.0387  151.3377 H   0  0  0  0  0  0  0  0  0  0  0  0
  145.3224  138.4077  153.2044 H   0  0  0  0  0  0  0  0  0  0  0  0
  146.7202  137.4657  153.6767 H   0  0  0  0  0  0  0  0  0  0  0  0
  147.7774  139.2489  151.7810 H   0  0  0  0  0  0  0  0  0  0  0  0
  146.5350  140.2136  152.5563 H   0  0  0  0  0  0  0  0  0  0  0  0
  147.6365  142.8337  153.8027 H   0  0  0  0  0  0  0  0  0  0  0  0
  146.5215  141.6440  153.1861 H   0  0  0  0  0  0  0  0  0  0  0  0
  145.4532  142.9716  155.0080 H   0  0  0  0  0  0  0  0  0  0  0  0
  145.5714  141.2874  155.4841 H   0  0  0  0  0  0  0  0  0  0  0  0
  148.4301  141.9746  157.6505 H   0  0  0  0  0  0  0  0  0  0  0  0
  147.3871  140.6794  157.0931 H   0  0  0  0  0  0  0  0  0  0  0  0
  149.6206  140.6296  155.9324 H   0  0  0  0  0  0  0  0  0  0  0  0
  149.3848  142.2525  155.3583 H   0  0  0  0  0  0  0  0  0  0  0  0
  145.7836  137.9036  150.9269 H   0  0  0  0  0  0  0  0  0  0  0  0
  1  2  1  0  0  0  0
  1 20  1  0  0  0  0
  1 21  1  0  0  0  0
  1 22  1  0  0  0  0
  2  3  1  0  0  0  0
  2  9  1  0  0  0  0
  2 23  1  0  0  0  0
  3  4  1  0  0  0  0
  3 24  1  0  0  0  0
  3 25  1  0  0  0  0
  4  8  1  0  0  0  0
  4  5  1  0  0  0  0
  5  6  2  0  0  0  0
  5 26  1  0  0  0  0
  6  7  1  0  0  0  0
  6 27  1  0  0  0  0
  7  8  2  0  0  0  0
  7 28  1  0  0  0  0
  9 10  1  0  0  0  0
  9 29  1  0  0  0  0
  9 42  1  0  0  0  0
 10 11  1  0  0  0  0
 10 30  1  0  0  0  0
 10 31  1  0  0  0  0
 11 12  1  0  0  0  0
 11 32  1  0  0  0  0
 11 33  1  0  0  0  0
 12 13  2  0  0  0  0
 12 14  1  0  0  0  0
 14 19  1  0  0  0  0
 14 15  1  0  0  0  0
 15 16  1  0  0  0  0
 15 34  1  0  0  0  0
 15 35  1  0  0  0  0
 16 17  1  0  0  0  0
 16 36  1  0  0  0  0
 16 37  1  0  0  0  0
 17 18  1  0  0  0  0
 18 19  1  0  0  0  0
 18 38  1  0  0  0  0
 18 39  1  0  0  0  0
 19 40  1  0  0  0  0
 19 41  1  0  0  0  0
M  CHG  1   9   1
M  END
> <s_m_source_file>
AV-unprocessed.smi

> <i_m_source_file_index>
3036

> <i_lp_mmshare_version>
43012

> <i_f3d_flags>
0

> <s_epik_input>
bjFbY0hdW2NIXVtjSF1uMVtDSDJdW0NAQEhdKFtDSDNdKVtOSF1bQ0gyXVtDSDJdQyg9TylOMltDSDJdW0NIMl1PW0NIMl1bQ0gyXTI=

> <s_epik_cmdline>
J2VwaWtfcHl0aG9uJywgJy1waCcsICc3LjAnLCAnLXRuJywgJzgnLCAnLW1hJywgJzIwMCcsICctbWV0YWxfYmluZGluZycsICctaW1hZScsICc8aW5maWxlLm1hZT4nLCAnLW9tYWUnLCAnPG91dGZpbGUubWFlPic=

> <r_lp_tautomer_probability>
1

> <r_epik_Ionization_Penalty>
0.00797109

> <r_epik_Ionization_Penalty_Charging>
0.0079672

> <r_epik_Ionization_Penalty_Neutral>
3.88864e-06

> <r_epik_State_Penalty>
0.00597998

> <r_epik_Charging_Adjusted_Penalty>
0.0139472

> <i_epik_Tot_Q>
1

> <i_epik_Tot_abs_Q>
1

> <r_epik_Metal_State_Penalty>
0.00598029

> <b_epik_Metal_Only>
0

> <s_lp_Force_Field>
OPLS_2005

> <r_lp_Energy>
23.754

> <b_lp_Chiralities_Consistent>
1

> <s_lp_Variant>
AV-unprocessed.smi:3036-2

> <Gold.Version>
5.8.1

> <Gold.Id.Protein>
6NUR|6NUR_protein|mol2

> <Gold.PLP.Fitness>
45.4780

> <Gold.PLP.PLP>
-34.6452

> <Gold.PLP.part.hbond>
-1.3847

> <Gold.PLP.part.metal>
0.0000

> <Gold.PLP.part.buried>
-2.0738

> <Gold.PLP.part.nonpolar>
-31.4452

> <Gold.PLP.part.repulsive>
1.1679

> <Gold.PLP.ligand.clash>
0.0000

> <Gold.PLP.ligand.torsion>
0.9947

> <Gold.PLP.Chemscore.Hbond>
2.2412

> <Gold.PLP.Chemscore.CHOScore>
2.0000

> <Gold.PLP.Chemscore.Metal>
0.0000

> <Gold.Chemscore.Hbonds>
donor molecule, donor type, donor heavy atom, donor atom, acceptor molecule, acceptor atom, score
      L1  H     9    29       P1  7948  1.93
      L1  H     9    42       P1 10171  0.30
      L1  C     5    26       P1 10186  1.00
      L1  C     7    28       P1 10747  0.61

> <Gold.PLP.Chemscore.Internal.Correction>
0.0986

> <Gold.Rescore>
     Score         DG    S(hbond)    S(metal)    S(lipo)     H(rot)  DE(clash)    DE(int)     intcor
     11.16     -12.06       1.07        0.00      70.85       2.07       0.00       0.89       ----

> <Gold.Chemscore.Fitness>
11.1649

> <Gold.Chemscore.DG>
-12.0582

> <Gold.Chemscore.ZeroCoef>
-5.4800

> <Gold.Chemscore.Hbond>
1.0726

> <Gold.Chemscore.Metal>
0.0000

> <Gold.Chemscore.Lipo>
70.8526

> <Gold.Chemscore.Internal_Hbond>
0.0000

> <Gold.Chemscore.DEClash>
0.0009

> <Gold.Chemscore.DEInternal>
0.8924

> <Gold.Chemscore.Rot>
2.0680

> <Gold.Chemscore.Internal.Correction>
   9.000000E+99

> <Gold.Chemscore.Hbonds>
donor molecule, donor type, donor heavy atom, donor atom, acceptor molecule, acceptor atom, score
      L1  H     9    29       P1  7948  0.86
      L1  H     9    42       P1 10171  0.29

> <Gold.Chemscore.Hbond.Weighted>
-3.5825

> <Gold.Chemscore.Metal.Weighted>
-0.0000

> <Gold.Chemscore.Lipo.Weighted>
-8.2897

> <Gold.Chemscore.Internal_Hbond.Weighted>
0.0000

> <Gold.Chemscore.DEClash.Weighted>
0.0009

> <Gold.Chemscore.DEInternal.Weighted>
0.8924

> <Gold.Chemscore.Rot.Weighted>
5.2941

> <Gold.Chemscore.Internal.Correction.Weighted>
   9.000000E+99

> <Gold.Protein.RotatedTorsions>
[ 6907 6896 6895 6894 ] final  154.63 input  -60.11 | X-H torsion
[ 7974 7965 7964 7962 ] final  149.24 input  175.53 | X-H torsion
[ 8008 7997 7996 7995 ] final   88.66 input   59.86 | X-H torsion
[ 10167 10162 10161 10158 ] final   42.12 input  -65.29 | X-H torsion
[ 10718 10713 10712 10709 ] final   85.69 input   66.30 | X-H torsion
[ 10763 10752 10751 10750 ] final  -50.85 input  -60.55 | X-H torsion
[ 11005 11000 10999 10996 ] final -115.80 input  -57.11 | X-H torsion

> <Gold.Protein.ActiveResidues>
 VAL166  LYS551  ARG553  GLY616  TRP617  ASP618  TYR619  PRO620  LYS621  CYS622 
 ASP623  PHE694  ASN695  SER759  ASP760  ASP761  ALA762  ILE779  LEU786  VAL792 
 PHE793  MET794  SER795  GLU796  ALA797  LYS798  CYS799  TRP800  GLU811  SER814 

> <Gold.Protein.RotatedAtoms>
  152.0557  133.4039  159.4395 H   0  0  0  0  0  0  0  0  0  0  0  0  # atno 6907 bound_to 6896
  150.6868  134.3257  159.4815 H   0  0  0  0  0  0  0  0  0  0  0  0  # atno 6908 bound_to 6896
  152.1073  134.9299  160.0618 H   0  0  0  0  0  0  0  0  0  0  0  0  # atno 6909 bound_to 6896
  144.8452  139.6256  143.5998 H   0  0  0  0  0  0  0  0  0  0  0  0  # atno 7974 bound_to 7965
  155.9905  140.3369  155.6748 H   0  0  0  0  0  0  0  0  0  0  0  0  # atno 8008 bound_to 7997
  155.6427  140.0697  157.2631 H   0  0  0  0  0  0  0  0  0  0  0  0  # atno 8009 bound_to 7997
  154.4218  140.1740  156.1578 H   0  0  0  0  0  0  0  0  0  0  0  0  # atno 8010 bound_to 7997
  140.3576  144.2270  150.6140 H   0  0  0  0  0  0  0  0  0  0  0  0  # atno 10167 bound_to 10162
  157.6918  131.0185  150.2860 H   0  0  0  0  0  0  0  0  0  0  0  0  # atno 10718 bound_to 10713
  154.1171  135.6540  153.4896 H   0  0  0  0  0  0  0  0  0  0  0  0  # atno 10763 bound_to 10752
  153.0237  135.5261  154.7134 H   0  0  0  0  0  0  0  0  0  0  0  0  # atno 10764 bound_to 10752
  154.6331  135.2978  155.0163 H   0  0  0  0  0  0  0  0  0  0  0  0  # atno 10765 bound_to 10752
  141.0464  133.9756  157.2911 H   0  0  0  0  0  0  0  0  0  0  0  0  # atno 11005 bound_to 11000
  146.2738  139.6701  142.9277 LP  0  0  0  0  0  0  0  0  0  0  0  0  # atno 17320 bound_to 7965
  145.4611  141.0433  143.2751 LP  0  0  0  0  0  0  0  0  0  0  0  0  # atno 17321 bound_to 7965
  140.5159  143.2278  151.8464 LP  0  0  0  0  0  0  0  0  0  0  0  0  # atno 17342 bound_to 10162
  139.4818  144.4895  151.9203 LP  0  0  0  0  0  0  0  0  0  0  0  0  # atno 17343 bound_to 10162
  156.3399  130.3814  149.7418 LP  0  0  0  0  0  0  0  0  0  0  0  0  # atno 17370 bound_to 10713
  156.4930  130.8094  151.3102 LP  0  0  0  0  0  0  0  0  0  0  0  0  # atno 17371 bound_to 10713
  139.9315  135.0199  156.8415 LP  0  0  0  0  0  0  0  0  0  0  0  0  # atno 17394 bound_to 11000
  140.6139  134.0057  155.7588 LP  0  0  0  0  0  0  0  0  0  0  0  0  # atno 17395 bound_to 11000

$$$$
