AV-unprocessed.smi:546|AV-procd|sdf|2885|dock1
  -GOLD-   2262023383D 1   1.00000     0.00000
 Structure written by MMmdl.
 52 54  0  0  0  0  0  0  0  0  1 V2000
  147.3462  142.0177  153.9792 C   0  0  0  0  0  0  0  0  0  0  0  0
  148.4463  141.4023  154.8464 C   0  0  0  0  0  0  0  0  0  0  0  0
  148.2075  141.7600  156.1952 O   0  0  0  0  0  0  0  0  0  0  0  0
  149.0335  141.0626  157.1124 C   0  0  0  0  0  0  0  0  0  0  0  0
  150.4779  141.5697  156.9916 C   0  0  0  0  0  0  0  0  0  0  0  0
  151.4200  140.6611  157.6368 N   0  0  0  0  0  0  0  0  0  0  0  0
  152.2190  140.8943  158.7137 C   0  0  0  0  0  0  0  0  0  0  0  0
  152.2886  142.1388  159.3456 N   0  0  0  0  0  0  0  0  0  0  0  0
  152.1889  143.4239  158.6456 C   0  0  0  0  0  0  0  0  0  0  0  0
  151.5161  144.5421  159.4760 C   0  0  1  0  0  0  0  0  0  0  0  0
  149.9917  144.3839  159.5951 C   0  0  0  0  0  0  0  0  0  0  0  0
  152.2005  144.6839  160.8457 C   0  0  0  0  0  0  0  0  0  0  0  0
  152.3231  143.3218  161.5458 C   0  0  2  0  0  0  0  0  0  0  0  0
  153.0737  143.4427  162.8789 C   0  0  0  0  0  0  0  0  0  0  0  0
  153.0122  142.3180  160.6044 C   0  0  0  0  0  0  0  0  0  0  0  0
  152.9070  139.8278  159.1326 N   0  0  0  0  0  0  0  0  0  0  0  0
  152.5370  138.8387  158.2356 C   0  0  0  0  0  0  0  0  0  0  0  0
  151.6470  139.3171  157.3296 C   0  0  0  0  0  0  0  0  0  0  0  0
  151.0640  138.4698  156.2784 C   0  0  0  0  0  0  0  0  0  0  0  0
  150.2526  138.8742  155.4487 O   0  0  0  0  0  0  0  0  0  0  0  0
  151.5098  137.1909  156.3175 N   0  0  0  0  0  0  0  0  0  0  0  0
  152.4020  136.6477  157.2004 C   0  0  0  0  0  0  0  0  0  0  0  0
  152.7075  135.4585  157.1128 O   0  0  0  0  0  0  0  0  0  0  0  0
  152.9251  137.4703  158.1646 N   0  0  0  0  0  0  0  0  0  0  0  0
  153.8796  136.9397  159.1397 C   0  0  0  0  0  0  0  0  0  0  0  0
  151.1388  136.5665  155.6163 H   0  0  0  0  0  0  0  0  0  0  0  0
  147.4902  141.7655  152.9287 H   0  0  0  0  0  0  0  0  0  0  0  0
  147.3422  143.1044  154.0660 H   0  0  0  0  0  0  0  0  0  0  0  0
  146.3633  141.6547  154.2799 H   0  0  0  0  0  0  0  0  0  0  0  0
  148.4466  140.3169  154.7380 H   0  0  0  0  0  0  0  0  0  0  0  0
  149.4226  141.7691  154.5263 H   0  0  0  0  0  0  0  0  0  0  0  0
  148.6703  141.2086  158.1304 H   0  0  0  0  0  0  0  0  0  0  0  0
  148.9976  139.9929  156.9005 H   0  0  0  0  0  0  0  0  0  0  0  0
  150.7511  141.6974  155.9460 H   0  0  0  0  0  0  0  0  0  0  0  0
  150.5647  142.5601  157.4254 H   0  0  0  0  0  0  0  0  0  0  0  0
  153.2030  143.7353  158.3912 H   0  0  0  0  0  0  0  0  0  0  0  0
  151.6802  143.3009  157.6902 H   0  0  0  0  0  0  0  0  0  0  0  0
  151.6767  145.4778  158.9392 H   0  0  0  0  0  0  0  0  0  0  0  0
  149.7180  143.4653  160.1112 H   0  0  0  0  0  0  0  0  0  0  0  0
  149.5209  144.3710  158.6122 H   0  0  0  0  0  0  0  0  0  0  0  0
  149.5558  145.2146  160.1507 H   0  0  0  0  0  0  0  0  0  0  0  0
  153.1970  145.1042  160.7022 H   0  0  0  0  0  0  0  0  0  0  0  0
  151.6582  145.3922  161.4733 H   0  0  0  0  0  0  0  0  0  0  0  0
  151.3225  142.9494  161.7679 H   0  0  0  0  0  0  0  0  0  0  0  0
  154.0901  143.8085  162.7303 H   0  0  0  0  0  0  0  0  0  0  0  0
  153.1376  142.4775  163.3817 H   0  0  0  0  0  0  0  0  0  0  0  0
  152.5661  144.1326  163.5536 H   0  0  0  0  0  0  0  0  0  0  0  0
  153.0928  141.3531  161.1067 H   0  0  0  0  0  0  0  0  0  0  0  0
  154.0320  142.6387  160.3863 H   0  0  0  0  0  0  0  0  0  0  0  0
  154.7346  136.4875  158.6353 H   0  0  0  0  0  0  0  0  0  0  0  0
  153.4062  136.1763  159.7581 H   0  0  0  0  0  0  0  0  0  0  0  0
  154.2684  137.7082  159.8076 H   0  0  0  0  0  0  0  0  0  0  0  0
  1  2  1  0  0  0  0
  1 27  1  0  0  0  0
  1 28  1  0  0  0  0
  1 29  1  0  0  0  0
  2  3  1  0  0  0  0
  2 30  1  0  0  0  0
  2 31  1  0  0  0  0
  3  4  1  0  0  0  0
  4  5  1  0  0  0  0
  4 32  1  0  0  0  0
  4 33  1  0  0  0  0
  5  6  1  0  0  0  0
  5 34  1  0  0  0  0
  5 35  1  0  0  0  0
  6 18  1  0  0  0  0
  6  7  1  0  0  0  0
  7  8  1  0  0  0  0
  7 16  2  0  0  0  0
  8 15  1  0  0  0  0
  8  9  1  0  0  0  0
  9 10  1  0  0  0  0
  9 36  1  0  0  0  0
  9 37  1  0  0  0  0
 10 11  1  0  0  0  0
 10 12  1  0  0  0  0
 10 38  1  0  0  0  0
 11 39  1  0  0  0  0
 11 40  1  0  0  0  0
 11 41  1  0  0  0  0
 12 13  1  0  0  0  0
 12 42  1  0  0  0  0
 12 43  1  0  0  0  0
 13 14  1  0  0  0  0
 13 15  1  0  0  0  0
 13 44  1  0  0  0  0
 14 45  1  0  0  0  0
 14 46  1  0  0  0  0
 14 47  1  0  0  0  0
 15 48  1  0  0  0  0
 15 49  1  0  0  0  0
 16 17  1  0  0  0  0
 17 24  1  0  0  0  0
 17 18  2  0  0  0  0
 18 19  1  0  0  0  0
 19 20  2  0  0  0  0
 19 21  1  0  0  0  0
 21 26  1  0  0  0  0
 21 22  1  0  0  0  0
 22 23  2  0  0  0  0
 22 24  1  0  0  0  0
 24 25  1  0  0  0  0
 25 50  1  0  0  0  0
 25 51  1  0  0  0  0
 25 52  1  0  0  0  0
M  END
> <s_m_source_file>
AV-unprocessed.smi

> <i_m_source_file_index>
546

> <i_lp_mmshare_version>
43012

> <i_f3d_flags>
0

> <s_epik_input>
W0NIM11uMWMoPU8pW25IXWMoPU8pYyhjMTIpbihbQ0gyXVtDSDJdT1tDSDJdW0NIM10pYyhuMilOM1tDSDJdW0NAQEhdKFtDSDNdKVtDSDJdW0NAQEhdKFtDSDNdKVtDSDJdMw==

> <s_epik_cmdline>
J2VwaWtfcHl0aG9uJywgJy1waCcsICc3LjAnLCAnLXRuJywgJzgnLCAnLW1hJywgJzIwMCcsICctbWV0YWxfYmluZGluZycsICctaW1hZScsICc8aW5maWxlLm1hZT4nLCAnLW9tYWUnLCAnPG91dGZpbGUubWFlPic=

> <r_lp_tautomer_probability>
1

> <r_epik_Ionization_Penalty>
0.000576472

> <r_epik_Ionization_Penalty_Charging>
0.000118943

> <r_epik_Ionization_Penalty_Neutral>
0.000457529

> <r_epik_State_Penalty>
-0

> <r_epik_Charging_Adjusted_Penalty>
0.000118943

> <i_epik_Tot_Q>
0

> <i_epik_Tot_abs_Q>
0

> <r_epik_Metal_State_Penalty>
0.0916165

> <b_epik_Metal_Only>
0

> <s_lp_Force_Field>
OPLS_2005

> <r_lp_Energy>
39.3864

> <b_lp_Chiralities_Consistent>
1

> <s_lp_Variant>
AV-unprocessed.smi:546-3

> <Gold.Version>
5.8.1

> <Gold.Id.Protein>
6NUR|6NUR_protein|mol2

> <Gold.PLP.Fitness>
50.7480

> <Gold.PLP.PLP>
-47.9816

> <Gold.PLP.part.hbond>
-1.1185

> <Gold.PLP.part.metal>
0.0000

> <Gold.PLP.part.buried>
-8.8024

> <Gold.PLP.part.nonpolar>
-38.8162

> <Gold.PLP.part.repulsive>
0.5540

> <Gold.PLP.ligand.clash>
0.0000

> <Gold.PLP.ligand.torsion>
0.3736

> <Gold.PLP.Chemscore.Hbond>
1.0000

> <Gold.PLP.Chemscore.CHOScore>
0.0000

> <Gold.PLP.Chemscore.Metal>
0.0000

> <Gold.Chemscore.Hbonds>
donor molecule, donor type, donor heavy atom, donor atom, acceptor molecule, acceptor atom, score
      P1  H 10752 10765       L1    23  1.00

> <Gold.PLP.Chemscore.Internal.Correction>
0.5136

> <Gold.Rescore>
     Score         DG    S(hbond)    S(metal)    S(lipo)     H(rot)  DE(clash)    DE(int)     intcor
     15.12     -16.62       0.81        0.00     105.89       1.55       0.11       1.39       ----

> <Gold.Chemscore.Fitness>
15.1211

> <Gold.Chemscore.DG>
-16.6232

> <Gold.Chemscore.ZeroCoef>
-5.4800

> <Gold.Chemscore.Hbond>
0.8123

> <Gold.Chemscore.Metal>
0.0000

> <Gold.Chemscore.Lipo>
105.8903

> <Gold.Chemscore.Internal_Hbond>
0.0000

> <Gold.Chemscore.DEClash>
0.1124

> <Gold.Chemscore.DEInternal>
1.3897

> <Gold.Chemscore.Rot>
1.5465

> <Gold.Chemscore.Internal.Correction>
   9.000000E+99

> <Gold.Chemscore.Hbonds>
donor molecule, donor type, donor heavy atom, donor atom, acceptor molecule, acceptor atom, score
      P1  H 10752 10765       L1    23  0.25

> <Gold.Chemscore.Hbond.Weighted>
-2.7132

> <Gold.Chemscore.Metal.Weighted>
-0.0000

> <Gold.Chemscore.Lipo.Weighted>
-12.3892

> <Gold.Chemscore.Internal_Hbond.Weighted>
0.0000

> <Gold.Chemscore.DEClash.Weighted>
0.1124

> <Gold.Chemscore.DEInternal.Weighted>
1.3897

> <Gold.Chemscore.Rot.Weighted>
3.9591

> <Gold.Chemscore.Internal.Correction.Weighted>
   9.000000E+99

> <Gold.Protein.RotatedTorsions>
[ 6907 6896 6895 6894 ] final   12.92 input  -60.11 | X-H torsion
[ 7974 7965 7964 7962 ] final -107.05 input  175.53 | X-H torsion
[ 8008 7997 7996 7995 ] final -115.10 input   59.86 | X-H torsion
[ 10167 10162 10161 10158 ] final  108.24 input  -65.29 | X-H torsion
[ 10718 10713 10712 10709 ] final   -1.05 input   66.30 | X-H torsion
[ 10763 10752 10751 10750 ] final -136.11 input  -60.55 | X-H torsion
[ 11005 11000 10999 10996 ] final  120.71 input  -57.11 | X-H torsion

> <Gold.Protein.ActiveResidues>
 VAL166  LYS551  ARG553  GLY616  TRP617  ASP618  TYR619  PRO620  LYS621  CYS622 
 ASP623  PHE694  ASN695  SER759  ASP760  ASP761  ALA762  ILE779  LEU786  VAL792 
 PHE793  MET794  SER795  GLU796  ALA797  LYS798  CYS799  TRP800  GLU811  SER814 

> <Gold.Protein.RotatedAtoms>
  151.7780  135.0769  160.0369 H   0  0  0  0  0  0  0  0  0  0  0  0  # atno 6907 bound_to 6896
  152.3243  133.5883  159.5774 H   0  0  0  0  0  0  0  0  0  0  0  0  # atno 6908 bound_to 6896
  150.7387  133.9880  159.3640 H   0  0  0  0  0  0  0  0  0  0  0  0  # atno 6909 bound_to 6896
  145.2102  140.9093  143.3319 H   0  0  0  0  0  0  0  0  0  0  0  0  # atno 7974 bound_to 7965
  155.0467  140.0392  157.2529 H   0  0  0  0  0  0  0  0  0  0  0  0  # atno 8008 bound_to 7997
  154.7171  140.2704  155.6551 H   0  0  0  0  0  0  0  0  0  0  0  0  # atno 8009 bound_to 7997
  156.2806  140.2710  156.1831 H   0  0  0  0  0  0  0  0  0  0  0  0  # atno 8010 bound_to 7997
  139.6862  144.7113  151.1428 H   0  0  0  0  0  0  0  0  0  0  0  0  # atno 10167 bound_to 10162
  156.8113  130.5425  149.5708 H   0  0  0  0  0  0  0  0  0  0  0  0  # atno 10718 bound_to 10713
  154.8690  135.3682  154.5008 H   0  0  0  0  0  0  0  0  0  0  0  0  # atno 10763 bound_to 10752
  153.5648  135.7022  153.5536 H   0  0  0  0  0  0  0  0  0  0  0  0  # atno 10764 bound_to 10752
  153.3595  135.4050  155.1670 H   0  0  0  0  0  0  0  0  0  0  0  0  # atno 10765 bound_to 10752
  139.9196  134.9636  156.7849 H   0  0  0  0  0  0  0  0  0  0  0  0  # atno 11005 bound_to 11000
  144.9863  139.3733  143.6237 LP  0  0  0  0  0  0  0  0  0  0  0  0  # atno 17320 bound_to 7965
  146.3399  139.9026  142.8792 LP  0  0  0  0  0  0  0  0  0  0  0  0  # atno 17321 bound_to 7965
  140.7668  143.5626  150.9082 LP  0  0  0  0  0  0  0  0  0  0  0  0  # atno 17342 bound_to 10162
  139.9301  143.6503  152.3078 LP  0  0  0  0  0  0  0  0  0  0  0  0  # atno 17343 bound_to 10162
  156.1043  130.5992  150.9945 LP  0  0  0  0  0  0  0  0  0  0  0  0  # atno 17370 bound_to 10713
  157.6504  131.0898  150.8062 LP  0  0  0  0  0  0  0  0  0  0  0  0  # atno 17371 bound_to 10713
  140.6514  133.9728  155.7757 LP  0  0  0  0  0  0  0  0  0  0  0  0  # atno 17394 bound_to 11000
  141.0705  134.0212  157.3532 LP  0  0  0  0  0  0  0  0  0  0  0  0  # atno 17395 bound_to 11000

$$$$
