AV-unprocessed.smi:923|AV-procd|sdf|4178|dock7
  -GOLD-   22720 2 83D 1   1.00000     0.00000
 Structure written by MMmdl.
 34 35  0  0  0  0  0  0  0  0  2 V2000
  153.9707  136.5710  162.5319 C   0  0  0  0  0  0  0  0  0  0  0  0
  153.7391  137.0874  161.1531 C   0  0  0  0  0  0  0  0  0  0  0  0
  153.4119  136.2940  160.1304 N   0  0  0  0  0  0  0  0  0  0  0  0
  153.2449  137.0043  158.9504 N   0  0  0  0  0  0  0  0  0  0  0  0
  153.4363  138.3231  159.0988 C   0  0  0  0  0  0  0  0  0  0  0  0
  153.3208  139.1885  158.0779 N   0  5  0  0  0  0  0  0  0  0  0  0
  152.4648  140.2320  158.1713 C   0  0  0  0  0  0  0  0  0  0  0  0
  151.4656  140.4200  157.4735 O   0  0  0  0  0  0  0  0  0  0  0  0
  152.7869  141.1096  159.1335 N   0  0  0  0  0  0  0  0  0  0  0  0
  152.0530  142.3258  159.4807 C   0  0  0  0  0  0  0  0  0  0  0  0
  151.7939  143.1437  158.1987 C   0  0  0  0  0  0  0  0  0  0  0  0
  151.0645  144.4820  158.4084 C   0  0  0  0  0  0  0  0  0  0  0  0
  151.9660  145.5607  159.0299 C   0  0  0  0  0  0  0  0  0  0  0  0
  152.0294  145.5614  160.5671 C   0  0  0  0  0  0  0  0  0  0  0  0
  152.0168  144.1859  161.2571 C   0  0  0  0  0  0  0  0  0  0  0  0
  152.8418  143.0865  160.5667 C   0  0  0  0  0  0  0  0  0  0  0  0
  153.8704  138.7893  160.7430 S   0  0  0  0  0  0  0  0  0  0  0  0
  153.0178  136.3337  163.0050 H   0  0  0  0  0  0  0  0  0  0  0  0
  154.4849  137.3194  163.1352 H   0  0  0  0  0  0  0  0  0  0  0  0
  154.5822  135.6690  162.4997 H   0  0  0  0  0  0  0  0  0  0  0  0
  153.6161  140.9126  159.6743 H   0  0  0  0  0  0  0  0  0  0  0  0
  151.0915  142.0383  159.9100 H   0  0  0  0  0  0  0  0  0  0  0  0
  152.7349  143.3209  157.6758 H   0  0  0  0  0  0  0  0  0  0  0  0
  151.1938  142.5363  157.5198 H   0  0  0  0  0  0  0  0  0  0  0  0
  150.7447  144.8375  157.4282 H   0  0  0  0  0  0  0  0  0  0  0  0
  150.1507  144.3479  158.9883 H   0  0  0  0  0  0  0  0  0  0  0  0
  152.9738  145.4679  158.6232 H   0  0  0  0  0  0  0  0  0  0  0  0
  151.6184  146.5431  158.7084 H   0  0  0  0  0  0  0  0  0  0  0  0
  152.9251  146.1050  160.8691 H   0  0  0  0  0  0  0  0  0  0  0  0
  151.1918  146.1408  160.9574 H   0  0  0  0  0  0  0  0  0  0  0  0
  152.3905  144.3205  162.2726 H   0  0  0  0  0  0  0  0  0  0  0  0
  150.9876  143.8455  161.3768 H   0  0  0  0  0  0  0  0  0  0  0  0
  153.1346  142.3696  161.3353 H   0  0  0  0  0  0  0  0  0  0  0  0
  153.7735  143.4908  160.1681 H   0  0  0  0  0  0  0  0  0  0  0  0
  1  2  1  0  0  0  0
  1 18  1  0  0  0  0
  1 19  1  0  0  0  0
  1 20  1  0  0  0  0
  2 17  1  0  0  0  0
  2  3  2  0  0  0  0
  3  4  1  0  0  0  0
  4  5  2  0  0  0  0
  5  6  1  0  0  0  0
  5 17  1  0  0  0  0
  6  7  1  0  0  0  0
  7  8  2  0  0  0  0
  7  9  1  0  0  0  0
  9 10  1  0  0  0  0
  9 21  1  0  0  0  0
 10 16  1  0  0  0  0
 10 11  1  0  0  0  0
 10 22  1  0  0  0  0
 11 12  1  0  0  0  0
 11 23  1  0  0  0  0
 11 24  1  0  0  0  0
 12 13  1  0  0  0  0
 12 25  1  0  0  0  0
 12 26  1  0  0  0  0
 13 14  1  0  0  0  0
 13 27  1  0  0  0  0
 13 28  1  0  0  0  0
 14 15  1  0  0  0  0
 14 29  1  0  0  0  0
 14 30  1  0  0  0  0
 15 16  1  0  0  0  0
 15 31  1  0  0  0  0
 15 32  1  0  0  0  0
 16 33  1  0  0  0  0
 16 34  1  0  0  0  0
M  CHG  1   6  -1
M  END
> <s_m_source_file>
AV-unprocessed.smi

> <i_m_source_file_index>
923

> <i_lp_mmshare_version>
43012

> <i_f3d_flags>
0

> <s_epik_input>
W0NIM11jMW5uYyhzMSlbTkhdQyg9TylbTkhdW0NIXTJbQ0gyXVtDSDJdW0NIMl1bQ0gyXVtDSDJdW0NIMl0y

> <s_epik_cmdline>
J2VwaWtfcHl0aG9uJywgJy1waCcsICc3LjAnLCAnLXRuJywgJzgnLCAnLW1hJywgJzIwMCcsICctbWV0YWxfYmluZGluZycsICctaW1hZScsICc8aW5maWxlLm1hZT4nLCAnLW9tYWUnLCAnPG91dGZpbGUubWFlPic=

> <r_lp_tautomer_probability>
1

> <r_epik_Ionization_Penalty>
4.57867

> <r_epik_Ionization_Penalty_Charging>
4.42407

> <r_epik_Ionization_Penalty_Neutral>
0.154599

> <r_epik_State_Penalty>
4.42373

> <r_epik_Charging_Adjusted_Penalty>
8.84779

> <i_epik_Tot_Q>
-1

> <i_epik_Tot_abs_Q>
1

> <r_epik_Metal_State_Penalty>
0.782603

> <b_epik_Metal_Only>
1

> <s_lp_Force_Field>
OPLS_2005

> <r_lp_Energy>
12.5708

> <b_lp_Chiralities_Consistent>
1

> <s_lp_Variant>
AV-unprocessed.smi:923-2

> <Gold.Version>
5.8.1

> <Gold.Id.Protein>
6NUR|6NUR_protein|mol2

> <Gold.PLP.Fitness>
41.8234

> <Gold.PLP.PLP>
-35.1775

> <Gold.PLP.part.hbond>
-2.0000

> <Gold.PLP.part.metal>
0.0000

> <Gold.PLP.part.buried>
-3.3646

> <Gold.PLP.part.nonpolar>
-29.6881

> <Gold.PLP.part.repulsive>
0.1029

> <Gold.PLP.ligand.clash>
0.0000

> <Gold.PLP.ligand.torsion>
1.1848

> <Gold.PLP.Chemscore.Hbond>
3.0000

> <Gold.PLP.Chemscore.CHOScore>
0.0000

> <Gold.PLP.Chemscore.Metal>
0.0000

> <Gold.Chemscore.Hbonds>
donor molecule, donor type, donor heavy atom, donor atom, acceptor molecule, acceptor atom, score
      P1  H  6896  6908       L1     3  1.00
      P1  H  7997  8009       L1     6  2.00

> <Gold.PLP.Chemscore.Internal.Correction>
0.0154

> <Gold.Rescore>
     Score         DG    S(hbond)    S(metal)    S(lipo)     H(rot)  DE(clash)    DE(int)     intcor
     17.00     -20.12       1.65        0.00     100.02       1.00       0.46       2.66       ----

> <Gold.Chemscore.Fitness>
17.0040

> <Gold.Chemscore.DG>
-20.1219

> <Gold.Chemscore.ZeroCoef>
-5.4800

> <Gold.Chemscore.Hbond>
1.6465

> <Gold.Chemscore.Metal>
0.0000

> <Gold.Chemscore.Lipo>
100.0227

> <Gold.Chemscore.Internal_Hbond>
0.0000

> <Gold.Chemscore.DEClash>
0.4601

> <Gold.Chemscore.DEInternal>
2.6578

> <Gold.Chemscore.Rot>
1.0000

> <Gold.Chemscore.Internal.Correction>
   9.000000E+99

> <Gold.Chemscore.Hbonds>
donor molecule, donor type, donor heavy atom, donor atom, acceptor molecule, acceptor atom, score
      P1  H  6896  6908       L1     3  0.55
      P1  H  7997  8009       L1     6  0.25

> <Gold.Chemscore.Hbond.Weighted>
-5.4992

> <Gold.Chemscore.Metal.Weighted>
-0.0000

> <Gold.Chemscore.Lipo.Weighted>
-11.7027

> <Gold.Chemscore.Internal_Hbond.Weighted>
0.0000

> <Gold.Chemscore.DEClash.Weighted>
0.4601

> <Gold.Chemscore.DEInternal.Weighted>
2.6578

> <Gold.Chemscore.Rot.Weighted>
2.5600

> <Gold.Chemscore.Internal.Correction.Weighted>
   9.000000E+99

> <Gold.Protein.RotatedTorsions>
[ 6907 6896 6895 6894 ] final  -79.56 input  -60.11 | X-H torsion
[ 7974 7965 7964 7962 ] final   73.48 input  175.53 | X-H torsion
[ 8008 7997 7996 7995 ] final  141.31 input   59.86 | X-H torsion
[ 10167 10162 10161 10158 ] final -120.53 input  -65.29 | X-H torsion
[ 10718 10713 10712 10709 ] final -121.87 input   66.30 | X-H torsion
[ 10763 10752 10751 10750 ] final   21.50 input  -60.55 | X-H torsion
[ 11005 11000 10999 10996 ] final -178.77 input  -57.11 | X-H torsion

> <Gold.Protein.ActiveResidues>
 VAL166  LYS551  ARG553  GLY616  TRP617  ASP618  TYR619  PRO620  LYS621  CYS622 
 ASP623  PHE694  ASN695  SER759  ASP760  ASP761  ALA762  ILE779  LEU786  VAL792 
 PHE793  MET794  SER795  GLU796  ALA797  LYS798  CYS799  TRP800  GLU811  SER814 

> <Gold.Protein.RotatedAtoms>
  150.6947  134.4103  159.5158 H   0  0  0  0  0  0  0  0  0  0  0  0  # atno 6907 bound_to 6896
  152.1862  134.8708  160.0531 H   0  0  0  0  0  0  0  0  0  0  0  0  # atno 6908 bound_to 6896
  151.9680  133.3682  159.4097 H   0  0  0  0  0  0  0  0  0  0  0  0  # atno 6909 bound_to 6896
  145.7404  139.2718  143.1490 H   0  0  0  0  0  0  0  0  0  0  0  0  # atno 7974 bound_to 7965
  156.2967  140.2318  156.4544 H   0  0  0  0  0  0  0  0  0  0  0  0  # atno 8008 bound_to 7997
  154.8073  140.0445  157.1338 H   0  0  0  0  0  0  0  0  0  0  0  0  # atno 8009 bound_to 7997
  154.9464  140.3036  155.5099 H   0  0  0  0  0  0  0  0  0  0  0  0  # atno 8010 bound_to 7997
  140.0349  143.5211  152.2159 H   0  0  0  0  0  0  0  0  0  0  0  0  # atno 10167 bound_to 10162
  156.1372  130.6439  150.9715 H   0  0  0  0  0  0  0  0  0  0  0  0  # atno 10718 bound_to 10713
  153.0990  135.6667  153.9709 H   0  0  0  0  0  0  0  0  0  0  0  0  # atno 10763 bound_to 10752
  153.9285  135.3006  155.3447 H   0  0  0  0  0  0  0  0  0  0  0  0  # atno 10764 bound_to 10752
  154.7410  135.5079  153.9197 H   0  0  0  0  0  0  0  0  0  0  0  0  # atno 10765 bound_to 10752
  140.4261  134.6561  157.4688 H   0  0  0  0  0  0  0  0  0  0  0  0  # atno 11005 bound_to 11000
  146.0454  140.8124  142.9808 LP  0  0  0  0  0  0  0  0  0  0  0  0  # atno 17320 bound_to 7965
  144.6872  140.2972  143.7269 LP  0  0  0  0  0  0  0  0  0  0  0  0  # atno 17321 bound_to 7965
  139.6052  144.7594  151.3079 LP  0  0  0  0  0  0  0  0  0  0  0  0  # atno 17342 bound_to 10162
  140.7286  143.6931  150.7906 LP  0  0  0  0  0  0  0  0  0  0  0  0  # atno 17343 bound_to 10162
  157.6543  131.0892  150.7981 LP  0  0  0  0  0  0  0  0  0  0  0  0  # atno 17370 bound_to 10713
  156.8060  130.4937  149.5362 LP  0  0  0  0  0  0  0  0  0  0  0  0  # atno 17371 bound_to 10713
  140.0166  134.6610  155.9300 LP  0  0  0  0  0  0  0  0  0  0  0  0  # atno 17394 bound_to 11000
  141.1764  133.6541  156.4847 LP  0  0  0  0  0  0  0  0  0  0  0  0  # atno 17395 bound_to 11000

$$$$
