AV-unprocessed.smi:3135|AV-procd|sdf|11946|dock6
  -GOLD-   2272017343D 1   1.00000     0.00000
 Structure written by MMmdl.
 38 39  0  0  0  0  0  0  0  0  2 V2000
  147.0482  140.5498  153.9307 C   0  0  0  0  0  0  0  0  0  0  0  0
  148.4676  140.1677  154.2370 C   0  0  0  0  0  0  0  0  0  0  0  0
  149.4892  140.9823  154.8031 C   0  0  0  0  0  0  0  0  0  0  0  0
  150.6378  140.3414  154.9465 N   0  0  0  0  0  0  0  0  0  0  0  0
  150.3919  139.0985  154.4794 N   0  0  0  0  0  0  0  0  0  0  0  0
  151.4461  138.0976  154.4897 C   0  0  0  0  0  0  0  0  0  0  0  0
  151.0305  136.8220  155.2305 C   0  0  0  0  0  0  0  0  0  0  0  0
  151.6803  136.4402  156.2034 O   0  0  0  0  0  0  0  0  0  0  0  0
  149.9629  136.1582  154.7577 N   0  0  0  0  0  0  0  0  0  0  0  0
  149.4129  134.9396  155.3379 C   0  0  0  0  0  0  0  0  0  0  0  0
  149.2615  133.8297  154.2808 C   0  0  0  0  0  0  0  0  0  0  0  0
  148.1928  134.1123  153.2889 N   0  3  2  0  0  0  0  0  0  0  0  0
  146.9166  134.4506  153.9595 C   0  0  0  0  0  0  0  0  0  0  0  0
  148.0153  133.0237  152.2976 C   0  0  0  0  0  0  0  0  0  0  0  0
  146.6748  133.0356  151.5958 C   0  0  0  0  0  0  0  0  0  0  0  0
  146.9499  132.0163  152.6747 C   0  0  0  0  0  0  0  0  0  0  0  0
  149.0908  138.9679  154.0406 C   0  0  0  0  0  0  0  0  0  0  0  0
  146.6397  141.2228  154.6849 H   0  0  0  0  0  0  0  0  0  0  0  0
  146.3933  139.6790  153.8904 H   0  0  0  0  0  0  0  0  0  0  0  0
  146.9687  141.0573  152.9693 H   0  0  0  0  0  0  0  0  0  0  0  0
  149.4298  142.0153  155.1131 H   0  0  0  0  0  0  0  0  0  0  0  0
  151.7083  137.8486  153.4608 H   0  0  0  0  0  0  0  0  0  0  0  0
  152.3362  138.5273  154.9522 H   0  0  0  0  0  0  0  0  0  0  0  0
  149.4854  136.5405  153.9539 H   0  0  0  0  0  0  0  0  0  0  0  0
  150.0404  134.6017  156.1646 H   0  0  0  0  0  0  0  0  0  0  0  0
  148.4440  135.1972  155.7646 H   0  0  0  0  0  0  0  0  0  0  0  0
  150.2081  133.6676  153.7624 H   0  0  0  0  0  0  0  0  0  0  0  0
  149.0225  132.8944  154.7892 H   0  0  0  0  0  0  0  0  0  0  0  0
  146.5499  133.6069  154.5459 H   0  0  0  0  0  0  0  0  0  0  0  0
  146.1485  134.7191  153.2340 H   0  0  0  0  0  0  0  0  0  0  0  0
  147.0441  135.3021  154.6287 H   0  0  0  0  0  0  0  0  0  0  0  0
  148.9147  132.6907  151.7820 H   0  0  0  0  0  0  0  0  0  0  0  0
  145.9732  133.8336  151.8319 H   0  0  0  0  0  0  0  0  0  0  0  0
  146.6426  132.6779  150.5686 H   0  0  0  0  0  0  0  0  0  0  0  0
  147.0985  130.9857  152.3584 H   0  0  0  0  0  0  0  0  0  0  0  0
  146.4220  132.1404  153.6186 H   0  0  0  0  0  0  0  0  0  0  0  0
  148.7184  138.0399  153.6323 H   0  0  0  0  0  0  0  0  0  0  0  0
  148.4761  134.9364  152.7782 H   0  0  0  0  0  0  0  0  0  0  0  0
  1  2  1  0  0  0  0
  1 18  1  0  0  0  0
  1 19  1  0  0  0  0
  1 20  1  0  0  0  0
  2 17  2  0  0  0  0
  2  3  1  0  0  0  0
  3  4  2  0  0  0  0
  3 21  1  0  0  0  0
  4  5  1  0  0  0  0
  5  6  1  0  0  0  0
  5 17  1  0  0  0  0
  6  7  1  0  0  0  0
  6 22  1  0  0  0  0
  6 23  1  0  0  0  0
  7  8  2  0  0  0  0
  7  9  1  0  0  0  0
  9 10  1  0  0  0  0
  9 24  1  0  0  0  0
 10 11  1  0  0  0  0
 10 25  1  0  0  0  0
 10 26  1  0  0  0  0
 11 12  1  0  0  0  0
 11 27  1  0  0  0  0
 11 28  1  0  0  0  0
 12 13  1  0  0  0  0
 12 14  1  0  0  0  0
 12 38  1  0  0  0  0
 13 29  1  0  0  0  0
 13 30  1  0  0  0  0
 13 31  1  0  0  0  0
 14 16  1  0  0  0  0
 14 15  1  0  0  0  0
 14 32  1  0  0  0  0
 15 16  1  0  0  0  0
 15 33  1  0  0  0  0
 15 34  1  0  0  0  0
 16 35  1  0  0  0  0
 16 36  1  0  0  0  0
 17 37  1  0  0  0  0
M  CHG  1  12   1
M  END
> <s_m_source_file>
AV-unprocessed.smi

> <i_m_source_file_index>
3135

> <i_lp_mmshare_version>
43012

> <i_f3d_flags>
0

> <s_epik_input>
W0NIM11jMVtjSF1ubihbY0hdMSlbQ0gyXUMoPU8pW05IXVtDSDJdW0NIMl1OKFtDSDNdKVtDSF0yW0NIMl1bQ0gyXTI=

> <s_epik_cmdline>
J2VwaWtfcHl0aG9uJywgJy1waCcsICc3LjAnLCAnLXRuJywgJzgnLCAnLW1hJywgJzIwMCcsICctbWV0YWxfYmluZGluZycsICctaW1hZScsICc8aW5maWxlLm1hZT4nLCAnLW9tYWUnLCAnPG91dGZpbGUubWFlPic=

> <r_lp_tautomer_probability>
1

> <r_epik_Ionization_Penalty>
0.174318

> <r_epik_Ionization_Penalty_Charging>
0.174302

> <r_epik_Ionization_Penalty_Neutral>
1.62778e-05

> <r_epik_State_Penalty>
0.163722

> <r_epik_Charging_Adjusted_Penalty>
0.338024

> <i_epik_Tot_Q>
1

> <i_epik_Tot_abs_Q>
1

> <r_epik_Metal_State_Penalty>
0.163727

> <b_epik_Metal_Only>
0

> <s_lp_Force_Field>
OPLS_2005

> <r_lp_Energy>
17.5594

> <b_lp_Chiralities_Consistent>
1

> <s_lp_Variant>
AV-unprocessed.smi:3135-2

> <Gold.Version>
5.8.1

> <Gold.Id.Protein>
6NUR|6NUR_protein|mol2

> <Gold.PLP.Fitness>
50.4422

> <Gold.PLP.PLP>
-32.2501

> <Gold.PLP.part.hbond>
-4.0000

> <Gold.PLP.part.metal>
0.0000

> <Gold.PLP.part.buried>
-1.1580

> <Gold.PLP.part.nonpolar>
-26.2132

> <Gold.PLP.part.repulsive>
0.1640

> <Gold.PLP.ligand.clash>
0.0000

> <Gold.PLP.ligand.torsion>
0.7293

> <Gold.PLP.Chemscore.Hbond>
4.7840

> <Gold.PLP.Chemscore.CHOScore>
1.3345

> <Gold.PLP.Chemscore.Metal>
0.0000

> <Gold.Chemscore.Hbonds>
donor molecule, donor type, donor heavy atom, donor atom, acceptor molecule, acceptor atom, score
      L1  H     9    24       P1  7948  0.61
      L1  H    12    38       P1  7948  2.00
      P1  H  7989  7998       L1     4  0.80
      P1  H 10752 10764       L1     8  0.37
      L1  C     3    21       P1  8028  0.31
      L1  C    17    37       P1  7948  1.00

> <Gold.PLP.Chemscore.Internal.Correction>
1.2952

> <Gold.Rescore>
     Score         DG    S(hbond)    S(metal)    S(lipo)     H(rot)  DE(clash)    DE(int)     intcor
     16.48     -17.77       3.02        0.00      61.60       1.96       0.56       0.74       ----

> <Gold.Chemscore.Fitness>
16.4789

> <Gold.Chemscore.DG>
-17.7748

> <Gold.Chemscore.ZeroCoef>
-5.4800

> <Gold.Chemscore.Hbond>
3.0220

> <Gold.Chemscore.Metal>
0.0000

> <Gold.Chemscore.Lipo>
61.6004

> <Gold.Chemscore.Internal_Hbond>
0.0000

> <Gold.Chemscore.DEClash>
0.5568

> <Gold.Chemscore.DEInternal>
0.7391

> <Gold.Chemscore.Rot>
1.9555

> <Gold.Chemscore.Internal.Correction>
   9.000000E+99

> <Gold.Chemscore.Hbonds>
donor molecule, donor type, donor heavy atom, donor atom, acceptor molecule, acceptor atom, score
      L1  H     9    24       P1  7948  0.52
      L1  H    12    38       P1  7948  0.50
      P1  H  7989  7998       L1     4  0.05
      P1  H 10752 10764       L1     8  0.01

> <Gold.Chemscore.Hbond.Weighted>
-10.0935

> <Gold.Chemscore.Metal.Weighted>
-0.0000

> <Gold.Chemscore.Lipo.Weighted>
-7.2072

> <Gold.Chemscore.Internal_Hbond.Weighted>
0.0000

> <Gold.Chemscore.DEClash.Weighted>
0.5568

> <Gold.Chemscore.DEInternal.Weighted>
0.7391

> <Gold.Chemscore.Rot.Weighted>
5.0060

> <Gold.Chemscore.Internal.Correction.Weighted>
   9.000000E+99

> <Gold.Protein.RotatedTorsions>
[ 6907 6896 6895 6894 ] final -155.93 input  -60.11 | X-H torsion
[ 7974 7965 7964 7962 ] final  -55.93 input  175.53 | X-H torsion
[ 8008 7997 7996 7995 ] final  -20.96 input   59.86 | X-H torsion
[ 10167 10162 10161 10158 ] final -109.57 input  -65.29 | X-H torsion
[ 10718 10713 10712 10709 ] final -138.67 input   66.30 | X-H torsion
[ 10763 10752 10751 10750 ] final  -42.20 input  -60.55 | X-H torsion
[ 11005 11000 10999 10996 ] final  -12.01 input  -57.11 | X-H torsion

> <Gold.Protein.ActiveResidues>
 VAL166  LYS551  ARG553  GLY616  TRP617  ASP618  TYR619  PRO620  LYS621  CYS622 
 ASP623  PHE694  ASN695  SER759  ASP760  ASP761  ALA762  ILE779  LEU786  VAL792 
 PHE793  MET794  SER795  GLU796  ALA797  LYS798  CYS799  TRP800  GLU811  SER814 

> <Gold.Protein.RotatedAtoms>
  151.2799  133.4214  159.2626 H   0  0  0  0  0  0  0  0  0  0  0  0  # atno 6907 bound_to 6896
  151.0370  134.9580  159.8151 H   0  0  0  0  0  0  0  0  0  0  0  0  # atno 6908 bound_to 6896
  152.5357  134.2759  159.9041 H   0  0  0  0  0  0  0  0  0  0  0  0  # atno 6909 bound_to 6896
  145.8685  140.8233  142.9900 H   0  0  0  0  0  0  0  0  0  0  0  0  # atno 7974 bound_to 7965
  154.4736  140.2047  155.9934 H   0  0  0  0  0  0  0  0  0  0  0  0  # atno 8008 bound_to 7997
  156.1052  140.3238  155.7966 H   0  0  0  0  0  0  0  0  0  0  0  0  # atno 8009 bound_to 7997
  155.4730  140.0533  157.2968 H   0  0  0  0  0  0  0  0  0  0  0  0  # atno 8010 bound_to 7997
  140.1539  143.4176  152.1475 H   0  0  0  0  0  0  0  0  0  0  0  0  # atno 10167 bound_to 10162
  156.3020  130.7434  151.1488 H   0  0  0  0  0  0  0  0  0  0  0  0  # atno 10718 bound_to 10713
  153.9751  135.6724  153.4748 H   0  0  0  0  0  0  0  0  0  0  0  0  # atno 10763 bound_to 10752
  153.0774  135.4941  154.8430 H   0  0  0  0  0  0  0  0  0  0  0  0  # atno 10764 bound_to 10752
  154.7197  135.3114  154.9028 H   0  0  0  0  0  0  0  0  0  0  0  0  # atno 10765 bound_to 10752
  140.7612  133.8513  155.9127 H   0  0  0  0  0  0  0  0  0  0  0  0  # atno 11005 bound_to 11000
  144.6726  140.1203  143.7450 LP  0  0  0  0  0  0  0  0  0  0  0  0  # atno 17320 bound_to 7965
  145.9164  139.2519  143.1407 LP  0  0  0  0  0  0  0  0  0  0  0  0  # atno 17321 bound_to 7965
  139.5413  144.7258  151.4726 LP  0  0  0  0  0  0  0  0  0  0  0  0  # atno 17342 bound_to 10162
  140.6685  143.8345  150.6971 LP  0  0  0  0  0  0  0  0  0  0  0  0  # atno 17343 bound_to 10162
  157.7370  131.0556  150.5380 LP  0  0  0  0  0  0  0  0  0  0  0  0  # atno 17370 bound_to 10713
  156.5509  130.4231  149.6108 LP  0  0  0  0  0  0  0  0  0  0  0  0  # atno 17371 bound_to 10713
  140.9661  134.1592  157.4615 LP  0  0  0  0  0  0  0  0  0  0  0  0  # atno 17394 bound_to 11000
  139.8770  134.9962  156.5783 LP  0  0  0  0  0  0  0  0  0  0  0  0  # atno 17395 bound_to 11000

$$$$
