AV-unprocessed.smi:438|AV-procd|sdf|2571|dock3
  -GOLD-   2262022553D 1   1.00000     0.00000
 Structure written by MMmdl.
 47 48  0  0  0  0  0  0  0  0  2 V2000
  147.0629  137.0207  162.9267 C   0  0  0  0  0  0  0  0  0  0  0  0
  147.6167  136.3860  161.6636 C   0  0  0  0  0  0  0  0  0  0  0  0
  148.2289  137.2649  160.7541 N   0  0  0  0  0  0  0  0  0  0  0  0
  148.7209  136.8069  159.6678 C   0  0  0  0  0  0  0  0  0  0  0  0
  149.5026  137.9892  158.5537 S   0  0  0  0  0  0  0  0  0  0  0  0
  151.2737  137.8816  158.9511 C   0  0  0  0  0  0  0  0  0  0  0  0
  152.0305  139.1429  158.5457 C   0  0  0  0  0  0  0  0  0  0  0  0
  153.1181  139.0508  157.9771 O   0  0  0  0  0  0  0  0  0  0  0  0
  151.4413  140.3117  158.8529 N   0  0  0  0  0  0  0  0  0  0  0  0
  151.9627  141.6624  158.6269 C   0  0  2  0  0  0  0  0  0  0  0  0
  152.3418  142.3627  159.9506 C   0  0  0  0  0  0  0  0  0  0  0  0
  152.9710  143.7391  159.6904 C   0  0  0  0  0  0  0  0  0  0  0  0
  152.0378  144.6186  158.8454 C   0  0  0  0  0  0  0  0  0  0  0  0
  151.6690  143.9284  157.5224 C   0  0  0  0  0  0  0  0  0  0  0  0
  151.0282  142.5446  157.7545 C   0  0  1  0  0  0  0  0  0  0  0  0
  150.6695  141.8833  156.4116 C   0  0  0  0  0  0  0  0  0  0  0  0
  148.6856  135.4768  159.3113 N   0  5  0  0  0  0  0  0  0  0  0  0
  148.1094  134.5606  160.1404 C   0  0  0  0  0  0  0  0  0  0  0  0
  148.0563  133.3643  159.8574 O   0  0  0  0  0  0  0  0  0  0  0  0
  147.5342  135.0496  161.4056 C   0  0  0  0  0  0  0  0  0  0  0  0
  146.8985  134.0446  162.3634 C   0  0  0  0  0  0  0  0  0  0  0  0
  145.3698  134.1779  162.4112 C   0  0  0  0  0  0  0  0  0  0  0  0
  144.8278  133.1897  163.2606 O   0  0  0  0  0  0  0  0  0  0  0  0
  146.0241  136.7285  163.0813 H   0  0  0  0  0  0  0  0  0  0  0  0
  147.0978  138.1093  162.8697 H   0  0  0  0  0  0  0  0  0  0  0  0
  147.6456  136.7099  163.7939 H   0  0  0  0  0  0  0  0  0  0  0  0
  151.7107  137.0228  158.4402 H   0  0  0  0  0  0  0  0  0  0  0  0
  151.3919  137.7170  160.0230 H   0  0  0  0  0  0  0  0  0  0  0  0
  150.5465  140.2583  159.3179 H   0  0  0  0  0  0  0  0  0  0  0  0
  152.8868  141.5148  158.0661 H   0  0  0  0  0  0  0  0  0  0  0  0
  151.4619  142.4910  160.5815 H   0  0  0  0  0  0  0  0  0  0  0  0
  153.0391  141.7431  160.5154 H   0  0  0  0  0  0  0  0  0  0  0  0
  153.1907  144.2326  160.6375 H   0  0  0  0  0  0  0  0  0  0  0  0
  153.9250  143.6164  159.1762 H   0  0  0  0  0  0  0  0  0  0  0  0
  151.1302  144.8371  159.4096 H   0  0  0  0  0  0  0  0  0  0  0  0
  152.5147  145.5781  158.6430 H   0  0  0  0  0  0  0  0  0  0  0  0
  150.9862  144.5662  156.9601 H   0  0  0  0  0  0  0  0  0  0  0  0
  152.5646  143.8218  156.9087 H   0  0  0  0  0  0  0  0  0  0  0  0
  150.0962  142.7078  158.2969 H   0  0  0  0  0  0  0  0  0  0  0  0
  151.5633  141.6655  155.8264 H   0  0  0  0  0  0  0  0  0  0  0  0
  150.0313  142.5343  155.8135 H   0  0  0  0  0  0  0  0  0  0  0  0
  150.1285  140.9477  156.5542 H   0  0  0  0  0  0  0  0  0  0  0  0
  147.3069  134.1738  163.3653 H   0  0  0  0  0  0  0  0  0  0  0  0
  147.1798  133.0321  162.0703 H   0  0  0  0  0  0  0  0  0  0  0  0
  145.0808  135.1614  162.7822 H   0  0  0  0  0  0  0  0  0  0  0  0
  144.9390  134.0643  161.4161 H   0  0  0  0  0  0  0  0  0  0  0  0
  145.3032  133.2037  164.0769 H   0  0  0  0  0  0  0  0  0  0  0  0
  1 24  1  0  0  0  0
  1 25  1  0  0  0  0
  1 26  1  0  0  0  0
  1  2  1  0  0  0  0
  2 20  2  0  0  0  0
  2  3  1  0  0  0  0
  3  4  2  0  0  0  0
  4  5  1  0  0  0  0
  4 17  1  0  0  0  0
  5  6  1  0  0  0  0
  6  7  1  0  0  0  0
  6 27  1  0  0  0  0
  6 28  1  0  0  0  0
  7  8  2  0  0  0  0
  7  9  1  0  0  0  0
  9 10  1  0  0  0  0
  9 29  1  0  0  0  0
 10 15  1  0  0  0  0
 10 11  1  0  0  0  0
 10 30  1  0  0  0  0
 11 12  1  0  0  0  0
 11 31  1  0  0  0  0
 11 32  1  0  0  0  0
 12 13  1  0  0  0  0
 12 33  1  0  0  0  0
 12 34  1  0  0  0  0
 13 14  1  0  0  0  0
 13 35  1  0  0  0  0
 13 36  1  0  0  0  0
 14 15  1  0  0  0  0
 14 37  1  0  0  0  0
 14 38  1  0  0  0  0
 15 16  1  0  0  0  0
 15 39  1  0  0  0  0
 16 40  1  0  0  0  0
 16 41  1  0  0  0  0
 16 42  1  0  0  0  0
 17 18  1  0  0  0  0
 18 19  2  0  0  0  0
 18 20  1  0  0  0  0
 20 21  1  0  0  0  0
 21 22  1  0  0  0  0
 21 43  1  0  0  0  0
 21 44  1  0  0  0  0
 22 23  1  0  0  0  0
 22 45  1  0  0  0  0
 22 46  1  0  0  0  0
 23 47  1  0  0  0  0
M  CHG  1  17  -1
M  END
> <s_m_source_file>
AV-unprocessed.smi

> <i_m_source_file_index>
438

> <i_lp_mmshare_version>
43012

> <i_f3d_flags>
0

> <s_epik_input>
W09IXVtDSDJdW0NIMl1jMWMoW09IXSluYyhuYzFbQ0gzXSlTW0NIMl1DKD1PKVtOSF1bQ0BASF0yW0NIMl1bQ0gyXVtDSDJdW0NIMl1bQ0BIXTJbQ0gzXQ==

> <s_epik_cmdline>
J2VwaWtfcHl0aG9uJywgJy1waCcsICc3LjAnLCAnLXRuJywgJzgnLCAnLW1hJywgJzIwMCcsICctbWV0YWxfYmluZGluZycsICctaW1hZScsICc8aW5maWxlLm1hZT4nLCAnLW9tYWUnLCAnPG91dGZpbGUubWFlPic=

> <r_lp_tautomer_probability>
1

> <r_epik_Ionization_Penalty>
3.69231

> <r_epik_Ionization_Penalty_Charging>
0.00434774

> <r_epik_Ionization_Penalty_Neutral>
3.68796

> <r_epik_State_Penalty>
2.13826

> <r_epik_Charging_Adjusted_Penalty>
2.14261

> <i_epik_Tot_Q>
-1

> <i_epik_Tot_abs_Q>
1

> <r_epik_Metal_State_Penalty>
0.260979

> <b_epik_Metal_Only>
0

> <s_lp_Force_Field>
OPLS_2005

> <r_lp_Energy>
19.4347

> <b_lp_Chiralities_Consistent>
1

> <s_lp_Variant>
AV-unprocessed.smi:438-9

> <Gold.Version>
5.8.1

> <Gold.Id.Protein>
6NUR|6NUR_protein|mol2

> <Gold.PLP.Fitness>
58.6489

> <Gold.PLP.PLP>
-50.7607

> <Gold.PLP.part.hbond>
-5.5236

> <Gold.PLP.part.metal>
0.0000

> <Gold.PLP.part.buried>
-6.3033

> <Gold.PLP.part.nonpolar>
-41.6183

> <Gold.PLP.part.repulsive>
0.1673

> <Gold.PLP.ligand.clash>
0.0000

> <Gold.PLP.ligand.torsion>
0.8239

> <Gold.PLP.Chemscore.Hbond>
3.1506

> <Gold.PLP.Chemscore.CHOScore>
0.0000

> <Gold.PLP.Chemscore.Metal>
0.0000

> <Gold.Chemscore.Hbonds>
donor molecule, donor type, donor heavy atom, donor atom, acceptor molecule, acceptor atom, score
      P1  H  6896  6909       L1    17  0.74
      P1  H  6931  6943       L1     3  0.73
      P1  H  6934  6947       L1     3  0.61
      P1  H  7997  8010       L1     8  1.00

> <Gold.PLP.Chemscore.Internal.Correction>
0.0842

> <Gold.Rescore>
     Score         DG    S(hbond)    S(metal)    S(lipo)     H(rot)  DE(clash)    DE(int)     intcor
     16.22     -17.15       1.42        0.00     120.18       2.79       0.07       0.85       ----

> <Gold.Chemscore.Fitness>
16.2202

> <Gold.Chemscore.DG>
-17.1456

> <Gold.Chemscore.ZeroCoef>
-5.4800

> <Gold.Chemscore.Hbond>
1.4234

> <Gold.Chemscore.Metal>
0.0000

> <Gold.Chemscore.Lipo>
120.1753

> <Gold.Chemscore.Internal_Hbond>
0.0000

> <Gold.Chemscore.DEClash>
0.0708

> <Gold.Chemscore.DEInternal>
0.8546

> <Gold.Chemscore.Rot>
2.7927

> <Gold.Chemscore.Internal.Correction>
   9.000000E+99

> <Gold.Chemscore.Hbonds>
donor molecule, donor type, donor heavy atom, donor atom, acceptor molecule, acceptor atom, score
      P1  H  6896  6909       L1    17  0.02
      P1  H  6931  6943       L1     3  0.15
      P1  H  6934  6947       L1     3  0.31
      P1  H  7997  8010       L1     8  0.93

> <Gold.Chemscore.Hbond.Weighted>
-4.7543

> <Gold.Chemscore.Metal.Weighted>
-0.0000

> <Gold.Chemscore.Lipo.Weighted>
-14.0605

> <Gold.Chemscore.Internal_Hbond.Weighted>
0.0000

> <Gold.Chemscore.DEClash.Weighted>
0.0708

> <Gold.Chemscore.DEInternal.Weighted>
0.8546

> <Gold.Chemscore.Rot.Weighted>
7.1492

> <Gold.Chemscore.Internal.Correction.Weighted>
   9.000000E+99

> <Gold.Protein.RotatedTorsions>
[ 6907 6896 6895 6894 ] final   50.58 input  -60.11 | X-H torsion
[ 7974 7965 7964 7962 ] final -154.60 input  175.53 | X-H torsion
[ 8008 7997 7996 7995 ] final   47.87 input   59.86 | X-H torsion
[ 10167 10162 10161 10158 ] final   63.54 input  -65.29 | X-H torsion
[ 10718 10713 10712 10709 ] final    3.55 input   66.30 | X-H torsion
[ 10763 10752 10751 10750 ] final   49.46 input  -60.55 | X-H torsion
[ 11005 11000 10999 10996 ] final  126.10 input  -57.11 | X-H torsion

> <Gold.Protein.ActiveResidues>
 VAL166  LYS551  ARG553  GLY616  TRP617  ASP618  TYR619  PRO620  LYS621  CYS622 
 ASP623  PHE694  ASN695  SER759  ASP760  ASP761  ALA762  ILE779  LEU786  VAL792 
 PHE793  MET794  SER795  GLU796  ALA797  LYS798  CYS799  TRP800  GLU811  SER814 

> <Gold.Protein.RotatedAtoms>
  152.3033  134.7584  160.0352 H   0  0  0  0  0  0  0  0  0  0  0  0  # atno 6907 bound_to 6896
  151.8090  133.3374  159.3558 H   0  0  0  0  0  0  0  0  0  0  0  0  # atno 6908 bound_to 6896
  150.7284  134.5612  159.5887 H   0  0  0  0  0  0  0  0  0  0  0  0  # atno 6909 bound_to 6896
  144.7681  140.4366  143.5927 H   0  0  0  0  0  0  0  0  0  0  0  0  # atno 7974 bound_to 7965
  155.3761  140.3426  155.4245 H   0  0  0  0  0  0  0  0  0  0  0  0  # atno 8008 bound_to 7997
  156.1636  140.1608  156.8604 H   0  0  0  0  0  0  0  0  0  0  0  0  # atno 8009 bound_to 7997
  154.5163  140.0777  156.8069 H   0  0  0  0  0  0  0  0  0  0  0  0  # atno 8010 bound_to 7997
  140.1320  144.4634  150.6859 H   0  0  0  0  0  0  0  0  0  0  0  0  # atno 10167 bound_to 10162
  156.8795  130.5648  149.5653 H   0  0  0  0  0  0  0  0  0  0  0  0  # atno 10718 bound_to 10713
  152.9787  135.5911  154.4092 H   0  0  0  0  0  0  0  0  0  0  0  0  # atno 10763 bound_to 10752
  154.3729  135.2767  155.2258 H   0  0  0  0  0  0  0  0  0  0  0  0  # atno 10764 bound_to 10752
  154.4205  135.6060  153.6062 H   0  0  0  0  0  0  0  0  0  0  0  0  # atno 10765 bound_to 10752
  139.9439  134.9632  156.8657 H   0  0  0  0  0  0  0  0  0  0  0  0  # atno 11005 bound_to 11000
  145.6406  139.1549  143.2917 LP  0  0  0  0  0  0  0  0  0  0  0  0  # atno 17320 bound_to 7965
  146.1806  140.6503  142.9191 LP  0  0  0  0  0  0  0  0  0  0  0  0  # atno 17321 bound_to 7965
  140.6811  143.2327  151.5380 LP  0  0  0  0  0  0  0  0  0  0  0  0  # atno 17342 bound_to 10162
  139.5515  144.2384  152.1538 LP  0  0  0  0  0  0  0  0  0  0  0  0  # atno 17343 bound_to 10162
  156.0684  130.5722  150.9335 LP  0  0  0  0  0  0  0  0  0  0  0  0  # atno 17370 bound_to 10713
  157.6148  131.0934  150.8729 LP  0  0  0  0  0  0  0  0  0  0  0  0  # atno 17371 bound_to 10713
  140.5883  134.0286  155.7490 LP  0  0  0  0  0  0  0  0  0  0  0  0  # atno 17394 bound_to 11000
  141.1083  133.9657  157.2956 LP  0  0  0  0  0  0  0  0  0  0  0  0  # atno 17395 bound_to 11000

$$$$
