AV-unprocessed.smi:1427|AV-procd|sdf|5809|dock8
  -GOLD-   22720 5463D 1   1.00000     0.00000
 Structure written by MMmdl.
 33 34  0  0  0  0  0  0  0  0  1 V2000
  150.7482  141.3149  158.1390 C   0  0  0  0  0  0  0  0  0  0  0  0
  151.0595  142.2525  156.9630 C   0  0  2  0  0  0  0  0  0  0  0  0
  151.3757  143.6830  157.4422 C   0  0  0  0  0  0  0  0  0  0  0  0
  151.8220  143.7141  158.8250 N   0  0  0  0  0  0  0  0  0  0  0  0
  151.3145  144.4544  159.8716 C   0  0  0  0  0  0  0  0  0  0  0  0
  152.0416  144.1380  160.9832 C   0  0  0  0  0  0  0  0  0  0  0  0
  152.9833  143.1815  160.5110 C   0  0  0  0  0  0  0  0  0  0  0  0
  152.8520  142.9328  159.2182 N   0  0  0  0  0  0  0  0  0  0  0  0
  149.9331  142.2844  156.0352 N   0  0  0  0  0  0  0  0  0  0  0  0
  149.7056  141.4159  155.0364 C   0  0  0  0  0  0  0  0  0  0  0  0
  150.3994  140.4165  154.8504 O   0  0  0  0  0  0  0  0  0  0  0  0
  148.5240  141.7043  154.0897 C   0  0  2  0  0  0  0  0  0  0  0  0
  147.1869  141.9503  154.8162 C   0  0  0  0  0  0  0  0  0  0  0  0
  146.4209  140.6258  154.6977 C   0  0  0  0  0  0  0  0  0  0  0  0
  147.0911  139.9633  153.5048 C   0  0  0  0  0  0  0  0  0  0  0  0
  146.6389  138.9745  152.9329 O   0  0  0  0  0  0  0  0  0  0  0  0
  148.2150  140.6059  153.1832 N   0  0  0  0  0  0  0  0  0  0  0  0
  151.5860  141.2700  158.8351 H   0  0  0  0  0  0  0  0  0  0  0  0
  150.5553  140.2987  157.7938 H   0  0  0  0  0  0  0  0  0  0  0  0
  149.8717  141.6511  158.6938 H   0  0  0  0  0  0  0  0  0  0  0  0
  151.9411  141.8692  156.4455 H   0  0  0  0  0  0  0  0  0  0  0  0
  152.1381  144.1427  156.8104 H   0  0  0  0  0  0  0  0  0  0  0  0
  150.4871  144.3103  157.3622 H   0  0  0  0  0  0  0  0  0  0  0  0
  150.4853  145.1338  159.7398 H   0  0  0  0  0  0  0  0  0  0  0  0
  151.9177  144.5287  161.9822 H   0  0  0  0  0  0  0  0  0  0  0  0
  153.7529  142.6645  161.0648 H   0  0  0  0  0  0  0  0  0  0  0  0
  149.3114  143.0768  156.1114 H   0  0  0  0  0  0  0  0  0  0  0  0
  148.7871  142.5814  153.4972 H   0  0  0  0  0  0  0  0  0  0  0  0
  147.3104  142.2573  155.8558 H   0  0  0  0  0  0  0  0  0  0  0  0
  146.6312  142.7420  154.3115 H   0  0  0  0  0  0  0  0  0  0  0  0
  146.5636  140.0021  155.5808 H   0  0  0  0  0  0  0  0  0  0  0  0
  145.3529  140.7744  154.5365 H   0  0  0  0  0  0  0  0  0  0  0  0
  148.8221  140.3407  152.4212 H   0  0  0  0  0  0  0  0  0  0  0  0
  1  2  1  0  0  0  0
  1 18  1  0  0  0  0
  1 19  1  0  0  0  0
  1 20  1  0  0  0  0
  2  3  1  0  0  0  0
  2  9  1  0  0  0  0
  2 21  1  0  0  0  0
  3  4  1  0  0  0  0
  3 22  1  0  0  0  0
  3 23  1  0  0  0  0
  4  8  1  0  0  0  0
  4  5  1  0  0  0  0
  5  6  2  0  0  0  0
  5 24  1  0  0  0  0
  6  7  1  0  0  0  0
  6 25  1  0  0  0  0
  7  8  2  0  0  0  0
  7 26  1  0  0  0  0
  9 10  1  0  0  0  0
  9 27  1  0  0  0  0
 10 11  2  0  0  0  0
 10 12  1  0  0  0  0
 12 17  1  0  0  0  0
 12 13  1  0  0  0  0
 12 28  1  0  0  0  0
 13 14  1  0  0  0  0
 13 29  1  0  0  0  0
 13 30  1  0  0  0  0
 14 15  1  0  0  0  0
 14 31  1  0  0  0  0
 14 32  1  0  0  0  0
 15 16  2  0  0  0  0
 15 17  1  0  0  0  0
 17 33  1  0  0  0  0
M  END
> <s_m_source_file>
AV-unprocessed.smi

> <i_m_source_file_index>
1427

> <i_lp_mmshare_version>
43012

> <i_f3d_flags>
0

> <s_epik_input>
bjFbY0hdW2NIXVtjSF1uMVtDSDJdW0NAQEhdKFtDSDNdKVtOSF1DKD1PKVtDQEBIXTJbQ0gyXVtDSDJdQyg9TylbTkhdMg==

> <s_epik_cmdline>
J2VwaWtfcHl0aG9uJywgJy1waCcsICc3LjAnLCAnLXRuJywgJzgnLCAnLW1hJywgJzIwMCcsICctbWV0YWxfYmluZGluZycsICctaW1hZScsICc8aW5maWxlLm1hZT4nLCAnLW9tYWUnLCAnPG91dGZpbGUubWFlPic=

> <r_lp_tautomer_probability>
1

> <r_epik_Ionization_Penalty>
0.000310707

> <r_epik_Ionization_Penalty_Charging>
0

> <r_epik_Ionization_Penalty_Neutral>
0.000310707

> <r_epik_State_Penalty>
-0

> <r_epik_Charging_Adjusted_Penalty>
0

> <i_epik_Tot_Q>
0

> <i_epik_Tot_abs_Q>
0

> <r_epik_Metal_State_Penalty>
-0

> <b_epik_Metal_Only>
0

> <s_lp_Force_Field>
OPLS_2005

> <r_lp_Energy>
13.3236

> <b_lp_Chiralities_Consistent>
1

> <s_lp_Variant>
AV-unprocessed.smi:1427-1

> <Gold.Version>
5.8.1

> <Gold.Id.Protein>
6NUR|6NUR_protein|mol2

> <Gold.PLP.Fitness>
45.0154

> <Gold.PLP.PLP>
-38.1117

> <Gold.PLP.part.hbond>
-3.0000

> <Gold.PLP.part.metal>
0.0000

> <Gold.PLP.part.buried>
-5.2851

> <Gold.PLP.part.nonpolar>
-30.2529

> <Gold.PLP.part.repulsive>
0.6036

> <Gold.PLP.ligand.clash>
0.0000

> <Gold.PLP.ligand.torsion>
1.0474

> <Gold.PLP.Chemscore.Hbond>
2.9920

> <Gold.PLP.Chemscore.CHOScore>
0.0000

> <Gold.PLP.Chemscore.Metal>
0.0000

> <Gold.Chemscore.Hbonds>
donor molecule, donor type, donor heavy atom, donor atom, acceptor molecule, acceptor atom, score
      L1  H     9    27       P1  8028  0.99
      L1  H    17    33       P1  7957  0.96
      P1  H  7989  7998       L1    11  1.00

> <Gold.PLP.Chemscore.Internal.Correction>
0.0225

> <Gold.Rescore>
     Score         DG    S(hbond)    S(metal)    S(lipo)     H(rot)  DE(clash)    DE(int)     intcor
     15.82     -17.04       2.19        0.00      77.56       1.88       0.28       0.93       ----

> <Gold.Chemscore.Fitness>
15.8236

> <Gold.Chemscore.DG>
-17.0402

> <Gold.Chemscore.ZeroCoef>
-5.4800

> <Gold.Chemscore.Hbond>
2.1866

> <Gold.Chemscore.Metal>
0.0000

> <Gold.Chemscore.Lipo>
77.5632

> <Gold.Chemscore.Internal_Hbond>
0.0000

> <Gold.Chemscore.DEClash>
0.2844

> <Gold.Chemscore.DEInternal>
0.9322

> <Gold.Chemscore.Rot>
1.8821

> <Gold.Chemscore.Internal.Correction>
   9.000000E+99

> <Gold.Chemscore.Hbonds>
donor molecule, donor type, donor heavy atom, donor atom, acceptor molecule, acceptor atom, score
      L1  H     9    27       P1  8028  0.94
      L1  H    17    33       P1  7957  0.90
      P1  H  7989  7998       L1    11  0.53

> <Gold.Chemscore.Hbond.Weighted>
-7.3034

> <Gold.Chemscore.Metal.Weighted>
-0.0000

> <Gold.Chemscore.Lipo.Weighted>
-9.0749

> <Gold.Chemscore.Internal_Hbond.Weighted>
0.0000

> <Gold.Chemscore.DEClash.Weighted>
0.2844

> <Gold.Chemscore.DEInternal.Weighted>
0.9322

> <Gold.Chemscore.Rot.Weighted>
4.8181

> <Gold.Chemscore.Internal.Correction.Weighted>
   9.000000E+99

> <Gold.Protein.RotatedTorsions>
[ 6907 6896 6895 6894 ] final  164.12 input  -60.11 | X-H torsion
[ 7974 7965 7964 7962 ] final  109.87 input  175.53 | X-H torsion
[ 8008 7997 7996 7995 ] final   45.84 input   59.86 | X-H torsion
[ 10167 10162 10161 10158 ] final -139.60 input  -65.29 | X-H torsion
[ 10718 10713 10712 10709 ] final  152.30 input   66.30 | X-H torsion
[ 10763 10752 10751 10750 ] final   -6.43 input  -60.55 | X-H torsion
[ 11005 11000 10999 10996 ] final   -6.17 input  -57.11 | X-H torsion

> <Gold.Protein.ActiveResidues>
 VAL166  LYS551  ARG553  GLY616  TRP617  ASP618  TYR619  PRO620  LYS621  CYS622 
 ASP623  PHE694  ASN695  SER759  ASP760  ASP761  ALA762  ILE779  LEU786  VAL792 
 PHE793  MET794  SER795  GLU796  ALA797  LYS798  CYS799  TRP800  GLU811  SER814 

> <Gold.Protein.RotatedAtoms>
  151.9147  133.3570  159.3875 H   0  0  0  0  0  0  0  0  0  0  0  0  # atno 6907 bound_to 6896
  150.7050  134.4696  159.5428 H   0  0  0  0  0  0  0  0  0  0  0  0  # atno 6908 bound_to 6896
  152.2309  134.8323  160.0524 H   0  0  0  0  0  0  0  0  0  0  0  0  # atno 6909 bound_to 6896
  145.2623  139.2698  143.4010 H   0  0  0  0  0  0  0  0  0  0  0  0  # atno 7974 bound_to 7965
  155.3425  140.3409  155.4239 H   0  0  0  0  0  0  0  0  0  0  0  0  # atno 8008 bound_to 7997
  156.1805  140.1662  156.8318 H   0  0  0  0  0  0  0  0  0  0  0  0  # atno 8009 bound_to 7997
  154.5329  140.0741  156.8359 H   0  0  0  0  0  0  0  0  0  0  0  0  # atno 8010 bound_to 7997
  139.8363  143.7380  152.2664 H   0  0  0  0  0  0  0  0  0  0  0  0  # atno 10167 bound_to 10162
  157.2595  131.0795  151.1675 H   0  0  0  0  0  0  0  0  0  0  0  0  # atno 10718 bound_to 10713
  153.4122  135.7008  153.6351 H   0  0  0  0  0  0  0  0  0  0  0  0  # atno 10763 bound_to 10752
  153.4841  135.3687  155.2458 H   0  0  0  0  0  0  0  0  0  0  0  0  # atno 10764 bound_to 10752
  154.8717  135.4073  154.3476 H   0  0  0  0  0  0  0  0  0  0  0  0  # atno 10765 bound_to 10752
  140.6991  133.9005  155.8671 H   0  0  0  0  0  0  0  0  0  0  0  0  # atno 11005 bound_to 11000
  146.3271  140.3043  142.8622 LP  0  0  0  0  0  0  0  0  0  0  0  0  # atno 17320 bound_to 7965
  144.9408  140.8076  143.5632 LP  0  0  0  0  0  0  0  0  0  0  0  0  # atno 17321 bound_to 7965
  139.7603  144.7508  151.0374 LP  0  0  0  0  0  0  0  0  0  0  0  0  # atno 17342 bound_to 10162
  140.7802  143.4758  151.0084 LP  0  0  0  0  0  0  0  0  0  0  0  0  # atno 17343 bound_to 10162
  157.3190  130.6928  149.6258 LP  0  0  0  0  0  0  0  0  0  0  0  0  # atno 17370 bound_to 10713
  155.9664  130.4341  150.5034 LP  0  0  0  0  0  0  0  0  0  0  0  0  # atno 17371 bound_to 10713
  141.0178  134.0931  157.4153 LP  0  0  0  0  0  0  0  0  0  0  0  0  # atno 17394 bound_to 11000
  139.8902  135.0110  156.6721 LP  0  0  0  0  0  0  0  0  0  0  0  0  # atno 17395 bound_to 11000

$$$$
