AV-unprocessed.smi:2915|AV-procd|sdf|11187|dock5
  -GOLD-   2272016 83D 1   1.00000     0.00000
 Structure written by MMmdl.
 41 42  0  0  0  0  0  0  0  0  1 V2000
  148.8692  145.3461  160.7684 C   0  0  0  0  0  0  0  0  0  0  0  0
  150.1317  144.8619  160.1422 C   0  0  0  0  0  0  0  0  0  0  0  0
  150.2398  143.6938  159.5037 N   0  0  0  0  0  0  0  0  0  0  0  0
  151.5257  143.4732  158.9984 C   0  0  0  0  0  0  0  0  0  0  0  0
  151.8302  142.2093  158.2436 C   0  0  0  0  0  0  0  0  0  0  0  0
  150.5655  141.5477  157.6801 C   0  0  0  0  0  0  0  0  0  0  0  0
  149.4729  142.1160  157.7190 O   0  0  0  0  0  0  0  0  0  0  0  0
  150.7396  140.3247  157.1560 N   0  0  0  0  0  0  0  0  0  0  0  0
  149.6946  139.4754  156.5826 C   0  0  0  0  0  0  0  0  0  0  0  0
  149.5190  139.6554  155.0479 C   0  0  0  0  0  0  0  0  0  0  0  0
  150.6941  138.9059  154.3568 C   0  0  0  0  0  0  0  0  0  0  0  0
  150.7364  137.3713  154.5197 C   0  0  0  0  0  0  0  0  0  0  0  0
  151.8918  136.8630  153.8890 O   0  0  0  0  0  0  0  0  0  0  0  0
  148.1411  139.1103  154.5801 C   0  0  0  0  0  0  0  0  0  0  0  0
  147.5440  140.1786  153.6633 C   0  0  0  0  0  0  0  0  0  0  0  0
  148.0750  141.4894  154.2316 C   0  0  0  0  0  0  0  0  0  0  0  0
  149.5055  141.1609  154.6628 C   0  0  0  0  0  0  0  0  0  0  0  0
  152.3989  144.4952  159.2794 C   0  0  0  0  0  0  0  0  0  0  0  0
  151.6331  145.7780  160.1747 S   0  0  0  0  0  0  0  0  0  0  0  0
  148.0373  144.6876  160.5163 H   0  0  0  0  0  0  0  0  0  0  0  0
  148.6392  146.3506  160.4135 H   0  0  0  0  0  0  0  0  0  0  0  0
  148.9787  145.3733  161.8526 H   0  0  0  0  0  0  0  0  0  0  0  0
  152.5109  142.4173  157.4174 H   0  0  0  0  0  0  0  0  0  0  0  0
  152.3407  141.4946  158.8909 H   0  0  0  0  0  0  0  0  0  0  0  0
  151.6731  139.9403  157.1682 H   0  0  0  0  0  0  0  0  0  0  0  0
  149.8822  138.4254  156.8136 H   0  0  0  0  0  0  0  0  0  0  0  0
  148.7627  139.7259  157.0905 H   0  0  0  0  0  0  0  0  0  0  0  0
  150.6804  139.1429  153.2917 H   0  0  0  0  0  0  0  0  0  0  0  0
  151.6359  139.3076  154.7340 H   0  0  0  0  0  0  0  0  0  0  0  0
  150.7699  137.0812  155.5690 H   0  0  0  0  0  0  0  0  0  0  0  0
  149.8664  136.8873  154.0788 H   0  0  0  0  0  0  0  0  0  0  0  0
  151.7300  136.8125  152.9591 H   0  0  0  0  0  0  0  0  0  0  0  0
  148.2037  138.1380  154.0914 H   0  0  0  0  0  0  0  0  0  0  0  0
  147.4640  138.9689  155.4223 H   0  0  0  0  0  0  0  0  0  0  0  0
  147.9088  140.0433  152.6444 H   0  0  0  0  0  0  0  0  0  0  0  0
  146.4545  140.1451  153.6345 H   0  0  0  0  0  0  0  0  0  0  0  0
  148.0314  142.3079  153.5127 H   0  0  0  0  0  0  0  0  0  0  0  0
  147.4846  141.7787  155.1023 H   0  0  0  0  0  0  0  0  0  0  0  0
  149.8390  141.8141  155.4692 H   0  0  0  0  0  0  0  0  0  0  0  0
  150.1776  141.3644  153.8308 H   0  0  0  0  0  0  0  0  0  0  0  0
  153.4414  144.5731  159.0084 H   0  0  0  0  0  0  0  0  0  0  0  0
  1  2  1  0  0  0  0
  1 20  1  0  0  0  0
  1 21  1  0  0  0  0
  1 22  1  0  0  0  0
  2 19  1  0  0  0  0
  2  3  2  0  0  0  0
  3  4  1  0  0  0  0
  4  5  1  0  0  0  0
  4 18  2  0  0  0  0
  5  6  1  0  0  0  0
  5 23  1  0  0  0  0
  5 24  1  0  0  0  0
  6  7  2  0  0  0  0
  6  8  1  0  0  0  0
  8  9  1  0  0  0  0
  8 25  1  0  0  0  0
  9 10  1  0  0  0  0
  9 26  1  0  0  0  0
  9 27  1  0  0  0  0
 10 17  1  0  0  0  0
 10 11  1  0  0  0  0
 10 14  1  0  0  0  0
 11 12  1  0  0  0  0
 11 28  1  0  0  0  0
 11 29  1  0  0  0  0
 12 13  1  0  0  0  0
 12 30  1  0  0  0  0
 12 31  1  0  0  0  0
 13 32  1  0  0  0  0
 14 15  1  0  0  0  0
 14 33  1  0  0  0  0
 14 34  1  0  0  0  0
 15 16  1  0  0  0  0
 15 35  1  0  0  0  0
 15 36  1  0  0  0  0
 16 17  1  0  0  0  0
 16 37  1  0  0  0  0
 16 38  1  0  0  0  0
 17 39  1  0  0  0  0
 17 40  1  0  0  0  0
 18 19  1  0  0  0  0
 18 41  1  0  0  0  0
M  END
> <s_m_source_file>
AV-unprocessed.smi

> <i_m_source_file_index>
2915

> <i_lp_mmshare_version>
43012

> <i_f3d_flags>
0

> <s_epik_input>
W0NIM11jMW5jKFtjSF1zMSlbQ0gyXUMoPU8pW05IXVtDSDJdQzIoW0NIMl1bQ0gyXVtPSF0pW0NIMl1bQ0gyXVtDSDJdW0NIMl0y

> <s_epik_cmdline>
J2VwaWtfcHl0aG9uJywgJy1waCcsICc3LjAnLCAnLXRuJywgJzgnLCAnLW1hJywgJzIwMCcsICctbWV0YWxfYmluZGluZycsICctaW1hZScsICc8aW5maWxlLm1hZT4nLCAnLW9tYWUnLCAnPG91dGZpbGUubWFlPic=

> <r_lp_tautomer_probability>
1

> <r_epik_Ionization_Penalty>
5.95244e-05

> <r_epik_Ionization_Penalty_Charging>
0

> <r_epik_Ionization_Penalty_Neutral>
5.95244e-05

> <r_epik_State_Penalty>
-0

> <r_epik_Charging_Adjusted_Penalty>
0

> <i_epik_Tot_Q>
0

> <i_epik_Tot_abs_Q>
0

> <r_epik_Metal_State_Penalty>
-0

> <b_epik_Metal_Only>
0

> <s_lp_Force_Field>
OPLS_2005

> <r_lp_Energy>
27.9647

> <b_lp_Chiralities_Consistent>
1

> <s_lp_Variant>
AV-unprocessed.smi:2915-1

> <Gold.Version>
5.8.1

> <Gold.Id.Protein>
6NUR|6NUR_protein|mol2

> <Gold.PLP.Fitness>
43.8864

> <Gold.PLP.PLP>
-39.4134

> <Gold.PLP.part.hbond>
-2.1198

> <Gold.PLP.part.metal>
0.0000

> <Gold.PLP.part.buried>
-4.4537

> <Gold.PLP.part.nonpolar>
-33.1370

> <Gold.PLP.part.repulsive>
0.2818

> <Gold.PLP.ligand.clash>
0.0000

> <Gold.PLP.ligand.torsion>
0.7786

> <Gold.PLP.Chemscore.Hbond>
2.0000

> <Gold.PLP.Chemscore.CHOScore>
0.0000

> <Gold.PLP.Chemscore.Metal>
0.0000

> <Gold.Chemscore.Hbonds>
donor molecule, donor type, donor heavy atom, donor atom, acceptor molecule, acceptor atom, score
      L1  H    13    32       P1  7949  1.00
      P1  H 10752 10764       L1    13  1.00

> <Gold.PLP.Chemscore.Internal.Correction>
0.0303

> <Gold.Rescore>
     Score         DG    S(hbond)    S(metal)    S(lipo)     H(rot)  DE(clash)    DE(int)     intcor
     15.34     -17.90       1.74        0.00     110.16       2.45       0.05       2.52       ----

> <Gold.Chemscore.Fitness>
15.3383

> <Gold.Chemscore.DG>
-17.9042

> <Gold.Chemscore.ZeroCoef>
-5.4800

> <Gold.Chemscore.Hbond>
1.7363

> <Gold.Chemscore.Metal>
0.0000

> <Gold.Chemscore.Lipo>
110.1621

> <Gold.Chemscore.Internal_Hbond>
0.0000

> <Gold.Chemscore.DEClash>
0.0502

> <Gold.Chemscore.DEInternal>
2.5156

> <Gold.Chemscore.Rot>
2.4469

> <Gold.Chemscore.Internal.Correction>
   9.000000E+99

> <Gold.Chemscore.Hbonds>
donor molecule, donor type, donor heavy atom, donor atom, acceptor molecule, acceptor atom, score
      L1  H    13    32       P1  7949  0.96
      P1  H 10752 10764       L1    13  0.30

> <Gold.Chemscore.Hbond.Weighted>
-5.7992

> <Gold.Chemscore.Metal.Weighted>
-0.0000

> <Gold.Chemscore.Lipo.Weighted>
-12.8890

> <Gold.Chemscore.Internal_Hbond.Weighted>
0.0000

> <Gold.Chemscore.DEClash.Weighted>
0.0502

> <Gold.Chemscore.DEInternal.Weighted>
2.5156

> <Gold.Chemscore.Rot.Weighted>
6.2640

> <Gold.Chemscore.Internal.Correction.Weighted>
   9.000000E+99

> <Gold.Protein.RotatedTorsions>
[ 6907 6896 6895 6894 ] final  134.90 input  -60.11 | X-H torsion
[ 7974 7965 7964 7962 ] final  -88.95 input  175.53 | X-H torsion
[ 8008 7997 7996 7995 ] final  -24.78 input   59.86 | X-H torsion
[ 10167 10162 10161 10158 ] final -122.09 input  -65.29 | X-H torsion
[ 10718 10713 10712 10709 ] final  -19.02 input   66.30 | X-H torsion
[ 10763 10752 10751 10750 ] final  -90.86 input  -60.55 | X-H torsion
[ 11005 11000 10999 10996 ] final -164.87 input  -57.11 | X-H torsion

> <Gold.Protein.ActiveResidues>
 VAL166  LYS551  ARG553  GLY616  TRP617  ASP618  TYR619  PRO620  LYS621  CYS622 
 ASP623  PHE694  ASN695  SER759  ASP760  ASP761  ALA762  ILE779  LEU786  VAL792 
 PHE793  MET794  SER795  GLU796  ALA797  LYS798  CYS799  TRP800  GLU811  SER814 

> <Gold.Protein.RotatedAtoms>
  152.3063  133.5706  159.5650 H   0  0  0  0  0  0  0  0  0  0  0  0  # atno 6907 bound_to 6896
  150.7301  134.0218  159.3713 H   0  0  0  0  0  0  0  0  0  0  0  0  # atno 6908 bound_to 6896
  151.8114  135.0680  160.0464 H   0  0  0  0  0  0  0  0  0  0  0  0  # atno 6909 bound_to 6896
  145.4463  140.9560  143.2047 H   0  0  0  0  0  0  0  0  0  0  0  0  # atno 7974 bound_to 7965
  154.4510  140.1944  156.0518 H   0  0  0  0  0  0  0  0  0  0  0  0  # atno 8008 bound_to 7997
  156.0649  140.3292  155.7478 H   0  0  0  0  0  0  0  0  0  0  0  0  # atno 8009 bound_to 7997
  155.5355  140.0582  157.2871 H   0  0  0  0  0  0  0  0  0  0  0  0  # atno 8010 bound_to 7997
  140.0180  143.5373  152.2233 H   0  0  0  0  0  0  0  0  0  0  0  0  # atno 10167 bound_to 10162
  156.5515  130.4703  149.6450 H   0  0  0  0  0  0  0  0  0  0  0  0  # atno 10718 bound_to 10713
  154.6702  135.5289  153.8128 H   0  0  0  0  0  0  0  0  0  0  0  0  # atno 10763 bound_to 10752
  153.0496  135.6527  154.0737 H   0  0  0  0  0  0  0  0  0  0  0  0  # atno 10764 bound_to 10752
  154.0636  135.2959  155.3300 H   0  0  0  0  0  0  0  0  0  0  0  0  # atno 10765 bound_to 10752
  140.5820  134.5132  157.5180 H   0  0  0  0  0  0  0  0  0  0  0  0  # atno 11005 bound_to 11000
  144.8090  139.5998  143.7038 LP  0  0  0  0  0  0  0  0  0  0  0  0  # atno 17320 bound_to 7965
  146.2529  139.6239  142.9415 LP  0  0  0  0  0  0  0  0  0  0  0  0  # atno 17321 bound_to 7965
  139.6159  144.7619  151.2847 LP  0  0  0  0  0  0  0  0  0  0  0  0  # atno 17342 bound_to 10162
  140.7354  143.6737  150.8059 LP  0  0  0  0  0  0  0  0  0  0  0  0  # atno 17343 bound_to 10162
  156.2880  130.7108  151.1950 LP  0  0  0  0  0  0  0  0  0  0  0  0  # atno 17370 bound_to 10713
  157.7386  131.0538  150.5281 LP  0  0  0  0  0  0  0  0  0  0  0  0  # atno 17371 bound_to 10713
  139.9313  134.7959  156.0924 LP  0  0  0  0  0  0  0  0  0  0  0  0  # atno 17394 bound_to 11000
  141.0990  133.6684  156.2710 LP  0  0  0  0  0  0  0  0  0  0  0  0  # atno 17395 bound_to 11000

$$$$
