AV-unprocessed.smi:101|AV-procd|sdf|924|dock9
  -GOLD-   2262017433D 1   1.00000     0.00000
 Structure written by MMmdl.
 44 46  0  0  0  0  0  0  0  0  1 V2000
  144.1660  145.3599  153.8409 C   0  0  0  0  0  0  0  0  0  0  0  0
  144.7547  144.0493  154.3373 C   0  0  0  0  0  0  0  0  0  0  0  0
  145.7624  143.4113  153.6879 C   0  0  0  0  0  0  0  0  0  0  0  0
  146.3239  142.2135  154.1184 N   0  0  0  0  0  0  0  0  0  0  0  0
  147.4337  141.5013  153.3616 C   0  0  1  0  0  0  0  0  0  0  0  0
  148.6172  141.5398  154.0997 O   0  0  0  0  0  0  0  0  0  0  0  0
  148.7426  140.3393  154.8470 C   0  0  2  0  0  0  0  0  0  0  0  0
  150.1950  140.1394  155.3017 C   0  0  0  0  0  0  0  0  0  0  0  0
  150.4978  141.0224  156.3705 O   0  0  0  0  0  0  0  0  0  0  0  0
  151.6233  140.8558  157.0895 C   0  0  0  0  0  0  0  0  0  0  0  0
  152.3989  139.9104  156.9346 O   0  0  0  0  0  0  0  0  0  0  0  0
  151.8321  141.9376  158.0947 C   0  0  0  0  0  0  0  0  0  0  0  0
  152.6592  141.6926  159.2157 C   0  0  0  0  0  0  0  0  0  0  0  0
  152.8737  142.6949  160.1816 C   0  0  0  0  0  0  0  0  0  0  0  0
  152.2646  143.9550  160.0379 C   0  0  0  0  0  0  0  0  0  0  0  0
  151.4405  144.2118  158.9267 C   0  0  0  0  0  0  0  0  0  0  0  0
  151.2237  143.2103  157.9602 C   0  0  0  0  0  0  0  0  0  0  0  0
  148.1867  139.2643  153.9112 C   0  0  1  0  0  0  0  0  0  0  0  0
  147.6379  138.2007  154.6632 O   0  0  0  0  0  0  0  0  0  0  0  0
  147.0944  140.0053  153.1409 C   0  0  2  0  0  0  0  0  0  0  0  0
  147.1418  139.6566  151.7720 O   0  0  0  0  0  0  0  0  0  0  0  0
  145.7913  141.5825  155.2628 C   0  0  0  0  0  0  0  0  0  0  0  0
  146.1998  140.4971  155.6750 O   0  0  0  0  0  0  0  0  0  0  0  0
  144.7620  142.2396  155.9330 N   0  0  0  0  0  0  0  0  0  0  0  0
  144.1955  143.4585  155.5557 C   0  0  0  0  0  0  0  0  0  0  0  0
  143.2927  143.9448  156.2346 O   0  0  0  0  0  0  0  0  0  0  0  0
  144.3894  141.7938  156.7588 H   0  0  0  0  0  0  0  0  0  0  0  0
  144.6553  145.7063  152.9300 H   0  0  0  0  0  0  0  0  0  0  0  0
  144.2785  146.1382  154.5966 H   0  0  0  0  0  0  0  0  0  0  0  0
  143.1034  145.2427  153.6254 H   0  0  0  0  0  0  0  0  0  0  0  0
  146.1283  143.8751  152.7849 H   0  0  0  0  0  0  0  0  0  0  0  0
  147.5592  142.0802  152.4442 H   0  0  0  0  0  0  0  0  0  0  0  0
  148.1035  140.4216  155.7277 H   0  0  0  0  0  0  0  0  0  0  0  0
  150.3454  139.1075  155.6214 H   0  0  0  0  0  0  0  0  0  0  0  0
  150.8737  140.3263  154.4685 H   0  0  0  0  0  0  0  0  0  0  0  0
  153.1385  140.7331  159.3470 H   0  0  0  0  0  0  0  0  0  0  0  0
  153.5067  142.4961  161.0337 H   0  0  0  0  0  0  0  0  0  0  0  0
  152.4297  144.7235  160.7785 H   0  0  0  0  0  0  0  0  0  0  0  0
  150.9728  145.1788  158.8149 H   0  0  0  0  0  0  0  0  0  0  0  0
  150.5853  143.4409  157.1198 H   0  0  0  0  0  0  0  0  0  0  0  0
  148.9587  138.8927  153.2355 H   0  0  0  0  0  0  0  0  0  0  0  0
  147.5115  138.4982  155.5513 H   0  0  0  0  0  0  0  0  0  0  0  0
  146.1052  139.7790  153.5422 H   0  0  0  0  0  0  0  0  0  0  0  0
  148.0244  139.7912  151.4614 H   0  0  0  0  0  0  0  0  0  0  0  0
  1  2  1  0  0  0  0
  1 28  1  0  0  0  0
  1 29  1  0  0  0  0
  1 30  1  0  0  0  0
  2 25  1  0  0  0  0
  2  3  2  0  0  0  0
  3  4  1  0  0  0  0
  3 31  1  0  0  0  0
  4  5  1  0  0  0  0
  4 22  1  0  0  0  0
  5 20  1  0  0  0  0
  5  6  1  0  0  0  0
  5 32  1  0  0  0  0
  6  7  1  0  0  0  0
  7  8  1  0  0  0  0
  7 18  1  0  0  0  0
  7 33  1  0  0  0  0
  8  9  1  0  0  0  0
  8 34  1  0  0  0  0
  8 35  1  0  0  0  0
  9 10  1  0  0  0  0
 10 11  2  0  0  0  0
 10 12  1  0  0  0  0
 12 17  1  0  0  0  0
 12 13  2  0  0  0  0
 13 14  1  0  0  0  0
 13 36  1  0  0  0  0
 14 15  2  0  0  0  0
 14 37  1  0  0  0  0
 15 16  1  0  0  0  0
 15 38  1  0  0  0  0
 16 17  2  0  0  0  0
 16 39  1  0  0  0  0
 17 40  1  0  0  0  0
 18 19  1  0  0  0  0
 18 20  1  0  0  0  0
 18 41  1  0  0  0  0
 19 42  1  0  0  0  0
 20 21  1  0  0  0  0
 20 43  1  0  0  0  0
 21 44  1  0  0  0  0
 22 23  2  0  0  0  0
 22 24  1  0  0  0  0
 24 27  1  0  0  0  0
 24 25  1  0  0  0  0
 25 26  2  0  0  0  0
M  END
> <s_m_source_file>
AV-unprocessed.smi

> <i_m_source_file_index>
101

> <i_lp_mmshare_version>
43012

> <i_f3d_flags>
0

> <s_epik_input>
Tz1jMVtuSF1jKD1PKW4oW2NIXWMxW0NIM10pW0NAQEhdMk9bQ0BIXShbQ0BASF0oW09IXSlbQ0BIXTJbT0hdKVtDSDJdT0MoPU8pYzNbY0hdW2NIXVtjSF1bY0hdW2NIXTM=

> <s_epik_cmdline>
J2VwaWtfcHl0aG9uJywgJy1waCcsICc3LjAnLCAnLXRuJywgJzgnLCAnLW1hJywgJzIwMCcsICctbWV0YWxfYmluZGluZycsICctaW1hZScsICc8aW5maWxlLm1hZT4nLCAnLW9tYWUnLCAnPG91dGZpbGUubWFlPic=

> <r_lp_tautomer_probability>
0.999537

> <r_epik_Ionization_Penalty>
0.00263537

> <r_epik_Ionization_Penalty_Charging>
0.00263428

> <r_epik_Ionization_Penalty_Neutral>
1.09111e-06

> <r_epik_State_Penalty>
0.00183335

> <r_epik_Charging_Adjusted_Penalty>
0.00446763

> <i_epik_Tot_Q>
0

> <i_epik_Tot_abs_Q>
0

> <r_epik_Metal_State_Penalty>
1.00528

> <b_epik_Metal_Only>
0

> <s_epik_Chemistry_Notes>
This compound has an ester and may undergo hydrolysis at high or low pH. This compound contains an acetal/aminal-like group ( X-CH(R)-Y where X, Y are N, S, or O) that may be acid/base labile, releasing an aldehyde.

> <s_lp_Force_Field>
OPLS_2005

> <r_lp_Energy>
29.5421

> <b_lp_Chiralities_Consistent>
1

> <s_lp_Variant>
AV-unprocessed.smi:101-12

> <Gold.Version>
5.8.1

> <Gold.Id.Protein>
6NUR|6NUR_protein|mol2

> <Gold.PLP.Fitness>
54.1554

> <Gold.PLP.PLP>
-51.7685

> <Gold.PLP.part.hbond>
-3.0000

> <Gold.PLP.part.metal>
0.0000

> <Gold.PLP.part.buried>
-8.7621

> <Gold.PLP.part.nonpolar>
-39.9770

> <Gold.PLP.part.repulsive>
0.3122

> <Gold.PLP.ligand.clash>
3.1993

> <Gold.PLP.ligand.torsion>
0.5860

> <Gold.PLP.Chemscore.Hbond>
2.2303

> <Gold.PLP.Chemscore.CHOScore>
0.0000

> <Gold.PLP.Chemscore.Metal>
0.0000

> <Gold.Chemscore.Hbonds>
donor molecule, donor type, donor heavy atom, donor atom, acceptor molecule, acceptor atom, score
      L1  H    21    44       P1  7957  1.00
      P1  H  7997  8009       L1    11  1.00
      P1  H  8011  8017       L1     6  0.13

> <Gold.PLP.Chemscore.Internal.Correction>
0.0675

> <Gold.Rescore>
     Score         DG    S(hbond)    S(metal)    S(lipo)     H(rot)  DE(clash)    DE(int)     intcor
     10.36     -16.80       2.00        0.00     112.29       3.32       0.20       6.25       ----

> <Gold.Chemscore.Fitness>
10.3551

> <Gold.Chemscore.DG>
-16.8018

> <Gold.Chemscore.ZeroCoef>
-5.4800

> <Gold.Chemscore.Hbond>
1.9989

> <Gold.Chemscore.Metal>
0.0000

> <Gold.Chemscore.Lipo>
112.2863

> <Gold.Chemscore.Internal_Hbond>
0.0000

> <Gold.Chemscore.DEClash>
0.1976

> <Gold.Chemscore.DEInternal>
6.2491

> <Gold.Chemscore.Rot>
3.3172

> <Gold.Chemscore.Internal.Correction>
   9.000000E+99

> <Gold.Chemscore.Hbonds>
donor molecule, donor type, donor heavy atom, donor atom, acceptor molecule, acceptor atom, score
      L1  H    21    44       P1  7957  0.98
      P1  H  7997  8009       L1    11  0.96
      P1  H  8011  8017       L1     6  0.01

> <Gold.Chemscore.Hbond.Weighted>
-6.6763

> <Gold.Chemscore.Metal.Weighted>
-0.0000

> <Gold.Chemscore.Lipo.Weighted>
-13.1375

> <Gold.Chemscore.Internal_Hbond.Weighted>
0.0000

> <Gold.Chemscore.DEClash.Weighted>
0.1976

> <Gold.Chemscore.DEInternal.Weighted>
6.2491

> <Gold.Chemscore.Rot.Weighted>
8.4920

> <Gold.Chemscore.Internal.Correction.Weighted>
   9.000000E+99

> <Gold.Protein.RotatedTorsions>
[ 6907 6896 6895 6894 ] final -119.84 input  -60.11 | X-H torsion
[ 7974 7965 7964 7962 ] final   54.01 input  175.53 | X-H torsion
[ 8008 7997 7996 7995 ] final -173.82 input   59.86 | X-H torsion
[ 10167 10162 10161 10158 ] final -116.48 input  -65.29 | X-H torsion
[ 10718 10713 10712 10709 ] final   -8.41 input   66.30 | X-H torsion
[ 10763 10752 10751 10750 ] final  127.64 input  -60.55 | X-H torsion
[ 11005 11000 10999 10996 ] final   37.67 input  -57.11 | X-H torsion

> <Gold.Protein.ActiveResidues>
 VAL166  LYS551  ARG553  GLY616  TRP617  ASP618  TYR619  PRO620  LYS621  CYS622 
 ASP623  PHE694  ASN695  SER759  ASP760  ASP761  ALA762  ILE779  LEU786  VAL792 
 PHE793  MET794  SER795  GLU796  ALA797  LYS798  CYS799  TRP800  GLU811  SER814 

> <Gold.Protein.RotatedAtoms>
  150.8340  133.8044  159.3086 H   0  0  0  0  0  0  0  0  0  0  0  0  # atno 6907 bound_to 6896
  151.5765  135.1058  160.0017 H   0  0  0  0  0  0  0  0  0  0  0  0  # atno 6908 bound_to 6896
  152.4415  133.7415  159.6700 H   0  0  0  0  0  0  0  0  0  0  0  0  # atno 6909 bound_to 6896
  145.9652  139.4097  143.0224 H   0  0  0  0  0  0  0  0  0  0  0  0  # atno 7974 bound_to 7965
  155.9622  140.1146  157.0885 H   0  0  0  0  0  0  0  0  0  0  0  0  # atno 8008 bound_to 7997
  154.4135  140.1179  156.5261 H   0  0  0  0  0  0  0  0  0  0  0  0  # atno 8009 bound_to 7997
  155.6705  140.3473  155.4819 H   0  0  0  0  0  0  0  0  0  0  0  0  # atno 8010 bound_to 7997
  140.0788  143.4808  152.1938 H   0  0  0  0  0  0  0  0  0  0  0  0  # atno 10167 bound_to 10162
  156.7030  130.5099  149.5912 H   0  0  0  0  0  0  0  0  0  0  0  0  # atno 10718 bound_to 10713
  153.7127  135.3266  155.3249 H   0  0  0  0  0  0  0  0  0  0  0  0  # atno 10763 bound_to 10752
  154.8380  135.4480  154.1298 H   0  0  0  0  0  0  0  0  0  0  0  0  # atno 10764 bound_to 10752
  153.2396  135.6969  153.7877 H   0  0  0  0  0  0  0  0  0  0  0  0  # atno 10765 bound_to 10752
  140.2202  134.3650  155.8008 H   0  0  0  0  0  0  0  0  0  0  0  0  # atno 11005 bound_to 11000
  145.7984  140.9782  143.1012 LP  0  0  0  0  0  0  0  0  0  0  0  0  # atno 17320 bound_to 7965
  144.6824  139.9770  143.7483 LP  0  0  0  0  0  0  0  0  0  0  0  0  # atno 17321 bound_to 7965
  139.5792  144.7502  151.3684 LP  0  0  0  0  0  0  0  0  0  0  0  0  # atno 17342 bound_to 10162
  140.7088  143.7443  150.7530 LP  0  0  0  0  0  0  0  0  0  0  0  0  # atno 17343 bound_to 10162
  156.1715  130.6440  151.0843 LP  0  0  0  0  0  0  0  0  0  0  0  0  # atno 17370 bound_to 10713
  157.6965  131.0792  150.6951 LP  0  0  0  0  0  0  0  0  0  0  0  0  # atno 17371 bound_to 10713
  141.2223  133.7189  156.8564 LP  0  0  0  0  0  0  0  0  0  0  0  0  # atno 17394 bound_to 11000
  140.1857  134.9001  157.3002 LP  0  0  0  0  0  0  0  0  0  0  0  0  # atno 17395 bound_to 11000

$$$$
