AV-unprocessed.smi:40|AV-procd|sdf|376|dock6
  -GOLD-   2262016223D 1   1.00000     0.00000
 Structure written by MMmdl.
 47 48  0  0  0  0  0  0  0  0  1 V2000
  152.5111  143.7186  160.8609 C   0  0  0  0  0  0  0  0  0  0  0  0
  152.8144  143.1107  159.4867 C   0  0  0  0  0  0  0  0  0  0  0  0
  152.6496  141.5850  159.4700 C   0  0  0  0  0  0  0  0  0  0  0  0
  153.6588  140.8668  160.3819 C   0  0  0  0  0  0  0  0  0  0  0  0
  153.5005  139.3396  160.3708 C   0  0  0  0  0  0  0  0  0  0  0  0
  153.2164  138.9191  159.0477 O   0  0  0  0  0  0  0  0  0  0  0  0
  152.3683  137.9025  158.8102 C   0  0  0  0  0  0  0  0  0  0  0  0
  151.6973  137.3461  159.6787 O   0  0  0  0  0  0  0  0  0  0  0  0
  152.3230  137.5768  157.3941 N   0  0  0  0  0  0  0  0  0  0  0  0
  151.5885  136.6174  156.7803 C   0  0  0  0  0  0  0  0  0  0  0  0
  150.9271  135.6975  157.4628 N   0  0  0  0  0  0  0  0  0  0  0  0
  150.1713  134.7101  156.8940 C   0  0  0  0  0  0  0  0  0  0  0  0
  149.6158  133.8826  157.6110 O   0  0  0  0  0  0  0  0  0  0  0  0
  150.0625  134.7021  155.4784 N   0  0  0  0  0  0  0  0  0  0  0  0
  149.3237  133.6097  154.7186 C   0  0  1  0  0  0  0  0  0  0  0  0
  150.0525  132.4238  154.8024 O   0  0  0  0  0  0  0  0  0  0  0  0
  149.4417  131.5077  155.6996 C   0  0  2  0  0  0  0  0  0  0  0  0
  149.7152  130.0736  155.2323 C   0  0  0  0  0  0  0  0  0  0  0  0
  147.9512  131.8803  155.7146 C   0  0  1  0  0  0  0  0  0  0  0  0
  147.4482  131.7839  157.0320 O   0  0  0  0  0  0  0  0  0  0  0  0
  147.8907  133.3291  155.2185 C   0  0  2  0  0  0  0  0  0  0  0  0
  146.9574  133.4316  154.1614 O   0  0  0  0  0  0  0  0  0  0  0  0
  150.7443  135.6674  154.7489 C   0  0  0  0  0  0  0  0  0  0  0  0
  151.4916  136.6257  155.3383 C   0  0  0  0  0  0  0  0  0  0  0  0
  152.1334  137.5490  154.6012 F   0  0  0  0  0  0  0  0  0  0  0  0
  149.3300  133.9400  153.6792 H   0  0  0  0  0  0  0  0  0  0  0  0
  149.8928  131.6454  156.6819 H   0  0  0  0  0  0  0  0  0  0  0  0
  147.3842  131.2163  155.0597 H   0  0  0  0  0  0  0  0  0  0  0  0
  147.5993  134.0399  155.9918 H   0  0  0  0  0  0  0  0  0  0  0  0
  152.6374  144.8013  160.8423 H   0  0  0  0  0  0  0  0  0  0  0  0
  153.1802  143.3192  161.6241 H   0  0  0  0  0  0  0  0  0  0  0  0
  151.4866  143.5075  161.1686 H   0  0  0  0  0  0  0  0  0  0  0  0
  152.1597  143.5591  158.7387 H   0  0  0  0  0  0  0  0  0  0  0  0
  153.8344  143.3709  159.2012 H   0  0  0  0  0  0  0  0  0  0  0  0
  151.6349  141.3403  159.7831 H   0  0  0  0  0  0  0  0  0  0  0  0
  152.7525  141.2157  158.4489 H   0  0  0  0  0  0  0  0  0  0  0  0
  154.6716  141.1213  160.0681 H   0  0  0  0  0  0  0  0  0  0  0  0
  153.5546  141.2309  161.4047 H   0  0  0  0  0  0  0  0  0  0  0  0
  154.4110  138.8570  160.7282 H   0  0  0  0  0  0  0  0  0  0  0  0
  152.6871  139.0449  161.0354 H   0  0  0  0  0  0  0  0  0  0  0  0
  152.9346  138.1351  156.8168 H   0  0  0  0  0  0  0  0  0  0  0  0
  149.2462  129.3500  155.8996 H   0  0  0  0  0  0  0  0  0  0  0  0
  150.7855  129.8670  155.2166 H   0  0  0  0  0  0  0  0  0  0  0  0
  149.3281  129.9039  154.2272 H   0  0  0  0  0  0  0  0  0  0  0  0
  147.0380  130.9377  157.1331 H   0  0  0  0  0  0  0  0  0  0  0  0
  146.6427  134.3218  154.1251 H   0  0  0  0  0  0  0  0  0  0  0  0
  150.6882  135.6690  153.6699 H   0  0  0  0  0  0  0  0  0  0  0  0
  1  2  1  0  0  0  0
  1 30  1  0  0  0  0
  1 31  1  0  0  0  0
  1 32  1  0  0  0  0
  2  3  1  0  0  0  0
  2 33  1  0  0  0  0
  2 34  1  0  0  0  0
  3  4  1  0  0  0  0
  3 35  1  0  0  0  0
  3 36  1  0  0  0  0
  4  5  1  0  0  0  0
  4 37  1  0  0  0  0
  4 38  1  0  0  0  0
  5  6  1  0  0  0  0
  5 39  1  0  0  0  0
  5 40  1  0  0  0  0
  6  7  1  0  0  0  0
  7  8  2  0  0  0  0
  7  9  1  0  0  0  0
  9 10  1  0  0  0  0
  9 41  1  0  0  0  0
 10 24  1  0  0  0  0
 10 11  2  0  0  0  0
 11 12  1  0  0  0  0
 12 13  2  0  0  0  0
 12 14  1  0  0  0  0
 14 15  1  0  0  0  0
 14 23  1  0  0  0  0
 15 26  1  0  0  0  0
 15 21  1  0  0  0  0
 15 16  1  0  0  0  0
 16 17  1  0  0  0  0
 17 27  1  0  0  0  0
 17 18  1  0  0  0  0
 17 19  1  0  0  0  0
 18 42  1  0  0  0  0
 18 43  1  0  0  0  0
 18 44  1  0  0  0  0
 19 28  1  0  0  0  0
 19 20  1  0  0  0  0
 19 21  1  0  0  0  0
 20 45  1  0  0  0  0
 21 29  1  0  0  0  0
 21 22  1  0  0  0  0
 22 46  1  0  0  0  0
 23 24  2  0  0  0  0
 23 47  1  0  0  0  0
 24 25  1  0  0  0  0
M  END
> <s_m_source_file>
AV-unprocessed.smi

> <i_m_source_file_index>
40

> <i_lp_mmshare_version>
43012

> <i_f3d_flags>
0

> <s_epik_input>
W0NIM11bQ0gyXVtDSDJdW0NIMl1bQ0gyXU9DKD1PKVtOSF1jMW5jKD1PKW4oW2NIXWMxRilbQ0BASF0yT1tDQEhdKFtDSDNdKVtDQEBIXShbT0hdKVtDQEhdMltPSF0=

> <s_epik_cmdline>
J2VwaWtfcHl0aG9uJywgJy1waCcsICc3LjAnLCAnLXRuJywgJzgnLCAnLW1hJywgJzIwMCcsICctbWV0YWxfYmluZGluZycsICctaW1hZScsICc8aW5maWxlLm1hZT4nLCAnLW9tYWUnLCAnPG91dGZpbGUubWFlPic=

> <r_lp_tautomer_probability>
1

> <r_epik_Ionization_Penalty>
2.29506e-06

> <r_epik_Ionization_Penalty_Charging>
8.26867e-09

> <r_epik_Ionization_Penalty_Neutral>
2.2868e-06

> <r_epik_State_Penalty>
-0

> <r_epik_Charging_Adjusted_Penalty>
8.26867e-09

> <i_epik_Tot_Q>
0

> <i_epik_Tot_abs_Q>
0

> <r_epik_Metal_State_Penalty>
-0

> <b_epik_Metal_Only>
0

> <s_epik_Chemistry_Notes>
This compound has an ester and may undergo hydrolysis at high or low pH. This compound contains an acetal/aminal-like group ( X-CH(R)-Y where X, Y are N, S, or O) that may be acid/base labile, releasing an aldehyde.

> <s_lp_Force_Field>
OPLS_2005

> <r_lp_Energy>
21.8092

> <b_lp_Chiralities_Consistent>
1

> <s_lp_Variant>
AV-unprocessed.smi:40-10

> <Gold.Version>
5.8.1

> <Gold.Id.Protein>
6NUR|6NUR_protein|mol2

> <Gold.PLP.Fitness>
44.2613

> <Gold.PLP.PLP>
-36.5027

> <Gold.PLP.part.hbond>
-3.0000

> <Gold.PLP.part.metal>
0.0000

> <Gold.PLP.part.buried>
-5.1586

> <Gold.PLP.part.nonpolar>
-29.1247

> <Gold.PLP.part.repulsive>
0.1937

> <Gold.PLP.ligand.clash>
0.0000

> <Gold.PLP.ligand.torsion>
0.6799

> <Gold.PLP.Chemscore.Hbond>
2.0000

> <Gold.PLP.Chemscore.CHOScore>
0.9992

> <Gold.PLP.Chemscore.Metal>
0.0000

> <Gold.Chemscore.Hbonds>
donor molecule, donor type, donor heavy atom, donor atom, acceptor molecule, acceptor atom, score
      P1  H  6896  6908       L1    13  0.98
      P1  H  6896  6909       L1     8  0.57
      L1  C    23    47       P1  7949  0.47

> <Gold.PLP.Chemscore.Internal.Correction>
0.1208

> <Gold.Rescore>
     Score         DG    S(hbond)    S(metal)    S(lipo)     H(rot)  DE(clash)    DE(int)     intcor
      6.68     -10.49       1.67        0.00      76.05       3.70       0.06       3.75       ----

> <Gold.Chemscore.Fitness>
6.6845

> <Gold.Chemscore.DG>
-10.4895

> <Gold.Chemscore.ZeroCoef>
-5.4800

> <Gold.Chemscore.Hbond>
1.6683

> <Gold.Chemscore.Metal>
0.0000

> <Gold.Chemscore.Lipo>
76.0544

> <Gold.Chemscore.Internal_Hbond>
0.0000

> <Gold.Chemscore.DEClash>
0.0600

> <Gold.Chemscore.DEInternal>
3.7451

> <Gold.Chemscore.Rot>
3.6957

> <Gold.Chemscore.Internal.Correction>
   9.000000E+99

> <Gold.Chemscore.Hbonds>
donor molecule, donor type, donor heavy atom, donor atom, acceptor molecule, acceptor atom, score
      P1  H  6896  6908       L1    13  0.40
      P1  H  6896  6909       L1     8  0.56

> <Gold.Chemscore.Hbond.Weighted>
-5.5721

> <Gold.Chemscore.Metal.Weighted>
-0.0000

> <Gold.Chemscore.Lipo.Weighted>
-8.8984

> <Gold.Chemscore.Internal_Hbond.Weighted>
0.0000

> <Gold.Chemscore.DEClash.Weighted>
0.0600

> <Gold.Chemscore.DEInternal.Weighted>
3.7451

> <Gold.Chemscore.Rot.Weighted>
9.4610

> <Gold.Chemscore.Internal.Correction.Weighted>
   9.000000E+99

> <Gold.Protein.RotatedTorsions>
[ 6907 6896 6895 6894 ] final  114.36 input  -60.11 | X-H torsion
[ 7974 7965 7964 7962 ] final  -31.73 input  175.53 | X-H torsion
[ 8008 7997 7996 7995 ] final   68.15 input   59.86 | X-H torsion
[ 10167 10162 10161 10158 ] final  -61.69 input  -65.29 | X-H torsion
[ 10718 10713 10712 10709 ] final -162.93 input   66.30 | X-H torsion
[ 10763 10752 10751 10750 ] final   46.10 input  -60.55 | X-H torsion
[ 11005 11000 10999 10996 ] final  -18.12 input  -57.11 | X-H torsion

> <Gold.Protein.ActiveResidues>
 VAL166  LYS551  ARG553  GLY616  TRP617  ASP618  TYR619  PRO620  LYS621  CYS622 
 ASP623  PHE694  ASN695  SER759  ASP760  ASP761  ALA762  ILE779  LEU786  VAL792 
 PHE793  MET794  SER795  GLU796  ALA797  LYS798  CYS799  TRP800  GLU811  SER814 

> <Gold.Protein.RotatedAtoms>
  152.4807  133.8247  159.7071 H   0  0  0  0  0  0  0  0  0  0  0  0  # atno 6907 bound_to 6896
  150.8855  133.7304  159.2926 H   0  0  0  0  0  0  0  0  0  0  0  0  # atno 6908 bound_to 6896
  151.4794  135.1055  159.9826 H   0  0  0  0  0  0  0  0  0  0  0  0  # atno 6909 bound_to 6896
  146.1045  140.5704  142.8806 H   0  0  0  0  0  0  0  0  0  0  0  0  # atno 7974 bound_to 7965
  155.7038  140.3495  155.4944 H   0  0  0  0  0  0  0  0  0  0  0  0  # atno 8008 bound_to 7997
  155.9416  140.1102  157.1073 H   0  0  0  0  0  0  0  0  0  0  0  0  # atno 8009 bound_to 7997
  154.4104  140.1211  156.4921 H   0  0  0  0  0  0  0  0  0  0  0  0  # atno 8010 bound_to 7997
  140.5989  143.2357  151.5973 H   0  0  0  0  0  0  0  0  0  0  0  0  # atno 10167 bound_to 10162
  156.6174  130.8876  151.2950 H   0  0  0  0  0  0  0  0  0  0  0  0  # atno 10718 bound_to 10713
  152.9815  135.6018  154.3545 H   0  0  0  0  0  0  0  0  0  0  0  0  # atno 10763 bound_to 10752
  154.3231  135.2769  155.2511 H   0  0  0  0  0  0  0  0  0  0  0  0  # atno 10764 bound_to 10752
  154.4668  135.5952  153.6350 H   0  0  0  0  0  0  0  0  0  0  0  0  # atno 10765 bound_to 10752
  140.8236  133.8050  155.9685 H   0  0  0  0  0  0  0  0  0  0  0  0  # atno 11005 bound_to 11000
  144.7459  140.5067  143.6836 LP  0  0  0  0  0  0  0  0  0  0  0  0  # atno 17320 bound_to 7965
  145.5789  139.1487  143.3247 LP  0  0  0  0  0  0  0  0  0  0  0  0  # atno 17321 bound_to 7965
  139.5277  144.3008  152.1075 LP  0  0  0  0  0  0  0  0  0  0  0  0  # atno 17342 bound_to 10162
  140.2186  144.4490  150.6352 LP  0  0  0  0  0  0  0  0  0  0  0  0  # atno 17343 bound_to 10162
  157.7237  130.9593  150.1545 LP  0  0  0  0  0  0  0  0  0  0  0  0  # atno 17370 bound_to 10713
  156.2340  130.3684  149.8413 LP  0  0  0  0  0  0  0  0  0  0  0  0  # atno 17371 bound_to 10713
  140.9073  134.2304  157.5007 LP  0  0  0  0  0  0  0  0  0  0  0  0  # atno 17394 bound_to 11000
  139.8707  134.9734  156.4808 LP  0  0  0  0  0  0  0  0  0  0  0  0  # atno 17395 bound_to 11000

$$$$
