AV-unprocessed.smi:1473|AV-procd|sdf|5972|dock7
  -GOLD-   22720 6 63D 1   1.00000     0.00000
 Structure written by MMmdl.
 33 34  0  0  0  0  0  0  0  0  4 V2000
  154.9003  138.3224  158.0393 N   0  5  0  0  0  0  0  0  0  0  0  0
  153.6843  137.4778  157.3834 S   0  0  0  0  0  0  0  0  0  0  0  0
  154.2045  136.2227  156.8212 O   0  0  0  0  0  0  0  0  0  0  0  0
  152.5659  137.3270  158.3311 O   0  0  0  0  0  0  0  0  0  0  0  0
  153.3667  138.5337  156.1780 N   0  5  0  0  0  0  0  0  0  0  0  0
  152.1024  138.5466  155.4433 C   0  0  0  0  0  0  0  0  0  0  0  0
  151.2929  139.8115  155.6962 C   0  0  0  0  0  0  0  0  0  0  0  0
  150.2621  140.2004  154.8080 C   0  0  0  0  0  0  0  0  0  0  0  0
  149.5678  141.4033  155.0456 C   0  0  0  0  0  0  0  0  0  0  0  0
  149.8924  142.1709  156.1082 N   0  3  0  0  0  0  0  0  0  0  0  0
  150.8659  141.8423  156.9857 C   0  0  0  0  0  0  0  0  0  0  0  0
  151.1292  142.7459  158.0228 N   0  0  0  0  0  0  0  0  0  0  0  0
  151.9958  142.2118  159.0658 C   0  0  0  0  0  0  0  0  0  0  0  0
  152.1424  143.2396  160.2008 C   0  0  0  0  0  0  0  0  0  0  0  0
  152.6340  144.4669  159.6696 O   0  0  0  0  0  0  0  0  0  0  0  0
  151.7536  145.0222  158.6962 C   0  0  0  0  0  0  0  0  0  0  0  0
  151.5877  144.0369  157.5262 C   0  0  0  0  0  0  0  0  0  0  0  0
  151.5849  140.6396  156.8055 C   0  0  0  0  0  0  0  0  0  0  0  0
  154.6116  138.6326  158.9745 H   0  0  0  0  0  0  0  0  0  0  0  0
  152.2737  138.4771  154.3684 H   0  0  0  0  0  0  0  0  0  0  0  0
  151.4818  137.6829  155.6853 H   0  0  0  0  0  0  0  0  0  0  0  0
  150.0106  139.6045  153.9410 H   0  0  0  0  0  0  0  0  0  0  0  0
  148.7776  141.7786  154.4123 H   0  0  0  0  0  0  0  0  0  0  0  0
  151.5774  141.2818  159.4527 H   0  0  0  0  0  0  0  0  0  0  0  0
  152.9786  141.9789  158.6545 H   0  0  0  0  0  0  0  0  0  0  0  0
  151.1881  143.4047  160.7035 H   0  0  0  0  0  0  0  0  0  0  0  0
  152.8406  142.8727  160.9532 H   0  0  0  0  0  0  0  0  0  0  0  0
  150.7888  145.2502  159.1520 H   0  0  0  0  0  0  0  0  0  0  0  0
  152.1678  145.9648  158.3381 H   0  0  0  0  0  0  0  0  0  0  0  0
  152.5388  143.9151  157.0052 H   0  0  0  0  0  0  0  0  0  0  0  0
  150.8732  144.4313  156.8024 H   0  0  0  0  0  0  0  0  0  0  0  0
  152.3796  140.3834  157.4934 H   0  0  0  0  0  0  0  0  0  0  0  0
  149.3868  143.0455  156.2483 H   0  0  0  0  0  0  0  0  0  0  0  0
  1  2  1  0  0  0  0
  1 19  1  0  0  0  0
  2  3  2  0  0  0  0
  2  4  2  0  0  0  0
  2  5  1  0  0  0  0
  5  6  1  0  0  0  0
  6  7  1  0  0  0  0
  6 20  1  0  0  0  0
  6 21  1  0  0  0  0
  7 18  1  0  0  0  0
  7  8  2  0  0  0  0
  8  9  1  0  0  0  0
  8 22  1  0  0  0  0
  9 10  2  0  0  0  0
  9 23  1  0  0  0  0
 10 11  1  0  0  0  0
 10 33  1  0  0  0  0
 11 12  1  0  0  0  0
 11 18  2  0  0  0  0
 12 17  1  0  0  0  0
 12 13  1  0  0  0  0
 13 14  1  0  0  0  0
 13 24  1  0  0  0  0
 13 25  1  0  0  0  0
 14 15  1  0  0  0  0
 14 26  1  0  0  0  0
 14 27  1  0  0  0  0
 15 16  1  0  0  0  0
 16 17  1  0  0  0  0
 16 28  1  0  0  0  0
 16 29  1  0  0  0  0
 17 30  1  0  0  0  0
 17 31  1  0  0  0  0
 18 32  1  0  0  0  0
M  CHG  1   1  -1
M  CHG  1   5  -1
M  CHG  1  10   1
M  END
> <s_m_source_file>
AV-unprocessed.smi

> <i_m_source_file_index>
1473

> <i_lp_mmshare_version>
43012

> <i_f3d_flags>
0

> <s_epik_input>
W05IMl1TKD1PKSg9TylbTkhdW0NIMl1jMVtjSF1bY0hdbmMoW2NIXTEpTjJbQ0gyXVtDSDJdT1tDSDJdW0NIMl0y

> <s_epik_cmdline>
J2VwaWtfcHl0aG9uJywgJy1waCcsICc3LjAnLCAnLXRuJywgJzgnLCAnLW1hJywgJzIwMCcsICctbWV0YWxfYmluZGluZycsICctaW1hZScsICc8aW5maWxlLm1hZT4nLCAnLW9tYWUnLCAnPG91dGZpbGUubWFlPic=

> <r_epik_Ionization_Penalty>
8.27174

> <r_epik_Ionization_Penalty_Charging>
8.27174

> <r_epik_Ionization_Penalty_Neutral>
3.18726e-12

> <r_epik_State_Penalty>
4.90783

> <r_epik_Charging_Adjusted_Penalty>
13.1796

> <i_epik_Tot_Q>
-1

> <i_epik_Tot_abs_Q>
3

> <r_epik_Metal_State_Penalty>
1.75942

> <b_epik_Metal_Only>
1

> <s_lp_Force_Field>
OPLS_2005

> <r_lp_Energy>
13.3583

> <b_lp_Chiralities_Consistent>
1

> <s_lp_Variant>
AV-unprocessed.smi:1473-7

> <Gold.Version>
5.8.1

> <Gold.Id.Protein>
6NUR|6NUR_protein|mol2

> <Gold.PLP.Fitness>
51.2720

> <Gold.PLP.PLP>
-34.8163

> <Gold.PLP.part.hbond>
-4.0000

> <Gold.PLP.part.metal>
0.0000

> <Gold.PLP.part.buried>
-1.9450

> <Gold.PLP.part.nonpolar>
-29.5948

> <Gold.PLP.part.repulsive>
0.2120

> <Gold.PLP.ligand.clash>
0.0000

> <Gold.PLP.ligand.torsion>
1.0028

> <Gold.PLP.Chemscore.Hbond>
5.7840

> <Gold.PLP.Chemscore.CHOScore>
0.0000

> <Gold.PLP.Chemscore.Metal>
0.0000

> <Gold.Chemscore.Hbonds>
donor molecule, donor type, donor heavy atom, donor atom, acceptor molecule, acceptor atom, score
      L1  H    10    33       P1  8028  2.00
      P1  H  7997  8008       L1     5  1.44
      P1  H  7997  8010       L1     1  1.31
      P1  H 10752 10765       L1     3  0.98

> <Gold.PLP.Chemscore.Internal.Correction>
1.1092

> <Gold.Rescore>
     Score         DG    S(hbond)    S(metal)    S(lipo)     H(rot)  DE(clash)    DE(int)     intcor
     19.59     -20.81       3.20        0.00      81.22       1.89       0.31       0.91       ----

> <Gold.Chemscore.Fitness>
19.5917

> <Gold.Chemscore.DG>
-20.8150

> <Gold.Chemscore.ZeroCoef>
-5.4800

> <Gold.Chemscore.Hbond>
3.1967

> <Gold.Chemscore.Metal>
0.0000

> <Gold.Chemscore.Lipo>
81.2153

> <Gold.Chemscore.Internal_Hbond>
0.0000

> <Gold.Chemscore.DEClash>
0.3150

> <Gold.Chemscore.DEInternal>
0.9083

> <Gold.Chemscore.Rot>
1.8922

> <Gold.Chemscore.Internal.Correction>
   9.000000E+99

> <Gold.Chemscore.Hbonds>
donor molecule, donor type, donor heavy atom, donor atom, acceptor molecule, acceptor atom, score
      L1  H    10    33       P1  8028  0.95
      P1  H  7997  8008       L1     5  0.63
      P1  H  7997  8010       L1     1  0.16
      P1  H 10752 10765       L1     3  0.93

> <Gold.Chemscore.Hbond.Weighted>
-10.6769

> <Gold.Chemscore.Metal.Weighted>
-0.0000

> <Gold.Chemscore.Lipo.Weighted>
-9.5022

> <Gold.Chemscore.Internal_Hbond.Weighted>
0.0000

> <Gold.Chemscore.DEClash.Weighted>
0.3150

> <Gold.Chemscore.DEInternal.Weighted>
0.9083

> <Gold.Chemscore.Rot.Weighted>
4.8441

> <Gold.Chemscore.Internal.Correction.Weighted>
   9.000000E+99

> <Gold.Protein.RotatedTorsions>
[ 6907 6896 6895 6894 ] final  -37.32 input  -60.11 | X-H torsion
[ 7974 7965 7964 7962 ] final   44.88 input  175.53 | X-H torsion
[ 8008 7997 7996 7995 ] final  -23.68 input   59.86 | X-H torsion
[ 10167 10162 10161 10158 ] final  -50.74 input  -65.29 | X-H torsion
[ 10718 10713 10712 10709 ] final  -45.49 input   66.30 | X-H torsion
[ 10763 10752 10751 10750 ] final  -80.33 input  -60.55 | X-H torsion
[ 11005 11000 10999 10996 ] final   94.50 input  -57.11 | X-H torsion

> <Gold.Protein.ActiveResidues>
 VAL166  LYS551  ARG553  GLY616  TRP617  ASP618  TYR619  PRO620  LYS621  CYS622 
 ASP623  PHE694  ASN695  SER759  ASP760  ASP761  ALA762  ILE779  LEU786  VAL792 
 PHE793  MET794  SER795  GLU796  ALA797  LYS798  CYS799  TRP800  GLU811  SER814 

> <Gold.Protein.RotatedAtoms>
  151.0162  134.9434  159.8033 H   0  0  0  0  0  0  0  0  0  0  0  0  # atno 6907 bound_to 6896
  152.5314  134.2964  159.9072 H   0  0  0  0  0  0  0  0  0  0  0  0  # atno 6908 bound_to 6896
  151.2970  133.4097  159.2671 H   0  0  0  0  0  0  0  0  0  0  0  0  # atno 6909 bound_to 6896
  146.0529  139.5025  142.9707 H   0  0  0  0  0  0  0  0  0  0  0  0  # atno 7974 bound_to 7965
  154.4571  140.1974  156.0348 H   0  0  0  0  0  0  0  0  0  0  0  0  # atno 8008 bound_to 7997
  156.0768  140.3277  155.7616 H   0  0  0  0  0  0  0  0  0  0  0  0  # atno 8009 bound_to 7997
  155.5176  140.0567  157.2903 H   0  0  0  0  0  0  0  0  0  0  0  0  # atno 8010 bound_to 7997
  140.6622  143.2646  151.4404 H   0  0  0  0  0  0  0  0  0  0  0  0  # atno 10167 bound_to 10162
  156.2278  130.4170  149.8912 H   0  0  0  0  0  0  0  0  0  0  0  0  # atno 10718 bound_to 10713
  154.5498  135.5665  153.6912 H   0  0  0  0  0  0  0  0  0  0  0  0  # atno 10763 bound_to 10752
  152.9986  135.6248  154.2389 H   0  0  0  0  0  0  0  0  0  0  0  0  # atno 10764 bound_to 10752
  154.2323  135.2865  155.2865 H   0  0  0  0  0  0  0  0  0  0  0  0  # atno 10765 bound_to 10752
  139.8798  134.8849  156.3874 H   0  0  0  0  0  0  0  0  0  0  0  0  # atno 11005 bound_to 11000
  145.6693  141.0221  143.1666 LP  0  0  0  0  0  0  0  0  0  0  0  0  # atno 17320 bound_to 7965
  144.7132  139.8291  143.7407 LP  0  0  0  0  0  0  0  0  0  0  0  0  # atno 17321 bound_to 7965
  139.5860  144.1604  152.2029 LP  0  0  0  0  0  0  0  0  0  0  0  0  # atno 17342 bound_to 10162
  140.0944  144.5593  150.7032 LP  0  0  0  0  0  0  0  0  0  0  0  0  # atno 17343 bound_to 10162
  156.6537  130.8754  151.3535 LP  0  0  0  0  0  0  0  0  0  0  0  0  # atno 17370 bound_to 10713
  157.7119  130.9450  150.1118 LP  0  0  0  0  0  0  0  0  0  0  0  0  # atno 17371 bound_to 10713
  140.9357  133.7549  156.0081 LP  0  0  0  0  0  0  0  0  0  0  0  0  # atno 17394 bound_to 11000
  140.8279  134.3213  157.5359 LP  0  0  0  0  0  0  0  0  0  0  0  0  # atno 17395 bound_to 11000

$$$$
