AV-unprocessed.smi:2797|AV-procd|sdf|10784|dock10
  -GOLD-   2272015223D 1   1.00000     0.00000
 Structure written by MMmdl.
 38 39  0  0  0  0  0  0  0  0  2 V2000
  151.3721  135.7477  156.7879 C   0  0  0  0  0  0  0  0  0  0  0  0
  151.3293  136.3518  155.5005 O   0  0  0  0  0  0  0  0  0  0  0  0
  150.5311  137.5321  155.3565 C   0  0  0  0  0  0  0  0  0  0  0  0
  149.0454  137.2397  155.6061 C   0  0  0  0  0  0  0  0  0  0  0  0
  148.4406  136.5717  154.4577 N   0  0  0  0  0  0  0  0  0  0  0  0
  147.1342  136.3171  154.3022 C   0  0  0  0  0  0  0  0  0  0  0  0
  146.2826  136.5726  155.1528 O   0  0  0  0  0  0  0  0  0  0  0  0
  146.8918  135.7386  153.1139 N   0  0  0  0  0  0  0  0  0  0  0  0
  145.6444  135.3322  152.5615 C   0  0  0  0  0  0  0  0  0  0  0  0
  144.4453  136.0698  152.7319 C   0  0  0  0  0  0  0  0  0  0  0  0
  143.2565  135.6070  152.1356 C   0  0  0  0  0  0  0  0  0  0  0  0
  143.2686  134.4764  151.3998 N   0  3  0  0  0  0  0  0  0  0  0  0
  144.3855  133.7447  151.1925 C   0  0  0  0  0  0  0  0  0  0  0  0
  144.2630  132.4986  150.3372 C   0  0  0  0  0  0  0  0  0  0  0  0
  145.6106  134.1587  151.7673 C   0  0  0  0  0  0  0  0  0  0  0  0
  147.0497  133.2322  151.5033 Cl  0  0  0  0  0  0  0  0  0  0  0  0
  151.2034  138.6226  156.2132 C   0  0  0  0  0  0  0  0  0  0  0  0
  152.0209  139.0405  154.9896 C   0  0  0  0  0  0  0  0  0  0  0  0
  150.9440  138.3766  154.1303 C   0  0  0  0  0  0  0  0  0  0  0  0
  152.0636  134.9060  156.7570 H   0  0  0  0  0  0  0  0  0  0  0  0
  150.4034  135.3548  157.0920 H   0  0  0  0  0  0  0  0  0  0  0  0
  151.7280  136.4278  157.5596 H   0  0  0  0  0  0  0  0  0  0  0  0
  148.9409  136.5659  156.4568 H   0  0  0  0  0  0  0  0  0  0  0  0
  148.4949  138.1378  155.8866 H   0  0  0  0  0  0  0  0  0  0  0  0
  149.0663  136.3163  153.7079 H   0  0  0  0  0  0  0  0  0  0  0  0
  147.7044  135.5073  152.5612 H   0  0  0  0  0  0  0  0  0  0  0  0
  144.4156  136.9889  153.2967 H   0  0  0  0  0  0  0  0  0  0  0  0
  142.3034  136.1090  152.2193 H   0  0  0  0  0  0  0  0  0  0  0  0
  144.5571  131.6168  150.9070 H   0  0  0  0  0  0  0  0  0  0  0  0
  144.9083  132.5747  149.4616 H   0  0  0  0  0  0  0  0  0  0  0  0
  143.2393  132.3510  149.9907 H   0  0  0  0  0  0  0  0  0  0  0  0
  150.5067  139.3998  156.5318 H   0  0  0  0  0  0  0  0  0  0  0  0
  151.7940  138.2524  157.0521 H   0  0  0  0  0  0  0  0  0  0  0  0
  152.1191  140.1173  154.8495 H   0  0  0  0  0  0  0  0  0  0  0  0
  152.9842  138.5315  154.9298 H   0  0  0  0  0  0  0  0  0  0  0  0
  151.3289  137.8371  153.2667 H   0  0  0  0  0  0  0  0  0  0  0  0
  150.1674  139.0818  153.8292 H   0  0  0  0  0  0  0  0  0  0  0  0
  142.3952  134.1625  150.9756 H   0  0  0  0  0  0  0  0  0  0  0  0
  1  2  1  0  0  0  0
  1 20  1  0  0  0  0
  1 21  1  0  0  0  0
  1 22  1  0  0  0  0
  2  3  1  0  0  0  0
  3 19  1  0  0  0  0
  3  4  1  0  0  0  0
  3 17  1  0  0  0  0
  4  5  1  0  0  0  0
  4 23  1  0  0  0  0
  4 24  1  0  0  0  0
  5  6  1  0  0  0  0
  5 25  1  0  0  0  0
  6  7  2  0  0  0  0
  6  8  1  0  0  0  0
  8  9  1  0  0  0  0
  8 26  1  0  0  0  0
  9 15  1  0  0  0  0
  9 10  2  0  0  0  0
 10 11  1  0  0  0  0
 10 27  1  0  0  0  0
 11 12  2  0  0  0  0
 11 28  1  0  0  0  0
 12 13  1  0  0  0  0
 12 38  1  0  0  0  0
 13 14  1  0  0  0  0
 13 15  2  0  0  0  0
 14 29  1  0  0  0  0
 14 30  1  0  0  0  0
 14 31  1  0  0  0  0
 15 16  1  0  0  0  0
 17 18  1  0  0  0  0
 17 32  1  0  0  0  0
 17 33  1  0  0  0  0
 18 19  1  0  0  0  0
 18 34  1  0  0  0  0
 18 35  1  0  0  0  0
 19 36  1  0  0  0  0
 19 37  1  0  0  0  0
M  CHG  1  12   1
M  END
> <s_m_source_file>
AV-unprocessed.smi

> <i_m_source_file_index>
2797

> <i_lp_mmshare_version>
43012

> <i_f3d_flags>
0

> <s_epik_input>
W0NIMl0xW0NIMl1bQ0gyXUMxKE9bQ0gzXSlbQ0gyXVtOSF1DKD1PKVtOSF1jMltjSF1bY0hdbmMoW0NIM10pYzJDbA==

> <s_epik_cmdline>
J2VwaWtfcHl0aG9uJywgJy1waCcsICc3LjAnLCAnLXRuJywgJzgnLCAnLW1hJywgJzIwMCcsICctbWV0YWxfYmluZGluZycsICctaW1hZScsICc8aW5maWxlLm1hZT4nLCAnLW9tYWUnLCAnPG91dGZpbGUubWFlPic=

> <r_epik_Ionization_Penalty>
2.42651

> <r_epik_Ionization_Penalty_Charging>
2.42649

> <r_epik_Ionization_Penalty_Neutral>
1.93283e-05

> <r_epik_State_Penalty>
2.58622

> <r_epik_Charging_Adjusted_Penalty>
5.01271

> <i_epik_Tot_Q>
1

> <i_epik_Tot_abs_Q>
1

> <r_epik_Metal_State_Penalty>
2.59605

> <b_epik_Metal_Only>
0

> <s_lp_Force_Field>
OPLS_2005

> <r_lp_Energy>
25.6694

> <b_lp_Chiralities_Consistent>
1

> <s_lp_Variant>
AV-unprocessed.smi:2797-2

> <Gold.Version>
5.8.1

> <Gold.Id.Protein>
6NUR|6NUR_protein|mol2

> <Gold.PLP.Fitness>
39.8838

> <Gold.PLP.PLP>
-27.2404

> <Gold.PLP.part.hbond>
-3.7241

> <Gold.PLP.part.metal>
0.0000

> <Gold.PLP.part.buried>
-3.9181

> <Gold.PLP.part.nonpolar>
-19.8843

> <Gold.PLP.part.repulsive>
0.1234

> <Gold.PLP.ligand.clash>
0.0000

> <Gold.PLP.ligand.torsion>
0.5752

> <Gold.PLP.Chemscore.Hbond>
4.5040

> <Gold.PLP.Chemscore.CHOScore>
0.0000

> <Gold.PLP.Chemscore.Metal>
0.0000

> <Gold.Chemscore.Hbonds>
donor molecule, donor type, donor heavy atom, donor atom, acceptor molecule, acceptor atom, score
      L1  H     5    25       P1  7948  0.74
      L1  H     8    26       P1  7948  0.82
      L1  H    12    38       P1 10186  1.92
      P1  H 10752 10764       L1     2  1.00

> <Gold.PLP.Chemscore.Internal.Correction>
0.2818

> <Gold.Rescore>
     Score         DG    S(hbond)    S(metal)    S(lipo)     H(rot)  DE(clash)    DE(int)     intcor
     19.13     -20.40       3.13        0.00      69.67       1.44       0.04       1.23       ----

> <Gold.Chemscore.Fitness>
19.1255

> <Gold.Chemscore.DG>
-20.3957

> <Gold.Chemscore.ZeroCoef>
-5.4800

> <Gold.Chemscore.Hbond>
3.1271

> <Gold.Chemscore.Metal>
0.0000

> <Gold.Chemscore.Lipo>
69.6678

> <Gold.Chemscore.Internal_Hbond>
0.0000

> <Gold.Chemscore.DEClash>
0.0440

> <Gold.Chemscore.DEInternal>
1.2261

> <Gold.Chemscore.Rot>
1.4375

> <Gold.Chemscore.Internal.Correction>
   9.000000E+99

> <Gold.Chemscore.Hbonds>
donor molecule, donor type, donor heavy atom, donor atom, acceptor molecule, acceptor atom, score
      L1  H     5    25       P1  7948  0.73
      L1  H     8    26       P1  7948  0.80
      L1  H    12    38       P1 10186  0.23
      P1  H 10752 10764       L1     2  0.38

> <Gold.Chemscore.Hbond.Weighted>
-10.4445

> <Gold.Chemscore.Metal.Weighted>
-0.0000

> <Gold.Chemscore.Lipo.Weighted>
-8.1511

> <Gold.Chemscore.Internal_Hbond.Weighted>
0.0000

> <Gold.Chemscore.DEClash.Weighted>
0.0440

> <Gold.Chemscore.DEInternal.Weighted>
1.2261

> <Gold.Chemscore.Rot.Weighted>
3.6800

> <Gold.Chemscore.Internal.Correction.Weighted>
   9.000000E+99

> <Gold.Protein.RotatedTorsions>
[ 6907 6896 6895 6894 ] final  -95.22 input  -60.11 | X-H torsion
[ 7974 7965 7964 7962 ] final  -91.37 input  175.53 | X-H torsion
[ 8008 7997 7996 7995 ] final -113.79 input   59.86 | X-H torsion
[ 10167 10162 10161 10158 ] final   69.46 input  -65.29 | X-H torsion
[ 10718 10713 10712 10709 ] final -143.02 input   66.30 | X-H torsion
[ 10763 10752 10751 10750 ] final  -61.34 input  -60.55 | X-H torsion
[ 11005 11000 10999 10996 ] final  174.02 input  -57.11 | X-H torsion

> <Gold.Protein.ActiveResidues>
 VAL166  LYS551  ARG553  GLY616  TRP617  ASP618  TYR619  PRO620  LYS621  CYS622 
 ASP623  PHE694  ASN695  SER759  ASP760  ASP761  ALA762  ILE779  LEU786  VAL792 
 PHE793  MET794  SER795  GLU796  ALA797  LYS798  CYS799  TRP800  GLU811  SER814 

> <Gold.Protein.RotatedAtoms>
  150.6959  134.1691  159.4204 H   0  0  0  0  0  0  0  0  0  0  0  0  # atno 6907 bound_to 6896
  151.9669  135.0094  160.0560 H   0  0  0  0  0  0  0  0  0  0  0  0  # atno 6908 bound_to 6896
  152.1877  133.4716  159.5028 H   0  0  0  0  0  0  0  0  0  0  0  0  # atno 6909 bound_to 6896
  145.4141  140.9547  143.2218 H   0  0  0  0  0  0  0  0  0  0  0  0  # atno 7974 bound_to 7965
  155.0261  140.0393  157.2456 H   0  0  0  0  0  0  0  0  0  0  0  0  # atno 8008 bound_to 7997
  154.7336  140.2735  155.6411 H   0  0  0  0  0  0  0  0  0  0  0  0  # atno 8009 bound_to 7997
  156.2847  140.2679  156.2043 H   0  0  0  0  0  0  0  0  0  0  0  0  # atno 8010 bound_to 7997
  140.0676  144.5180  150.7250 H   0  0  0  0  0  0  0  0  0  0  0  0  # atno 10167 bound_to 10162
  156.3529  130.7697  151.1853 H   0  0  0  0  0  0  0  0  0  0  0  0  # atno 10718 bound_to 10713
  154.2831  135.6268  153.5355 H   0  0  0  0  0  0  0  0  0  0  0  0  # atno 10763 bound_to 10752
  152.9863  135.5638  154.5473 H   0  0  0  0  0  0  0  0  0  0  0  0  # atno 10764 bound_to 10752
  154.5068  135.2875  155.1351 H   0  0  0  0  0  0  0  0  0  0  0  0  # atno 10765 bound_to 10752
  140.3468  134.7229  157.4240 H   0  0  0  0  0  0  0  0  0  0  0  0  # atno 11005 bound_to 11000
  144.8289  139.5662  143.6952 LP  0  0  0  0  0  0  0  0  0  0  0  0  # atno 17320 bound_to 7965
  146.2690  139.6589  142.9309 LP  0  0  0  0  0  0  0  0  0  0  0  0  # atno 17321 bound_to 7965
  140.7141  143.2530  151.4488 LP  0  0  0  0  0  0  0  0  0  0  0  0  # atno 17342 bound_to 10162
  139.5855  144.1613  152.2024 LP  0  0  0  0  0  0  0  0  0  0  0  0  # atno 17343 bound_to 10162
  157.7463  131.0422  150.4684 LP  0  0  0  0  0  0  0  0  0  0  0  0  # atno 17370 bound_to 10713
  156.4882  130.4089  149.6422 LP  0  0  0  0  0  0  0  0  0  0  0  0  # atno 17371 bound_to 10713
  140.0736  134.5829  155.8616 LP  0  0  0  0  0  0  0  0  0  0  0  0  # atno 17394 bound_to 11000
  141.2023  133.6624  156.6000 LP  0  0  0  0  0  0  0  0  0  0  0  0  # atno 17395 bound_to 11000

$$$$
