AV-unprocessed.smi:196|AV-procd|sdf|1541|dock5
  -GOLD-   2262019403D 1   1.00000     0.00000
 Structure written by MMmdl.
 47 50  0  0  0  0  0  0  0  0  1 V2000
  153.0704  138.3860  155.5346 C   0  0  0  0  0  0  0  0  0  0  0  0
  151.5525  138.6076  155.4299 C   0  0  1  0  0  0  0  0  0  0  0  0
  151.2683  139.8074  154.7251 O   0  0  0  0  0  0  0  0  0  0  0  0
  149.9090  139.7447  154.3335 C   0  0  0  0  0  0  0  0  0  0  0  0
  149.7736  138.3170  153.8182 C   0  0  0  0  0  0  0  0  0  0  0  0
  150.7254  137.5106  154.7074 C   0  0  1  0  0  0  0  0  0  0  0  0
  151.5373  136.7066  153.8671 O   0  0  0  0  0  0  0  0  0  0  0  0
  149.9629  136.5782  155.6811 C   0  0  0  0  0  0  0  0  0  0  0  0
  148.9298  135.7828  155.0346 N   0  0  0  0  0  0  0  0  0  0  0  0
  147.6693  136.2026  154.6761 C   0  0  0  0  0  0  0  0  0  0  0  0
  146.9238  135.2983  154.1032 N   0  0  0  0  0  0  0  0  0  0  0  0
  147.7271  134.1640  154.0662 C   0  0  0  0  0  0  0  0  0  0  0  0
  147.5491  132.8328  153.5886 C   0  0  0  0  0  0  0  0  0  0  0  0
  146.4059  132.3978  152.9928 N   0  0  0  0  0  0  0  0  0  0  0  0
  145.3168  133.3421  152.7674 C   0  0  0  0  0  0  0  0  0  0  0  0
  144.6528  132.9039  151.4621 C   0  0  1  0  0  0  0  0  0  0  0  0
  145.2189  133.5459  150.4386 F   0  0  0  0  0  0  0  0  0  0  0  0
  144.9893  131.4184  151.3778 C   0  0  0  0  0  0  0  0  0  0  0  0
  146.3959  131.3264  151.9909 C   0  0  2  0  0  0  0  0  0  0  0  0
  146.6488  129.9370  152.5982 C   0  0  0  0  0  0  0  0  0  0  0  0
  147.5893  129.1893  152.0165 N   0  0  0  0  0  0  0  0  0  0  0  0
  146.0011  129.5383  153.5649 O   0  0  0  0  0  0  0  0  0  0  0  0
  148.5868  131.9700  153.7551 N   0  0  0  0  0  0  0  0  0  0  0  0
  149.7201  132.3741  154.3349 C   0  0  0  0  0  0  0  0  0  0  0  0
  150.0256  133.5791  154.8174 N   0  0  0  0  0  0  0  0  0  0  0  0
  148.9891  134.4510  154.6613 C   0  0  0  0  0  0  0  0  0  0  0  0
  143.5829  133.1114  151.4302 H   0  0  0  0  0  0  0  0  0  0  0  0
  147.1386  131.5458  151.2211 H   0  0  0  0  0  0  0  0  0  0  0  0
  153.2974  137.4588  156.0612 H   0  0  0  0  0  0  0  0  0  0  0  0
  153.5414  139.2011  156.0839 H   0  0  0  0  0  0  0  0  0  0  0  0
  153.5384  138.3404  154.5511 H   0  0  0  0  0  0  0  0  0  0  0  0
  151.1565  138.7541  156.4355 H   0  0  0  0  0  0  0  0  0  0  0  0
  149.2662  139.9122  155.1994 H   0  0  0  0  0  0  0  0  0  0  0  0
  149.6713  140.4914  153.5756 H   0  0  0  0  0  0  0  0  0  0  0  0
  148.7423  137.9636  153.8507 H   0  0  0  0  0  0  0  0  0  0  0  0
  150.0930  138.2898  152.7748 H   0  0  0  0  0  0  0  0  0  0  0  0
  151.1579  136.6987  153.0017 H   0  0  0  0  0  0  0  0  0  0  0  0
  150.6618  135.8981  156.1698 H   0  0  0  0  0  0  0  0  0  0  0  0
  149.4979  137.1582  156.4795 H   0  0  0  0  0  0  0  0  0  0  0  0
  147.3182  137.2095  154.8488 H   0  0  0  0  0  0  0  0  0  0  0  0
  144.6136  133.2605  153.5971 H   0  0  0  0  0  0  0  0  0  0  0  0
  145.6545  134.3783  152.7105 H   0  0  0  0  0  0  0  0  0  0  0  0
  144.2672  130.8543  151.9713 H   0  0  0  0  0  0  0  0  0  0  0  0
  144.9490  131.0369  150.3571 H   0  0  0  0  0  0  0  0  0  0  0  0
  147.7909  128.2658  152.3713 H   0  0  0  0  0  0  0  0  0  0  0  0
  148.0913  129.5496  151.2180 H   0  0  0  0  0  0  0  0  0  0  0  0
  150.4927  131.6248  154.4238 H   0  0  0  0  0  0  0  0  0  0  0  0
  1  2  1  0  0  0  0
  1 29  1  0  0  0  0
  1 30  1  0  0  0  0
  1 31  1  0  0  0  0
  2  6  1  0  0  0  0
  2  3  1  0  0  0  0
  2 32  1  0  0  0  0
  3  4  1  0  0  0  0
  4  5  1  0  0  0  0
  4 33  1  0  0  0  0
  4 34  1  0  0  0  0
  5  6  1  0  0  0  0
  5 35  1  0  0  0  0
  5 36  1  0  0  0  0
  6  7  1  0  0  0  0
  6  8  1  0  0  0  0
  7 37  1  0  0  0  0
  8  9  1  0  0  0  0
  8 38  1  0  0  0  0
  8 39  1  0  0  0  0
  9 26  1  0  0  0  0
  9 10  1  0  0  0  0
 10 11  2  0  0  0  0
 10 40  1  0  0  0  0
 11 12  1  0  0  0  0
 12 26  2  0  0  0  0
 12 13  1  0  0  0  0
 13 14  1  0  0  0  0
 13 23  2  0  0  0  0
 14 19  1  0  0  0  0
 14 15  1  0  0  0  0
 15 16  1  0  0  0  0
 15 41  1  0  0  0  0
 15 42  1  0  0  0  0
 16 27  1  0  0  0  0
 16 17  1  0  0  0  0
 16 18  1  0  0  0  0
 18 19  1  0  0  0  0
 18 43  1  0  0  0  0
 18 44  1  0  0  0  0
 19 28  1  0  0  0  0
 19 20  1  0  0  0  0
 20 21  1  0  0  0  0
 20 22  2  0  0  0  0
 21 45  1  0  0  0  0
 21 46  1  0  0  0  0
 23 24  1  0  0  0  0
 24 25  2  0  0  0  0
 24 47  1  0  0  0  0
 25 26  1  0  0  0  0
M  END
> <s_m_source_file>
AV-unprocessed.smi

> <i_m_source_file_index>
196

> <i_lp_mmshare_version>
43012

> <i_f3d_flags>
0

> <s_epik_input>
W0NIMl0xW0NIMl1PW0NAQEhdKFtDSDNdKVtDQEBdMShbT0hdKVtDSDJdbihbY0hdbjIpYyhjMjMpbltjSF1uYzNONFtDSDJdW0NASF0oRilbQ0gyXVtDQEhdNEMoPU8pW05IMl0=

> <s_epik_cmdline>
J2VwaWtfcHl0aG9uJywgJy1waCcsICc3LjAnLCAnLXRuJywgJzgnLCAnLW1hJywgJzIwMCcsICctbWV0YWxfYmluZGluZycsICctaW1hZScsICc8aW5maWxlLm1hZT4nLCAnLW9tYWUnLCAnPG91dGZpbGUubWFlPic=

> <r_lp_tautomer_probability>
1

> <r_epik_Ionization_Penalty>
0.000857933

> <r_epik_Ionization_Penalty_Charging>
0

> <r_epik_Ionization_Penalty_Neutral>
0.000857933

> <r_epik_State_Penalty>
0.000462053

> <r_epik_Charging_Adjusted_Penalty>
0.000462053

> <i_epik_Tot_Q>
0

> <i_epik_Tot_abs_Q>
0

> <r_epik_Metal_State_Penalty>
-0

> <b_epik_Metal_Only>
0

> <s_lp_Force_Field>
OPLS_2005

> <r_lp_Energy>
42.8122

> <b_lp_Chiralities_Consistent>
1

> <s_lp_Variant>
AV-unprocessed.smi:196-14

> <Gold.Version>
5.8.1

> <Gold.Id.Protein>
6NUR|6NUR_protein|mol2

> <Gold.PLP.Fitness>
46.5680

> <Gold.PLP.PLP>
-36.2770

> <Gold.PLP.part.hbond>
-4.4497

> <Gold.PLP.part.metal>
0.0000

> <Gold.PLP.part.buried>
-0.4258

> <Gold.PLP.part.nonpolar>
-30.0303

> <Gold.PLP.part.repulsive>
0.5934

> <Gold.PLP.ligand.clash>
0.0000

> <Gold.PLP.ligand.torsion>
0.6722

> <Gold.PLP.Chemscore.Hbond>
3.7840

> <Gold.PLP.Chemscore.CHOScore>
0.0000

> <Gold.PLP.Chemscore.Metal>
0.0000

> <Gold.Chemscore.Hbonds>
donor molecule, donor type, donor heavy atom, donor atom, acceptor molecule, acceptor atom, score
      L1  H     7    37       P1  7949  0.91
      L1  H    21    46       P1 10747  1.00
      P1  H  7989  7998       L1     3  0.60
      P1  H 10752 10764       L1     7  1.00

> <Gold.PLP.Chemscore.Internal.Correction>
0.2835

> <Gold.Rescore>
     Score         DG    S(hbond)    S(metal)    S(lipo)     H(rot)  DE(clash)    DE(int)     intcor
     10.78     -13.88       2.20        0.00      65.80       2.60       0.07       3.03       ----

> <Gold.Chemscore.Fitness>
10.7769

> <Gold.Chemscore.DG>
-13.8824

> <Gold.Chemscore.ZeroCoef>
-5.4800

> <Gold.Chemscore.Hbond>
2.2012

> <Gold.Chemscore.Metal>
0.0000

> <Gold.Chemscore.Lipo>
65.7952

> <Gold.Chemscore.Internal_Hbond>
0.0000

> <Gold.Chemscore.DEClash>
0.0737

> <Gold.Chemscore.DEInternal>
3.0318

> <Gold.Chemscore.Rot>
2.5968

> <Gold.Chemscore.Internal.Correction>
   9.000000E+99

> <Gold.Chemscore.Hbonds>
donor molecule, donor type, donor heavy atom, donor atom, acceptor molecule, acceptor atom, score
      L1  H     7    37       P1  7949  0.45
      L1  H    21    46       P1 10747  0.64
      P1  H  7989  7998       L1     3  0.04
      P1  H 10752 10764       L1     7  0.94

> <Gold.Chemscore.Hbond.Weighted>
-7.3521

> <Gold.Chemscore.Metal.Weighted>
-0.0000

> <Gold.Chemscore.Lipo.Weighted>
-7.6980

> <Gold.Chemscore.Internal_Hbond.Weighted>
0.0000

> <Gold.Chemscore.DEClash.Weighted>
0.0737

> <Gold.Chemscore.DEInternal.Weighted>
3.0318

> <Gold.Chemscore.Rot.Weighted>
6.6477

> <Gold.Chemscore.Internal.Correction.Weighted>
   9.000000E+99

> <Gold.Protein.RotatedTorsions>
[ 6907 6896 6895 6894 ] final  -13.34 input  -60.11 | X-H torsion
[ 7974 7965 7964 7962 ] final  -43.21 input  175.53 | X-H torsion
[ 8008 7997 7996 7995 ] final   36.34 input   59.86 | X-H torsion
[ 10167 10162 10161 10158 ] final -140.10 input  -65.29 | X-H torsion
[ 10718 10713 10712 10709 ] final  157.96 input   66.30 | X-H torsion
[ 10763 10752 10751 10750 ] final  -86.76 input  -60.55 | X-H torsion
[ 11005 11000 10999 10996 ] final  -80.54 input  -57.11 | X-H torsion

> <Gold.Protein.ActiveResidues>
 VAL166  LYS551  ARG553  GLY616  TRP617  ASP618  TYR619  PRO620  LYS621  CYS622 
 ASP623  PHE694  ASN695  SER759  ASP760  ASP761  ALA762  ILE779  LEU786  VAL792 
 PHE793  MET794  SER795  GLU796  ALA797  LYS798  CYS799  TRP800  GLU811  SER814 

> <Gold.Protein.RotatedAtoms>
  151.3565  135.0895  159.9419 H   0  0  0  0  0  0  0  0  0  0  0  0  # atno 6907 bound_to 6896
  152.5173  133.9301  159.7586 H   0  0  0  0  0  0  0  0  0  0  0  0  # atno 6908 bound_to 6896
  150.9686  133.6314  159.2771 H   0  0  0  0  0  0  0  0  0  0  0  0  # atno 6909 bound_to 6896
  146.0041  140.7040  142.9256 H   0  0  0  0  0  0  0  0  0  0  0  0  # atno 7974 bound_to 7965
  155.1857  140.3303  155.4367 H   0  0  0  0  0  0  0  0  0  0  0  0  # atno 8008 bound_to 7997
  156.2460  140.1919  156.6903 H   0  0  0  0  0  0  0  0  0  0  0  0  # atno 8009 bound_to 7997
  154.6240  140.0591  156.9636 H   0  0  0  0  0  0  0  0  0  0  0  0  # atno 8010 bound_to 7997
  139.8315  143.7441  152.2666 H   0  0  0  0  0  0  0  0  0  0  0  0  # atno 10167 bound_to 10162
  157.1844  131.0640  151.2114 H   0  0  0  0  0  0  0  0  0  0  0  0  # atno 10718 bound_to 10713
  154.6260  135.5438  153.7628 H   0  0  0  0  0  0  0  0  0  0  0  0  # atno 10763 bound_to 10752
  153.0261  135.6424  154.1370 H   0  0  0  0  0  0  0  0  0  0  0  0  # atno 10764 bound_to 10752
  154.1303  135.2914  155.3167 H   0  0  0  0  0  0  0  0  0  0  0  0  # atno 10765 bound_to 10752
  141.1668  133.7155  156.8289 H   0  0  0  0  0  0  0  0  0  0  0  0  # atno 11005 bound_to 11000
  144.6929  140.3284  143.7220 LP  0  0  0  0  0  0  0  0  0  0  0  0  # atno 17320 bound_to 7965
  145.7443  139.1773  143.2358 LP  0  0  0  0  0  0  0  0  0  0  0  0  # atno 17321 bound_to 7965
  139.7650  144.7495  151.0308 LP  0  0  0  0  0  0  0  0  0  0  0  0  # atno 17342 bound_to 10162
  140.7806  143.4708  151.0148 LP  0  0  0  0  0  0  0  0  0  0  0  0  # atno 17343 bound_to 10162
  157.3921  130.7288  149.6705 LP  0  0  0  0  0  0  0  0  0  0  0  0  # atno 17370 bound_to 10713
  155.9720  130.4143  150.4128 LP  0  0  0  0  0  0  0  0  0  0  0  0  # atno 17371 bound_to 10713
  140.2065  134.8858  157.3228 LP  0  0  0  0  0  0  0  0  0  0  0  0  # atno 17394 bound_to 11000
  140.2131  134.4114  155.7602 LP  0  0  0  0  0  0  0  0  0  0  0  0  # atno 17395 bound_to 11000

$$$$
