AV-unprocessed.smi:2545|AV-procd|sdf|9996|dock6
  -GOLD-   2272014 43D 1   1.00000     0.00000
 Structure written by MMmdl.
 26 27  0  0  0  0  0  0  0  0  1 V2000
  149.5284  142.3397  155.0178 N   0  0  0  0  0  0  0  0  0  0  0  0
  148.7220  141.3254  154.4981 C   0  0  0  0  0  0  0  0  0  0  0  0
  147.3901  141.6102  154.1378 C   0  0  0  0  0  0  0  0  0  0  0  0
  146.5963  140.5703  153.6159 C   0  0  0  0  0  0  0  0  0  0  0  0
  147.0461  139.3102  153.4421 N   0  0  0  0  0  0  0  0  0  0  0  0
  148.3230  139.0429  153.7889 C   0  0  0  0  0  0  0  0  0  0  0  0
  149.2105  140.0082  154.3222 C   0  0  0  0  0  0  0  0  0  0  0  0
  150.5312  139.6777  154.6692 N   0  0  0  0  0  0  0  0  0  0  0  0
  150.8192  139.8469  156.0876 C   0  0  0  0  0  0  0  0  0  0  0  0
  152.3133  139.5925  156.3537 C   0  0  0  0  0  0  0  0  0  0  0  0
  152.6702  138.2982  155.8758 O   0  0  0  0  0  0  0  0  0  0  0  0
  152.4549  138.1675  154.4730 C   0  0  0  0  0  0  0  0  0  0  0  0
  150.9644  138.3836  154.1577 C   0  0  0  0  0  0  0  0  0  0  0  0
  150.4872  142.1724  155.2868 H   0  0  0  0  0  0  0  0  0  0  0  0
  149.1744  143.2788  155.1326 H   0  0  0  0  0  0  0  0  0  0  0  0
  146.9805  142.6026  154.2569 H   0  0  0  0  0  0  0  0  0  0  0  0
  145.5714  140.7563  153.3305 H   0  0  0  0  0  0  0  0  0  0  0  0
  148.6445  138.0230  153.6357 H   0  0  0  0  0  0  0  0  0  0  0  0
  150.5490  140.8558  156.4023 H   0  0  0  0  0  0  0  0  0  0  0  0
  150.2171  139.1520  156.6746 H   0  0  0  0  0  0  0  0  0  0  0  0
  152.9291  140.3528  155.8704 H   0  0  0  0  0  0  0  0  0  0  0  0
  152.5199  139.6474  157.4225 H   0  0  0  0  0  0  0  0  0  0  0  0
  153.0748  138.8837  153.9310 H   0  0  0  0  0  0  0  0  0  0  0  0
  152.7666  137.1724  154.1557 H   0  0  0  0  0  0  0  0  0  0  0  0
  150.3734  137.5869  154.6114 H   0  0  0  0  0  0  0  0  0  0  0  0
  150.7986  138.3371  153.0806 H   0  0  0  0  0  0  0  0  0  0  0  0
  1  2  1  0  0  0  0
  1 14  1  0  0  0  0
  1 15  1  0  0  0  0
  2  7  1  0  0  0  0
  2  3  2  0  0  0  0
  3  4  1  0  0  0  0
  3 16  1  0  0  0  0
  4  5  2  0  0  0  0
  4 17  1  0  0  0  0
  5  6  1  0  0  0  0
  6  7  2  0  0  0  0
  6 18  1  0  0  0  0
  7  8  1  0  0  0  0
  8 13  1  0  0  0  0
  8  9  1  0  0  0  0
  9 10  1  0  0  0  0
  9 19  1  0  0  0  0
  9 20  1  0  0  0  0
 10 11  1  0  0  0  0
 10 21  1  0  0  0  0
 10 22  1  0  0  0  0
 11 12  1  0  0  0  0
 12 13  1  0  0  0  0
 12 23  1  0  0  0  0
 12 24  1  0  0  0  0
 13 25  1  0  0  0  0
 13 26  1  0  0  0  0
M  END
> <s_m_source_file>
AV-unprocessed.smi

> <i_m_source_file_index>
2545

> <i_lp_mmshare_version>
43012

> <i_f3d_flags>
0

> <s_epik_input>
W05IMl1jMVtjSF1bY0hdbltjSF1jMU4yW0NIMl1bQ0gyXU9bQ0gyXVtDSDJdMg==

> <s_epik_cmdline>
J2VwaWtfcHl0aG9uJywgJy1waCcsICc3LjAnLCAnLXRuJywgJzgnLCAnLW1hJywgJzIwMCcsICctbWV0YWxfYmluZGluZycsICctaW1hZScsICc8aW5maWxlLm1hZT4nLCAnLW9tYWUnLCAnPG91dGZpbGUubWFlPic=

> <r_lp_tautomer_probability>
0.999999

> <r_epik_Ionization_Penalty>
2.28846

> <r_epik_Ionization_Penalty_Charging>
0

> <r_epik_Ionization_Penalty_Neutral>
2.28846

> <r_epik_State_Penalty>
2.43827

> <r_epik_Charging_Adjusted_Penalty>
2.43827

> <i_epik_Tot_Q>
0

> <i_epik_Tot_abs_Q>
0

> <r_epik_Metal_State_Penalty>
0.0346758

> <b_epik_Metal_Only>
0

> <s_lp_Force_Field>
OPLS_2005

> <r_lp_Energy>
24.1362

> <b_lp_Chiralities_Consistent>
1

> <s_lp_Variant>
AV-unprocessed.smi:2545-2

> <Gold.Version>
5.8.1

> <Gold.Id.Protein>
6NUR|6NUR_protein|mol2

> <Gold.PLP.Fitness>
33.9802

> <Gold.PLP.PLP>
-22.2797

> <Gold.PLP.part.hbond>
-2.0000

> <Gold.PLP.part.metal>
0.0000

> <Gold.PLP.part.buried>
0.5078

> <Gold.PLP.part.nonpolar>
-21.3662

> <Gold.PLP.part.repulsive>
0.7029

> <Gold.PLP.ligand.clash>
0.0965

> <Gold.PLP.ligand.torsion>
0.1548

> <Gold.PLP.Chemscore.Hbond>
2.0000

> <Gold.PLP.Chemscore.CHOScore>
1.9983

> <Gold.PLP.Chemscore.Metal>
0.0000

> <Gold.Chemscore.Hbonds>
donor molecule, donor type, donor heavy atom, donor atom, acceptor molecule, acceptor atom, score
      L1  H     1    15       P1  8028  1.00
      P1  H  7989  7998       L1     8  0.95
      L1  C     4    17       P1 10175  1.00
      L1  C     6    18       P1  7948  1.00

> <Gold.PLP.Chemscore.Internal.Correction>
0.1119

> <Gold.Rescore>
     Score         DG    S(hbond)    S(metal)    S(lipo)     H(rot)  DE(clash)    DE(int)     intcor
     12.23     -13.91       1.06        0.00      63.77       1.00       0.52       1.16       ----

> <Gold.Chemscore.Fitness>
12.2341

> <Gold.Chemscore.DG>
-13.9097

> <Gold.Chemscore.ZeroCoef>
-5.4800

> <Gold.Chemscore.Hbond>
1.0566

> <Gold.Chemscore.Metal>
0.0000

> <Gold.Chemscore.Lipo>
63.7672

> <Gold.Chemscore.Internal_Hbond>
0.0000

> <Gold.Chemscore.DEClash>
0.5172

> <Gold.Chemscore.DEInternal>
1.1584

> <Gold.Chemscore.Rot>
1.0000

> <Gold.Chemscore.Internal.Correction>
   9.000000E+99

> <Gold.Chemscore.Hbonds>
donor molecule, donor type, donor heavy atom, donor atom, acceptor molecule, acceptor atom, score
      L1  H     1    15       P1  8028  0.95
      P1  H  7989  7998       L1     8  0.07

> <Gold.Chemscore.Hbond.Weighted>
-3.5290

> <Gold.Chemscore.Metal.Weighted>
-0.0000

> <Gold.Chemscore.Lipo.Weighted>
-7.4608

> <Gold.Chemscore.Internal_Hbond.Weighted>
0.0000

> <Gold.Chemscore.DEClash.Weighted>
0.5172

> <Gold.Chemscore.DEInternal.Weighted>
1.1584

> <Gold.Chemscore.Rot.Weighted>
2.5600

> <Gold.Chemscore.Internal.Correction.Weighted>
   9.000000E+99

> <Gold.Protein.RotatedTorsions>
[ 6907 6896 6895 6894 ] final -169.55 input  -60.11 | X-H torsion
[ 7974 7965 7964 7962 ] final  167.75 input  175.53 | X-H torsion
[ 8008 7997 7996 7995 ] final   73.24 input   59.86 | X-H torsion
[ 10167 10162 10161 10158 ] final   49.21 input  -65.29 | X-H torsion
[ 10718 10713 10712 10709 ] final -141.78 input   66.30 | X-H torsion
[ 10763 10752 10751 10750 ] final  136.25 input  -60.55 | X-H torsion
[ 11005 11000 10999 10996 ] final  -24.46 input  -57.11 | X-H torsion

> <Gold.Protein.ActiveResidues>
 VAL166  LYS551  ARG553  GLY616  TRP617  ASP618  TYR619  PRO620  LYS621  CYS622 
 ASP623  PHE694  ASN695  SER759  ASP760  ASP761  ALA762  ILE779  LEU786  VAL792 
 PHE793  MET794  SER795  GLU796  ALA797  LYS798  CYS799  TRP800  GLU811  SER814 

> <Gold.Protein.RotatedAtoms>
  151.4935  133.3520  159.2856 H   0  0  0  0  0  0  0  0  0  0  0  0  # atno 6907 bound_to 6896
  150.8819  134.8213  159.7242 H   0  0  0  0  0  0  0  0  0  0  0  0  # atno 6908 bound_to 6896
  152.4768  134.4833  159.9724 H   0  0  0  0  0  0  0  0  0  0  0  0  # atno 6909 bound_to 6896
  144.7413  139.8807  143.6396 H   0  0  0  0  0  0  0  0  0  0  0  0  # atno 7974 bound_to 7965
  155.7807  140.3482  155.5296 H   0  0  0  0  0  0  0  0  0  0  0  0  # atno 8008 bound_to 7997
  155.8731  140.0990  157.1557 H   0  0  0  0  0  0  0  0  0  0  0  0  # atno 8009 bound_to 7997
  154.4019  140.1337  156.4090 H   0  0  0  0  0  0  0  0  0  0  0  0  # atno 8010 bound_to 7997
  140.2852  144.3110  150.6254 H   0  0  0  0  0  0  0  0  0  0  0  0  # atno 10167 bound_to 10162
  156.3380  130.7622  151.1753 H   0  0  0  0  0  0  0  0  0  0  0  0  # atno 10718 bound_to 10713
  153.8534  135.3076  155.3434 H   0  0  0  0  0  0  0  0  0  0  0  0  # atno 10763 bound_to 10752
  154.7881  135.4798  153.9994 H   0  0  0  0  0  0  0  0  0  0  0  0  # atno 10764 bound_to 10752
  153.1504  135.6842  153.8984 H   0  0  0  0  0  0  0  0  0  0  0  0  # atno 10765 bound_to 10752
  140.8847  133.7629  156.0345 H   0  0  0  0  0  0  0  0  0  0  0  0  # atno 11005 bound_to 11000
  146.1214  139.4232  143.0226 LP  0  0  0  0  0  0  0  0  0  0  0  0  # atno 17320 bound_to 7965
  145.7300  141.0046  143.1357 LP  0  0  0  0  0  0  0  0  0  0  0  0  # atno 17321 bound_to 7965
  140.5778  143.2175  151.7483 LP  0  0  0  0  0  0  0  0  0  0  0  0  # atno 17342 bound_to 10162
  139.4952  144.4124  152.0066 LP  0  0  0  0  0  0  0  0  0  0  0  0  # atno 17343 bound_to 10162
  157.7442  131.0462  150.4884 LP  0  0  0  0  0  0  0  0  0  0  0  0  # atno 17370 bound_to 10713
  156.5059  130.4128  149.6327 LP  0  0  0  0  0  0  0  0  0  0  0  0  # atno 17371 bound_to 10713
  140.8419  134.3056  157.5310 LP  0  0  0  0  0  0  0  0  0  0  0  0  # atno 17394 bound_to 11000
  139.8723  134.9421  156.3815 LP  0  0  0  0  0  0  0  0  0  0  0  0  # atno 17395 bound_to 11000

$$$$
