AV-unprocessed.smi:2225|AV-procd|sdf|9000|dock7
  -GOLD-   2272012213D 1   1.00000     0.00000
 Structure written by MMmdl.
 33 34  0  0  0  0  0  0  0  0  1 V2000
  149.2727  139.9821  156.4707 O   0  0  0  0  0  0  0  0  0  0  0  0
  149.5366  141.1358  156.1346 C   0  0  0  0  0  0  0  0  0  0  0  0
  151.0012  141.6060  156.1699 C   0  0  0  0  0  0  0  0  0  0  0  0
  151.4930  142.0156  157.4987 N   0  0  0  0  0  0  0  0  0  0  0  0
  151.0082  143.2349  158.0045 C   0  0  0  0  0  0  0  0  0  0  0  0
  151.3866  143.7031  159.2011 C   0  0  0  0  0  0  0  0  0  0  0  0
  152.3203  142.9217  159.9748 C   0  0  0  0  0  0  0  0  0  0  0  0
  152.8011  141.7427  159.5168 C   0  0  0  0  0  0  0  0  0  0  0  0
  153.7870  140.9019  160.3248 C   0  0  0  0  0  0  0  0  0  0  0  0
  153.4061  139.6240  160.3489 F   0  0  0  0  0  0  0  0  0  0  0  0
  155.0050  140.9639  159.7855 F   0  0  0  0  0  0  0  0  0  0  0  0
  153.8776  141.3227  161.5874 F   0  0  0  0  0  0  0  0  0  0  0  0
  152.3689  141.2308  158.2002 C   0  0  0  0  0  0  0  0  0  0  0  0
  152.7649  140.1555  157.7481 O   0  0  0  0  0  0  0  0  0  0  0  0
  148.5961  142.0056  155.7292 N   0  0  0  0  0  0  0  0  0  0  0  0
  147.1705  141.7141  155.6263 C   0  0  1  0  0  0  0  0  0  0  0  0
  146.3468  142.5932  156.5649 C   0  0  0  0  0  0  0  0  0  0  0  0
  145.4703  143.4210  155.6276 C   0  0  0  0  0  0  0  0  0  0  0  0
  145.3346  142.5932  154.4857 O   0  0  0  0  0  0  0  0  0  0  0  0
  146.6165  142.0420  154.2325 C   0  0  0  0  0  0  0  0  0  0  0  0
  151.6283  140.8138  155.7575 H   0  0  0  0  0  0  0  0  0  0  0  0
  151.1031  142.4333  155.4658 H   0  0  0  0  0  0  0  0  0  0  0  0
  150.3091  143.7544  157.3650 H   0  0  0  0  0  0  0  0  0  0  0  0
  151.0013  144.6393  159.5774 H   0  0  0  0  0  0  0  0  0  0  0  0
  152.6321  143.3009  160.9366 H   0  0  0  0  0  0  0  0  0  0  0  0
  148.8908  142.9349  155.4669 H   0  0  0  0  0  0  0  0  0  0  0  0
  146.9832  140.6664  155.8689 H   0  0  0  0  0  0  0  0  0  0  0  0
  145.7199  141.9641  157.1979 H   0  0  0  0  0  0  0  0  0  0  0  0
  146.9491  143.2233  157.2209 H   0  0  0  0  0  0  0  0  0  0  0  0
  144.5027  143.6697  156.0640 H   0  0  0  0  0  0  0  0  0  0  0  0
  145.9706  144.3494  155.3472 H   0  0  0  0  0  0  0  0  0  0  0  0
  147.2263  142.7914  153.7244 H   0  0  0  0  0  0  0  0  0  0  0  0
  146.5545  141.1639  153.5894 H   0  0  0  0  0  0  0  0  0  0  0  0
  1  2  2  0  0  0  0
  2  3  1  0  0  0  0
  2 15  1  0  0  0  0
  3  4  1  0  0  0  0
  3 21  1  0  0  0  0
  3 22  1  0  0  0  0
  4 13  1  0  0  0  0
  4  5  1  0  0  0  0
  5  6  2  0  0  0  0
  5 23  1  0  0  0  0
  6  7  1  0  0  0  0
  6 24  1  0  0  0  0
  7  8  2  0  0  0  0
  7 25  1  0  0  0  0
  8  9  1  0  0  0  0
  8 13  1  0  0  0  0
  9 10  1  0  0  0  0
  9 11  1  0  0  0  0
  9 12  1  0  0  0  0
 13 14  2  0  0  0  0
 15 16  1  0  0  0  0
 15 26  1  0  0  0  0
 16 20  1  0  0  0  0
 16 17  1  0  0  0  0
 16 27  1  0  0  0  0
 17 18  1  0  0  0  0
 17 28  1  0  0  0  0
 17 29  1  0  0  0  0
 18 19  1  0  0  0  0
 18 30  1  0  0  0  0
 18 31  1  0  0  0  0
 19 20  1  0  0  0  0
 20 32  1  0  0  0  0
 20 33  1  0  0  0  0
M  END
> <s_m_source_file>
AV-unprocessed.smi

> <i_m_source_file_index>
2225

> <i_lp_mmshare_version>
43012

> <i_f3d_flags>
0

> <s_epik_input>
W0NIMl0xT1tDSDJdW0NIMl1bQ0BIXTFbTkhdQyg9TylbQ0gyXW4yW2NIXVtjSF1bY0hdYyhDKEYpKEYpRiljMj1P

> <s_epik_cmdline>
J2VwaWtfcHl0aG9uJywgJy1waCcsICc3LjAnLCAnLXRuJywgJzgnLCAnLW1hJywgJzIwMCcsICctbWV0YWxfYmluZGluZycsICctaW1hZScsICc8aW5maWxlLm1hZT4nLCAnLW9tYWUnLCAnPG91dGZpbGUubWFlPic=

> <r_lp_tautomer_probability>
1

> <r_epik_Ionization_Penalty>
3.32109e-08

> <r_epik_Ionization_Penalty_Charging>
1.91399e-09

> <r_epik_Ionization_Penalty_Neutral>
3.1297e-08

> <r_epik_State_Penalty>
-0

> <r_epik_Charging_Adjusted_Penalty>
1.91399e-09

> <i_epik_Tot_Q>
0

> <i_epik_Tot_abs_Q>
0

> <r_epik_Metal_State_Penalty>
-0

> <b_epik_Metal_Only>
0

> <s_lp_Force_Field>
OPLS_2005

> <r_lp_Energy>
24.9921

> <b_lp_Chiralities_Consistent>
1

> <s_lp_Variant>
AV-unprocessed.smi:2225-2

> <Gold.Version>
5.8.1

> <Gold.Id.Protein>
6NUR|6NUR_protein|mol2

> <Gold.PLP.Fitness>
46.2802

> <Gold.PLP.PLP>
-38.9937

> <Gold.PLP.part.hbond>
-2.0000

> <Gold.PLP.part.metal>
0.0000

> <Gold.PLP.part.buried>
-5.6973

> <Gold.PLP.part.nonpolar>
-31.4099

> <Gold.PLP.part.repulsive>
0.3074

> <Gold.PLP.ligand.clash>
0.0000

> <Gold.PLP.ligand.torsion>
0.9060

> <Gold.PLP.Chemscore.Hbond>
1.9120

> <Gold.PLP.Chemscore.CHOScore>
1.0000

> <Gold.PLP.Chemscore.Metal>
0.0000

> <Gold.Chemscore.Hbonds>
donor molecule, donor type, donor heavy atom, donor atom, acceptor molecule, acceptor atom, score
      L1  H    15    26       P1  8028  1.00
      P1  H  7997  8010       L1    14  0.93
      L1  C     5    23       P1  8028  1.00

> <Gold.PLP.Chemscore.Internal.Correction>
0.3625

> <Gold.Rescore>
     Score         DG    S(hbond)    S(metal)    S(lipo)     H(rot)  DE(clash)    DE(int)     intcor
     14.15     -16.42       1.88        0.00      75.71       1.64       0.05       2.22       ----

> <Gold.Chemscore.Fitness>
14.1521

> <Gold.Chemscore.DG>
-16.4178

> <Gold.Chemscore.ZeroCoef>
-5.4800

> <Gold.Chemscore.Hbond>
1.8788

> <Gold.Chemscore.Metal>
0.0000

> <Gold.Chemscore.Lipo>
75.7119

> <Gold.Chemscore.Internal_Hbond>
0.0000

> <Gold.Chemscore.DEClash>
0.0478

> <Gold.Chemscore.DEInternal>
2.2179

> <Gold.Chemscore.Rot>
1.6389

> <Gold.Chemscore.Internal.Correction>
   9.000000E+99

> <Gold.Chemscore.Hbonds>
donor molecule, donor type, donor heavy atom, donor atom, acceptor molecule, acceptor atom, score
      L1  H    15    26       P1  8028  0.97
      P1  H  7997  8010       L1    14  0.86

> <Gold.Chemscore.Hbond.Weighted>
-6.2751

> <Gold.Chemscore.Metal.Weighted>
-0.0000

> <Gold.Chemscore.Lipo.Weighted>
-8.8583

> <Gold.Chemscore.Internal_Hbond.Weighted>
0.0000

> <Gold.Chemscore.DEClash.Weighted>
0.0478

> <Gold.Chemscore.DEInternal.Weighted>
2.2179

> <Gold.Chemscore.Rot.Weighted>
4.1956

> <Gold.Chemscore.Internal.Correction.Weighted>
   9.000000E+99

> <Gold.Protein.RotatedTorsions>
[ 6907 6896 6895 6894 ] final   68.06 input  -60.11 | X-H torsion
[ 7974 7965 7964 7962 ] final   83.82 input  175.53 | X-H torsion
[ 8008 7997 7996 7995 ] final   36.17 input   59.86 | X-H torsion
[ 10167 10162 10161 10158 ] final  -88.85 input  -65.29 | X-H torsion
[ 10718 10713 10712 10709 ] final   96.11 input   66.30 | X-H torsion
[ 10763 10752 10751 10750 ] final  -71.02 input  -60.55 | X-H torsion
[ 11005 11000 10999 10996 ] final   39.27 input  -57.11 | X-H torsion

> <Gold.Protein.ActiveResidues>
 VAL166  LYS551  ARG553  GLY616  TRP617  ASP618  TYR619  PRO620  LYS621  CYS622 
 ASP623  PHE694  ASN695  SER759  ASP760  ASP761  ALA762  ILE779  LEU786  VAL792 
 PHE793  MET794  SER795  GLU796  ALA797  LYS798  CYS799  TRP800  GLU811  SER814 

> <Gold.Protein.RotatedAtoms>
  152.4595  134.5217  159.9784 H   0  0  0  0  0  0  0  0  0  0  0  0  # atno 6907 bound_to 6896
  151.5269  133.3450  159.2919 H   0  0  0  0  0  0  0  0  0  0  0  0  # atno 6908 bound_to 6896
  150.8552  134.7918  159.7102 H   0  0  0  0  0  0  0  0  0  0  0  0  # atno 6909 bound_to 6896
  145.6069  139.2361  143.2214 H   0  0  0  0  0  0  0  0  0  0  0  0  # atno 7974 bound_to 7965
  155.1831  140.3301  155.4371 H   0  0  0  0  0  0  0  0  0  0  0  0  # atno 8008 bound_to 7997
  156.2469  140.1923  156.6878 H   0  0  0  0  0  0  0  0  0  0  0  0  # atno 8009 bound_to 7997
  154.6258  140.0589  156.9657 H   0  0  0  0  0  0  0  0  0  0  0  0  # atno 8010 bound_to 7997
  140.3707  143.2796  151.9504 H   0  0  0  0  0  0  0  0  0  0  0  0  # atno 10167 bound_to 10162
  157.6931  131.0567  150.4441 H   0  0  0  0  0  0  0  0  0  0  0  0  # atno 10718 bound_to 10713
  154.4259  135.5975  153.6038 H   0  0  0  0  0  0  0  0  0  0  0  0  # atno 10763 bound_to 10752
  152.9796  135.5963  154.3898 H   0  0  0  0  0  0  0  0  0  0  0  0  # atno 10764 bound_to 10752
  154.3730  135.2841  155.2234 H   0  0  0  0  0  0  0  0  0  0  0  0  # atno 10765 bound_to 10752
  140.2045  134.3830  155.8079 H   0  0  0  0  0  0  0  0  0  0  0  0  # atno 11005 bound_to 11000
  146.1534  140.6893  142.9311 LP  0  0  0  0  0  0  0  0  0  0  0  0  # atno 17320 bound_to 7965
  144.7286  140.4602  143.6954 LP  0  0  0  0  0  0  0  0  0  0  0  0  # atno 17321 bound_to 7965
  139.4804  144.5910  151.7772 LP  0  0  0  0  0  0  0  0  0  0  0  0  # atno 17342 bound_to 10162
  140.5036  144.1131  150.5977 LP  0  0  0  0  0  0  0  0  0  0  0  0  # atno 17343 bound_to 10162
  156.4798  130.4071  149.6468 LP  0  0  0  0  0  0  0  0  0  0  0  0  # atno 17370 bound_to 10713
  156.3518  130.7436  151.2396 LP  0  0  0  0  0  0  0  0  0  0  0  0  # atno 17371 bound_to 10713
  141.2227  133.7111  156.8313 LP  0  0  0  0  0  0  0  0  0  0  0  0  # atno 17394 bound_to 11000
  140.2018  134.8891  157.3177 LP  0  0  0  0  0  0  0  0  0  0  0  0  # atno 17395 bound_to 11000

$$$$
