AV-unprocessed.smi:3195|AV-procd|sdf|12216|dock1
  -GOLD-   2272018 53D 1   1.00000     0.00000
 Structure written by MMmdl.
 30 31  0  0  0  0  0  0  0  0  3 V2000
  151.4144  138.5846  154.5034 C   0  0  0  0  0  0  0  0  0  0  0  0
  150.5322  139.6676  155.1481 C   0  0  2  0  0  0  0  0  0  0  0  0
  151.3378  140.4619  156.1985 C   0  0  0  0  0  0  0  0  0  0  0  0
  152.4762  140.0890  156.4884 O   0  0  0  0  0  0  0  0  0  0  0  0
  150.7361  141.5401  156.7376 N   0  0  0  0  0  0  0  0  0  0  0  0
  151.2290  142.4407  157.7223 C   0  0  0  0  0  0  0  0  0  0  0  0
  151.0072  143.7773  157.6541 N   0  3  0  0  0  0  0  0  0  0  0  0
  151.4624  144.6585  158.5705 C   0  0  0  0  0  0  0  0  0  0  0  0
  152.2116  144.1999  159.6708 C   0  0  0  0  0  0  0  0  0  0  0  0
  152.4715  142.8204  159.7915 C   0  0  0  0  0  0  0  0  0  0  0  0
  151.9779  141.9327  158.8118 C   0  0  0  0  0  0  0  0  0  0  0  0
  152.2318  140.5948  158.9296 O   0  5  0  0  0  0  0  0  0  0  0  0
  149.2334  139.0771  155.7468 C   0  0  0  0  0  0  0  0  0  0  0  0
  148.1235  139.6409  154.8775 C   0  0  0  0  0  0  0  0  0  0  0  0
  148.7412  140.9224  154.3428 C   0  0  0  0  0  0  0  0  0  0  0  0
  150.0881  140.5417  154.1048 O   0  0  0  0  0  0  0  0  0  0  0  0
  151.7468  137.8497  155.2378 H   0  0  0  0  0  0  0  0  0  0  0  0
  152.3019  139.0185  154.0411 H   0  0  0  0  0  0  0  0  0  0  0  0
  150.8692  138.0492  153.7255 H   0  0  0  0  0  0  0  0  0  0  0  0
  149.8016  141.7390  156.4086 H   0  0  0  0  0  0  0  0  0  0  0  0
  151.2153  145.6953  158.3956 H   0  0  0  0  0  0  0  0  0  0  0  0
  152.5823  144.8937  160.4105 H   0  0  0  0  0  0  0  0  0  0  0  0
  153.0452  142.4486  160.6280 H   0  0  0  0  0  0  0  0  0  0  0  0
  150.4666  144.1345  156.8657 H   0  0  0  0  0  0  0  0  0  0  0  0
  149.2232  137.9862  155.7463 H   0  0  0  0  0  0  0  0  0  0  0  0
  149.0793  139.3958  156.7793 H   0  0  0  0  0  0  0  0  0  0  0  0
  147.9153  138.9593  154.0518 H   0  0  0  0  0  0  0  0  0  0  0  0
  147.1949  139.8101  155.4232 H   0  0  0  0  0  0  0  0  0  0  0  0
  148.2564  141.2795  153.4341 H   0  0  0  0  0  0  0  0  0  0  0  0
  148.7052  141.7166  155.0901 H   0  0  0  0  0  0  0  0  0  0  0  0
  1  2  1  0  0  0  0
  1 17  1  0  0  0  0
  1 18  1  0  0  0  0
  1 19  1  0  0  0  0
  2 16  1  0  0  0  0
  2  3  1  0  0  0  0
  2 13  1  0  0  0  0
  3  4  2  0  0  0  0
  3  5  1  0  0  0  0
  5 20  1  0  0  0  0
  5  6  1  0  0  0  0
  6 11  2  0  0  0  0
  6  7  1  0  0  0  0
  7 24  1  0  0  0  0
  7  8  2  0  0  0  0
  8 21  1  0  0  0  0
  8  9  1  0  0  0  0
  9 22  1  0  0  0  0
  9 10  2  0  0  0  0
 10 11  1  0  0  0  0
 10 23  1  0  0  0  0
 11 12  1  0  0  0  0
 13 14  1  0  0  0  0
 13 25  1  0  0  0  0
 13 26  1  0  0  0  0
 14 15  1  0  0  0  0
 14 27  1  0  0  0  0
 14 28  1  0  0  0  0
 15 16  1  0  0  0  0
 15 29  1  0  0  0  0
 15 30  1  0  0  0  0
M  CHG  1   7   1
M  CHG  1  12  -1
M  END
> <s_m_source_file>
AV-unprocessed.smi

> <i_m_source_file_index>
3195

> <i_lp_mmshare_version>
43012

> <i_f3d_flags>
0

> <s_epik_input>
TzFbQ0gyXVtDSDJdW0NIMl1bQ0BAXTEoW0NIM10pQyg9TylbTkhdYzJuW2NIXVtjSF1bY0hdYzJbT0hd

> <s_epik_cmdline>
J2VwaWtfcHl0aG9uJywgJy1waCcsICc3LjAnLCAnLXRuJywgJzgnLCAnLW1hJywgJzIwMCcsICctbWV0YWxfYmluZGluZycsICctaW1hZScsICc8aW5maWxlLm1hZT4nLCAnLW9tYWUnLCAnPG91dGZpbGUubWFlPic=

> <r_lp_tautomer_probability>
0.56342

> <r_epik_Ionization_Penalty>
0.213843

> <r_epik_Ionization_Penalty_Charging>
0.0241245

> <r_epik_Ionization_Penalty_Neutral>
0.189718

> <r_epik_State_Penalty>
0.53074

> <r_epik_Charging_Adjusted_Penalty>
0.554865

> <i_epik_Tot_Q>
0

> <i_epik_Tot_abs_Q>
2

> <r_epik_Metal_State_Penalty>
2.53391

> <b_epik_Metal_Only>
0

> <s_lp_Force_Field>
OPLS_2005

> <r_lp_Energy>
20.8299

> <b_lp_Chiralities_Consistent>
1

> <s_lp_Variant>
AV-unprocessed.smi:3195-4

> <Gold.Version>
5.8.1

> <Gold.Id.Protein>
6NUR|6NUR_protein|mol2

> <Gold.PLP.Fitness>
44.4642

> <Gold.PLP.PLP>
-33.3352

> <Gold.PLP.part.hbond>
-2.9995

> <Gold.PLP.part.metal>
0.0000

> <Gold.PLP.part.buried>
-5.4737

> <Gold.PLP.part.nonpolar>
-26.3555

> <Gold.PLP.part.repulsive>
0.9547

> <Gold.PLP.ligand.clash>
0.0000

> <Gold.PLP.ligand.torsion>
0.3903

> <Gold.PLP.Chemscore.Hbond>
3.8000

> <Gold.PLP.Chemscore.CHOScore>
0.0000

> <Gold.PLP.Chemscore.Metal>
0.0000

> <Gold.Chemscore.Hbonds>
donor molecule, donor type, donor heavy atom, donor atom, acceptor molecule, acceptor atom, score
      L1  H     7    24       P1  8028  1.92
      P1  H  7989  7998       L1    16  0.65
      P1  H  7997  8009       L1     4  1.00

> <Gold.PLP.Chemscore.Internal.Correction>
0.5096

> <Gold.Rescore>
     Score         DG    S(hbond)    S(metal)    S(lipo)     H(rot)  DE(clash)    DE(int)     intcor
     16.72     -20.83       2.82        0.00      72.67       1.00       0.10       4.01       ----

> <Gold.Chemscore.Fitness>
16.7184

> <Gold.Chemscore.DG>
-20.8262

> <Gold.Chemscore.ZeroCoef>
-5.4800

> <Gold.Chemscore.Hbond>
2.8155

> <Gold.Chemscore.Metal>
0.0000

> <Gold.Chemscore.Lipo>
72.6712

> <Gold.Chemscore.Internal_Hbond>
0.0000

> <Gold.Chemscore.DEClash>
0.0982

> <Gold.Chemscore.DEInternal>
4.0095

> <Gold.Chemscore.Rot>
1.0000

> <Gold.Chemscore.Internal.Correction>
   9.000000E+99

> <Gold.Chemscore.Hbonds>
donor molecule, donor type, donor heavy atom, donor atom, acceptor molecule, acceptor atom, score
      L1  H     7    24       P1  8028  0.88
      P1  H  7989  7998       L1    16  0.11
      P1  H  7997  8009       L1     4  0.99

> <Gold.Chemscore.Hbond.Weighted>
-9.4037

> <Gold.Chemscore.Metal.Weighted>
-0.0000

> <Gold.Chemscore.Lipo.Weighted>
-8.5025

> <Gold.Chemscore.Internal_Hbond.Weighted>
0.0000

> <Gold.Chemscore.DEClash.Weighted>
0.0982

> <Gold.Chemscore.DEInternal.Weighted>
4.0095

> <Gold.Chemscore.Rot.Weighted>
2.5600

> <Gold.Chemscore.Internal.Correction.Weighted>
   9.000000E+99

> <Gold.Protein.RotatedTorsions>
[ 6907 6896 6895 6894 ] final  108.42 input  -60.11 | X-H torsion
[ 7974 7965 7964 7962 ] final  122.35 input  175.53 | X-H torsion
[ 8008 7997 7996 7995 ] final -163.95 input   59.86 | X-H torsion
[ 10167 10162 10161 10158 ] final  -33.37 input  -65.29 | X-H torsion
[ 10718 10713 10712 10709 ] final -121.46 input   66.30 | X-H torsion
[ 10763 10752 10751 10750 ] final  -76.53 input  -60.55 | X-H torsion
[ 11005 11000 10999 10996 ] final  148.59 input  -57.11 | X-H torsion

> <Gold.Protein.ActiveResidues>
 VAL166  LYS551  ARG553  GLY616  TRP617  ASP618  TYR619  PRO620  LYS621  CYS622 
 ASP623  PHE694  ASN695  SER759  ASP760  ASP761  ALA762  ILE779  LEU786  VAL792 
 PHE793  MET794  SER795  GLU796  ALA797  LYS798  CYS799  TRP800  GLU811  SER814 

> <Gold.Protein.RotatedAtoms>
  152.5113  133.9091  159.7478 H   0  0  0  0  0  0  0  0  0  0  0  0  # atno 6907 bound_to 6896
  150.9489  133.6563  159.2783 H   0  0  0  0  0  0  0  0  0  0  0  0  # atno 6908 bound_to 6896
  151.3849  135.0951  159.9560 H   0  0  0  0  0  0  0  0  0  0  0  0  # atno 6909 bound_to 6896
  145.1086  139.3469  143.4775 H   0  0  0  0  0  0  0  0  0  0  0  0  # atno 7974 bound_to 7965
  155.8287  140.0930  157.1806 H   0  0  0  0  0  0  0  0  0  0  0  0  # atno 8008 bound_to 7997
  154.3979  140.1423  156.3648 H   0  0  0  0  0  0  0  0  0  0  0  0  # atno 8009 bound_to 7997
  155.8189  140.3447  155.5505 H   0  0  0  0  0  0  0  0  0  0  0  0  # atno 8010 bound_to 7997
  140.7205  143.3625  151.1935 H   0  0  0  0  0  0  0  0  0  0  0  0  # atno 10167 bound_to 10162
  156.1339  130.6416  150.9665 H   0  0  0  0  0  0  0  0  0  0  0  0  # atno 10718 bound_to 10713
  154.5010  135.5794  153.6531 H   0  0  0  0  0  0  0  0  0  0  0  0  # atno 10763 bound_to 10752
  152.9879  135.6135  154.3002 H   0  0  0  0  0  0  0  0  0  0  0  0  # atno 10764 bound_to 10752
  154.2910  135.2848  155.2634 H   0  0  0  0  0  0  0  0  0  0  0  0  # atno 10765 bound_to 10752
  140.0972  134.9005  157.1741 H   0  0  0  0  0  0  0  0  0  0  0  0  # atno 11005 bound_to 11000
  146.3527  140.0994  142.8608 LP  0  0  0  0  0  0  0  0  0  0  0  0  # atno 17320 bound_to 7965
  145.0873  140.9261  143.4790 LP  0  0  0  0  0  0  0  0  0  0  0  0  # atno 17321 bound_to 7965
  139.7180  143.9269  152.2974 LP  0  0  0  0  0  0  0  0  0  0  0  0  # atno 17342 bound_to 10162
  139.9016  144.6908  150.8659 LP  0  0  0  0  0  0  0  0  0  0  0  0  # atno 17343 bound_to 10162
  157.6514  131.0896  150.8043 LP  0  0  0  0  0  0  0  0  0  0  0  0  # atno 17370 bound_to 10713
  156.8125  130.4957  149.5354 LP  0  0  0  0  0  0  0  0  0  0  0  0  # atno 17371 bound_to 10713
  140.3270  134.2853  155.7235 LP  0  0  0  0  0  0  0  0  0  0  0  0  # atno 17394 bound_to 11000
  141.2095  133.7746  156.9990 LP  0  0  0  0  0  0  0  0  0  0  0  0  # atno 17395 bound_to 11000

$$$$
