AV-unprocessed.smi:1692|AV-procd|sdf|6780|dock10
  -GOLD-   22720 7543D 1   1.00000     0.00000
 Structure written by MMmdl.
 46 47  0  0  0  0  0  0  0  0  2 V2000
  153.1570  138.8811  154.8232 C   0  0  0  0  0  0  0  0  0  0  0  0
  151.6447  138.7374  155.0264 C   0  0  2  0  0  0  0  0  0  0  0  0
  151.0441  137.6234  154.1447 C   0  0  0  0  0  0  0  0  0  0  0  0
  149.5700  137.5546  154.2944 N   0  3  1  0  0  0  0  0  0  0  0  0
  149.1306  136.8869  155.5488 C   0  0  0  0  0  0  0  0  0  0  0  0
  150.0296  135.6980  155.9276 C   0  0  0  0  0  0  0  0  0  0  0  0
  149.4915  134.3652  155.3812 C   0  0  0  0  0  0  0  0  0  0  0  0
  148.6425  134.5654  154.2124 N   0  0  0  0  0  0  0  0  0  0  0  0
  147.6361  133.7577  153.8472 C   0  0  0  0  0  0  0  0  0  0  0  0
  147.3146  132.7501  154.4782 O   0  0  0  0  0  0  0  0  0  0  0  0
  147.0423  134.1959  152.7232 N   0  0  0  0  0  0  0  0  0  0  0  0
  145.9436  133.6222  152.0293 C   0  0  0  0  0  0  0  0  0  0  0  0
  145.8952  132.2100  152.0496 C   0  0  0  0  0  0  0  0  0  0  0  0
  144.8445  131.5428  151.3906 C   0  0  0  0  0  0  0  0  0  0  0  0
  143.8679  132.3061  150.7268 C   0  0  0  0  0  0  0  0  0  0  0  0
  143.9902  133.7076  150.7540 C   0  0  0  0  0  0  0  0  0  0  0  0
  144.9967  134.3492  151.3849 N   0  0  0  0  0  0  0  0  0  0  0  0
  148.9644  138.8893  154.0514 C   0  0  0  0  0  0  0  0  0  0  0  0
  149.6280  139.9827  154.9166 C   0  0  2  0  0  0  0  0  0  0  0  0
  149.0976  141.3808  154.5810 C   0  0  0  0  0  0  0  0  0  0  0  0
  151.0326  139.9760  154.6833 O   0  0  0  0  0  0  0  0  0  0  0  0
  153.6776  137.9589  155.0834 H   0  0  0  0  0  0  0  0  0  0  0  0
  153.5600  139.6774  155.4495 H   0  0  0  0  0  0  0  0  0  0  0  0
  153.3962  139.1200  153.7865 H   0  0  0  0  0  0  0  0  0  0  0  0
  151.4599  138.5235  156.0803 H   0  0  0  0  0  0  0  0  0  0  0  0
  151.2702  137.8274  153.0970 H   0  0  0  0  0  0  0  0  0  0  0  0
  151.4976  136.6577  154.3712 H   0  0  0  0  0  0  0  0  0  0  0  0
  149.1727  137.6089  156.3652 H   0  0  0  0  0  0  0  0  0  0  0  0
  148.0900  136.5708  155.4767 H   0  0  0  0  0  0  0  0  0  0  0  0
  151.0388  135.8555  155.5487 H   0  0  0  0  0  0  0  0  0  0  0  0
  150.1136  135.6368  157.0136 H   0  0  0  0  0  0  0  0  0  0  0  0
  150.3208  133.7198  155.0902 H   0  0  0  0  0  0  0  0  0  0  0  0
  148.9384  133.8297  156.1548 H   0  0  0  0  0  0  0  0  0  0  0  0
  148.8405  135.3709  153.6368 H   0  0  0  0  0  0  0  0  0  0  0  0
  147.4206  135.0374  152.3142 H   0  0  0  0  0  0  0  0  0  0  0  0
  146.6534  131.6384  152.5649 H   0  0  0  0  0  0  0  0  0  0  0  0
  144.7899  130.4643  151.3953 H   0  0  0  0  0  0  0  0  0  0  0  0
  143.0471  131.8307  150.2106 H   0  0  0  0  0  0  0  0  0  0  0  0
  143.2618  134.3304  150.2564 H   0  0  0  0  0  0  0  0  0  0  0  0
  149.1042  139.1314  152.9969 H   0  0  0  0  0  0  0  0  0  0  0  0
  147.8878  138.8698  154.2139 H   0  0  0  0  0  0  0  0  0  0  0  0
  149.4400  139.7955  155.9745 H   0  0  0  0  0  0  0  0  0  0  0  0
  148.0230  141.4445  154.7537 H   0  0  0  0  0  0  0  0  0  0  0  0
  149.2852  141.6351  153.5373 H   0  0  0  0  0  0  0  0  0  0  0  0
  149.5783  142.1390  155.1996 H   0  0  0  0  0  0  0  0  0  0  0  0
  149.2466  136.9525  153.5506 H   0  0  0  0  0  0  0  0  0  0  0  0
  1  2  1  0  0  0  0
  1 22  1  0  0  0  0
  1 23  1  0  0  0  0
  1 24  1  0  0  0  0
  2 21  1  0  0  0  0
  2  3  1  0  0  0  0
  2 25  1  0  0  0  0
  3  4  1  0  0  0  0
  3 26  1  0  0  0  0
  3 27  1  0  0  0  0
  4  5  1  0  0  0  0
  4 18  1  0  0  0  0
  4 46  1  0  0  0  0
  5  6  1  0  0  0  0
  5 28  1  0  0  0  0
  5 29  1  0  0  0  0
  6  7  1  0  0  0  0
  6 30  1  0  0  0  0
  6 31  1  0  0  0  0
  7  8  1  0  0  0  0
  7 32  1  0  0  0  0
  7 33  1  0  0  0  0
  8  9  1  0  0  0  0
  8 34  1  0  0  0  0
  9 10  2  0  0  0  0
  9 11  1  0  0  0  0
 11 12  1  0  0  0  0
 11 35  1  0  0  0  0
 12 17  1  0  0  0  0
 12 13  2  0  0  0  0
 13 14  1  0  0  0  0
 13 36  1  0  0  0  0
 14 15  2  0  0  0  0
 14 37  1  0  0  0  0
 15 16  1  0  0  0  0
 15 38  1  0  0  0  0
 16 17  2  0  0  0  0
 16 39  1  0  0  0  0
 18 19  1  0  0  0  0
 18 40  1  0  0  0  0
 18 41  1  0  0  0  0
 19 20  1  0  0  0  0
 19 21  1  0  0  0  0
 19 42  1  0  0  0  0
 20 43  1  0  0  0  0
 20 44  1  0  0  0  0
 20 45  1  0  0  0  0
M  CHG  1   4   1
M  END
> <s_m_source_file>
AV-unprocessed.smi

> <i_m_source_file_index>
1692

> <i_lp_mmshare_version>
43012

> <i_f3d_flags>
0

> <s_epik_input>
W0NIM11bQ0BASF0xW0NIMl1OKFtDSDJdW0NASF0oTzEpW0NIM10pW0NIMl1bQ0gyXVtDSDJdW05IXUMoPU8pW05IXWMyW2NIXVtjSF1bY0hdW2NIXW4y

> <s_epik_cmdline>
J2VwaWtfcHl0aG9uJywgJy1waCcsICc3LjAnLCAnLXRuJywgJzgnLCAnLW1hJywgJzIwMCcsICctbWV0YWxfYmluZGluZycsICctaW1hZScsICc8aW5maWxlLm1hZT4nLCAnLW9tYWUnLCAnPG91dGZpbGUubWFlPic=

> <r_epik_Ionization_Penalty>
0.270538

> <r_epik_Ionization_Penalty_Charging>
0.270496

> <r_epik_Ionization_Penalty_Neutral>
4.22978e-05

> <r_epik_State_Penalty>
0.262618

> <r_epik_Charging_Adjusted_Penalty>
0.533114

> <i_epik_Tot_Q>
1

> <i_epik_Tot_abs_Q>
1

> <r_epik_Metal_State_Penalty>
0.262618

> <b_epik_Metal_Only>
0

> <s_lp_Force_Field>
OPLS_2005

> <r_lp_Energy>
18.3

> <b_lp_Chiralities_Consistent>
1

> <s_lp_Variant>
AV-unprocessed.smi:1692-3

> <Gold.Version>
5.8.1

> <Gold.Id.Protein>
6NUR|6NUR_protein|mol2

> <Gold.PLP.Fitness>
54.3847

> <Gold.PLP.PLP>
-39.4622

> <Gold.PLP.part.hbond>
-4.0490

> <Gold.PLP.part.metal>
0.0000

> <Gold.PLP.part.buried>
-2.1372

> <Gold.PLP.part.nonpolar>
-33.4976

> <Gold.PLP.part.repulsive>
0.3136

> <Gold.PLP.ligand.clash>
0.9858

> <Gold.PLP.ligand.torsion>
1.0614

> <Gold.PLP.Chemscore.Hbond>
4.9920

> <Gold.PLP.Chemscore.CHOScore>
1.0000

> <Gold.PLP.Chemscore.Metal>
0.0000

> <Gold.Chemscore.Hbonds>
donor molecule, donor type, donor heavy atom, donor atom, acceptor molecule, acceptor atom, score
      L1  H     4    46       P1  7948  2.00
      L1  H     8    34       P1  7948  0.99
      L1  H    11    35       P1  7948  1.00
      P1  H  7989  7998       L1    21  1.00
      L1  C    16    39       P1 10186  1.00

> <Gold.PLP.Chemscore.Internal.Correction>
0.0551

> <Gold.Rescore>
     Score         DG    S(hbond)    S(metal)    S(lipo)     H(rot)  DE(clash)    DE(int)     intcor
     20.53     -23.08       3.51        0.00      89.17       1.78       0.12       2.42       ----

> <Gold.Chemscore.Fitness>
20.5305

> <Gold.Chemscore.DG>
-23.0768

> <Gold.Chemscore.ZeroCoef>
-5.4800

> <Gold.Chemscore.Hbond>
3.5102

> <Gold.Chemscore.Metal>
0.0000

> <Gold.Chemscore.Lipo>
89.1698

> <Gold.Chemscore.Internal_Hbond>
0.0000

> <Gold.Chemscore.DEClash>
0.1236

> <Gold.Chemscore.DEInternal>
2.4227

> <Gold.Chemscore.Rot>
1.7814

> <Gold.Chemscore.Internal.Correction>
   9.000000E+99

> <Gold.Chemscore.Hbonds>
donor molecule, donor type, donor heavy atom, donor atom, acceptor molecule, acceptor atom, score
      L1  H     4    46       P1  7948  0.98
      L1  H     8    34       P1  7948  0.77
      L1  H    11    35       P1  7948  0.93
      P1  H  7989  7998       L1    21  0.93

> <Gold.Chemscore.Hbond.Weighted>
-11.7242

> <Gold.Chemscore.Metal.Weighted>
-0.0000

> <Gold.Chemscore.Lipo.Weighted>
-10.4329

> <Gold.Chemscore.Internal_Hbond.Weighted>
0.0000

> <Gold.Chemscore.DEClash.Weighted>
0.1236

> <Gold.Chemscore.DEInternal.Weighted>
2.4227

> <Gold.Chemscore.Rot.Weighted>
4.5603

> <Gold.Chemscore.Internal.Correction.Weighted>
   9.000000E+99

> <Gold.Protein.RotatedTorsions>
[ 6907 6896 6895 6894 ] final   20.91 input  -60.11 | X-H torsion
[ 7974 7965 7964 7962 ] final  -60.55 input  175.53 | X-H torsion
[ 8008 7997 7996 7995 ] final   18.70 input   59.86 | X-H torsion
[ 10167 10162 10161 10158 ] final -156.16 input  -65.29 | X-H torsion
[ 10718 10713 10712 10709 ] final -146.14 input   66.30 | X-H torsion
[ 10763 10752 10751 10750 ] final -127.73 input  -60.55 | X-H torsion
[ 11005 11000 10999 10996 ] final -140.15 input  -57.11 | X-H torsion

> <Gold.Protein.ActiveResidues>
 VAL166  LYS551  ARG553  GLY616  TRP617  ASP618  TYR619  PRO620  LYS621  CYS622 
 ASP623  PHE694  ASN695  SER759  ASP760  ASP761  ALA762  ILE779  LEU786  VAL792 
 PHE793  MET794  SER795  GLU796  ALA797  LYS798  CYS799  TRP800  GLU811  SER814 

> <Gold.Protein.RotatedAtoms>
  151.9036  135.0368  160.0508 H   0  0  0  0  0  0  0  0  0  0  0  0  # atno 6907 bound_to 6896
  152.2337  133.5074  159.5239 H   0  0  0  0  0  0  0  0  0  0  0  0  # atno 6908 bound_to 6896
  150.7033  134.1098  159.4038 H   0  0  0  0  0  0  0  0  0  0  0  0  # atno 6909 bound_to 6896
  145.8142  140.8580  143.0166 H   0  0  0  0  0  0  0  0  0  0  0  0  # atno 7974 bound_to 7965
  154.9099  140.3012  155.5272 H   0  0  0  0  0  0  0  0  0  0  0  0  # atno 8008 bound_to 7997
  156.3015  140.2391  156.4072 H   0  0  0  0  0  0  0  0  0  0  0  0  # atno 8009 bound_to 7997
  154.8436  140.0412  157.1546 H   0  0  0  0  0  0  0  0  0  0  0  0  # atno 8010 bound_to 7997
  139.6873  143.9480  152.2367 H   0  0  0  0  0  0  0  0  0  0  0  0  # atno 10167 bound_to 10162
  156.3912  130.7887  151.2089 H   0  0  0  0  0  0  0  0  0  0  0  0  # atno 10718 bound_to 10713
  154.8754  135.3952  154.3641 H   0  0  0  0  0  0  0  0  0  0  0  0  # atno 10763 bound_to 10752
  153.4410  135.7027  153.6174 H   0  0  0  0  0  0  0  0  0  0  0  0  # atno 10764 bound_to 10752
  153.4755  135.3781  155.2383 H   0  0  0  0  0  0  0  0  0  0  0  0  # atno 10765 bound_to 10752
  140.8450  134.2355  157.4790 H   0  0  0  0  0  0  0  0  0  0  0  0  # atno 11005 bound_to 11000
  144.6754  140.0439  143.7480 LP  0  0  0  0  0  0  0  0  0  0  0  0  # atno 17320 bound_to 7965
  145.9745  139.2894  143.1079 LP  0  0  0  0  0  0  0  0  0  0  0  0  # atno 17321 bound_to 7965
  139.9286  144.6755  150.8386 LP  0  0  0  0  0  0  0  0  0  0  0  0  # atno 17342 bound_to 10162
  140.7671  143.3324  151.2381 LP  0  0  0  0  0  0  0  0  0  0  0  0  # atno 17343 bound_to 10162
  157.7499  131.0315  150.4184 LP  0  0  0  0  0  0  0  0  0  0  0  0  # atno 17370 bound_to 10713
  156.4445  130.3998  149.6675 LP  0  0  0  0  0  0  0  0  0  0  0  0  # atno 17371 bound_to 10713
  139.8703  134.9655  156.4530 LP  0  0  0  0  0  0  0  0  0  0  0  0  # atno 17394 bound_to 11000
  140.8853  133.7888  155.9511 LP  0  0  0  0  0  0  0  0  0  0  0  0  # atno 17395 bound_to 11000

$$$$
