AV-unprocessed.smi:1240|AV-procd|sdf|5198|dock8
  -GOLD-   22720 4283D 1   1.00000     0.00000
 Structure written by MMmdl.
 47 49  0  0  0  0  0  0  0  0  1 V2000
  144.5665  136.5012  152.3001 O   0  0  0  0  0  0  0  0  0  0  0  0
  145.7440  136.4029  151.9551 C   0  0  0  0  0  0  0  0  0  0  0  0
  146.6722  137.3303  152.2296 N   0  0  0  0  0  0  0  0  0  0  0  0
  146.4357  138.5495  152.9967 C   0  0  0  0  0  0  0  0  0  0  0  0
  147.3195  138.6376  154.2742 C   0  0  1  0  0  0  0  0  0  0  0  0
  148.5551  139.5691  154.0842 C   0  0  1  0  0  0  0  0  0  0  0  0
  148.3354  141.0823  154.1573 C   0  0  0  0  0  0  0  0  0  0  0  0
  149.5164  141.5877  154.9890 C   0  0  0  0  0  0  0  0  0  0  0  0
  150.4707  140.5385  154.9303 O   0  0  0  0  0  0  0  0  0  0  0  0
  149.7458  139.3231  155.0179 C   0  0  0  0  0  0  0  0  0  0  0  0
  146.5749  138.8394  155.5325 N   0  0  0  0  0  0  0  0  0  0  0  0
  147.3448  138.6461  156.7594 C   0  0  0  0  0  0  0  0  0  0  0  0
  146.4642  138.7865  158.0139 C   0  0  0  0  0  0  0  0  0  0  0  0
  145.7983  140.0447  158.0031 O   0  0  0  0  0  0  0  0  0  0  0  0
  144.9895  140.2261  156.8457 C   0  0  0  0  0  0  0  0  0  0  0  0
  145.8679  140.1169  155.5889 C   0  0  0  0  0  0  0  0  0  0  0  0
  146.2783  135.3643  151.2898 N   0  0  0  0  0  0  0  0  0  0  0  0
  145.6438  134.1682  150.8584 C   0  0  0  0  0  0  0  0  0  0  0  0
  146.4653  133.0677  150.5377 C   0  0  0  0  0  0  0  0  0  0  0  0
  145.8600  131.8748  150.0949 C   0  0  0  0  0  0  0  0  0  0  0  0
  144.5260  131.7298  149.9500 N   0  0  0  0  0  0  0  0  0  0  0  0
  143.7424  132.7892  150.2424 C   0  0  0  0  0  0  0  0  0  0  0  0
  144.2451  134.0260  150.6934 C   0  0  0  0  0  0  0  0  0  0  0  0
  147.6161  137.1711  151.9090 H   0  0  0  0  0  0  0  0  0  0  0  0
  146.6266  139.3943  152.3357 H   0  0  0  0  0  0  0  0  0  0  0  0
  145.3752  138.5963  153.2440 H   0  0  0  0  0  0  0  0  0  0  0  0
  147.7704  137.6494  154.3760 H   0  0  0  0  0  0  0  0  0  0  0  0
  148.9384  139.3801  153.0802 H   0  0  0  0  0  0  0  0  0  0  0  0
  148.3628  141.5088  153.1539 H   0  0  0  0  0  0  0  0  0  0  0  0
  147.3863  141.3765  154.6020 H   0  0  0  0  0  0  0  0  0  0  0  0
  149.9268  142.5244  154.6112 H   0  0  0  0  0  0  0  0  0  0  0  0
  149.2173  141.7409  156.0269 H   0  0  0  0  0  0  0  0  0  0  0  0
  149.4432  139.1709  156.0546 H   0  0  0  0  0  0  0  0  0  0  0  0
  150.3518  138.4708  154.7098 H   0  0  0  0  0  0  0  0  0  0  0  0
  147.7896  137.6540  156.7755 H   0  0  0  0  0  0  0  0  0  0  0  0
  148.1606  139.3674  156.8102 H   0  0  0  0  0  0  0  0  0  0  0  0
  145.7290  137.9816  158.0582 H   0  0  0  0  0  0  0  0  0  0  0  0
  147.0735  138.7125  158.9145 H   0  0  0  0  0  0  0  0  0  0  0  0
  144.1915  139.4823  156.8275 H   0  0  0  0  0  0  0  0  0  0  0  0
  144.5141  141.2059  156.8924 H   0  0  0  0  0  0  0  0  0  0  0  0
  146.5780  140.9433  155.5927 H   0  0  0  0  0  0  0  0  0  0  0  0
  145.2456  140.2390  154.7015 H   0  0  0  0  0  0  0  0  0  0  0  0
  147.2766  135.3988  151.1452 H   0  0  0  0  0  0  0  0  0  0  0  0
  147.5395  133.1290  150.6340 H   0  0  0  0  0  0  0  0  0  0  0  0
  146.4646  131.0143  149.8491 H   0  0  0  0  0  0  0  0  0  0  0  0
  142.6800  132.6497  150.1067 H   0  0  0  0  0  0  0  0  0  0  0  0
  143.5565  134.8332  150.8896 H   0  0  0  0  0  0  0  0  0  0  0  0
  1  2  2  0  0  0  0
  2  3  1  0  0  0  0
  2 17  1  0  0  0  0
  3  4  1  0  0  0  0
  3 24  1  0  0  0  0
  4  5  1  0  0  0  0
  4 25  1  0  0  0  0
  4 26  1  0  0  0  0
  5  6  1  0  0  0  0
  5 11  1  0  0  0  0
  5 27  1  0  0  0  0
  6 10  1  0  0  0  0
  6  7  1  0  0  0  0
  6 28  1  0  0  0  0
  7  8  1  0  0  0  0
  7 29  1  0  0  0  0
  7 30  1  0  0  0  0
  8  9  1  0  0  0  0
  8 31  1  0  0  0  0
  8 32  1  0  0  0  0
  9 10  1  0  0  0  0
 10 33  1  0  0  0  0
 10 34  1  0  0  0  0
 11 16  1  0  0  0  0
 11 12  1  0  0  0  0
 12 13  1  0  0  0  0
 12 35  1  0  0  0  0
 12 36  1  0  0  0  0
 13 14  1  0  0  0  0
 13 37  1  0  0  0  0
 13 38  1  0  0  0  0
 14 15  1  0  0  0  0
 15 16  1  0  0  0  0
 15 39  1  0  0  0  0
 15 40  1  0  0  0  0
 16 41  1  0  0  0  0
 16 42  1  0  0  0  0
 17 18  1  0  0  0  0
 17 43  1  0  0  0  0
 18 23  1  0  0  0  0
 18 19  2  0  0  0  0
 19 20  1  0  0  0  0
 19 44  1  0  0  0  0
 20 21  2  0  0  0  0
 20 45  1  0  0  0  0
 21 22  1  0  0  0  0
 22 23  2  0  0  0  0
 22 46  1  0  0  0  0
 23 47  1  0  0  0  0
M  END
> <s_m_source_file>
AV-unprocessed.smi

> <i_m_source_file_index>
1240

> <i_lp_mmshare_version>
43012

> <i_f3d_flags>
0

> <s_epik_input>
W2NIXTFbY0hdbltjSF1bY0hdYzFbTkhdQyg9TylbTkhdW0NIMl1bQ0BIXShbQ0BASF0yW0NIMl1bQ0gyXU9bQ0gyXTIpTjNbQ0gyXVtDSDJdT1tDSDJdW0NIMl0z

> <s_epik_cmdline>
J2VwaWtfcHl0aG9uJywgJy1waCcsICc3LjAnLCAnLXRuJywgJzgnLCAnLW1hJywgJzIwMCcsICctbWV0YWxfYmluZGluZycsICctaW1hZScsICc8aW5maWxlLm1hZT4nLCAnLW9tYWUnLCAnPG91dGZpbGUubWFlPic=

> <r_epik_Ionization_Penalty>
0.238664

> <r_epik_Ionization_Penalty_Charging>
0

> <r_epik_Ionization_Penalty_Neutral>
0.238664

> <r_epik_State_Penalty>
0.217087

> <r_epik_Charging_Adjusted_Penalty>
0.217087

> <i_epik_Tot_Q>
0

> <i_epik_Tot_abs_Q>
0

> <r_epik_Metal_State_Penalty>
0.199194

> <b_epik_Metal_Only>
0

> <s_lp_Force_Field>
OPLS_2005

> <r_lp_Energy>
57.1619

> <b_lp_Chiralities_Consistent>
1

> <s_lp_Variant>
AV-unprocessed.smi:1240-4

> <Gold.Version>
5.8.1

> <Gold.Id.Protein>
6NUR|6NUR_protein|mol2

> <Gold.PLP.Fitness>
45.7194

> <Gold.PLP.PLP>
-33.0333

> <Gold.PLP.part.hbond>
-3.8234

> <Gold.PLP.part.metal>
0.0000

> <Gold.PLP.part.buried>
-3.5406

> <Gold.PLP.part.nonpolar>
-26.7001

> <Gold.PLP.part.repulsive>
0.5784

> <Gold.PLP.ligand.clash>
0.0000

> <Gold.PLP.ligand.torsion>
1.0194

> <Gold.PLP.Chemscore.Hbond>
2.9386

> <Gold.PLP.Chemscore.CHOScore>
1.8553

> <Gold.PLP.Chemscore.Metal>
0.0000

> <Gold.Chemscore.Hbonds>
donor molecule, donor type, donor heavy atom, donor atom, acceptor molecule, acceptor atom, score
      L1  H     3    24       P1  7948  1.00
      L1  H    17    43       P1  7948  0.88
      P1  H  7989  7998       L1     9  0.99
      P1  H 10785 10796       L1    21  0.06
      L1  C    20    45       P1 10747  0.89
      L1  C    22    46       P1 10186  0.94

> <Gold.PLP.Chemscore.Internal.Correction>
0.3434

> <Gold.Rescore>
     Score         DG    S(hbond)    S(metal)    S(lipo)     H(rot)  DE(clash)    DE(int)     intcor
     17.00     -19.77       2.74        0.00      80.05       1.65       0.23       2.54       ----

> <Gold.Chemscore.Fitness>
16.9979

> <Gold.Chemscore.DG>
-19.7746

> <Gold.Chemscore.ZeroCoef>
-5.4800

> <Gold.Chemscore.Hbond>
2.7409

> <Gold.Chemscore.Metal>
0.0000

> <Gold.Chemscore.Lipo>
80.0529

> <Gold.Chemscore.Internal_Hbond>
0.0000

> <Gold.Chemscore.DEClash>
0.2337

> <Gold.Chemscore.DEInternal>
2.5430

> <Gold.Chemscore.Rot>
1.6508

> <Gold.Chemscore.Internal.Correction>
   9.000000E+99

> <Gold.Chemscore.Hbonds>
donor molecule, donor type, donor heavy atom, donor atom, acceptor molecule, acceptor atom, score
      L1  H     3    24       P1  7948  0.94
      L1  H    17    43       P1  7948  0.64
      P1  H  7989  7998       L1     9  0.60
      P1  H 10785 10796       L1    21  0.05

> <Gold.Chemscore.Hbond.Weighted>
-9.1546

> <Gold.Chemscore.Metal.Weighted>
-0.0000

> <Gold.Chemscore.Lipo.Weighted>
-9.3662

> <Gold.Chemscore.Internal_Hbond.Weighted>
0.0000

> <Gold.Chemscore.DEClash.Weighted>
0.2337

> <Gold.Chemscore.DEInternal.Weighted>
2.5430

> <Gold.Chemscore.Rot.Weighted>
4.2262

> <Gold.Chemscore.Internal.Correction.Weighted>
   9.000000E+99

> <Gold.Protein.RotatedTorsions>
[ 6907 6896 6895 6894 ] final   46.40 input  -60.11 | X-H torsion
[ 7974 7965 7964 7962 ] final  177.34 input  175.53 | X-H torsion
[ 8008 7997 7996 7995 ] final  -49.05 input   59.86 | X-H torsion
[ 10167 10162 10161 10158 ] final   39.37 input  -65.29 | X-H torsion
[ 10718 10713 10712 10709 ] final -135.82 input   66.30 | X-H torsion
[ 10763 10752 10751 10750 ] final -169.97 input  -60.55 | X-H torsion
[ 11005 11000 10999 10996 ] final  177.82 input  -57.11 | X-H torsion

> <Gold.Protein.ActiveResidues>
 VAL166  LYS551  ARG553  GLY616  TRP617  ASP618  TYR619  PRO620  LYS621  CYS622 
 ASP623  PHE694  ASN695  SER759  ASP760  ASP761  ALA762  ILE779  LEU786  VAL792 
 PHE793  MET794  SER795  GLU796  ALA797  LYS798  CYS799  TRP800  GLU811  SER814 

> <Gold.Protein.RotatedAtoms>
  152.2559  134.8084  160.0438 H   0  0  0  0  0  0  0  0  0  0  0  0  # atno 6907 bound_to 6896
  151.8748  133.3478  159.3755 H   0  0  0  0  0  0  0  0  0  0  0  0  # atno 6908 bound_to 6896
  150.7100  134.5004  159.5603 H   0  0  0  0  0  0  0  0  0  0  0  0  # atno 6909 bound_to 6896
  144.7170  140.0233  143.6440 H   0  0  0  0  0  0  0  0  0  0  0  0  # atno 7974 bound_to 7965
  154.4038  140.1306  156.4438 H   0  0  0  0  0  0  0  0  0  0  0  0  # atno 8008 bound_to 7997
  155.7432  140.3489  155.5094 H   0  0  0  0  0  0  0  0  0  0  0  0  # atno 8009 bound_to 7997
  155.9019  140.1021  157.1334 H   0  0  0  0  0  0  0  0  0  0  0  0  # atno 8010 bound_to 7997
  140.3846  144.1934  150.6130 H   0  0  0  0  0  0  0  0  0  0  0  0  # atno 10167 bound_to 10162
  156.2703  130.7261  151.1226 H   0  0  0  0  0  0  0  0  0  0  0  0  # atno 10718 bound_to 10713
  154.6465  135.2905  155.0039 H   0  0  0  0  0  0  0  0  0  0  0  0  # atno 10763 bound_to 10752
  154.1147  135.6557  153.4895 H   0  0  0  0  0  0  0  0  0  0  0  0  # atno 10764 bound_to 10752
  153.0354  135.5273  154.7354 H   0  0  0  0  0  0  0  0  0  0  0  0  # atno 10765 bound_to 10752
  140.3883  134.6885  157.4492 H   0  0  0  0  0  0  0  0  0  0  0  0  # atno 11005 bound_to 11000
  146.0163  139.3212  143.0840 LP  0  0  0  0  0  0  0  0  0  0  0  0  # atno 17320 bound_to 7965
  145.8622  140.9469  143.0694 LP  0  0  0  0  0  0  0  0  0  0  0  0  # atno 17321 bound_to 7965
  140.4902  143.2350  151.8829 LP  0  0  0  0  0  0  0  0  0  0  0  0  # atno 17342 bound_to 10162
  139.4793  144.5174  151.8849 LP  0  0  0  0  0  0  0  0  0  0  0  0  # atno 17343 bound_to 10162
  157.7281  131.0634  150.5833 LP  0  0  0  0  0  0  0  0  0  0  0  0  # atno 17370 bound_to 10713
  156.5929  130.4334  149.5929 LP  0  0  0  0  0  0  0  0  0  0  0  0  # atno 17371 bound_to 10713
  140.0426  134.6245  155.8961 LP  0  0  0  0  0  0  0  0  0  0  0  0  # atno 17394 bound_to 11000
  141.1900  133.6567  156.5391 LP  0  0  0  0  0  0  0  0  0  0  0  0  # atno 17395 bound_to 11000

$$$$
