AV-unprocessed.smi:2699|AV-procd|sdf|10425|dock7
  -GOLD-   2272014463D 1   1.00000     0.00000
 Structure written by MMmdl.
 43 45  0  0  0  0  0  0  0  0  1 V2000
  141.9532  135.1287  153.2441 C   0  0  0  0  0  0  0  0  0  0  0  0
  143.2176  134.9689  152.4093 C   0  0  0  0  0  0  0  0  0  0  0  0
  143.5027  133.7641  151.8629 C   0  0  0  0  0  0  0  0  0  0  0  0
  144.6970  133.5792  151.0203 C   0  0  0  0  0  0  0  0  0  0  0  0
  144.9970  132.4866  150.5434 O   0  0  0  0  0  0  0  0  0  0  0  0
  145.5041  134.7834  150.7809 C   0  0  0  0  0  0  0  0  0  0  0  0
  145.1446  135.9401  151.3696 C   0  0  0  0  0  0  0  0  0  0  0  0
  145.8343  137.0712  151.1578 O   0  0  0  0  0  0  0  0  0  0  0  0
  144.0389  136.1044  152.2280 N   0  0  0  0  0  0  0  0  0  0  0  0
  143.7698  137.3827  152.9124 C   0  0  0  0  0  0  0  0  0  0  0  0
  144.8388  137.7527  153.9586 C   0  0  0  0  0  0  0  0  0  0  0  0
  145.3998  136.8765  154.6149 O   0  0  0  0  0  0  0  0  0  0  0  0
  145.1440  139.0467  154.1405 N   0  0  0  0  0  0  0  0  0  0  0  0
  146.1232  139.5869  155.0791 C   0  0  0  0  0  0  0  0  0  0  0  0
  146.5352  141.0267  154.7173 C   0  0  0  0  0  0  0  0  0  0  0  0
  145.3257  141.9288  154.9847 C   0  0  0  0  0  0  0  0  0  0  0  0
  145.3935  143.4205  154.7745 C   0  0  0  0  0  0  0  0  0  0  0  0
  145.1918  142.8576  156.1690 C   0  0  0  0  0  0  0  0  0  0  0  0
  147.8726  141.5155  155.3160 C   0  0  0  0  0  0  0  0  0  0  0  0
  148.5924  141.0382  154.0563 C   0  0  0  0  0  0  0  0  0  0  0  0
  147.2444  141.1438  153.3451 C   0  0  0  0  0  0  0  0  0  0  0  0
  141.2578  134.3103  153.0546 H   0  0  0  0  0  0  0  0  0  0  0  0
  141.4221  136.0512  153.0109 H   0  0  0  0  0  0  0  0  0  0  0  0
  142.1956  135.1184  154.3069 H   0  0  0  0  0  0  0  0  0  0  0  0
  142.8550  132.9134  152.0180 H   0  0  0  0  0  0  0  0  0  0  0  0
  146.3624  134.7197  150.1276 H   0  0  0  0  0  0  0  0  0  0  0  0
  143.6741  138.1946  152.1926 H   0  0  0  0  0  0  0  0  0  0  0  0
  142.7938  137.3503  153.3972 H   0  0  0  0  0  0  0  0  0  0  0  0
  144.6461  139.7216  153.5783 H   0  0  0  0  0  0  0  0  0  0  0  0
  145.6918  139.5458  156.0800 H   0  0  0  0  0  0  0  0  0  0  0  0
  147.0065  138.9471  155.1010 H   0  0  0  0  0  0  0  0  0  0  0  0
  144.3836  141.4609  154.7052 H   0  0  0  0  0  0  0  0  0  0  0  0
  146.3629  143.8590  154.5465 H   0  0  0  0  0  0  0  0  0  0  0  0
  144.5420  143.8966  154.2929 H   0  0  0  0  0  0  0  0  0  0  0  0
  144.2023  142.9632  156.6087 H   0  0  0  0  0  0  0  0  0  0  0  0
  146.0145  142.9438  156.8735 H   0  0  0  0  0  0  0  0  0  0  0  0
  147.9155  142.6001  155.4311 H   0  0  0  0  0  0  0  0  0  0  0  0
  148.1843  141.0117  156.2314 H   0  0  0  0  0  0  0  0  0  0  0  0
  149.3601  141.7174  153.6843 H   0  0  0  0  0  0  0  0  0  0  0  0
  148.9575  140.0132  154.1343 H   0  0  0  0  0  0  0  0  0  0  0  0
  147.0381  140.3258  152.6540 H   0  0  0  0  0  0  0  0  0  0  0  0
  147.1288  142.1057  152.8479 H   0  0  0  0  0  0  0  0  0  0  0  0
  145.2078  137.7590  150.9933 H   0  0  0  0  0  0  0  0  0  0  0  0
  1  2  1  0  0  0  0
  1 22  1  0  0  0  0
  1 23  1  0  0  0  0
  1 24  1  0  0  0  0
  2  9  1  0  0  0  0
  2  3  2  0  0  0  0
  3  4  1  0  0  0  0
  3 25  1  0  0  0  0
  4  5  2  0  0  0  0
  4  6  1  0  0  0  0
  6  7  2  0  0  0  0
  6 26  1  0  0  0  0
  7  8  1  0  0  0  0
  7  9  1  0  0  0  0
  8 43  1  0  0  0  0
  9 10  1  0  0  0  0
 10 11  1  0  0  0  0
 10 27  1  0  0  0  0
 10 28  1  0  0  0  0
 11 12  2  0  0  0  0
 11 13  1  0  0  0  0
 13 14  1  0  0  0  0
 13 29  1  0  0  0  0
 14 15  1  0  0  0  0
 14 30  1  0  0  0  0
 14 31  1  0  0  0  0
 15 21  1  0  0  0  0
 15 16  1  0  0  0  0
 15 19  1  0  0  0  0
 16 18  1  0  0  0  0
 16 17  1  0  0  0  0
 16 32  1  0  0  0  0
 17 18  1  0  0  0  0
 17 33  1  0  0  0  0
 17 34  1  0  0  0  0
 18 35  1  0  0  0  0
 18 36  1  0  0  0  0
 19 20  1  0  0  0  0
 19 37  1  0  0  0  0
 19 38  1  0  0  0  0
 20 21  1  0  0  0  0
 20 39  1  0  0  0  0
 20 40  1  0  0  0  0
 21 41  1  0  0  0  0
 21 42  1  0  0  0  0
M  END
> <s_m_source_file>
AV-unprocessed.smi

> <i_m_source_file_index>
2699

> <i_lp_mmshare_version>
43012

> <i_f3d_flags>
0

> <s_epik_input>
W0NIM11jMVtjSF1jKFtPSF0pW2NIXWMoPU8pbjFbQ0gyXUMoPU8pW05IXVtDSDJdQzIoW0NIXTNbQ0gyXVtDSDJdMylbQ0gyXVtDSDJdW0NIMl0y

> <s_epik_cmdline>
J2VwaWtfcHl0aG9uJywgJy1waCcsICc3LjAnLCAnLXRuJywgJzgnLCAnLW1hJywgJzIwMCcsICctbWV0YWxfYmluZGluZycsICctaW1hZScsICc8aW5maWxlLm1hZT4nLCAnLW9tYWUnLCAnPG91dGZpbGUubWFlPic=

> <r_epik_Ionization_Penalty>
1.8336e-08

> <r_epik_Ionization_Penalty_Charging>
0

> <r_epik_Ionization_Penalty_Neutral>
1.8336e-08

> <r_epik_State_Penalty>
2.39433

> <r_epik_Charging_Adjusted_Penalty>
2.39433

> <i_epik_Tot_Q>
0

> <i_epik_Tot_abs_Q>
0

> <r_epik_Metal_State_Penalty>
2.39433

> <b_epik_Metal_Only>
0

> <s_lp_Force_Field>
OPLS_2005

> <r_lp_Energy>
30.2795

> <b_lp_Chiralities_Consistent>
1

> <s_lp_Variant>
AV-unprocessed.smi:2699-3

> <Gold.Version>
5.8.1

> <Gold.Id.Protein>
6NUR|6NUR_protein|mol2

> <Gold.PLP.Fitness>
41.1700

> <Gold.PLP.PLP>
-36.7267

> <Gold.PLP.part.hbond>
-2.2236

> <Gold.PLP.part.metal>
0.0000

> <Gold.PLP.part.buried>
-5.2613

> <Gold.PLP.part.nonpolar>
-29.2905

> <Gold.PLP.part.repulsive>
0.1692

> <Gold.PLP.ligand.clash>
0.0000

> <Gold.PLP.ligand.torsion>
1.6128

> <Gold.PLP.Chemscore.Hbond>
1.9920

> <Gold.PLP.Chemscore.CHOScore>
0.0000

> <Gold.PLP.Chemscore.Metal>
0.0000

> <Gold.Chemscore.Hbonds>
donor molecule, donor type, donor heavy atom, donor atom, acceptor molecule, acceptor atom, score
      L1  H     8    43       P1 10171  0.99
      L1  H    13    29       P1 10175  1.00

> <Gold.PLP.Chemscore.Internal.Correction>
1.6929

> <Gold.Rescore>
     Score         DG    S(hbond)    S(metal)    S(lipo)     H(rot)  DE(clash)    DE(int)     intcor
     11.53     -13.35       1.98        0.00      63.40       2.40       0.23       1.59       ----

> <Gold.Chemscore.Fitness>
11.5321

> <Gold.Chemscore.DG>
-13.3482

> <Gold.Chemscore.ZeroCoef>
-5.4800

> <Gold.Chemscore.Hbond>
1.9782

> <Gold.Chemscore.Metal>
0.0000

> <Gold.Chemscore.Lipo>
63.3953

> <Gold.Chemscore.Internal_Hbond>
0.0000

> <Gold.Chemscore.DEClash>
0.2280

> <Gold.Chemscore.DEInternal>
1.5881

> <Gold.Chemscore.Rot>
2.4048

> <Gold.Chemscore.Internal.Correction>
   9.000000E+99

> <Gold.Chemscore.Hbonds>
donor molecule, donor type, donor heavy atom, donor atom, acceptor molecule, acceptor atom, score
      L1  H     8    43       P1 10171  0.92
      L1  H    13    29       P1 10175  1.00

> <Gold.Chemscore.Hbond.Weighted>
-6.6072

> <Gold.Chemscore.Metal.Weighted>
-0.0000

> <Gold.Chemscore.Lipo.Weighted>
-7.4173

> <Gold.Chemscore.Internal_Hbond.Weighted>
0.0000

> <Gold.Chemscore.DEClash.Weighted>
0.2280

> <Gold.Chemscore.DEInternal.Weighted>
1.5881

> <Gold.Chemscore.Rot.Weighted>
6.1563

> <Gold.Chemscore.Internal.Correction.Weighted>
   9.000000E+99

> <Gold.Protein.RotatedTorsions>
[ 6907 6896 6895 6894 ] final  151.12 input  -60.11 | X-H torsion
[ 7974 7965 7964 7962 ] final  -14.43 input  175.53 | X-H torsion
[ 8008 7997 7996 7995 ] final  137.87 input   59.86 | X-H torsion
[ 10167 10162 10161 10158 ] final -134.89 input  -65.29 | X-H torsion
[ 10718 10713 10712 10709 ] final -178.30 input   66.30 | X-H torsion
[ 10763 10752 10751 10750 ] final  108.68 input  -60.55 | X-H torsion
[ 11005 11000 10999 10996 ] final  -76.60 input  -57.11 | X-H torsion

> <Gold.Protein.ActiveResidues>
 VAL166  LYS551  ARG553  GLY616  TRP617  ASP618  TYR619  PRO620  LYS621  CYS622 
 ASP623  PHE694  ASN695  SER759  ASP760  ASP761  ALA762  ILE779  LEU786  VAL792 
 PHE793  MET794  SER795  GLU796  ALA797  LYS798  CYS799  TRP800  GLU811  SER814 

> <Gold.Protein.RotatedAtoms>
  152.1051  133.4270  159.4604 H   0  0  0  0  0  0  0  0  0  0  0  0  # atno 6907 bound_to 6896
  150.6865  134.2715  159.4599 H   0  0  0  0  0  0  0  0  0  0  0  0  # atno 6908 bound_to 6896
  152.0579  134.9612  160.0625 H   0  0  0  0  0  0  0  0  0  0  0  0  # atno 6909 bound_to 6896
  146.2074  140.3347  142.8402 H   0  0  0  0  0  0  0  0  0  0  0  0  # atno 7974 bound_to 7965
  156.3000  140.2408  156.3980 H   0  0  0  0  0  0  0  0  0  0  0  0  # atno 8008 bound_to 7997
  154.8553  140.0422  157.1650 H   0  0  0  0  0  0  0  0  0  0  0  0  # atno 8009 bound_to 7997
  154.8954  140.2969  155.5351 H   0  0  0  0  0  0  0  0  0  0  0  0  # atno 8010 bound_to 7997
  139.8834  143.6811  152.2624 H   0  0  0  0  0  0  0  0  0  0  0  0  # atno 10167 bound_to 10162
  156.8422  130.9690  151.3099 H   0  0  0  0  0  0  0  0  0  0  0  0  # atno 10718 bound_to 10713
  153.4240  135.3804  155.2129 H   0  0  0  0  0  0  0  0  0  0  0  0  # atno 10763 bound_to 10752
  154.8746  135.3824  154.4349 H   0  0  0  0  0  0  0  0  0  0  0  0  # atno 10764 bound_to 10752
  153.4873  135.7088  153.5967 H   0  0  0  0  0  0  0  0  0  0  0  0  # atno 10765 bound_to 10752
  141.1655  133.6990  156.7693 H   0  0  0  0  0  0  0  0  0  0  0  0  # atno 11005 bound_to 11000
  144.8827  140.7422  143.5976 LP  0  0  0  0  0  0  0  0  0  0  0  0  # atno 17320 bound_to 7965
  145.3268  139.1771  143.4558 LP  0  0  0  0  0  0  0  0  0  0  0  0  # atno 17321 bound_to 7965
  139.7175  144.7609  151.1009 LP  0  0  0  0  0  0  0  0  0  0  0  0  # atno 17342 bound_to 10162
  140.7740  143.5250  150.9491 LP  0  0  0  0  0  0  0  0  0  0  0  0  # atno 17343 bound_to 10162
  157.6349  130.8759  149.9341 LP  0  0  0  0  0  0  0  0  0  0  0  0  # atno 17370 bound_to 10713
  156.0874  130.3666  150.0460 LP  0  0  0  0  0  0  0  0  0  0  0  0  # atno 17371 bound_to 10713
  140.2476  134.8565  157.3635 LP  0  0  0  0  0  0  0  0  0  0  0  0  # atno 17394 bound_to 11000
  140.1734  134.4580  155.7817 LP  0  0  0  0  0  0  0  0  0  0  0  0  # atno 17395 bound_to 11000

$$$$
