AV-unprocessed.smi:546|AV-procd|sdf|2886|dock9
  -GOLD-   2262023383D 1   1.00000     0.00000
 Structure written by MMmdl.
 51 53  0  0  0  0  0  0  0  0  2 V2000
  149.7599  139.1894  154.7898 C   0  0  0  0  0  0  0  0  0  0  0  0
  150.3569  137.8195  154.4593 C   0  0  0  0  0  0  0  0  0  0  0  0
  149.4870  136.8059  154.9339 O   0  0  0  0  0  0  0  0  0  0  0  0
  149.9555  135.5006  154.6322 C   0  0  0  0  0  0  0  0  0  0  0  0
  148.8154  134.4871  154.8031 C   0  0  0  0  0  0  0  0  0  0  0  0
  149.3122  133.1131  154.8655 N   0  0  0  0  0  0  0  0  0  0  0  0
  148.9396  132.0321  154.1241 C   0  0  0  0  0  0  0  0  0  0  0  0
  147.9989  132.1065  153.0940 N   0  0  0  0  0  0  0  0  0  0  0  0
  147.4203  130.9274  152.4521 C   0  0  0  0  0  0  0  0  0  0  0  0
  145.8866  131.0303  152.3497 C   0  0  2  0  0  0  0  0  0  0  0  0
  145.2772  129.7674  151.7277 C   0  0  0  0  0  0  0  0  0  0  0  0
  145.4943  132.2957  151.5692 C   0  0  0  0  0  0  0  0  0  0  0  0
  146.1731  133.5328  152.1805 C   0  0  2  0  0  0  0  0  0  0  0  0
  145.8643  134.8020  151.3757 C   0  0  0  0  0  0  0  0  0  0  0  0
  147.6920  133.2904  152.2908 C   0  0  0  0  0  0  0  0  0  0  0  0
  149.5209  130.8862  154.4853 N   0  0  0  0  0  0  0  0  0  0  0  0
  150.3572  131.2701  155.5209 C   0  0  0  0  0  0  0  0  0  0  0  0
  150.2494  132.6020  155.7709 C   0  0  0  0  0  0  0  0  0  0  0  0
  150.9990  133.2998  156.8400 C   0  0  0  0  0  0  0  0  0  0  0  0
  150.8605  134.5065  157.0304 O   0  0  0  0  0  0  0  0  0  0  0  0
  151.8140  132.4491  157.5405 N   0  5  0  0  0  0  0  0  0  0  0  0
  151.9538  131.0958  157.3201 C   0  0  0  0  0  0  0  0  0  0  0  0
  152.7062  130.4002  158.0037 O   0  0  0  0  0  0  0  0  0  0  0  0
  151.2413  130.4924  156.3173 N   0  0  0  0  0  0  0  0  0  0  0  0
  151.3682  129.0552  156.0593 C   0  0  0  0  0  0  0  0  0  0  0  0
  150.4226  139.9916  154.4648 H   0  0  0  0  0  0  0  0  0  0  0  0
  149.6017  139.2990  155.8630 H   0  0  0  0  0  0  0  0  0  0  0  0
  148.8005  139.3285  154.2912 H   0  0  0  0  0  0  0  0  0  0  0  0
  150.4946  137.7253  153.3811 H   0  0  0  0  0  0  0  0  0  0  0  0
  151.3372  137.7194  154.9279 H   0  0  0  0  0  0  0  0  0  0  0  0
  150.3269  135.4694  153.6070 H   0  0  0  0  0  0  0  0  0  0  0  0
  150.7885  135.2403  155.2870 H   0  0  0  0  0  0  0  0  0  0  0  0
  148.2499  134.7334  155.6945 H   0  0  0  0  0  0  0  0  0  0  0  0
  148.1002  134.5711  153.9864 H   0  0  0  0  0  0  0  0  0  0  0  0
  147.8630  130.8007  151.4632 H   0  0  0  0  0  0  0  0  0  0  0  0
  147.6858  130.0390  153.0268 H   0  0  0  0  0  0  0  0  0  0  0  0
  145.4905  131.1235  153.3606 H   0  0  0  0  0  0  0  0  0  0  0  0
  145.6475  129.6054  150.7148 H   0  0  0  0  0  0  0  0  0  0  0  0
  144.1903  129.8393  151.6792 H   0  0  0  0  0  0  0  0  0  0  0  0
  145.5224  128.8838  152.3178 H   0  0  0  0  0  0  0  0  0  0  0  0
  145.7915  132.1904  150.5248 H   0  0  0  0  0  0  0  0  0  0  0  0
  144.4109  132.4204  151.5757 H   0  0  0  0  0  0  0  0  0  0  0  0
  145.7712  133.6735  153.1849 H   0  0  0  0  0  0  0  0  0  0  0  0
  146.2390  134.7251  150.3545 H   0  0  0  0  0  0  0  0  0  0  0  0
  146.3244  135.6775  151.8348 H   0  0  0  0  0  0  0  0  0  0  0  0
  144.7902  134.9823  151.3246 H   0  0  0  0  0  0  0  0  0  0  0  0
  148.1964  134.1642  152.7025 H   0  0  0  0  0  0  0  0  0  0  0  0
  148.1169  133.1535  151.2953 H   0  0  0  0  0  0  0  0  0  0  0  0
  150.9913  128.4836  156.9082 H   0  0  0  0  0  0  0  0  0  0  0  0
  152.4120  128.7819  155.8998 H   0  0  0  0  0  0  0  0  0  0  0  0
  150.8146  128.7361  155.1767 H   0  0  0  0  0  0  0  0  0  0  0  0
  1  2  1  0  0  0  0
  1 26  1  0  0  0  0
  1 27  1  0  0  0  0
  1 28  1  0  0  0  0
  2  3  1  0  0  0  0
  2 29  1  0  0  0  0
  2 30  1  0  0  0  0
  3  4  1  0  0  0  0
  4  5  1  0  0  0  0
  4 31  1  0  0  0  0
  4 32  1  0  0  0  0
  5  6  1  0  0  0  0
  5 33  1  0  0  0  0
  5 34  1  0  0  0  0
  6 18  1  0  0  0  0
  6  7  1  0  0  0  0
  7  8  1  0  0  0  0
  7 16  2  0  0  0  0
  8 15  1  0  0  0  0
  8  9  1  0  0  0  0
  9 10  1  0  0  0  0
  9 35  1  0  0  0  0
  9 36  1  0  0  0  0
 10 11  1  0  0  0  0
 10 12  1  0  0  0  0
 10 37  1  0  0  0  0
 11 38  1  0  0  0  0
 11 39  1  0  0  0  0
 11 40  1  0  0  0  0
 12 13  1  0  0  0  0
 12 41  1  0  0  0  0
 12 42  1  0  0  0  0
 13 14  1  0  0  0  0
 13 15  1  0  0  0  0
 13 43  1  0  0  0  0
 14 44  1  0  0  0  0
 14 45  1  0  0  0  0
 14 46  1  0  0  0  0
 15 47  1  0  0  0  0
 15 48  1  0  0  0  0
 16 17  1  0  0  0  0
 17 24  1  0  0  0  0
 17 18  2  0  0  0  0
 18 19  1  0  0  0  0
 19 20  2  0  0  0  0
 19 21  1  0  0  0  0
 21 22  1  0  0  0  0
 22 23  2  0  0  0  0
 22 24  1  0  0  0  0
 24 25  1  0  0  0  0
 25 49  1  0  0  0  0
 25 50  1  0  0  0  0
 25 51  1  0  0  0  0
M  CHG  1  21  -1
M  END
> <s_m_source_file>
AV-unprocessed.smi

> <i_m_source_file_index>
546

> <i_lp_mmshare_version>
43012

> <i_f3d_flags>
0

> <s_epik_input>
W0NIM11uMWMoPU8pW25IXWMoPU8pYyhjMTIpbihbQ0gyXVtDSDJdT1tDSDJdW0NIM10pYyhuMilOM1tDSDJdW0NAQEhdKFtDSDNdKVtDSDJdW0NAQEhdKFtDSDNdKVtDSDJdMw==

> <s_epik_cmdline>
J2VwaWtfcHl0aG9uJywgJy1waCcsICc3LjAnLCAnLXRuJywgJzgnLCAnLW1hJywgJzIwMCcsICctbWV0YWxfYmluZGluZycsICctaW1hZScsICc8aW5maWxlLm1hZT4nLCAnLW9tYWUnLCAnPG91dGZpbGUubWFlPic=

> <r_lp_tautomer_probability>
1

> <r_epik_Ionization_Penalty>
5.12825

> <r_epik_Ionization_Penalty_Charging>
0.0743105

> <r_epik_Ionization_Penalty_Neutral>
5.05394

> <r_epik_State_Penalty>
5.04406

> <r_epik_Charging_Adjusted_Penalty>
5.11837

> <i_epik_Tot_Q>
-1

> <i_epik_Tot_abs_Q>
1

> <r_epik_Metal_State_Penalty>
1.15122

> <b_epik_Metal_Only>
1

> <s_lp_Force_Field>
OPLS_2005

> <r_lp_Energy>
39.602

> <b_lp_Chiralities_Consistent>
1

> <s_lp_Variant>
AV-unprocessed.smi:546-4

> <Gold.Version>
5.8.1

> <Gold.Id.Protein>
6NUR|6NUR_protein|mol2

> <Gold.PLP.Fitness>
41.0013

> <Gold.PLP.PLP>
-35.3118

> <Gold.PLP.part.hbond>
-2.0000

> <Gold.PLP.part.metal>
0.0000

> <Gold.PLP.part.buried>
2.1974

> <Gold.PLP.part.nonpolar>
-36.9894

> <Gold.PLP.part.repulsive>
0.2053

> <Gold.PLP.ligand.clash>
0.0238

> <Gold.PLP.ligand.torsion>
0.3154

> <Gold.PLP.Chemscore.Hbond>
2.0000

> <Gold.PLP.Chemscore.CHOScore>
0.0000

> <Gold.PLP.Chemscore.Metal>
0.0000

> <Gold.Chemscore.Hbonds>
donor molecule, donor type, donor heavy atom, donor atom, acceptor molecule, acceptor atom, score
      P1  H  6896  6909       L1    21  1.98

> <Gold.PLP.Chemscore.Internal.Correction>
0.3441

> <Gold.Rescore>
     Score         DG    S(hbond)    S(metal)    S(lipo)     H(rot)  DE(clash)    DE(int)     intcor
      8.11     -12.56       0.57        0.00      77.66       1.52       1.68       2.78       ----

> <Gold.Chemscore.Fitness>
8.1064

> <Gold.Chemscore.DG>
-12.5647

> <Gold.Chemscore.ZeroCoef>
-5.4800

> <Gold.Chemscore.Hbond>
0.5661

> <Gold.Chemscore.Metal>
0.0000

> <Gold.Chemscore.Lipo>
77.6644

> <Gold.Chemscore.Internal_Hbond>
0.0000

> <Gold.Chemscore.DEClash>
1.6753

> <Gold.Chemscore.DEInternal>
2.7830

> <Gold.Chemscore.Rot>
1.5206

> <Gold.Chemscore.Internal.Correction>
   9.000000E+99

> <Gold.Chemscore.Hbonds>
donor molecule, donor type, donor heavy atom, donor atom, acceptor molecule, acceptor atom, score
      P1  H  6896  6909       L1    21  0.28

> <Gold.Chemscore.Hbond.Weighted>
-1.8906

> <Gold.Chemscore.Metal.Weighted>
-0.0000

> <Gold.Chemscore.Lipo.Weighted>
-9.0867

> <Gold.Chemscore.Internal_Hbond.Weighted>
0.0000

> <Gold.Chemscore.DEClash.Weighted>
1.6753

> <Gold.Chemscore.DEInternal.Weighted>
2.7830

> <Gold.Chemscore.Rot.Weighted>
3.8926

> <Gold.Chemscore.Internal.Correction.Weighted>
   9.000000E+99

> <Gold.Protein.RotatedTorsions>
[ 6907 6896 6895 6894 ] final  -70.92 input  -60.11 | X-H torsion
[ 7974 7965 7964 7962 ] final  118.53 input  175.53 | X-H torsion
[ 8008 7997 7996 7995 ] final  174.55 input   59.86 | X-H torsion
[ 10167 10162 10161 10158 ] final   -2.31 input  -65.29 | X-H torsion
[ 10718 10713 10712 10709 ] final   24.87 input   66.30 | X-H torsion
[ 10763 10752 10751 10750 ] final  -85.88 input  -60.55 | X-H torsion
[ 11005 11000 10999 10996 ] final  -81.19 input  -57.11 | X-H torsion

> <Gold.Protein.ActiveResidues>
 VAL166  LYS551  ARG553  GLY616  TRP617  ASP618  TYR619  PRO620  LYS621  CYS622 
 ASP623  PHE694  ASN695  SER759  ASP760  ASP761  ALA762  ILE779  LEU786  VAL792 
 PHE793  MET794  SER795  GLU796  ALA797  LYS798  CYS799  TRP800  GLU811  SER814 

> <Gold.Protein.RotatedAtoms>
  150.7236  134.5384  159.5734 H   0  0  0  0  0  0  0  0  0  0  0  0  # atno 6907 bound_to 6896
  152.2900  134.7729  160.0388 H   0  0  0  0  0  0  0  0  0  0  0  0  # atno 6908 bound_to 6896
  151.8345  133.3378  159.3660 H   0  0  0  0  0  0  0  0  0  0  0  0  # atno 6909 bound_to 6896
  145.1540  139.3193  143.4552 H   0  0  0  0  0  0  0  0  0  0  0  0  # atno 7974 bound_to 7965
  156.0962  140.1431  156.9528 H   0  0  0  0  0  0  0  0  0  0  0  0  # atno 8008 bound_to 7997
  154.4673  140.0922  156.7099 H   0  0  0  0  0  0  0  0  0  0  0  0  # atno 8009 bound_to 7997
  155.4837  140.3446  155.4346 H   0  0  0  0  0  0  0  0  0  0  0  0  # atno 8010 bound_to 7997
  140.6845  143.6673  150.8215 H   0  0  0  0  0  0  0  0  0  0  0  0  # atno 10167 bound_to 10162
  157.1856  130.6822  149.6130 H   0  0  0  0  0  0  0  0  0  0  0  0  # atno 10718 bound_to 10713
  154.6161  135.5469  153.7525 H   0  0  0  0  0  0  0  0  0  0  0  0  # atno 10763 bound_to 10752
  153.0217  135.6401  154.1508 H   0  0  0  0  0  0  0  0  0  0  0  0  # atno 10764 bound_to 10752
  154.1444  135.2906  155.3132 H   0  0  0  0  0  0  0  0  0  0  0  0  # atno 10765 bound_to 10752
  141.1667  133.7185  156.8385 H   0  0  0  0  0  0  0  0  0  0  0  0  # atno 11005 bound_to 11000
  146.3491  140.1625  142.8590 LP  0  0  0  0  0  0  0  0  0  0  0  0  # atno 17320 bound_to 7965
  145.0400  140.8938  143.5058 LP  0  0  0  0  0  0  0  0  0  0  0  0  # atno 17321 bound_to 7965
  140.0378  143.5377  152.2731 LP  0  0  0  0  0  0  0  0  0  0  0  0  # atno 17342 bound_to 10162
  139.6193  144.7626  151.2775 LP  0  0  0  0  0  0  0  0  0  0  0  0  # atno 17343 bound_to 10162
  155.9718  130.4632  150.6173 LP  0  0  0  0  0  0  0  0  0  0  0  0  # atno 17370 bound_to 10713
  157.3910  131.0795  151.1393 LP  0  0  0  0  0  0  0  0  0  0  0  0  # atno 17371 bound_to 10713
  140.2000  134.8904  157.3158 LP  0  0  0  0  0  0  0  0  0  0  0  0  # atno 17394 bound_to 11000
  140.2198  134.4037  155.7571 LP  0  0  0  0  0  0  0  0  0  0  0  0  # atno 17395 bound_to 11000

$$$$
