AV-unprocessed.smi:1432|AV-procd|sdf|5831|dock8
  -GOLD-   22720 5493D 1   1.00000     0.00000
 Structure written by MMmdl.
 47 48  0  0  0  0  0  0  0  0  2 V2000
  148.2900  132.7603  153.1632 C   0  0  0  0  0  0  0  0  0  0  0  0
  147.0463  133.6466  152.9496 C   0  0  2  0  0  0  0  0  0  0  0  0
  146.6108  133.5539  151.4704 C   0  0  0  0  0  0  0  0  0  0  0  0
  145.3898  134.4301  151.1744 C   0  0  0  0  0  0  0  0  0  0  0  0
  145.6876  135.8735  151.5839 C   0  0  0  0  0  0  0  0  0  0  0  0
  146.0998  135.9374  153.0612 C   0  0  0  0  0  0  0  0  0  0  0  0
  147.2763  135.0718  153.3492 N   0  3  1  0  0  0  0  0  0  0  0  0
  147.7459  135.2465  154.7511 C   0  0  0  0  0  0  0  0  0  0  0  0
  146.5943  135.0731  155.7520 C   0  0  0  0  0  0  0  0  0  0  0  0
  146.9248  135.7018  157.0224 N   0  0  0  0  0  0  0  0  0  0  0  0
  148.0006  135.3996  157.7671 C   0  0  0  0  0  0  0  0  0  0  0  0
  148.8270  134.5558  157.4237 O   0  0  0  0  0  0  0  0  0  0  0  0
  148.1955  136.1375  159.1035 C   0  0  0  0  0  0  0  0  0  0  0  0
  147.7913  135.3762  160.2996 N   0  0  0  0  0  0  0  0  0  0  0  0
  147.5923  133.9907  160.1405 C   0  0  0  0  0  0  0  0  0  0  0  0
  147.2148  133.1835  161.1502 C   0  0  0  0  0  0  0  0  0  0  0  0
  147.0715  131.6817  160.9578 C   0  0  0  0  0  0  0  0  0  0  0  0
  147.3543  131.3269  159.7043 F   0  0  0  0  0  0  0  0  0  0  0  0
  147.9070  131.0382  161.7718 F   0  0  0  0  0  0  0  0  0  0  0  0
  145.8302  131.2814  161.2360 F   0  0  0  0  0  0  0  0  0  0  0  0
  147.0422  133.8096  162.4466 C   0  0  0  0  0  0  0  0  0  0  0  0
  147.2425  135.1308  162.6193 C   0  0  0  0  0  0  0  0  0  0  0  0
  147.6426  135.9971  161.5084 C   0  0  0  0  0  0  0  0  0  0  0  0
  147.8412  137.2029  161.6564 O   0  0  0  0  0  0  0  0  0  0  0  0
  148.1031  131.7426  152.8194 H   0  0  0  0  0  0  0  0  0  0  0  0
  148.5749  132.6856  154.2122 H   0  0  0  0  0  0  0  0  0  0  0  0
  149.1480  133.1398  152.6075 H   0  0  0  0  0  0  0  0  0  0  0  0
  146.2378  133.2534  153.5686 H   0  0  0  0  0  0  0  0  0  0  0  0
  147.4360  133.8560  150.8234 H   0  0  0  0  0  0  0  0  0  0  0  0
  146.3830  132.5190  151.2121 H   0  0  0  0  0  0  0  0  0  0  0  0
  145.1382  134.3817  150.1145 H   0  0  0  0  0  0  0  0  0  0  0  0
  144.5224  134.0578  151.7211 H   0  0  0  0  0  0  0  0  0  0  0  0
  146.4841  136.2802  150.9593 H   0  0  0  0  0  0  0  0  0  0  0  0
  144.8100  136.4978  151.4140 H   0  0  0  0  0  0  0  0  0  0  0  0
  146.3380  136.9716  153.3148 H   0  0  0  0  0  0  0  0  0  0  0  0
  145.2638  135.6386  153.6957 H   0  0  0  0  0  0  0  0  0  0  0  0
  148.5126  134.5076  154.9908 H   0  0  0  0  0  0  0  0  0  0  0  0
  148.2359  136.2125  154.8794 H   0  0  0  0  0  0  0  0  0  0  0  0
  145.6741  135.5170  155.3723 H   0  0  0  0  0  0  0  0  0  0  0  0
  146.3977  134.0105  155.9059 H   0  0  0  0  0  0  0  0  0  0  0  0
  146.2893  136.4059  157.3691 H   0  0  0  0  0  0  0  0  0  0  0  0
  149.2415  136.4393  159.1835 H   0  0  0  0  0  0  0  0  0  0  0  0
  147.6394  137.0748  159.0528 H   0  0  0  0  0  0  0  0  0  0  0  0
  147.7782  133.6219  159.1418 H   0  0  0  0  0  0  0  0  0  0  0  0
  146.7423  133.2112  163.2944 H   0  0  0  0  0  0  0  0  0  0  0  0
  147.1025  135.5637  163.5991 H   0  0  0  0  0  0  0  0  0  0  0  0
  148.0203  135.4161  152.7591 H   0  0  0  0  0  0  0  0  0  0  0  0
  1  2  1  0  0  0  0
  1 25  1  0  0  0  0
  1 26  1  0  0  0  0
  1 27  1  0  0  0  0
  2  7  1  0  0  0  0
  2  3  1  0  0  0  0
  2 28  1  0  0  0  0
  3  4  1  0  0  0  0
  3 29  1  0  0  0  0
  3 30  1  0  0  0  0
  4  5  1  0  0  0  0
  4 31  1  0  0  0  0
  4 32  1  0  0  0  0
  5  6  1  0  0  0  0
  5 33  1  0  0  0  0
  5 34  1  0  0  0  0
  6  7  1  0  0  0  0
  6 35  1  0  0  0  0
  6 36  1  0  0  0  0
  7  8  1  0  0  0  0
  7 47  1  0  0  0  0
  8  9  1  0  0  0  0
  8 37  1  0  0  0  0
  8 38  1  0  0  0  0
  9 10  1  0  0  0  0
  9 39  1  0  0  0  0
  9 40  1  0  0  0  0
 10 11  1  0  0  0  0
 10 41  1  0  0  0  0
 11 12  2  0  0  0  0
 11 13  1  0  0  0  0
 13 14  1  0  0  0  0
 13 42  1  0  0  0  0
 13 43  1  0  0  0  0
 14 23  1  0  0  0  0
 14 15  1  0  0  0  0
 15 16  2  0  0  0  0
 15 44  1  0  0  0  0
 16 17  1  0  0  0  0
 16 21  1  0  0  0  0
 17 18  1  0  0  0  0
 17 19  1  0  0  0  0
 17 20  1  0  0  0  0
 21 22  2  0  0  0  0
 21 45  1  0  0  0  0
 22 23  1  0  0  0  0
 22 46  1  0  0  0  0
 23 24  2  0  0  0  0
M  CHG  1   7   1
M  END
> <s_m_source_file>
AV-unprocessed.smi

> <i_m_source_file_index>
1432

> <i_lp_mmshare_version>
43012

> <i_f3d_flags>
0

> <s_epik_input>
W0NIM11bQ0BASF0xW0NIMl1bQ0gyXVtDSDJdW0NIMl1OMVtDSDJdW0NIMl1bTkhdQyg9TylbQ0gyXW4yW2NIXWMoQyhGKShGKUYpW2NIXVtjSF1jMj1P

> <s_epik_cmdline>
J2VwaWtfcHl0aG9uJywgJy1waCcsICc3LjAnLCAnLXRuJywgJzgnLCAnLW1hJywgJzIwMCcsICctbWV0YWxfYmluZGluZycsICctaW1hZScsICc8aW5maWxlLm1hZT4nLCAnLW9tYWUnLCAnPG91dGZpbGUubWFlPic=

> <r_lp_tautomer_probability>
1

> <r_epik_Ionization_Penalty>
0.00237222

> <r_epik_Ionization_Penalty_Charging>
0.00237213

> <r_epik_Ionization_Penalty_Neutral>
8.2065e-08

> <r_epik_State_Penalty>
0.00163922

> <r_epik_Charging_Adjusted_Penalty>
0.00401135

> <i_epik_Tot_Q>
1

> <i_epik_Tot_abs_Q>
1

> <r_epik_Metal_State_Penalty>
-0

> <b_epik_Metal_Only>
0

> <s_lp_Force_Field>
OPLS_2005

> <r_lp_Energy>
33.1317

> <b_lp_Chiralities_Consistent>
1

> <s_lp_Variant>
AV-unprocessed.smi:1432-1

> <Gold.Version>
5.8.1

> <Gold.Id.Protein>
6NUR|6NUR_protein|mol2

> <Gold.PLP.Fitness>
49.2753

> <Gold.PLP.PLP>
-40.6882

> <Gold.PLP.part.hbond>
-3.0000

> <Gold.PLP.part.metal>
0.0000

> <Gold.PLP.part.buried>
-4.4657

> <Gold.PLP.part.nonpolar>
-33.0432

> <Gold.PLP.part.repulsive>
0.0000

> <Gold.PLP.ligand.clash>
1.4523

> <Gold.PLP.ligand.torsion>
0.6488

> <Gold.PLP.Chemscore.Hbond>
3.7440

> <Gold.PLP.Chemscore.CHOScore>
0.0000

> <Gold.PLP.Chemscore.Metal>
0.0000

> <Gold.Chemscore.Hbonds>
donor molecule, donor type, donor heavy atom, donor atom, acceptor molecule, acceptor atom, score
      L1  H     7    47       P1  7948  1.89
      P1  H  6931  6943       L1    24  1.00
      P1  H  6934  6947       L1    24  0.62

> <Gold.PLP.Chemscore.Internal.Correction>
0.1051

> <Gold.Rescore>
     Score         DG    S(hbond)    S(metal)    S(lipo)     H(rot)  DE(clash)    DE(int)     intcor
     15.44     -17.45       2.73        0.00      69.70       2.08       0.00       2.02       ----

> <Gold.Chemscore.Fitness>
15.4350

> <Gold.Chemscore.DG>
-17.4509

> <Gold.Chemscore.ZeroCoef>
-5.4800

> <Gold.Chemscore.Hbond>
2.7339

> <Gold.Chemscore.Metal>
0.0000

> <Gold.Chemscore.Lipo>
69.6986

> <Gold.Chemscore.Internal_Hbond>
0.0000

> <Gold.Chemscore.DEClash>
0.0000

> <Gold.Chemscore.DEInternal>
2.0159

> <Gold.Chemscore.Rot>
2.0762

> <Gold.Chemscore.Internal.Correction>
   9.000000E+99

> <Gold.Chemscore.Hbonds>
donor molecule, donor type, donor heavy atom, donor atom, acceptor molecule, acceptor atom, score
      L1  H     7    47       P1  7948  0.90
      P1  H  6931  6943       L1    24  0.96
      P1  H  6934  6947       L1    24  0.58

> <Gold.Chemscore.Hbond.Weighted>
-9.1312

> <Gold.Chemscore.Metal.Weighted>
-0.0000

> <Gold.Chemscore.Lipo.Weighted>
-8.1547

> <Gold.Chemscore.Internal_Hbond.Weighted>
0.0000

> <Gold.Chemscore.DEClash.Weighted>
0.0000

> <Gold.Chemscore.DEInternal.Weighted>
2.0159

> <Gold.Chemscore.Rot.Weighted>
5.3150

> <Gold.Chemscore.Internal.Correction.Weighted>
   9.000000E+99

> <Gold.Protein.RotatedTorsions>
[ 6907 6896 6895 6894 ] final  151.32 input  -60.11 | X-H torsion
[ 7974 7965 7964 7962 ] final  167.11 input  175.53 | X-H torsion
[ 8008 7997 7996 7995 ] final -128.37 input   59.86 | X-H torsion
[ 10167 10162 10161 10158 ] final   86.86 input  -65.29 | X-H torsion
[ 10718 10713 10712 10709 ] final  164.15 input   66.30 | X-H torsion
[ 10763 10752 10751 10750 ] final  -18.82 input  -60.55 | X-H torsion
[ 11005 11000 10999 10996 ] final  -37.93 input  -57.11 | X-H torsion

> <Gold.Protein.ActiveResidues>
 VAL166  LYS551  ARG553  GLY616  TRP617  ASP618  TYR619  PRO620  LYS621  CYS622 
 ASP623  PHE694  ASN695  SER759  ASP760  ASP761  ALA762  ILE779  LEU786  VAL792 
 PHE793  MET794  SER795  GLU796  ALA797  LYS798  CYS799  TRP800  GLU811  SER814 

> <Gold.Protein.RotatedAtoms>
  152.1023  133.4256  159.4592 H   0  0  0  0  0  0  0  0  0  0  0  0  # atno 6907 bound_to 6896
  150.6864  134.2745  159.4611 H   0  0  0  0  0  0  0  0  0  0  0  0  # atno 6908 bound_to 6896
  152.0607  134.9596  160.0625 H   0  0  0  0  0  0  0  0  0  0  0  0  # atno 6909 bound_to 6896
  144.7437  139.8713  143.6389 H   0  0  0  0  0  0  0  0  0  0  0  0  # atno 7974 bound_to 7965
  155.2616  140.0436  157.2998 H   0  0  0  0  0  0  0  0  0  0  0  0  # atno 8008 bound_to 7997
  154.5707  140.2373  155.8165 H   0  0  0  0  0  0  0  0  0  0  0  0  # atno 8009 bound_to 7997
  156.2120  140.2996  155.9762 H   0  0  0  0  0  0  0  0  0  0  0  0  # atno 8010 bound_to 7997
  139.8832  144.6428  150.8820 H   0  0  0  0  0  0  0  0  0  0  0  0  # atno 10167 bound_to 10162
  157.0984  131.0436  151.2508 H   0  0  0  0  0  0  0  0  0  0  0  0  # atno 10718 bound_to 10713
  153.5953  135.7001  153.5406 H   0  0  0  0  0  0  0  0  0  0  0  0  # atno 10763 bound_to 10752
  153.3143  135.4092  155.1363 H   0  0  0  0  0  0  0  0  0  0  0  0  # atno 10764 bound_to 10752
  154.8593  135.3680  154.5486 H   0  0  0  0  0  0  0  0  0  0  0  0  # atno 10765 bound_to 10752
  140.9989  133.6965  156.1986 H   0  0  0  0  0  0  0  0  0  0  0  0  # atno 11005 bound_to 11000
  146.1278  139.4307  143.0188 LP  0  0  0  0  0  0  0  0  0  0  0  0  # atno 17320 bound_to 7965
  145.7209  141.0075  143.1403 LP  0  0  0  0  0  0  0  0  0  0  0  0  # atno 17321 bound_to 7965
  140.7740  143.3569  151.1904 LP  0  0  0  0  0  0  0  0  0  0  0  0  # atno 17342 bound_to 10162
  139.7177  143.9274  152.2973 LP  0  0  0  0  0  0  0  0  0  0  0  0  # atno 17343 bound_to 10162
  157.4662  130.7682  149.7281 LP  0  0  0  0  0  0  0  0  0  0  0  0  # atno 17370 bound_to 10713
  155.9880  130.3962  150.3139 LP  0  0  0  0  0  0  0  0  0  0  0  0  # atno 17371 bound_to 10713
  140.6921  134.4655  157.5588 LP  0  0  0  0  0  0  0  0  0  0  0  0  # atno 17394 bound_to 11000
  139.9029  134.8515  156.1823 LP  0  0  0  0  0  0  0  0  0  0  0  0  # atno 17395 bound_to 11000

$$$$
