AV-unprocessed.smi:1111|AV-procd|sdf|4793|dock4
  -GOLD-   22720 3343D 1   1.00000     0.00000
 Structure written by MMmdl.
 32 33  0  0  0  0  0  0  0  0  1 V2000
  148.4801  139.9851  156.2540 C   0  0  0  0  0  0  0  0  0  0  0  0
  150.0052  139.8270  156.0821 C   0  0  2  0  0  0  0  0  0  0  0  0
  150.6777  141.1274  156.1877 N   0  0  0  0  0  0  0  0  0  0  0  0
  150.7112  141.9703  157.2343 C   0  0  0  0  0  0  0  0  0  0  0  0
  150.0733  141.8073  158.2735 O   0  0  0  0  0  0  0  0  0  0  0  0
  151.6389  143.1756  157.0897 C   0  0  0  0  0  0  0  0  0  0  0  0
  151.5082  144.0593  158.2336 N   0  0  0  0  0  0  0  0  0  0  0  0
  152.5135  144.4619  159.1043 C   0  0  0  0  0  0  0  0  0  0  0  0
  151.9190  145.2774  160.0406 C   0  0  0  0  0  0  0  0  0  0  0  0
  150.5581  145.3915  159.7670 N   0  0  0  0  0  0  0  0  0  0  0  0
  150.3887  144.6421  158.6853 C   0  0  0  0  0  0  0  0  0  0  0  0
  150.3316  139.2616  154.6792 C   0  0  0  0  0  0  0  0  0  0  0  0
  151.7863  138.7720  154.6454 C   0  0  0  0  0  0  0  0  0  0  0  0
  152.1601  138.2038  156.3452 S   0  0  0  0  0  0  0  0  0  0  0  0
  152.1695  136.7336  156.3873 O   0  0  0  0  0  0  0  0  0  0  0  0
  153.2913  138.9854  156.8672 O   0  0  0  0  0  0  0  0  0  0  0  0
  150.6015  138.8180  157.0897 C   0  0  0  0  0  0  0  0  0  0  0  0
  147.9624  139.0426  156.0733 H   0  0  0  0  0  0  0  0  0  0  0  0
  148.0773  140.7188  155.5550 H   0  0  0  0  0  0  0  0  0  0  0  0
  148.2143  140.3053  157.2613 H   0  0  0  0  0  0  0  0  0  0  0  0
  151.2425  141.3850  155.3914 H   0  0  0  0  0  0  0  0  0  0  0  0
  152.6755  142.8458  157.0072 H   0  0  0  0  0  0  0  0  0  0  0  0
  151.4005  143.7303  156.1813 H   0  0  0  0  0  0  0  0  0  0  0  0
  153.5383  144.1399  158.9933 H   0  0  0  0  0  0  0  0  0  0  0  0
  152.3619  145.7850  160.8847 H   0  0  0  0  0  0  0  0  0  0  0  0
  149.4262  144.5101  158.2124 H   0  0  0  0  0  0  0  0  0  0  0  0
  149.6831  138.4069  154.4809 H   0  0  0  0  0  0  0  0  0  0  0  0
  150.1370  139.9860  153.8871 H   0  0  0  0  0  0  0  0  0  0  0  0
  151.9463  137.9626  153.9332 H   0  0  0  0  0  0  0  0  0  0  0  0
  152.4683  139.5880  154.4054 H   0  0  0  0  0  0  0  0  0  0  0  0
  150.7945  139.2220  158.0832 H   0  0  0  0  0  0  0  0  0  0  0  0
  149.9398  137.9592  157.2058 H   0  0  0  0  0  0  0  0  0  0  0  0
  1  2  1  0  0  0  0
  1 18  1  0  0  0  0
  1 19  1  0  0  0  0
  1 20  1  0  0  0  0
  2 17  1  0  0  0  0
  2  3  1  0  0  0  0
  2 12  1  0  0  0  0
  3  4  1  0  0  0  0
  3 21  1  0  0  0  0
  4  5  2  0  0  0  0
  4  6  1  0  0  0  0
  6  7  1  0  0  0  0
  6 22  1  0  0  0  0
  6 23  1  0  0  0  0
  7 11  1  0  0  0  0
  7  8  1  0  0  0  0
  8  9  2  0  0  0  0
  8 24  1  0  0  0  0
  9 10  1  0  0  0  0
  9 25  1  0  0  0  0
 10 11  2  0  0  0  0
 11 26  1  0  0  0  0
 12 13  1  0  0  0  0
 12 27  1  0  0  0  0
 12 28  1  0  0  0  0
 13 14  1  0  0  0  0
 13 29  1  0  0  0  0
 13 30  1  0  0  0  0
 14 15  2  0  0  0  0
 14 16  2  0  0  0  0
 14 17  1  0  0  0  0
 17 31  1  0  0  0  0
 17 32  1  0  0  0  0
M  END
> <s_m_source_file>
AV-unprocessed.smi

> <i_m_source_file_index>
1111

> <i_lp_mmshare_version>
43012

> <i_f3d_flags>
0

> <s_epik_input>
Tz1TKD1PKShbQ0gyXTEpW0NIMl1bQ0gyXVtDQEBdMShbQ0gzXSlbTkhdQyg9TylbQ0gyXW4yW2NIXVtjSF1uW2NIXTI=

> <s_epik_cmdline>
J2VwaWtfcHl0aG9uJywgJy1waCcsICc3LjAnLCAnLXRuJywgJzgnLCAnLW1hJywgJzIwMCcsICctbWV0YWxfYmluZGluZycsICctaW1hZScsICc8aW5maWxlLm1hZT4nLCAnLW9tYWUnLCAnPG91dGZpbGUubWFlPic=

> <r_lp_tautomer_probability>
1

> <r_epik_Ionization_Penalty>
0.246342

> <r_epik_Ionization_Penalty_Charging>
0.246341

> <r_epik_Ionization_Penalty_Neutral>
5.91248e-07

> <r_epik_State_Penalty>
0.237514

> <r_epik_Charging_Adjusted_Penalty>
0.483856

> <i_epik_Tot_Q>
0

> <i_epik_Tot_abs_Q>
0

> <r_epik_Metal_State_Penalty>
0.166715

> <b_epik_Metal_Only>
0

> <s_lp_Force_Field>
OPLS_2005

> <r_lp_Energy>
5.38439

> <b_lp_Chiralities_Consistent>
1

> <s_lp_Variant>
AV-unprocessed.smi:1111-2

> <Gold.Version>
5.8.1

> <Gold.Id.Protein>
6NUR|6NUR_protein|mol2

> <Gold.PLP.Fitness>
38.8118

> <Gold.PLP.PLP>
-29.5452

> <Gold.PLP.part.hbond>
-2.1163

> <Gold.PLP.part.metal>
0.0000

> <Gold.PLP.part.buried>
-5.6776

> <Gold.PLP.part.nonpolar>
-23.0158

> <Gold.PLP.part.repulsive>
0.3369

> <Gold.PLP.ligand.clash>
0.0000

> <Gold.PLP.ligand.torsion>
0.0437

> <Gold.PLP.Chemscore.Hbond>
2.0000

> <Gold.PLP.Chemscore.CHOScore>
1.1113

> <Gold.PLP.Chemscore.Metal>
0.0000

> <Gold.Chemscore.Hbonds>
donor molecule, donor type, donor heavy atom, donor atom, acceptor molecule, acceptor atom, score
      P1  H  7997  8008       L1    16  1.00
      P1  H 10752 10765       L1    15  0.84
      L1  C    11    26       P1  8028  0.20
      L1  C    11    26       P1  8029  0.90

> <Gold.PLP.Chemscore.Internal.Correction>
0.0201

> <Gold.Rescore>
     Score         DG    S(hbond)    S(metal)    S(lipo)     H(rot)  DE(clash)    DE(int)     intcor
     14.35     -14.63       1.98        0.00      59.58       1.73       0.07       0.21       ----

> <Gold.Chemscore.Fitness>
14.3539

> <Gold.Chemscore.DG>
-14.6339

> <Gold.Chemscore.ZeroCoef>
-5.4800

> <Gold.Chemscore.Hbond>
1.9819

> <Gold.Chemscore.Metal>
0.0000

> <Gold.Chemscore.Lipo>
59.5756

> <Gold.Chemscore.Internal_Hbond>
0.0000

> <Gold.Chemscore.DEClash>
0.0650

> <Gold.Chemscore.DEInternal>
0.2149

> <Gold.Chemscore.Rot>
1.7328

> <Gold.Chemscore.Internal.Correction>
   9.000000E+99

> <Gold.Chemscore.Hbonds>
donor molecule, donor type, donor heavy atom, donor atom, acceptor molecule, acceptor atom, score
      P1  H  7997  8008       L1    16  0.95
      P1  H 10752 10765       L1    15  0.80

> <Gold.Chemscore.Hbond.Weighted>
-6.6195

> <Gold.Chemscore.Metal.Weighted>
-0.0000

> <Gold.Chemscore.Lipo.Weighted>
-6.9703

> <Gold.Chemscore.Internal_Hbond.Weighted>
0.0000

> <Gold.Chemscore.DEClash.Weighted>
0.0650

> <Gold.Chemscore.DEInternal.Weighted>
0.2149

> <Gold.Chemscore.Rot.Weighted>
4.4360

> <Gold.Chemscore.Internal.Correction.Weighted>
   9.000000E+99

> <Gold.Protein.RotatedTorsions>
[ 6907 6896 6895 6894 ] final -174.94 input  -60.11 | X-H torsion
[ 7974 7965 7964 7962 ] final   91.74 input  175.53 | X-H torsion
[ 8008 7997 7996 7995 ] final  -62.46 input   59.86 | X-H torsion
[ 10167 10162 10161 10158 ] final   18.38 input  -65.29 | X-H torsion
[ 10718 10713 10712 10709 ] final  -86.37 input   66.30 | X-H torsion
[ 10763 10752 10751 10750 ] final -136.02 input  -60.55 | X-H torsion
[ 11005 11000 10999 10996 ] final  -92.60 input  -57.11 | X-H torsion

> <Gold.Protein.ActiveResidues>
 VAL166  LYS551  ARG553  GLY616  TRP617  ASP618  TYR619  PRO620  LYS621  CYS622 
 ASP623  PHE694  ASN695  SER759  ASP760  ASP761  ALA762  ILE779  LEU786  VAL792 
 PHE793  MET794  SER795  GLU796  ALA797  LYS798  CYS799  TRP800  GLU811  SER814 

> <Gold.Protein.RotatedAtoms>
  151.5806  133.3378  159.3007 H   0  0  0  0  0  0  0  0  0  0  0  0  # atno 6907 bound_to 6896
  150.8316  134.7574  159.6869 H   0  0  0  0  0  0  0  0  0  0  0  0  # atno 6908 bound_to 6896
  152.4398  134.5619  159.9948 H   0  0  0  0  0  0  0  0  0  0  0  0  # atno 6909 bound_to 6896
  145.5017  139.2276  143.2774 H   0  0  0  0  0  0  0  0  0  0  0  0  # atno 7974 bound_to 7965
  154.4501  140.0995  156.6591 H   0  0  0  0  0  0  0  0  0  0  0  0  # atno 8008 bound_to 7997
  155.5313  140.3481  155.4408 H   0  0  0  0  0  0  0  0  0  0  0  0  # atno 8009 bound_to 7997
  156.0662  140.1338  156.9872 H   0  0  0  0  0  0  0  0  0  0  0  0  # atno 8010 bound_to 7997
  140.5657  143.9255  150.6675 H   0  0  0  0  0  0  0  0  0  0  0  0  # atno 10167 bound_to 10162
  155.9990  130.4763  150.4705 H   0  0  0  0  0  0  0  0  0  0  0  0  # atno 10718 bound_to 10713
  154.8692  135.3685  154.4992 H   0  0  0  0  0  0  0  0  0  0  0  0  # atno 10763 bound_to 10752
  153.5634  135.7022  153.5542 H   0  0  0  0  0  0  0  0  0  0  0  0  # atno 10764 bound_to 10752
  153.3607  135.4047  155.1679 H   0  0  0  0  0  0  0  0  0  0  0  0  # atno 10765 bound_to 10752
  141.1518  133.7831  157.0042 H   0  0  0  0  0  0  0  0  0  0  0  0  # atno 11005 bound_to 11000
  146.2222  140.5818  142.9012 LP  0  0  0  0  0  0  0  0  0  0  0  0  # atno 17320 bound_to 7965
  144.7776  140.5773  143.6627 LP  0  0  0  0  0  0  0  0  0  0  0  0  # atno 17321 bound_to 7965
  140.2717  143.3451  152.1232 LP  0  0  0  0  0  0  0  0  0  0  0  0  # atno 17342 bound_to 10162
  139.5092  144.6863  151.5879 LP  0  0  0  0  0  0  0  0  0  0  0  0  # atno 17343 bound_to 10162
  157.2720  131.0589  151.2253 LP  0  0  0  0  0  0  0  0  0  0  0  0  # atno 17370 bound_to 10713
  157.3330  130.6995  149.6336 LP  0  0  0  0  0  0  0  0  0  0  0  0  # atno 17371 bound_to 10713
  140.0920  134.9587  157.1790 LP  0  0  0  0  0  0  0  0  0  0  0  0  # atno 17394 bound_to 11000
  140.3433  134.2679  155.7209 LP  0  0  0  0  0  0  0  0  0  0  0  0  # atno 17395 bound_to 11000

$$$$
