AV-unprocessed.smi:2556|AV-procd|sdf|10026|dock5
  -GOLD-   2272014 73D 1   1.00000     0.00000
 Structure written by MMmdl.
 34 36  0  0  0  0  0  0  0  0  2 V2000
  151.7204  143.2227  161.7831 C   0  0  0  0  0  0  0  0  0  0  0  0
  152.1462  142.2540  160.7684 N   0  0  0  0  0  0  0  0  0  0  0  0
  153.2563  141.4588  160.9105 C   0  0  0  0  0  0  0  0  0  0  0  0
  153.9256  141.5558  161.9394 O   0  0  0  0  0  0  0  0  0  0  0  0
  153.5984  140.5733  159.9091 N   0  5  0  0  0  0  0  0  0  0  0  0
  152.9201  140.3844  158.7328 C   0  0  0  0  0  0  0  0  0  0  0  0
  153.2084  139.6047  157.8263 O   0  0  0  0  0  0  0  0  0  0  0  0
  151.7297  141.2519  158.6372 C   0  0  0  0  0  0  0  0  0  0  0  0
  151.3538  142.1423  159.5953 C   0  0  0  0  0  0  0  0  0  0  0  0
  150.1936  142.8198  159.2361 N   0  0  0  0  0  0  0  0  0  0  0  0
  149.9215  142.2865  158.0446 C   0  0  0  0  0  0  0  0  0  0  0  0
  150.7858  141.3443  157.6154 N   0  0  0  0  0  0  0  0  0  0  0  0
  150.7113  140.6137  156.3600 C   0  0  0  0  0  0  0  0  0  0  0  0
  149.7891  141.2956  155.3301 C   0  0  1  0  0  0  0  0  0  0  0  0
  150.1276  140.8705  154.0232 O   0  0  0  0  0  0  0  0  0  0  0  0
  148.3240  141.0528  155.6579 C   0  0  0  0  0  0  0  0  0  0  0  0
  147.9504  140.3299  156.8128 C   0  0  0  0  0  0  0  0  0  0  0  0
  146.5895  140.1199  157.1097 C   0  0  0  0  0  0  0  0  0  0  0  0
  145.5945  140.6343  156.2562 C   0  0  0  0  0  0  0  0  0  0  0  0
  145.9613  141.3611  155.1074 C   0  0  0  0  0  0  0  0  0  0  0  0
  147.3220  141.5710  154.8099 C   0  0  0  0  0  0  0  0  0  0  0  0
  152.3962  143.3114  162.6340 H   0  0  0  0  0  0  0  0  0  0  0  0
  150.7402  142.9445  162.1710 H   0  0  0  0  0  0  0  0  0  0  0  0
  151.6351  144.2136  161.3363 H   0  0  0  0  0  0  0  0  0  0  0  0
  149.0615  142.5884  157.4648 H   0  0  0  0  0  0  0  0  0  0  0  0
  151.7197  140.5147  155.9558 H   0  0  0  0  0  0  0  0  0  0  0  0
  150.3686  139.6002  156.5702 H   0  0  0  0  0  0  0  0  0  0  0  0
  149.9641  142.3716  155.3546 H   0  0  0  0  0  0  0  0  0  0  0  0
  149.5803  141.3351  153.4087 H   0  0  0  0  0  0  0  0  0  0  0  0
  148.7057  139.9362  157.4773 H   0  0  0  0  0  0  0  0  0  0  0  0
  146.3092  139.5660  157.9932 H   0  0  0  0  0  0  0  0  0  0  0  0
  144.5510  140.4741  156.4845 H   0  0  0  0  0  0  0  0  0  0  0  0
  145.1991  141.7598  154.4544 H   0  0  0  0  0  0  0  0  0  0  0  0
  147.5943  142.1346  153.9291 H   0  0  0  0  0  0  0  0  0  0  0  0
  1  2  1  0  0  0  0
  1 22  1  0  0  0  0
  1 23  1  0  0  0  0
  1 24  1  0  0  0  0
  2  9  1  0  0  0  0
  2  3  1  0  0  0  0
  3  4  2  0  0  0  0
  3  5  1  0  0  0  0
  5  6  1  0  0  0  0
  6  7  2  0  0  0  0
  6  8  1  0  0  0  0
  8 12  1  0  0  0  0
  8  9  2  0  0  0  0
  9 10  1  0  0  0  0
 10 11  2  0  0  0  0
 11 12  1  0  0  0  0
 11 25  1  0  0  0  0
 12 13  1  0  0  0  0
 13 14  1  0  0  0  0
 13 26  1  0  0  0  0
 13 27  1  0  0  0  0
 14 15  1  0  0  0  0
 14 16  1  0  0  0  0
 14 28  1  0  0  0  0
 15 29  1  0  0  0  0
 16 21  1  0  0  0  0
 16 17  2  0  0  0  0
 17 18  1  0  0  0  0
 17 30  1  0  0  0  0
 18 19  2  0  0  0  0
 18 31  1  0  0  0  0
 19 20  1  0  0  0  0
 19 32  1  0  0  0  0
 20 21  2  0  0  0  0
 20 33  1  0  0  0  0
 21 34  1  0  0  0  0
M  CHG  1   5  -1
M  END
> <s_m_source_file>
AV-unprocessed.smi

> <i_m_source_file_index>
2556

> <i_lp_mmshare_version>
43012

> <i_f3d_flags>
0

> <s_epik_input>
Tz1jMVtuSF1jKD1PKW4oW0NIM10pYyhjMTIpbltjSF1uMltDSDJdW0NASF0oW09IXSljM1tjSF1bY0hdW2NIXVtjSF1bY0hdMw==

> <s_epik_cmdline>
J2VwaWtfcHl0aG9uJywgJy1waCcsICc3LjAnLCAnLXRuJywgJzgnLCAnLW1hJywgJzIwMCcsICctbWV0YWxfYmluZGluZycsICctaW1hZScsICc8aW5maWxlLm1hZT4nLCAnLW9tYWUnLCAnPG91dGZpbGUubWFlPic=

> <r_lp_tautomer_probability>
1

> <r_epik_Ionization_Penalty>
4.84872

> <r_epik_Ionization_Penalty_Charging>
0.03865

> <r_epik_Ionization_Penalty_Neutral>
4.81007

> <r_epik_State_Penalty>
4.80988

> <r_epik_Charging_Adjusted_Penalty>
4.84853

> <i_epik_Tot_Q>
-1

> <i_epik_Tot_abs_Q>
1

> <r_epik_Metal_State_Penalty>
0.994041

> <b_epik_Metal_Only>
1

> <s_lp_Force_Field>
OPLS_2005

> <r_lp_Energy>
31.8708

> <b_lp_Chiralities_Consistent>
1

> <s_lp_Variant>
AV-unprocessed.smi:2556-4

> <Gold.Version>
5.8.1

> <Gold.Id.Protein>
6NUR|6NUR_protein|mol2

> <Gold.PLP.Fitness>
45.8492

> <Gold.PLP.PLP>
-38.7914

> <Gold.PLP.part.hbond>
-3.7365

> <Gold.PLP.part.metal>
0.0000

> <Gold.PLP.part.buried>
-3.5904

> <Gold.PLP.part.nonpolar>
-30.9826

> <Gold.PLP.part.repulsive>
0.0825

> <Gold.PLP.ligand.clash>
0.0000

> <Gold.PLP.ligand.torsion>
0.4563

> <Gold.PLP.Chemscore.Hbond>
1.6480

> <Gold.PLP.Chemscore.CHOScore>
1.0000

> <Gold.PLP.Chemscore.Metal>
0.0000

> <Gold.Chemscore.Hbonds>
donor molecule, donor type, donor heavy atom, donor atom, acceptor molecule, acceptor atom, score
      P1  H  7989  7998       L1    15  0.56
      P1  H  7997  8009       L1     7  0.91
      L1  C    11    25       P1  8028  0.33

> <Gold.PLP.Chemscore.Internal.Correction>
0.0265

> <Gold.Rescore>
     Score         DG    S(hbond)    S(metal)    S(lipo)     H(rot)  DE(clash)    DE(int)     intcor
      8.42      -9.04       1.30        0.00      43.14       2.28       0.13       0.49       ----

> <Gold.Chemscore.Fitness>
8.4233

> <Gold.Chemscore.DG>
-9.0386

> <Gold.Chemscore.ZeroCoef>
-5.4800

> <Gold.Chemscore.Hbond>
1.3037

> <Gold.Chemscore.Metal>
0.0000

> <Gold.Chemscore.Lipo>
43.1394

> <Gold.Chemscore.Internal_Hbond>
0.0000

> <Gold.Chemscore.DEClash>
0.1274

> <Gold.Chemscore.DEInternal>
0.4879

> <Gold.Chemscore.Rot>
2.2824

> <Gold.Chemscore.Internal.Correction>
   9.000000E+99

> <Gold.Chemscore.Hbonds>
donor molecule, donor type, donor heavy atom, donor atom, acceptor molecule, acceptor atom, score
      P1  H  7989  7998       L1    15  0.35
      P1  H  7997  8009       L1     7  0.87

> <Gold.Chemscore.Hbond.Weighted>
-4.3544

> <Gold.Chemscore.Metal.Weighted>
-0.0000

> <Gold.Chemscore.Lipo.Weighted>
-5.0473

> <Gold.Chemscore.Internal_Hbond.Weighted>
0.0000

> <Gold.Chemscore.DEClash.Weighted>
0.1274

> <Gold.Chemscore.DEInternal.Weighted>
0.4879

> <Gold.Chemscore.Rot.Weighted>
5.8431

> <Gold.Chemscore.Internal.Correction.Weighted>
   9.000000E+99

> <Gold.Protein.RotatedTorsions>
[ 6907 6896 6895 6894 ] final   37.93 input  -60.11 | X-H torsion
[ 7974 7965 7964 7962 ] final    5.19 input  175.53 | X-H torsion
[ 8008 7997 7996 7995 ] final -176.94 input   59.86 | X-H torsion
[ 10167 10162 10161 10158 ] final   36.89 input  -65.29 | X-H torsion
[ 10718 10713 10712 10709 ] final   97.18 input   66.30 | X-H torsion
[ 10763 10752 10751 10750 ] final  165.01 input  -60.55 | X-H torsion
[ 11005 11000 10999 10996 ] final  160.94 input  -57.11 | X-H torsion

> <Gold.Protein.ActiveResidues>
 VAL166  LYS551  ARG553  GLY616  TRP617  ASP618  TYR619  PRO620  LYS621  CYS622 
 ASP623  PHE694  ASN695  SER759  ASP760  ASP761  ALA762  ILE779  LEU786  VAL792 
 PHE793  MET794  SER795  GLU796  ALA797  LYS798  CYS799  TRP800  GLU811  SER814 

> <Gold.Protein.RotatedAtoms>
  152.1497  134.8998  160.0548 H   0  0  0  0  0  0  0  0  0  0  0  0  # atno 6907 bound_to 6896
  152.0035  133.3829  159.4199 H   0  0  0  0  0  0  0  0  0  0  0  0  # atno 6908 bound_to 6896
  150.6874  134.3730  159.5044 H   0  0  0  0  0  0  0  0  0  0  0  0  # atno 6909 bound_to 6896
  146.2441  140.0420  142.8381 H   0  0  0  0  0  0  0  0  0  0  0  0  # atno 7974 bound_to 7965
  156.0009  140.1220  157.0548 H   0  0  0  0  0  0  0  0  0  0  0  0  # atno 8008 bound_to 7997
  154.4242  140.1107  156.5765 H   0  0  0  0  0  0  0  0  0  0  0  0  # atno 8009 bound_to 7997
  155.6213  140.3472  155.4655 H   0  0  0  0  0  0  0  0  0  0  0  0  # atno 8010 bound_to 7997
  140.4084  144.1626  150.6138 H   0  0  0  0  0  0  0  0  0  0  0  0  # atno 10167 bound_to 10162
  157.6916  131.0601  150.4604 H   0  0  0  0  0  0  0  0  0  0  0  0  # atno 10718 bound_to 10713
  154.3175  135.2756  155.2536 H   0  0  0  0  0  0  0  0  0  0  0  0  # atno 10763 bound_to 10752
  154.4904  135.5835  153.6458 H   0  0  0  0  0  0  0  0  0  0  0  0  # atno 10764 bound_to 10752
  152.9880  135.6133  154.3357 H   0  0  0  0  0  0  0  0  0  0  0  0  # atno 10765 bound_to 10752
  140.2109  134.8268  157.3119 H   0  0  0  0  0  0  0  0  0  0  0  0  # atno 11005 bound_to 11000
  145.1060  140.9376  143.4684 LP  0  0  0  0  0  0  0  0  0  0  0  0  # atno 17320 bound_to 7965
  145.0624  139.3095  143.5874 LP  0  0  0  0  0  0  0  0  0  0  0  0  # atno 17321 bound_to 7965
  140.4664  143.2429  151.9149 LP  0  0  0  0  0  0  0  0  0  0  0  0  # atno 17342 bound_to 10162
  139.4783  144.5415  151.8521 LP  0  0  0  0  0  0  0  0  0  0  0  0  # atno 17343 bound_to 10162
  156.4949  130.4103  149.6386 LP  0  0  0  0  0  0  0  0  0  0  0  0  # atno 17370 bound_to 10713
  156.3382  130.7368  151.2309 LP  0  0  0  0  0  0  0  0  0  0  0  0  # atno 17371 bound_to 10713
  140.1952  134.4322  155.7693 LP  0  0  0  0  0  0  0  0  0  0  0  0  # atno 17394 bound_to 11000
  141.2226  133.7046  156.8093 LP  0  0  0  0  0  0  0  0  0  0  0  0  # atno 17395 bound_to 11000

$$$$
