AV-unprocessed.smi:856|AV-procd|sdf|3960|dock8
  -GOLD-   22720 1433D 1   1.00000     0.00000
 Structure written by MMmdl.
 42 44  0  0  0  0  0  0  0  0  1 V2000
  154.4254  140.0299  160.8379 C   0  0  0  0  0  0  0  0  0  0  0  0
  153.5106  140.9751  160.1701 N   0  0  0  0  0  0  0  0  0  0  0  0
  153.0560  140.6600  158.9164 C   0  0  0  0  0  0  0  0  0  0  0  0
  153.3669  139.6469  158.2888 O   0  0  0  0  0  0  0  0  0  0  0  0
  152.1390  141.6552  158.3506 C   0  0  0  0  0  0  0  0  0  0  0  0
  151.7943  142.7928  159.0009 C   0  0  0  0  0  0  0  0  0  0  0  0
  150.9228  143.5663  158.2426 N   0  0  0  0  0  0  0  0  0  0  0  0
  150.7832  142.8279  157.1407 C   0  0  0  0  0  0  0  0  0  0  0  0
  151.4743  141.6700  157.1245 N   0  0  0  0  0  0  0  0  0  0  0  0
  151.4880  140.6932  156.0462 C   0  0  0  0  0  0  0  0  0  0  0  0
  150.1440  140.6211  155.2914 C   0  0  1  0  0  0  0  0  0  0  0  0
  150.2116  139.7773  154.1590 O   0  0  0  0  0  0  0  0  0  0  0  0
  148.9708  140.1674  156.1739 C   0  0  0  0  0  0  0  0  0  0  0  0
  147.7481  140.4271  155.5045 O   0  0  0  0  0  0  0  0  0  0  0  0
  147.0949  141.5977  155.9668 C   0  0  0  0  0  0  0  0  0  0  0  0
  146.4101  142.2301  154.7963 C   0  0  0  0  0  0  0  0  0  0  0  0
  146.6446  142.1916  153.4494 C   0  0  0  0  0  0  0  0  0  0  0  0
  145.6415  142.9959  152.8410 C   0  0  0  0  0  0  0  0  0  0  0  0
  144.8663  143.4669  153.8617 C   0  0  0  0  0  0  0  0  0  0  0  0
  145.3203  143.0097  155.0597 O   0  0  0  0  0  0  0  0  0  0  0  0
  152.3338  143.0300  160.2897 N   0  0  0  0  0  0  0  0  0  0  0  0
  151.9424  144.2737  160.9602 C   0  0  0  0  0  0  0  0  0  0  0  0
  153.1843  142.1225  160.8740 C   0  0  0  0  0  0  0  0  0  0  0  0
  153.6462  142.3270  162.0000 O   0  0  0  0  0  0  0  0  0  0  0  0
  154.6454  139.1247  160.2709 H   0  0  0  0  0  0  0  0  0  0  0  0
  154.0050  139.7008  161.7897 H   0  0  0  0  0  0  0  0  0  0  0  0
  155.3840  140.5091  161.0428 H   0  0  0  0  0  0  0  0  0  0  0  0
  150.1567  143.1397  156.3177 H   0  0  0  0  0  0  0  0  0  0  0  0
  152.3130  140.9183  155.3721 H   0  0  0  0  0  0  0  0  0  0  0  0
  151.7174  139.7172  156.4759 H   0  0  0  0  0  0  0  0  0  0  0  0
  149.9122  141.6163  154.9100 H   0  0  0  0  0  0  0  0  0  0  0  0
  149.6799  139.0134  154.3257 H   0  0  0  0  0  0  0  0  0  0  0  0
  149.0517  139.0960  156.3639 H   0  0  0  0  0  0  0  0  0  0  0  0
  148.9984  140.6702  157.1423 H   0  0  0  0  0  0  0  0  0  0  0  0
  146.3666  141.3474  156.7394 H   0  0  0  0  0  0  0  0  0  0  0  0
  147.8174  142.2934  156.3959 H   0  0  0  0  0  0  0  0  0  0  0  0
  147.4411  141.6492  152.9616 H   0  0  0  0  0  0  0  0  0  0  0  0
  145.5037  143.2030  151.7901 H   0  0  0  0  0  0  0  0  0  0  0  0
  143.9965  144.1052  153.9117 H   0  0  0  0  0  0  0  0  0  0  0  0
  152.3703  144.4051  161.9544 H   0  0  0  0  0  0  0  0  0  0  0  0
  150.8579  144.3129  161.0679 H   0  0  0  0  0  0  0  0  0  0  0  0
  152.2495  145.1308  160.3599 H   0  0  0  0  0  0  0  0  0  0  0  0
  1  2  1  0  0  0  0
  1 25  1  0  0  0  0
  1 26  1  0  0  0  0
  1 27  1  0  0  0  0
  2 23  1  0  0  0  0
  2  3  1  0  0  0  0
  3  4  2  0  0  0  0
  3  5  1  0  0  0  0
  5  9  1  0  0  0  0
  5  6  2  0  0  0  0
  6  7  1  0  0  0  0
  6 21  1  0  0  0  0
  7  8  2  0  0  0  0
  8  9  1  0  0  0  0
  8 28  1  0  0  0  0
  9 10  1  0  0  0  0
 10 11  1  0  0  0  0
 10 29  1  0  0  0  0
 10 30  1  0  0  0  0
 11 12  1  0  0  0  0
 11 13  1  0  0  0  0
 11 31  1  0  0  0  0
 12 32  1  0  0  0  0
 13 14  1  0  0  0  0
 13 33  1  0  0  0  0
 13 34  1  0  0  0  0
 14 15  1  0  0  0  0
 15 16  1  0  0  0  0
 15 35  1  0  0  0  0
 15 36  1  0  0  0  0
 16 20  1  0  0  0  0
 16 17  2  0  0  0  0
 17 18  1  0  0  0  0
 17 37  1  0  0  0  0
 18 19  2  0  0  0  0
 18 38  1  0  0  0  0
 19 20  1  0  0  0  0
 19 39  1  0  0  0  0
 21 22  1  0  0  0  0
 21 23  1  0  0  0  0
 22 40  1  0  0  0  0
 22 41  1  0  0  0  0
 22 42  1  0  0  0  0
 23 24  2  0  0  0  0
M  END
> <s_m_source_file>
AV-unprocessed.smi

> <i_m_source_file_index>
856

> <i_lp_mmshare_version>
43012

> <i_f3d_flags>
0

> <s_epik_input>
Tz1jMW4oW0NIM10pYyg9TyluKFtDSDNdKWMoYzEyKW5bY0hdbjJbQ0gyXVtDQEhdKFtPSF0pW0NIMl1PW0NIMl1jM1tjSF1bY0hdW2NIXW8z

> <s_epik_cmdline>
J2VwaWtfcHl0aG9uJywgJy1waCcsICc3LjAnLCAnLXRuJywgJzgnLCAnLW1hJywgJzIwMCcsICctbWV0YWxfYmluZGluZycsICctaW1hZScsICc8aW5maWxlLm1hZT4nLCAnLW9tYWUnLCAnPG91dGZpbGUubWFlPic=

> <r_lp_tautomer_probability>
1

> <r_epik_Ionization_Penalty>
1.33189e-06

> <r_epik_Ionization_Penalty_Charging>
3.64616e-09

> <r_epik_Ionization_Penalty_Neutral>
1.32824e-06

> <r_epik_State_Penalty>
-0

> <r_epik_Charging_Adjusted_Penalty>
3.64616e-09

> <i_epik_Tot_Q>
0

> <i_epik_Tot_abs_Q>
0

> <r_epik_Metal_State_Penalty>
-0

> <b_epik_Metal_Only>
0

> <s_lp_Force_Field>
OPLS_2005

> <r_lp_Energy>
33.5774

> <b_lp_Chiralities_Consistent>
1

> <s_lp_Variant>
AV-unprocessed.smi:856-2

> <Gold.Version>
5.8.1

> <Gold.Id.Protein>
6NUR|6NUR_protein|mol2

> <Gold.PLP.Fitness>
56.7000

> <Gold.PLP.PLP>
-50.2367

> <Gold.PLP.part.hbond>
-3.0000

> <Gold.PLP.part.metal>
0.0000

> <Gold.PLP.part.buried>
-7.4855

> <Gold.PLP.part.nonpolar>
-39.4458

> <Gold.PLP.part.repulsive>
0.3087

> <Gold.PLP.ligand.clash>
0.0000

> <Gold.PLP.ligand.torsion>
1.3220

> <Gold.PLP.Chemscore.Hbond>
2.0000

> <Gold.PLP.Chemscore.CHOScore>
1.0000

> <Gold.PLP.Chemscore.Metal>
0.0000

> <Gold.Chemscore.Hbonds>
donor molecule, donor type, donor heavy atom, donor atom, acceptor molecule, acceptor atom, score
      P1  H  7989  7998       L1    12  0.45
      P1  H  7997  8010       L1     4  1.00
      L1  C     8    28       P1  8028  1.00
      L1  C    19    39       P1 10174  0.10

> <Gold.PLP.Chemscore.Internal.Correction>
0.1074

> <Gold.Rescore>
     Score         DG    S(hbond)    S(metal)    S(lipo)     H(rot)  DE(clash)    DE(int)     intcor
     10.69     -12.13       1.86        0.00      72.83       3.16       0.16       1.28       ----

> <Gold.Chemscore.Fitness>
10.6918

> <Gold.Chemscore.DG>
-12.1280

> <Gold.Chemscore.ZeroCoef>
-5.4800

> <Gold.Chemscore.Hbond>
1.8613

> <Gold.Chemscore.Metal>
0.0000

> <Gold.Chemscore.Lipo>
72.8260

> <Gold.Chemscore.Internal_Hbond>
0.0000

> <Gold.Chemscore.DEClash>
0.1558

> <Gold.Chemscore.DEInternal>
1.2804

> <Gold.Chemscore.Rot>
3.1599

> <Gold.Chemscore.Internal.Correction>
   9.000000E+99

> <Gold.Chemscore.Hbonds>
donor molecule, donor type, donor heavy atom, donor atom, acceptor molecule, acceptor atom, score
      P1  H  7989  7998       L1    12  0.02
      P1  H  7997  8010       L1     4  0.74

> <Gold.Chemscore.Hbond.Weighted>
-6.2166

> <Gold.Chemscore.Metal.Weighted>
-0.0000

> <Gold.Chemscore.Lipo.Weighted>
-8.5206

> <Gold.Chemscore.Internal_Hbond.Weighted>
0.0000

> <Gold.Chemscore.DEClash.Weighted>
0.1558

> <Gold.Chemscore.DEInternal.Weighted>
1.2804

> <Gold.Chemscore.Rot.Weighted>
8.0893

> <Gold.Chemscore.Internal.Correction.Weighted>
   9.000000E+99

> <Gold.Protein.RotatedTorsions>
[ 6907 6896 6895 6894 ] final    9.22 input  -60.11 | X-H torsion
[ 7974 7965 7964 7962 ] final  -86.97 input  175.53 | X-H torsion
[ 8008 7997 7996 7995 ] final   23.13 input   59.86 | X-H torsion
[ 10167 10162 10161 10158 ] final  -50.92 input  -65.29 | X-H torsion
[ 10718 10713 10712 10709 ] final  -13.79 input   66.30 | X-H torsion
[ 10763 10752 10751 10750 ] final   14.12 input  -60.55 | X-H torsion
[ 11005 11000 10999 10996 ] final  107.57 input  -57.11 | X-H torsion

> <Gold.Protein.ActiveResidues>
 VAL166  LYS551  ARG553  GLY616  TRP617  ASP618  TYR619  PRO620  LYS621  CYS622 
 ASP623  PHE694  ASN695  SER759  ASP760  ASP761  ALA762  ILE779  LEU786  VAL792 
 PHE793  MET794  SER795  GLU796  ALA797  LYS798  CYS799  TRP800  GLU811  SER814 

> <Gold.Protein.RotatedAtoms>
  151.7186  135.0898  160.0279 H   0  0  0  0  0  0  0  0  0  0  0  0  # atno 6907 bound_to 6896
  152.3616  133.6300  159.6028 H   0  0  0  0  0  0  0  0  0  0  0  0  # atno 6908 bound_to 6896
  150.7608  133.9331  159.3474 H   0  0  0  0  0  0  0  0  0  0  0  0  # atno 6909 bound_to 6896
  145.4728  140.9559  143.1907 H   0  0  0  0  0  0  0  0  0  0  0  0  # atno 7974 bound_to 7965
  154.9763  140.3096  155.4966 H   0  0  0  0  0  0  0  0  0  0  0  0  # atno 8008 bound_to 7997
  156.2959  140.2274  156.4798 H   0  0  0  0  0  0  0  0  0  0  0  0  # atno 8009 bound_to 7997
  154.7830  140.0444  157.1130 H   0  0  0  0  0  0  0  0  0  0  0  0  # atno 8010 bound_to 7997
  140.6614  143.2639  151.4429 H   0  0  0  0  0  0  0  0  0  0  0  0  # atno 10167 bound_to 10162
  156.6253  130.4886  149.6149 H   0  0  0  0  0  0  0  0  0  0  0  0  # atno 10718 bound_to 10713
  153.1653  135.6803  153.8684 H   0  0  0  0  0  0  0  0  0  0  0  0  # atno 10763 bound_to 10752
  153.8066  135.3148  155.3397 H   0  0  0  0  0  0  0  0  0  0  0  0  # atno 10764 bound_to 10752
  154.7961  135.4806  154.0254 H   0  0  0  0  0  0  0  0  0  0  0  0  # atno 10765 bound_to 10752
  139.8830  134.9405  156.5840 H   0  0  0  0  0  0  0  0  0  0  0  0  # atno 11005 bound_to 11000
  144.7935  139.6281  143.7103 LP  0  0  0  0  0  0  0  0  0  0  0  0  # atno 17320 bound_to 7965
  146.2387  139.5956  142.9506 LP  0  0  0  0  0  0  0  0  0  0  0  0  # atno 17321 bound_to 7965
  139.5849  144.1627  152.2016 LP  0  0  0  0  0  0  0  0  0  0  0  0  # atno 17342 bound_to 10162
  140.0964  144.5577  150.7019 LP  0  0  0  0  0  0  0  0  0  0  0  0  # atno 17343 bound_to 10162
  156.2279  130.6776  151.1434 LP  0  0  0  0  0  0  0  0  0  0  0  0  # atno 17370 bound_to 10713
  157.7216  131.0678  150.6112 LP  0  0  0  0  0  0  0  0  0  0  0  0  # atno 17371 bound_to 10713
  140.8006  133.8509  155.8723 LP  0  0  0  0  0  0  0  0  0  0  0  0  # atno 17394 bound_to 11000
  140.9596  134.1673  157.4664 LP  0  0  0  0  0  0  0  0  0  0  0  0  # atno 17395 bound_to 11000

$$$$
