AV-unprocessed.smi:1856|AV-procd|sdf|7537|dock1
  -GOLD-   22720 9253D 1   1.00000     0.00000
 Structure written by MMmdl.
 45 46  0  0  0  0  0  0  0  0  2 V2000
  143.6804  133.8864  151.4279 C   0  0  0  0  0  0  0  0  0  0  0  0
  143.8794  135.3991  151.5754 C   0  0  0  0  0  0  0  0  0  0  0  0
  144.8362  135.7569  152.7268 C   0  0  0  0  0  0  0  0  0  0  0  0
  145.0431  137.2663  152.8841 C   0  0  0  0  0  0  0  0  0  0  0  0
  144.0775  138.0166  153.0267 O   0  0  0  0  0  0  0  0  0  0  0  0
  146.3144  137.6959  152.8619 N   0  0  0  0  0  0  0  0  0  0  0  0
  146.7472  139.0822  153.0095 C   0  0  2  0  0  0  0  0  0  0  0  0
  147.0445  139.6902  151.6288 C   0  0  0  0  0  0  0  0  0  0  0  0
  147.9268  139.1630  153.9310 C   0  0  0  0  0  0  0  0  0  0  0  0
  148.6010  138.1111  154.4801 N   0  3  0  0  0  0  0  0  0  0  0  0
  149.6193  138.5799  155.3103 C   0  0  0  0  0  0  0  0  0  0  0  0
  150.5646  137.8963  156.0687 C   0  0  0  0  0  0  0  0  0  0  0  0
  151.4673  138.6836  156.8134 C   0  0  0  0  0  0  0  0  0  0  0  0
  151.4076  140.0923  156.7875 C   0  0  0  0  0  0  0  0  0  0  0  0
  150.4435  140.7737  156.0156 C   0  0  0  0  0  0  0  0  0  0  0  0
  149.5567  139.9874  155.2806 C   0  0  0  0  0  0  0  0  0  0  0  0
  148.4968  140.3021  154.4234 N   0  0  0  0  0  0  0  0  0  0  0  0
  148.1613  141.7159  154.1907 C   0  0  0  0  0  0  0  0  0  0  0  0
  146.6464  141.9921  154.2461 C   0  0  2  0  0  0  0  0  0  0  0  0
  146.2993  143.4057  153.7642 C   0  0  0  0  0  0  0  0  0  0  0  0
  146.1716  141.8374  155.5680 O   0  0  0  0  0  0  0  0  0  0  0  0
  143.0018  133.6627  150.6043 H   0  0  0  0  0  0  0  0  0  0  0  0
  143.2555  133.4557  152.3351 H   0  0  0  0  0  0  0  0  0  0  0  0
  144.6257  133.3814  151.2268 H   0  0  0  0  0  0  0  0  0  0  0  0
  144.2641  135.8020  150.6372 H   0  0  0  0  0  0  0  0  0  0  0  0
  142.9075  135.8675  151.7376 H   0  0  0  0  0  0  0  0  0  0  0  0
  144.4476  135.3655  153.6677 H   0  0  0  0  0  0  0  0  0  0  0  0
  145.8005  135.2734  152.5622 H   0  0  0  0  0  0  0  0  0  0  0  0
  147.0409  137.0045  152.7437 H   0  0  0  0  0  0  0  0  0  0  0  0
  145.9489  139.6732  153.4612 H   0  0  0  0  0  0  0  0  0  0  0  0
  147.3568  140.7313  151.7176 H   0  0  0  0  0  0  0  0  0  0  0  0
  146.1577  139.6685  150.9945 H   0  0  0  0  0  0  0  0  0  0  0  0
  147.8336  139.1455  151.1092 H   0  0  0  0  0  0  0  0  0  0  0  0
  150.6115  136.8173  156.0910 H   0  0  0  0  0  0  0  0  0  0  0  0
  152.2202  138.1973  157.4172 H   0  0  0  0  0  0  0  0  0  0  0  0
  152.1158  140.6622  157.3714 H   0  0  0  0  0  0  0  0  0  0  0  0
  150.4059  141.8530  156.0020 H   0  0  0  0  0  0  0  0  0  0  0  0
  148.6818  142.3109  154.9421 H   0  0  0  0  0  0  0  0  0  0  0  0
  148.5765  142.0150  153.2275 H   0  0  0  0  0  0  0  0  0  0  0  0
  146.1206  141.2703  153.6205 H   0  0  0  0  0  0  0  0  0  0  0  0
  146.6250  143.5586  152.7351 H   0  0  0  0  0  0  0  0  0  0  0  0
  146.7797  144.1654  154.3821 H   0  0  0  0  0  0  0  0  0  0  0  0
  145.2233  143.5800  153.7984 H   0  0  0  0  0  0  0  0  0  0  0  0
  145.6387  142.5867  155.7849 H   0  0  0  0  0  0  0  0  0  0  0  0
  148.3782  137.1416  154.2941 H   0  0  0  0  0  0  0  0  0  0  0  0
  1  2  1  0  0  0  0
  1 22  1  0  0  0  0
  1 23  1  0  0  0  0
  1 24  1  0  0  0  0
  2  3  1  0  0  0  0
  2 25  1  0  0  0  0
  2 26  1  0  0  0  0
  3  4  1  0  0  0  0
  3 27  1  0  0  0  0
  3 28  1  0  0  0  0
  4  5  2  0  0  0  0
  4  6  1  0  0  0  0
  6  7  1  0  0  0  0
  6 29  1  0  0  0  0
  7  8  1  0  0  0  0
  7  9  1  0  0  0  0
  7 30  1  0  0  0  0
  8 31  1  0  0  0  0
  8 32  1  0  0  0  0
  8 33  1  0  0  0  0
  9 17  1  0  0  0  0
  9 10  2  0  0  0  0
 10 11  1  0  0  0  0
 10 45  1  0  0  0  0
 11 16  2  0  0  0  0
 11 12  1  0  0  0  0
 12 13  2  0  0  0  0
 12 34  1  0  0  0  0
 13 14  1  0  0  0  0
 13 35  1  0  0  0  0
 14 15  2  0  0  0  0
 14 36  1  0  0  0  0
 15 16  1  0  0  0  0
 15 37  1  0  0  0  0
 16 17  1  0  0  0  0
 17 18  1  0  0  0  0
 18 19  1  0  0  0  0
 18 38  1  0  0  0  0
 18 39  1  0  0  0  0
 19 20  1  0  0  0  0
 19 21  1  0  0  0  0
 19 40  1  0  0  0  0
 20 41  1  0  0  0  0
 20 42  1  0  0  0  0
 20 43  1  0  0  0  0
 21 44  1  0  0  0  0
M  CHG  1  10   1
M  END
> <s_m_source_file>
AV-unprocessed.smi

> <i_m_source_file_index>
1856

> <i_lp_mmshare_version>
43012

> <i_f3d_flags>
0

> <s_epik_input>
W0NIM11bQ0gyXVtDSDJdQyg9TylbTkhdW0NASF0oW0NIM10pYyhuMSluKFtDSDJdW0NASF0oW0NIM10pW09IXSljKGMxMilbY0hdW2NIXVtjSF1bY0hdMg==

> <s_epik_cmdline>
J2VwaWtfcHl0aG9uJywgJy1waCcsICc3LjAnLCAnLXRuJywgJzgnLCAnLW1hJywgJzIwMCcsICctbWV0YWxfYmluZGluZycsICctaW1hZScsICc8aW5maWxlLm1hZT4nLCAnLW9tYWUnLCAnPG91dGZpbGUubWFlPic=

> <r_epik_Ionization_Penalty>
0.945588

> <r_epik_Ionization_Penalty_Charging>
0.945588

> <r_epik_Ionization_Penalty_Neutral>
8.64698e-08

> <r_epik_State_Penalty>
0.989378

> <r_epik_Charging_Adjusted_Penalty>
1.93497

> <i_epik_Tot_Q>
1

> <i_epik_Tot_abs_Q>
1

> <r_epik_Metal_State_Penalty>
1.10045

> <b_epik_Metal_Only>
0

> <s_lp_Force_Field>
OPLS_2005

> <r_lp_Energy>
9.41994

> <b_lp_Chiralities_Consistent>
1

> <s_lp_Variant>
AV-unprocessed.smi:1856-5

> <Gold.Version>
5.8.1

> <Gold.Id.Protein>
6NUR|6NUR_protein|mol2

> <Gold.PLP.Fitness>
51.4812

> <Gold.PLP.PLP>
-43.4234

> <Gold.PLP.part.hbond>
-2.9527

> <Gold.PLP.part.metal>
0.0000

> <Gold.PLP.part.buried>
2.2429

> <Gold.PLP.part.nonpolar>
-42.6856

> <Gold.PLP.part.repulsive>
0.3365

> <Gold.PLP.ligand.clash>
0.0000

> <Gold.PLP.ligand.torsion>
0.5871

> <Gold.PLP.Chemscore.Hbond>
3.0000

> <Gold.PLP.Chemscore.CHOScore>
0.0000

> <Gold.PLP.Chemscore.Metal>
0.0000

> <Gold.Chemscore.Hbonds>
donor molecule, donor type, donor heavy atom, donor atom, acceptor molecule, acceptor atom, score
      L1  H     6    29       P1  7948  0.49

> <Gold.PLP.Chemscore.Internal.Correction>
0.2320

> <Gold.Rescore>
     Score         DG    S(hbond)    S(metal)    S(lipo)     H(rot)  DE(clash)    DE(int)     intcor
     12.95     -16.40       1.95        0.00      92.78       2.52       1.90       1.55       ----

> <Gold.Chemscore.Fitness>
12.9545

> <Gold.Chemscore.DG>
-16.4022

> <Gold.Chemscore.ZeroCoef>
-5.4800

> <Gold.Chemscore.Hbond>
1.9485

> <Gold.Chemscore.Metal>
0.0000

> <Gold.Chemscore.Lipo>
92.7802

> <Gold.Chemscore.Internal_Hbond>
0.0000

> <Gold.Chemscore.DEClash>
1.8957

> <Gold.Chemscore.DEInternal>
1.5520

> <Gold.Chemscore.Rot>
2.5161

> <Gold.Chemscore.Internal.Correction>
   9.000000E+99

> <Gold.Chemscore.Hbonds>
donor molecule, donor type, donor heavy atom, donor atom, acceptor molecule, acceptor atom, score
      L1  H     6    29       P1  7948  0.46

> <Gold.Chemscore.Hbond.Weighted>
-6.5081

> <Gold.Chemscore.Metal.Weighted>
-0.0000

> <Gold.Chemscore.Lipo.Weighted>
-10.8553

> <Gold.Chemscore.Internal_Hbond.Weighted>
0.0000

> <Gold.Chemscore.DEClash.Weighted>
1.8957

> <Gold.Chemscore.DEInternal.Weighted>
1.5520

> <Gold.Chemscore.Rot.Weighted>
6.4412

> <Gold.Chemscore.Internal.Correction.Weighted>
   9.000000E+99

> <Gold.Protein.RotatedTorsions>
[ 6907 6896 6895 6894 ] final -160.52 input  -60.11 | X-H torsion
[ 7974 7965 7964 7962 ] final  -75.49 input  175.53 | X-H torsion
[ 8008 7997 7996 7995 ] final  118.15 input   59.86 | X-H torsion
[ 10167 10162 10161 10158 ] final   73.25 input  -65.29 | X-H torsion
[ 10718 10713 10712 10709 ] final  -59.89 input   66.30 | X-H torsion
[ 10763 10752 10751 10750 ] final   81.18 input  -60.55 | X-H torsion
[ 11005 11000 10999 10996 ] final   12.41 input  -57.11 | X-H torsion

> <Gold.Protein.ActiveResidues>
 VAL166  LYS551  ARG553  GLY616  TRP617  ASP618  TYR619  PRO620  LYS621  CYS622 
 ASP623  PHE694  ASN695  SER759  ASP760  ASP761  ALA762  ILE779  LEU786  VAL792 
 PHE793  MET794  SER795  GLU796  ALA797  LYS798  CYS799  TRP800  GLU811  SER814 

> <Gold.Protein.RotatedAtoms>
  151.3504  133.3927  159.2679 H   0  0  0  0  0  0  0  0  0  0  0  0  # atno 6907 bound_to 6896
  150.9806  134.9162  159.7852 H   0  0  0  0  0  0  0  0  0  0  0  0  # atno 6908 bound_to 6896
  152.5215  134.3468  159.9289 H   0  0  0  0  0  0  0  0  0  0  0  0  # atno 6909 bound_to 6896
  145.6253  140.9352  143.1116 H   0  0  0  0  0  0  0  0  0  0  0  0  # atno 7974 bound_to 7965
  156.2531  140.2881  156.0789 H   0  0  0  0  0  0  0  0  0  0  0  0  # atno 8008 bound_to 7997
  155.1588  140.0399  157.2855 H   0  0  0  0  0  0  0  0  0  0  0  0  # atno 8009 bound_to 7997
  154.6408  140.2521  155.7331 H   0  0  0  0  0  0  0  0  0  0  0  0  # atno 8010 bound_to 7997
  140.0265  144.5499  150.7540 H   0  0  0  0  0  0  0  0  0  0  0  0  # atno 10167 bound_to 10162
  156.1029  130.4184  150.0778 H   0  0  0  0  0  0  0  0  0  0  0  0  # atno 10718 bound_to 10713
  153.1095  135.4775  154.9010 H   0  0  0  0  0  0  0  0  0  0  0  0  # atno 10763 bound_to 10752
  154.7466  135.3095  154.8636 H   0  0  0  0  0  0  0  0  0  0  0  0  # atno 10764 bound_to 10752
  153.9229  135.6853  153.4801 H   0  0  0  0  0  0  0  0  0  0  0  0  # atno 10765 bound_to 10752
  140.4923  134.0828  155.7774 H   0  0  0  0  0  0  0  0  0  0  0  0  # atno 11005 bound_to 11000
  144.7215  139.8015  143.7380 LP  0  0  0  0  0  0  0  0  0  0  0  0  # atno 17320 bound_to 7965
  146.1399  139.4454  143.0115 LP  0  0  0  0  0  0  0  0  0  0  0  0  # atno 17321 bound_to 7965
  140.7320  143.2701  151.3916 LP  0  0  0  0  0  0  0  0  0  0  0  0  # atno 17342 bound_to 10162
  139.6105  144.1109  152.2293 LP  0  0  0  0  0  0  0  0  0  0  0  0  # atno 17343 bound_to 10162
  156.8761  130.9541  151.3604 LP  0  0  0  0  0  0  0  0  0  0  0  0  # atno 17370 bound_to 10713
  157.6202  130.8649  149.9095 LP  0  0  0  0  0  0  0  0  0  0  0  0  # atno 17371 bound_to 10713
  141.1478  133.9024  157.2173 LP  0  0  0  0  0  0  0  0  0  0  0  0  # atno 17394 bound_to 11000
  139.9762  135.0113  156.9637 LP  0  0  0  0  0  0  0  0  0  0  0  0  # atno 17395 bound_to 11000

$$$$
