AV-unprocessed.smi:848|AV-procd|sdf|3939|dock9
  -GOLD-   22720 1403D 1   1.00000     0.00000
 Structure written by MMmdl.
 46 48  0  0  0  0  0  0  0  0  1 V2000
  153.2568  140.4108  159.8390 C   0  0  0  0  0  0  0  0  0  0  0  0
  152.4789  141.4821  159.1027 C   0  0  0  0  0  0  0  0  0  0  0  0
  152.7204  142.8449  159.3669 C   0  0  0  0  0  0  0  0  0  0  0  0
  151.9940  143.8366  158.6799 C   0  0  0  0  0  0  0  0  0  0  0  0
  152.2567  145.3001  158.9700 C   0  0  0  0  0  0  0  0  0  0  0  0
  151.0280  143.4604  157.7246 C   0  0  0  0  0  0  0  0  0  0  0  0
  150.7760  142.1014  157.4460 C   0  0  0  0  0  0  0  0  0  0  0  0
  149.8175  141.8272  156.4941 O   0  0  0  0  0  0  0  0  0  0  0  0
  149.5593  140.4681  156.1678 C   0  0  0  0  0  0  0  0  0  0  0  0
  150.0178  140.2069  154.7241 C   0  0  2  0  0  0  0  0  0  0  0  0
  149.5501  141.2614  153.9055 O   0  0  0  0  0  0  0  0  0  0  0  0
  149.4770  138.8659  154.1857 C   0  0  0  0  0  0  0  0  0  0  0  0
  150.0660  137.7082  154.8466 N   0  0  0  0  0  0  0  0  0  0  0  0
  151.3782  137.4637  155.0917 C   0  0  0  0  0  0  0  0  0  0  0  0
  152.4452  138.4409  154.6851 C   0  0  0  0  0  0  0  0  0  0  0  0
  153.2039  138.9467  155.7653 O   0  0  0  0  0  0  0  0  0  0  0  0
  151.6430  136.3150  155.7189 N   0  0  0  0  0  0  0  0  0  0  0  0
  150.3886  135.7668  155.8980 C   0  0  0  0  0  0  0  0  0  0  0  0
  149.9956  134.5513  156.5023 C   0  0  0  0  0  0  0  0  0  0  0  0
  148.6321  134.1983  156.5748 C   0  0  0  0  0  0  0  0  0  0  0  0
  147.6445  135.0538  156.0455 C   0  0  0  0  0  0  0  0  0  0  0  0
  148.0147  136.2686  155.4374 C   0  0  0  0  0  0  0  0  0  0  0  0
  149.3773  136.6160  155.3669 C   0  0  0  0  0  0  0  0  0  0  0  0
  151.5111  141.1121  158.1466 C   0  0  0  0  0  0  0  0  0  0  0  0
  153.8542  140.8357  160.6461 H   0  0  0  0  0  0  0  0  0  0  0  0
  153.9279  139.8940  159.1526 H   0  0  0  0  0  0  0  0  0  0  0  0
  152.5760  139.6772  160.2718 H   0  0  0  0  0  0  0  0  0  0  0  0
  153.4626  143.1328  160.0975 H   0  0  0  0  0  0  0  0  0  0  0  0
  151.5223  145.9408  158.4812 H   0  0  0  0  0  0  0  0  0  0  0  0
  153.2478  145.5824  158.6145 H   0  0  0  0  0  0  0  0  0  0  0  0
  152.2096  145.4882  160.0430 H   0  0  0  0  0  0  0  0  0  0  0  0
  150.4709  144.2199  157.1955 H   0  0  0  0  0  0  0  0  0  0  0  0
  150.1358  139.8373  156.8464 H   0  0  0  0  0  0  0  0  0  0  0  0
  148.5046  140.2159  156.2925 H   0  0  0  0  0  0  0  0  0  0  0  0
  151.1074  140.1955  154.6864 H   0  0  0  0  0  0  0  0  0  0  0  0
  148.7767  141.6315  154.3026 H   0  0  0  0  0  0  0  0  0  0  0  0
  148.3937  138.8208  154.3005 H   0  0  0  0  0  0  0  0  0  0  0  0
  149.6665  138.7860  153.1144 H   0  0  0  0  0  0  0  0  0  0  0  0
  153.1275  137.9610  153.9843 H   0  0  0  0  0  0  0  0  0  0  0  0
  151.9798  139.2796  154.1672 H   0  0  0  0  0  0  0  0  0  0  0  0
  153.2663  138.2774  156.4290 H   0  0  0  0  0  0  0  0  0  0  0  0
  150.7449  133.8897  156.9112 H   0  0  0  0  0  0  0  0  0  0  0  0
  148.3433  133.2667  157.0389 H   0  0  0  0  0  0  0  0  0  0  0  0
  146.6023  134.7763  156.1060 H   0  0  0  0  0  0  0  0  0  0  0  0
  147.2600  136.9237  155.0289 H   0  0  0  0  0  0  0  0  0  0  0  0
  151.3506  140.0601  157.9658 H   0  0  0  0  0  0  0  0  0  0  0  0
  1  2  1  0  0  0  0
  1 25  1  0  0  0  0
  1 26  1  0  0  0  0
  1 27  1  0  0  0  0
  2 24  1  0  0  0  0
  2  3  2  0  0  0  0
  3  4  1  0  0  0  0
  3 28  1  0  0  0  0
  4  5  1  0  0  0  0
  4  6  2  0  0  0  0
  5 29  1  0  0  0  0
  5 30  1  0  0  0  0
  5 31  1  0  0  0  0
  6  7  1  0  0  0  0
  6 32  1  0  0  0  0
  7  8  1  0  0  0  0
  7 24  2  0  0  0  0
  8  9  1  0  0  0  0
  9 10  1  0  0  0  0
  9 33  1  0  0  0  0
  9 34  1  0  0  0  0
 10 11  1  0  0  0  0
 10 12  1  0  0  0  0
 10 35  1  0  0  0  0
 11 36  1  0  0  0  0
 12 13  1  0  0  0  0
 12 37  1  0  0  0  0
 12 38  1  0  0  0  0
 13 23  1  0  0  0  0
 13 14  1  0  0  0  0
 14 15  1  0  0  0  0
 14 17  2  0  0  0  0
 15 16  1  0  0  0  0
 15 39  1  0  0  0  0
 15 40  1  0  0  0  0
 16 41  1  0  0  0  0
 17 18  1  0  0  0  0
 18 23  2  0  0  0  0
 18 19  1  0  0  0  0
 19 20  2  0  0  0  0
 19 42  1  0  0  0  0
 20 21  1  0  0  0  0
 20 43  1  0  0  0  0
 21 22  2  0  0  0  0
 21 44  1  0  0  0  0
 22 23  1  0  0  0  0
 22 45  1  0  0  0  0
 24 46  1  0  0  0  0
M  END
> <s_m_source_file>
AV-unprocessed.smi

> <i_m_source_file_index>
848

> <i_lp_mmshare_version>
43012

> <i_f3d_flags>
0

> <s_epik_input>
W0NIM11jMVtjSF1jKFtDSDNdKVtjSF1jKFtjSF0xKU9bQ0gyXVtDQEhdKFtPSF0pW0NIMl1uKGMobjIpW0NIMl1bT0hdKWMoYzIzKVtjSF1bY0hdW2NIXVtjSF0z

> <s_epik_cmdline>
J2VwaWtfcHl0aG9uJywgJy1waCcsICc3LjAnLCAnLXRuJywgJzgnLCAnLW1hJywgJzIwMCcsICctbWV0YWxfYmluZGluZycsICctaW1hZScsICc8aW5maWxlLm1hZT4nLCAnLW9tYWUnLCAnPG91dGZpbGUubWFlPic=

> <r_lp_tautomer_probability>
1

> <r_epik_Ionization_Penalty>
0.0554234

> <r_epik_Ionization_Penalty_Charging>
0

> <r_epik_Ionization_Penalty_Neutral>
0.0554234

> <r_epik_State_Penalty>
0.0476717

> <r_epik_Charging_Adjusted_Penalty>
0.0476717

> <i_epik_Tot_Q>
0

> <i_epik_Tot_abs_Q>
0

> <r_epik_Metal_State_Penalty>
4.96399e-05

> <b_epik_Metal_Only>
0

> <s_lp_Force_Field>
OPLS_2005

> <r_lp_Energy>
17.4445

> <b_lp_Chiralities_Consistent>
1

> <s_lp_Variant>
AV-unprocessed.smi:848-1

> <Gold.Version>
5.8.1

> <Gold.Id.Protein>
6NUR|6NUR_protein|mol2

> <Gold.PLP.Fitness>
54.2603

> <Gold.PLP.PLP>
-47.0505

> <Gold.PLP.part.hbond>
-4.9725

> <Gold.PLP.part.metal>
0.0000

> <Gold.PLP.part.buried>
-3.7341

> <Gold.PLP.part.nonpolar>
-38.6362

> <Gold.PLP.part.repulsive>
0.1793

> <Gold.PLP.ligand.clash>
0.0000

> <Gold.PLP.ligand.torsion>
0.6184

> <Gold.PLP.Chemscore.Hbond>
2.8000

> <Gold.PLP.Chemscore.CHOScore>
0.0000

> <Gold.PLP.Chemscore.Metal>
0.0000

> <Gold.Chemscore.Hbonds>
donor molecule, donor type, donor heavy atom, donor atom, acceptor molecule, acceptor atom, score
      P1  H  7997  8010       L1    16  1.00
      P1  H  8011  8017       L1    11  0.82
      P1  H 10752 10763       L1    17  1.00

> <Gold.PLP.Chemscore.Internal.Correction>
0.0467

> <Gold.Rescore>
     Score         DG    S(hbond)    S(metal)    S(lipo)     H(rot)  DE(clash)    DE(int)     intcor
     18.53     -19.21       2.27        0.00     117.40       2.96       0.05       0.64       ----

> <Gold.Chemscore.Fitness>
18.5259

> <Gold.Chemscore.DG>
-19.2133

> <Gold.Chemscore.ZeroCoef>
-5.4800

> <Gold.Chemscore.Hbond>
2.2651

> <Gold.Chemscore.Metal>
0.0000

> <Gold.Chemscore.Lipo>
117.3981

> <Gold.Chemscore.Internal_Hbond>
0.0000

> <Gold.Chemscore.DEClash>
0.0505

> <Gold.Chemscore.DEInternal>
0.6369

> <Gold.Chemscore.Rot>
2.9561

> <Gold.Chemscore.Internal.Correction>
   9.000000E+99

> <Gold.Chemscore.Hbonds>
donor molecule, donor type, donor heavy atom, donor atom, acceptor molecule, acceptor atom, score
      P1  H  7997  8010       L1    16  0.64
      P1  H  8011  8017       L1    11  0.27
      P1  H 10752 10763       L1    17  0.45

> <Gold.Chemscore.Hbond.Weighted>
-7.5654

> <Gold.Chemscore.Metal.Weighted>
-0.0000

> <Gold.Chemscore.Lipo.Weighted>
-13.7356

> <Gold.Chemscore.Internal_Hbond.Weighted>
0.0000

> <Gold.Chemscore.DEClash.Weighted>
0.0505

> <Gold.Chemscore.DEInternal.Weighted>
0.6369

> <Gold.Chemscore.Rot.Weighted>
7.5677

> <Gold.Chemscore.Internal.Correction.Weighted>
   9.000000E+99

> <Gold.Protein.RotatedTorsions>
[ 6907 6896 6895 6894 ] final  -77.13 input  -60.11 | X-H torsion
[ 7974 7965 7964 7962 ] final  -80.36 input  175.53 | X-H torsion
[ 8008 7997 7996 7995 ] final   91.75 input   59.86 | X-H torsion
[ 10167 10162 10161 10158 ] final  -54.31 input  -65.29 | X-H torsion
[ 10718 10713 10712 10709 ] final  -76.72 input   66.30 | X-H torsion
[ 10763 10752 10751 10750 ] final   65.98 input  -60.55 | X-H torsion
[ 11005 11000 10999 10996 ] final  149.81 input  -57.11 | X-H torsion

> <Gold.Protein.ActiveResidues>
 VAL166  LYS551  ARG553  GLY616  TRP617  ASP618  TYR619  PRO620  LYS621  CYS622 
 ASP623  PHE694  ASN695  SER759  ASP760  ASP761  ALA762  ILE779  LEU786  VAL792 
 PHE793  MET794  SER795  GLU796  ALA797  LYS798  CYS799  TRP800  GLU811  SER814 

> <Gold.Protein.RotatedAtoms>
  150.7007  134.4468  159.5317 H   0  0  0  0  0  0  0  0  0  0  0  0  # atno 6907 bound_to 6896
  152.2168  134.8448  160.0500 H   0  0  0  0  0  0  0  0  0  0  0  0  # atno 6908 bound_to 6896
  151.9313  133.3577  159.3968 H   0  0  0  0  0  0  0  0  0  0  0  0  # atno 6909 bound_to 6896
  145.5610  140.9482  143.1447 H   0  0  0  0  0  0  0  0  0  0  0  0  # atno 7974 bound_to 7965
  156.0274  140.3334  155.7102 H   0  0  0  0  0  0  0  0  0  0  0  0  # atno 8008 bound_to 7997
  155.5935  140.0648  157.2770 H   0  0  0  0  0  0  0  0  0  0  0  0  # atno 8009 bound_to 7997
  154.4339  140.1823  156.1087 H   0  0  0  0  0  0  0  0  0  0  0  0  # atno 8010 bound_to 7997
  140.6437  143.2523  151.4918 H   0  0  0  0  0  0  0  0  0  0  0  0  # atno 10167 bound_to 10162
  156.0166  130.4473  150.3236 H   0  0  0  0  0  0  0  0  0  0  0  0  # atno 10718 bound_to 10713
  153.0120  135.5337  154.6753 H   0  0  0  0  0  0  0  0  0  0  0  0  # atno 10763 bound_to 10752
  154.5927  135.2860  155.0621 H   0  0  0  0  0  0  0  0  0  0  0  0  # atno 10764 bound_to 10752
  154.1708  135.6532  153.5061 H   0  0  0  0  0  0  0  0  0  0  0  0  # atno 10765 bound_to 10752
  140.1077  134.8944  157.1890 H   0  0  0  0  0  0  0  0  0  0  0  0  # atno 11005 bound_to 11000
  144.7483  139.7261  143.7283 LP  0  0  0  0  0  0  0  0  0  0  0  0  # atno 17320 bound_to 7965
  146.1851  139.5063  142.9841 LP  0  0  0  0  0  0  0  0  0  0  0  0  # atno 17321 bound_to 7965
  139.5647  144.2071  152.1746 LP  0  0  0  0  0  0  0  0  0  0  0  0  # atno 17342 bound_to 10162
  140.1349  144.5254  150.6779 LP  0  0  0  0  0  0  0  0  0  0  0  0  # atno 17343 bound_to 10162
  157.1336  131.0278  151.2959 LP  0  0  0  0  0  0  0  0  0  0  0  0  # atno 17370 bound_to 10713
  157.4530  130.7609  149.7168 LP  0  0  0  0  0  0  0  0  0  0  0  0  # atno 17371 bound_to 10713
  140.3133  134.2999  155.7262 LP  0  0  0  0  0  0  0  0  0  0  0  0  # atno 17394 bound_to 11000
  141.2122  133.7664  156.9808 LP  0  0  0  0  0  0  0  0  0  0  0  0  # atno 17395 bound_to 11000

$$$$
