AV-unprocessed.smi:67|AV-procd|sdf|635|dock4
  -GOLD-   2262016533D 1   1.00000     0.00000
 Structure written by MMmdl.
 48 50  0  0  0  0  0  0  0  0  2 V2000
  148.5761  136.0387  154.8417 O   0  0  0  0  0  0  0  0  0  0  0  0
  147.3509  136.7245  155.0286 C   0  0  1  0  0  0  0  0  0  0  0  0
  147.6626  138.2173  155.3189 C   0  0  0  0  0  0  0  0  0  0  0  0
  149.0419  138.4820  155.8224 N   0  3  2  0  0  0  0  0  0  0  0  0
  149.0421  139.5137  156.8963 C   0  0  0  0  0  0  0  0  0  0  0  0
  150.4288  139.6696  157.5409 C   0  0  0  0  0  0  0  0  0  0  0  0
  151.4885  139.9711  156.4657 C   0  0  1  0  0  0  0  0  0  0  0  0
  152.7914  140.2772  156.9688 O   0  0  0  0  0  0  0  0  0  0  0  0
  153.0187  141.1038  158.0525 C   0  0  0  0  0  0  0  0  0  0  0  0
  154.0399  140.9473  159.0226 C   0  0  0  0  0  0  0  0  0  0  0  0
  154.1674  141.8675  160.0809 C   0  0  0  0  0  0  0  0  0  0  0  0
  153.2788  142.9521  160.1908 C   0  0  0  0  0  0  0  0  0  0  0  0
  152.2515  143.1207  159.2395 C   0  0  0  0  0  0  0  0  0  0  0  0
  151.2777  144.2864  159.3329 C   0  0  0  0  0  0  0  0  0  0  0  0
  151.4135  145.0596  158.2563 F   0  0  0  0  0  0  0  0  0  0  0  0
  150.0255  143.8315  159.3801 F   0  0  0  0  0  0  0  0  0  0  0  0
  151.4954  145.0265  160.4206 F   0  0  0  0  0  0  0  0  0  0  0  0
  152.1372  142.1980  158.1785 C   0  0  0  0  0  0  0  0  0  0  0  0
  151.4538  138.9502  155.3135 C   0  0  0  0  0  0  0  0  0  0  0  0
  150.0270  138.8086  154.7540 C   0  0  0  0  0  0  0  0  0  0  0  0
  146.3873  136.4864  153.8455 C   0  0  0  0  0  0  0  0  0  0  0  0
  145.3046  135.5577  154.3906 C   0  0  0  0  0  0  0  0  0  0  0  0
  145.2506  135.8613  155.8074 N   0  0  0  0  0  0  0  0  0  0  0  0
  146.6300  136.0551  156.2210 C   0  0  0  0  0  0  0  0  0  0  0  0
  148.8217  136.1005  153.9309 H   0  0  0  0  0  0  0  0  0  0  0  0
  147.4499  138.8405  154.4488 H   0  0  0  0  0  0  0  0  0  0  0  0
  146.9615  138.5442  156.0882 H   0  0  0  0  0  0  0  0  0  0  0  0
  148.7109  140.4666  156.4804 H   0  0  0  0  0  0  0  0  0  0  0  0
  148.3272  139.2438  157.6744 H   0  0  0  0  0  0  0  0  0  0  0  0
  150.4038  140.4811  158.2689 H   0  0  0  0  0  0  0  0  0  0  0  0
  150.6559  138.7680  158.1042 H   0  0  0  0  0  0  0  0  0  0  0  0
  151.1826  140.9182  156.0187 H   0  0  0  0  0  0  0  0  0  0  0  0
  154.7469  140.1374  158.9918 H   0  0  0  0  0  0  0  0  0  0  0  0
  154.9519  141.7406  160.8123 H   0  0  0  0  0  0  0  0  0  0  0  0
  153.3937  143.6498  161.0073 H   0  0  0  0  0  0  0  0  0  0  0  0
  151.3553  142.3308  157.4451 H   0  0  0  0  0  0  0  0  0  0  0  0
  152.1261  139.2731  154.5180 H   0  0  0  0  0  0  0  0  0  0  0  0
  151.8061  137.9691  155.6208 H   0  0  0  0  0  0  0  0  0  0  0  0
  150.0482  138.0253  154.0009 H   0  0  0  0  0  0  0  0  0  0  0  0
  149.7260  139.7286  154.2507 H   0  0  0  0  0  0  0  0  0  0  0  0
  145.9054  137.4191  153.5507 H   0  0  0  0  0  0  0  0  0  0  0  0
  146.8772  136.0740  152.9624 H   0  0  0  0  0  0  0  0  0  0  0  0
  144.3402  135.7034  153.9035 H   0  0  0  0  0  0  0  0  0  0  0  0
  145.6015  134.5181  154.2454 H   0  0  0  0  0  0  0  0  0  0  0  0
  144.8226  135.0987  156.3237 H   0  0  0  0  0  0  0  0  0  0  0  0
  147.0728  135.0804  156.4338 H   0  0  0  0  0  0  0  0  0  0  0  0
  146.6897  136.6356  157.1419 H   0  0  0  0  0  0  0  0  0  0  0  0
  149.3499  137.6227  156.2550 H   0  0  0  0  0  0  0  0  0  0  0  0
  1  2  1  0  0  0  0
  1 25  1  0  0  0  0
  2 24  1  0  0  0  0
  2  3  1  0  0  0  0
  2 21  1  0  0  0  0
  3  4  1  0  0  0  0
  3 26  1  0  0  0  0
  3 27  1  0  0  0  0
  4 20  1  0  0  0  0
  4  5  1  0  0  0  0
  4 48  1  0  0  0  0
  5  6  1  0  0  0  0
  5 28  1  0  0  0  0
  5 29  1  0  0  0  0
  6  7  1  0  0  0  0
  6 30  1  0  0  0  0
  6 31  1  0  0  0  0
  7  8  1  0  0  0  0
  7 19  1  0  0  0  0
  7 32  1  0  0  0  0
  8  9  1  0  0  0  0
  9 18  1  0  0  0  0
  9 10  2  0  0  0  0
 10 11  1  0  0  0  0
 10 33  1  0  0  0  0
 11 12  2  0  0  0  0
 11 34  1  0  0  0  0
 12 13  1  0  0  0  0
 12 35  1  0  0  0  0
 13 14  1  0  0  0  0
 13 18  2  0  0  0  0
 14 15  1  0  0  0  0
 14 16  1  0  0  0  0
 14 17  1  0  0  0  0
 18 36  1  0  0  0  0
 19 20  1  0  0  0  0
 19 37  1  0  0  0  0
 19 38  1  0  0  0  0
 20 39  1  0  0  0  0
 20 40  1  0  0  0  0
 21 22  1  0  0  0  0
 21 41  1  0  0  0  0
 21 42  1  0  0  0  0
 22 23  1  0  0  0  0
 22 43  1  0  0  0  0
 22 44  1  0  0  0  0
 23 24  1  0  0  0  0
 23 45  1  0  0  0  0
 24 46  1  0  0  0  0
 24 47  1  0  0  0  0
M  CHG  1   4   1
M  END
> <s_m_source_file>
AV-unprocessed.smi

> <i_m_source_file_index>
67

> <i_lp_mmshare_version>
43012

> <i_f3d_flags>
0

> <s_epik_input>
W0NIMl0xW05IXVtDSDJdW0NIMl1bQ0BAXTEoW09IXSlbQ0gyXU4yW0NIMl1bQ0gyXVtDSF0oW0NIMl1bQ0gyXTIpT2MzW2NIXVtjSF1bY0hdYyhDKEYpKEYpRilbY0hdMw==

> <s_epik_cmdline>
J2VwaWtfcHl0aG9uJywgJy1waCcsICc3LjAnLCAnLXRuJywgJzgnLCAnLW1hJywgJzIwMCcsICctbWV0YWxfYmluZGluZycsICctaW1hZScsICc8aW5maWxlLm1hZT4nLCAnLW9tYWUnLCAnPG91dGZpbGUubWFlPic=

> <r_epik_Ionization_Penalty>
2.37709

> <r_epik_Ionization_Penalty_Charging>
0.0305656

> <r_epik_Ionization_Penalty_Neutral>
2.34653

> <r_epik_State_Penalty>
2.56959

> <r_epik_Charging_Adjusted_Penalty>
2.60016

> <i_epik_Tot_Q>
1

> <i_epik_Tot_abs_Q>
1

> <r_epik_Metal_State_Penalty>
2.56925

> <b_epik_Metal_Only>
0

> <s_lp_Force_Field>
OPLS_2005

> <r_lp_Energy>
55.5379

> <b_lp_Chiralities_Consistent>
1

> <s_lp_Variant>
AV-unprocessed.smi:67-7

> <Gold.Version>
5.8.1

> <Gold.Id.Protein>
6NUR|6NUR_protein|mol2

> <Gold.PLP.Fitness>
51.1973

> <Gold.PLP.PLP>
-48.0957

> <Gold.PLP.part.hbond>
-2.8659

> <Gold.PLP.part.metal>
0.0000

> <Gold.PLP.part.buried>
-3.4517

> <Gold.PLP.part.nonpolar>
-41.3421

> <Gold.PLP.part.repulsive>
0.0296

> <Gold.PLP.ligand.clash>
0.1727

> <Gold.PLP.ligand.torsion>
1.6773

> <Gold.PLP.Chemscore.Hbond>
2.0000

> <Gold.PLP.Chemscore.CHOScore>
0.0000

> <Gold.PLP.Chemscore.Metal>
0.0000

> <Gold.Chemscore.Hbonds>
donor molecule, donor type, donor heavy atom, donor atom, acceptor molecule, acceptor atom, score
      L1  H     1    25       P1  7948  0.93
      P1  H  7997  8008       L1     8  0.83

> <Gold.PLP.Chemscore.Internal.Correction>
0.6289

> <Gold.Rescore>
     Score         DG    S(hbond)    S(metal)    S(lipo)     H(rot)  DE(clash)    DE(int)     intcor
     14.27     -17.10       1.05        0.00     116.75       2.17       0.17       2.65       ----

> <Gold.Chemscore.Fitness>
14.2691

> <Gold.Chemscore.DG>
-17.0956

> <Gold.Chemscore.ZeroCoef>
-5.4800

> <Gold.Chemscore.Hbond>
1.0539

> <Gold.Chemscore.Metal>
0.0000

> <Gold.Chemscore.Lipo>
116.7491

> <Gold.Chemscore.Internal_Hbond>
0.0000

> <Gold.Chemscore.DEClash>
0.1739

> <Gold.Chemscore.DEInternal>
2.6526

> <Gold.Chemscore.Rot>
2.1734

> <Gold.Chemscore.Internal.Correction>
   9.000000E+99

> <Gold.Chemscore.Hbonds>
donor molecule, donor type, donor heavy atom, donor atom, acceptor molecule, acceptor atom, score
      L1  H     1    25       P1  7948  0.88
      P1  H  7997  8008       L1     8  0.14

> <Gold.Chemscore.Hbond.Weighted>
-3.5200

> <Gold.Chemscore.Metal.Weighted>
-0.0000

> <Gold.Chemscore.Lipo.Weighted>
-13.6596

> <Gold.Chemscore.Internal_Hbond.Weighted>
0.0000

> <Gold.Chemscore.DEClash.Weighted>
0.1739

> <Gold.Chemscore.DEInternal.Weighted>
2.6526

> <Gold.Chemscore.Rot.Weighted>
5.5640

> <Gold.Chemscore.Internal.Correction.Weighted>
   9.000000E+99

> <Gold.Protein.RotatedTorsions>
[ 6907 6896 6895 6894 ] final  131.02 input  -60.11 | X-H torsion
[ 7974 7965 7964 7962 ] final  173.06 input  175.53 | X-H torsion
[ 8008 7997 7996 7995 ] final  -50.66 input   59.86 | X-H torsion
[ 10167 10162 10161 10158 ] final  -25.42 input  -65.29 | X-H torsion
[ 10718 10713 10712 10709 ] final   -8.57 input   66.30 | X-H torsion
[ 10763 10752 10751 10750 ] final   95.97 input  -60.55 | X-H torsion
[ 11005 11000 10999 10996 ] final   52.83 input  -57.11 | X-H torsion

> <Gold.Protein.ActiveResidues>
 VAL166  LYS551  ARG553  GLY616  TRP617  ASP618  TYR619  PRO620  LYS621  CYS622 
 ASP623  PHE694  ASN695  SER759  ASP760  ASP761  ALA762  ILE779  LEU786  VAL792 
 PHE793  MET794  SER795  GLU796  ALA797  LYS798  CYS799  TRP800  GLU811  SER814 

> <Gold.Protein.RotatedAtoms>
  152.3468  133.6131  159.5915 H   0  0  0  0  0  0  0  0  0  0  0  0  # atno 6907 bound_to 6896
  150.7512  133.9637  159.3532 H   0  0  0  0  0  0  0  0  0  0  0  0  # atno 6908 bound_to 6896
  151.7494  135.0837  160.0379 H   0  0  0  0  0  0  0  0  0  0  0  0  # atno 6909 bound_to 6896
  144.7253  139.9591  143.6434 H   0  0  0  0  0  0  0  0  0  0  0  0  # atno 7974 bound_to 7965
  154.4066  140.1267  156.4703 H   0  0  0  0  0  0  0  0  0  0  0  0  # atno 8008 bound_to 7997
  155.7186  140.3493  155.4986 H   0  0  0  0  0  0  0  0  0  0  0  0  # atno 8009 bound_to 7997
  155.9235  140.1057  157.1178 H   0  0  0  0  0  0  0  0  0  0  0  0  # atno 8010 bound_to 7997
  140.7286  143.4267  151.0866 H   0  0  0  0  0  0  0  0  0  0  0  0  # atno 10167 bound_to 10162
  156.7007  130.5092  149.5918 H   0  0  0  0  0  0  0  0  0  0  0  0  # atno 10718 bound_to 10713
  153.2594  135.4235  155.0878 H   0  0  0  0  0  0  0  0  0  0  0  0  # atno 10763 bound_to 10752
  154.8414  135.3445  154.6400 H   0  0  0  0  0  0  0  0  0  0  0  0  # atno 10764 bound_to 10752
  153.6820  135.7038  153.5172 H   0  0  0  0  0  0  0  0  0  0  0  0  # atno 10765 bound_to 10752
  140.0817  134.5329  155.8940 H   0  0  0  0  0  0  0  0  0  0  0  0  # atno 11005 bound_to 11000
  146.0651  139.3642  143.0557 LP  0  0  0  0  0  0  0  0  0  0  0  0  # atno 17320 bound_to 7965
  145.8042  140.9757  143.0983 LP  0  0  0  0  0  0  0  0  0  0  0  0  # atno 17321 bound_to 7965
  139.7919  143.8207  152.3153 LP  0  0  0  0  0  0  0  0  0  0  0  0  # atno 17342 bound_to 10162
  139.8193  144.7302  150.9593 LP  0  0  0  0  0  0  0  0  0  0  0  0  # atno 17343 bound_to 10162
  156.1731  130.6450  151.0861 LP  0  0  0  0  0  0  0  0  0  0  0  0  # atno 17370 bound_to 10713
  157.6974  131.0789  150.6927 LP  0  0  0  0  0  0  0  0  0  0  0  0  # atno 17371 bound_to 10713
  141.2049  133.6642  156.6147 LP  0  0  0  0  0  0  0  0  0  0  0  0  # atno 17394 bound_to 11000
  140.3478  134.7794  157.4445 LP  0  0  0  0  0  0  0  0  0  0  0  0  # atno 17395 bound_to 11000

$$$$
