AV-unprocessed.smi:993|AV-procd|sdf|4335|dock2
  -GOLD-   22720 2233D 1   1.00000     0.00000
 Structure written by MMmdl.
 31 32  0  0  0  0  0  0  0  0  2 V2000
  149.1192  141.6499  154.3861 C   0  0  0  0  0  0  0  0  0  0  0  0
  150.1939  141.3317  155.4106 C   0  0  0  0  0  0  0  0  0  0  0  0
  150.3811  142.2929  156.4121 N   0  0  0  0  0  0  0  0  0  0  0  0
  151.2716  142.1056  157.3334 C   0  0  0  0  0  0  0  0  0  0  0  0
  151.5479  142.9805  158.3813 N   0  0  0  0  0  0  0  0  0  0  0  0
  152.3828  142.6414  159.5257 C   0  0  0  0  0  0  0  0  0  0  0  0
  152.1912  143.7659  160.5436 C   0  0  0  0  0  0  0  0  0  0  0  0
  151.8600  144.9696  159.6708 C   0  0  0  0  0  0  0  0  0  0  0  0
  151.0754  144.3549  158.5113 C   0  0  0  0  0  0  0  0  0  0  0  0
  152.0579  140.9490  157.3331 N   0  0  0  0  0  0  0  0  0  0  0  0
  151.9573  139.9667  156.4107 C   0  0  0  0  0  0  0  0  0  0  0  0
  152.6866  138.9783  156.4762 O   0  0  0  0  0  0  0  0  0  0  0  0
  150.9365  140.1892  155.3730 C   0  0  0  0  0  0  0  0  0  0  0  0
  150.7589  139.1146  154.2982 C   0  0  0  0  0  0  0  0  0  0  0  0
  150.5433  137.6943  154.8352 C   0  0  0  0  0  0  0  0  0  0  0  0
  151.4220  136.8526  154.5478 O   0  0  0  0  0  0  0  0  0  0  0  0
  149.5210  137.4636  155.5190 O   0  5  0  0  0  0  0  0  0  0  0  0
  152.7431  140.8319  158.0645 H   0  0  0  0  0  0  0  0  0  0  0  0
  149.5606  141.7798  153.3979 H   0  0  0  0  0  0  0  0  0  0  0  0
  148.5894  142.5688  154.6400 H   0  0  0  0  0  0  0  0  0  0  0  0
  148.3847  140.8457  154.3358 H   0  0  0  0  0  0  0  0  0  0  0  0
  152.1138  141.6726  159.9487 H   0  0  0  0  0  0  0  0  0  0  0  0
  153.4223  142.5916  159.1992 H   0  0  0  0  0  0  0  0  0  0  0  0
  151.3433  143.5369  161.1903 H   0  0  0  0  0  0  0  0  0  0  0  0
  153.0663  143.9219  161.1750 H   0  0  0  0  0  0  0  0  0  0  0  0
  151.3022  145.7427  160.1997 H   0  0  0  0  0  0  0  0  0  0  0  0
  152.7825  145.4148  159.2958 H   0  0  0  0  0  0  0  0  0  0  0  0
  151.2211  144.9240  157.5924 H   0  0  0  0  0  0  0  0  0  0  0  0
  150.0082  144.3398  158.7363 H   0  0  0  0  0  0  0  0  0  0  0  0
  149.9044  139.3736  153.6731 H   0  0  0  0  0  0  0  0  0  0  0  0
  151.6133  139.1039  153.6206 H   0  0  0  0  0  0  0  0  0  0  0  0
  1  2  1  0  0  0  0
  1 19  1  0  0  0  0
  1 20  1  0  0  0  0
  1 21  1  0  0  0  0
  2 13  2  0  0  0  0
  2  3  1  0  0  0  0
  3  4  2  0  0  0  0
  4  5  1  0  0  0  0
  4 10  1  0  0  0  0
  5  9  1  0  0  0  0
  5  6  1  0  0  0  0
  6  7  1  0  0  0  0
  6 22  1  0  0  0  0
  6 23  1  0  0  0  0
  7  8  1  0  0  0  0
  7 24  1  0  0  0  0
  7 25  1  0  0  0  0
  8  9  1  0  0  0  0
  8 26  1  0  0  0  0
  8 27  1  0  0  0  0
  9 28  1  0  0  0  0
  9 29  1  0  0  0  0
 10 18  1  0  0  0  0
 10 11  1  0  0  0  0
 11 12  2  0  0  0  0
 11 13  1  0  0  0  0
 13 14  1  0  0  0  0
 14 15  1  0  0  0  0
 14 30  1  0  0  0  0
 14 31  1  0  0  0  0
 15 16  2  0  0  0  0
 15 17  1  0  0  0  0
M  CHG  1  17  -1
M  END
> <s_m_source_file>
AV-unprocessed.smi

> <i_m_source_file_index>
993

> <i_lp_mmshare_version>
43012

> <i_f3d_flags>
0

> <s_epik_input>
W0NIMl0xW0NIMl1bQ0gyXVtDSDJdTjFjKG5jMltDSDNdKVtuSF1jKD1PKWMyW0NIMl1DKD1PKVtPSF0=

> <s_epik_cmdline>
J2VwaWtfcHl0aG9uJywgJy1waCcsICc3LjAnLCAnLXRuJywgJzgnLCAnLW1hJywgJzIwMCcsICctbWV0YWxfYmluZGluZycsICctaW1hZScsICc8aW5maWxlLm1hZT4nLCAnLW9tYWUnLCAnPG91dGZpbGUubWFlPic=

> <r_lp_tautomer_probability>
0.878553

> <r_epik_Ionization_Penalty>
0.00262988

> <r_epik_Ionization_Penalty_Charging>
0.000644725

> <r_epik_Ionization_Penalty_Neutral>
0.00198515

> <r_epik_State_Penalty>
0.0663044

> <r_epik_Charging_Adjusted_Penalty>
0.0669491

> <i_epik_Tot_Q>
-1

> <i_epik_Tot_abs_Q>
1

> <r_epik_Metal_State_Penalty>
0.275429

> <b_epik_Metal_Only>
0

> <s_lp_Force_Field>
OPLS_2005

> <r_lp_Energy>
24.8318

> <b_lp_Chiralities_Consistent>
1

> <s_lp_Variant>
AV-unprocessed.smi:993-1

> <Gold.Version>
5.8.1

> <Gold.Id.Protein>
6NUR|6NUR_protein|mol2

> <Gold.PLP.Fitness>
44.6617

> <Gold.PLP.PLP>
-36.0478

> <Gold.PLP.part.hbond>
-2.0000

> <Gold.PLP.part.metal>
0.0000

> <Gold.PLP.part.buried>
-2.6841

> <Gold.PLP.part.nonpolar>
-32.2633

> <Gold.PLP.part.repulsive>
1.0997

> <Gold.PLP.ligand.clash>
0.0000

> <Gold.PLP.ligand.torsion>
0.1241

> <Gold.PLP.Chemscore.Hbond>
2.9500

> <Gold.PLP.Chemscore.CHOScore>
0.0000

> <Gold.PLP.Chemscore.Metal>
0.0000

> <Gold.Chemscore.Hbonds>
donor molecule, donor type, donor heavy atom, donor atom, acceptor molecule, acceptor atom, score
      P1  H  7997  8010       L1    12  0.45
      P1  H 10752 10763       L1    16  2.00

> <Gold.PLP.Chemscore.Internal.Correction>
0.0121

> <Gold.Rescore>
     Score         DG    S(hbond)    S(metal)    S(lipo)     H(rot)  DE(clash)    DE(int)     intcor
     15.65     -15.83       1.97        0.00      65.19       1.51       0.02       0.15       ----

> <Gold.Chemscore.Fitness>
15.6550

> <Gold.Chemscore.DG>
-15.8265

> <Gold.Chemscore.ZeroCoef>
-5.4800

> <Gold.Chemscore.Hbond>
1.9696

> <Gold.Chemscore.Metal>
0.0000

> <Gold.Chemscore.Lipo>
65.1895

> <Gold.Chemscore.Internal_Hbond>
0.0000

> <Gold.Chemscore.DEClash>
0.0174

> <Gold.Chemscore.DEInternal>
0.1541

> <Gold.Chemscore.Rot>
1.5075

> <Gold.Chemscore.Internal.Correction>
   9.000000E+99

> <Gold.Chemscore.Hbonds>
donor molecule, donor type, donor heavy atom, donor atom, acceptor molecule, acceptor atom, score
      P1  H  7997  8010       L1    12  0.02
      P1  H 10752 10763       L1    16  0.99

> <Gold.Chemscore.Hbond.Weighted>
-6.5785

> <Gold.Chemscore.Metal.Weighted>
-0.0000

> <Gold.Chemscore.Lipo.Weighted>
-7.6272

> <Gold.Chemscore.Internal_Hbond.Weighted>
0.0000

> <Gold.Chemscore.DEClash.Weighted>
0.0174

> <Gold.Chemscore.DEInternal.Weighted>
0.1541

> <Gold.Chemscore.Rot.Weighted>
3.8592

> <Gold.Chemscore.Internal.Correction.Weighted>
   9.000000E+99

> <Gold.Protein.RotatedTorsions>
[ 6907 6896 6895 6894 ] final  101.83 input  -60.11 | X-H torsion
[ 7974 7965 7964 7962 ] final  -38.23 input  175.53 | X-H torsion
[ 8008 7997 7996 7995 ] final   92.95 input   59.86 | X-H torsion
[ 10167 10162 10161 10158 ] final  -88.46 input  -65.29 | X-H torsion
[ 10718 10713 10712 10709 ] final   44.87 input   66.30 | X-H torsion
[ 10763 10752 10751 10750 ] final   38.84 input  -60.55 | X-H torsion
[ 11005 11000 10999 10996 ] final  -89.03 input  -57.11 | X-H torsion

> <Gold.Protein.ActiveResidues>
 VAL166  LYS551  ARG553  GLY616  TRP617  ASP618  TYR619  PRO620  LYS621  CYS622 
 ASP623  PHE694  ASN695  SER759  ASP760  ASP761  ALA762  ILE779  LEU786  VAL792 
 PHE793  MET794  SER795  GLU796  ALA797  LYS798  CYS799  TRP800  GLU811  SER814 

> <Gold.Protein.RotatedAtoms>
  152.5339  134.0067  159.7919 H   0  0  0  0  0  0  0  0  0  0  0  0  # atno 6907 bound_to 6896
  151.0276  133.5811  159.2671 H   0  0  0  0  0  0  0  0  0  0  0  0  # atno 6908 bound_to 6896
  151.2828  135.0726  159.9229 H   0  0  0  0  0  0  0  0  0  0  0  0  # atno 6909 bound_to 6896
  146.0505  140.6487  142.9044 H   0  0  0  0  0  0  0  0  0  0  0  0  # atno 7974 bound_to 7965
  156.0412  140.3319  155.7246 H   0  0  0  0  0  0  0  0  0  0  0  0  # atno 8008 bound_to 7997
  155.5741  140.0630  157.2817 H   0  0  0  0  0  0  0  0  0  0  0  0  # atno 8009 bound_to 7997
  154.4394  140.1855  156.0898 H   0  0  0  0  0  0  0  0  0  0  0  0  # atno 8010 bound_to 7997
  140.3745  143.2778  151.9460 H   0  0  0  0  0  0  0  0  0  0  0  0  # atno 10167 bound_to 10162
  157.4315  130.8027  149.7608 H   0  0  0  0  0  0  0  0  0  0  0  0  # atno 10718 bound_to 10713
  152.9987  135.6238  154.2369 H   0  0  0  0  0  0  0  0  0  0  0  0  # atno 10763 bound_to 10752
  154.2110  135.2800  155.2960 H   0  0  0  0  0  0  0  0  0  0  0  0  # atno 10764 bound_to 10752
  154.5607  135.5706  153.7063 H   0  0  0  0  0  0  0  0  0  0  0  0  # atno 10765 bound_to 10752
  141.1592  133.7605  156.9536 H   0  0  0  0  0  0  0  0  0  0  0  0  # atno 11005 bound_to 11000
  144.7120  140.4074  143.7073 LP  0  0  0  0  0  0  0  0  0  0  0  0  # atno 17320 bound_to 7965
  145.6732  139.1603  143.2742 LP  0  0  0  0  0  0  0  0  0  0  0  0  # atno 17321 bound_to 7965
  139.4800  144.5876  151.7826 LP  0  0  0  0  0  0  0  0  0  0  0  0  # atno 17342 bound_to 10162
  140.5000  144.1183  150.5969 LP  0  0  0  0  0  0  0  0  0  0  0  0  # atno 17343 bound_to 10162
  155.9915  130.3937  150.2982 LP  0  0  0  0  0  0  0  0  0  0  0  0  # atno 17370 bound_to 10713
  157.1139  131.0229  151.3037 LP  0  0  0  0  0  0  0  0  0  0  0  0  # atno 17371 bound_to 10713
  140.1240  134.9398  157.2244 LP  0  0  0  0  0  0  0  0  0  0  0  0  # atno 17394 bound_to 11000
  140.3036  134.3104  155.7284 LP  0  0  0  0  0  0  0  0  0  0  0  0  # atno 17395 bound_to 11000

$$$$
