AV-unprocessed.smi:3342|AV-procd|sdf|12888|dock1
  -GOLD-   2272019293D 1   1.00000     0.00000
 Structure written by MMmdl.
 42 43  0  0  0  0  0  0  0  0  2 V2000
  153.8578  140.5199  160.9842 C   0  0  0  0  0  0  0  0  0  0  0  0
  152.8169  141.4571  160.3573 C   0  0  1  0  0  0  0  0  0  0  0  0
  153.4947  142.5816  159.5444 C   0  0  0  0  0  0  0  0  0  0  0  0
  152.5379  143.5323  158.9686 N   0  0  0  0  0  0  0  0  0  0  0  0
  152.2715  144.8078  159.3966 C   0  0  0  0  0  0  0  0  0  0  0  0
  151.3214  145.3139  158.5474 C   0  0  0  0  0  0  0  0  0  0  0  0
  151.0438  144.3249  157.6422 N   0  3  0  0  0  0  0  0  0  0  0  0
  151.7812  143.2406  157.9028 C   0  0  0  0  0  0  0  0  0  0  0  0
  151.9185  140.6672  159.5162 N   0  0  0  0  0  0  0  0  0  0  0  0
  152.2504  140.0371  158.3754 C   0  0  0  0  0  0  0  0  0  0  0  0
  153.4008  140.0447  157.9342 O   0  0  0  0  0  0  0  0  0  0  0  0
  151.2331  139.3608  157.7851 N   0  0  0  0  0  0  0  0  0  0  0  0
  149.7951  139.6319  157.9521 C   0  0  0  0  0  0  0  0  0  0  0  0
  149.2752  140.3376  156.6864 C   0  0  0  0  0  0  0  0  0  0  0  0
  149.5499  139.4889  155.4221 C   0  0  0  0  0  0  0  0  0  0  0  0
  149.1556  140.2509  154.1497 C   0  0  0  0  0  0  0  0  0  0  0  0
  148.2273  139.6929  153.3687 N   0  0  0  0  0  0  0  0  0  0  0  0
  149.6797  141.3283  153.8734 O   0  0  0  0  0  0  0  0  0  0  0  0
  151.0311  139.0457  155.3675 C   0  0  0  0  0  0  0  0  0  0  0  0
  151.4668  138.4034  156.6972 C   0  0  0  0  0  0  0  0  0  0  0  0
  154.5299  141.0665  161.6463 H   0  0  0  0  0  0  0  0  0  0  0  0
  154.4662  140.0326  160.2214 H   0  0  0  0  0  0  0  0  0  0  0  0
  153.3782  139.7392  161.5761 H   0  0  0  0  0  0  0  0  0  0  0  0
  152.2533  141.9035  161.1785 H   0  0  0  0  0  0  0  0  0  0  0  0
  154.1756  143.1514  160.1785 H   0  0  0  0  0  0  0  0  0  0  0  0
  154.0931  142.1664  158.7321 H   0  0  0  0  0  0  0  0  0  0  0  0
  152.7699  145.2514  160.2463 H   0  0  0  0  0  0  0  0  0  0  0  0
  150.8353  146.2784  158.5195 H   0  0  0  0  0  0  0  0  0  0  0  0
  151.7750  142.3161  157.3533 H   0  0  0  0  0  0  0  0  0  0  0  0
  150.9568  140.6048  159.8180 H   0  0  0  0  0  0  0  0  0  0  0  0
  149.2671  138.6878  158.0940 H   0  0  0  0  0  0  0  0  0  0  0  0
  149.5548  140.2292  158.8314 H   0  0  0  0  0  0  0  0  0  0  0  0
  148.2053  140.5256  156.7847 H   0  0  0  0  0  0  0  0  0  0  0  0
  149.7537  141.3151  156.6012 H   0  0  0  0  0  0  0  0  0  0  0  0
  148.9373  138.5877  155.4893 H   0  0  0  0  0  0  0  0  0  0  0  0
  147.9336  140.1577  152.5219 H   0  0  0  0  0  0  0  0  0  0  0  0
  147.8204  138.8067  153.6303 H   0  0  0  0  0  0  0  0  0  0  0  0
  151.1800  138.3373  154.5516 H   0  0  0  0  0  0  0  0  0  0  0  0
  151.6766  139.9001  155.1556 H   0  0  0  0  0  0  0  0  0  0  0  0
  152.5073  138.0820  156.6345 H   0  0  0  0  0  0  0  0  0  0  0  0
  150.8904  137.4959  156.8824 H   0  0  0  0  0  0  0  0  0  0  0  0
  150.3793  144.4015  156.8823 H   0  0  0  0  0  0  0  0  0  0  0  0
  1  2  1  0  0  0  0
  1 21  1  0  0  0  0
  1 22  1  0  0  0  0
  1 23  1  0  0  0  0
  2  3  1  0  0  0  0
  2  9  1  0  0  0  0
  2 24  1  0  0  0  0
  3  4  1  0  0  0  0
  3 25  1  0  0  0  0
  3 26  1  0  0  0  0
  4  8  1  0  0  0  0
  4  5  1  0  0  0  0
  5  6  2  0  0  0  0
  5 27  1  0  0  0  0
  6  7  1  0  0  0  0
  6 28  1  0  0  0  0
  7  8  2  0  0  0  0
  7 42  1  0  0  0  0
  8 29  1  0  0  0  0
  9 10  1  0  0  0  0
  9 30  1  0  0  0  0
 10 11  2  0  0  0  0
 10 12  1  0  0  0  0
 12 20  1  0  0  0  0
 12 13  1  0  0  0  0
 13 14  1  0  0  0  0
 13 31  1  0  0  0  0
 13 32  1  0  0  0  0
 14 15  1  0  0  0  0
 14 33  1  0  0  0  0
 14 34  1  0  0  0  0
 15 16  1  0  0  0  0
 15 19  1  0  0  0  0
 15 35  1  0  0  0  0
 16 17  1  0  0  0  0
 16 18  2  0  0  0  0
 17 36  1  0  0  0  0
 17 37  1  0  0  0  0
 19 20  1  0  0  0  0
 19 38  1  0  0  0  0
 19 39  1  0  0  0  0
 20 40  1  0  0  0  0
 20 41  1  0  0  0  0
M  CHG  1   7   1
M  END
> <s_m_source_file>
AV-unprocessed.smi

> <i_m_source_file_index>
3342

> <i_lp_mmshare_version>
43012

> <i_f3d_flags>
0

> <s_epik_input>
W2NIXTFuW2NIXVtjSF1uMVtDSDJdW0NAQEhdKFtDSDNdKVtOSF1DKD1PKU4yW0NIMl1bQ0gyXVtDSF0oQyg9TylbTkgyXSlbQ0gyXVtDSDJdMg==

> <s_epik_cmdline>
J2VwaWtfcHl0aG9uJywgJy1waCcsICc3LjAnLCAnLXRuJywgJzgnLCAnLW1hJywgJzIwMCcsICctbWV0YWxfYmluZGluZycsICctaW1hZScsICc8aW5maWxlLm1hZT4nLCAnLW9tYWUnLCAnPG91dGZpbGUubWFlPic=

> <r_lp_tautomer_probability>
1

> <r_epik_Ionization_Penalty>
0.254015

> <r_epik_Ionization_Penalty_Charging>
0

> <r_epik_Ionization_Penalty_Neutral>
0.254015

> <r_epik_State_Penalty>
0.245417

> <r_epik_Charging_Adjusted_Penalty>
0.245417

> <i_epik_Tot_Q>
1

> <i_epik_Tot_abs_Q>
1

> <r_epik_Metal_State_Penalty>
0.535589

> <b_epik_Metal_Only>
0

> <s_lp_Force_Field>
OPLS_2005

> <r_lp_Energy>
31.4878

> <b_lp_Chiralities_Consistent>
1

> <s_lp_Variant>
AV-unprocessed.smi:3342-2

> <Gold.Version>
5.8.1

> <Gold.Id.Protein>
6NUR|6NUR_protein|mol2

> <Gold.PLP.Fitness>
49.3270

> <Gold.PLP.PLP>
-38.2481

> <Gold.PLP.part.hbond>
-4.7383

> <Gold.PLP.part.metal>
0.0000

> <Gold.PLP.part.buried>
-2.1646

> <Gold.PLP.part.nonpolar>
-31.4487

> <Gold.PLP.part.repulsive>
0.6682

> <Gold.PLP.ligand.clash>
0.0000

> <Gold.PLP.ligand.torsion>
0.3841

> <Gold.PLP.Chemscore.Hbond>
3.9227

> <Gold.PLP.Chemscore.CHOScore>
0.0000

> <Gold.PLP.Chemscore.Metal>
0.0000

> <Gold.Chemscore.Hbonds>
donor molecule, donor type, donor heavy atom, donor atom, acceptor molecule, acceptor atom, score
      L1  H     7    42       P1  8028  2.00
      L1  H    17    36       P1  7957  0.10
      P1  H  7989  7998       L1    18  0.26
      P1  H  7997  8008       L1    11  0.91
      P1  H  8011  8017       L1    18  0.77

> <Gold.PLP.Chemscore.Internal.Correction>
0.0790

> <Gold.Rescore>
     Score         DG    S(hbond)    S(metal)    S(lipo)     H(rot)  DE(clash)    DE(int)     intcor
     14.56     -17.44       2.76        0.00      74.69       2.34       0.40       2.48       ----

> <Gold.Chemscore.Fitness>
14.5554

> <Gold.Chemscore.DG>
-17.4360

> <Gold.Chemscore.ZeroCoef>
-5.4800

> <Gold.Chemscore.Hbond>
2.7566

> <Gold.Chemscore.Metal>
0.0000

> <Gold.Chemscore.Lipo>
74.6936

> <Gold.Chemscore.Internal_Hbond>
0.0000

> <Gold.Chemscore.DEClash>
0.4018

> <Gold.Chemscore.DEInternal>
2.4788

> <Gold.Chemscore.Rot>
2.3400

> <Gold.Chemscore.Internal.Correction>
   9.000000E+99

> <Gold.Chemscore.Hbonds>
donor molecule, donor type, donor heavy atom, donor atom, acceptor molecule, acceptor atom, score
      L1  H     7    42       P1  8028  0.90
      L1  H    17    36       P1  7957  0.11
      P1  H  7989  7998       L1    18  0.14
      P1  H  7997  8008       L1    11  0.84
      P1  H  8011  8017       L1    18  0.78

> <Gold.Chemscore.Hbond.Weighted>
-9.2072

> <Gold.Chemscore.Metal.Weighted>
-0.0000

> <Gold.Chemscore.Lipo.Weighted>
-8.7392

> <Gold.Chemscore.Internal_Hbond.Weighted>
0.0000

> <Gold.Chemscore.DEClash.Weighted>
0.4018

> <Gold.Chemscore.DEInternal.Weighted>
2.4788

> <Gold.Chemscore.Rot.Weighted>
5.9904

> <Gold.Chemscore.Internal.Correction.Weighted>
   9.000000E+99

> <Gold.Protein.RotatedTorsions>
[ 6907 6896 6895 6894 ] final  -56.34 input  -60.11 | X-H torsion
[ 7974 7965 7964 7962 ] final   16.45 input  175.53 | X-H torsion
[ 8008 7997 7996 7995 ] final  -78.66 input   59.86 | X-H torsion
[ 10167 10162 10161 10158 ] final   77.53 input  -65.29 | X-H torsion
[ 10718 10713 10712 10709 ] final -174.07 input   66.30 | X-H torsion
[ 10763 10752 10751 10750 ] final   65.18 input  -60.55 | X-H torsion
[ 11005 11000 10999 10996 ] final  121.82 input  -57.11 | X-H torsion

> <Gold.Protein.ActiveResidues>
 VAL166  LYS551  ARG553  GLY616  TRP617  ASP618  TYR619  PRO620  LYS621  CYS622 
 ASP623  PHE694  ASN695  SER759  ASP760  ASP761  ALA762  ILE779  LEU786  VAL792 
 PHE793  MET794  SER795  GLU796  ALA797  LYS798  CYS799  TRP800  GLU811  SER814 

> <Gold.Protein.RotatedAtoms>
  150.8176  134.7366  159.6743 H   0  0  0  0  0  0  0  0  0  0  0  0  # atno 6907 bound_to 6896
  152.4294  134.5804  159.9956 H   0  0  0  0  0  0  0  0  0  0  0  0  # atno 6908 bound_to 6896
  151.5996  133.3320  159.3080 H   0  0  0  0  0  0  0  0  0  0  0  0  # atno 6909 bound_to 6896
  146.2249  139.8745  142.8581 H   0  0  0  0  0  0  0  0  0  0  0  0  # atno 7974 bound_to 7965
  154.5710  140.0691  156.8964 H   0  0  0  0  0  0  0  0  0  0  0  0  # atno 8008 bound_to 7997
  155.2634  140.3360  155.4253 H   0  0  0  0  0  0  0  0  0  0  0  0  # atno 8009 bound_to 7997
  156.2118  140.1762  156.7663 H   0  0  0  0  0  0  0  0  0  0  0  0  # atno 8010 bound_to 7997
  139.9806  144.5829  150.7904 H   0  0  0  0  0  0  0  0  0  0  0  0  # atno 10167 bound_to 10162
  156.7796  130.9479  151.3120 H   0  0  0  0  0  0  0  0  0  0  0  0  # atno 10718 bound_to 10713
  153.0086  135.5366  154.6626 H   0  0  0  0  0  0  0  0  0  0  0  0  # atno 10763 bound_to 10752
  154.5831  135.2852  155.0715 H   0  0  0  0  0  0  0  0  0  0  0  0  # atno 10764 bound_to 10752
  154.1836  135.6512  153.5093 H   0  0  0  0  0  0  0  0  0  0  0  0  # atno 10765 bound_to 10752
  139.9242  134.9640  156.8015 H   0  0  0  0  0  0  0  0  0  0  0  0  # atno 11005 bound_to 11000
  145.2574  141.0065  143.3846 LP  0  0  0  0  0  0  0  0  0  0  0  0  # atno 17320 bound_to 7965
  144.9326  139.4281  143.6488 LP  0  0  0  0  0  0  0  0  0  0  0  0  # atno 17321 bound_to 7965
  140.7490  143.2932  151.3275 LP  0  0  0  0  0  0  0  0  0  0  0  0  # atno 17342 bound_to 10162
  139.6413  144.0535  152.2556 LP  0  0  0  0  0  0  0  0  0  0  0  0  # atno 17343 bound_to 10162
  157.6652  130.9001  149.9917 LP  0  0  0  0  0  0  0  0  0  0  0  0  # atno 17370 bound_to 10713
  156.1226  130.3645  149.9862 LP  0  0  0  0  0  0  0  0  0  0  0  0  # atno 17371 bound_to 10713
  140.6386  133.9839  155.7696 LP  0  0  0  0  0  0  0  0  0  0  0  0  # atno 17394 bound_to 11000
  141.0786  134.0096  157.3420 LP  0  0  0  0  0  0  0  0  0  0  0  0  # atno 17395 bound_to 11000

$$$$
