AV-unprocessed.smi:3029|AV-procd|sdf|11528|dock8
  -GOLD-   2272016473D 1   1.00000     0.00000
 Structure written by MMmdl.
 42 43  0  0  0  0  0  0  0  0  4 V2000
  151.5657  135.1658  155.3280 O   0  0  0  0  0  0  0  0  0  0  0  0
  151.0101  136.2559  155.1913 C   0  0  0  0  0  0  0  0  0  0  0  0
  151.7654  137.4976  154.9953 C   0  0  0  0  0  0  0  0  0  0  0  0
  151.1484  138.6888  154.8666 C   0  0  0  0  0  0  0  0  0  0  0  0
  149.7019  138.7779  154.9217 C   0  0  0  0  0  0  0  0  0  0  0  0
  149.0293  140.0527  154.8031 N   0  3  0  0  0  0  0  0  0  0  0  0
  147.8075  140.0931  154.9129 O   0  0  0  0  0  0  0  0  0  0  0  0
  149.7035  141.0566  154.5978 O   0  5  0  0  0  0  0  0  0  0  0  0
  149.0100  137.6341  155.0931 C   0  0  0  0  0  0  0  0  0  0  0  0
  149.6492  136.3854  155.2174 N   0  0  0  0  0  0  0  0  0  0  0  0
  148.7879  135.2099  155.4029 C   0  0  0  0  0  0  0  0  0  0  0  0
  147.4319  135.3905  154.7020 C   0  0  0  0  0  0  0  0  0  0  0  0
  147.4652  134.8189  153.3398 N   0  3  0  0  0  0  0  0  0  0  0  0
  146.1438  134.6319  152.6964 C   0  0  1  0  0  0  0  0  0  0  0  0
  145.7260  135.9339  151.9747 C   0  0  0  0  0  0  0  0  0  0  0  0
  144.3880  135.7852  151.2405 C   0  0  0  0  0  0  0  0  0  0  0  0
  144.4421  134.6212  150.2465 C   0  0  0  0  0  0  0  0  0  0  0  0
  144.8239  133.3170  150.9584 C   0  0  0  0  0  0  0  0  0  0  0  0
  146.1708  133.4258  151.7120 C   0  0  2  0  0  0  0  0  0  0  0  0
  146.5016  132.0771  152.4016 C   0  0  0  0  0  0  0  0  0  0  0  0
  146.2664  131.0573  151.5758 F   0  0  0  0  0  0  0  0  0  0  0  0
  147.7859  132.0514  152.7581 F   0  0  0  0  0  0  0  0  0  0  0  0
  145.7766  131.9078  153.5070 F   0  0  0  0  0  0  0  0  0  0  0  0
  152.8440  137.4544  154.9524 H   0  0  0  0  0  0  0  0  0  0  0  0
  151.7474  139.5761  154.7228 H   0  0  0  0  0  0  0  0  0  0  0  0
  147.9316  137.5946  155.1524 H   0  0  0  0  0  0  0  0  0  0  0  0
  149.2842  134.3178  155.0177 H   0  0  0  0  0  0  0  0  0  0  0  0
  148.6375  135.0122  156.4662 H   0  0  0  0  0  0  0  0  0  0  0  0
  146.6451  134.8979  155.2749 H   0  0  0  0  0  0  0  0  0  0  0  0
  147.1818  136.4504  154.6553 H   0  0  0  0  0  0  0  0  0  0  0  0
  148.0412  135.3982  152.7459 H   0  0  0  0  0  0  0  0  0  0  0  0
  145.4106  134.4126  153.4743 H   0  0  0  0  0  0  0  0  0  0  0  0
  145.6433  136.7573  152.6838 H   0  0  0  0  0  0  0  0  0  0  0  0
  146.4978  136.2222  151.2594 H   0  0  0  0  0  0  0  0  0  0  0  0
  143.5877  135.6178  151.9626 H   0  0  0  0  0  0  0  0  0  0  0  0
  144.1453  136.7105  150.7174 H   0  0  0  0  0  0  0  0  0  0  0  0
  143.4757  134.5073  149.7542 H   0  0  0  0  0  0  0  0  0  0  0  0
  145.1664  134.8387  149.4604 H   0  0  0  0  0  0  0  0  0  0  0  0
  144.0315  133.0451  151.6570 H   0  0  0  0  0  0  0  0  0  0  0  0
  144.8683  132.5144  150.2217 H   0  0  0  0  0  0  0  0  0  0  0  0
  146.9464  133.6153  150.9680 H   0  0  0  0  0  0  0  0  0  0  0  0
  147.8978  133.9088  153.4132 H   0  0  0  0  0  0  0  0  0  0  0  0
  1  2  2  0  0  0  0
  2 10  1  0  0  0  0
  2  3  1  0  0  0  0
  3  4  2  0  0  0  0
  3 24  1  0  0  0  0
  4  5  1  0  0  0  0
  4 25  1  0  0  0  0
  5  6  1  0  0  0  0
  5  9  2  0  0  0  0
  6  7  2  0  0  0  0
  6  8  1  0  0  0  0
  9 10  1  0  0  0  0
  9 26  1  0  0  0  0
 10 11  1  0  0  0  0
 11 12  1  0  0  0  0
 11 27  1  0  0  0  0
 11 28  1  0  0  0  0
 12 13  1  0  0  0  0
 12 29  1  0  0  0  0
 12 30  1  0  0  0  0
 13 14  1  0  0  0  0
 13 31  1  0  0  0  0
 13 42  1  0  0  0  0
 14 19  1  0  0  0  0
 14 15  1  0  0  0  0
 14 32  1  0  0  0  0
 15 16  1  0  0  0  0
 15 33  1  0  0  0  0
 15 34  1  0  0  0  0
 16 17  1  0  0  0  0
 16 35  1  0  0  0  0
 16 36  1  0  0  0  0
 17 18  1  0  0  0  0
 17 37  1  0  0  0  0
 17 38  1  0  0  0  0
 18 19  1  0  0  0  0
 18 39  1  0  0  0  0
 18 40  1  0  0  0  0
 19 20  1  0  0  0  0
 19 41  1  0  0  0  0
 20 21  1  0  0  0  0
 20 22  1  0  0  0  0
 20 23  1  0  0  0  0
M  CHG  1   6   1
M  CHG  1   8  -1
M  CHG  1  13   1
M  END
> <s_m_source_file>
AV-unprocessed.smi

> <i_m_source_file_index>
3029

> <i_lp_mmshare_version>
43012

> <i_f3d_flags>
0

> <s_epik_input>
Tz1jMVtjSF1bY0hdYyhbTitdKD1PKVtPLV0pW2NIXW4xW0NIMl1bQ0gyXVtOSF1bQ0BASF0yW0NIMl1bQ0gyXVtDSDJdW0NIMl1bQ0BIXTJDKEYpKEYpRg==

> <s_epik_cmdline>
J2VwaWtfcHl0aG9uJywgJy1waCcsICc3LjAnLCAnLXRuJywgJzgnLCAnLW1hJywgJzIwMCcsICctbWV0YWxfYmluZGluZycsICctaW1hZScsICc8aW5maWxlLm1hZT4nLCAnLW9tYWUnLCAnPG91dGZpbGUubWFlPic=

> <r_lp_tautomer_probability>
1

> <r_epik_Ionization_Penalty>
0.037386

> <r_epik_Ionization_Penalty_Charging>
0.037386

> <r_epik_Ionization_Penalty_Neutral>
0

> <r_epik_State_Penalty>
0.0312892

> <r_epik_Charging_Adjusted_Penalty>
0.0686752

> <i_epik_Tot_Q>
1

> <i_epik_Tot_abs_Q>
3

> <r_epik_Metal_State_Penalty>
0.0312892

> <b_epik_Metal_Only>
0

> <s_lp_Force_Field>
OPLS_2005

> <r_lp_Energy>
31.4453

> <b_lp_Chiralities_Consistent>
1

> <s_lp_Variant>
AV-unprocessed.smi:3029-4

> <Gold.Version>
5.8.1

> <Gold.Id.Protein>
6NUR|6NUR_protein|mol2

> <Gold.PLP.Fitness>
44.9503

> <Gold.PLP.PLP>
-36.1660

> <Gold.PLP.part.hbond>
-4.0000

> <Gold.PLP.part.metal>
0.0000

> <Gold.PLP.part.buried>
-3.4707

> <Gold.PLP.part.nonpolar>
-30.7316

> <Gold.PLP.part.repulsive>
1.0440

> <Gold.PLP.ligand.clash>
0.0000

> <Gold.PLP.ligand.torsion>
1.2898

> <Gold.PLP.Chemscore.Hbond>
3.7680

> <Gold.PLP.Chemscore.CHOScore>
0.0000

> <Gold.PLP.Chemscore.Metal>
0.0000

> <Gold.Chemscore.Hbonds>
donor molecule, donor type, donor heavy atom, donor atom, acceptor molecule, acceptor atom, score
      L1  H    13    31       P1  7948  1.85
      P1  H  7989  7998       L1     8  0.32
      P1  H 10752 10765       L1     1  0.54

> <Gold.PLP.Chemscore.Internal.Correction>
0.0598

> <Gold.Rescore>
     Score         DG    S(hbond)    S(metal)    S(lipo)     H(rot)  DE(clash)    DE(int)     intcor
     14.66     -17.29       2.64        0.00      67.29       1.90       0.26       2.37       ----

> <Gold.Chemscore.Fitness>
14.6566

> <Gold.Chemscore.DG>
-17.2875

> <Gold.Chemscore.ZeroCoef>
-5.4800

> <Gold.Chemscore.Hbond>
2.6371

> <Gold.Chemscore.Metal>
0.0000

> <Gold.Chemscore.Lipo>
67.2917

> <Gold.Chemscore.Internal_Hbond>
0.0000

> <Gold.Chemscore.DEClash>
0.2639

> <Gold.Chemscore.DEInternal>
2.3671

> <Gold.Chemscore.Rot>
1.9037

> <Gold.Chemscore.Internal.Correction>
   9.000000E+99

> <Gold.Chemscore.Hbonds>
donor molecule, donor type, donor heavy atom, donor atom, acceptor molecule, acceptor atom, score
      L1  H    13    31       P1  7948  0.88
      P1  H  7989  7998       L1     8  0.32
      P1  H 10752 10765       L1     1  0.08

> <Gold.Chemscore.Hbond.Weighted>
-8.8080

> <Gold.Chemscore.Metal.Weighted>
-0.0000

> <Gold.Chemscore.Lipo.Weighted>
-7.8731

> <Gold.Chemscore.Internal_Hbond.Weighted>
0.0000

> <Gold.Chemscore.DEClash.Weighted>
0.2639

> <Gold.Chemscore.DEInternal.Weighted>
2.3671

> <Gold.Chemscore.Rot.Weighted>
4.8736

> <Gold.Chemscore.Internal.Correction.Weighted>
   9.000000E+99

> <Gold.Protein.RotatedTorsions>
[ 6907 6896 6895 6894 ] final  137.07 input  -60.11 | X-H torsion
[ 7974 7965 7964 7962 ] final   75.00 input  175.53 | X-H torsion
[ 8008 7997 7996 7995 ] final -104.50 input   59.86 | X-H torsion
[ 10167 10162 10161 10158 ] final   74.01 input  -65.29 | X-H torsion
[ 10718 10713 10712 10709 ] final -134.22 input   66.30 | X-H torsion
[ 10763 10752 10751 10750 ] final  172.06 input  -60.55 | X-H torsion
[ 11005 11000 10999 10996 ] final -163.81 input  -57.11 | X-H torsion

> <Gold.Protein.ActiveResidues>
 VAL166  LYS551  ARG553  GLY616  TRP617  ASP618  TYR619  PRO620  LYS621  CYS622 
 ASP623  PHE694  ASN695  SER759  ASP760  ASP761  ALA762  ILE779  LEU786  VAL792 
 PHE793  MET794  SER795  GLU796  ALA797  LYS798  CYS799  TRP800  GLU811  SER814 

> <Gold.Protein.RotatedAtoms>
  152.2823  133.5482  159.5504 H   0  0  0  0  0  0  0  0  0  0  0  0  # atno 6907 bound_to 6896
  150.7201  134.0547  159.3819 H   0  0  0  0  0  0  0  0  0  0  0  0  # atno 6908 bound_to 6896
  151.8457  135.0575  160.0504 H   0  0  0  0  0  0  0  0  0  0  0  0  # atno 6909 bound_to 6896
  145.7211  139.2649  143.1595 H   0  0  0  0  0  0  0  0  0  0  0  0  # atno 7974 bound_to 7965
  154.8862  140.0417  157.1811 H   0  0  0  0  0  0  0  0  0  0  0  0  # atno 8008 bound_to 7997
  154.8588  140.2940  155.5531 H   0  0  0  0  0  0  0  0  0  0  0  0  # atno 8009 bound_to 7997
  156.2998  140.2451  156.3559 H   0  0  0  0  0  0  0  0  0  0  0  0  # atno 8010 bound_to 7997
  140.0184  144.5560  150.7602 H   0  0  0  0  0  0  0  0  0  0  0  0  # atno 10167 bound_to 10162
  156.2531  130.7165  151.1072 H   0  0  0  0  0  0  0  0  0  0  0  0  # atno 10718 bound_to 10713
  154.4207  135.2758  155.1977 H   0  0  0  0  0  0  0  0  0  0  0  0  # atno 10763 bound_to 10752
  154.3924  135.6063  153.5854 H   0  0  0  0  0  0  0  0  0  0  0  0  # atno 10764 bound_to 10752
  152.9833  135.5906  154.4503 H   0  0  0  0  0  0  0  0  0  0  0  0  # atno 10765 bound_to 10752
  140.5939  134.5016  157.5196 H   0  0  0  0  0  0  0  0  0  0  0  0  # atno 11005 bound_to 11000
  146.0625  140.7956  142.9728 LP  0  0  0  0  0  0  0  0  0  0  0  0  # atno 17320 bound_to 7965
  144.6916  140.3218  143.7231 LP  0  0  0  0  0  0  0  0  0  0  0  0  # atno 17321 bound_to 7965
  140.7353  143.2739  151.3803 LP  0  0  0  0  0  0  0  0  0  0  0  0  # atno 17342 bound_to 10162
  139.6157  144.1008  152.2343 LP  0  0  0  0  0  0  0  0  0  0  0  0  # atno 17343 bound_to 10162
  157.7222  131.0674  150.6086 LP  0  0  0  0  0  0  0  0  0  0  0  0  # atno 17370 bound_to 10713
  156.6168  130.4395  149.5837 LP  0  0  0  0  0  0  0  0  0  0  0  0  # atno 17371 bound_to 10713
  139.9262  134.8052  156.1063 LP  0  0  0  0  0  0  0  0  0  0  0  0  # atno 17394 bound_to 11000
  141.0917  133.6712  156.2555 LP  0  0  0  0  0  0  0  0  0  0  0  0  # atno 17395 bound_to 11000

$$$$
