AV-unprocessed.smi:3132|AV-procd|sdf|11935|dock4
  -GOLD-   2272017323D 1   1.00000     0.00000
 Structure written by MMmdl.
 33 34  0  0  0  0  0  0  0  0  1 V2000
  148.3814  133.2361  153.5122 C   0  0  0  0  0  0  0  0  0  0  0  0
  147.5110  132.7268  152.3531 C   0  0  2  0  0  0  0  0  0  0  0  0
  146.0608  133.2327  152.4705 C   0  0  0  0  0  0  0  0  0  0  0  0
  145.2967  133.0041  151.2574 N   0  0  0  0  0  0  0  0  0  0  0  0
  143.9839  133.3838  151.0088 C   0  0  0  0  0  0  0  0  0  0  0  0
  143.6849  132.9530  149.7361 C   0  0  0  0  0  0  0  0  0  0  0  0
  144.7925  132.3131  149.1851 N   0  0  0  0  0  0  0  0  0  0  0  0
  145.7075  132.3833  150.1433 C   0  0  0  0  0  0  0  0  0  0  0  0
  147.5283  131.2662  152.3232 N   0  0  0  0  0  0  0  0  0  0  0  0
  147.0254  130.4562  153.2683 C   0  0  0  0  0  0  0  0  0  0  0  0
  146.4623  130.8739  154.2804 O   0  0  0  0  0  0  0  0  0  0  0  0
  147.1975  128.9451  153.0560 C   0  0  1  0  0  0  0  0  0  0  0  0
  146.5749  128.4163  151.7495 C   0  0  0  0  0  0  0  0  0  0  0  0
  147.7368  127.7565  151.0266 C   0  0  0  0  0  0  0  0  0  0  0  0
  148.7131  127.4633  152.1567 C   0  0  0  0  0  0  0  0  0  0  0  0
  148.5831  128.6116  152.9763 O   0  0  0  0  0  0  0  0  0  0  0  0
  148.3973  134.3260  153.5403 H   0  0  0  0  0  0  0  0  0  0  0  0
  149.4128  132.8965  153.4109 H   0  0  0  0  0  0  0  0  0  0  0  0
  148.0074  132.8841  154.4743 H   0  0  0  0  0  0  0  0  0  0  0  0
  147.9286  133.1125  151.4211 H   0  0  0  0  0  0  0  0  0  0  0  0
  145.5500  132.7490  153.3043 H   0  0  0  0  0  0  0  0  0  0  0  0
  146.0514  134.3038  152.6767 H   0  0  0  0  0  0  0  0  0  0  0  0
  143.3870  133.9110  151.7383 H   0  0  0  0  0  0  0  0  0  0  0  0
  142.7653  133.0541  149.1786 H   0  0  0  0  0  0  0  0  0  0  0  0
  146.6996  131.9700  150.0339 H   0  0  0  0  0  0  0  0  0  0  0  0
  147.9744  130.8322  151.5277 H   0  0  0  0  0  0  0  0  0  0  0  0
  146.7649  128.4198  153.9088 H   0  0  0  0  0  0  0  0  0  0  0  0
  145.8016  127.6826  151.9795 H   0  0  0  0  0  0  0  0  0  0  0  0
  146.1182  129.1894  151.1300 H   0  0  0  0  0  0  0  0  0  0  0  0
  147.4452  126.8641  150.4722 H   0  0  0  0  0  0  0  0  0  0  0  0
  148.1860  128.4615  150.3261 H   0  0  0  0  0  0  0  0  0  0  0  0
  148.4154  126.5740  152.7144 H   0  0  0  0  0  0  0  0  0  0  0  0
  149.7372  127.3300  151.8078 H   0  0  0  0  0  0  0  0  0  0  0  0
  1  2  1  0  0  0  0
  1 17  1  0  0  0  0
  1 18  1  0  0  0  0
  1 19  1  0  0  0  0
  2  3  1  0  0  0  0
  2  9  1  0  0  0  0
  2 20  1  0  0  0  0
  3  4  1  0  0  0  0
  3 21  1  0  0  0  0
  3 22  1  0  0  0  0
  4  8  1  0  0  0  0
  4  5  1  0  0  0  0
  5  6  2  0  0  0  0
  5 23  1  0  0  0  0
  6  7  1  0  0  0  0
  6 24  1  0  0  0  0
  7  8  2  0  0  0  0
  8 25  1  0  0  0  0
  9 10  1  0  0  0  0
  9 26  1  0  0  0  0
 10 11  2  0  0  0  0
 10 12  1  0  0  0  0
 12 16  1  0  0  0  0
 12 13  1  0  0  0  0
 12 27  1  0  0  0  0
 13 14  1  0  0  0  0
 13 28  1  0  0  0  0
 13 29  1  0  0  0  0
 14 15  1  0  0  0  0
 14 30  1  0  0  0  0
 14 31  1  0  0  0  0
 15 16  1  0  0  0  0
 15 32  1  0  0  0  0
 15 33  1  0  0  0  0
M  END
> <s_m_source_file>
AV-unprocessed.smi

> <i_m_source_file_index>
3132

> <i_lp_mmshare_version>
43012

> <i_f3d_flags>
0

> <s_epik_input>
W2NIXTFuW2NIXVtjSF1uMVtDSDJdW0NAQEhdKFtDSDNdKVtOSF1DKD1PKVtDQEBIXTJbQ0gyXVtDSDJdW0NIMl1PMg==

> <s_epik_cmdline>
J2VwaWtfcHl0aG9uJywgJy1waCcsICc3LjAnLCAnLXRuJywgJzgnLCAnLW1hJywgJzIwMCcsICctbWV0YWxfYmluZGluZycsICctaW1hZScsICc8aW5maWxlLm1hZT4nLCAnLW9tYWUnLCAnPG91dGZpbGUubWFlPic=

> <r_lp_tautomer_probability>
1

> <r_epik_Ionization_Penalty>
0.630322

> <r_epik_Ionization_Penalty_Charging>
0.630322

> <r_epik_Ionization_Penalty_Neutral>
3.82652e-08

> <r_epik_State_Penalty>
0.647117

> <r_epik_Charging_Adjusted_Penalty>
1.27744

> <i_epik_Tot_Q>
0

> <i_epik_Tot_abs_Q>
0

> <r_epik_Metal_State_Penalty>
0.309095

> <b_epik_Metal_Only>
0

> <s_lp_Force_Field>
OPLS_2005

> <r_lp_Energy>
19.804

> <b_lp_Chiralities_Consistent>
1

> <s_lp_Variant>
AV-unprocessed.smi:3132-7

> <Gold.Version>
5.8.1

> <Gold.Id.Protein>
6NUR|6NUR_protein|mol2

> <Gold.PLP.Fitness>
42.1437

> <Gold.PLP.PLP>
-33.8605

> <Gold.PLP.part.hbond>
-1.3737

> <Gold.PLP.part.metal>
0.0000

> <Gold.PLP.part.buried>
-4.0721

> <Gold.PLP.part.nonpolar>
-28.7892

> <Gold.PLP.part.repulsive>
0.5058

> <Gold.PLP.ligand.clash>
0.0000

> <Gold.PLP.ligand.torsion>
0.0910

> <Gold.PLP.Chemscore.Hbond>
1.0000

> <Gold.PLP.Chemscore.CHOScore>
1.8161

> <Gold.PLP.Chemscore.Metal>
0.0000

> <Gold.Chemscore.Hbonds>
donor molecule, donor type, donor heavy atom, donor atom, acceptor molecule, acceptor atom, score
      L1  H     9    26       P1 10747  1.00
      L1  C     6    24       P1 10186  1.00
      L1  C     8    25       P1 10747  0.99

> <Gold.PLP.Chemscore.Internal.Correction>
0.0169

> <Gold.Rescore>
     Score         DG    S(hbond)    S(metal)    S(lipo)     H(rot)  DE(clash)    DE(int)     intcor
      9.33     -12.18       0.97        0.00      70.38       1.86       0.29       2.55       ----

> <Gold.Chemscore.Fitness>
9.3292

> <Gold.Chemscore.DG>
-12.1778

> <Gold.Chemscore.ZeroCoef>
-5.4800

> <Gold.Chemscore.Hbond>
0.9681

> <Gold.Chemscore.Metal>
0.0000

> <Gold.Chemscore.Lipo>
70.3848

> <Gold.Chemscore.Internal_Hbond>
0.0000

> <Gold.Chemscore.DEClash>
0.2946

> <Gold.Chemscore.DEInternal>
2.5539

> <Gold.Chemscore.Rot>
1.8636

> <Gold.Chemscore.Internal.Correction>
   9.000000E+99

> <Gold.Chemscore.Hbonds>
donor molecule, donor type, donor heavy atom, donor atom, acceptor molecule, acceptor atom, score
      L1  H     9    26       P1 10747  0.95

> <Gold.Chemscore.Hbond.Weighted>
-3.2336

> <Gold.Chemscore.Metal.Weighted>
-0.0000

> <Gold.Chemscore.Lipo.Weighted>
-8.2350

> <Gold.Chemscore.Internal_Hbond.Weighted>
0.0000

> <Gold.Chemscore.DEClash.Weighted>
0.2946

> <Gold.Chemscore.DEInternal.Weighted>
2.5539

> <Gold.Chemscore.Rot.Weighted>
4.7709

> <Gold.Chemscore.Internal.Correction.Weighted>
   9.000000E+99

> <Gold.Protein.RotatedTorsions>
[ 6907 6896 6895 6894 ] final   80.91 input  -60.11 | X-H torsion
[ 7974 7965 7964 7962 ] final  -17.58 input  175.53 | X-H torsion
[ 8008 7997 7996 7995 ] final   15.88 input   59.86 | X-H torsion
[ 10167 10162 10161 10158 ] final   35.18 input  -65.29 | X-H torsion
[ 10718 10713 10712 10709 ] final -161.20 input   66.30 | X-H torsion
[ 10763 10752 10751 10750 ] final  -35.34 input  -60.55 | X-H torsion
[ 11005 11000 10999 10996 ] final -124.60 input  -57.11 | X-H torsion

> <Gold.Protein.ActiveResidues>
 VAL166  LYS551  ARG553  GLY616  TRP617  ASP618  TYR619  PRO620  LYS621  CYS622 
 ASP623  PHE694  ASN695  SER759  ASP760  ASP761  ALA762  ILE779  LEU786  VAL792 
 PHE793  MET794  SER795  GLU796  ALA797  LYS798  CYS799  TRP800  GLU811  SER814 

> <Gold.Protein.RotatedAtoms>
  152.5251  134.3284  159.9173 H   0  0  0  0  0  0  0  0  0  0  0  0  # atno 6907 bound_to 6896
  151.3234  133.4024  159.2664 H   0  0  0  0  0  0  0  0  0  0  0  0  # atno 6908 bound_to 6896
  150.9940  134.9286  159.7973 H   0  0  0  0  0  0  0  0  0  0  0  0  # atno 6909 bound_to 6896
  146.1934  140.3799  142.8449 H   0  0  0  0  0  0  0  0  0  0  0  0  # atno 7974 bound_to 7965
  154.8689  140.2956  155.5493 H   0  0  0  0  0  0  0  0  0  0  0  0  # atno 8008 bound_to 7997
  156.3021  140.2464  156.3608 H   0  0  0  0  0  0  0  0  0  0  0  0  # atno 8009 bound_to 7997
  154.8838  140.0397  157.1787 H   0  0  0  0  0  0  0  0  0  0  0  0  # atno 8010 bound_to 7997
  140.4246  144.1411  150.6152 H   0  0  0  0  0  0  0  0  0  0  0  0  # atno 10167 bound_to 10162
  156.5929  130.8778  151.2894 H   0  0  0  0  0  0  0  0  0  0  0  0  # atno 10718 bound_to 10713
  153.8617  135.6839  153.4782 H   0  0  0  0  0  0  0  0  0  0  0  0  # atno 10763 bound_to 10752
  153.1338  135.4686  154.9388 H   0  0  0  0  0  0  0  0  0  0  0  0  # atno 10764 bound_to 10752
  154.7756  135.3252  154.8049 H   0  0  0  0  0  0  0  0  0  0  0  0  # atno 10765 bound_to 10752
  140.9829  134.0648  157.3745 H   0  0  0  0  0  0  0  0  0  0  0  0  # atno 11005 bound_to 11000
  144.8531  140.7031  143.6155 LP  0  0  0  0  0  0  0  0  0  0  0  0  # atno 17320 bound_to 7965
  145.3721  139.1656  143.4326 LP  0  0  0  0  0  0  0  0  0  0  0  0  # atno 17321 bound_to 7965
  140.4495  143.2492  151.9366 LP  0  0  0  0  0  0  0  0  0  0  0  0  # atno 17342 bound_to 10162
  139.4783  144.5576  151.8289 LP  0  0  0  0  0  0  0  0  0  0  0  0  # atno 17343 bound_to 10162
  157.7299  130.9678  150.1808 LP  0  0  0  0  0  0  0  0  0  0  0  0  # atno 17370 bound_to 10713
  156.2534  130.3703  149.8207 LP  0  0  0  0  0  0  0  0  0  0  0  0  # atno 17371 bound_to 10713
  139.8958  135.0142  156.7018 LP  0  0  0  0  0  0  0  0  0  0  0  0  # atno 17394 bound_to 11000
  140.7159  133.9182  155.8115 LP  0  0  0  0  0  0  0  0  0  0  0  0  # atno 17395 bound_to 11000

$$$$
