AV-unprocessed.smi:2695|AV-procd|sdf|10408|dock6
  -GOLD-   2272014443D 1   1.00000     0.00000
 Structure written by MMmdl.
 41 42  0  0  0  0  0  0  0  0  2 V2000
  150.2550  139.7128  154.5099 C   0  0  0  0  0  0  0  0  0  0  0  0
  151.1702  138.9535  155.4631 C   0  0  0  0  0  0  0  0  0  0  0  0
  151.9629  139.6225  156.3290 C   0  0  0  0  0  0  0  0  0  0  0  0
  152.7867  138.9587  157.2286 C   0  0  0  0  0  0  0  0  0  0  0  0
  153.5252  139.5732  158.0296 O   0  5  0  0  0  0  0  0  0  0  0  0
  152.7363  137.5716  157.1874 C   0  0  0  0  0  0  0  0  0  0  0  0
  151.8977  136.7949  156.2829 C   0  0  0  0  0  0  0  0  0  0  0  0
  151.8840  135.5626  156.2984 O   0  0  0  0  0  0  0  0  0  0  0  0
  151.1425  137.5338  155.4219 N   0  0  0  0  0  0  0  0  0  0  0  0
  150.3038  136.8214  154.4311 C   0  0  0  0  0  0  0  0  0  0  0  0
  149.3270  135.8229  155.0694 C   0  0  0  0  0  0  0  0  0  0  0  0
  149.1901  135.7669  156.2920 O   0  0  0  0  0  0  0  0  0  0  0  0
  148.6376  135.0521  154.2151 N   0  0  0  0  0  0  0  0  0  0  0  0
  147.6407  134.0446  154.5800 C   0  0  1  0  0  0  0  0  0  0  0  0
  146.3488  134.3057  153.7641 C   0  0  0  0  0  0  0  0  0  0  0  0
  146.5137  134.1020  152.2516 C   0  0  0  0  0  0  0  0  0  0  0  0
  145.3322  134.8358  151.6111 C   0  0  0  0  0  0  0  0  0  0  0  0
  144.8823  135.8925  152.6292 C   0  0  0  0  0  0  0  0  0  0  0  0
  145.7972  135.7341  153.8486 C   0  0  0  0  0  0  0  0  0  0  0  0
  148.2350  132.6292  154.3780 C   0  0  0  0  0  0  0  0  0  0  0  0
  149.0745  132.3313  155.3701 F   0  0  0  0  0  0  0  0  0  0  0  0
  147.2740  131.7064  154.3769 F   0  0  0  0  0  0  0  0  0  0  0  0
  148.8988  132.5613  153.2233 F   0  0  0  0  0  0  0  0  0  0  0  0
  150.1871  140.7631  154.7951 H   0  0  0  0  0  0  0  0  0  0  0  0
  149.2389  139.3189  154.5206 H   0  0  0  0  0  0  0  0  0  0  0  0
  150.6436  139.6735  153.4921 H   0  0  0  0  0  0  0  0  0  0  0  0
  151.9518  140.7033  156.3225 H   0  0  0  0  0  0  0  0  0  0  0  0
  153.3600  137.0146  157.8724 H   0  0  0  0  0  0  0  0  0  0  0  0
  149.7414  137.5010  153.7937 H   0  0  0  0  0  0  0  0  0  0  0  0
  150.9404  136.2875  153.7226 H   0  0  0  0  0  0  0  0  0  0  0  0
  148.8211  135.1666  153.2289 H   0  0  0  0  0  0  0  0  0  0  0  0
  147.3924  134.1592  155.6369 H   0  0  0  0  0  0  0  0  0  0  0  0
  145.5694  133.6234  154.1078 H   0  0  0  0  0  0  0  0  0  0  0  0
  147.4470  134.5579  151.9169 H   0  0  0  0  0  0  0  0  0  0  0  0
  146.5436  133.0490  151.9688 H   0  0  0  0  0  0  0  0  0  0  0  0
  145.6104  135.2806  150.6551 H   0  0  0  0  0  0  0  0  0  0  0  0
  144.5162  134.1375  151.4204 H   0  0  0  0  0  0  0  0  0  0  0  0
  144.9380  136.9020  152.2206 H   0  0  0  0  0  0  0  0  0  0  0  0
  143.8442  135.7126  152.9118 H   0  0  0  0  0  0  0  0  0  0  0  0
  145.2626  135.9236  154.7796 H   0  0  0  0  0  0  0  0  0  0  0  0
  146.6153  136.4530  153.7841 H   0  0  0  0  0  0  0  0  0  0  0  0
  1  2  1  0  0  0  0
  1 24  1  0  0  0  0
  1 25  1  0  0  0  0
  1 26  1  0  0  0  0
  2  9  1  0  0  0  0
  2  3  2  0  0  0  0
  3  4  1  0  0  0  0
  3 27  1  0  0  0  0
  4  5  1  0  0  0  0
  4  6  2  0  0  0  0
  6  7  1  0  0  0  0
  6 28  1  0  0  0  0
  7  8  2  0  0  0  0
  7  9  1  0  0  0  0
  9 10  1  0  0  0  0
 10 11  1  0  0  0  0
 10 29  1  0  0  0  0
 10 30  1  0  0  0  0
 11 12  2  0  0  0  0
 11 13  1  0  0  0  0
 13 14  1  0  0  0  0
 13 31  1  0  0  0  0
 14 15  1  0  0  0  0
 14 20  1  0  0  0  0
 14 32  1  0  0  0  0
 15 19  1  0  0  0  0
 15 16  1  0  0  0  0
 15 33  1  0  0  0  0
 16 17  1  0  0  0  0
 16 34  1  0  0  0  0
 16 35  1  0  0  0  0
 17 18  1  0  0  0  0
 17 36  1  0  0  0  0
 17 37  1  0  0  0  0
 18 19  1  0  0  0  0
 18 38  1  0  0  0  0
 18 39  1  0  0  0  0
 19 40  1  0  0  0  0
 19 41  1  0  0  0  0
 20 21  1  0  0  0  0
 20 22  1  0  0  0  0
 20 23  1  0  0  0  0
M  CHG  1   5  -1
M  END
> <s_m_source_file>
AV-unprocessed.smi

> <i_m_source_file_index>
2695

> <i_lp_mmshare_version>
43012

> <i_f3d_flags>
0

> <s_epik_input>
W0NIM11jMVtjSF1jKFtPSF0pW2NIXWMoPU8pbjFbQ0gyXUMoPU8pW05IXVtDQEBIXShDKEYpKEYpRilbQ0hdMltDSDJdW0NIMl1bQ0gyXVtDSDJdMg==

> <s_epik_cmdline>
J2VwaWtfcHl0aG9uJywgJy1waCcsICc3LjAnLCAnLXRuJywgJzgnLCAnLW1hJywgJzIwMCcsICctbWV0YWxfYmluZGluZycsICctaW1hZScsICc8aW5maWxlLm1hZT4nLCAnLW9tYWUnLCAnPG91dGZpbGUubWFlPic=

> <r_lp_tautomer_probability>
1

> <r_epik_Ionization_Penalty>
0.176977

> <r_epik_Ionization_Penalty_Charging>
0.176977

> <r_epik_Ionization_Penalty_Neutral>
1.44272e-07

> <r_epik_State_Penalty>
0.160849

> <r_epik_Charging_Adjusted_Penalty>
0.337826

> <i_epik_Tot_Q>
-1

> <i_epik_Tot_abs_Q>
1

> <r_epik_Metal_State_Penalty>
0.16085

> <b_epik_Metal_Only>
0

> <s_lp_Force_Field>
OPLS_2005

> <r_lp_Energy>
41.7446

> <b_lp_Chiralities_Consistent>
1

> <s_lp_Variant>
AV-unprocessed.smi:2695-2

> <Gold.Version>
5.8.1

> <Gold.Id.Protein>
6NUR|6NUR_protein|mol2

> <Gold.PLP.Fitness>
37.0178

> <Gold.PLP.PLP>
-25.9795

> <Gold.PLP.part.hbond>
-3.0000

> <Gold.PLP.part.metal>
0.0000

> <Gold.PLP.part.buried>
2.1631

> <Gold.PLP.part.nonpolar>
-24.4339

> <Gold.PLP.part.repulsive>
0.0359

> <Gold.PLP.ligand.clash>
0.0000

> <Gold.PLP.ligand.torsion>
0.6298

> <Gold.PLP.Chemscore.Hbond>
4.0000

> <Gold.PLP.Chemscore.CHOScore>
0.0000

> <Gold.PLP.Chemscore.Metal>
0.0000

> <Gold.Chemscore.Hbonds>
donor molecule, donor type, donor heavy atom, donor atom, acceptor molecule, acceptor atom, score
      L1  H    13    31       P1  7948  1.00
      P1  H  7997  8009       L1     5  2.00
      P1  H 10752 10763       L1     8  0.70

> <Gold.PLP.Chemscore.Internal.Correction>
0.2979

> <Gold.Rescore>
     Score         DG    S(hbond)    S(metal)    S(lipo)     H(rot)  DE(clash)    DE(int)     intcor
     10.21     -15.77       2.60        0.00      51.96       1.75       0.71       4.85       ----

> <Gold.Chemscore.Fitness>
10.2129

> <Gold.Chemscore.DG>
-15.7683

> <Gold.Chemscore.ZeroCoef>
-5.4800

> <Gold.Chemscore.Hbond>
2.6046

> <Gold.Chemscore.Metal>
0.0000

> <Gold.Chemscore.Lipo>
51.9565

> <Gold.Chemscore.Internal_Hbond>
0.0000

> <Gold.Chemscore.DEClash>
0.7095

> <Gold.Chemscore.DEInternal>
4.8458

> <Gold.Chemscore.Rot>
1.7539

> <Gold.Chemscore.Internal.Correction>
   9.000000E+99

> <Gold.Chemscore.Hbonds>
donor molecule, donor type, donor heavy atom, donor atom, acceptor molecule, acceptor atom, score
      L1  H    13    31       P1  7948  0.52
      P1  H  7997  8009       L1     5  0.33
      P1  H 10752 10763       L1     8  0.07

> <Gold.Chemscore.Hbond.Weighted>
-8.6992

> <Gold.Chemscore.Metal.Weighted>
-0.0000

> <Gold.Chemscore.Lipo.Weighted>
-6.0789

> <Gold.Chemscore.Internal_Hbond.Weighted>
0.0000

> <Gold.Chemscore.DEClash.Weighted>
0.7095

> <Gold.Chemscore.DEInternal.Weighted>
4.8458

> <Gold.Chemscore.Rot.Weighted>
4.4899

> <Gold.Chemscore.Internal.Correction.Weighted>
   9.000000E+99

> <Gold.Protein.RotatedTorsions>
[ 6907 6896 6895 6894 ] final   20.72 input  -60.11 | X-H torsion
[ 7974 7965 7964 7962 ] final    5.79 input  175.53 | X-H torsion
[ 8008 7997 7996 7995 ] final  146.33 input   59.86 | X-H torsion
[ 10167 10162 10161 10158 ] final  -86.02 input  -65.29 | X-H torsion
[ 10718 10713 10712 10709 ] final  157.46 input   66.30 | X-H torsion
[ 10763 10752 10751 10750 ] final  107.54 input  -60.55 | X-H torsion
[ 11005 11000 10999 10996 ] final   14.67 input  -57.11 | X-H torsion

> <Gold.Protein.ActiveResidues>
 VAL166  LYS551  ARG553  GLY616  TRP617  ASP618  TYR619  PRO620  LYS621  CYS622 
 ASP623  PHE694  ASN695  SER759  ASP760  ASP761  ALA762  ILE779  LEU786  VAL792 
 PHE793  MET794  SER795  GLU796  ALA797  LYS798  CYS799  TRP800  GLU811  SER814 

> <Gold.Protein.RotatedAtoms>
  151.9007  135.0379  160.0505 H   0  0  0  0  0  0  0  0  0  0  0  0  # atno 6907 bound_to 6896
  152.2360  133.5092  159.5251 H   0  0  0  0  0  0  0  0  0  0  0  0  # atno 6908 bound_to 6896
  150.7039  134.1069  159.4028 H   0  0  0  0  0  0  0  0  0  0  0  0  # atno 6909 bound_to 6896
  146.2438  140.0331  142.8388 H   0  0  0  0  0  0  0  0  0  0  0  0  # atno 7974 bound_to 7965
  156.2858  140.2185  156.5360 H   0  0  0  0  0  0  0  0  0  0  0  0  # atno 8008 bound_to 7997
  154.7409  140.0488  157.0832 H   0  0  0  0  0  0  0  0  0  0  0  0  # atno 8009 bound_to 7997
  155.0232  140.3126  155.4789 H   0  0  0  0  0  0  0  0  0  0  0  0  # atno 8010 bound_to 7997
  140.3982  143.2674  151.9177 H   0  0  0  0  0  0  0  0  0  0  0  0  # atno 10167 bound_to 10162
  157.1911  131.0655  151.2079 H   0  0  0  0  0  0  0  0  0  0  0  0  # atno 10718 bound_to 10713
  153.4082  135.3841  155.2033 H   0  0  0  0  0  0  0  0  0  0  0  0  # atno 10763 bound_to 10752
  154.8735  135.3788  154.4533 H   0  0  0  0  0  0  0  0  0  0  0  0  # atno 10764 bound_to 10752
  153.5039  135.7088  153.5879 H   0  0  0  0  0  0  0  0  0  0  0  0  # atno 10765 bound_to 10752
  140.4669  134.1070  155.7726 H   0  0  0  0  0  0  0  0  0  0  0  0  # atno 11005 bound_to 11000
  145.1136  140.9420  143.4641 LP  0  0  0  0  0  0  0  0  0  0  0  0  # atno 17320 bound_to 7965
  145.0551  139.3150  143.5909 LP  0  0  0  0  0  0  0  0  0  0  0  0  # atno 17321 bound_to 7965
  139.4786  144.5660  151.8164 LP  0  0  0  0  0  0  0  0  0  0  0  0  # atno 17342 bound_to 10162
  140.4768  144.1507  150.5926 LP  0  0  0  0  0  0  0  0  0  0  0  0  # atno 17343 bound_to 10162
  157.3859  130.7256  149.6663 LP  0  0  0  0  0  0  0  0  0  0  0  0  # atno 17370 bound_to 10713
  155.9711  130.4159  150.4207 LP  0  0  0  0  0  0  0  0  0  0  0  0  # atno 17371 bound_to 10713
  141.1595  133.8819  157.1886 LP  0  0  0  0  0  0  0  0  0  0  0  0  # atno 17394 bound_to 11000
  139.9910  135.0064  156.9974 LP  0  0  0  0  0  0  0  0  0  0  0  0  # atno 17395 bound_to 11000

$$$$
