AV-unprocessed.smi:550|AV-procd|sdf|2894|dock4
  -GOLD-   2262023393D 1   1.00000     0.00000
 Structure written by MMmdl.
 45 47  0  0  0  0  0  0  0  0  1 V2000
  147.1344  140.2860  153.5668 O   0  0  0  0  0  0  0  0  0  0  0  0
  147.9334  139.4026  153.2575 C   0  0  0  0  0  0  0  0  0  0  0  0
  147.6588  138.4324  152.3739 N   0  0  0  0  0  0  0  0  0  0  0  0
  146.3940  138.2648  151.6640 C   0  0  0  0  0  0  0  0  0  0  0  0
  145.9289  136.7957  151.6531 C   0  0  2  0  0  0  0  0  0  0  0  0
  145.0976  136.4564  150.4003 C   0  0  0  0  0  0  0  0  0  0  0  0
  144.4666  135.0736  150.5905 C   0  0  0  0  0  0  0  0  0  0  0  0
  144.0962  134.9439  152.3788 S   0  0  0  0  0  0  0  0  0  0  0  0
  142.6744  135.2420  152.6079 O   0  0  0  0  0  0  0  0  0  0  0  0
  144.7068  133.7140  152.9056 O   0  0  0  0  0  0  0  0  0  0  0  0
  145.0980  136.3934  152.8847 C   0  0  0  0  0  0  0  0  0  0  0  0
  149.1846  139.2849  153.7338 N   0  0  0  0  0  0  0  0  0  0  0  0
  149.8358  140.0836  154.7121 C   0  0  0  0  0  0  0  0  0  0  0  0
  150.9991  139.5717  155.3187 C   0  0  0  0  0  0  0  0  0  0  0  0
  151.6533  140.3326  156.3059 C   0  0  0  0  0  0  0  0  0  0  0  0
  151.1202  141.5920  156.6681 C   0  0  0  0  0  0  0  0  0  0  0  0
  151.7400  142.3845  157.6546 N   0  0  0  0  0  0  0  0  0  0  0  0
  152.0391  141.8633  158.9796 C   0  0  0  0  0  0  0  0  0  0  0  0
  152.5588  143.0693  159.7602 C   0  0  0  0  0  0  0  0  0  0  0  0
  151.7786  144.2358  159.1541 C   0  0  0  0  0  0  0  0  0  0  0  0
  151.5780  143.8314  157.6889 C   0  0  0  0  0  0  0  0  0  0  0  0
  149.9902  142.0757  156.1001 N   0  0  0  0  0  0  0  0  0  0  0  0
  149.3670  141.3439  155.1525 C   0  0  0  0  0  0  0  0  0  0  0  0
  148.3801  137.7537  152.1781 H   0  0  0  0  0  0  0  0  0  0  0  0
  145.6203  138.9091  152.0853 H   0  0  0  0  0  0  0  0  0  0  0  0
  146.5453  138.6061  150.6396 H   0  0  0  0  0  0  0  0  0  0  0  0
  146.8127  136.1562  151.6320 H   0  0  0  0  0  0  0  0  0  0  0  0
  144.3017  137.1940  150.2872 H   0  0  0  0  0  0  0  0  0  0  0  0
  145.6998  136.4962  149.4920 H   0  0  0  0  0  0  0  0  0  0  0  0
  143.5589  134.9314  150.0040 H   0  0  0  0  0  0  0  0  0  0  0  0
  145.1758  134.2861  150.3350 H   0  0  0  0  0  0  0  0  0  0  0  0
  145.7110  136.1422  153.7505 H   0  0  0  0  0  0  0  0  0  0  0  0
  144.4081  137.1884  153.1692 H   0  0  0  0  0  0  0  0  0  0  0  0
  149.7527  138.5619  153.3175 H   0  0  0  0  0  0  0  0  0  0  0  0
  151.3908  138.6066  155.0323 H   0  0  0  0  0  0  0  0  0  0  0  0
  152.5431  139.9391  156.7738 H   0  0  0  0  0  0  0  0  0  0  0  0
  151.1258  141.4758  159.4333 H   0  0  0  0  0  0  0  0  0  0  0  0
  152.7753  141.0598  158.9409 H   0  0  0  0  0  0  0  0  0  0  0  0
  152.4157  142.9714  160.8364 H   0  0  0  0  0  0  0  0  0  0  0  0
  153.6250  143.2014  159.5705 H   0  0  0  0  0  0  0  0  0  0  0  0
  150.8084  144.3171  159.6459 H   0  0  0  0  0  0  0  0  0  0  0  0
  152.2902  145.1924  159.2628 H   0  0  0  0  0  0  0  0  0  0  0  0
  152.3396  144.2860  157.0547 H   0  0  0  0  0  0  0  0  0  0  0  0
  150.5977  144.1461  157.3289 H   0  0  0  0  0  0  0  0  0  0  0  0
  148.4619  141.7858  154.7665 H   0  0  0  0  0  0  0  0  0  0  0  0
  1  2  2  0  0  0  0
  2  3  1  0  0  0  0
  2 12  1  0  0  0  0
  3  4  1  0  0  0  0
  3 24  1  0  0  0  0
  4  5  1  0  0  0  0
  4 25  1  0  0  0  0
  4 26  1  0  0  0  0
  5 11  1  0  0  0  0
  5  6  1  0  0  0  0
  5 27  1  0  0  0  0
  6  7  1  0  0  0  0
  6 28  1  0  0  0  0
  6 29  1  0  0  0  0
  7  8  1  0  0  0  0
  7 30  1  0  0  0  0
  7 31  1  0  0  0  0
  8  9  2  0  0  0  0
  8 10  2  0  0  0  0
  8 11  1  0  0  0  0
 11 32  1  0  0  0  0
 11 33  1  0  0  0  0
 12 13  1  0  0  0  0
 12 34  1  0  0  0  0
 13 23  1  0  0  0  0
 13 14  2  0  0  0  0
 14 15  1  0  0  0  0
 14 35  1  0  0  0  0
 15 16  2  0  0  0  0
 15 36  1  0  0  0  0
 16 17  1  0  0  0  0
 16 22  1  0  0  0  0
 17 21  1  0  0  0  0
 17 18  1  0  0  0  0
 18 19  1  0  0  0  0
 18 37  1  0  0  0  0
 18 38  1  0  0  0  0
 19 20  1  0  0  0  0
 19 39  1  0  0  0  0
 19 40  1  0  0  0  0
 20 21  1  0  0  0  0
 20 41  1  0  0  0  0
 20 42  1  0  0  0  0
 21 43  1  0  0  0  0
 21 44  1  0  0  0  0
 22 23  2  0  0  0  0
 23 45  1  0  0  0  0
M  END
> <s_m_source_file>
AV-unprocessed.smi

> <i_m_source_file_index>
550

> <i_lp_mmshare_version>
43012

> <i_f3d_flags>
0

> <s_epik_input>
Tz1TMSg9TylbQ0gyXVtDSDJdW0NASF0oW0NIMl0xKVtDSDJdW05IXUMoPU8pW05IXWMyW2NIXVtjSF1jKG5bY0hdMilOM1tDSDJdW0NIMl1bQ0gyXVtDSDJdMw==

> <s_epik_cmdline>
J2VwaWtfcHl0aG9uJywgJy1waCcsICc3LjAnLCAnLXRuJywgJzgnLCAnLW1hJywgJzIwMCcsICctbWV0YWxfYmluZGluZycsICctaW1hZScsICc8aW5maWxlLm1hZT4nLCAnLW9tYWUnLCAnPG91dGZpbGUubWFlPic=

> <r_lp_tautomer_probability>
1

> <r_epik_Ionization_Penalty>
0.0965651

> <r_epik_Ionization_Penalty_Charging>
0

> <r_epik_Ionization_Penalty_Neutral>
0.0965651

> <r_epik_State_Penalty>
0.0861592

> <r_epik_Charging_Adjusted_Penalty>
0.0861592

> <i_epik_Tot_Q>
0

> <i_epik_Tot_abs_Q>
0

> <r_epik_Metal_State_Penalty>
0.0740405

> <b_epik_Metal_Only>
0

> <s_lp_Force_Field>
OPLS_2005

> <r_lp_Energy>
29.4066

> <b_lp_Chiralities_Consistent>
1

> <s_lp_Variant>
AV-unprocessed.smi:550-1

> <Gold.Version>
5.8.1

> <Gold.Id.Protein>
6NUR|6NUR_protein|mol2

> <Gold.PLP.Fitness>
42.3020

> <Gold.PLP.PLP>
-41.3592

> <Gold.PLP.part.hbond>
-3.0000

> <Gold.PLP.part.metal>
0.0000

> <Gold.PLP.part.buried>
2.7307

> <Gold.PLP.part.nonpolar>
-43.4056

> <Gold.PLP.part.repulsive>
2.1556

> <Gold.PLP.ligand.clash>
0.0000

> <Gold.PLP.ligand.torsion>
1.1258

> <Gold.PLP.Chemscore.Hbond>
1.0000

> <Gold.PLP.Chemscore.CHOScore>
0.0000

> <Gold.PLP.Chemscore.Metal>
0.0000

> <Gold.Chemscore.Hbonds>
donor molecule, donor type, donor heavy atom, donor atom, acceptor molecule, acceptor atom, score
      L1  H     3    24       P1  7948  1.00

> <Gold.PLP.Chemscore.Internal.Correction>
0.1942

> <Gold.Rescore>
     Score         DG    S(hbond)    S(metal)    S(lipo)     H(rot)  DE(clash)    DE(int)     intcor
     13.08     -17.56       0.98        0.00     102.59       1.25       2.46       2.02       ----

> <Gold.Chemscore.Fitness>
13.0799

> <Gold.Chemscore.DG>
-17.5568

> <Gold.Chemscore.ZeroCoef>
-5.4800

> <Gold.Chemscore.Hbond>
0.9807

> <Gold.Chemscore.Metal>
0.0000

> <Gold.Chemscore.Lipo>
102.5888

> <Gold.Chemscore.Internal_Hbond>
0.0000

> <Gold.Chemscore.DEClash>
2.4608

> <Gold.Chemscore.DEInternal>
2.0160

> <Gold.Chemscore.Rot>
1.2506

> <Gold.Chemscore.Internal.Correction>
   9.000000E+99

> <Gold.Chemscore.Hbonds>
donor molecule, donor type, donor heavy atom, donor atom, acceptor molecule, acceptor atom, score
      L1  H     3    24       P1  7948  0.98

> <Gold.Chemscore.Hbond.Weighted>
-3.2755

> <Gold.Chemscore.Metal.Weighted>
-0.0000

> <Gold.Chemscore.Lipo.Weighted>
-12.0029

> <Gold.Chemscore.Internal_Hbond.Weighted>
0.0000

> <Gold.Chemscore.DEClash.Weighted>
2.4608

> <Gold.Chemscore.DEInternal.Weighted>
2.0160

> <Gold.Chemscore.Rot.Weighted>
3.2016

> <Gold.Chemscore.Internal.Correction.Weighted>
   9.000000E+99

> <Gold.Protein.RotatedTorsions>
[ 6907 6896 6895 6894 ] final   74.30 input  -60.11 | X-H torsion
[ 7974 7965 7964 7962 ] final  -99.12 input  175.53 | X-H torsion
[ 8008 7997 7996 7995 ] final  -18.96 input   59.86 | X-H torsion
[ 10167 10162 10161 10158 ] final  146.95 input  -65.29 | X-H torsion
[ 10718 10713 10712 10709 ] final -170.27 input   66.30 | X-H torsion
[ 10763 10752 10751 10750 ] final   73.69 input  -60.55 | X-H torsion
[ 11005 11000 10999 10996 ] final -153.25 input  -57.11 | X-H torsion

> <Gold.Protein.ActiveResidues>
 VAL166  LYS551  ARG553  GLY616  TRP617  ASP618  TYR619  PRO620  LYS621  CYS622 
 ASP623  PHE694  ASN695  SER759  ASP760  ASP761  ALA762  ILE779  LEU786  VAL792 
 PHE793  MET794  SER795  GLU796  ALA797  LYS798  CYS799  TRP800  GLU811  SER814 

> <Gold.Protein.RotatedAtoms>
  152.4969  134.4292  159.9506 H   0  0  0  0  0  0  0  0  0  0  0  0  # atno 6907 bound_to 6896
  151.4269  133.3675  159.2771 H   0  0  0  0  0  0  0  0  0  0  0  0  # atno 6908 bound_to 6896
  150.9182  134.8623  159.7531 H   0  0  0  0  0  0  0  0  0  0  0  0  # atno 6909 bound_to 6896
  145.3117  140.9402  143.2765 H   0  0  0  0  0  0  0  0  0  0  0  0  # atno 7974 bound_to 7965
  154.4869  140.2101  155.9634 H   0  0  0  0  0  0  0  0  0  0  0  0  # atno 8008 bound_to 7997
  156.1250  140.3207  155.8232 H   0  0  0  0  0  0  0  0  0  0  0  0  # atno 8009 bound_to 7997
  155.4400  140.0509  157.3002 H   0  0  0  0  0  0  0  0  0  0  0  0  # atno 8010 bound_to 7997
  139.4898  144.5792  151.6906 H   0  0  0  0  0  0  0  0  0  0  0  0  # atno 10167 bound_to 10162
  156.7237  130.9280  151.3099 H   0  0  0  0  0  0  0  0  0  0  0  0  # atno 10718 bound_to 10713
  153.0538  135.5053  154.7932 H   0  0  0  0  0  0  0  0  0  0  0  0  # atno 10763 bound_to 10752
  154.6773  135.2962  154.9663 H   0  0  0  0  0  0  0  0  0  0  0  0  # atno 10764 bound_to 10752
  154.0461  135.6710  153.4848 H   0  0  0  0  0  0  0  0  0  0  0  0  # atno 10765 bound_to 10752
  140.7102  134.3841  157.5198 H   0  0  0  0  0  0  0  0  0  0  0  0  # atno 11005 bound_to 11000
  144.9010  139.4650  143.6632 LP  0  0  0  0  0  0  0  0  0  0  0  0  # atno 17320 bound_to 7965
  146.3115  139.7764  142.9016 LP  0  0  0  0  0  0  0  0  0  0  0  0  # atno 17321 bound_to 7965
  140.5394  144.0603  150.6082 LP  0  0  0  0  0  0  0  0  0  0  0  0  # atno 17342 bound_to 10162
  140.3620  143.2902  152.0373 LP  0  0  0  0  0  0  0  0  0  0  0  0  # atno 17343 bound_to 10162
  157.6887  130.9212  150.0456 LP  0  0  0  0  0  0  0  0  0  0  0  0  # atno 17370 bound_to 10713
  156.1577  130.3643  149.9345 LP  0  0  0  0  0  0  0  0  0  0  0  0  # atno 17371 bound_to 10713
  139.8873  134.8885  156.2533 LP  0  0  0  0  0  0  0  0  0  0  0  0  # atno 17394 bound_to 11000
  141.0091  133.7106  156.1082 LP  0  0  0  0  0  0  0  0  0  0  0  0  # atno 17395 bound_to 11000

$$$$
