AV-unprocessed.smi:342|AV-procd|sdf|2387|dock9
  -GOLD-   2262022313D 1   1.00000     0.00000
 Structure written by MMmdl.
 42 44  0  0  0  0  0  0  0  0  2 V2000
  151.1196  140.2988  154.8703 O   0  0  0  0  0  0  0  0  0  0  0  0
  150.0872  141.0798  155.4400 C   0  0  1  0  0  0  0  0  0  0  0  0
  148.8613  141.0246  154.5074 C   0  0  0  0  0  0  0  0  0  0  0  0
  147.7775  141.9471  154.9322 N   0  3  0  0  0  0  0  0  0  0  0  0
  146.8768  142.3181  153.8146 C   0  0  0  0  0  0  0  0  0  0  0  0
  145.8129  143.3212  154.2912 C   0  0  0  0  0  0  0  0  0  0  0  0
  145.0831  142.7611  155.3757 O   0  0  0  0  0  0  0  0  0  0  0  0
  145.9198  142.4791  156.4907 C   0  0  0  0  0  0  0  0  0  0  0  0
  146.9898  141.4502  156.0880 C   0  0  0  0  0  0  0  0  0  0  0  0
  149.7507  140.5514  156.8502 C   0  0  0  0  0  0  0  0  0  0  0  0
  150.8117  140.7957  157.8196 N   0  0  0  0  0  0  0  0  0  0  0  0
  151.5192  139.8871  158.5421 C   0  0  0  0  0  0  0  0  0  0  0  0
  151.3038  138.4042  158.4068 C   0  0  0  0  0  0  0  0  0  0  0  0
  150.0306  138.0838  158.6419 F   0  0  0  0  0  0  0  0  0  0  0  0
  151.6045  137.9855  157.1780 F   0  0  0  0  0  0  0  0  0  0  0  0
  152.0608  137.7418  159.2813 F   0  0  0  0  0  0  0  0  0  0  0  0
  152.4449  140.3973  159.3575 N   0  0  0  0  0  0  0  0  0  0  0  0
  152.3332  141.7560  159.1413 C   0  0  0  0  0  0  0  0  0  0  0  0
  153.0449  142.8375  159.7078 C   0  0  0  0  0  0  0  0  0  0  0  0
  152.7552  144.1626  159.3222 C   0  0  0  0  0  0  0  0  0  0  0  0
  151.7529  144.4244  158.3660 C   0  0  0  0  0  0  0  0  0  0  0  0
  151.0322  143.3609  157.7896 C   0  0  0  0  0  0  0  0  0  0  0  0
  151.3232  142.0396  158.1799 C   0  0  0  0  0  0  0  0  0  0  0  0
  151.4281  139.6863  155.5218 H   0  0  0  0  0  0  0  0  0  0  0  0
  150.4518  142.1017  155.5244 H   0  0  0  0  0  0  0  0  0  0  0  0
  149.1847  141.2789  153.4965 H   0  0  0  0  0  0  0  0  0  0  0  0
  148.4655  140.0092  154.4523 H   0  0  0  0  0  0  0  0  0  0  0  0
  147.4553  142.7590  153.0018 H   0  0  0  0  0  0  0  0  0  0  0  0
  146.3957  141.4221  153.4184 H   0  0  0  0  0  0  0  0  0  0  0  0
  146.2724  144.2638  154.5933 H   0  0  0  0  0  0  0  0  0  0  0  0
  145.1214  143.5498  153.4801 H   0  0  0  0  0  0  0  0  0  0  0  0
  146.3805  143.3980  156.8576 H   0  0  0  0  0  0  0  0  0  0  0  0
  145.3065  142.0848  157.3013 H   0  0  0  0  0  0  0  0  0  0  0  0
  146.5136  140.5036  155.8276 H   0  0  0  0  0  0  0  0  0  0  0  0
  147.6392  141.2560  156.9409 H   0  0  0  0  0  0  0  0  0  0  0  0
  148.8298  141.0079  157.2118 H   0  0  0  0  0  0  0  0  0  0  0  0
  149.5558  139.4786  156.8153 H   0  0  0  0  0  0  0  0  0  0  0  0
  153.8166  142.6473  160.4391 H   0  0  0  0  0  0  0  0  0  0  0  0
  153.3061  144.9818  159.7608 H   0  0  0  0  0  0  0  0  0  0  0  0
  151.5382  145.4423  158.0748 H   0  0  0  0  0  0  0  0  0  0  0  0
  150.2647  143.5603  157.0568 H   0  0  0  0  0  0  0  0  0  0  0  0
  148.2311  142.8015  155.2245 H   0  0  0  0  0  0  0  0  0  0  0  0
  1  2  1  0  0  0  0
  1 24  1  0  0  0  0
  2  3  1  0  0  0  0
  2 10  1  0  0  0  0
  2 25  1  0  0  0  0
  3  4  1  0  0  0  0
  3 26  1  0  0  0  0
  3 27  1  0  0  0  0
  4  9  1  0  0  0  0
  4  5  1  0  0  0  0
  4 42  1  0  0  0  0
  5  6  1  0  0  0  0
  5 28  1  0  0  0  0
  5 29  1  0  0  0  0
  6  7  1  0  0  0  0
  6 30  1  0  0  0  0
  6 31  1  0  0  0  0
  7  8  1  0  0  0  0
  8  9  1  0  0  0  0
  8 32  1  0  0  0  0
  8 33  1  0  0  0  0
  9 34  1  0  0  0  0
  9 35  1  0  0  0  0
 10 11  1  0  0  0  0
 10 36  1  0  0  0  0
 10 37  1  0  0  0  0
 11 23  1  0  0  0  0
 11 12  1  0  0  0  0
 12 13  1  0  0  0  0
 12 17  2  0  0  0  0
 13 14  1  0  0  0  0
 13 15  1  0  0  0  0
 13 16  1  0  0  0  0
 17 18  1  0  0  0  0
 18 23  2  0  0  0  0
 18 19  1  0  0  0  0
 19 20  2  0  0  0  0
 19 38  1  0  0  0  0
 20 21  1  0  0  0  0
 20 39  1  0  0  0  0
 21 22  2  0  0  0  0
 21 40  1  0  0  0  0
 22 23  1  0  0  0  0
 22 41  1  0  0  0  0
M  CHG  1   4   1
M  END
> <s_m_source_file>
AV-unprocessed.smi

> <i_m_source_file_index>
342

> <i_lp_mmshare_version>
43012

> <i_f3d_flags>
0

> <s_epik_input>
W2NIXTFbY0hdW2NIXVtjSF1jKGMxMiluKGMobjIpQyhGKShGKUYpW0NIMl1bQ0BIXShbT0hdKVtDSDJdTjNbQ0gyXVtDSDJdT1tDSDJdW0NIMl0z

> <s_epik_cmdline>
J2VwaWtfcHl0aG9uJywgJy1waCcsICc3LjAnLCAnLXRuJywgJzgnLCAnLW1hJywgJzIwMCcsICctbWV0YWxfYmluZGluZycsICctaW1hZScsICc8aW5maWxlLm1hZT4nLCAnLW9tYWUnLCAnPG91dGZpbGUubWFlPic=

> <r_epik_Ionization_Penalty>
0.608409

> <r_epik_Ionization_Penalty_Charging>
0.608065

> <r_epik_Ionization_Penalty_Neutral>
0.000344684

> <r_epik_State_Penalty>
0.623026

> <r_epik_Charging_Adjusted_Penalty>
1.23109

> <i_epik_Tot_Q>
1

> <i_epik_Tot_abs_Q>
1

> <r_epik_Metal_State_Penalty>
0.623013

> <b_epik_Metal_Only>
0

> <s_lp_Force_Field>
OPLS_2005

> <r_lp_Energy>
25.6933

> <b_lp_Chiralities_Consistent>
1

> <s_lp_Variant>
AV-unprocessed.smi:342-4

> <Gold.Version>
5.8.1

> <Gold.Id.Protein>
6NUR|6NUR_protein|mol2

> <Gold.PLP.Fitness>
53.6200

> <Gold.PLP.PLP>
-45.2221

> <Gold.PLP.part.hbond>
-2.0000

> <Gold.PLP.part.metal>
0.0000

> <Gold.PLP.part.buried>
-7.7760

> <Gold.PLP.part.nonpolar>
-35.9400

> <Gold.PLP.part.repulsive>
0.2886

> <Gold.PLP.ligand.clash>
0.0000

> <Gold.PLP.ligand.torsion>
0.3185

> <Gold.PLP.Chemscore.Hbond>
3.0000

> <Gold.PLP.Chemscore.CHOScore>
0.0000

> <Gold.PLP.Chemscore.Metal>
0.0000

> <Gold.Chemscore.Hbonds>
donor molecule, donor type, donor heavy atom, donor atom, acceptor molecule, acceptor atom, score
      L1  H     4    42       P1  8028  1.89
      P1  H  7989  7998       L1     1  1.00

> <Gold.PLP.Chemscore.Internal.Correction>
0.0349

> <Gold.Rescore>
     Score         DG    S(hbond)    S(metal)    S(lipo)     H(rot)  DE(clash)    DE(int)     intcor
     17.94     -18.45       1.92        0.00     106.90       2.32       0.12       0.38       ----

> <Gold.Chemscore.Fitness>
17.9441

> <Gold.Chemscore.DG>
-18.4480

> <Gold.Chemscore.ZeroCoef>
-5.4800

> <Gold.Chemscore.Hbond>
1.9165

> <Gold.Chemscore.Metal>
0.0000

> <Gold.Chemscore.Lipo>
106.9034

> <Gold.Chemscore.Internal_Hbond>
0.0000

> <Gold.Chemscore.DEClash>
0.1229

> <Gold.Chemscore.DEInternal>
0.3810

> <Gold.Chemscore.Rot>
2.3206

> <Gold.Chemscore.Internal.Correction>
   9.000000E+99

> <Gold.Chemscore.Hbonds>
donor molecule, donor type, donor heavy atom, donor atom, acceptor molecule, acceptor atom, score
      L1  H     4    42       P1  8028  0.89
      P1  H  7989  7998       L1     1  0.82

> <Gold.Chemscore.Hbond.Weighted>
-6.4010

> <Gold.Chemscore.Metal.Weighted>
-0.0000

> <Gold.Chemscore.Lipo.Weighted>
-12.5077

> <Gold.Chemscore.Internal_Hbond.Weighted>
0.0000

> <Gold.Chemscore.DEClash.Weighted>
0.1229

> <Gold.Chemscore.DEInternal.Weighted>
0.3810

> <Gold.Chemscore.Rot.Weighted>
5.9407

> <Gold.Chemscore.Internal.Correction.Weighted>
   9.000000E+99

> <Gold.Protein.RotatedTorsions>
[ 6907 6896 6895 6894 ] final  174.97 input  -60.11 | X-H torsion
[ 7974 7965 7964 7962 ] final  134.44 input  175.53 | X-H torsion
[ 8008 7997 7996 7995 ] final  -94.63 input   59.86 | X-H torsion
[ 10167 10162 10161 10158 ] final    5.51 input  -65.29 | X-H torsion
[ 10718 10713 10712 10709 ] final   29.22 input   66.30 | X-H torsion
[ 10763 10752 10751 10750 ] final   50.60 input  -60.55 | X-H torsion
[ 11005 11000 10999 10996 ] final -145.34 input  -57.11 | X-H torsion

> <Gold.Protein.ActiveResidues>
 VAL166  LYS551  ARG553  GLY616  TRP617  ASP618  TYR619  PRO620  LYS621  CYS622 
 ASP623  PHE694  ASN695  SER759  ASP760  ASP761  ALA762  ILE779  LEU786  VAL792 
 PHE793  MET794  SER795  GLU796  ALA797  LYS798  CYS799  TRP800  GLU811  SER814 

> <Gold.Protein.RotatedAtoms>
  151.7438  133.3323  159.3372 H   0  0  0  0  0  0  0  0  0  0  0  0  # atno 6907 bound_to 6896
  150.7563  134.6254  159.6167 H   0  0  0  0  0  0  0  0  0  0  0  0  # atno 6908 bound_to 6896
  152.3513  134.7003  160.0287 H   0  0  0  0  0  0  0  0  0  0  0  0  # atno 6909 bound_to 6896
  144.9763  139.4552  143.5408 H   0  0  0  0  0  0  0  0  0  0  0  0  # atno 7974 bound_to 7965
  154.7509  140.0487  157.0893 H   0  0  0  0  0  0  0  0  0  0  0  0  # atno 8008 bound_to 7997
  155.0058  140.3130  155.4830 H   0  0  0  0  0  0  0  0  0  0  0  0  # atno 8009 bound_to 7997
  156.2885  140.2193  156.5170 H   0  0  0  0  0  0  0  0  0  0  0  0  # atno 8010 bound_to 7997
  140.6478  143.7619  150.7527 H   0  0  0  0  0  0  0  0  0  0  0  0  # atno 10167 bound_to 10162
  157.2437  130.7081  149.6371 H   0  0  0  0  0  0  0  0  0  0  0  0  # atno 10718 bound_to 10713
  152.9784  135.5873  154.4278 H   0  0  0  0  0  0  0  0  0  0  0  0  # atno 10763 bound_to 10752
  154.3895  135.2767  155.2165 H   0  0  0  0  0  0  0  0  0  0  0  0  # atno 10764 bound_to 10752
  154.4043  135.6096  153.5970 H   0  0  0  0  0  0  0  0  0  0  0  0  # atno 10765 bound_to 10752
  140.7933  134.2943  157.5005 H   0  0  0  0  0  0  0  0  0  0  0  0  # atno 11005 bound_to 11000
  146.3396  139.9007  142.8795 LP  0  0  0  0  0  0  0  0  0  0  0  0  # atno 17320 bound_to 7965
  145.2486  141.0035  143.3894 LP  0  0  0  0  0  0  0  0  0  0  0  0  # atno 17321 bound_to 7965
  140.1263  143.4566  152.2282 LP  0  0  0  0  0  0  0  0  0  0  0  0  # atno 17342 bound_to 10162
  139.5690  144.7452  151.3942 LP  0  0  0  0  0  0  0  0  0  0  0  0  # atno 17343 bound_to 10162
  155.9669  130.4450  150.5483 LP  0  0  0  0  0  0  0  0  0  0  0  0  # atno 17370 bound_to 10713
  157.3352  131.0707  151.1831 LP  0  0  0  0  0  0  0  0  0  0  0  0  # atno 17371 bound_to 10713
  139.8729  134.9387  156.3722 LP  0  0  0  0  0  0  0  0  0  0  0  0  # atno 17394 bound_to 11000
  140.9368  133.7542  156.0095 LP  0  0  0  0  0  0  0  0  0  0  0  0  # atno 17395 bound_to 11000

$$$$
