AV-unprocessed.smi:1005|AV-procd|sdf|4388|dock5
  -GOLD-   22720 2313D 1   1.00000     0.00000
 Structure written by MMmdl.
 55 57  0  0  0  0  0  0  0  0  1 V2000
  153.1746  143.4640  162.3476 C   0  0  0  0  0  0  0  0  0  0  0  0
  152.7200  142.9658  160.9871 C   0  0  0  0  0  0  0  0  0  0  0  0
  152.8800  141.5987  160.6675 C   0  0  0  0  0  0  0  0  0  0  0  0
  152.4724  141.0957  159.4125 C   0  0  0  0  0  0  0  0  0  0  0  0
  152.5357  139.8131  158.8951 N   0  0  0  0  0  0  0  0  0  0  0  0
  152.0059  139.9853  157.6875 C   0  0  0  0  0  0  0  0  0  0  0  0
  151.6039  141.2286  157.3614 N   0  0  0  0  0  0  0  0  0  0  0  0
  151.0024  141.6498  156.1082 C   0  0  0  0  0  0  0  0  0  0  0  0
  150.2280  140.5134  155.4133 C   0  0  2  0  0  0  0  0  0  0  0  0
  151.1282  139.7341  154.6490 O   0  0  0  0  0  0  0  0  0  0  0  0
  149.1334  141.0683  154.4786 C   0  0  0  0  0  0  0  0  0  0  0  0
  147.8124  141.2528  155.0828 N   0  0  0  0  0  0  0  0  0  0  0  0
  147.0282  142.2244  154.3293 C   0  0  0  0  0  0  0  0  0  0  0  0
  145.6358  142.4397  154.9437 C   0  0  0  0  0  0  0  0  0  0  0  0
  145.7783  142.8340  156.3042 O   0  0  0  0  0  0  0  0  0  0  0  0
  146.4747  141.8731  157.0949 C   0  0  2  0  0  0  0  0  0  0  0  0
  146.5200  142.3990  158.5449 C   0  0  0  0  0  0  0  0  0  0  0  0
  145.2431  142.3958  159.2609 N   0  0  0  0  0  0  0  0  0  0  0  0
  144.6419  141.0700  159.3325 C   0  0  0  0  0  0  0  0  0  0  0  0
  145.4005  142.9516  160.5976 C   0  0  0  0  0  0  0  0  0  0  0  0
  147.8788  141.6814  156.4789 C   0  0  0  0  0  0  0  0  0  0  0  0
  151.8942  142.0047  158.4787 C   0  0  0  0  0  0  0  0  0  0  0  0
  151.7296  143.3671  158.7854 C   0  0  0  0  0  0  0  0  0  0  0  0
  152.1428  143.8532  160.0435 C   0  0  0  0  0  0  0  0  0  0  0  0
  151.9626  145.3264  160.3641 C   0  0  0  0  0  0  0  0  0  0  0  0
  153.6238  142.6629  162.9351 H   0  0  0  0  0  0  0  0  0  0  0  0
  152.3294  143.8594  162.9113 H   0  0  0  0  0  0  0  0  0  0  0  0
  153.9178  144.2537  162.2373 H   0  0  0  0  0  0  0  0  0  0  0  0
  153.3200  140.9227  161.3857 H   0  0  0  0  0  0  0  0  0  0  0  0
  151.9039  139.1598  156.9985 H   0  0  0  0  0  0  0  0  0  0  0  0
  150.3330  142.4851  156.3181 H   0  0  0  0  0  0  0  0  0  0  0  0
  151.7860  142.0373  155.4558 H   0  0  0  0  0  0  0  0  0  0  0  0
  149.7932  139.8785  156.1843 H   0  0  0  0  0  0  0  0  0  0  0  0
  150.8710  138.8271  154.7132 H   0  0  0  0  0  0  0  0  0  0  0  0
  149.4693  142.0199  154.0635 H   0  0  0  0  0  0  0  0  0  0  0  0
  149.0451  140.3914  153.6273 H   0  0  0  0  0  0  0  0  0  0  0  0
  147.5562  143.1788  154.2946 H   0  0  0  0  0  0  0  0  0  0  0  0
  146.9180  141.8916  153.2967 H   0  0  0  0  0  0  0  0  0  0  0  0
  145.0974  143.2170  154.4016 H   0  0  0  0  0  0  0  0  0  0  0  0
  145.0370  141.5298  154.8793 H   0  0  0  0  0  0  0  0  0  0  0  0
  145.9137  140.9369  157.0613 H   0  0  0  0  0  0  0  0  0  0  0  0
  147.2789  141.8629  159.1172 H   0  0  0  0  0  0  0  0  0  0  0  0
  146.8694  143.4319  158.5024 H   0  0  0  0  0  0  0  0  0  0  0  0
  143.7159  141.0966  159.9081 H   0  0  0  0  0  0  0  0  0  0  0  0
  145.3157  140.3556  159.8075 H   0  0  0  0  0  0  0  0  0  0  0  0
  144.3875  140.6997  158.3398 H   0  0  0  0  0  0  0  0  0  0  0  0
  144.4407  142.9989  161.1131 H   0  0  0  0  0  0  0  0  0  0  0  0
  145.7981  143.9661  160.5520 H   0  0  0  0  0  0  0  0  0  0  0  0
  146.0800  142.3460  161.1989 H   0  0  0  0  0  0  0  0  0  0  0  0
  148.4261  140.9505  157.0692 H   0  0  0  0  0  0  0  0  0  0  0  0
  148.4376  142.6160  156.5499 H   0  0  0  0  0  0  0  0  0  0  0  0
  151.2913  144.0324  158.0566 H   0  0  0  0  0  0  0  0  0  0  0  0
  151.4852  145.8576  159.5402 H   0  0  0  0  0  0  0  0  0  0  0  0
  152.9287  145.7962  160.5503 H   0  0  0  0  0  0  0  0  0  0  0  0
  151.3390  145.4523  161.2494 H   0  0  0  0  0  0  0  0  0  0  0  0
  1  2  1  0  0  0  0
  1 26  1  0  0  0  0
  1 27  1  0  0  0  0
  1 28  1  0  0  0  0
  2 24  1  0  0  0  0
  2  3  2  0  0  0  0
  3  4  1  0  0  0  0
  3 29  1  0  0  0  0
  4 22  2  0  0  0  0
  4  5  1  0  0  0  0
  5  6  2  0  0  0  0
  6  7  1  0  0  0  0
  6 30  1  0  0  0  0
  7  8  1  0  0  0  0
  7 22  1  0  0  0  0
  8  9  1  0  0  0  0
  8 31  1  0  0  0  0
  8 32  1  0  0  0  0
  9 10  1  0  0  0  0
  9 11  1  0  0  0  0
  9 33  1  0  0  0  0
 10 34  1  0  0  0  0
 11 12  1  0  0  0  0
 11 35  1  0  0  0  0
 11 36  1  0  0  0  0
 12 21  1  0  0  0  0
 12 13  1  0  0  0  0
 13 14  1  0  0  0  0
 13 37  1  0  0  0  0
 13 38  1  0  0  0  0
 14 15  1  0  0  0  0
 14 39  1  0  0  0  0
 14 40  1  0  0  0  0
 15 16  1  0  0  0  0
 16 17  1  0  0  0  0
 16 21  1  0  0  0  0
 16 41  1  0  0  0  0
 17 18  1  0  0  0  0
 17 42  1  0  0  0  0
 17 43  1  0  0  0  0
 18 19  1  0  0  0  0
 18 20  1  0  0  0  0
 19 44  1  0  0  0  0
 19 45  1  0  0  0  0
 19 46  1  0  0  0  0
 20 47  1  0  0  0  0
 20 48  1  0  0  0  0
 20 49  1  0  0  0  0
 21 50  1  0  0  0  0
 21 51  1  0  0  0  0
 22 23  1  0  0  0  0
 23 24  2  0  0  0  0
 23 52  1  0  0  0  0
 24 25  1  0  0  0  0
 25 53  1  0  0  0  0
 25 54  1  0  0  0  0
 25 55  1  0  0  0  0
M  END
> <s_m_source_file>
AV-unprocessed.smi

> <i_m_source_file_index>
1005

> <i_lp_mmshare_version>
43012

> <i_f3d_flags>
0

> <s_epik_input>
W0NIM11jKFtjSF0xKWMoW0NIM10pW2NIXWMoYzEyKW4oW2NIXW4yKVtDSDJdW0NASF0oW09IXSlbQ0gyXU4zW0NIMl1bQ0gyXU9bQ0BIXShbQ0gyXTMpW0NIMl1OKFtDSDNdKVtDSDNd

> <s_epik_cmdline>
J2VwaWtfcHl0aG9uJywgJy1waCcsICc3LjAnLCAnLXRuJywgJzgnLCAnLW1hJywgJzIwMCcsICctbWV0YWxfYmluZGluZycsICctaW1hZScsICc8aW5maWxlLm1hZT4nLCAnLW9tYWUnLCAnPG91dGZpbGUubWFlPic=

> <r_epik_Ionization_Penalty>
2.78613

> <r_epik_Ionization_Penalty_Charging>
0

> <r_epik_Ionization_Penalty_Neutral>
2.78613

> <r_epik_State_Penalty>
2.57336

> <r_epik_Charging_Adjusted_Penalty>
2.57336

> <i_epik_Tot_Q>
0

> <i_epik_Tot_abs_Q>
0

> <r_epik_Metal_State_Penalty>
2.49087

> <b_epik_Metal_Only>
0

> <s_lp_Force_Field>
OPLS_2005

> <r_lp_Energy>
40.4742

> <b_lp_Chiralities_Consistent>
1

> <s_lp_Variant>
AV-unprocessed.smi:1005-27

> <Gold.Version>
5.8.1

> <Gold.Id.Protein>
6NUR|6NUR_protein|mol2

> <Gold.PLP.Fitness>
51.0903

> <Gold.PLP.PLP>
-50.4156

> <Gold.PLP.part.hbond>
-1.0000

> <Gold.PLP.part.metal>
0.0000

> <Gold.PLP.part.buried>
-8.7110

> <Gold.PLP.part.nonpolar>
-40.5172

> <Gold.PLP.part.repulsive>
0.2422

> <Gold.PLP.ligand.clash>
0.0000

> <Gold.PLP.ligand.torsion>
1.3412

> <Gold.PLP.Chemscore.Hbond>
1.0000

> <Gold.PLP.Chemscore.CHOScore>
0.0000

> <Gold.PLP.Chemscore.Metal>
0.0000

> <Gold.Chemscore.Hbonds>
donor molecule, donor type, donor heavy atom, donor atom, acceptor molecule, acceptor atom, score
      P1  H  7989  7998       L1    10  1.00

> <Gold.PLP.Chemscore.Internal.Correction>
0.3572

> <Gold.Rescore>
     Score         DG    S(hbond)    S(metal)    S(lipo)     H(rot)  DE(clash)    DE(int)     intcor
     15.85     -17.30       0.85        0.00     126.92       2.29       0.14       1.30       ----

> <Gold.Chemscore.Fitness>
15.8526

> <Gold.Chemscore.DG>
-17.2978

> <Gold.Chemscore.ZeroCoef>
-5.4800

> <Gold.Chemscore.Hbond>
0.8470

> <Gold.Chemscore.Metal>
0.0000

> <Gold.Chemscore.Lipo>
126.9233

> <Gold.Chemscore.Internal_Hbond>
0.0000

> <Gold.Chemscore.DEClash>
0.1408

> <Gold.Chemscore.DEInternal>
1.3044

> <Gold.Chemscore.Rot>
2.2895

> <Gold.Chemscore.Internal.Correction>
   9.000000E+99

> <Gold.Chemscore.Hbonds>
donor molecule, donor type, donor heavy atom, donor atom, acceptor molecule, acceptor atom, score
      P1  H  7989  7998       L1    10  0.30

> <Gold.Chemscore.Hbond.Weighted>
-2.8290

> <Gold.Chemscore.Metal.Weighted>
-0.0000

> <Gold.Chemscore.Lipo.Weighted>
-14.8500

> <Gold.Chemscore.Internal_Hbond.Weighted>
0.0000

> <Gold.Chemscore.DEClash.Weighted>
0.1408

> <Gold.Chemscore.DEInternal.Weighted>
1.3044

> <Gold.Chemscore.Rot.Weighted>
5.8612

> <Gold.Chemscore.Internal.Correction.Weighted>
   9.000000E+99

> <Gold.Protein.RotatedTorsions>
[ 6907 6896 6895 6894 ] final  -35.40 input  -60.11 | X-H torsion
[ 7974 7965 7964 7962 ] final  157.51 input  175.53 | X-H torsion
[ 8008 7997 7996 7995 ] final   49.07 input   59.86 | X-H torsion
[ 10167 10162 10161 10158 ] final -111.43 input  -65.29 | X-H torsion
[ 10718 10713 10712 10709 ] final   56.26 input   66.30 | X-H torsion
[ 10763 10752 10751 10750 ] final  -65.87 input  -60.55 | X-H torsion
[ 11005 11000 10999 10996 ] final -144.82 input  -57.11 | X-H torsion

> <Gold.Protein.ActiveResidues>
 VAL166  LYS551  ARG553  GLY616  TRP617  ASP618  TYR619  PRO620  LYS621  CYS622 
 ASP623  PHE694  ASN695  SER759  ASP760  ASP761  ALA762  ILE779  LEU786  VAL792 
 PHE793  MET794  SER795  GLU796  ALA797  LYS798  CYS799  TRP800  GLU811  SER814 

> <Gold.Protein.RotatedAtoms>
  151.0403  134.9602  159.8157 H   0  0  0  0  0  0  0  0  0  0  0  0  # atno 6907 bound_to 6896
  152.5363  134.2666  159.8965 H   0  0  0  0  0  0  0  0  0  0  0  0  # atno 6908 bound_to 6896
  151.2678  133.4227  159.2653 H   0  0  0  0  0  0  0  0  0  0  0  0  # atno 6909 bound_to 6896
  144.7899  139.7350  143.6225 H   0  0  0  0  0  0  0  0  0  0  0  0  # atno 7974 bound_to 7965
  155.3961  140.3435  155.4254 H   0  0  0  0  0  0  0  0  0  0  0  0  # atno 8008 bound_to 7997
  156.1530  140.1577  156.8771 H   0  0  0  0  0  0  0  0  0  0  0  0  # atno 8009 bound_to 7997
  154.5069  140.0800  156.7894 H   0  0  0  0  0  0  0  0  0  0  0  0  # atno 8010 bound_to 7997
  140.1336  143.4339  152.1610 H   0  0  0  0  0  0  0  0  0  0  0  0  # atno 10167 bound_to 10162
  157.5416  130.8701  149.8830 H   0  0  0  0  0  0  0  0  0  0  0  0  # atno 10718 bound_to 10713
  154.3515  135.6135  153.5645 H   0  0  0  0  0  0  0  0  0  0  0  0  # atno 10763 bound_to 10752
  152.9798  135.5793  154.4738 H   0  0  0  0  0  0  0  0  0  0  0  0  # atno 10764 bound_to 10752
  154.4460  135.2851  155.1792 H   0  0  0  0  0  0  0  0  0  0  0  0  # atno 10765 bound_to 10752
  140.7985  134.2884  157.4987 H   0  0  0  0  0  0  0  0  0  0  0  0  # atno 11005 bound_to 11000
  146.2147  139.5528  142.9658 LP  0  0  0  0  0  0  0  0  0  0  0  0  # atno 17320 bound_to 7965
  145.5822  141.0381  143.2116 LP  0  0  0  0  0  0  0  0  0  0  0  0  # atno 17321 bound_to 7965
  139.5507  144.7335  151.4444 LP  0  0  0  0  0  0  0  0  0  0  0  0  # atno 17342 bound_to 10162
  140.6802  143.8099  150.7111 LP  0  0  0  0  0  0  0  0  0  0  0  0  # atno 17343 bound_to 10162
  156.0501  130.3719  150.1221 LP  0  0  0  0  0  0  0  0  0  0  0  0  # atno 17370 bound_to 10713
  156.9401  130.9741  151.3518 LP  0  0  0  0  0  0  0  0  0  0  0  0  # atno 17371 bound_to 10713
  139.8724  134.9416  156.3801 LP  0  0  0  0  0  0  0  0  0  0  0  0  # atno 17394 bound_to 11000
  140.9318  133.7574  156.0034 LP  0  0  0  0  0  0  0  0  0  0  0  0  # atno 17395 bound_to 11000

$$$$
